0
                    3D
 Structure written by MMmdl.
171180  0  0  1  0            999 V2000
  -30.6659  -14.5352   20.5391 C   0  0  0  0  0  0
  -30.4357  -12.3390   19.4295 C   0  0  0  0  0  0
  -29.5037  -12.5049   18.2108 C   0  0  0  0  0  0
  -28.0250  -12.3570   18.6232 C   0  0  0  0  0  0
  -27.6592  -13.2084   19.8678 C   0  0  2  0  0  0
  -28.7038  -13.0158   20.9905 C   0  0  0  0  0  0
  -25.2587  -13.8162   20.5661 C   0  0  0  0  0  0
  -24.1848  -13.0440   20.9193 C   0  0  0  0  0  0
  -24.6406  -11.6914   20.8757 C   0  0  0  0  0  0
  -23.9063  -10.4299   21.0410 C   0  0  0  0  0  0
  -24.3613   -9.4209   21.9178 C   0  0  0  0  0  0
  -23.6289   -8.2243   22.0751 C   0  0  0  0  0  0
  -22.4269   -8.0280   21.3544 C   0  0  0  0  0  0
  -21.9903   -9.0256   20.4650 C   0  0  0  0  0  0
  -22.7236  -10.2137   20.3058 C   0  0  0  0  0  0
  -21.6851   -6.0729   22.5279 C   0  0  0  0  0  0
  -21.4022   -6.5633   23.8217 C   0  0  0  0  0  0
  -21.3660   -5.6780   24.9176 C   0  0  0  0  0  0
  -21.6043   -4.3043   24.7216 C   0  0  0  0  0  0
  -21.8818   -3.8136   23.4339 C   0  0  0  0  0  0
  -21.9196   -4.6960   22.3398 C   0  0  0  0  0  0
  -22.7862  -13.5246   21.1825 C   0  0  0  0  0  0
  -22.1657   -4.2148   21.0977 F   0  0  0  0  0  0
  -21.5634   -3.4528   25.7729 F   0  0  0  0  0  0
  -30.0282  -13.3351   20.4317 N   0  0  0  0  0  0
  -26.3026  -12.9337   20.3327 N   0  0  0  0  0  0
  -25.9336  -11.6505   20.5757 N   0  0  0  0  0  0
  -22.0482  -12.8276   22.0395 N   0  0  0  0  0  0
  -25.4286  -15.1871   20.4011 N   0  0  0  0  0  0
  -31.8129  -14.7192   20.1257 O   0  0  0  0  0  0
  -21.6641   -6.8874   21.4238 O   0  0  0  0  0  0
  -22.3567  -14.5539   20.6643 O   0  0  0  0  0  0
  -24.6185  -31.8637   23.2064 C   0  0  0  0  0  0
  -25.9058  -32.4789   23.8375 C   0  0  1  0  0  0
  -27.2383  -27.4032   20.1056 C   0  0  0  0  0  0
  -25.5912  -33.8589   24.2302 N   0  0  0  0  0  0
  -23.4093  -30.4881   21.5473 C   0  0  2  0  0  0
  -24.8582  -28.9465   20.1164 C   0  0  0  0  0  0
  -22.7425  -29.4650   22.4960 C   0  0  0  0  0  0
  -18.0273  -28.1393   22.8488 C   0  0  0  0  0  0
  -24.1486  -36.7298   23.2634 C   0  0  0  0  0  0
  -25.9418  -30.8208   21.3651 C   0  0  0  0  0  0
  -26.0208  -29.4530   20.7106 C   0  0  0  0  0  0
  -27.2178  -28.6931   20.6942 C   0  0  0  0  0  0
  -26.0582  -26.9149   19.5064 C   0  0  0  0  0  0
  -24.8738  -27.6782   19.5082 C   0  0  0  0  0  0
  -23.6206  -29.8165   20.1633 C   0  0  0  0  0  0
  -25.4108  -36.3084   24.0331 C   0  0  1  0  0  0
  -20.5869  -28.3674   23.1320 C   0  0  2  0  0  0
  -20.6774  -26.9405   22.5429 C   0  0  0  0  0  0
  -19.5750  -26.6396   21.5219 C   0  0  0  0  0  0
  -18.1927  -26.7943   22.1618 C   0  0  0  0  0  0
  -19.1530  -28.8849   23.2906 C   0  0  0  0  0  0
  -18.9457  -30.1455   23.8916 C   0  0  0  0  0  0
  -17.6463  -30.6605   24.0572 C   0  0  0  0  0  0
  -25.9036  -34.9451   23.5117 C   0  0  0  0  0  0
  -16.5348  -29.9114   23.6327 C   0  0  0  0  0  0
  -16.7262  -28.6531   23.0338 C   0  0  0  0  0  0
  -26.4450  -31.6563   25.0710 C   0  0  0  0  0  0
  -25.3706  -31.3692   26.1454 C   0  0  0  0  0  0
  -27.0272  -30.2989   24.6109 C   0  0  0  0  0  0
  -27.6032  -32.4277   25.7469 C   0  0  0  0  0  0
  -27.5570  -37.1810   24.8458 C   0  0  0  0  0  0
  -21.4148  -29.3031   22.3706 N   0  0  0  0  0  0
  -26.4280  -37.3775   23.9404 N   0  0  0  0  0  0
  -24.6751  -31.0723   22.0974 N   0  0  0  0  0  0
  -23.4185  -28.8188   23.3006 O   0  0  0  0  0  0
  -28.3856  -26.6276   20.0915 O   0  0  0  0  0  0
  -26.5596  -34.8907   22.4677 O   0  0  0  0  0  0
  -23.5376  -32.1380   23.7458 O   0  0  0  0  0  0
  -29.4937  -21.6392   19.9677 C   0  0  0  0  0  0
  -28.7642  -21.2040   22.6139 C   0  0  0  0  0  0
  -29.8096  -20.3862   20.5720 C   0  0  0  0  0  0
  -29.4884  -20.2049   21.9320 C   0  0  0  0  0  0
  -28.8446  -22.6986   20.6733 C   0  0  0  0  0  0
  -28.4288  -22.4446   22.0103 C   0  0  0  0  0  0
  -30.5888  -19.3014   19.8007 C   0  0  0  0  0  0
  -29.9937  -18.9928   22.7131 C   0  0  0  0  0  0
  -30.0506  -17.8284   19.8132 C   0  0  0  0  0  0
  -29.4285  -17.6142   22.3022 C   0  0  2  0  0  0
  -30.2351  -16.9990   21.1242 C   0  0  1  0  0  0
  -27.3418  -23.1779   24.0433 C   0  0  0  0  0  0
  -25.8313  -18.3072   22.9857 C   0  0  0  0  0  0
  -28.6281  -24.0674   19.9478 C   0  0  0  0  0  0
  -27.8978  -17.6307   22.0742 C   0  0  0  0  0  0
  -28.3107  -25.3563   20.7900 C   0  0  0  0  0  0
  -29.8936  -15.5587   20.9714 N   0  0  0  0  0  0
  -27.7275  -23.4161   22.6935 O   0  0  0  0  0  0
  -27.2310  -18.1934   23.1951 O   0  0  0  0  0  0
  -31.4786  -12.4570   19.1286 H   0  0  0  0  0  0
  -30.3554  -11.3334   19.8454 H   0  0  0  0  0  0
  -29.7532  -11.7709   17.4437 H   0  0  0  0  0  0
  -29.6641  -13.4855   17.7600 H   0  0  0  0  0  0
  -27.8467  -11.3016   18.8306 H   0  0  0  0  0  0
  -27.3744  -12.6123   17.7860 H   0  0  0  0  0  0
  -27.6938  -14.2516   19.5538 H   0  0  0  0  0  0
  -28.6948  -11.9842   21.3453 H   0  0  0  0  0  0
  -28.4612  -13.6268   21.8610 H   0  0  0  0  0  0
  -25.2759   -9.5687   22.4752 H   0  0  0  0  0  0
  -23.9999   -7.4628   22.7467 H   0  0  0  0  0  0
  -21.0827   -8.8774   19.8955 H   0  0  0  0  0  0
  -22.3679  -10.9676   19.6170 H   0  0  0  0  0  0
  -21.2023   -7.6137   23.9720 H   0  0  0  0  0  0
  -21.1481   -6.0509   25.9076 H   0  0  0  0  0  0
  -22.0598   -2.7600   23.2839 H   0  0  0  0  0  0
  -22.4074  -11.9972   22.4863 H   0  0  0  0  0  0
  -21.1089  -13.1326   22.2545 H   0  0  0  0  0  0
  -24.6399  -15.8216   20.4551 H   0  0  0  0  0  0
  -26.2465  -15.6087   19.9831 H   0  0  0  0  0  0
  -26.7138  -32.5477   23.1144 H   0  0  0  0  0  0
  -25.0090  -33.9744   25.0466 H   0  0  0  0  0  0
  -22.7016  -31.3079   21.4060 H   0  0  0  0  0  0
  -23.3732  -35.9648   23.3300 H   0  0  0  0  0  0
  -24.3574  -36.8903   22.2049 H   0  0  0  0  0  0
  -23.7255  -37.6512   23.6646 H   0  0  0  0  0  0
  -26.0643  -31.5870   20.5988 H   0  0  0  0  0  0
  -26.8267  -30.8694   21.9886 H   0  0  0  0  0  0
  -28.1179  -29.0831   21.1489 H   0  0  0  0  0  0
  -26.0554  -25.9404   19.0388 H   0  0  0  0  0  0
  -23.9792  -27.2820   19.0463 H   0  0  0  0  0  0
  -23.7294  -30.5891   19.4007 H   0  0  0  0  0  0
  -22.7451  -29.2345   19.8679 H   0  0  0  0  0  0
  -25.1298  -36.1938   25.0828 H   0  0  0  0  0  0
  -20.9968  -28.3248   24.1438 H   0  0  0  0  0  0
  -20.5678  -26.2269   23.3602 H   0  0  0  0  0  0
  -21.6652  -26.7455   22.1221 H   0  0  0  0  0  0
  -19.6901  -25.6304   21.1245 H   0  0  0  0  0  0
  -19.6727  -27.3218   20.6757 H   0  0  0  0  0  0
  -17.4204  -26.6689   21.4014 H   0  0  0  0  0  0
  -18.0335  -26.0094   22.9020 H   0  0  0  0  0  0
  -19.7937  -30.7262   24.2313 H   0  0  0  0  0  0
  -17.5021  -31.6288   24.5169 H   0  0  0  0  0  0
  -15.5350  -30.3024   23.7666 H   0  0  0  0  0  0
  -15.8649  -28.0869   22.7040 H   0  0  0  0  0  0
  -24.5869  -30.7041   25.7775 H   0  0  0  0  0  0
  -24.8911  -32.2866   26.4879 H   0  0  0  0  0  0
  -25.8042  -30.8864   27.0223 H   0  0  0  0  0  0
  -27.8683  -30.4292   23.9300 H   0  0  0  0  0  0
  -26.2832  -29.6786   24.1112 H   0  0  0  0  0  0
  -27.3974  -29.7202   25.4578 H   0  0  0  0  0  0
  -27.2666  -33.3581   26.2069 H   0  0  0  0  0  0
  -28.3850  -32.6835   25.0306 H   0  0  0  0  0  0
  -28.0666  -31.8365   26.5375 H   0  0  0  0  0  0
  -28.2595  -38.0096   24.7489 H   0  0  0  0  0  0
  -28.1063  -36.2637   24.6308 H   0  0  0  0  0  0
  -27.2292  -37.1480   25.8858 H   0  0  0  0  0  0
  -20.9305  -29.8721   21.6900 H   0  0  0  0  0  0
  -26.0157  -38.2846   24.1409 H   0  0  0  0  0  0
  -29.7912  -21.8084   18.9417 H   0  0  0  0  0  0
  -28.5005  -21.0004   23.6407 H   0  0  0  0  0  0
  -31.6220  -19.3121   20.1498 H   0  0  0  0  0  0
  -30.6416  -19.6215   18.7589 H   0  0  0  0  0  0
  -29.7603  -19.1471   23.7668 H   0  0  0  0  0  0
  -31.0835  -18.9855   22.6773 H   0  0  0  0  0  0
  -30.6008  -17.2989   19.0333 H   0  0  0  0  0  0
  -29.0130  -17.8129   19.4797 H   0  0  0  0  0  0
  -29.6165  -16.9610   23.1560 H   0  0  0  0  0  0
  -31.2938  -17.0348   21.3895 H   0  0  0  0  0  0
  -28.2110  -23.0090   24.6808 H   0  0  0  0  0  0
  -26.6605  -22.3293   24.1221 H   0  0  0  0  0  0
  -26.8211  -24.0530   24.4336 H   0  0  0  0  0  0
  -25.5994  -18.7899   22.0352 H   0  0  0  0  0  0
  -25.3884  -18.9099   23.7778 H   0  0  0  0  0  0
  -25.3560  -17.3262   22.9957 H   0  0  0  0  0  0
  -27.8429  -23.9314   19.2039 H   0  0  0  0  0  0
  -29.5370  -24.2676   19.3799 H   0  0  0  0  0  0
  -27.5303  -16.6161   21.9136 H   0  0  0  0  0  0
  -27.6475  -18.2080   21.1839 H   0  0  0  0  0  0
  -29.0324  -25.4235   21.6048 H   0  0  0  0  0  0
  -27.3317  -25.2566   21.2608 H   0  0  0  0  0  0
  -28.9669  -15.2854   21.2609 H   0  0  0  0  0  0
  1 25  1  0  0  0
  1 30  2  0  0  0
  1 87  1  0  0  0
  2  3  1  0  0  0
  2 25  1  0  0  0
  2 90  1  0  0  0
  2 91  1  0  0  0
  3  4  1  0  0  0
  3 92  1  0  0  0
  3 93  1  0  0  0
  4  5  1  0  0  0
  4 94  1  0  0  0
  4 95  1  0  0  0
  5  6  1  0  0  0
  5 26  1  0  0  0
  5 96  1  0  0  0
  6 25  1  0  0  0
  6 97  1  0  0  0
  6 98  1  0  0  0
  7  8  2  0  0  0
  7 26  1  0  0  0
  7 29  1  0  0  0
  8  9  1  0  0  0
  8 22  1  0  0  0
  9 10  1  0  0  0
  9 27  2  0  0  0
 10 11  2  0  0  0
 10 15  1  0  0  0
 11 12  1  0  0  0
 11 99  1  0  0  0
 12 13  2  0  0  0
 12100  1  0  0  0
 13 14  1  0  0  0
 13 31  1  0  0  0
 14 15  2  0  0  0
 14101  1  0  0  0
 15102  1  0  0  0
 16 17  2  0  0  0
 16 21  1  0  0  0
 16 31  1  0  0  0
 17 18  1  0  0  0
 17103  1  0  0  0
 18 19  2  0  0  0
 18104  1  0  0  0
 19 20  1  0  0  0
 19 24  1  0  0  0
 20 21  2  0  0  0
 20105  1  0  0  0
 21 23  1  0  0  0
 22 28  1  0  0  0
 22 32  2  0  0  0
 26 27  1  0  0  0
 28106  1  0  0  0
 28107  1  0  0  0
 29108  1  0  0  0
 29109  1  0  0  0
 33 34  1  0  0  0
 33 66  1  0  0  0
 33 70  2  0  0  0
 34 36  1  0  0  0
 34 59  1  0  0  0
 34110  1  0  0  0
 35 44  2  0  0  0
 35 45  1  0  0  0
 35 68  1  0  0  0
 36 56  1  0  0  0
 36111  1  0  0  0
 37 39  1  0  0  0
 37 47  1  0  0  0
 37 66  1  0  0  0
 37112  1  0  0  0
 38 43  2  0  0  0
 38 46  1  0  0  0
 38 47  1  0  0  0
 39 64  1  0  0  0
 39 67  2  0  0  0
 40 52  1  0  0  0
 40 53  2  0  0  0
 40 58  1  0  0  0
 41113  1  0  0  0
 41114  1  0  0  0
 41115  1  0  0  0
 41 48  1  0  0  0
 42 43  1  0  0  0
 42 66  1  0  0  0
 42116  1  0  0  0
 42117  1  0  0  0
 43 44  1  0  0  0
 44118  1  0  0  0
 45 46  2  0  0  0
 45119  1  0  0  0
 46120  1  0  0  0
 47121  1  0  0  0
 47122  1  0  0  0
 48 56  1  0  0  0
 48 65  1  0  0  0
 48123  1  0  0  0
 49 50  1  0  0  0
 49 53  1  0  0  0
 49 64  1  0  0  0
 49124  1  0  0  0
 50 51  1  0  0  0
 50125  1  0  0  0
 50126  1  0  0  0
 51 52  1  0  0  0
 51127  1  0  0  0
 51128  1  0  0  0
 52129  1  0  0  0
 52130  1  0  0  0
 53 54  1  0  0  0
 54 55  2  0  0  0
 54131  1  0  0  0
 55 57  1  0  0  0
 55132  1  0  0  0
 56 69  2  0  0  0
 57 58  2  0  0  0
 57133  1  0  0  0
 58134  1  0  0  0
 59 60  1  0  0  0
 59 61  1  0  0  0
 59 62  1  0  0  0
 60135  1  0  0  0
 60136  1  0  0  0
 60137  1  0  0  0
 61138  1  0  0  0
 61139  1  0  0  0
 61140  1  0  0  0
 62141  1  0  0  0
 62142  1  0  0  0
 62143  1  0  0  0
 63 65  1  0  0  0
 63144  1  0  0  0
 63145  1  0  0  0
 63146  1  0  0  0
 64147  1  0  0  0
 65148  1  0  0  0
 68 86  1  0  0  0
 71 73  2  0  0  0
 71 75  1  0  0  0
 71149  1  0  0  0
 72 74  2  0  0  0
 72 76  1  0  0  0
 72150  1  0  0  0
 73 74  1  0  0  0
 73 77  1  0  0  0
 74 78  1  0  0  0
 75 76  2  0  0  0
 75 84  1  0  0  0
 76 88  1  0  0  0
 77 79  1  0  0  0
 77151  1  0  0  0
 77152  1  0  0  0
 78 80  1  0  0  0
 78153  1  0  0  0
 78154  1  0  0  0
 79 81  1  0  0  0
 79155  1  0  0  0
 79156  1  0  0  0
 80 81  1  0  0  0
 80 85  1  0  0  0
 80157  1  0  0  0
 81 87  1  0  0  0
 81158  1  0  0  0
 82 88  1  0  0  0
 82159  1  0  0  0
 82160  1  0  0  0
 82161  1  0  0  0
 83 89  1  0  0  0
 83162  1  0  0  0
 83163  1  0  0  0
 83164  1  0  0  0
 84 86  1  0  0  0
 84165  1  0  0  0
 84166  1  0  0  0
 85 89  1  0  0  0
 85167  1  0  0  0
 85168  1  0  0  0
 86169  1  0  0  0
 86170  1  0  0  0
 87171  1  0  0  0
M  ISO  4   1 100  68 101  86 101  87 100
M  END
> <chiral flag>
0

> <version>
0

> <s_m_source_file>
/data/baiqing/PycharmProjects/Reinvent-master-3.2/result/LINK_invent/BTK/process_docking_weight1_custom_sum_contain_oxygen_bond_distance_aromatic_linkinvent_7_9_3/rearranged_h_0154.sdf

> <i_m_source_file_index>
1

> <r_mmod_Potential_Energy-OPLS-2005>
11.6479578018188

> <r_mmod_Stretch_Energy-OPLS-2005>
54.5044441223145

> <r_mmod_Bend_Energy-OPLS-2005>
124.855087280273

> <r_mmod_Torsional_Energy-OPLS-2005>
245.486968994141

> <r_mmod_Improper_Torsional_Energy-OPLS-2005>
4.9167308807373

> <r_mmod_Van_der_Waal_Energy-OPLS-2005>
152.84797668457

> <r_mmod_Electrostatic_Energy-OPLS-2005>
-379.827392578125

> <r_mmod_Solvation_Energy-OPLS-2005>
-211.516098022461

> <b_mmod_Minimization_Converged-OPLS-2005>
0

> <r_mmod_RMS_Derivative-OPLS-2005>
2.50978827476501

$$$$
1
                    3D
 Structure written by MMmdl.
160169  0  0  1  0            999 V2000
  -30.4507  -15.2174   20.3336 C   0  0  0  0  0  0
  -30.4414  -12.7710   19.5019 C   0  0  0  0  0  0
  -29.5294  -12.5415   18.2718 C   0  0  0  0  0  0
  -28.0751  -12.2802   18.7070 C   0  0  0  0  0  0
  -27.6074  -13.2514   19.8198 C   0  0  2  0  0  0
  -28.6514  -13.4305   20.9412 C   0  0  0  0  0  0
  -25.2423  -13.8182   20.5795 C   0  0  0  0  0  0
  -24.1735  -13.0408   20.9261 C   0  0  0  0  0  0
  -24.6357  -11.6896   20.8768 C   0  0  0  0  0  0
  -23.9055  -10.4273   21.0409 C   0  0  0  0  0  0
  -24.3611   -9.4194   21.9184 C   0  0  0  0  0  0
  -23.6290   -8.2226   22.0749 C   0  0  0  0  0  0
  -22.4273   -8.0267   21.3541 C   0  0  0  0  0  0
  -21.9906   -9.0239   20.4642 C   0  0  0  0  0  0
  -22.7229  -10.2118   20.3054 C   0  0  0  0  0  0
  -21.6851   -6.0729   22.5279 C   0  0  0  0  0  0
  -21.4011   -6.5634   23.8212 C   0  0  0  0  0  0
  -21.3655   -5.6786   24.9172 C   0  0  0  0  0  0
  -21.6043   -4.3049   24.7225 C   0  0  0  0  0  0
  -21.8820   -3.8143   23.4347 C   0  0  0  0  0  0
  -21.9194   -4.6959   22.3402 C   0  0  0  0  0  0
  -22.7763  -13.5192   21.1903 C   0  0  0  0  0  0
  -22.1664   -4.2144   21.0980 F   0  0  0  0  0  0
  -21.5630   -3.4534   25.7738 F   0  0  0  0  0  0
  -29.8820  -13.9169   20.2970 N   0  0  0  0  0  0
  -26.2807  -12.9393   20.3261 N   0  0  0  0  0  0
  -25.9288  -11.6528   20.5747 N   0  0  0  0  0  0
  -22.0403  -12.8182   22.0450 N   0  0  0  0  0  0
  -25.4135  -15.1919   20.4304 N   0  0  0  0  0  0
  -31.6893  -15.2085   20.2666 O   0  0  0  0  0  0
  -21.6634   -6.8870   21.4241 O   0  0  0  0  0  0
  -22.3458  -14.5497   20.6740 O   0  0  0  0  0  0
  -24.6579  -31.8280   23.1744 C   0  0  0  0  0  0
  -25.9290  -32.4610   23.8186 C   0  0  1  0  0  0
  -27.2213  -26.9752   20.1842 C   0  0  0  0  0  0
  -25.5984  -33.8423   24.2104 N   0  0  0  0  0  0
  -23.4693  -30.4388   21.5228 C   0  0  2  0  0  0
  -24.9202  -28.8269   20.1158 C   0  0  0  0  0  0
  -22.7637  -29.4460   22.4817 C   0  0  0  0  0  0
  -18.0316  -28.1413   22.8468 C   0  0  0  0  0  0
  -24.1484  -36.7197   23.2647 C   0  0  0  0  0  0
  -26.0332  -30.6487   21.3963 C   0  0  0  0  0  0
  -26.0996  -29.2400   20.7469 C   0  0  0  0  0  0
  -27.2432  -28.3326   20.7579 C   0  0  0  0  0  0
  -26.0145  -26.6958   19.5075 C   0  0  0  0  0  0
  -24.8988  -27.5739   19.4785 C   0  0  0  0  0  0
  -23.7049  -29.7511   20.1489 C   0  0  0  0  0  0
  -25.4127  -36.2975   24.0307 C   0  0  1  0  0  0
  -20.5935  -28.3744   23.1213 C   0  0  2  0  0  0
  -20.6793  -26.9434   22.5407 C   0  0  0  0  0  0
  -19.5766  -26.6382   21.5216 C   0  0  0  0  0  0
  -18.1947  -26.7947   22.1621 C   0  0  0  0  0  0
  -19.1576  -28.8901   23.2825 C   0  0  0  0  0  0
  -18.9486  -30.1494   23.8850 C   0  0  0  0  0  0
  -17.6479  -30.6600   24.0556 C   0  0  0  0  0  0
  -25.9091  -34.9362   23.5020 C   0  0  0  0  0  0
  -16.5369  -29.9084   23.6353 C   0  0  0  0  0  0
  -16.7297  -28.6508   23.0362 C   0  0  0  0  0  0
  -26.4566  -31.6544   25.0695 C   0  0  0  0  0  0
  -25.3714  -31.3788   26.1370 C   0  0  0  0  0  0
  -27.0450  -30.2917   24.6390 C   0  0  0  0  0  0
  -27.6076  -32.4340   25.7485 C   0  0  0  0  0  0
  -27.5565  -37.1754   24.8470 C   0  0  0  0  0  0
  -21.4314  -29.3035   22.3562 N   0  0  0  0  0  0
  -26.4271  -37.3709   23.9417 N   0  0  0  0  0  0
  -24.7411  -30.9988   22.0851 N   0  0  0  0  0  0
  -23.4208  -28.8046   23.3051 O   0  0  0  0  0  0
  -28.2896  -25.9541   20.2055 O   0  0  0  0  0  0
  -26.5682  -34.8893   22.4602 O   0  0  0  0  0  0
  -23.5666  -32.1228   23.6879 O   0  0  0  0  0  0
  -28.2553  -23.4766   19.1546 C   0  0  0  0  0  0
  -28.6859  -23.6129   21.3999 C   0  0  0  0  0  0
  -28.4774  -22.0020   19.1892 C   0  0  0  0  0  0
  -28.9183  -22.1447   21.4600 C   0  0  0  0  0  0
  -28.8393  -21.1920   20.3552 C   0  0  0  0  0  0
  -28.3092  -24.4280   20.2558 C   0  0  0  0  0  0
  -29.5380  -17.5332   17.9844 C   0  0  0  0  0  0
  -30.5330  -18.3140   18.8357 C   0  0  0  0  0  0
  -28.9126  -16.4801   18.9211 C   0  0  0  0  0  0
  -29.9786  -18.1107   20.2357 C   0  0  1  0  0  0
  -28.2969  -21.2687   17.8722 C   0  0  0  0  0  0
  -29.2462  -21.5733   22.8274 C   0  0  0  0  0  0
  -28.8414  -19.4502   20.5008 C   0  0  0  0  0  0
  -29.6764  -16.4798   20.1809 N   0  0  0  0  0  0
  -31.4583  -12.9795   19.1658 H   0  0  0  0  0  0
  -30.5089  -11.8684   20.1116 H   0  0  0  0  0  0
  -29.8994  -11.7032   17.6798 H   0  0  0  0  0  0
  -29.5675  -13.4136   17.6180 H   0  0  0  0  0  0
  -28.0249  -11.2554   19.0771 H   0  0  0  0  0  0
  -27.4034  -12.3283   17.8488 H   0  0  0  0  0  0
  -27.4998  -14.2079   19.3193 H   0  0  0  0  0  0
  -28.8161  -12.5020   21.4901 H   0  0  0  0  0  0
  -28.3021  -14.1677   21.6659 H   0  0  0  0  0  0
  -25.2750   -9.5678   22.4764 H   0  0  0  0  0  0
  -24.0002   -7.4617   22.7465 H   0  0  0  0  0  0
  -21.0839   -8.8756   19.8948 H   0  0  0  0  0  0
  -22.3685  -10.9659   19.6170 H   0  0  0  0  0  0
  -21.2001   -7.6141   23.9715 H   0  0  0  0  0  0
  -21.1476   -6.0514   25.9075 H   0  0  0  0  0  0
  -22.0606   -2.7608   23.2844 H   0  0  0  0  0  0
  -22.4027  -11.9853   22.4848 H   0  0  0  0  0  0
  -21.1013  -13.1202   22.2637 H   0  0  0  0  0  0
  -24.6563  -15.8521   20.5676 H   0  0  0  0  0  0
  -26.2822  -15.6347   20.1624 H   0  0  0  0  0  0
  -26.7354  -32.5159   23.0899 H   0  0  0  0  0  0
  -25.0140  -33.9507   25.0261 H   0  0  0  0  0  0
  -22.7797  -31.2685   21.3544 H   0  0  0  0  0  0
  -23.3768  -35.9503   23.3279 H   0  0  0  0  0  0
  -24.3564  -36.8865   22.2067 H   0  0  0  0  0  0
  -23.7212  -37.6369   23.6712 H   0  0  0  0  0  0
  -26.2048  -31.3899   20.6146 H   0  0  0  0  0  0
  -26.8977  -30.7070   22.0462 H   0  0  0  0  0  0
  -28.1451  -28.6509   21.2611 H   0  0  0  0  0  0
  -25.9143  -25.7386   19.0161 H   0  0  0  0  0  0
  -24.0014  -27.2541   18.9665 H   0  0  0  0  0  0
  -23.8552  -30.5180   19.3881 H   0  0  0  0  0  0
  -22.8149  -29.2021   19.8366 H   0  0  0  0  0  0
  -25.1323  -36.1770   25.0796 H   0  0  0  0  0  0
  -21.0019  -28.3340   24.1340 H   0  0  0  0  0  0
  -20.5683  -26.2358   23.3637 H   0  0  0  0  0  0
  -21.6656  -26.7422   22.1208 H   0  0  0  0  0  0
  -19.6923  -25.6280   21.1277 H   0  0  0  0  0  0
  -19.6715  -27.3168   20.6727 H   0  0  0  0  0  0
  -17.4223  -26.6701   21.4017 H   0  0  0  0  0  0
  -18.0335  -26.0101   22.9030 H   0  0  0  0  0  0
  -19.7959  -30.7329   24.2194 H   0  0  0  0  0  0
  -17.5027  -31.6275   24.5162 H   0  0  0  0  0  0
  -15.5363  -30.2967   23.7705 H   0  0  0  0  0  0
  -15.8701  -28.0814   22.7097 H   0  0  0  0  0  0
  -24.5891  -30.7143   25.7687 H   0  0  0  0  0  0
  -24.8912  -32.2989   26.4704 H   0  0  0  0  0  0
  -25.7961  -30.9012   27.0207 H   0  0  0  0  0  0
  -26.3102  -29.6608   24.1377 H   0  0  0  0  0  0
  -27.3985  -29.7266   25.5025 H   0  0  0  0  0  0
  -27.9046  -30.4116   23.9792 H   0  0  0  0  0  0
  -27.2669  -33.3694   26.1934 H   0  0  0  0  0  0
  -28.3951  -32.6808   25.0352 H   0  0  0  0  0  0
  -28.0673  -31.8546   26.5501 H   0  0  0  0  0  0
  -28.2570  -38.0061   24.7517 H   0  0  0  0  0  0
  -28.1069  -36.2587   24.6292 H   0  0  0  0  0  0
  -27.2284  -37.1397   25.8874 H   0  0  0  0  0  0
  -20.9568  -29.8699   21.6671 H   0  0  0  0  0  0
  -26.0120  -38.2764   24.1436 H   0  0  0  0  0  0
  -28.0373  -23.9132   18.1897 H   0  0  0  0  0  0
  -28.8227  -24.1629   22.3205 H   0  0  0  0  0  0
  -30.0365  -17.0735   17.1295 H   0  0  0  0  0  0
  -28.7604  -18.1877   17.5886 H   0  0  0  0  0  0
  -30.6271  -19.3610   18.5472 H   0  0  0  0  0  0
  -31.5237  -17.8617   18.7590 H   0  0  0  0  0  0
  -28.9054  -15.5274   18.3931 H   0  0  0  0  0  0
  -27.8738  -16.7276   19.1411 H   0  0  0  0  0  0
  -30.7908  -18.2502   20.9507 H   0  0  0  0  0  0
  -27.8198  -21.9012   17.1232 H   0  0  0  0  0  0
  -27.6714  -20.3850   17.9943 H   0  0  0  0  0  0
  -29.2627  -20.9571   17.4750 H   0  0  0  0  0  0
  -29.5795  -22.3473   23.5195 H   0  0  0  0  0  0
  -30.0415  -20.8306   22.7574 H   0  0  0  0  0  0
  -28.3665  -21.0937   23.2572 H   0  0  0  0  0  0
  -27.9723  -19.1711   19.9073 H   0  0  0  0  0  0
  -28.4854  -19.2836   21.5168 H   0  0  0  0  0  0
  1 25  1  0  0  0
  1 30  2  0  0  0
  1 84  1  0  0  0
  2  3  1  0  0  0
  2 25  1  0  0  0
  2 85  1  0  0  0
  2 86  1  0  0  0
  3  4  1  0  0  0
  3 87  1  0  0  0
  3 88  1  0  0  0
  4  5  1  0  0  0
  4 89  1  0  0  0
  4 90  1  0  0  0
  5  6  1  0  0  0
  5 26  1  0  0  0
  5 91  1  0  0  0
  6 25  1  0  0  0
  6 92  1  0  0  0
  6 93  1  0  0  0
  7  8  2  0  0  0
  7 26  1  0  0  0
  7 29  1  0  0  0
  8  9  1  0  0  0
  8 22  1  0  0  0
  9 10  1  0  0  0
  9 27  2  0  0  0
 10 11  2  0  0  0
 10 15  1  0  0  0
 11 12  1  0  0  0
 11 94  1  0  0  0
 12 13  2  0  0  0
 12 95  1  0  0  0
 13 14  1  0  0  0
 13 31  1  0  0  0
 14 15  2  0  0  0
 14 96  1  0  0  0
 15 97  1  0  0  0
 16 17  2  0  0  0
 16 21  1  0  0  0
 16 31  1  0  0  0
 17 18  1  0  0  0
 17 98  1  0  0  0
 18 19  2  0  0  0
 18 99  1  0  0  0
 19 20  1  0  0  0
 19 24  1  0  0  0
 20 21  2  0  0  0
 20100  1  0  0  0
 21 23  1  0  0  0
 22 28  1  0  0  0
 22 32  2  0  0  0
 26 27  1  0  0  0
 28101  1  0  0  0
 28102  1  0  0  0
 29103  1  0  0  0
 29104  1  0  0  0
 33 34  1  0  0  0
 33 66  1  0  0  0
 33 70  2  0  0  0
 34 36  1  0  0  0
 34 59  1  0  0  0
 34105  1  0  0  0
 35 44  2  0  0  0
 35 45  1  0  0  0
 35 68  1  0  0  0
 36 56  1  0  0  0
 36106  1  0  0  0
 37 39  1  0  0  0
 37 47  1  0  0  0
 37 66  1  0  0  0
 37107  1  0  0  0
 38 43  2  0  0  0
 38 46  1  0  0  0
 38 47  1  0  0  0
 39 64  1  0  0  0
 39 67  2  0  0  0
 40 52  1  0  0  0
 40 53  2  0  0  0
 40 58  1  0  0  0
 41108  1  0  0  0
 41109  1  0  0  0
 41110  1  0  0  0
 41 48  1  0  0  0
 42 43  1  0  0  0
 42 66  1  0  0  0
 42111  1  0  0  0
 42112  1  0  0  0
 43 44  1  0  0  0
 44113  1  0  0  0
 45 46  2  0  0  0
 45114  1  0  0  0
 46115  1  0  0  0
 47116  1  0  0  0
 47117  1  0  0  0
 48 56  1  0  0  0
 48 65  1  0  0  0
 48118  1  0  0  0
 49 50  1  0  0  0
 49 53  1  0  0  0
 49 64  1  0  0  0
 49119  1  0  0  0
 50 51  1  0  0  0
 50120  1  0  0  0
 50121  1  0  0  0
 51 52  1  0  0  0
 51122  1  0  0  0
 51123  1  0  0  0
 52124  1  0  0  0
 52125  1  0  0  0
 53 54  1  0  0  0
 54 55  2  0  0  0
 54126  1  0  0  0
 55 57  1  0  0  0
 55127  1  0  0  0
 56 69  2  0  0  0
 57 58  2  0  0  0
 57128  1  0  0  0
 58129  1  0  0  0
 59 60  1  0  0  0
 59 61  1  0  0  0
 59 62  1  0  0  0
 60130  1  0  0  0
 60131  1  0  0  0
 60132  1  0  0  0
 61133  1  0  0  0
 61134  1  0  0  0
 61135  1  0  0  0
 62136  1  0  0  0
 62137  1  0  0  0
 62138  1  0  0  0
 63 65  1  0  0  0
 63139  1  0  0  0
 63140  1  0  0  0
 63141  1  0  0  0
 64142  1  0  0  0
 65143  1  0  0  0
 68 76  1  0  0  0
 71 73  2  0  0  0
 71 76  1  0  0  0
 71144  1  0  0  0
 72 74  1  0  0  0
 72 76  2  0  0  0
 72145  1  0  0  0
 73 75  1  0  0  0
 73 81  1  0  0  0
 74 75  2  0  0  0
 74 82  1  0  0  0
 75 83  1  0  0  0
 77 78  1  0  0  0
 77 79  1  0  0  0
 77146  1  0  0  0
 77147  1  0  0  0
 78 80  1  0  0  0
 78148  1  0  0  0
 78149  1  0  0  0
 79 84  1  0  0  0
 79150  1  0  0  0
 79151  1  0  0  0
 80 83  1  0  0  0
 80 84  1  0  0  0
 80152  1  0  0  0
 81153  1  0  0  0
 81154  1  0  0  0
 81155  1  0  0  0
 82156  1  0  0  0
 82157  1  0  0  0
 82158  1  0  0  0
 83159  1  0  0  0
 83160  1  0  0  0
M  ISO  4   1 100  68 101  76 101  84 100
M  END
> <chiral flag>
0

> <version>
0

> <s_m_source_file>
/data/baiqing/PycharmProjects/Reinvent-master-3.2/result/LINK_invent/BTK/process_docking_weight1_custom_sum_contain_oxygen_bond_distance_aromatic_linkinvent_7_9_3/rearranged_h_0154.sdf

> <i_m_source_file_index>
2

> <r_mmod_Potential_Energy-OPLS-2005>
1328.07177734375

> <r_mmod_Stretch_Energy-OPLS-2005>
461.361938476562

> <r_mmod_Bend_Energy-OPLS-2005>
442.217437744141

> <r_mmod_Torsional_Energy-OPLS-2005>
358.841491699219

> <r_mmod_Improper_Torsional_Energy-OPLS-2005>
14.4661235809326

> <r_mmod_Van_der_Waal_Energy-OPLS-2005>
121.879287719727

> <r_mmod_Electrostatic_Energy-OPLS-2005>
-266.234497070312

> <r_mmod_Solvation_Energy-OPLS-2005>
-198.838500976562

> <b_mmod_Minimization_Converged-OPLS-2005>
0

> <r_mmod_RMS_Derivative-OPLS-2005>
0.925019085407257

$$$$
2
                    3D
 Structure written by MMmdl.
175184  0  0  1  0            999 V2000
  -30.7141  -14.6622   20.4958 C   0  0  0  0  0  0
  -30.4063  -12.4201   19.4564 C   0  0  0  0  0  0
  -29.4912  -12.4888   18.2182 C   0  0  0  0  0  0
  -28.0208  -12.3053   18.6351 C   0  0  0  0  0  0
  -27.6342  -13.2078   19.8344 C   0  0  2  0  0  0
  -28.6844  -13.1420   20.9728 C   0  0  0  0  0  0
  -25.2488  -13.8136   20.5640 C   0  0  0  0  0  0
  -24.1778  -13.0402   20.9207 C   0  0  0  0  0  0
  -24.6353  -11.6880   20.8751 C   0  0  0  0  0  0
  -23.9028  -10.4267   21.0410 C   0  0  0  0  0  0
  -24.3590   -9.4191   21.9192 C   0  0  0  0  0  0
  -23.6273   -8.2225   22.0756 C   0  0  0  0  0  0
  -22.4259   -8.0264   21.3541 C   0  0  0  0  0  0
  -21.9883   -9.0229   20.4646 C   0  0  0  0  0  0
  -22.7201  -10.2111   20.3057 C   0  0  0  0  0  0
  -21.6844   -6.0724   22.5283 C   0  0  0  0  0  0
  -21.4007   -6.5629   23.8217 C   0  0  0  0  0  0
  -21.3659   -5.6784   24.9181 C   0  0  0  0  0  0
  -21.6042   -4.3047   24.7229 C   0  0  0  0  0  0
  -21.8821   -3.8136   23.4351 C   0  0  0  0  0  0
  -21.9190   -4.6952   22.3407 C   0  0  0  0  0  0
  -22.7808  -13.5208   21.1864 C   0  0  0  0  0  0
  -22.1655   -4.2139   21.0983 F   0  0  0  0  0  0
  -21.5636   -3.4534   25.7744 F   0  0  0  0  0  0
  -29.9825  -13.4973   20.3873 N   0  0  0  0  0  0
  -26.2887  -12.9299   20.3204 N   0  0  0  0  0  0
  -25.9267  -11.6469   20.5734 N   0  0  0  0  0  0
  -22.0437  -12.8220   22.0424 N   0  0  0  0  0  0
  -25.4136  -15.1860   20.4006 N   0  0  0  0  0  0
  -31.8928  -14.6347   20.1302 O   0  0  0  0  0  0
  -21.6629   -6.8860   21.4239 O   0  0  0  0  0  0
  -22.3503  -14.5507   20.6696 O   0  0  0  0  0  0
  -24.6239  -31.8607   23.2041 C   0  0  0  0  0  0
  -25.9102  -32.4781   23.8349 C   0  0  1  0  0  0
  -27.2196  -27.3279   20.1031 C   0  0  0  0  0  0
  -25.5933  -33.8583   24.2284 N   0  0  0  0  0  0
  -23.4157  -30.4863   21.5460 C   0  0  2  0  0  0
  -24.8594  -28.9435   20.1092 C   0  0  0  0  0  0
  -22.7453  -29.4630   22.4933 C   0  0  0  0  0  0
  -18.0265  -28.1384   22.8492 C   0  0  0  0  0  0
  -24.1496  -36.7299   23.2637 C   0  0  0  0  0  0
  -25.9555  -30.7929   21.3732 C   0  0  0  0  0  0
  -26.0263  -29.4209   20.7165 C   0  0  0  0  0  0
  -27.2056  -28.6216   20.7075 C   0  0  0  0  0  0
  -26.0290  -26.9050   19.4659 C   0  0  0  0  0  0
  -24.8621  -27.6912   19.4782 C   0  0  0  0  0  0
  -23.6290  -29.8247   20.1596 C   0  0  0  0  0  0
  -25.4120  -36.3089   24.0327 C   0  0  1  0  0  0
  -20.5871  -28.3687   23.1266 C   0  0  2  0  0  0
  -20.6774  -26.9420   22.5361 C   0  0  0  0  0  0
  -19.5708  -26.6372   21.5207 C   0  0  0  0  0  0
  -18.1903  -26.7920   22.1649 C   0  0  0  0  0  0
  -19.1524  -28.8853   23.2874 C   0  0  0  0  0  0
  -18.9451  -30.1458   23.8888 C   0  0  0  0  0  0
  -17.6453  -30.6600   24.0554 C   0  0  0  0  0  0
  -25.9049  -34.9455   23.5104 C   0  0  0  0  0  0
  -16.5342  -29.9104   23.6321 C   0  0  0  0  0  0
  -16.7252  -28.6514   23.0358 C   0  0  0  0  0  0
  -26.4495  -31.6586   25.0711 C   0  0  0  0  0  0
  -25.3739  -31.3733   26.1449 C   0  0  0  0  0  0
  -27.0314  -30.3008   24.6140 C   0  0  0  0  0  0
  -27.6052  -32.4318   25.7486 C   0  0  0  0  0  0
  -27.5581  -37.1812   24.8461 C   0  0  0  0  0  0
  -21.4163  -29.3054   22.3676 N   0  0  0  0  0  0
  -26.4297  -37.3786   23.9402 N   0  0  0  0  0  0
  -24.6843  -31.0625   22.0988 N   0  0  0  0  0  0
  -23.4182  -28.8159   23.2998 O   0  0  0  0  0  0
  -28.3665  -26.5235   20.1641 O   0  0  0  0  0  0
  -26.5609  -34.8919   22.4663 O   0  0  0  0  0  0
  -23.5411  -32.1397   23.7381 O   0  0  0  0  0  0
  -30.8149  -18.3151   20.3158 C   0  0  0  0  0  0
  -28.4412  -17.7357   20.3582 C   0  0  0  0  0  0
  -26.7367  -22.7176   21.3251 C   0  0  0  0  0  0
  -31.0876  -17.0472   21.1834 C   0  0  0  0  0  0
  -28.8055  -16.3927   21.1030 C   0  0  0  0  0  0
  -29.4466  -22.6300   20.3489 C   0  0  0  0  0  0
  -29.4160  -18.9501   20.5386 C   0  0  0  0  0  0
  -27.7777  -23.6690   21.9365 C   0  0  1  0  0  0
  -27.3021  -21.3533   20.8673 C   0  0  1  0  0  0
  -28.8716  -24.0288   20.8915 C   0  0  1  0  0  0
  -27.0794  -24.8735   22.5969 C   0  0  0  0  0  0
  -26.1592  -20.6167   20.1343 C   0  0  0  0  0  0
  -30.0648  -24.7029   21.6132 C   0  0  0  0  0  0
  -29.1717  -20.1948   19.5490 C   0  0  0  0  0  0
  -28.3883  -25.0869   19.7921 C   0  0  0  0  0  0
  -30.1879  -15.8996   20.8768 N   0  0  0  0  0  0
  -28.5006  -21.4991   19.9911 N   0  3  2  0  0  0
  -31.4484  -12.4996   19.1445 H   0  0  0  0  0  0
  -30.3268  -11.4440   19.9382 H   0  0  0  0  0  0
  -29.7729  -11.7195   17.4978 H   0  0  0  0  0  0
  -29.6184  -13.4473   17.7120 H   0  0  0  0  0  0
  -27.8789  -11.2559   18.8974 H   0  0  0  0  0  0
  -27.3618  -12.4970   17.7874 H   0  0  0  0  0  0
  -27.6195  -14.2087   19.4098 H   0  0  0  0  0  0
  -28.7236  -12.1348   21.3888 H   0  0  0  0  0  0
  -28.4279  -13.7870   21.8120 H   0  0  0  0  0  0
  -25.2730   -9.5674   22.4775 H   0  0  0  0  0  0
  -23.9981   -7.4611   22.7475 H   0  0  0  0  0  0
  -21.0816   -8.8727   19.8955 H   0  0  0  0  0  0
  -22.3645  -10.9647   19.6173 H   0  0  0  0  0  0
  -21.1989   -7.6135   23.9719 H   0  0  0  0  0  0
  -21.1487   -6.0513   25.9088 H   0  0  0  0  0  0
  -22.0604   -2.7598   23.2849 H   0  0  0  0  0  0
  -22.4022  -11.9881   22.4837 H   0  0  0  0  0  0
  -21.1062  -13.1279   22.2608 H   0  0  0  0  0  0
  -24.6427  -15.8340   20.5154 H   0  0  0  0  0  0
  -26.2588  -15.6304   20.0672 H   0  0  0  0  0  0
  -26.7152  -32.5456   23.1075 H   0  0  0  0  0  0
  -25.0114  -33.9731   25.0453 H   0  0  0  0  0  0
  -22.7097  -31.3074   21.4058 H   0  0  0  0  0  0
  -23.3762  -35.9630   23.3301 H   0  0  0  0  0  0
  -24.3589  -36.8916   22.2052 H   0  0  0  0  0  0
  -23.7243  -37.6501   23.6654 H   0  0  0  0  0  0
  -26.0834  -31.5556   20.6041 H   0  0  0  0  0  0
  -26.8384  -30.8440   21.9988 H   0  0  0  0  0  0
  -28.1022  -28.9846   21.1905 H   0  0  0  0  0  0
  -25.9537  -25.9668   18.9441 H   0  0  0  0  0  0
  -23.9674  -27.3259   18.9923 H   0  0  0  0  0  0
  -23.7484  -30.6037   19.4052 H   0  0  0  0  0  0
  -22.7494  -29.2537   19.8563 H   0  0  0  0  0  0
  -25.1303  -36.1946   25.0820 H   0  0  0  0  0  0
  -20.9957  -28.3248   24.1391 H   0  0  0  0  0  0
  -20.5756  -26.2283   23.3550 H   0  0  0  0  0  0
  -21.6626  -26.7497   22.1097 H   0  0  0  0  0  0
  -19.6851  -25.6281   21.1236 H   0  0  0  0  0  0
  -19.6606  -27.3164   20.6718 H   0  0  0  0  0  0
  -17.4153  -26.6649   21.4074 H   0  0  0  0  0  0
  -18.0313  -26.0075   22.9061 H   0  0  0  0  0  0
  -19.7921  -30.7277   24.2257 H   0  0  0  0  0  0
  -17.5012  -31.6276   24.5160 H   0  0  0  0  0  0
  -15.5347  -30.3025   23.7647 H   0  0  0  0  0  0
  -15.8639  -28.0838   22.7095 H   0  0  0  0  0  0
  -24.5922  -30.7058   25.7804 H   0  0  0  0  0  0
  -24.8918  -32.2904   26.4849 H   0  0  0  0  0  0
  -25.8081  -30.8947   27.0235 H   0  0  0  0  0  0
  -26.2863  -29.6782   24.1172 H   0  0  0  0  0  0
  -27.4029  -29.7239   25.4618 H   0  0  0  0  0  0
  -27.8728  -30.4294   23.9330 H   0  0  0  0  0  0
  -27.2656  -33.3620   26.2054 H   0  0  0  0  0  0
  -28.3875  -32.6876   25.0330 H   0  0  0  0  0  0
  -28.0698  -31.8447   26.5418 H   0  0  0  0  0  0
  -28.2607  -38.0105   24.7514 H   0  0  0  0  0  0
  -28.1072  -36.2637   24.6286 H   0  0  0  0  0  0
  -27.2294  -37.1461   25.8864 H   0  0  0  0  0  0
  -20.9334  -29.8798   21.6913 H   0  0  0  0  0  0
  -26.0179  -38.2859   24.1417 H   0  0  0  0  0  0
  -30.9344  -18.0493   19.2634 H   0  0  0  0  0  0
  -31.5844  -19.0598   20.5234 H   0  0  0  0  0  0
  -27.4437  -18.0193   20.6863 H   0  0  0  0  0  0
  -28.3543  -17.5149   19.2933 H   0  0  0  0  0  0
  -26.2343  -23.2127   20.4942 H   0  0  0  0  0  0
  -25.9508  -22.5300   22.0582 H   0  0  0  0  0  0
  -30.9697  -17.3021   22.2377 H   0  0  0  0  0  0
  -32.1439  -16.7928   21.0887 H   0  0  0  0  0  0
  -28.0639  -15.6669   20.8176 H   0  0  0  0  0  0
  -28.6676  -16.5284   22.1764 H   0  0  0  0  0  0
  -30.1006  -22.2127   21.1157 H   0  0  0  0  0  0
  -30.0988  -22.8205   19.4958 H   0  0  0  0  0  0
  -29.3794  -19.2966   21.5714 H   0  0  0  0  0  0
  -28.2656  -23.1211   22.7453 H   0  0  0  0  0  0
  -27.5931  -20.7868   21.7525 H   0  0  0  0  0  0
  -27.7862  -25.6088   22.9790 H   0  0  0  0  0  0
  -26.4719  -24.5510   23.4429 H   0  0  0  0  0  0
  -26.4103  -25.3812   21.9035 H   0  0  0  0  0  0
  -25.7845  -21.1996   19.2923 H   0  0  0  0  0  0
  -25.3171  -20.4442   20.8058 H   0  0  0  0  0  0
  -26.4490  -19.6517   19.7309 H   0  0  0  0  0  0
  -30.4578  -24.0876   22.4237 H   0  0  0  0  0  0
  -29.8003  -25.6659   22.0495 H   0  0  0  0  0  0
  -30.8852  -24.8912   20.9194 H   0  0  0  0  0  0
  -28.6009  -19.8291   18.6957 H   0  0  0  0  0  0
  -30.1282  -20.4745   19.1051 H   0  0  0  0  0  0
  -27.4655  -24.7234   19.3563 H   0  0  0  0  0  0
  -29.0975  -25.0394   18.9656 H   0  0  0  0  0  0
  -28.1053  -21.8393   19.1275 H   0  0  0  0  0  0
  1 25  1  0  0  0
  1 30  2  0  0  0
  1 86  1  0  0  0
  2  3  1  0  0  0
  2 25  1  0  0  0
  2 88  1  0  0  0
  2 89  1  0  0  0
  3  4  1  0  0  0
  3 90  1  0  0  0
  3 91  1  0  0  0
  4  5  1  0  0  0
  4 92  1  0  0  0
  4 93  1  0  0  0
  5  6  1  0  0  0
  5 26  1  0  0  0
  5 94  1  0  0  0
  6 25  1  0  0  0
  6 95  1  0  0  0
  6 96  1  0  0  0
  7  8  2  0  0  0
  7 26  1  0  0  0
  7 29  1  0  0  0
  8  9  1  0  0  0
  8 22  1  0  0  0
  9 10  1  0  0  0
  9 27  2  0  0  0
 10 11  2  0  0  0
 10 15  1  0  0  0
 11 12  1  0  0  0
 11 97  1  0  0  0
 12 13  2  0  0  0
 12 98  1  0  0  0
 13 14  1  0  0  0
 13 31  1  0  0  0
 14 15  2  0  0  0
 14 99  1  0  0  0
 15100  1  0  0  0
 16 17  2  0  0  0
 16 21  1  0  0  0
 16 31  1  0  0  0
 17 18  1  0  0  0
 17101  1  0  0  0
 18 19  2  0  0  0
 18102  1  0  0  0
 19 20  1  0  0  0
 19 24  1  0  0  0
 20 21  2  0  0  0
 20103  1  0  0  0
 21 23  1  0  0  0
 22 28  1  0  0  0
 22 32  2  0  0  0
 26 27  1  0  0  0
 28104  1  0  0  0
 28105  1  0  0  0
 29106  1  0  0  0
 29107  1  0  0  0
 33 34  1  0  0  0
 33 66  1  0  0  0
 33 70  2  0  0  0
 34 36  1  0  0  0
 34 59  1  0  0  0
 34108  1  0  0  0
 35 44  2  0  0  0
 35 45  1  0  0  0
 35 68  1  0  0  0
 36 56  1  0  0  0
 36109  1  0  0  0
 37 39  1  0  0  0
 37 47  1  0  0  0
 37 66  1  0  0  0
 37110  1  0  0  0
 38 43  2  0  0  0
 38 46  1  0  0  0
 38 47  1  0  0  0
 39 64  1  0  0  0
 39 67  2  0  0  0
 40 52  1  0  0  0
 40 53  2  0  0  0
 40 58  1  0  0  0
 41111  1  0  0  0
 41112  1  0  0  0
 41113  1  0  0  0
 41 48  1  0  0  0
 42 43  1  0  0  0
 42 66  1  0  0  0
 42114  1  0  0  0
 42115  1  0  0  0
 43 44  1  0  0  0
 44116  1  0  0  0
 45 46  2  0  0  0
 45117  1  0  0  0
 46118  1  0  0  0
 47119  1  0  0  0
 47120  1  0  0  0
 48 56  1  0  0  0
 48 65  1  0  0  0
 48121  1  0  0  0
 49 50  1  0  0  0
 49 53  1  0  0  0
 49 64  1  0  0  0
 49122  1  0  0  0
 50 51  1  0  0  0
 50123  1  0  0  0
 50124  1  0  0  0
 51 52  1  0  0  0
 51125  1  0  0  0
 51126  1  0  0  0
 52127  1  0  0  0
 52128  1  0  0  0
 53 54  1  0  0  0
 54 55  2  0  0  0
 54129  1  0  0  0
 55 57  1  0  0  0
 55130  1  0  0  0
 56 69  2  0  0  0
 57 58  2  0  0  0
 57131  1  0  0  0
 58132  1  0  0  0
 59 60  1  0  0  0
 59 61  1  0  0  0
 59 62  1  0  0  0
 60133  1  0  0  0
 60134  1  0  0  0
 60135  1  0  0  0
 61136  1  0  0  0
 61137  1  0  0  0
 61138  1  0  0  0
 62139  1  0  0  0
 62140  1  0  0  0
 62141  1  0  0  0
 63 65  1  0  0  0
 63142  1  0  0  0
 63143  1  0  0  0
 63144  1  0  0  0
 64145  1  0  0  0
 65146  1  0  0  0
 68 85  1  0  0  0
 71 74  1  0  0  0
 71 77  1  0  0  0
 71147  1  0  0  0
 71148  1  0  0  0
 72 75  1  0  0  0
 72 77  1  0  0  0
 72149  1  0  0  0
 72150  1  0  0  0
 73 78  1  0  0  0
 73 79  1  0  0  0
 73151  1  0  0  0
 73152  1  0  0  0
 74 86  1  0  0  0
 74153  1  0  0  0
 74154  1  0  0  0
 75 86  1  0  0  0
 75155  1  0  0  0
 75156  1  0  0  0
 76 80  1  0  0  0
 76 87  1  0  0  0
 76157  1  0  0  0
 76158  1  0  0  0
 77 84  1  0  0  0
 77159  1  0  0  0
 78 80  1  0  0  0
 78 81  1  0  0  0
 78160  1  0  0  0
 79 82  1  0  0  0
 79 87  1  0  0  0
 79161  1  0  0  0
 80 83  1  0  0  0
 80 85  1  0  0  0
 81162  1  0  0  0
 81163  1  0  0  0
 81164  1  0  0  0
 82165  1  0  0  0
 82166  1  0  0  0
 82167  1  0  0  0
 83168  1  0  0  0
 83169  1  0  0  0
 83170  1  0  0  0
 84171  1  0  0  0
 84172  1  0  0  0
 84 87  1  0  0  0
 85173  1  0  0  0
 85174  1  0  0  0
 87175  1  0  0  0
M  CHG  1  87   1
M  ISO  4   1 100  68 101  85 101  86 100
M  END
> <chiral flag>
0

> <version>
0

> <s_m_source_file>
/data/baiqing/PycharmProjects/Reinvent-master-3.2/result/LINK_invent/BTK/process_docking_weight1_custom_sum_contain_oxygen_bond_distance_aromatic_linkinvent_7_9_3/rearranged_h_0154.sdf

> <i_m_source_file_index>
3

> <r_mmod_Potential_Energy-OPLS-2005>
347.368560791016

> <r_mmod_Stretch_Energy-OPLS-2005>
95.8496704101562

> <r_mmod_Bend_Energy-OPLS-2005>
229.317367553711

> <r_mmod_Torsional_Energy-OPLS-2005>
370.283752441406

> <r_mmod_Improper_Torsional_Energy-OPLS-2005>
2.33617663383484

> <r_mmod_Van_der_Waal_Energy-OPLS-2005>
145.904769897461

> <r_mmod_Electrostatic_Energy-OPLS-2005>
-129.607635498047

> <r_mmod_Solvation_Energy-OPLS-2005>
-420.488067626953

> <b_mmod_Minimization_Converged-OPLS-2005>
0

> <r_mmod_RMS_Derivative-OPLS-2005>
1.51677346229553

$$$$
3
                    3D
 Structure written by MMmdl.
171181  0  0  1  0            999 V2000
  -30.7916  -14.4184   20.6185 C   0  0  0  0  0  0
  -30.3982  -12.2829   19.4474 C   0  0  0  0  0  0
  -29.4928  -12.4808   18.2152 C   0  0  0  0  0  0
  -28.0132  -12.3375   18.6149 C   0  0  0  0  0  0
  -27.6502  -13.2050   19.8474 C   0  0  2  0  0  0
  -28.6802  -13.0147   20.9770 C   0  0  0  0  0  0
  -25.2563  -13.8185   20.5653 C   0  0  0  0  0  0
  -24.1823  -13.0447   20.9195 C   0  0  0  0  0  0
  -24.6376  -11.6912   20.8728 C   0  0  0  0  0  0
  -23.9034  -10.4302   21.0403 C   0  0  0  0  0  0
  -24.3600   -9.4222   21.9168 C   0  0  0  0  0  0
  -23.6283   -8.2250   22.0747 C   0  0  0  0  0  0
  -22.4280   -8.0271   21.3520 C   0  0  0  0  0  0
  -21.9901   -9.0244   20.4628 C   0  0  0  0  0  0
  -22.7221  -10.2133   20.3037 C   0  0  0  0  0  0
  -21.6847   -6.0735   22.5289 C   0  0  0  0  0  0
  -21.4013   -6.5635   23.8226 C   0  0  0  0  0  0
  -21.3658   -5.6785   24.9178 C   0  0  0  0  0  0
  -21.6038   -4.3049   24.7224 C   0  0  0  0  0  0
  -21.8815   -3.8147   23.4343 C   0  0  0  0  0  0
  -21.9193   -4.6963   22.3402 C   0  0  0  0  0  0
  -22.7875  -13.5258   21.1871 C   0  0  0  0  0  0
  -22.1651   -4.2159   21.0970 F   0  0  0  0  0  0
  -21.5629   -3.4527   25.7727 F   0  0  0  0  0  0
  -30.0197  -13.3058   20.4407 N   0  0  0  0  0  0
  -26.2948  -12.9331   20.3205 N   0  0  0  0  0  0
  -25.9278  -11.6496   20.5686 N   0  0  0  0  0  0
  -22.0481  -12.8228   22.0399 N   0  0  0  0  0  0
  -25.4324  -15.1871   20.4033 N   0  0  0  0  0  0
  -31.9302  -14.4803   20.1434 O   0  0  0  0  0  0
  -21.6624   -6.8879   21.4252 O   0  0  0  0  0  0
  -22.3562  -14.5578   20.6753 O   0  0  0  0  0  0
  -24.6121  -31.8680   23.2145 C   0  0  0  0  0  0
  -25.9016  -32.4870   23.8443 C   0  0  1  0  0  0
  -27.2361  -27.4760   20.0817 C   0  0  0  0  0  0
  -25.5912  -33.8648   24.2418 N   0  0  0  0  0  0
  -23.4013  -30.4911   21.5536 C   0  0  2  0  0  0
  -24.8524  -28.9667   20.1173 C   0  0  0  0  0  0
  -22.7434  -29.4609   22.4992 C   0  0  0  0  0  0
  -18.0261  -28.1383   22.8443 C   0  0  0  0  0  0
  -24.1477  -36.7353   23.2645 C   0  0  0  0  0  0
  -25.9269  -30.8497   21.3633 C   0  0  0  0  0  0
  -26.0096  -29.4854   20.7156 C   0  0  0  0  0  0
  -27.2084  -28.7390   20.7084 C   0  0  0  0  0  0
  -26.0786  -26.9721   19.4608 C   0  0  0  0  0  0
  -24.8791  -27.7073   19.4947 C   0  0  0  0  0  0
  -23.6138  -29.8304   20.1659 C   0  0  0  0  0  0
  -25.4114  -36.3177   24.0346 C   0  0  1  0  0  0
  -20.5867  -28.3623   23.1297 C   0  0  2  0  0  0
  -20.6794  -26.9375   22.5401 C   0  0  0  0  0  0
  -19.5779  -26.6378   21.5192 C   0  0  0  0  0  0
  -18.1922  -26.7919   22.1556 C   0  0  0  0  0  0
  -19.1535  -28.8807   23.2842 C   0  0  0  0  0  0
  -18.9461  -30.1409   23.8874 C   0  0  0  0  0  0
  -17.6483  -30.6570   24.0531 C   0  0  0  0  0  0
  -25.9046  -34.9502   23.5202 C   0  0  0  0  0  0
  -16.5351  -29.9081   23.6322 C   0  0  0  0  0  0
  -16.7257  -28.6505   23.0305 C   0  0  0  0  0  0
  -26.4440  -31.6627   25.0748 C   0  0  0  0  0  0
  -25.3744  -31.3689   26.1539 C   0  0  0  0  0  0
  -27.0265  -30.3124   24.6000 C   0  0  0  0  0  0
  -27.6040  -32.4300   25.7485 C   0  0  0  0  0  0
  -27.5596  -37.1839   24.8459 C   0  0  0  0  0  0
  -21.4180  -29.2991   22.3726 N   0  0  0  0  0  0
  -26.4316  -37.3847   23.9400 N   0  0  0  0  0  0
  -24.6655  -31.0819   22.1037 N   0  0  0  0  0  0
  -23.4203  -28.8120   23.3006 O   0  0  0  0  0  0
  -28.3638  -26.6961   20.0471 O   0  0  0  0  0  0
  -26.5590  -34.8938   22.4748 O   0  0  0  0  0  0
  -23.5291  -32.1370   23.7563 O   0  0  0  0  0  0
  -27.0996  -22.6956   22.9676 C   0  0  0  0  0  0
  -29.4268  -22.9009   22.2531 C   0  0  0  0  0  0
  -27.1278  -21.3589   22.5281 C   0  0  0  0  0  0
  -28.2522  -20.7872   21.9349 C   0  0  0  0  0  0
  -29.4287  -21.5712   21.7645 C   0  0  0  0  0  0
  -28.2693  -23.4731   22.8220 C   0  0  0  0  0  0
  -25.9900  -20.3773   22.5783 C   0  0  0  0  0  0
  -29.6601  -17.9119   20.3168 C   0  0  0  0  0  0
  -28.5643  -16.9069   22.3313 C   0  0  0  0  0  0
  -30.7382  -16.8301   20.4272 C   0  0  0  0  0  0
  -29.7133  -15.8636   22.3657 C   0  0  0  0  0  0
  -27.9121  -19.3471   21.5205 C   0  0  1  0  0  0
  -29.0181  -18.2492   21.6907 C   0  0  0  0  0  0
  -30.6712  -21.0955   21.0354 C   0  0  0  0  0  0
  -28.8411  -26.2386   21.3113 C   0  0  0  0  0  0
  -27.7454  -25.6894   22.2588 C   0  0  0  0  0  0
  -30.1896  -15.5813   20.9991 N   0  0  0  0  0  0
  -26.6685  -19.0912   22.3040 N   0  3  0  0  0  0
  -28.2905  -24.7864   23.2216 O   0  0  0  0  0  0
  -31.4502  -12.3193   19.1577 H   0  0  0  0  0  0
  -30.2530  -11.2854   19.8689 H   0  0  0  0  0  0
  -29.7438  -11.7523   17.4425 H   0  0  0  0  0  0
  -29.6686  -13.4641   17.7762 H   0  0  0  0  0  0
  -27.8346  -11.2865   18.8418 H   0  0  0  0  0  0
  -27.3652  -12.5785   17.7737 H   0  0  0  0  0  0
  -27.6916  -14.2452   19.5231 H   0  0  0  0  0  0
  -28.6499  -11.9882   21.3448 H   0  0  0  0  0  0
  -28.3850  -13.6240   21.8206 H   0  0  0  0  0  0
  -25.2733   -9.5701   22.4741 H   0  0  0  0  0  0
  -23.9996   -7.4636   22.7464 H   0  0  0  0  0  0
  -21.0840   -8.8744   19.8920 H   0  0  0  0  0  0
  -22.3672  -10.9654   19.6144 H   0  0  0  0  0  0
  -21.2015   -7.6141   23.9744 H   0  0  0  0  0  0
  -21.1475   -6.0494   25.9079 H   0  0  0  0  0  0
  -22.0609   -2.7619   23.2833 H   0  0  0  0  0  0
  -22.4050  -11.9839   22.4704 H   0  0  0  0  0  0
  -21.1115  -13.1271   22.2623 H   0  0  0  0  0  0
  -24.6558  -15.8347   20.4538 H   0  0  0  0  0  0
  -26.2616  -15.5905   19.9885 H   0  0  0  0  0  0
  -26.7097  -32.5662   23.1231 H   0  0  0  0  0  0
  -24.9951  -33.9749   25.0496 H   0  0  0  0  0  0
  -22.6924  -31.3121   21.4173 H   0  0  0  0  0  0
  -23.3735  -35.9692   23.3307 H   0  0  0  0  0  0
  -24.3538  -36.8938   22.2056 H   0  0  0  0  0  0
  -23.7185  -37.6550   23.6624 H   0  0  0  0  0  0
  -26.0268  -31.6178   20.5927 H   0  0  0  0  0  0
  -26.8160  -30.9133   21.9762 H   0  0  0  0  0  0
  -28.1027  -29.1368   21.1613 H   0  0  0  0  0  0
  -26.1058  -26.0158   18.9512 H   0  0  0  0  0  0
  -23.9908  -27.3028   19.0260 H   0  0  0  0  0  0
  -23.7393  -30.6082   19.4104 H   0  0  0  0  0  0
  -22.7403  -29.2539   19.8559 H   0  0  0  0  0  0
  -25.1262  -36.2101   25.0831 H   0  0  0  0  0  0
  -20.9899  -28.3201   24.1454 H   0  0  0  0  0  0
  -20.5738  -26.2225   23.3548 H   0  0  0  0  0  0
  -21.6648  -26.7485   22.1176 H   0  0  0  0  0  0
  -19.6966  -25.6321   21.1157 H   0  0  0  0  0  0
  -19.6754  -27.3240   20.6757 H   0  0  0  0  0  0
  -17.4209  -26.6596   21.3935 H   0  0  0  0  0  0
  -18.0312  -26.0101   22.9009 H   0  0  0  0  0  0
  -19.7962  -30.7154   24.2291 H   0  0  0  0  0  0
  -17.5063  -31.6271   24.5114 H   0  0  0  0  0  0
  -15.5352  -30.2952   23.7743 H   0  0  0  0  0  0
  -15.8635  -28.0835   22.7062 H   0  0  0  0  0  0
  -24.5952  -30.6969   25.7913 H   0  0  0  0  0  0
  -24.8872  -32.2804   26.5037 H   0  0  0  0  0  0
  -25.8172  -30.8887   27.0293 H   0  0  0  0  0  0
  -26.2764  -29.6894   24.1127 H   0  0  0  0  0  0
  -27.4187  -29.7360   25.4383 H   0  0  0  0  0  0
  -27.8535  -30.4490   23.9026 H   0  0  0  0  0  0
  -27.2735  -33.3619   26.2094 H   0  0  0  0  0  0
  -28.3880  -32.6806   25.0333 H   0  0  0  0  0  0
  -28.0665  -31.8372   26.5377 H   0  0  0  0  0  0
  -28.2650  -38.0115   24.7567 H   0  0  0  0  0  0
  -28.1072  -36.2659   24.6261 H   0  0  0  0  0  0
  -27.2301  -37.1477   25.8857 H   0  0  0  0  0  0
  -20.9382  -29.8786   21.7005 H   0  0  0  0  0  0
  -26.0250  -38.2941   24.1416 H   0  0  0  0  0  0
  -26.1975  -23.1168   23.3884 H   0  0  0  0  0  0
  -30.3184  -23.5073   22.1585 H   0  0  0  0  0  0
  -25.2778  -20.6176   21.7890 H   0  0  0  0  0  0
  -25.4739  -20.3861   23.5392 H   0  0  0  0  0  0
  -28.8963  -17.5637   19.6201 H   0  0  0  0  0  0
  -30.1038  -18.7825   19.8306 H   0  0  0  0  0  0
  -28.2169  -17.0675   23.3521 H   0  0  0  0  0  0
  -27.7252  -16.4961   21.7672 H   0  0  0  0  0  0
  -31.5766  -17.1870   21.0337 H   0  0  0  0  0  0
  -31.1354  -16.6752   19.4211 H   0  0  0  0  0  0
  -29.4176  -14.9758   22.9219 H   0  0  0  0  0  0
  -30.5555  -16.2560   22.9379 H   0  0  0  0  0  0
  -27.6147  -19.3912   20.4738 H   0  0  0  0  0  0
  -29.7693  -18.6546   22.3681 H   0  0  0  0  0  0
  -31.5304  -21.7065   21.3031 H   0  0  0  0  0  0
  -30.5249  -21.1820   19.9572 H   0  0  0  0  0  0
  -30.9555  -20.0809   21.2814 H   0  0  0  0  0  0
  -29.5256  -25.4278   21.0701 H   0  0  0  0  0  0
  -29.4319  -27.0105   21.8030 H   0  0  0  0  0  0
  -26.9507  -25.2052   21.6921 H   0  0  0  0  0  0
  -27.2726  -26.5136   22.7955 H   0  0  0  0  0  0
  -26.0501  -18.4364   21.8535 H   0  0  0  0  0  0
  -26.9300  -18.7171   23.1993 H   0  0  0  0  0  0
  1 25  1  0  0  0
  1 30  2  0  0  0
  1 87  1  0  0  0
  2  3  1  0  0  0
  2 25  1  0  0  0
  2 90  1  0  0  0
  2 91  1  0  0  0
  3  4  1  0  0  0
  3 92  1  0  0  0
  3 93  1  0  0  0
  4  5  1  0  0  0
  4 94  1  0  0  0
  4 95  1  0  0  0
  5  6  1  0  0  0
  5 26  1  0  0  0
  5 96  1  0  0  0
  6 25  1  0  0  0
  6 97  1  0  0  0
  6 98  1  0  0  0
  7  8  2  0  0  0
  7 26  1  0  0  0
  7 29  1  0  0  0
  8  9  1  0  0  0
  8 22  1  0  0  0
  9 10  1  0  0  0
  9 27  2  0  0  0
 10 11  2  0  0  0
 10 15  1  0  0  0
 11 12  1  0  0  0
 11 99  1  0  0  0
 12 13  2  0  0  0
 12100  1  0  0  0
 13 14  1  0  0  0
 13 31  1  0  0  0
 14 15  2  0  0  0
 14101  1  0  0  0
 15102  1  0  0  0
 16 17  2  0  0  0
 16 21  1  0  0  0
 16 31  1  0  0  0
 17 18  1  0  0  0
 17103  1  0  0  0
 18 19  2  0  0  0
 18104  1  0  0  0
 19 20  1  0  0  0
 19 24  1  0  0  0
 20 21  2  0  0  0
 20105  1  0  0  0
 21 23  1  0  0  0
 22 28  1  0  0  0
 22 32  2  0  0  0
 26 27  1  0  0  0
 28106  1  0  0  0
 28107  1  0  0  0
 29108  1  0  0  0
 29109  1  0  0  0
 33 34  1  0  0  0
 33 66  1  0  0  0
 33 70  2  0  0  0
 34 36  1  0  0  0
 34 59  1  0  0  0
 34110  1  0  0  0
 35 44  2  0  0  0
 35 45  1  0  0  0
 35 68  1  0  0  0
 36 56  1  0  0  0
 36111  1  0  0  0
 37 39  1  0  0  0
 37 47  1  0  0  0
 37 66  1  0  0  0
 37112  1  0  0  0
 38 43  2  0  0  0
 38 46  1  0  0  0
 38 47  1  0  0  0
 39 64  1  0  0  0
 39 67  2  0  0  0
 40 52  1  0  0  0
 40 53  2  0  0  0
 40 58  1  0  0  0
 41113  1  0  0  0
 41114  1  0  0  0
 41115  1  0  0  0
 41 48  1  0  0  0
 42 43  1  0  0  0
 42 66  1  0  0  0
 42116  1  0  0  0
 42117  1  0  0  0
 43 44  1  0  0  0
 44118  1  0  0  0
 45 46  2  0  0  0
 45119  1  0  0  0
 46120  1  0  0  0
 47121  1  0  0  0
 47122  1  0  0  0
 48 56  1  0  0  0
 48 65  1  0  0  0
 48123  1  0  0  0
 49 50  1  0  0  0
 49 53  1  0  0  0
 49 64  1  0  0  0
 49124  1  0  0  0
 50 51  1  0  0  0
 50125  1  0  0  0
 50126  1  0  0  0
 51 52  1  0  0  0
 51127  1  0  0  0
 51128  1  0  0  0
 52129  1  0  0  0
 52130  1  0  0  0
 53 54  1  0  0  0
 54 55  2  0  0  0
 54131  1  0  0  0
 55 57  1  0  0  0
 55132  1  0  0  0
 56 69  2  0  0  0
 57 58  2  0  0  0
 57133  1  0  0  0
 58134  1  0  0  0
 59 60  1  0  0  0
 59 61  1  0  0  0
 59 62  1  0  0  0
 60135  1  0  0  0
 60136  1  0  0  0
 60137  1  0  0  0
 61138  1  0  0  0
 61139  1  0  0  0
 61140  1  0  0  0
 62141  1  0  0  0
 62142  1  0  0  0
 62143  1  0  0  0
 63 65  1  0  0  0
 63144  1  0  0  0
 63145  1  0  0  0
 63146  1  0  0  0
 64147  1  0  0  0
 65148  1  0  0  0
 68 85  1  0  0  0
 71 73  2  0  0  0
 71 76  1  0  0  0
 71149  1  0  0  0
 72 75  1  0  0  0
 72 76  2  0  0  0
 72150  1  0  0  0
 73 74  1  0  0  0
 73 77  1  0  0  0
 74 75  2  0  0  0
 74 82  1  0  0  0
 75 84  1  0  0  0
 76 89  1  0  0  0
 77 88  1  0  0  0
 77151  1  0  0  0
 77152  1  0  0  0
 78 80  1  0  0  0
 78153  1  0  0  0
 78154  1  0  0  0
 78 83  1  0  0  0
 79 81  1  0  0  0
 79 83  1  0  0  0
 79155  1  0  0  0
 79156  1  0  0  0
 80 87  1  0  0  0
 80157  1  0  0  0
 80158  1  0  0  0
 81 87  1  0  0  0
 81159  1  0  0  0
 81160  1  0  0  0
 82 83  1  0  0  0
 82 88  1  0  0  0
 82161  1  0  0  0
 83162  1  0  0  0
 84163  1  0  0  0
 84164  1  0  0  0
 84165  1  0  0  0
 85 86  1  0  0  0
 85166  1  0  0  0
 85167  1  0  0  0
 86 89  1  0  0  0
 86168  1  0  0  0
 86169  1  0  0  0
 88170  1  0  0  0
 88171  1  0  0  0
M  CHG  1  88   1
M  ISO  4   1 100  68 101  85 101  87 100
M  END
> <chiral flag>
0

> <version>
0

> <s_m_source_file>
/data/baiqing/PycharmProjects/Reinvent-master-3.2/result/LINK_invent/BTK/process_docking_weight1_custom_sum_contain_oxygen_bond_distance_aromatic_linkinvent_7_9_3/rearranged_h_0154.sdf

> <i_m_source_file_index>
4

> <r_mmod_Potential_Energy-OPLS-2005>
78.878173828125

> <r_mmod_Stretch_Energy-OPLS-2005>
42.5534057617188

> <r_mmod_Bend_Energy-OPLS-2005>
175.740036010742

> <r_mmod_Torsional_Energy-OPLS-2005>
371.160491943359

> <r_mmod_Improper_Torsional_Energy-OPLS-2005>
13.3040285110474

> <r_mmod_Van_der_Waal_Energy-OPLS-2005>
162.73112487793

> <r_mmod_Electrostatic_Energy-OPLS-2005>
-240.480819702148

> <r_mmod_Solvation_Energy-OPLS-2005>
-462.866485595703

> <b_mmod_Minimization_Converged-OPLS-2005>
0

> <r_mmod_RMS_Derivative-OPLS-2005>
6.63170099258423

$$$$
4
                    3D
 Structure written by MMmdl.
166174  0  0  1  0            999 V2000
  -30.7460  -14.3242   20.6756 C   0  0  0  0  0  0
  -30.4278  -12.2540   19.3857 C   0  0  0  0  0  0
  -29.4918  -12.5219   18.1893 C   0  0  0  0  0  0
  -28.0117  -12.3848   18.5995 C   0  0  0  0  0  0
  -27.6759  -13.1774   19.8877 C   0  0  2  0  0  0
  -28.7120  -12.8697   20.9945 C   0  0  0  0  0  0
  -25.2640  -13.8073   20.5582 C   0  0  0  0  0  0
  -24.1914  -13.0429   20.9226 C   0  0  0  0  0  0
  -24.6408  -11.6863   20.8759 C   0  0  0  0  0  0
  -23.9047  -10.4276   21.0430 C   0  0  0  0  0  0
  -24.3609   -9.4174   21.9190 C   0  0  0  0  0  0
  -23.6272   -8.2220   22.0753 C   0  0  0  0  0  0
  -22.4245   -8.0278   21.3544 C   0  0  0  0  0  0
  -21.9884   -9.0257   20.4649 C   0  0  0  0  0  0
  -22.7221  -10.2127   20.3067 C   0  0  0  0  0  0
  -21.6851   -6.0732   22.5281 C   0  0  0  0  0  0
  -21.3998   -6.5635   23.8210 C   0  0  0  0  0  0
  -21.3659   -5.6795   24.9175 C   0  0  0  0  0  0
  -21.6037   -4.3056   24.7227 C   0  0  0  0  0  0
  -21.8829   -3.8141   23.4353 C   0  0  0  0  0  0
  -21.9174   -4.6956   22.3401 C   0  0  0  0  0  0
  -22.7931  -13.5243   21.1868 C   0  0  0  0  0  0
  -22.1655   -4.2142   21.0981 F   0  0  0  0  0  0
  -21.5624   -3.4543   25.7742 F   0  0  0  0  0  0
  -30.0646  -13.1708   20.4733 N   0  0  0  0  0  0
  -26.3086  -12.9199   20.3359 N   0  0  0  0  0  0
  -25.9321  -11.6386   20.5772 N   0  0  0  0  0  0
  -22.0533  -12.8262   22.0394 N   0  0  0  0  0  0
  -25.4344  -15.1767   20.3722 N   0  0  0  0  0  0
  -31.7492  -14.6642   20.0403 O   0  0  0  0  0  0
  -21.6625   -6.8874   21.4242 O   0  0  0  0  0  0
  -22.3660  -14.5572   20.6700 O   0  0  0  0  0  0
  -24.6077  -31.8725   23.2120 C   0  0  0  0  0  0
  -25.8987  -32.4847   23.8410 C   0  0  1  0  0  0
  -27.2427  -27.4817   20.0850 C   0  0  0  0  0  0
  -25.5887  -33.8643   24.2359 N   0  0  0  0  0  0
  -23.3968  -30.4921   21.5498 C   0  0  2  0  0  0
  -24.8474  -28.9597   20.1170 C   0  0  0  0  0  0
  -22.7368  -29.4707   22.5007 C   0  0  0  0  0  0
  -18.0279  -28.1357   22.8479 C   0  0  0  0  0  0
  -24.1480  -36.7315   23.2635 C   0  0  0  0  0  0
  -25.9201  -30.8455   21.3639 C   0  0  0  0  0  0
  -26.0007  -29.4814   20.7175 C   0  0  0  0  0  0
  -27.2014  -28.7433   20.7134 C   0  0  0  0  0  0
  -26.0873  -26.9705   19.4685 C   0  0  0  0  0  0
  -24.8830  -27.6974   19.4958 C   0  0  0  0  0  0
  -23.6042  -29.8170   20.1671 C   0  0  0  0  0  0
  -25.4103  -36.3115   24.0335 C   0  0  1  0  0  0
  -20.5840  -28.3704   23.1322 C   0  0  2  0  0  0
  -20.6783  -26.9441   22.5440 C   0  0  0  0  0  0
  -19.5780  -26.6391   21.5222 C   0  0  0  0  0  0
  -18.1957  -26.7908   22.1628 C   0  0  0  0  0  0
  -19.1507  -28.8848   23.2881 C   0  0  0  0  0  0
  -18.9425  -30.1452   23.8890 C   0  0  0  0  0  0
  -17.6418  -30.6582   24.0542 C   0  0  0  0  0  0
  -25.9037  -34.9489   23.5154 C   0  0  0  0  0  0
  -16.5324  -29.9059   23.6305 C   0  0  0  0  0  0
  -16.7256  -28.6467   23.0343 C   0  0  0  0  0  0
  -26.4455  -31.6597   25.0711 C   0  0  0  0  0  0
  -25.3744  -31.3680   26.1475 C   0  0  0  0  0  0
  -27.0286  -30.3042   24.6060 C   0  0  0  0  0  0
  -27.6057  -32.4306   25.7458 C   0  0  0  0  0  0
  -27.5589  -37.1809   24.8474 C   0  0  0  0  0  0
  -21.4104  -29.3068   22.3718 N   0  0  0  0  0  0
  -26.4307  -37.3792   23.9410 N   0  0  0  0  0  0
  -24.6584  -31.0835   22.1015 N   0  0  0  0  0  0
  -23.4139  -28.8262   23.3065 O   0  0  0  0  0  0
  -28.3901  -26.7360   20.0626 O   0  0  0  0  0  0
  -26.5585  -34.8938   22.4710 O   0  0  0  0  0  0
  -23.5274  -32.1483   23.7514 O   0  0  0  0  0  0
  -26.3884  -20.9372   19.8791 C   0  0  0  0  0  0
  -27.6746  -22.0878   22.0837 C   0  0  0  0  0  0
  -26.9992  -20.1073   20.8478 C   0  0  0  0  0  0
  -26.4478  -22.3428   19.9941 C   0  0  0  0  0  0
  -27.6167  -20.6901   21.9808 C   0  0  0  0  0  0
  -27.1362  -22.9231   21.0818 C   0  0  0  0  0  0
  -25.8062  -23.2124   18.9311 C   0  0  0  0  0  0
  -28.2730  -19.8705   23.0850 C   0  0  0  0  0  0
  -27.0337  -18.6077   20.6297 C   0  0  0  0  0  0
  -30.0188  -16.5652   21.3692 C   0  0  0  0  0  0
  -28.7237  -16.7955   20.5615 C   0  0  0  0  0  0
  -28.7596  -26.2256   21.3416 C   0  0  0  0  0  0
  -28.6372  -24.7011   21.3601 C   0  0  0  0  0  0
  -30.1686  -15.1290   21.5663 N   0  0  0  0  0  0
  -28.4260  -18.2180   20.3404 N   0  3  0  0  0  0
  -27.2892  -24.2862   21.1402 O   0  0  0  0  0  0
  -31.4725  -12.3606   19.0861 H   0  0  0  0  0  0
  -30.3230  -11.2198   19.7216 H   0  0  0  0  0  0
  -29.7190  -11.8303   17.3776 H   0  0  0  0  0  0
  -29.6760  -13.5230   17.7957 H   0  0  0  0  0  0
  -27.8070  -11.3250   18.7499 H   0  0  0  0  0  0
  -27.3654  -12.7047   17.7809 H   0  0  0  0  0  0
  -27.7477  -14.2349   19.6401 H   0  0  0  0  0  0
  -28.6655  -11.8119   21.2599 H   0  0  0  0  0  0
  -28.4613  -13.3938   21.9169 H   0  0  0  0  0  0
  -25.2767   -9.5643   22.4757 H   0  0  0  0  0  0
  -23.9988   -7.4604   22.7464 H   0  0  0  0  0  0
  -21.0821   -8.8775   19.8969 H   0  0  0  0  0  0
  -22.3684  -10.9675   19.6187 H   0  0  0  0  0  0
  -21.2003   -7.6147   23.9712 H   0  0  0  0  0  0
  -21.1470   -6.0526   25.9078 H   0  0  0  0  0  0
  -22.0606   -2.7610   23.2856 H   0  0  0  0  0  0
  -22.4118  -11.9910   22.4789 H   0  0  0  0  0  0
  -21.1169  -13.1327   22.2615 H   0  0  0  0  0  0
  -24.5714  -15.7103   20.3395 H   0  0  0  0  0  0
  -26.0588  -15.4387   19.6229 H   0  0  0  0  0  0
  -26.7078  -32.5603   23.1198 H   0  0  0  0  0  0
  -25.0053  -33.9822   25.0512 H   0  0  0  0  0  0
  -22.6854  -31.3082   21.4070 H   0  0  0  0  0  0
  -23.3750  -35.9654   23.3319 H   0  0  0  0  0  0
  -24.3572  -36.8895   22.2051 H   0  0  0  0  0  0
  -23.7242  -37.6531   23.6629 H   0  0  0  0  0  0
  -26.0297  -31.6067   20.5898 H   0  0  0  0  0  0
  -26.8100  -30.9014   21.9801 H   0  0  0  0  0  0
  -28.0939  -29.1398   21.1791 H   0  0  0  0  0  0
  -26.1340  -26.0154   18.9700 H   0  0  0  0  0  0
  -24.0019  -27.2850   19.0277 H   0  0  0  0  0  0
  -23.7084  -30.5886   19.4033 H   0  0  0  0  0  0
  -22.7319  -29.2260   19.8767 H   0  0  0  0  0  0
  -25.1274  -36.2003   25.0831 H   0  0  0  0  0  0
  -20.9921  -28.3307   24.1434 H   0  0  0  0  0  0
  -20.5698  -26.2318   23.3626 H   0  0  0  0  0  0
  -21.6669  -26.7510   22.1243 H   0  0  0  0  0  0
  -19.6978  -25.6312   21.1233 H   0  0  0  0  0  0
  -19.6723  -27.3218   20.6752 H   0  0  0  0  0  0
  -17.4240  -26.6610   21.4026 H   0  0  0  0  0  0
  -18.0406  -26.0047   22.9032 H   0  0  0  0  0  0
  -19.7894  -30.7279   24.2267 H   0  0  0  0  0  0
  -17.4959  -31.6276   24.5131 H   0  0  0  0  0  0
  -15.5314  -30.2958   23.7628 H   0  0  0  0  0  0
  -15.8652  -28.0776   22.7068 H   0  0  0  0  0  0
  -24.5912  -30.7030   25.7803 H   0  0  0  0  0  0
  -24.8941  -32.2827   26.4968 H   0  0  0  0  0  0
  -25.8110  -30.8818   27.0210 H   0  0  0  0  0  0
  -26.2822  -29.6821   24.1104 H   0  0  0  0  0  0
  -27.4052  -29.7253   25.4504 H   0  0  0  0  0  0
  -27.8660  -30.4367   23.9206 H   0  0  0  0  0  0
  -27.2693  -33.3594   26.2092 H   0  0  0  0  0  0
  -28.3828  -32.6895   25.0247 H   0  0  0  0  0  0
  -28.0781  -31.8401   26.5323 H   0  0  0  0  0  0
  -28.2618  -38.0090   24.7503 H   0  0  0  0  0  0
  -28.1058  -36.2626   24.6313 H   0  0  0  0  0  0
  -27.2301  -37.1480   25.8872 H   0  0  0  0  0  0
  -20.9273  -29.8762   21.6902 H   0  0  0  0  0  0
  -26.0198  -38.2879   24.1393 H   0  0  0  0  0  0
  -25.8873  -20.4931   19.0316 H   0  0  0  0  0  0
  -28.1594  -22.5136   22.9476 H   0  0  0  0  0  0
  -26.5657  -23.6549   18.2861 H   0  0  0  0  0  0
  -25.2318  -24.0146   19.3938 H   0  0  0  0  0  0
  -25.1166  -22.6450   18.3035 H   0  0  0  0  0  0
  -29.2896  -19.5895   22.8038 H   0  0  0  0  0  0
  -27.7158  -18.9674   23.3310 H   0  0  0  0  0  0
  -28.3411  -20.4517   24.0068 H   0  0  0  0  0  0
  -26.3848  -18.2985   19.8080 H   0  0  0  0  0  0
  -26.6453  -18.1148   21.5226 H   0  0  0  0  0  0
  -30.8892  -16.9879   20.8625 H   0  0  0  0  0  0
  -29.9541  -17.0440   22.3466 H   0  0  0  0  0  0
  -27.8971  -16.3216   21.0910 H   0  0  0  0  0  0
  -28.7883  -16.3212   19.5815 H   0  0  0  0  0  0
  -29.7961  -26.5002   21.5320 H   0  0  0  0  0  0
  -28.1762  -26.6471   22.1624 H   0  0  0  0  0  0
  -28.9951  -24.3611   22.3314 H   0  0  0  0  0  0
  -29.2910  -24.2609   20.6055 H   0  0  0  0  0  0
  -29.4611  -14.6873   22.1371 H   0  0  0  0  0  0
  -28.6473  -18.4645   19.3905 H   0  0  0  0  0  0
  -29.0199  -18.7641   20.9370 H   0  0  0  0  0  0
  1 25  1  0  0  0
  1 30  2  0  0  0
  1 84  1  0  0  0
  2  3  1  0  0  0
  2 25  1  0  0  0
  2 87  1  0  0  0
  2 88  1  0  0  0
  3  4  1  0  0  0
  3 89  1  0  0  0
  3 90  1  0  0  0
  4  5  1  0  0  0
  4 91  1  0  0  0
  4 92  1  0  0  0
  5  6  1  0  0  0
  5 26  1  0  0  0
  5 93  1  0  0  0
  6 25  1  0  0  0
  6 94  1  0  0  0
  6 95  1  0  0  0
  7  8  2  0  0  0
  7 26  1  0  0  0
  7 29  1  0  0  0
  8  9  1  0  0  0
  8 22  1  0  0  0
  9 10  1  0  0  0
  9 27  2  0  0  0
 10 11  2  0  0  0
 10 15  1  0  0  0
 11 12  1  0  0  0
 11 96  1  0  0  0
 12 13  2  0  0  0
 12 97  1  0  0  0
 13 14  1  0  0  0
 13 31  1  0  0  0
 14 15  2  0  0  0
 14 98  1  0  0  0
 15 99  1  0  0  0
 16 17  2  0  0  0
 16 21  1  0  0  0
 16 31  1  0  0  0
 17 18  1  0  0  0
 17100  1  0  0  0
 18 19  2  0  0  0
 18101  1  0  0  0
 19 20  1  0  0  0
 19 24  1  0  0  0
 20 21  2  0  0  0
 20102  1  0  0  0
 21 23  1  0  0  0
 22 28  1  0  0  0
 22 32  2  0  0  0
 26 27  1  0  0  0
 28103  1  0  0  0
 28104  1  0  0  0
 29105  1  0  0  0
 29106  1  0  0  0
 33 34  1  0  0  0
 33 66  1  0  0  0
 33 70  2  0  0  0
 34 36  1  0  0  0
 34 59  1  0  0  0
 34107  1  0  0  0
 35 44  2  0  0  0
 35 45  1  0  0  0
 35 68  1  0  0  0
 36 56  1  0  0  0
 36108  1  0  0  0
 37 39  1  0  0  0
 37 47  1  0  0  0
 37 66  1  0  0  0
 37109  1  0  0  0
 38 43  2  0  0  0
 38 46  1  0  0  0
 38 47  1  0  0  0
 39 64  1  0  0  0
 39 67  2  0  0  0
 40 52  1  0  0  0
 40 53  2  0  0  0
 40 58  1  0  0  0
 41110  1  0  0  0
 41111  1  0  0  0
 41112  1  0  0  0
 41 48  1  0  0  0
 42 43  1  0  0  0
 42 66  1  0  0  0
 42113  1  0  0  0
 42114  1  0  0  0
 43 44  1  0  0  0
 44115  1  0  0  0
 45 46  2  0  0  0
 45116  1  0  0  0
 46117  1  0  0  0
 47118  1  0  0  0
 47119  1  0  0  0
 48 56  1  0  0  0
 48 65  1  0  0  0
 48120  1  0  0  0
 49 50  1  0  0  0
 49 53  1  0  0  0
 49 64  1  0  0  0
 49121  1  0  0  0
 50 51  1  0  0  0
 50122  1  0  0  0
 50123  1  0  0  0
 51 52  1  0  0  0
 51124  1  0  0  0
 51125  1  0  0  0
 52126  1  0  0  0
 52127  1  0  0  0
 53 54  1  0  0  0
 54 55  2  0  0  0
 54128  1  0  0  0
 55 57  1  0  0  0
 55129  1  0  0  0
 56 69  2  0  0  0
 57 58  2  0  0  0
 57130  1  0  0  0
 58131  1  0  0  0
 59 60  1  0  0  0
 59 61  1  0  0  0
 59 62  1  0  0  0
 60132  1  0  0  0
 60133  1  0  0  0
 60134  1  0  0  0
 61135  1  0  0  0
 61136  1  0  0  0
 61137  1  0  0  0
 62138  1  0  0  0
 62139  1  0  0  0
 62140  1  0  0  0
 63 65  1  0  0  0
 63141  1  0  0  0
 63142  1  0  0  0
 63143  1  0  0  0
 64144  1  0  0  0
 65145  1  0  0  0
 68 82  1  0  0  0
 71 73  2  0  0  0
 71 74  1  0  0  0
 71146  1  0  0  0
 72 75  2  0  0  0
 72 76  1  0  0  0
 72147  1  0  0  0
 73 75  1  0  0  0
 73 79  1  0  0  0
 74 76  2  0  0  0
 74 77  1  0  0  0
 75 78  1  0  0  0
 76 86  1  0  0  0
 77148  1  0  0  0
 77149  1  0  0  0
 77150  1  0  0  0
 78151  1  0  0  0
 78152  1  0  0  0
 78153  1  0  0  0
 79 85  1  0  0  0
 79154  1  0  0  0
 79155  1  0  0  0
 80 81  1  0  0  0
 80 84  1  0  0  0
 80156  1  0  0  0
 80157  1  0  0  0
 81 85  1  0  0  0
 81158  1  0  0  0
 81159  1  0  0  0
 82 83  1  0  0  0
 82160  1  0  0  0
 82161  1  0  0  0
 83 86  1  0  0  0
 83162  1  0  0  0
 83163  1  0  0  0
 84164  1  0  0  0
 85165  1  0  0  0
 85166  1  0  0  0
M  CHG  1  85   1
M  ISO  4   1 100  68 101  82 101  84 100
M  END
> <chiral flag>
0

> <version>
0

> <s_m_source_file>
/data/baiqing/PycharmProjects/Reinvent-master-3.2/result/LINK_invent/BTK/process_docking_weight1_custom_sum_contain_oxygen_bond_distance_aromatic_linkinvent_7_9_3/rearranged_h_0154.sdf

> <i_m_source_file_index>
5

> <r_mmod_Potential_Energy-OPLS-2005>
-294.526885986328

> <r_mmod_Stretch_Energy-OPLS-2005>
31.5414905548096

> <r_mmod_Bend_Energy-OPLS-2005>
81.7356185913086

> <r_mmod_Torsional_Energy-OPLS-2005>
262.643157958984

> <r_mmod_Improper_Torsional_Energy-OPLS-2005>
9.57811164855957

> <r_mmod_Van_der_Waal_Energy-OPLS-2005>
150.156555175781

> <r_mmod_Electrostatic_Energy-OPLS-2005>
-357.757232666016

> <r_mmod_Solvation_Energy-OPLS-2005>
-479.945495605469

> <b_mmod_Minimization_Converged-OPLS-2005>
0

> <r_mmod_RMS_Derivative-OPLS-2005>
4.26625728607178

$$$$
5
                    3D
 Structure written by MMmdl.
158166  0  0  1  0            999 V2000
  -30.5432  -14.8327   20.4599 C   0  0  0  0  0  0
  -30.4457  -12.5060   19.4910 C   0  0  0  0  0  0
  -29.5355  -12.5573   18.2424 C   0  0  0  0  0  0
  -28.0485  -12.3850   18.6216 C   0  0  0  0  0  0
  -27.6440  -13.2395   19.8541 C   0  0  2  0  0  0
  -28.6845  -13.1639   20.9913 C   0  0  0  0  0  0
  -25.2486  -13.8167   20.5618 C   0  0  0  0  0  0
  -24.1790  -13.0407   20.9169 C   0  0  0  0  0  0
  -24.6398  -11.6893   20.8715 C   0  0  0  0  0  0
  -23.9073  -10.4267   21.0383 C   0  0  0  0  0  0
  -24.3617   -9.4165   21.9160 C   0  0  0  0  0  0
  -23.6273   -8.2215   22.0755 C   0  0  0  0  0  0
  -22.4256   -8.0256   21.3550 C   0  0  0  0  0  0
  -21.9889   -9.0229   20.4655 C   0  0  0  0  0  0
  -22.7229  -10.2099   20.3049 C   0  0  0  0  0  0
  -21.6831   -6.0698   22.5273 C   0  0  0  0  0  0
  -21.3993   -6.5608   23.8200 C   0  0  0  0  0  0
  -21.3693   -5.6784   24.9184 C   0  0  0  0  0  0
  -21.6072   -4.3042   24.7240 C   0  0  0  0  0  0
  -21.8808   -3.8109   23.4361 C   0  0  0  0  0  0
  -21.9178   -4.6924   22.3408 C   0  0  0  0  0  0
  -22.7811  -13.5193   21.1850 C   0  0  0  0  0  0
  -22.1649   -4.2099   21.0989 F   0  0  0  0  0  0
  -21.5671   -3.4535   25.7754 F   0  0  0  0  0  0
  -29.9806  -13.5657   20.4221 N   0  0  0  0  0  0
  -26.2929  -12.9385   20.3234 N   0  0  0  0  0  0
  -25.9325  -11.6516   20.5681 N   0  0  0  0  0  0
  -22.0443  -12.8223   22.0425 N   0  0  0  0  0  0
  -25.4182  -15.1885   20.3957 N   0  0  0  0  0  0
  -31.7238  -14.9785   20.1268 O   0  0  0  0  0  0
  -21.6626   -6.8841   21.4240 O   0  0  0  0  0  0
  -22.3512  -14.5512   20.6713 O   0  0  0  0  0  0
  -24.6439  -31.8470   23.1883 C   0  0  0  0  0  0
  -25.9244  -32.4669   23.8260 C   0  0  1  0  0  0
  -27.2187  -27.1744   20.1410 C   0  0  0  0  0  0
  -25.6013  -33.8472   24.2203 N   0  0  0  0  0  0
  -23.4420  -30.4706   21.5328 C   0  0  2  0  0  0
  -24.8884  -28.9023   20.1078 C   0  0  0  0  0  0
  -22.7570  -29.4592   22.4858 C   0  0  0  0  0  0
  -18.0322  -28.1404   22.8463 C   0  0  0  0  0  0
  -24.1482  -36.7257   23.2630 C   0  0  0  0  0  0
  -25.9961  -30.7349   21.3794 C   0  0  0  0  0  0
  -26.0660  -29.3501   20.7216 C   0  0  0  0  0  0
  -27.2338  -28.5035   20.7156 C   0  0  0  0  0  0
  -26.0092  -26.8142   19.5041 C   0  0  0  0  0  0
  -24.8719  -27.6471   19.4872 C   0  0  0  0  0  0
  -23.6667  -29.8042   20.1503 C   0  0  0  0  0  0
  -25.4104  -36.3003   24.0320 C   0  0  1  0  0  0
  -20.5925  -28.3808   23.1251 C   0  0  2  0  0  0
  -20.6829  -26.9485   22.5545 C   0  0  0  0  0  0
  -19.5852  -26.6317   21.5338 C   0  0  0  0  0  0
  -18.2008  -26.7896   22.1709 C   0  0  0  0  0  0
  -19.1562  -28.8922   23.2801 C   0  0  0  0  0  0
  -18.9448  -30.1535   23.8753 C   0  0  0  0  0  0
  -17.6427  -30.6614   24.0454 C   0  0  0  0  0  0
  -25.9068  -34.9384   23.5048 C   0  0  0  0  0  0
  -16.5339  -29.9075   23.6249 C   0  0  0  0  0  0
  -16.7285  -28.6481   23.0323 C   0  0  0  0  0  0
  -26.4542  -31.6505   25.0674 C   0  0  0  0  0  0
  -25.3707  -31.3762   26.1368 C   0  0  0  0  0  0
  -27.0382  -30.2871   24.6247 C   0  0  0  0  0  0
  -27.6048  -32.4261   25.7487 C   0  0  0  0  0  0
  -27.5563  -37.1784   24.8458 C   0  0  0  0  0  0
  -21.4256  -29.3121   22.3621 N   0  0  0  0  0  0
  -26.4250  -37.3730   23.9427 N   0  0  0  0  0  0
  -24.7125  -31.0389   22.0892 N   0  0  0  0  0  0
  -23.4203  -28.8122   23.3001 O   0  0  0  0  0  0
  -28.2840  -26.2126   20.2053 O   0  0  0  0  0  0
  -26.5630  -34.8884   22.4605 O   0  0  0  0  0  0
  -23.5574  -32.1338   23.7159 O   0  0  0  0  0  0
  -28.6715  -19.4172   19.4040 C   0  0  0  0  0  0
  -30.1198  -18.3669   21.5125 C   0  0  0  0  0  0
  -29.0475  -20.3828   20.3959 C   0  0  0  0  0  0
  -29.6864  -17.4060   20.5414 C   0  0  0  0  0  0
  -28.9501  -17.9920   19.4675 C   0  0  0  0  0  0
  -29.8120  -19.7954   21.4649 C   0  0  0  0  0  0
  -27.6323  -17.5753   17.4948 C   0  0  0  0  0  0
  -30.5132  -20.1372   23.7603 C   0  0  0  0  0  0
  -28.3452  -21.8683   20.3990 C   0  0  0  0  0  0
  -28.9846  -23.3955   20.3101 C   0  0  0  0  0  0
  -27.9897  -24.7079   20.0400 C   0  0  0  0  0  0
  -29.6927  -15.9095   20.7516 N   0  0  0  0  0  0
  -28.4682  -17.0911   18.5379 O   0  0  0  0  0  0
  -30.1962  -20.6604   22.4695 O   0  0  0  0  0  0
  -31.4899  -12.6435   19.2109 H   0  0  0  0  0  0
  -30.3903  -11.5270   19.9710 H   0  0  0  0  0  0
  -29.8331  -11.8011   17.5153 H   0  0  0  0  0  0
  -29.6716  -13.5185   17.7424 H   0  0  0  0  0  0
  -27.8542  -11.3281   18.8070 H   0  0  0  0  0  0
  -27.4281  -12.6642   17.7699 H   0  0  0  0  0  0
  -27.6369  -14.2717   19.5017 H   0  0  0  0  0  0
  -28.7357  -12.1523   21.3952 H   0  0  0  0  0  0
  -28.4005  -13.8055   21.8271 H   0  0  0  0  0  0
  -25.2755   -9.5617   22.4737 H   0  0  0  0  0  0
  -23.9964   -7.4602   22.7475 H   0  0  0  0  0  0
  -21.0815   -8.8750   19.8960 H   0  0  0  0  0  0
  -22.3668  -10.9649   19.6176 H   0  0  0  0  0  0
  -21.1950   -7.6103   23.9686 H   0  0  0  0  0  0
  -21.1564   -6.0520   25.9096 H   0  0  0  0  0  0
  -22.0553   -2.7558   23.2892 H   0  0  0  0  0  0
  -22.4033  -11.9877   22.4836 H   0  0  0  0  0  0
  -21.1084  -13.1310   22.2671 H   0  0  0  0  0  0
  -24.6378  -15.8340   20.4435 H   0  0  0  0  0  0
  -26.2461  -15.6023   19.9901 H   0  0  0  0  0  0
  -26.7298  -32.5272   23.0984 H   0  0  0  0  0  0
  -25.0157  -33.9563   25.0337 H   0  0  0  0  0  0
  -22.7417  -31.2944   21.3816 H   0  0  0  0  0  0
  -23.3717  -35.9616   23.3252 H   0  0  0  0  0  0
  -24.3573  -36.8922   22.2050 H   0  0  0  0  0  0
  -23.7254  -37.6456   23.6667 H   0  0  0  0  0  0
  -26.1394  -31.4917   20.6055 H   0  0  0  0  0  0
  -26.8714  -30.7861   22.0152 H   0  0  0  0  0  0
  -28.1379  -28.8499   21.1977 H   0  0  0  0  0  0
  -25.9031  -25.8489   19.0329 H   0  0  0  0  0  0
  -23.9719  -27.2948   19.0030 H   0  0  0  0  0  0
  -23.8061  -30.5791   19.3953 H   0  0  0  0  0  0
  -22.7802  -29.2483   19.8388 H   0  0  0  0  0  0
  -25.1271  -36.1811   25.0812 H   0  0  0  0  0  0
  -20.9982  -28.3447   24.1388 H   0  0  0  0  0  0
  -20.5661  -26.2540   23.3869 H   0  0  0  0  0  0
  -21.6722  -26.7422   22.1458 H   0  0  0  0  0  0
  -19.7054  -25.6156   21.1561 H   0  0  0  0  0  0
  -19.6823  -27.3003   20.6774 H   0  0  0  0  0  0
  -17.4252  -26.6486   21.4168 H   0  0  0  0  0  0
  -18.0471  -26.0145   22.9223 H   0  0  0  0  0  0
  -19.7915  -30.7416   24.2056 H   0  0  0  0  0  0
  -17.4956  -31.6292   24.5014 H   0  0  0  0  0  0
  -15.5325  -30.2943   23.7578 H   0  0  0  0  0  0
  -15.8691  -28.0766   22.7091 H   0  0  0  0  0  0
  -24.5920  -30.7047   25.7741 H   0  0  0  0  0  0
  -24.8847  -32.2968   26.4602 H   0  0  0  0  0  0
  -25.7990  -30.9105   27.0241 H   0  0  0  0  0  0
  -26.3015  -29.6613   24.1184 H   0  0  0  0  0  0
  -27.3915  -29.7151   25.4832 H   0  0  0  0  0  0
  -27.8950  -30.4077   23.9606 H   0  0  0  0  0  0
  -27.2614  -33.3596   26.1958 H   0  0  0  0  0  0
  -28.3914  -32.6764   25.0351 H   0  0  0  0  0  0
  -28.0594  -31.8420   26.5481 H   0  0  0  0  0  0
  -28.2544  -38.0117   24.7484 H   0  0  0  0  0  0
  -28.1092  -36.2626   24.6260 H   0  0  0  0  0  0
  -27.2293  -37.1427   25.8870 H   0  0  0  0  0  0
  -20.9417  -29.8920   21.6915 H   0  0  0  0  0  0
  -26.0103  -38.2799   24.1419 H   0  0  0  0  0  0
  -28.0632  -19.7917   18.5968 H   0  0  0  0  0  0
  -30.6523  -17.9639   22.3601 H   0  0  0  0  0  0
  -27.3528  -16.7516   16.8366 H   0  0  0  0  0  0
  -28.1426  -18.3249   16.8847 H   0  0  0  0  0  0
  -26.7098  -17.9954   17.8990 H   0  0  0  0  0  0
  -30.7517  -20.9767   24.4134 H   0  0  0  0  0  0
  -31.3835  -19.4747   23.7770 H   0  0  0  0  0  0
  -29.6601  -19.6190   24.2023 H   0  0  0  0  0  0
  -27.7276  -21.8633   21.2987 H   0  0  0  0  0  0
  -27.6067  -21.8284   19.5953 H   0  0  0  0  0  0
  -29.7313  -23.3940   19.5173 H   0  0  0  0  0  0
  -29.5457  -23.5655   21.2294 H   0  0  0  0  0  0
  -27.0852  -24.5124   20.6171 H   0  0  0  0  0  0
  -27.6830  -24.5938   18.9996 H   0  0  0  0  0  0
  -28.7735  -15.5604   20.9680 H   0  0  0  0  0  0
  1 25  1  0  0  0
  1 30  2  0  0  0
  1 82  1  0  0  0
  2  3  1  0  0  0
  2 25  1  0  0  0
  2 85  1  0  0  0
  2 86  1  0  0  0
  3  4  1  0  0  0
  3 87  1  0  0  0
  3 88  1  0  0  0
  4  5  1  0  0  0
  4 89  1  0  0  0
  4 90  1  0  0  0
  5  6  1  0  0  0
  5 26  1  0  0  0
  5 91  1  0  0  0
  6 25  1  0  0  0
  6 92  1  0  0  0
  6 93  1  0  0  0
  7  8  2  0  0  0
  7 26  1  0  0  0
  7 29  1  0  0  0
  8  9  1  0  0  0
  8 22  1  0  0  0
  9 10  1  0  0  0
  9 27  2  0  0  0
 10 11  2  0  0  0
 10 15  1  0  0  0
 11 12  1  0  0  0
 11 94  1  0  0  0
 12 13  2  0  0  0
 12 95  1  0  0  0
 13 14  1  0  0  0
 13 31  1  0  0  0
 14 15  2  0  0  0
 14 96  1  0  0  0
 15 97  1  0  0  0
 16 17  2  0  0  0
 16 21  1  0  0  0
 16 31  1  0  0  0
 17 18  1  0  0  0
 17 98  1  0  0  0
 18 19  2  0  0  0
 18 99  1  0  0  0
 19 20  1  0  0  0
 19 24  1  0  0  0
 20 21  2  0  0  0
 20100  1  0  0  0
 21 23  1  0  0  0
 22 28  1  0  0  0
 22 32  2  0  0  0
 26 27  1  0  0  0
 28101  1  0  0  0
 28102  1  0  0  0
 29103  1  0  0  0
 29104  1  0  0  0
 33 34  1  0  0  0
 33 66  1  0  0  0
 33 70  2  0  0  0
 34 36  1  0  0  0
 34 59  1  0  0  0
 34105  1  0  0  0
 35 44  2  0  0  0
 35 45  1  0  0  0
 35 68  1  0  0  0
 36 56  1  0  0  0
 36106  1  0  0  0
 37 39  1  0  0  0
 37 47  1  0  0  0
 37 66  1  0  0  0
 37107  1  0  0  0
 38 43  2  0  0  0
 38 46  1  0  0  0
 38 47  1  0  0  0
 39 64  1  0  0  0
 39 67  2  0  0  0
 40 52  1  0  0  0
 40 53  2  0  0  0
 40 58  1  0  0  0
 41108  1  0  0  0
 41109  1  0  0  0
 41110  1  0  0  0
 41 48  1  0  0  0
 42 43  1  0  0  0
 42 66  1  0  0  0
 42111  1  0  0  0
 42112  1  0  0  0
 43 44  1  0  0  0
 44113  1  0  0  0
 45 46  2  0  0  0
 45114  1  0  0  0
 46115  1  0  0  0
 47116  1  0  0  0
 47117  1  0  0  0
 48 56  1  0  0  0
 48 65  1  0  0  0
 48118  1  0  0  0
 49 50  1  0  0  0
 49 53  1  0  0  0
 49 64  1  0  0  0
 49119  1  0  0  0
 50 51  1  0  0  0
 50120  1  0  0  0
 50121  1  0  0  0
 51 52  1  0  0  0
 51122  1  0  0  0
 51123  1  0  0  0
 52124  1  0  0  0
 52125  1  0  0  0
 53 54  1  0  0  0
 54 55  2  0  0  0
 54126  1  0  0  0
 55 57  1  0  0  0
 55127  1  0  0  0
 56 69  2  0  0  0
 57 58  2  0  0  0
 57128  1  0  0  0
 58129  1  0  0  0
 59 60  1  0  0  0
 59 61  1  0  0  0
 59 62  1  0  0  0
 60130  1  0  0  0
 60131  1  0  0  0
 60132  1  0  0  0
 61133  1  0  0  0
 61134  1  0  0  0
 61135  1  0  0  0
 62136  1  0  0  0
 62137  1  0  0  0
 62138  1  0  0  0
 63 65  1  0  0  0
 63139  1  0  0  0
 63140  1  0  0  0
 63141  1  0  0  0
 64142  1  0  0  0
 65143  1  0  0  0
 68 81  1  0  0  0
 71 73  2  0  0  0
 71 75  1  0  0  0
 71144  1  0  0  0
 72 74  1  0  0  0
 72 76  2  0  0  0
 72145  1  0  0  0
 73 76  1  0  0  0
 73 79  1  0  0  0
 74 75  2  0  0  0
 74 82  1  0  0  0
 75 83  1  0  0  0
 76 84  1  0  0  0
 77 83  1  0  0  0
 77146  1  0  0  0
 77147  1  0  0  0
 77148  1  0  0  0
 78 84  1  0  0  0
 78149  1  0  0  0
 78150  1  0  0  0
 78151  1  0  0  0
 79 80  1  0  0  0
 79152  1  0  0  0
 79153  1  0  0  0
 80 81  1  0  0  0
 80154  1  0  0  0
 80155  1  0  0  0
 81156  1  0  0  0
 81157  1  0  0  0
 82158  1  0  0  0
M  ISO  4   1 100  68 101  81 101  82 100
M  END
> <chiral flag>
0

> <version>
0

> <s_m_source_file>
/data/baiqing/PycharmProjects/Reinvent-master-3.2/result/LINK_invent/BTK/process_docking_weight1_custom_sum_contain_oxygen_bond_distance_aromatic_linkinvent_7_9_3/rearranged_h_0154.sdf

> <i_m_source_file_index>
6

> <r_mmod_Potential_Energy-OPLS-2005>
355.480834960938

> <r_mmod_Stretch_Energy-OPLS-2005>
193.68391418457

> <r_mmod_Bend_Energy-OPLS-2005>
246.478805541992

> <r_mmod_Torsional_Energy-OPLS-2005>
257.643615722656

> <r_mmod_Improper_Torsional_Energy-OPLS-2005>
9.09413814544678

> <r_mmod_Van_der_Waal_Energy-OPLS-2005>
139.753540039062

> <r_mmod_Electrostatic_Energy-OPLS-2005>
-411.248504638672

> <r_mmod_Solvation_Energy-OPLS-2005>
-217.400939941406

> <b_mmod_Minimization_Converged-OPLS-2005>
0

> <r_mmod_RMS_Derivative-OPLS-2005>
5.02214336395264

$$$$
6
                    3D
 Structure written by MMmdl.
176185  0  0  1  0            999 V2000
  -30.7148  -14.5575   20.5148 C   0  0  0  0  0  0
  -30.4157  -12.3539   19.4247 C   0  0  0  0  0  0
  -29.4951  -12.5043   18.1964 C   0  0  0  0  0  0
  -28.0118  -12.3652   18.6029 C   0  0  0  0  0  0
  -27.6431  -13.2050   19.8556 C   0  0  2  0  0  0
  -28.7023  -13.0707   20.9754 C   0  0  0  0  0  0
  -25.2520  -13.8134   20.5701 C   0  0  0  0  0  0
  -24.1771  -13.0420   20.9234 C   0  0  0  0  0  0
  -24.6307  -11.6893   20.8694 C   0  0  0  0  0  0
  -23.8982  -10.4294   21.0362 C   0  0  0  0  0  0
  -24.3591   -9.4245   21.9141 C   0  0  0  0  0  0
  -23.6334   -8.2231   22.0714 C   0  0  0  0  0  0
  -22.4319   -8.0234   21.3531 C   0  0  0  0  0  0
  -21.9900   -9.0183   20.4624 C   0  0  0  0  0  0
  -22.7155  -10.2096   20.3026 C   0  0  0  0  0  0
  -21.6857   -6.0711   22.5301 C   0  0  0  0  0  0
  -21.3975   -6.5607   23.8225 C   0  0  0  0  0  0
  -21.3651   -5.6751   24.9183 C   0  0  0  0  0  0
  -21.6066   -4.3014   24.7213 C   0  0  0  0  0  0
  -21.8844   -3.8111   23.4324 C   0  0  0  0  0  0
  -21.9224   -4.6940   22.3390 C   0  0  0  0  0  0
  -22.7787  -13.5231   21.1908 C   0  0  0  0  0  0
  -22.1704   -4.2131   21.0968 F   0  0  0  0  0  0
  -21.5683   -3.4496   25.7712 F   0  0  0  0  0  0
  -30.0195  -13.3834   20.3992 N   0  0  0  0  0  0
  -26.2922  -12.9267   20.3306 N   0  0  0  0  0  0
  -25.9234  -11.6447   20.5695 N   0  0  0  0  0  0
  -22.0415  -12.8215   22.0424 N   0  0  0  0  0  0
  -25.4239  -15.1852   20.4105 N   0  0  0  0  0  0
  -31.8984  -14.6514   20.1868 O   0  0  0  0  0  0
  -21.6675   -6.8834   21.4251 O   0  0  0  0  0  0
  -22.3469  -14.5535   20.6733 O   0  0  0  0  0  0
  -24.6236  -31.8647   23.2102 C   0  0  0  0  0  0
  -25.9110  -32.4796   23.8414 C   0  0  1  0  0  0
  -27.2077  -27.3602   20.0826 C   0  0  0  0  0  0
  -25.5967  -33.8592   24.2335 N   0  0  0  0  0  0
  -23.4126  -30.4977   21.5520 C   0  0  2  0  0  0
  -24.8491  -28.9615   20.1171 C   0  0  0  0  0  0
  -22.7474  -29.4665   22.4951 C   0  0  0  0  0  0
  -18.0272  -28.1389   22.8473 C   0  0  0  0  0  0
  -24.1489  -36.7297   23.2641 C   0  0  0  0  0  0
  -25.9558  -30.8082   21.3743 C   0  0  0  0  0  0
  -26.0230  -29.4419   20.7100 C   0  0  0  0  0  0
  -27.2063  -28.6511   20.6858 C   0  0  0  0  0  0
  -25.9827  -26.9012   19.5355 C   0  0  0  0  0  0
  -24.8257  -27.6928   19.5296 C   0  0  0  0  0  0
  -23.6239  -29.8442   20.1632 C   0  0  0  0  0  0
  -25.4108  -36.3098   24.0347 C   0  0  1  0  0  0
  -20.5890  -28.3684   23.1297 C   0  0  2  0  0  0
  -20.6764  -26.9408   22.5421 C   0  0  0  0  0  0
  -19.5760  -26.6383   21.5211 C   0  0  0  0  0  0
  -18.1929  -26.7941   22.1586 C   0  0  0  0  0  0
  -19.1533  -28.8847   23.2885 C   0  0  0  0  0  0
  -18.9455  -30.1449   23.8898 C   0  0  0  0  0  0
  -17.6452  -30.6580   24.0558 C   0  0  0  0  0  0
  -25.9053  -34.9473   23.5135 C   0  0  0  0  0  0
  -16.5344  -29.9075   23.6325 C   0  0  0  0  0  0
  -16.7266  -28.6503   23.0339 C   0  0  0  0  0  0
  -26.4496  -31.6588   25.0765 C   0  0  0  0  0  0
  -25.3741  -31.3754   26.1514 C   0  0  0  0  0  0
  -27.0299  -30.2999   24.6212 C   0  0  0  0  0  0
  -27.6096  -32.4306   25.7515 C   0  0  0  0  0  0
  -27.5609  -37.1780   24.8442 C   0  0  0  0  0  0
  -21.4195  -29.3031   22.3696 N   0  0  0  0  0  0
  -26.4274  -37.3803   23.9456 N   0  0  0  0  0  0
  -24.6839  -31.0723   22.1023 N   0  0  0  0  0  0
  -23.4232  -28.8199   23.2998 O   0  0  0  0  0  0
  -28.3483  -26.5540   20.0848 O   0  0  0  0  0  0
  -26.5596  -34.8931   22.4681 O   0  0  0  0  0  0
  -23.5410  -32.1417   23.7458 O   0  0  0  0  0  0
  -28.1781  -23.1550   20.2344 C   0  0  0  0  0  0
  -28.5876  -21.6497   20.0720 C   0  0  0  0  0  0
  -30.9830  -18.0097   21.3763 C   0  0  0  0  0  0
  -29.6820  -17.7121   19.3218 C   0  0  0  0  0  0
  -30.4664  -16.6297   21.8918 C   0  0  0  0  0  0
  -29.1504  -16.3514   19.8411 C   0  0  0  0  0  0
  -29.0213  -24.0830   19.3225 C   0  0  2  0  0  0
  -30.5207  -23.8754   19.6721 C   0  0  1  0  0  0
  -30.1138  -21.3623   20.2564 C   0  0  2  0  0  0
  -29.9875  -18.7318   20.4348 C   0  0  0  0  0  0
  -30.9346  -22.3894   19.4192 C   0  0  1  0  0  0
  -31.4692  -24.8571   18.9600 C   0  0  0  0  0  0
  -31.3239  -21.5353   15.8007 C   0  0  0  0  0  0
  -28.5059  -25.5492   19.0373 C   0  0  0  0  0  0
  -31.8127  -21.9590   17.1927 C   0  0  0  0  0  0
  -30.0164  -15.6877   20.8406 N   0  0  0  0  0  0
  -30.5525  -19.9842   19.8361 N   0  3  0  0  0  0
  -30.6823  -22.0328   18.0519 O   0  0  0  0  0  0
  -31.4621  -12.4495   19.1264 H   0  0  0  0  0  0
  -30.3209  -11.3552   19.8559 H   0  0  0  0  0  0
  -29.7459  -11.7529   17.4460 H   0  0  0  0  0  0
  -29.6611  -13.4743   17.7263 H   0  0  0  0  0  0
  -27.8146  -11.3102   18.7892 H   0  0  0  0  0  0
  -27.3688  -12.6439   17.7681 H   0  0  0  0  0  0
  -27.6356  -14.2314   19.5160 H   0  0  0  0  0  0
  -28.6981  -12.0544   21.3726 H   0  0  0  0  0  0
  -28.4660  -13.7257   21.8142 H   0  0  0  0  0  0
  -25.2755   -9.5795   22.4650 H   0  0  0  0  0  0
  -24.0113   -7.4616   22.7387 H   0  0  0  0  0  0
  -21.0859   -8.8643   19.8909 H   0  0  0  0  0  0
  -22.3591  -10.9606   19.6103 H   0  0  0  0  0  0
  -21.1893   -7.6107   23.9719 H   0  0  0  0  0  0
  -21.1470   -6.0461   25.9097 H   0  0  0  0  0  0
  -22.0630   -2.7582   23.2801 H   0  0  0  0  0  0
  -22.4075  -11.9968   22.4917 H   0  0  0  0  0  0
  -21.0954  -13.1149   22.2524 H   0  0  0  0  0  0
  -24.6621  -15.8442   20.5332 H   0  0  0  0  0  0
  -26.2853  -15.6205   20.1060 H   0  0  0  0  0  0
  -26.7177  -32.5466   23.1173 H   0  0  0  0  0  0
  -25.0169  -33.9745   25.0512 H   0  0  0  0  0  0
  -22.7041  -31.3192   21.4169 H   0  0  0  0  0  0
  -23.3792  -35.9584   23.3206 H   0  0  0  0  0  0
  -24.3613  -36.9001   22.2080 H   0  0  0  0  0  0
  -23.7163  -37.6450   23.6686 H   0  0  0  0  0  0
  -26.0923  -31.5760   20.6115 H   0  0  0  0  0  0
  -26.8379  -30.8429   22.0038 H   0  0  0  0  0  0
  -28.1171  -29.0242   21.1349 H   0  0  0  0  0  0
  -25.8544  -25.9075   19.1394 H   0  0  0  0  0  0
  -23.9101  -27.3064   19.1000 H   0  0  0  0  0  0
  -23.7553  -30.6257   19.4132 H   0  0  0  0  0  0
  -22.7411  -29.2828   19.8524 H   0  0  0  0  0  0
  -25.1264  -36.1958   25.0835 H   0  0  0  0  0  0
  -20.9967  -28.3235   24.1432 H   0  0  0  0  0  0
  -20.5648  -26.2303   23.3623 H   0  0  0  0  0  0
  -21.6635  -26.7416   22.1237 H   0  0  0  0  0  0
  -19.6928  -25.6288   21.1261 H   0  0  0  0  0  0
  -19.6750  -27.3177   20.6737 H   0  0  0  0  0  0
  -17.4240  -26.6715   21.3953 H   0  0  0  0  0  0
  -18.0288  -26.0064   22.8956 H   0  0  0  0  0  0
  -19.7935  -30.7248   24.2276 H   0  0  0  0  0  0
  -17.5015  -31.6249   24.5175 H   0  0  0  0  0  0
  -15.5343  -30.2974   23.7662 H   0  0  0  0  0  0
  -15.8664  -28.0826   22.7036 H   0  0  0  0  0  0
  -24.5977  -30.6999   25.7900 H   0  0  0  0  0  0
  -24.8836  -32.2906   26.4834 H   0  0  0  0  0  0
  -25.8106  -30.9076   27.0346 H   0  0  0  0  0  0
  -26.2838  -29.6799   24.1220 H   0  0  0  0  0  0
  -27.3954  -29.7228   25.4720 H   0  0  0  0  0  0
  -27.8749  -30.4258   23.9438 H   0  0  0  0  0  0
  -27.2732  -33.3611   26.2094 H   0  0  0  0  0  0
  -28.3892  -32.6841   25.0319 H   0  0  0  0  0  0
  -28.0766  -31.8410   26.5418 H   0  0  0  0  0  0
  -28.2537  -38.0161   24.7587 H   0  0  0  0  0  0
  -28.1175  -36.2694   24.6083 H   0  0  0  0  0  0
  -27.2372  -37.1223   25.8849 H   0  0  0  0  0  0
  -20.9389  -29.8788   21.6933 H   0  0  0  0  0  0
  -26.0163  -38.2871   24.1512 H   0  0  0  0  0  0
  -28.2779  -23.4615   21.2783 H   0  0  0  0  0  0
  -27.1180  -23.2599   19.9926 H   0  0  0  0  0  0
  -28.2806  -21.3160   19.0798 H   0  0  0  0  0  0
  -28.0117  -21.0473   20.7747 H   0  0  0  0  0  0
  -31.9232  -17.8476   20.8490 H   0  0  0  0  0  0
  -31.2187  -18.6479   22.2290 H   0  0  0  0  0  0
  -28.9539  -18.1303   18.6279 H   0  0  0  0  0  0
  -30.5869  -17.5301   18.7393 H   0  0  0  0  0  0
  -29.6199  -16.7912   22.5623 H   0  0  0  0  0  0
  -31.2440  -16.1633   22.5043 H   0  0  0  0  0  0
  -29.0276  -15.7207   18.9608 H   0  0  0  0  0  0
  -28.1626  -16.4851   20.2827 H   0  0  0  0  0  0
  -28.9033  -23.6405   18.3316 H   0  0  0  0  0  0
  -30.6373  -24.0673   20.7387 H   0  0  0  0  0  0
  -30.3687  -21.4953   21.3107 H   0  0  0  0  0  0
  -29.0688  -18.9586   20.9785 H   0  0  0  0  0  0
  -31.9934  -22.2644   19.6533 H   0  0  0  0  0  0
  -31.3089  -24.8589   17.8822 H   0  0  0  0  0  0
  -32.5142  -24.6074   19.1486 H   0  0  0  0  0  0
  -31.3151  -25.8733   19.3236 H   0  0  0  0  0  0
  -32.1420  -21.5285   15.0800 H   0  0  0  0  0  0
  -30.5611  -22.2181   15.4263 H   0  0  0  0  0  0
  -30.8888  -20.5355   15.8164 H   0  0  0  0  0  0
  -27.6256  -25.4125   18.4208 H   0  0  0  0  0  0
  -29.1846  -26.0131   18.3242 H   0  0  0  0  0  0
  -32.3236  -22.9194   17.1280 H   0  0  0  0  0  0
  -32.5312  -21.2296   17.5706 H   0  0  0  0  0  0
  -31.5536  -19.9383   19.9561 H   0  0  0  0  0  0
  -30.3889  -19.9501   18.8385 H   0  0  0  0  0  0
  1 25  1  0  0  0
  1 30  2  0  0  0
  1 86  1  0  0  0
  2  3  1  0  0  0
  2 25  1  0  0  0
  2 89  1  0  0  0
  2 90  1  0  0  0
  3  4  1  0  0  0
  3 91  1  0  0  0
  3 92  1  0  0  0
  4  5  1  0  0  0
  4 93  1  0  0  0
  4 94  1  0  0  0
  5  6  1  0  0  0
  5 26  1  0  0  0
  5 95  1  0  0  0
  6 25  1  0  0  0
  6 96  1  0  0  0
  6 97  1  0  0  0
  7  8  2  0  0  0
  7 26  1  0  0  0
  7 29  1  0  0  0
  8  9  1  0  0  0
  8 22  1  0  0  0
  9 10  1  0  0  0
  9 27  2  0  0  0
 10 11  2  0  0  0
 10 15  1  0  0  0
 11 12  1  0  0  0
 11 98  1  0  0  0
 12 13  2  0  0  0
 12 99  1  0  0  0
 13 14  1  0  0  0
 13 31  1  0  0  0
 14 15  2  0  0  0
 14100  1  0  0  0
 15101  1  0  0  0
 16 17  2  0  0  0
 16 21  1  0  0  0
 16 31  1  0  0  0
 17 18  1  0  0  0
 17102  1  0  0  0
 18 19  2  0  0  0
 18103  1  0  0  0
 19 20  1  0  0  0
 19 24  1  0  0  0
 20 21  2  0  0  0
 20104  1  0  0  0
 21 23  1  0  0  0
 22 28  1  0  0  0
 22 32  2  0  0  0
 26 27  1  0  0  0
 28105  1  0  0  0
 28106  1  0  0  0
 29107  1  0  0  0
 29108  1  0  0  0
 33 34  1  0  0  0
 33 66  1  0  0  0
 33 70  2  0  0  0
 34 36  1  0  0  0
 34 59  1  0  0  0
 34109  1  0  0  0
 35 44  2  0  0  0
 35 45  1  0  0  0
 35 68  1  0  0  0
 36 56  1  0  0  0
 36110  1  0  0  0
 37 39  1  0  0  0
 37 47  1  0  0  0
 37 66  1  0  0  0
 37111  1  0  0  0
 38 43  2  0  0  0
 38 46  1  0  0  0
 38 47  1  0  0  0
 39 64  1  0  0  0
 39 67  2  0  0  0
 40 52  1  0  0  0
 40 53  2  0  0  0
 40 58  1  0  0  0
 41112  1  0  0  0
 41113  1  0  0  0
 41114  1  0  0  0
 41 48  1  0  0  0
 42 43  1  0  0  0
 42 66  1  0  0  0
 42115  1  0  0  0
 42116  1  0  0  0
 43 44  1  0  0  0
 44117  1  0  0  0
 45 46  2  0  0  0
 45118  1  0  0  0
 46119  1  0  0  0
 47120  1  0  0  0
 47121  1  0  0  0
 48 56  1  0  0  0
 48 65  1  0  0  0
 48122  1  0  0  0
 49 50  1  0  0  0
 49 53  1  0  0  0
 49 64  1  0  0  0
 49123  1  0  0  0
 50 51  1  0  0  0
 50124  1  0  0  0
 50125  1  0  0  0
 51 52  1  0  0  0
 51126  1  0  0  0
 51127  1  0  0  0
 52128  1  0  0  0
 52129  1  0  0  0
 53 54  1  0  0  0
 54 55  2  0  0  0
 54130  1  0  0  0
 55 57  1  0  0  0
 55131  1  0  0  0
 56 69  2  0  0  0
 57 58  2  0  0  0
 57132  1  0  0  0
 58133  1  0  0  0
 59 60  1  0  0  0
 59 61  1  0  0  0
 59 62  1  0  0  0
 60134  1  0  0  0
 60135  1  0  0  0
 60136  1  0  0  0
 61137  1  0  0  0
 61138  1  0  0  0
 61139  1  0  0  0
 62140  1  0  0  0
 62141  1  0  0  0
 62142  1  0  0  0
 63 65  1  0  0  0
 63143  1  0  0  0
 63144  1  0  0  0
 63145  1  0  0  0
 64146  1  0  0  0
 65147  1  0  0  0
 68 84  1  0  0  0
 71 72  1  0  0  0
 71 77  1  0  0  0
 71148  1  0  0  0
 71149  1  0  0  0
 72 79  1  0  0  0
 72150  1  0  0  0
 72151  1  0  0  0
 73 75  1  0  0  0
 73 80  1  0  0  0
 73152  1  0  0  0
 73153  1  0  0  0
 74 76  1  0  0  0
 74 80  1  0  0  0
 74154  1  0  0  0
 74155  1  0  0  0
 75 86  1  0  0  0
 75156  1  0  0  0
 75157  1  0  0  0
 76 86  1  0  0  0
 76158  1  0  0  0
 76159  1  0  0  0
 77 78  1  0  0  0
 77 84  1  0  0  0
 77160  1  0  0  0
 78 81  1  0  0  0
 78 82  1  0  0  0
 78161  1  0  0  0
 79 81  1  0  0  0
 79 87  1  0  0  0
 79162  1  0  0  0
 80 87  1  0  0  0
 80163  1  0  0  0
 81 88  1  0  0  0
 81164  1  0  0  0
 82165  1  0  0  0
 82166  1  0  0  0
 82167  1  0  0  0
 83 85  1  0  0  0
 83168  1  0  0  0
 83169  1  0  0  0
 83170  1  0  0  0
 84171  1  0  0  0
 84172  1  0  0  0
 85 88  1  0  0  0
 85173  1  0  0  0
 85174  1  0  0  0
 87175  1  0  0  0
 87176  1  0  0  0
M  CHG  1  87   1
M  ISO  4   1 100  68 101  84 101  86 100
M  END
> <chiral flag>
0

> <version>
0

> <s_m_source_file>
/data/baiqing/PycharmProjects/Reinvent-master-3.2/result/LINK_invent/BTK/process_docking_weight1_custom_sum_contain_oxygen_bond_distance_aromatic_linkinvent_7_9_3/rearranged_h_0154.sdf

> <i_m_source_file_index>
7

> <r_mmod_Potential_Energy-OPLS-2005>
202.633972167969

> <r_mmod_Stretch_Energy-OPLS-2005>
59.580753326416

> <r_mmod_Bend_Energy-OPLS-2005>
166.226379394531

> <r_mmod_Torsional_Energy-OPLS-2005>
392.382934570312

> <r_mmod_Improper_Torsional_Energy-OPLS-2005>
5.22212839126587

> <r_mmod_Van_der_Waal_Energy-OPLS-2005>
136.342544555664

> <r_mmod_Electrostatic_Energy-OPLS-2005>
-182.502105712891

> <r_mmod_Solvation_Energy-OPLS-2005>
-408.548736572266

> <b_mmod_Minimization_Converged-OPLS-2005>
0

> <r_mmod_RMS_Derivative-OPLS-2005>
5.08447694778442

$$$$
7
                    3D
 Structure written by MMmdl.
156165  0  0  1  0            999 V2000
  -30.6066  -15.0361   20.3594 C   0  0  0  0  0  0
  -30.4157  -12.6702   19.4584 C   0  0  0  0  0  0
  -29.4935  -12.5207   18.2304 C   0  0  0  0  0  0
  -28.0407  -12.3021   18.6763 C   0  0  0  0  0  0
  -27.6091  -13.2679   19.8118 C   0  0  2  0  0  0
  -28.6668  -13.3917   20.9269 C   0  0  0  0  0  0
  -25.2385  -13.8228   20.5829 C   0  0  0  0  0  0
  -24.1721  -13.0453   20.9291 C   0  0  0  0  0  0
  -24.6357  -11.6938   20.8779 C   0  0  0  0  0  0
  -23.9042  -10.4306   21.0424 C   0  0  0  0  0  0
  -24.3599   -9.4211   21.9193 C   0  0  0  0  0  0
  -23.6290   -8.2241   22.0740 C   0  0  0  0  0  0
  -22.4270   -8.0271   21.3533 C   0  0  0  0  0  0
  -21.9911   -9.0244   20.4626 C   0  0  0  0  0  0
  -22.7224  -10.2138   20.3055 C   0  0  0  0  0  0
  -21.6862   -6.0717   22.5268 C   0  0  0  0  0  0
  -21.4020   -6.5617   23.8199 C   0  0  0  0  0  0
  -21.3676   -5.6783   24.9171 C   0  0  0  0  0  0
  -21.6053   -4.3038   24.7237 C   0  0  0  0  0  0
  -21.8809   -3.8122   23.4352 C   0  0  0  0  0  0
  -21.9191   -4.6938   22.3406 C   0  0  0  0  0  0
  -22.7728  -13.5201   21.1969 C   0  0  0  0  0  0
  -22.1655   -4.2113   21.0987 F   0  0  0  0  0  0
  -21.5650   -3.4532   25.7752 F   0  0  0  0  0  0
  -29.9045  -13.8257   20.2624 N   0  0  0  0  0  0
  -26.2822  -12.9538   20.3290 N   0  0  0  0  0  0
  -25.9301  -11.6629   20.5748 N   0  0  0  0  0  0
  -22.0388  -12.8180   22.0492 N   0  0  0  0  0  0
  -25.4123  -15.1971   20.4326 N   0  0  0  0  0  0
  -31.8342  -14.9083   20.2929 O   0  0  0  0  0  0
  -21.6639   -6.8868   21.4230 O   0  0  0  0  0  0
  -22.3420  -14.5554   20.6857 O   0  0  0  0  0  0
  -24.6445  -31.8490   23.1851 C   0  0  0  0  0  0
  -25.9230  -32.4671   23.8324 C   0  0  1  0  0  0
  -27.2194  -27.1146   20.1530 C   0  0  0  0  0  0
  -25.6003  -33.8499   24.2252 N   0  0  0  0  0  0
  -23.4472  -30.4659   21.5225 C   0  0  2  0  0  0
  -24.8997  -28.8935   20.1065 C   0  0  0  0  0  0
  -22.7580  -29.4559   22.4765 C   0  0  0  0  0  0
  -18.0433  -28.1069   22.8556 C   0  0  0  0  0  0
  -24.1482  -36.7256   23.2650 C   0  0  0  0  0  0
  -26.0087  -30.7151   21.3875 C   0  0  0  0  0  0
  -26.0762  -29.3225   20.7327 C   0  0  0  0  0  0
  -27.2262  -28.4419   20.7570 C   0  0  0  0  0  0
  -26.0232  -26.8208   19.4507 C   0  0  0  0  0  0
  -24.8862  -27.6530   19.4571 C   0  0  0  0  0  0
  -23.6766  -29.7907   20.1433 C   0  0  0  0  0  0
  -25.4105  -36.3037   24.0342 C   0  0  1  0  0  0
  -20.6030  -28.3553   23.1049 C   0  0  2  0  0  0
  -20.6950  -26.9237   22.5189 C   0  0  0  0  0  0
  -19.5838  -26.6182   21.5027 C   0  0  0  0  0  0
  -18.2199  -26.7518   22.1899 C   0  0  0  0  0  0
  -19.1688  -28.8673   23.2721 C   0  0  0  0  0  0
  -18.9500  -30.1433   23.8437 C   0  0  0  0  0  0
  -17.6480  -30.6487   24.0201 C   0  0  0  0  0  0
  -25.9066  -34.9389   23.5077 C   0  0  0  0  0  0
  -16.5410  -29.8792   23.6243 C   0  0  0  0  0  0
  -16.7427  -28.6148   23.0455 C   0  0  0  0  0  0
  -26.4481  -31.6563   25.0796 C   0  0  0  0  0  0
  -25.3664  -31.3775   26.1492 C   0  0  0  0  0  0
  -27.0411  -30.2974   24.6448 C   0  0  0  0  0  0
  -27.6004  -32.4360   25.7570 C   0  0  0  0  0  0
  -27.5592  -37.1791   24.8478 C   0  0  0  0  0  0
  -21.4283  -29.2911   22.3383 N   0  0  0  0  0  0
  -26.4288  -37.3758   23.9423 N   0  0  0  0  0  0
  -24.7192  -31.0397   22.0830 N   0  0  0  0  0  0
  -23.4127  -28.8315   23.3131 O   0  0  0  0  0  0
  -28.2661  -26.1108   20.2741 O   0  0  0  0  0  0
  -26.5619  -34.8882   22.4632 O   0  0  0  0  0  0
  -23.5583  -32.1360   23.7054 O   0  0  0  0  0  0
  -29.2415  -18.9643   20.1115 C   0  0  0  0  0  0
  -27.3581  -17.9470   21.7009 C   0  0  0  0  0  0
  -28.1788  -19.9828   20.4651 C   0  0  0  0  0  0
  -27.1238  -19.1755   21.0601 C   0  0  0  0  0  0
  -29.2720  -17.5004   20.5233 C   0  0  0  0  0  0
  -26.4291  -22.1268   20.3264 C   0  0  0  0  0  0
  -26.8929  -21.7502   18.9309 C   0  0  0  0  0  0
  -27.8671  -21.6548   20.0730 C   0  0  0  0  0  0
  -25.6094  -19.3298   20.8493 C   0  0  0  0  0  0
  -28.6874  -23.0902   20.4301 C   0  0  0  0  0  0
  -28.1781  -24.6192   19.7815 C   0  0  0  0  0  0
  -28.3817  -17.1303   21.4472 N   0  0  0  0  0  0
  -30.1285  -16.3467   19.9925 N   0  0  0  0  0  0
  -31.4483  -12.8103   19.1330 H   0  0  0  0  0  0
  -30.4334  -11.7567   20.0535 H   0  0  0  0  0  0
  -29.8244  -11.6869   17.6104 H   0  0  0  0  0  0
  -29.5530  -13.4162   17.6089 H   0  0  0  0  0  0
  -27.9636  -11.2763   19.0294 H   0  0  0  0  0  0
  -27.3627  -12.3947   17.8271 H   0  0  0  0  0  0
  -27.5404  -14.2484   19.3408 H   0  0  0  0  0  0
  -28.8039  -12.4446   21.4529 H   0  0  0  0  0  0
  -28.3697  -14.1285   21.6755 H   0  0  0  0  0  0
  -25.2742   -9.5701   22.4763 H   0  0  0  0  0  0
  -23.9999   -7.4625   22.7449 H   0  0  0  0  0  0
  -21.0854   -8.8748   19.8917 H   0  0  0  0  0  0
  -22.3670  -10.9675   19.6151 H   0  0  0  0  0  0
  -21.1999   -7.6123   23.9702 H   0  0  0  0  0  0
  -21.1525   -6.0510   25.9084 H   0  0  0  0  0  0
  -22.0576   -2.7576   23.2869 H   0  0  0  0  0  0
  -22.4016  -11.9822   22.4840 H   0  0  0  0  0  0
  -21.0970  -13.1118   22.2709 H   0  0  0  0  0  0
  -24.6752  -15.8655   20.6181 H   0  0  0  0  0  0
  -26.2967  -15.6256   20.1914 H   0  0  0  0  0  0
  -26.7312  -32.5237   23.1073 H   0  0  0  0  0  0
  -25.0204  -33.9616   25.0445 H   0  0  0  0  0  0
  -22.7485  -31.2902   21.3670 H   0  0  0  0  0  0
  -23.3784  -35.9562   23.3243 H   0  0  0  0  0  0
  -24.3588  -36.8907   22.2090 H   0  0  0  0  0  0
  -23.7232  -37.6436   23.6693 H   0  0  0  0  0  0
  -26.1975  -31.4723   20.6218 H   0  0  0  0  0  0
  -26.8644  -30.7524   22.0460 H   0  0  0  0  0  0
  -28.1072  -28.7713   21.2869 H   0  0  0  0  0  0
  -25.8891  -25.9119   18.8892 H   0  0  0  0  0  0
  -23.9907  -27.3320   18.9483 H   0  0  0  0  0  0
  -23.7939  -30.5537   19.3688 H   0  0  0  0  0  0
  -22.8003  -29.2044   19.8441 H   0  0  0  0  0  0
  -25.1294  -36.1865   25.0859 H   0  0  0  0  0  0
  -21.0183  -28.3193   24.1152 H   0  0  0  0  0  0
  -20.5550  -26.2231   23.3415 H   0  0  0  0  0  0
  -21.6872  -26.7007   22.1012 H   0  0  0  0  0  0
  -19.6888  -25.6140   21.0770 H   0  0  0  0  0  0
  -19.6499  -27.3116   20.6635 H   0  0  0  0  0  0
  -17.4230  -26.5397   21.4798 H   0  0  0  0  0  0
  -18.1398  -25.9739   22.9522 H   0  0  0  0  0  0
  -19.7936  -30.7506   24.1324 H   0  0  0  0  0  0
  -17.4925  -31.6340   24.4353 H   0  0  0  0  0  0
  -15.5368  -30.2583   23.7573 H   0  0  0  0  0  0
  -15.8882  -28.0333   22.7295 H   0  0  0  0  0  0
  -24.5825  -30.7129   25.7822 H   0  0  0  0  0  0
  -24.8849  -32.2959   26.4883 H   0  0  0  0  0  0
  -25.7942  -30.8982   27.0315 H   0  0  0  0  0  0
  -26.3081  -29.6614   24.1455 H   0  0  0  0  0  0
  -27.4039  -29.7363   25.5075 H   0  0  0  0  0  0
  -27.8976  -30.4220   23.9818 H   0  0  0  0  0  0
  -27.2575  -33.3673   26.2107 H   0  0  0  0  0  0
  -28.3811  -32.6895   25.0390 H   0  0  0  0  0  0
  -28.0679  -31.8525   26.5507 H   0  0  0  0  0  0
  -28.2579  -38.0112   24.7519 H   0  0  0  0  0  0
  -28.1111  -36.2641   24.6271 H   0  0  0  0  0  0
  -27.2317  -37.1415   25.8884 H   0  0  0  0  0  0
  -20.9711  -29.8132   21.6066 H   0  0  0  0  0  0
  -26.0140  -38.2837   24.1408 H   0  0  0  0  0  0
  -30.0124  -19.3025   19.4301 H   0  0  0  0  0  0
  -26.5553  -17.4621   22.2422 H   0  0  0  0  0  0
  -26.0331  -21.5789   21.1607 H   0  0  0  0  0  0
  -26.1426  -23.1573   20.4611 H   0  0  0  0  0  0
  -27.0420  -22.5661   18.2270 H   0  0  0  0  0  0
  -26.5953  -20.8205   18.4626 H   0  0  0  0  0  0
  -25.0972  -19.7349   21.7262 H   0  0  0  0  0  0
  -25.1617  -18.3486   20.6611 H   0  0  0  0  0  0
  -25.3351  -19.8844   19.9606 H   0  0  0  0  0  0
  -29.7418  -22.9462   20.1839 H   0  0  0  0  0  0
  -28.6487  -23.1965   21.5149 H   0  0  0  0  0  0
  -27.1759  -24.5022   19.4027 H   0  0  0  0  0  0
  -28.7335  -24.6867   18.8434 H   0  0  0  0  0  0
  -30.8676  -16.7338   19.4265 H   0  0  0  0  0  0
  1 25  1  0  0  0
  1 30  2  0  0  0
  1 83  1  0  0  0
  2  3  1  0  0  0
  2 25  1  0  0  0
  2 84  1  0  0  0
  2 85  1  0  0  0
  3  4  1  0  0  0
  3 86  1  0  0  0
  3 87  1  0  0  0
  4  5  1  0  0  0
  4 88  1  0  0  0
  4 89  1  0  0  0
  5  6  1  0  0  0
  5 26  1  0  0  0
  5 90  1  0  0  0
  6 25  1  0  0  0
  6 91  1  0  0  0
  6 92  1  0  0  0
  7  8  2  0  0  0
  7 26  1  0  0  0
  7 29  1  0  0  0
  8  9  1  0  0  0
  8 22  1  0  0  0
  9 10  1  0  0  0
  9 27  2  0  0  0
 10 11  2  0  0  0
 10 15  1  0  0  0
 11 12  1  0  0  0
 11 93  1  0  0  0
 12 13  2  0  0  0
 12 94  1  0  0  0
 13 14  1  0  0  0
 13 31  1  0  0  0
 14 15  2  0  0  0
 14 95  1  0  0  0
 15 96  1  0  0  0
 16 17  2  0  0  0
 16 21  1  0  0  0
 16 31  1  0  0  0
 17 18  1  0  0  0
 17 97  1  0  0  0
 18 19  2  0  0  0
 18 98  1  0  0  0
 19 20  1  0  0  0
 19 24  1  0  0  0
 20 21  2  0  0  0
 20 99  1  0  0  0
 21 23  1  0  0  0
 22 28  1  0  0  0
 22 32  2  0  0  0
 26 27  1  0  0  0
 28100  1  0  0  0
 28101  1  0  0  0
 29102  1  0  0  0
 29103  1  0  0  0
 33 34  1  0  0  0
 33 66  1  0  0  0
 33 70  2  0  0  0
 34 36  1  0  0  0
 34 59  1  0  0  0
 34104  1  0  0  0
 35 44  2  0  0  0
 35 45  1  0  0  0
 35 68  1  0  0  0
 36 56  1  0  0  0
 36105  1  0  0  0
 37 39  1  0  0  0
 37 47  1  0  0  0
 37 66  1  0  0  0
 37106  1  0  0  0
 38 43  2  0  0  0
 38 46  1  0  0  0
 38 47  1  0  0  0
 39 64  1  0  0  0
 39 67  2  0  0  0
 40 52  1  0  0  0
 40 53  2  0  0  0
 40 58  1  0  0  0
 41107  1  0  0  0
 41108  1  0  0  0
 41109  1  0  0  0
 41 48  1  0  0  0
 42 43  1  0  0  0
 42 66  1  0  0  0
 42110  1  0  0  0
 42111  1  0  0  0
 43 44  1  0  0  0
 44112  1  0  0  0
 45 46  2  0  0  0
 45113  1  0  0  0
 46114  1  0  0  0
 47115  1  0  0  0
 47116  1  0  0  0
 48 56  1  0  0  0
 48 65  1  0  0  0
 48117  1  0  0  0
 49 50  1  0  0  0
 49 53  1  0  0  0
 49 64  1  0  0  0
 49118  1  0  0  0
 50 51  1  0  0  0
 50119  1  0  0  0
 50120  1  0  0  0
 51 52  1  0  0  0
 51121  1  0  0  0
 51122  1  0  0  0
 52123  1  0  0  0
 52124  1  0  0  0
 53 54  1  0  0  0
 54 55  2  0  0  0
 54125  1  0  0  0
 55 57  1  0  0  0
 55126  1  0  0  0
 56 69  2  0  0  0
 57 58  2  0  0  0
 57127  1  0  0  0
 58128  1  0  0  0
 59 60  1  0  0  0
 59 61  1  0  0  0
 59 62  1  0  0  0
 60129  1  0  0  0
 60130  1  0  0  0
 60131  1  0  0  0
 61132  1  0  0  0
 61133  1  0  0  0
 61134  1  0  0  0
 62135  1  0  0  0
 62136  1  0  0  0
 62137  1  0  0  0
 63 65  1  0  0  0
 63138  1  0  0  0
 63139  1  0  0  0
 63140  1  0  0  0
 64141  1  0  0  0
 65142  1  0  0  0
 68 81  1  0  0  0
 71 73  2  0  0  0
 71 75  1  0  0  0
 71143  1  0  0  0
 72 74  2  0  0  0
 72 82  1  0  0  0
 72144  1  0  0  0
 73 74  1  0  0  0
 73 78  1  0  0  0
 74 79  1  0  0  0
 75 82  2  0  0  0
 75 83  1  0  0  0
 76 77  1  0  0  0
 76 78  1  0  0  0
 76145  1  0  0  0
 76146  1  0  0  0
 77 78  1  0  0  0
 77147  1  0  0  0
 77148  1  0  0  0
 78 80  1  0  0  0
 79149  1  0  0  0
 79150  1  0  0  0
 79151  1  0  0  0
 80 81  1  0  0  0
 80152  1  0  0  0
 80153  1  0  0  0
 81154  1  0  0  0
 81155  1  0  0  0
 83156  1  0  0  0
M  ISO  4   1 100  68 101  81 101  83 100
M  END
> <chiral flag>
0

> <version>
0

> <s_m_source_file>
/data/baiqing/PycharmProjects/Reinvent-master-3.2/result/LINK_invent/BTK/process_docking_weight1_custom_sum_contain_oxygen_bond_distance_aromatic_linkinvent_7_9_3/rearranged_h_0154.sdf

> <i_m_source_file_index>
8

> <r_mmod_Potential_Energy-OPLS-2005>
891.518615722656

> <r_mmod_Stretch_Energy-OPLS-2005>
383.532836914062

> <r_mmod_Bend_Energy-OPLS-2005>
468.629241943359

> <r_mmod_Torsional_Energy-OPLS-2005>
353.079345703125

> <r_mmod_Improper_Torsional_Energy-OPLS-2005>
26.562629699707

> <r_mmod_Van_der_Waal_Energy-OPLS-2005>
174.925598144531

> <r_mmod_Electrostatic_Energy-OPLS-2005>
-564.179748535156

> <r_mmod_Solvation_Energy-OPLS-2005>
-202.380004882812

> <b_mmod_Minimization_Converged-OPLS-2005>
0

> <r_mmod_RMS_Derivative-OPLS-2005>
11.0230875015259

$$$$
8
                    3D
 Structure written by MMmdl.
167176  0  0  1  0            999 V2000
  -28.5039  -16.7714   20.6254 C   0  0  0  0  0  0
  -29.8737  -14.1987   19.6942 C   0  0  0  0  0  0
  -29.4501  -13.1215   18.5720 C   0  0  0  0  0  0
  -28.1952  -12.3458   18.9653 C   0  0  0  0  0  0
  -27.4025  -13.3185   19.8339 C   0  0  2  0  0  0
  -28.1318  -13.9614   21.0261 C   0  0  0  0  0  0
  -25.1254  -13.8054   20.5617 C   0  0  0  0  0  0
  -24.0930  -13.0177   20.9386 C   0  0  0  0  0  0
  -24.5774  -11.6722   20.8859 C   0  0  0  0  0  0
  -23.8706  -10.4119   21.0514 C   0  0  0  0  0  0
  -24.3419   -9.4100   21.9251 C   0  0  0  0  0  0
  -23.6179   -8.2104   22.0765 C   0  0  0  0  0  0
  -22.4172   -8.0130   21.3540 C   0  0  0  0  0  0
  -21.9732   -9.0056   20.4649 C   0  0  0  0  0  0
  -22.6962  -10.1957   20.3093 C   0  0  0  0  0  0
  -21.6803   -6.0656   22.5294 C   0  0  0  0  0  0
  -21.3976   -6.5596   23.8216 C   0  0  0  0  0  0
  -21.3645   -5.6768   24.9191 C   0  0  0  0  0  0
  -21.6042   -4.3030   24.7254 C   0  0  0  0  0  0
  -21.8828   -3.8101   23.4384 C   0  0  0  0  0  0
  -21.9178   -4.6899   22.3429 C   0  0  0  0  0  0
  -22.7086  -13.4993   21.2100 C   0  0  0  0  0  0
  -22.1659   -4.2093   21.1005 F   0  0  0  0  0  0
  -21.5635   -3.4524   25.7773 F   0  0  0  0  0  0
  -28.7320  -15.1698   20.4159 N   0  0  0  0  0  0
  -26.1387  -12.9216   20.2861 N   0  0  0  0  0  0
  -25.8579  -11.6348   20.5552 N   0  0  0  0  0  0
  -21.9815  -12.8030   22.0717 N   0  0  0  0  0  0
  -25.2833  -15.1834   20.3976 N   0  0  0  0  0  0
  -29.8007  -16.8344   20.4159 O   0  0  0  0  0  0
  -21.6560   -6.8741   21.4234 O   0  0  0  0  0  0
  -22.2878  -14.5346   20.6942 O   0  0  0  0  0  0
  -24.6503  -31.9479   23.2258 C   0  0  0  0  0  0
  -25.9426  -32.5182   23.8634 C   0  0  1  0  0  0
  -26.7848  -27.3431   20.0908 C   0  0  0  0  0  0
  -25.6288  -33.8910   24.2595 N   0  0  0  0  0  0
  -23.4883  -30.4766   21.6647 C   0  0  2  0  0  0
  -24.8987  -29.2582   19.9031 C   0  0  0  0  0  0
  -23.2716  -29.3320   22.6955 C   0  0  0  0  0  0
  -18.8175  -26.9364   21.5853 C   0  0  0  0  0  0
  -24.1506  -36.7394   23.2589 C   0  0  0  0  0  0
  -25.9972  -30.8452   21.4504 C   0  0  0  0  0  0
  -25.9945  -29.5269   20.7133 C   0  0  0  0  0  0
  -26.9994  -28.5468   20.8137 C   0  0  0  0  0  0
  -26.1054  -27.4036   18.8998 C   0  0  0  0  0  0
  -25.0250  -28.2937   18.8885 C   0  0  0  0  0  0
  -23.6346  -30.0222   20.1761 C   0  0  0  0  0  0
  -25.4120  -36.3261   24.0333 C   0  0  1  0  0  0
  -21.7826  -27.5675   23.6631 C   0  0  2  0  0  0
  -21.7681  -25.4877   23.9644 C   0  0  0  0  0  0
  -20.1685  -24.2453   22.9731 C   0  0  0  0  0  0
  -18.8134  -25.1671   21.7675 C   0  0  0  0  0  0
  -20.5958  -28.2953   22.7805 C   0  0  0  0  0  0
  -19.8769  -29.7621   23.5678 C   0  0  0  0  0  0
  -18.2127  -30.1511   23.4971 C   0  0  0  0  0  0
  -25.9116  -34.9664   23.5173 C   0  0  0  0  0  0
  -16.9923  -29.2633   22.7303 C   0  0  0  0  0  0
  -17.1770  -27.7726   21.8389 C   0  0  0  0  0  0
  -26.4627  -31.6780   25.0943 C   0  0  0  0  0  0
  -25.3740  -31.3793   26.1511 C   0  0  0  0  0  0
  -27.0735  -30.3284   24.6468 C   0  0  0  0  0  0
  -27.6081  -32.4497   25.7880 C   0  0  0  0  0  0
  -27.5598  -37.1899   24.8459 C   0  0  0  0  0  0
  -22.2646  -28.5370   22.6502 N   0  0  0  0  0  0
  -26.4303  -37.3932   23.9423 N   0  0  0  0  0  0
  -24.7152  -31.1767   22.1106 N   0  0  0  0  0  0
  -24.0474  -29.0506   23.5815 O   0  0  0  0  0  0
  -25.9946  -26.3612   20.6323 O   0  0  0  0  0  0
  -26.5498  -34.9044   22.4627 O   0  0  0  0  0  0
  -23.5653  -32.2088   23.7663 O   0  0  0  0  0  0
  -19.7115  -26.3986   23.5639 C   0  0  0  0  0  0
  -19.0603  -29.1026   21.4641 C   0  0  0  0  0  0
  -21.3234  -27.0587   20.6967 C   0  0  0  0  0  0
  -18.6663  -27.7478   23.6120 C   0  0  0  0  0  0
  -21.1699  -25.9398   21.8225 C   0  0  0  0  0  0
  -20.3189  -28.4357   20.4108 C   0  0  0  0  0  0
  -22.8873  -26.6964   20.1417 C   0  0  0  0  0  0
  -25.0799  -21.3122   20.3379 C   0  0  0  0  0  0
  -24.8338  -20.8763   22.0842 C   0  0  0  0  0  0
  -26.6526  -19.9139   20.3627 C   0  0  0  0  0  0
  -25.7688  -19.0325   21.6647 C   0  0  0  0  0  0
  -23.7115  -22.4114   21.3691 C   0  0  0  0  0  0
  -17.7874  -27.7897   24.9066 C   0  0  0  0  0  0
  -20.1359  -30.4369   19.1235 C   0  0  0  0  0  0
  -24.4016  -26.5836   21.0553 C   0  0  0  0  0  0
  -27.1776  -18.1930   20.7917 N   0  0  0  0  0  0
  -22.9541  -26.3485   18.9584 O   0  0  0  0  0  0
  -22.5067  -24.4209   21.4904 O   0  0  0  0  0  0
  -20.6173  -29.1068   19.2479 O   0  0  0  0  0  0
  -30.5784  -14.8626   19.1922 H   0  0  0  0  0  0
  -30.5073  -13.7222   20.4462 H   0  0  0  0  0  0
  -30.2741  -12.4460   18.3401 H   0  0  0  0  0  0
  -29.2383  -13.6625   17.6494 H   0  0  0  0  0  0
  -28.4637  -11.4623   19.5467 H   0  0  0  0  0  0
  -27.6317  -12.0094   18.0932 H   0  0  0  0  0  0
  -27.1564  -14.0927   19.1003 H   0  0  0  0  0  0
  -28.7853  -13.2703   21.5637 H   0  0  0  0  0  0
  -27.4478  -14.3228   21.7942 H   0  0  0  0  0  0
  -25.2543   -9.5655   22.4839 H   0  0  0  0  0  0
  -23.9912   -7.4497   22.7466 H   0  0  0  0  0  0
  -21.0677   -8.8521   19.8961 H   0  0  0  0  0  0
  -22.3394  -10.9503   19.6227 H   0  0  0  0  0  0
  -21.1957   -7.6105   23.9702 H   0  0  0  0  0  0
  -21.1460   -6.0507   25.9091 H   0  0  0  0  0  0
  -22.0622   -2.7563   23.2900 H   0  0  0  0  0  0
  -22.3438  -11.9668   22.5065 H   0  0  0  0  0  0
  -21.0461  -13.1104   22.2992 H   0  0  0  0  0  0
  -24.4733  -15.7906   20.4566 H   0  0  0  0  0  0
  -26.0219  -15.5691   19.8268 H   0  0  0  0  0  0
  -26.7552  -32.5793   23.1429 H   0  0  0  0  0  0
  -25.0622  -34.0094   25.0863 H   0  0  0  0  0  0
  -22.6235  -31.1407   21.7193 H   0  0  0  0  0  0
  -23.3791  -35.9706   23.3269 H   0  0  0  0  0  0
  -24.3612  -36.8976   22.2000 H   0  0  0  0  0  0
  -23.7231  -37.6602   23.6564 H   0  0  0  0  0  0
  -26.2263  -31.6366   20.7351 H   0  0  0  0  0  0
  -26.8471  -30.7910   22.1181 H   0  0  0  0  0  0
  -27.7794  -28.6236   21.5578 H   0  0  0  0  0  0
  -26.0589  -26.5521   18.2333 H   0  0  0  0  0  0
  -24.2681  -28.2077   18.1223 H   0  0  0  0  0  0
  -23.6270  -30.8981   19.5269 H   0  0  0  0  0  0
  -22.7964  -29.4213   19.8702 H   0  0  0  0  0  0
  -25.1268  -36.2147   25.0821 H   0  0  0  0  0  0
  -21.8377  -28.0440   24.6437 H   0  0  0  0  0  0
  -21.6733  -25.3237   25.0391 H   0  0  0  0  0  0
  -22.7648  -25.0866   23.7778 H   0  0  0  0  0  0
  -19.6059  -23.7474   23.7654 H   0  0  0  0  0  0
  -20.5930  -23.3862   22.4529 H   0  0  0  0  0  0
  -18.9070  -24.7491   20.7638 H   0  0  0  0  0  0
  -17.8139  -24.8742   22.0918 H   0  0  0  0  0  0
  -20.5029  -30.3511   24.2229 H   0  0  0  0  0  0
  -17.9002  -31.0312   24.0412 H   0  0  0  0  0  0
  -15.9849  -29.6398   22.8378 H   0  0  0  0  0  0
  -16.2806  -27.2546   21.5308 H   0  0  0  0  0  0
  -24.5971  -30.7174   25.7677 H   0  0  0  0  0  0
  -24.8874  -32.2924   26.4950 H   0  0  0  0  0  0
  -25.7952  -30.8895   27.0300 H   0  0  0  0  0  0
  -26.3671  -29.6985   24.1133 H   0  0  0  0  0  0
  -27.4144  -29.7481   25.5052 H   0  0  0  0  0  0
  -27.9459  -30.4721   24.0089 H   0  0  0  0  0  0
  -27.2593  -33.3719   26.2544 H   0  0  0  0  0  0
  -28.3933  -32.7202   25.0804 H   0  0  0  0  0  0
  -28.0725  -31.8572   26.5776 H   0  0  0  0  0  0
  -28.2604  -38.0210   24.7565 H   0  0  0  0  0  0
  -28.1118  -36.2757   24.6226 H   0  0  0  0  0  0
  -27.2322  -37.1479   25.8858 H   0  0  0  0  0  0
  -21.5594  -28.7445   21.9553 H   0  0  0  0  0  0
  -26.0202  -38.3009   24.1447 H   0  0  0  0  0  0
  -19.5396  -25.8229   24.4721 H   0  0  0  0  0  0
  -18.5664  -30.0093   21.1330 H   0  0  0  0  0  0
  -24.4379  -20.8800   19.5669 H   0  0  0  0  0  0
  -25.5733  -22.1181   19.7931 H   0  0  0  0  0  0
  -25.6114  -21.4007   22.6495 H   0  0  0  0  0  0
  -24.1691  -20.5527   22.8864 H   0  0  0  0  0  0
  -27.4844  -20.4973   20.7710 H   0  0  0  0  0  0
  -26.8996  -19.8878   19.3003 H   0  0  0  0  0  0
  -24.9277  -18.4037   21.3623 H   0  0  0  0  0  0
  -25.9708  -18.6778   22.6766 H   0  0  0  0  0  0
  -22.7901  -21.8636   21.1725 H   0  0  0  0  0  0
  -18.0340  -26.9489   25.5533 H   0  0  0  0  0  0
  -16.7216  -27.6927   24.7006 H   0  0  0  0  0  0
  -17.9561  -28.6777   25.5149 H   0  0  0  0  0  0
  -20.5673  -30.8959   18.2345 H   0  0  0  0  0  0
  -20.4311  -31.0475   19.9782 H   0  0  0  0  0  0
  -19.0521  -30.4700   19.0116 H   0  0  0  0  0  0
  -24.4525  -27.4629   21.6709 H   0  0  0  0  0  0
  -24.2426  -25.8086   21.7983 H   0  0  0  0  0  0
  1 25  1  0  0  0
  1 30  2  0  0  0
  1 86  1  0  0  0
  2  3  1  0  0  0
  2 25  1  0  0  0
  2 90  1  0  0  0
  2 91  1  0  0  0
  3  4  1  0  0  0
  3 92  1  0  0  0
  3 93  1  0  0  0
  4  5  1  0  0  0
  4 94  1  0  0  0
  4 95  1  0  0  0
  5  6  1  0  0  0
  5 26  1  0  0  0
  5 96  1  0  0  0
  6 25  1  0  0  0
  6 97  1  0  0  0
  6 98  1  0  0  0
  7  8  2  0  0  0
  7 26  1  0  0  0
  7 29  1  0  0  0
  8  9  1  0  0  0
  8 22  1  0  0  0
  9 10  1  0  0  0
  9 27  2  0  0  0
 10 11  2  0  0  0
 10 15  1  0  0  0
 11 12  1  0  0  0
 11 99  1  0  0  0
 12 13  2  0  0  0
 12100  1  0  0  0
 13 14  1  0  0  0
 13 31  1  0  0  0
 14 15  2  0  0  0
 14101  1  0  0  0
 15102  1  0  0  0
 16 17  2  0  0  0
 16 21  1  0  0  0
 16 31  1  0  0  0
 17 18  1  0  0  0
 17103  1  0  0  0
 18 19  2  0  0  0
 18104  1  0  0  0
 19 20  1  0  0  0
 19 24  1  0  0  0
 20 21  2  0  0  0
 20105  1  0  0  0
 21 23  1  0  0  0
 22 28  1  0  0  0
 22 32  2  0  0  0
 26 27  1  0  0  0
 28106  1  0  0  0
 28107  1  0  0  0
 29108  1  0  0  0
 29109  1  0  0  0
 33 34  1  0  0  0
 33 66  1  0  0  0
 33 70  2  0  0  0
 34 36  1  0  0  0
 34 59  1  0  0  0
 34110  1  0  0  0
 35 44  2  0  0  0
 35 45  1  0  0  0
 35 68  1  0  0  0
 36 56  1  0  0  0
 36111  1  0  0  0
 37 39  1  0  0  0
 37 47  1  0  0  0
 37 66  1  0  0  0
 37112  1  0  0  0
 38 43  2  0  0  0
 38 46  1  0  0  0
 38 47  1  0  0  0
 39 64  1  0  0  0
 39 67  2  0  0  0
 40 52  1  0  0  0
 40 53  2  0  0  0
 40 58  1  0  0  0
 41113  1  0  0  0
 41114  1  0  0  0
 41115  1  0  0  0
 41 48  1  0  0  0
 42 43  1  0  0  0
 42 66  1  0  0  0
 42116  1  0  0  0
 42117  1  0  0  0
 43 44  1  0  0  0
 44118  1  0  0  0
 45 46  2  0  0  0
 45119  1  0  0  0
 46120  1  0  0  0
 47121  1  0  0  0
 47122  1  0  0  0
 48 56  1  0  0  0
 48 65  1  0  0  0
 48123  1  0  0  0
 49 50  1  0  0  0
 49 53  1  0  0  0
 49 64  1  0  0  0
 49124  1  0  0  0
 50 51  1  0  0  0
 50125  1  0  0  0
 50126  1  0  0  0
 51 52  1  0  0  0
 51127  1  0  0  0
 51128  1  0  0  0
 52129  1  0  0  0
 52130  1  0  0  0
 53 54  1  0  0  0
 54 55  2  0  0  0
 54131  1  0  0  0
 55 57  1  0  0  0
 55132  1  0  0  0
 56 69  2  0  0  0
 57 58  2  0  0  0
 57133  1  0  0  0
 58134  1  0  0  0
 59 60  1  0  0  0
 59 61  1  0  0  0
 59 62  1  0  0  0
 60135  1  0  0  0
 60136  1  0  0  0
 60137  1  0  0  0
 61138  1  0  0  0
 61139  1  0  0  0
 61140  1  0  0  0
 62141  1  0  0  0
 62142  1  0  0  0
 62143  1  0  0  0
 63 65  1  0  0  0
 63144  1  0  0  0
 63145  1  0  0  0
 63146  1  0  0  0
 64147  1  0  0  0
 65148  1  0  0  0
 68 85  1  0  0  0
 71 74  2  0  0  0
 71 75  1  0  0  0
 71149  1  0  0  0
 72 74  1  0  0  0
 72 76  2  0  0  0
 72150  1  0  0  0
 73 75  2  0  0  0
 73 76  1  0  0  0
 73 77  1  0  0  0
 74 83  1  0  0  0
 75 88  1  0  0  0
 76 89  1  0  0  0
 77 85  1  0  0  0
 77 87  2  0  0  0
 78 80  1  0  0  0
 78 82  1  0  0  0
 78151  1  0  0  0
 78152  1  0  0  0
 79 81  1  0  0  0
 79 82  1  0  0  0
 79153  1  0  0  0
 79154  1  0  0  0
 80 86  1  0  0  0
 80155  1  0  0  0
 80156  1  0  0  0
 81 86  1  0  0  0
 81157  1  0  0  0
 81158  1  0  0  0
 82 88  1  0  0  0
 82159  1  0  0  0
 83160  1  0  0  0
 83161  1  0  0  0
 83162  1  0  0  0
 84 89  1  0  0  0
 84163  1  0  0  0
 84164  1  0  0  0
 84165  1  0  0  0
 85166  1  0  0  0
 85167  1  0  0  0
M  ISO  4   1 100  68 101  85 101  86 100
M  END
> <chiral flag>
0

> <version>
0

> <s_m_source_file>
/data/baiqing/PycharmProjects/Reinvent-master-3.2/result/LINK_invent/BTK/process_docking_weight1_custom_sum_contain_oxygen_bond_distance_aromatic_linkinvent_7_9_3/rearranged_h_0154.sdf

> <i_m_source_file_index>
9

> <r_mmod_Potential_Energy-OPLS-2005>
31062.44921875

> <r_mmod_Stretch_Energy-OPLS-2005>
15489.90625

> <r_mmod_Bend_Energy-OPLS-2005>
2818.37255859375

> <r_mmod_Torsional_Energy-OPLS-2005>
716.845153808594

> <r_mmod_Improper_Torsional_Energy-OPLS-2005>
68.0563278198242

> <r_mmod_Van_der_Waal_Energy-OPLS-2005>
5074.58544921875

> <r_mmod_Electrostatic_Energy-OPLS-2005>
-265.822479248047

> <r_mmod_Solvation_Energy-OPLS-2005>
-215.462265014648

> <b_mmod_Minimization_Converged-OPLS-2005>
0

> <r_mmod_RMS_Derivative-OPLS-2005>
2.81925272941589

$$$$
9
                    3D
 Structure written by MMmdl.
153162  0  0  1  0            999 V2000
  -30.5032  -14.9915   20.4042 C   0  0  0  0  0  0
  -30.4442  -12.6143   19.5027 C   0  0  0  0  0  0
  -29.5240  -12.5433   18.2599 C   0  0  0  0  0  0
  -28.0578  -12.3202   18.6766 C   0  0  0  0  0  0
  -27.6303  -13.2490   19.8424 C   0  0  2  0  0  0
  -28.6717  -13.2766   20.9822 C   0  0  0  0  0  0
  -25.2469  -13.8214   20.5716 C   0  0  0  0  0  0
  -24.1781  -13.0434   20.9223 C   0  0  0  0  0  0
  -24.6392  -11.6920   20.8744 C   0  0  0  0  0  0
  -23.9072  -10.4291   21.0401 C   0  0  0  0  0  0
  -24.3622   -9.4206   21.9179 C   0  0  0  0  0  0
  -23.6294   -8.2244   22.0750 C   0  0  0  0  0  0
  -22.4279   -8.0281   21.3541 C   0  0  0  0  0  0
  -21.9912   -9.0254   20.4645 C   0  0  0  0  0  0
  -22.7241  -10.2132   20.3053 C   0  0  0  0  0  0
  -21.6857   -6.0732   22.5274 C   0  0  0  0  0  0
  -21.4016   -6.5636   23.8205 C   0  0  0  0  0  0
  -21.3662   -5.6789   24.9168 C   0  0  0  0  0  0
  -21.6045   -4.3053   24.7221 C   0  0  0  0  0  0
  -21.8821   -3.8142   23.4344 C   0  0  0  0  0  0
  -21.9195   -4.6959   22.3398 C   0  0  0  0  0  0
  -22.7805  -13.5212   21.1877 C   0  0  0  0  0  0
  -22.1665   -4.2143   21.0976 F   0  0  0  0  0  0
  -21.5628   -3.4538   25.7735 F   0  0  0  0  0  0
  -29.9463  -13.7077   20.3902 N   0  0  0  0  0  0
  -26.2888  -12.9440   20.3253 N   0  0  0  0  0  0
  -25.9326  -11.6568   20.5730 N   0  0  0  0  0  0
  -22.0457  -12.8200   22.0435 N   0  0  0  0  0  0
  -25.4141  -15.1940   20.4145 N   0  0  0  0  0  0
  -31.6980  -15.0715   20.0867 O   0  0  0  0  0  0
  -21.6644   -6.8877   21.4238 O   0  0  0  0  0  0
  -22.3491  -14.5519   20.6720 O   0  0  0  0  0  0
  -24.6464  -31.8393   23.1864 C   0  0  0  0  0  0
  -25.9225  -32.4670   23.8244 C   0  0  1  0  0  0
  -27.2091  -27.0946   20.1451 C   0  0  0  0  0  0
  -25.5963  -33.8482   24.2153 N   0  0  0  0  0  0
  -23.4500  -30.4611   21.5328 C   0  0  2  0  0  0
  -24.8977  -28.8836   20.1065 C   0  0  0  0  0  0
  -22.7573  -29.4520   22.4836 C   0  0  0  0  0  0
  -18.0304  -28.1392   22.8465 C   0  0  0  0  0  0
  -24.1491  -36.7241   23.2644 C   0  0  0  0  0  0
  -26.0094  -30.6962   21.3946 C   0  0  0  0  0  0
  -26.0750  -29.3054   20.7345 C   0  0  0  0  0  0
  -27.2262  -28.4253   20.7431 C   0  0  0  0  0  0
  -26.0103  -26.7961   19.4571 C   0  0  0  0  0  0
  -24.8814  -27.6437   19.4526 C   0  0  0  0  0  0
  -23.6774  -29.7921   20.1513 C   0  0  0  0  0  0
  -25.4124  -36.3015   24.0315 C   0  0  1  0  0  0
  -20.5919  -28.3708   23.1223 C   0  0  2  0  0  0
  -20.6787  -26.9406   22.5401 C   0  0  0  0  0  0
  -19.5765  -26.6365   21.5208 C   0  0  0  0  0  0
  -18.1942  -26.7927   22.1615 C   0  0  0  0  0  0
  -19.1563  -28.8864   23.2840 C   0  0  0  0  0  0
  -18.9488  -30.1461   23.8867 C   0  0  0  0  0  0
  -17.6487  -30.6587   24.0548 C   0  0  0  0  0  0
  -25.9078  -34.9395   23.5042 C   0  0  0  0  0  0
  -16.5373  -29.9076   23.6349 C   0  0  0  0  0  0
  -16.7289  -28.6500   23.0358 C   0  0  0  0  0  0
  -26.4526  -31.6569   25.0716 C   0  0  0  0  0  0
  -25.3691  -31.3796   26.1402 C   0  0  0  0  0  0
  -27.0390  -30.2953   24.6343 C   0  0  0  0  0  0
  -27.6037  -32.4351   25.7507 C   0  0  0  0  0  0
  -27.5570  -37.1773   24.8464 C   0  0  0  0  0  0
  -21.4261  -29.3035   22.3592 N   0  0  0  0  0  0
  -26.4274  -37.3737   23.9413 N   0  0  0  0  0  0
  -24.7221  -31.0213   22.0922 N   0  0  0  0  0  0
  -23.4211  -28.8069   23.2995 O   0  0  0  0  0  0
  -28.2491  -26.0850   20.2558 O   0  0  0  0  0  0
  -26.5666  -34.8903   22.4623 O   0  0  0  0  0  0
  -23.5577  -32.1281   23.7073 O   0  0  0  0  0  0
  -28.8384  -18.5825   21.1430 C   0  0  0  0  0  0
  -30.3477  -19.6895   19.2177 C   0  0  0  0  0  0
  -29.5067  -20.6421   19.8944 C   0  0  0  0  0  0
  -28.7420  -20.0281   20.9093 C   0  0  0  0  0  0
  -29.7065  -17.6674   20.4115 C   0  0  0  0  0  0
  -28.6908  -23.1052   20.4881 C   0  0  2  0  0  0
  -27.5782  -22.2241   21.1881 C   0  0  2  0  0  0
  -26.9732  -22.9526   22.3946 C   0  0  0  0  0  0
  -28.1317  -24.5791   19.8009 C   0  0  0  0  0  0
  -30.4480  -18.3212   19.4588 N   0  0  0  0  0  0
  -29.4140  -22.0825   19.6089 N   0  0  0  0  0  0
  -29.6852  -16.1389   20.6572 N   0  0  0  0  0  0
  -27.9424  -20.8778   21.6787 O   0  0  0  0  0  0
  -31.4748  -12.7855   19.1877 H   0  0  0  0  0  0
  -30.4522  -11.6616   20.0335 H   0  0  0  0  0  0
  -29.8493  -11.7446   17.5921 H   0  0  0  0  0  0
  -29.6040  -13.4706   17.6897 H   0  0  0  0  0  0
  -27.9575  -11.2774   18.9802 H   0  0  0  0  0  0
  -27.3942  -12.4518   17.8207 H   0  0  0  0  0  0
  -27.5924  -14.2513   19.4155 H   0  0  0  0  0  0
  -28.7670  -12.2962   21.4510 H   0  0  0  0  0  0
  -28.3601  -13.9632   21.7712 H   0  0  0  0  0  0
  -25.2767   -9.5686   22.4752 H   0  0  0  0  0  0
  -24.0005   -7.4639   22.7469 H   0  0  0  0  0  0
  -21.0844   -8.8775   19.8950 H   0  0  0  0  0  0
  -22.3699  -10.9673   19.6166 H   0  0  0  0  0  0
  -21.2008   -7.6143   23.9707 H   0  0  0  0  0  0
  -21.1482   -6.0518   25.9069 H   0  0  0  0  0  0
  -22.0599   -2.7604   23.2843 H   0  0  0  0  0  0
  -22.4090  -11.9870   22.4827 H   0  0  0  0  0  0
  -21.1068  -13.1211   22.2639 H   0  0  0  0  0  0
  -24.6379  -15.8394   20.5134 H   0  0  0  0  0  0
  -26.2466  -15.6335   20.0445 H   0  0  0  0  0  0
  -26.7278  -32.5241   23.0949 H   0  0  0  0  0  0
  -25.0094  -33.9592   25.0291 H   0  0  0  0  0  0
  -22.7539  -31.2888   21.3798 H   0  0  0  0  0  0
  -23.3765  -35.9561   23.3288 H   0  0  0  0  0  0
  -24.3570  -36.8890   22.2061 H   0  0  0  0  0  0
  -23.7239  -37.6429   23.6690 H   0  0  0  0  0  0
  -26.1766  -31.4475   20.6215 H   0  0  0  0  0  0
  -26.8765  -30.7399   22.0417 H   0  0  0  0  0  0
  -28.1160  -28.7401   21.2705 H   0  0  0  0  0  0
  -25.8912  -25.8679   18.9231 H   0  0  0  0  0  0
  -23.9876  -27.3198   18.9377 H   0  0  0  0  0  0
  -23.8177  -30.5680   19.3977 H   0  0  0  0  0  0
  -22.7888  -29.2412   19.8389 H   0  0  0  0  0  0
  -25.1317  -36.1828   25.0806 H   0  0  0  0  0  0
  -21.0011  -28.3298   24.1346 H   0  0  0  0  0  0
  -20.5663  -26.2321   23.3620 H   0  0  0  0  0  0
  -21.6653  -26.7389   22.1206 H   0  0  0  0  0  0
  -19.6927  -25.6270   21.1248 H   0  0  0  0  0  0
  -19.6720  -27.3165   20.6730 H   0  0  0  0  0  0
  -17.4211  -26.6665   21.4022 H   0  0  0  0  0  0
  -18.0343  -26.0078   22.9020 H   0  0  0  0  0  0
  -19.7971  -30.7274   24.2222 H   0  0  0  0  0  0
  -17.5050  -31.6273   24.5138 H   0  0  0  0  0  0
  -15.5377  -30.2967   23.7700 H   0  0  0  0  0  0
  -15.8689  -28.0810   22.7092 H   0  0  0  0  0  0
  -24.5890  -30.7120   25.7730 H   0  0  0  0  0  0
  -24.8866  -32.2998   26.4707 H   0  0  0  0  0  0
  -25.7958  -30.9057   27.0249 H   0  0  0  0  0  0
  -26.3020  -29.6680   24.1320 H   0  0  0  0  0  0
  -27.3944  -29.7263   25.4939 H   0  0  0  0  0  0
  -27.8952  -30.4178   23.9709 H   0  0  0  0  0  0
  -27.2617  -33.3683   26.1993 H   0  0  0  0  0  0
  -28.3899  -32.6856   25.0375 H   0  0  0  0  0  0
  -28.0641  -31.8540   26.5506 H   0  0  0  0  0  0
  -28.2566  -38.0087   24.7510 H   0  0  0  0  0  0
  -28.1085  -36.2612   24.6286 H   0  0  0  0  0  0
  -27.2285  -37.1415   25.8866 H   0  0  0  0  0  0
  -20.9467  -29.8764   21.6788 H   0  0  0  0  0  0
  -26.0139  -38.2796   24.1440 H   0  0  0  0  0  0
  -28.2084  -18.1708   21.9183 H   0  0  0  0  0  0
  -30.9910  -20.0446   18.4261 H   0  0  0  0  0  0
  -29.4158  -23.3881   21.2528 H   0  0  0  0  0  0
  -26.7818  -22.0668   20.4582 H   0  0  0  0  0  0
  -27.7186  -23.1002   23.1764 H   0  0  0  0  0  0
  -26.1495  -22.3833   22.8252 H   0  0  0  0  0  0
  -26.5837  -23.9316   22.1163 H   0  0  0  0  0  0
  -27.0813  -24.3703   19.6207 H   0  0  0  0  0  0
  -28.5550  -24.6032   18.7963 H   0  0  0  0  0  0
  -30.0327  -22.4608   18.8951 H   0  0  0  0  0  0
  -28.8088  -15.8431   21.0568 H   0  0  0  0  0  0
  1 25  1  0  0  0
  1 30  2  0  0  0
  1 82  1  0  0  0
  2  3  1  0  0  0
  2 25  1  0  0  0
  2 84  1  0  0  0
  2 85  1  0  0  0
  3  4  1  0  0  0
  3 86  1  0  0  0
  3 87  1  0  0  0
  4  5  1  0  0  0
  4 88  1  0  0  0
  4 89  1  0  0  0
  5  6  1  0  0  0
  5 26  1  0  0  0
  5 90  1  0  0  0
  6 25  1  0  0  0
  6 91  1  0  0  0
  6 92  1  0  0  0
  7  8  2  0  0  0
  7 26  1  0  0  0
  7 29  1  0  0  0
  8  9  1  0  0  0
  8 22  1  0  0  0
  9 10  1  0  0  0
  9 27  2  0  0  0
 10 11  2  0  0  0
 10 15  1  0  0  0
 11 12  1  0  0  0
 11 93  1  0  0  0
 12 13  2  0  0  0
 12 94  1  0  0  0
 13 14  1  0  0  0
 13 31  1  0  0  0
 14 15  2  0  0  0
 14 95  1  0  0  0
 15 96  1  0  0  0
 16 17  2  0  0  0
 16 21  1  0  0  0
 16 31  1  0  0  0
 17 18  1  0  0  0
 17 97  1  0  0  0
 18 19  2  0  0  0
 18 98  1  0  0  0
 19 20  1  0  0  0
 19 24  1  0  0  0
 20 21  2  0  0  0
 20 99  1  0  0  0
 21 23  1  0  0  0
 22 28  1  0  0  0
 22 32  2  0  0  0
 26 27  1  0  0  0
 28100  1  0  0  0
 28101  1  0  0  0
 29102  1  0  0  0
 29103  1  0  0  0
 33 34  1  0  0  0
 33 66  1  0  0  0
 33 70  2  0  0  0
 34 36  1  0  0  0
 34 59  1  0  0  0
 34104  1  0  0  0
 35 44  2  0  0  0
 35 45  1  0  0  0
 35 68  1  0  0  0
 36 56  1  0  0  0
 36105  1  0  0  0
 37 39  1  0  0  0
 37 47  1  0  0  0
 37 66  1  0  0  0
 37106  1  0  0  0
 38 43  2  0  0  0
 38 46  1  0  0  0
 38 47  1  0  0  0
 39 64  1  0  0  0
 39 67  2  0  0  0
 40 52  1  0  0  0
 40 53  2  0  0  0
 40 58  1  0  0  0
 41107  1  0  0  0
 41108  1  0  0  0
 41109  1  0  0  0
 41 48  1  0  0  0
 42 43  1  0  0  0
 42 66  1  0  0  0
 42110  1  0  0  0
 42111  1  0  0  0
 43 44  1  0  0  0
 44112  1  0  0  0
 45 46  2  0  0  0
 45113  1  0  0  0
 46114  1  0  0  0
 47115  1  0  0  0
 47116  1  0  0  0
 48 56  1  0  0  0
 48 65  1  0  0  0
 48117  1  0  0  0
 49 50  1  0  0  0
 49 53  1  0  0  0
 49 64  1  0  0  0
 49118  1  0  0  0
 50 51  1  0  0  0
 50119  1  0  0  0
 50120  1  0  0  0
 51 52  1  0  0  0
 51121  1  0  0  0
 51122  1  0  0  0
 52123  1  0  0  0
 52124  1  0  0  0
 53 54  1  0  0  0
 54 55  2  0  0  0
 54125  1  0  0  0
 55 57  1  0  0  0
 55126  1  0  0  0
 56 69  2  0  0  0
 57 58  2  0  0  0
 57127  1  0  0  0
 58128  1  0  0  0
 59 60  1  0  0  0
 59 61  1  0  0  0
 59 62  1  0  0  0
 60129  1  0  0  0
 60130  1  0  0  0
 60131  1  0  0  0
 61132  1  0  0  0
 61133  1  0  0  0
 61134  1  0  0  0
 62135  1  0  0  0
 62136  1  0  0  0
 62137  1  0  0  0
 63 65  1  0  0  0
 63138  1  0  0  0
 63139  1  0  0  0
 63140  1  0  0  0
 64141  1  0  0  0
 65142  1  0  0  0
 68 79  1  0  0  0
 71 74  2  0  0  0
 71 75  1  0  0  0
 71143  1  0  0  0
 72 73  2  0  0  0
 72 80  1  0  0  0
 72144  1  0  0  0
 73 74  1  0  0  0
 73 81  1  0  0  0
 74 83  1  0  0  0
 75 80  2  0  0  0
 75 82  1  0  0  0
 76 77  1  0  0  0
 76 79  1  0  0  0
 76 81  1  0  0  0
 76145  1  0  0  0
 77 78  1  0  0  0
 77 83  1  0  0  0
 77146  1  0  0  0
 78147  1  0  0  0
 78148  1  0  0  0
 78149  1  0  0  0
 79150  1  0  0  0
 79151  1  0  0  0
 81152  1  0  0  0
 82153  1  0  0  0
M  ISO  4   1 100  68 101  79 101  82 100
M  END
> <chiral flag>
0

> <version>
0

> <s_m_source_file>
/data/baiqing/PycharmProjects/Reinvent-master-3.2/result/LINK_invent/BTK/process_docking_weight1_custom_sum_contain_oxygen_bond_distance_aromatic_linkinvent_7_9_3/rearranged_h_0154.sdf

> <i_m_source_file_index>
10

> <r_mmod_Potential_Energy-OPLS-2005>
499.997680664062

> <r_mmod_Stretch_Energy-OPLS-2005>
260.071685791016

> <r_mmod_Bend_Energy-OPLS-2005>
286.530242919922

> <r_mmod_Torsional_Energy-OPLS-2005>
227.916397094727

> <r_mmod_Improper_Torsional_Energy-OPLS-2005>
3.65891361236572

> <r_mmod_Van_der_Waal_Energy-OPLS-2005>
139.139785766602

> <r_mmod_Electrostatic_Energy-OPLS-2005>
-394.515472412109

> <r_mmod_Solvation_Energy-OPLS-2005>
-250.851593017578

> <b_mmod_Minimization_Converged-OPLS-2005>
0

> <r_mmod_RMS_Derivative-OPLS-2005>
1.22245466709137

$$$$
10
                    3D
 Structure written by MMmdl.
161170  0  0  1  0            999 V2000
  -30.6576  -14.6764   20.4830 C   0  0  0  0  0  0
  -30.4213  -12.4181   19.4622 C   0  0  0  0  0  0
  -29.5006  -12.4978   18.2269 C   0  0  0  0  0  0
  -28.0267  -12.3331   18.6434 C   0  0  0  0  0  0
  -27.6416  -13.2298   19.8510 C   0  0  2  0  0  0
  -28.6872  -13.1504   20.9842 C   0  0  0  0  0  0
  -25.2508  -13.8201   20.5698 C   0  0  0  0  0  0
  -24.1797  -13.0447   20.9208 C   0  0  0  0  0  0
  -24.6387  -11.6923   20.8754 C   0  0  0  0  0  0
  -23.9067  -10.4297   21.0411 C   0  0  0  0  0  0
  -24.3618   -9.4210   21.9187 C   0  0  0  0  0  0
  -23.6294   -8.2245   22.0755 C   0  0  0  0  0  0
  -22.4278   -8.0282   21.3543 C   0  0  0  0  0  0
  -21.9913   -9.0256   20.4646 C   0  0  0  0  0  0
  -22.7241  -10.2136   20.3058 C   0  0  0  0  0  0
  -21.6854   -6.0738   22.5280 C   0  0  0  0  0  0
  -21.4014   -6.5641   23.8213 C   0  0  0  0  0  0
  -21.3659   -5.6793   24.9174 C   0  0  0  0  0  0
  -21.6045   -4.3056   24.7225 C   0  0  0  0  0  0
  -21.8818   -3.8148   23.4345 C   0  0  0  0  0  0
  -21.9192   -4.6965   22.3402 C   0  0  0  0  0  0
  -22.7818  -13.5228   21.1869 C   0  0  0  0  0  0
  -22.1661   -4.2151   21.0979 F   0  0  0  0  0  0
  -21.5629   -3.4539   25.7737 F   0  0  0  0  0  0
  -29.9912  -13.4793   20.3981 N   0  0  0  0  0  0
  -26.2934  -12.9406   20.3293 N   0  0  0  0  0  0
  -25.9316  -11.6549   20.5762 N   0  0  0  0  0  0
  -22.0466  -12.8213   22.0423 N   0  0  0  0  0  0
  -25.4202  -15.1925   20.4114 N   0  0  0  0  0  0
  -31.8470  -14.7414   20.1638 O   0  0  0  0  0  0
  -21.6641   -6.8880   21.4241 O   0  0  0  0  0  0
  -22.3503  -14.5535   20.6721 O   0  0  0  0  0  0
  -24.6280  -31.8574   23.2001 C   0  0  0  0  0  0
  -25.9121  -32.4763   23.8335 C   0  0  1  0  0  0
  -27.2210  -27.2961   20.1161 C   0  0  0  0  0  0
  -25.5931  -33.8567   24.2261 N   0  0  0  0  0  0
  -23.4218  -30.4813   21.5434 C   0  0  2  0  0  0
  -24.8665  -28.9320   20.1109 C   0  0  0  0  0  0
  -22.7483  -29.4614   22.4925 C   0  0  0  0  0  0
  -18.0288  -28.1384   22.8485 C   0  0  0  0  0  0
  -24.1491  -36.7285   23.2640 C   0  0  0  0  0  0
  -25.9648  -30.7814   21.3736 C   0  0  0  0  0  0
  -26.0367  -29.4068   20.7155 C   0  0  0  0  0  0
  -27.2149  -28.6001   20.7082 C   0  0  0  0  0  0
  -26.0208  -26.8728   19.5000 C   0  0  0  0  0  0
  -24.8614  -27.6713   19.4957 C   0  0  0  0  0  0
  -23.6367  -29.8160   20.1587 C   0  0  0  0  0  0
  -25.4117  -36.3073   24.0325 C   0  0  1  0  0  0
  -20.5889  -28.3688   23.1280 C   0  0  2  0  0  0
  -20.6778  -26.9410   22.5411 C   0  0  0  0  0  0
  -19.5756  -26.6382   21.5212 C   0  0  0  0  0  0
  -18.1932  -26.7927   22.1620 C   0  0  0  0  0  0
  -19.1541  -28.8855   23.2877 C   0  0  0  0  0  0
  -18.9466  -30.1459   23.8892 C   0  0  0  0  0  0
  -17.6465  -30.6586   24.0566 C   0  0  0  0  0  0
  -25.9056  -34.9445   23.5094 C   0  0  0  0  0  0
  -16.5356  -29.9085   23.6333 C   0  0  0  0  0  0
  -16.7275  -28.6505   23.0348 C   0  0  0  0  0  0
  -26.4498  -31.6584   25.0716 C   0  0  0  0  0  0
  -25.3727  -31.3731   26.1441 C   0  0  0  0  0  0
  -27.0346  -30.3006   24.6184 C   0  0  0  0  0  0
  -27.6053  -32.4323   25.7489 C   0  0  0  0  0  0
  -27.5579  -37.1800   24.8465 C   0  0  0  0  0  0
  -21.4193  -29.3041   22.3673 N   0  0  0  0  0  0
  -26.4291  -37.3772   23.9409 N   0  0  0  0  0  0
  -24.6906  -31.0573   22.0956 N   0  0  0  0  0  0
  -23.4201  -28.8154   23.3009 O   0  0  0  0  0  0
  -28.3468  -26.4523   20.1671 O   0  0  0  0  0  0
  -26.5627  -34.8917   22.4660 O   0  0  0  0  0  0
  -23.5439  -32.1380   23.7321 O   0  0  0  0  0  0
  -30.5810  -19.4729   19.7210 C   0  0  0  0  0  0
  -28.8973  -19.2023   21.3917 C   0  0  0  0  0  0
  -29.2833  -21.4954   20.4252 C   0  0  0  0  0  0
  -29.9387  -18.6024   20.6363 C   0  0  0  0  0  0
  -30.2861  -20.8684   19.6160 C   0  0  0  0  0  0
  -28.5721  -20.6078   21.2972 C   0  0  0  0  0  0
  -29.6070  -24.2408   19.6190 C   0  0  0  0  0  0
  -27.7063  -23.8740   20.5026 C   0  0  0  0  0  0
  -29.0567  -23.0819   20.5186 C   0  0  1  0  0  0
  -28.2842  -25.0558   19.6558 C   0  0  1  0  0  0
  -31.1446  -21.6667   18.6515 C   0  0  0  0  0  0
  -26.8799  -20.3847   23.0003 C   0  0  0  0  0  0
  -30.5843  -17.1910   20.9674 C   0  0  0  0  0  0
  -29.9532  -15.8325   20.7500 N   0  0  0  0  0  0
  -27.6050  -21.1965   22.0853 O   0  0  0  0  0  0
  -31.4645  -12.5228   19.1591 H   0  0  0  0  0  0
  -30.3465  -11.4391   19.9385 H   0  0  0  0  0  0
  -29.7724  -11.7291   17.5022 H   0  0  0  0  0  0
  -29.6372  -13.4566   17.7241 H   0  0  0  0  0  0
  -27.8758  -11.2839   18.9008 H   0  0  0  0  0  0
  -27.3688  -12.5347   17.7973 H   0  0  0  0  0  0
  -27.6419  -14.2542   19.4777 H   0  0  0  0  0  0
  -28.7089  -12.1526   21.4246 H   0  0  0  0  0  0
  -28.4336  -13.8367   21.7939 H   0  0  0  0  0  0
  -25.2762   -9.5688   22.4762 H   0  0  0  0  0  0
  -24.0005   -7.4636   22.7472 H   0  0  0  0  0  0
  -21.0846   -8.8773   19.8949 H   0  0  0  0  0  0
  -22.3699  -10.9675   19.6167 H   0  0  0  0  0  0
  -21.2005   -7.6150   23.9717 H   0  0  0  0  0  0
  -21.1483   -6.0524   25.9078 H   0  0  0  0  0  0
  -22.0597   -2.7611   23.2845 H   0  0  0  0  0  0
  -22.4084  -11.9870   22.4801 H   0  0  0  0  0  0
  -21.1084  -13.1234   22.2637 H   0  0  0  0  0  0
  -24.6514  -15.8451   20.5190 H   0  0  0  0  0  0
  -26.2660  -15.6322   20.0714 H   0  0  0  0  0  0
  -26.7187  -32.5419   23.1077 H   0  0  0  0  0  0
  -25.0092  -33.9712   25.0415 H   0  0  0  0  0  0
  -22.7169  -31.3027   21.3994 H   0  0  0  0  0  0
  -23.3753  -35.9618   23.3304 H   0  0  0  0  0  0
  -24.3581  -36.8904   22.2054 H   0  0  0  0  0  0
  -23.7245  -37.6487   23.6663 H   0  0  0  0  0  0
  -26.0995  -31.5441   20.6052 H   0  0  0  0  0  0
  -26.8442  -30.8287   22.0046 H   0  0  0  0  0  0
  -28.1138  -28.9613   21.1883 H   0  0  0  0  0  0
  -25.9384  -25.9036   19.0331 H   0  0  0  0  0  0
  -23.9615  -27.2982   19.0262 H   0  0  0  0  0  0
  -23.7588  -30.5924   19.4024 H   0  0  0  0  0  0
  -22.7555  -29.2481   19.8548 H   0  0  0  0  0  0
  -25.1298  -36.1920   25.0818 H   0  0  0  0  0  0
  -20.9985  -28.3264   24.1398 H   0  0  0  0  0  0
  -20.5678  -26.2298   23.3611 H   0  0  0  0  0  0
  -21.6646  -26.7434   22.1206 H   0  0  0  0  0  0
  -19.6920  -25.6292   21.1241 H   0  0  0  0  0  0
  -19.6698  -27.3196   20.6745 H   0  0  0  0  0  0
  -17.4206  -26.6680   21.4019 H   0  0  0  0  0  0
  -18.0327  -26.0065   22.9011 H   0  0  0  0  0  0
  -19.7946  -30.7276   24.2253 H   0  0  0  0  0  0
  -17.5022  -31.6265   24.5169 H   0  0  0  0  0  0
  -15.5359  -30.2988   23.7662 H   0  0  0  0  0  0
  -15.8673  -28.0828   22.7057 H   0  0  0  0  0  0
  -24.5921  -30.7050   25.7781 H   0  0  0  0  0  0
  -24.8893  -32.2899   26.4830 H   0  0  0  0  0  0
  -25.8049  -30.8950   27.0239 H   0  0  0  0  0  0
  -26.2926  -29.6752   24.1206 H   0  0  0  0  0  0
  -27.4041  -29.7266   25.4691 H   0  0  0  0  0  0
  -27.8793  -30.4288   23.9411 H   0  0  0  0  0  0
  -27.2662  -33.3633   26.2045 H   0  0  0  0  0  0
  -28.3877  -32.6866   25.0326 H   0  0  0  0  0  0
  -28.0705  -31.8460   26.5423 H   0  0  0  0  0  0
  -28.2596  -38.0096   24.7506 H   0  0  0  0  0  0
  -28.1073  -36.2626   24.6296 H   0  0  0  0  0  0
  -27.2296  -37.1453   25.8868 H   0  0  0  0  0  0
  -20.9371  -29.8769   21.6889 H   0  0  0  0  0  0
  -26.0168  -38.2845   24.1410 H   0  0  0  0  0  0
  -31.3967  -19.0721   19.1340 H   0  0  0  0  0  0
  -28.4050  -18.5698   22.1153 H   0  0  0  0  0  0
  -29.8173  -23.9550   18.5910 H   0  0  0  0  0  0
  -30.4629  -24.7588   20.0527 H   0  0  0  0  0  0
  -27.3615  -24.1614   21.4966 H   0  0  0  0  0  0
  -26.9210  -23.3424   19.9646 H   0  0  0  0  0  0
  -29.4791  -23.2859   21.5041 H   0  0  0  0  0  0
  -27.8727  -25.0472   18.6454 H   0  0  0  0  0  0
  -31.9442  -21.0600   18.2254 H   0  0  0  0  0  0
  -31.6229  -22.5069   19.1541 H   0  0  0  0  0  0
  -30.5440  -22.0292   17.8179 H   0  0  0  0  0  0
  -26.1475  -20.9987   23.5242 H   0  0  0  0  0  0
  -27.5366  -19.9471   23.7535 H   0  0  0  0  0  0
  -26.3352  -19.5903   22.4883 H   0  0  0  0  0  0
  -30.8304  -17.2258   22.0294 H   0  0  0  0  0  0
  -31.5581  -17.1905   20.4755 H   0  0  0  0  0  0
  -28.9648  -15.7444   20.9297 H   0  0  0  0  0  0
  1 25  1  0  0  0
  1 30  2  0  0  0
  1 84  1  0  0  0
  2  3  1  0  0  0
  2 25  1  0  0  0
  2 86  1  0  0  0
  2 87  1  0  0  0
  3  4  1  0  0  0
  3 88  1  0  0  0
  3 89  1  0  0  0
  4  5  1  0  0  0
  4 90  1  0  0  0
  4 91  1  0  0  0
  5  6  1  0  0  0
  5 26  1  0  0  0
  5 92  1  0  0  0
  6 25  1  0  0  0
  6 93  1  0  0  0
  6 94  1  0  0  0
  7  8  2  0  0  0
  7 26  1  0  0  0
  7 29  1  0  0  0
  8  9  1  0  0  0
  8 22  1  0  0  0
  9 10  1  0  0  0
  9 27  2  0  0  0
 10 11  2  0  0  0
 10 15  1  0  0  0
 11 12  1  0  0  0
 11 95  1  0  0  0
 12 13  2  0  0  0
 12 96  1  0  0  0
 13 14  1  0  0  0
 13 31  1  0  0  0
 14 15  2  0  0  0
 14 97  1  0  0  0
 15 98  1  0  0  0
 16 17  2  0  0  0
 16 21  1  0  0  0
 16 31  1  0  0  0
 17 18  1  0  0  0
 17 99  1  0  0  0
 18 19  2  0  0  0
 18100  1  0  0  0
 19 20  1  0  0  0
 19 24  1  0  0  0
 20 21  2  0  0  0
 20101  1  0  0  0
 21 23  1  0  0  0
 22 28  1  0  0  0
 22 32  2  0  0  0
 26 27  1  0  0  0
 28102  1  0  0  0
 28103  1  0  0  0
 29104  1  0  0  0
 29105  1  0  0  0
 33 34  1  0  0  0
 33 66  1  0  0  0
 33 70  2  0  0  0
 34 36  1  0  0  0
 34 59  1  0  0  0
 34106  1  0  0  0
 35 44  2  0  0  0
 35 45  1  0  0  0
 35 68  1  0  0  0
 36 56  1  0  0  0
 36107  1  0  0  0
 37 39  1  0  0  0
 37 47  1  0  0  0
 37 66  1  0  0  0
 37108  1  0  0  0
 38 43  2  0  0  0
 38 46  1  0  0  0
 38 47  1  0  0  0
 39 64  1  0  0  0
 39 67  2  0  0  0
 40 52  1  0  0  0
 40 53  2  0  0  0
 40 58  1  0  0  0
 41109  1  0  0  0
 41110  1  0  0  0
 41111  1  0  0  0
 41 48  1  0  0  0
 42 43  1  0  0  0
 42 66  1  0  0  0
 42112  1  0  0  0
 42113  1  0  0  0
 43 44  1  0  0  0
 44114  1  0  0  0
 45 46  2  0  0  0
 45115  1  0  0  0
 46116  1  0  0  0
 47117  1  0  0  0
 47118  1  0  0  0
 48 56  1  0  0  0
 48 65  1  0  0  0
 48119  1  0  0  0
 49 50  1  0  0  0
 49 53  1  0  0  0
 49 64  1  0  0  0
 49120  1  0  0  0
 50 51  1  0  0  0
 50121  1  0  0  0
 50122  1  0  0  0
 51 52  1  0  0  0
 51123  1  0  0  0
 51124  1  0  0  0
 52125  1  0  0  0
 52126  1  0  0  0
 53 54  1  0  0  0
 54 55  2  0  0  0
 54127  1  0  0  0
 55 57  1  0  0  0
 55128  1  0  0  0
 56 69  2  0  0  0
 57 58  2  0  0  0
 57129  1  0  0  0
 58130  1  0  0  0
 59 60  1  0  0  0
 59 61  1  0  0  0
 59 62  1  0  0  0
 60131  1  0  0  0
 60132  1  0  0  0
 60133  1  0  0  0
 61134  1  0  0  0
 61135  1  0  0  0
 61136  1  0  0  0
 62137  1  0  0  0
 62138  1  0  0  0
 62139  1  0  0  0
 63 65  1  0  0  0
 63140  1  0  0  0
 63141  1  0  0  0
 63142  1  0  0  0
 64143  1  0  0  0
 65144  1  0  0  0
 68 80  1  0  0  0
 71 74  2  0  0  0
 71 75  1  0  0  0
 71145  1  0  0  0
 72 74  1  0  0  0
 72 76  2  0  0  0
 72146  1  0  0  0
 73 75  2  0  0  0
 73 76  1  0  0  0
 73 79  1  0  0  0
 74 83  1  0  0  0
 75 81  1  0  0  0
 76 85  1  0  0  0
 77 79  1  0  0  0
 77 80  1  0  0  0
 77147  1  0  0  0
 77148  1  0  0  0
 78 79  1  0  0  0
 78 80  1  0  0  0
 78149  1  0  0  0
 78150  1  0  0  0
 79151  1  0  0  0
 80152  1  0  0  0
 81153  1  0  0  0
 81154  1  0  0  0
 81155  1  0  0  0
 82 85  1  0  0  0
 82156  1  0  0  0
 82157  1  0  0  0
 82158  1  0  0  0
 83 84  1  0  0  0
 83159  1  0  0  0
 83160  1  0  0  0
 84161  1  0  0  0
M  ISO  4   1 100  68 101  80 101  84 100
M  END
> <chiral flag>
0

> <version>
0

> <s_m_source_file>
/data/baiqing/PycharmProjects/Reinvent-master-3.2/result/LINK_invent/BTK/process_docking_weight1_custom_sum_contain_oxygen_bond_distance_aromatic_linkinvent_7_9_3/rearranged_h_0154.sdf

> <i_m_source_file_index>
11

> <r_mmod_Potential_Energy-OPLS-2005>
101.511245727539

> <r_mmod_Stretch_Energy-OPLS-2005>
94.4773635864258

> <r_mmod_Bend_Energy-OPLS-2005>
191.666259765625

> <r_mmod_Torsional_Energy-OPLS-2005>
241.280868530273

> <r_mmod_Improper_Torsional_Energy-OPLS-2005>
6.6742525100708

> <r_mmod_Van_der_Waal_Energy-OPLS-2005>
152.00358581543

> <r_mmod_Electrostatic_Energy-OPLS-2005>
-431.536743164062

> <r_mmod_Solvation_Energy-OPLS-2005>
-214.626419067383

> <b_mmod_Minimization_Converged-OPLS-2005>
0

> <r_mmod_RMS_Derivative-OPLS-2005>
0.479851961135864

$$$$
11
                    3D
 Structure written by MMmdl.
173182  0  0  1  0            999 V2000
  -30.6734  -14.3883   20.5188 C   0  0  0  0  0  0
  -30.4249  -12.2327   19.4389 C   0  0  0  0  0  0
  -29.5005  -12.4364   18.2227 C   0  0  0  0  0  0
  -28.0257  -12.2483   18.6460 C   0  0  0  0  0  0
  -27.6360  -13.1129   19.8654 C   0  0  2  0  0  0
  -28.6801  -12.9236   20.9946 C   0  0  0  0  0  0
  -25.2391  -13.7791   20.5625 C   0  0  0  0  0  0
  -24.1679  -13.0233   20.9249 C   0  0  0  0  0  0
  -24.6142  -11.6654   20.8807 C   0  0  0  0  0  0
  -23.8852  -10.4100   21.0461 C   0  0  0  0  0  0
  -24.3442   -9.4030   21.9237 C   0  0  0  0  0  0
  -23.6163   -8.2065   22.0790 C   0  0  0  0  0  0
  -22.4167   -8.0112   21.3528 C   0  0  0  0  0  0
  -21.9745   -9.0080   20.4648 C   0  0  0  0  0  0
  -22.7047  -10.1962   20.3079 C   0  0  0  0  0  0
  -21.6790   -6.0645   22.5275 C   0  0  0  0  0  0
  -21.3985   -6.5588   23.8197 C   0  0  0  0  0  0
  -21.3656   -5.6760   24.9172 C   0  0  0  0  0  0
  -21.6040   -4.3020   24.7235 C   0  0  0  0  0  0
  -21.8822   -3.8089   23.4361 C   0  0  0  0  0  0
  -21.9170   -4.6892   22.3407 C   0  0  0  0  0  0
  -22.7719  -13.5081   21.1928 C   0  0  0  0  0  0
  -22.1643   -4.2074   21.0991 F   0  0  0  0  0  0
  -21.5636   -3.4522   25.7764 F   0  0  0  0  0  0
  -30.0309  -13.2022   20.4594 N   0  0  0  0  0  0
  -26.2766  -12.8821   20.3230 N   0  0  0  0  0  0
  -25.9014  -11.6094   20.5787 N   0  0  0  0  0  0
  -22.0325  -12.8171   22.0470 N   0  0  0  0  0  0
  -25.3912  -15.1570   20.3983 N   0  0  0  0  0  0
  -31.8074  -14.6014   20.0910 O   0  0  0  0  0  0
  -21.6540   -6.8732   21.4215 O   0  0  0  0  0  0
  -22.3501  -14.5405   20.6684 O   0  0  0  0  0  0
  -24.6113  -31.8877   23.2275 C   0  0  0  0  0  0
  -25.9009  -32.4937   23.8581 C   0  0  1  0  0  0
  -27.2001  -27.5129   20.0469 C   0  0  0  0  0  0
  -25.5909  -33.8738   24.2529 N   0  0  0  0  0  0
  -23.3888  -30.5334   21.5680 C   0  0  2  0  0  0
  -24.8271  -29.0424   20.0930 C   0  0  0  0  0  0
  -22.7333  -29.4808   22.4918 C   0  0  0  0  0  0
  -18.0288  -28.1190   22.8571 C   0  0  0  0  0  0
  -24.1475  -36.7329   23.2653 C   0  0  0  0  0  0
  -25.9237  -30.8666   21.3813 C   0  0  0  0  0  0
  -25.9886  -29.5216   20.7075 C   0  0  0  0  0  0
  -27.1757  -28.7629   20.6926 C   0  0  0  0  0  0
  -26.0387  -27.0952   19.3347 C   0  0  0  0  0  0
  -24.8478  -27.8275   19.4033 C   0  0  0  0  0  0
  -23.5926  -29.9084   20.1694 C   0  0  0  0  0  0
  -25.4081  -36.3201   24.0415 C   0  0  1  0  0  0
  -20.5930  -28.3636   23.1249 C   0  0  2  0  0  0
  -20.6892  -26.9351   22.5250 C   0  0  0  0  0  0
  -19.5706  -26.6255   21.5247 C   0  0  0  0  0  0
  -18.1926  -26.7777   22.1669 C   0  0  0  0  0  0
  -19.1561  -28.8722   23.2859 C   0  0  0  0  0  0
  -18.9500  -30.1354   23.8851 C   0  0  0  0  0  0
  -17.6523  -30.6570   24.0441 C   0  0  0  0  0  0
  -25.9006  -34.9557   23.5233 C   0  0  0  0  0  0
  -16.5376  -29.9030   23.6216 C   0  0  0  0  0  0
  -16.7281  -28.6315   23.0494 C   0  0  0  0  0  0
  -26.4433  -31.6640   25.0833 C   0  0  0  0  0  0
  -25.3686  -31.3639   26.1522 C   0  0  0  0  0  0
  -27.0273  -30.3129   24.6132 C   0  0  0  0  0  0
  -27.6112  -32.4281   25.7509 C   0  0  0  0  0  0
  -27.5599  -37.1855   24.8508 C   0  0  0  0  0  0
  -21.4103  -29.3080   22.3608 N   0  0  0  0  0  0
  -26.4328  -37.3850   23.9438 N   0  0  0  0  0  0
  -24.6600  -31.1067   22.1159 N   0  0  0  0  0  0
  -23.4132  -28.8356   23.2971 O   0  0  0  0  0  0
  -28.2545  -26.6438   20.2721 O   0  0  0  0  0  0
  -26.5575  -34.8999   22.4798 O   0  0  0  0  0  0
  -23.5364  -32.1649   23.7736 O   0  0  0  0  0  0
  -27.6334  -18.3896   21.1615 C   0  0  0  0  0  0
  -26.9263  -20.8852   20.1369 C   0  0  0  0  0  0
  -27.1938  -20.7486   21.5368 C   0  0  0  0  0  0
  -27.4637  -19.4649   22.0548 C   0  0  0  0  0  0
  -27.2621  -19.8601   19.2410 C   0  0  0  0  0  0
  -27.6193  -18.6125   19.7558 C   0  0  0  0  0  0
  -26.2942  -22.1413   19.5575 C   0  0  0  0  0  0
  -27.2491  -22.0054   22.4311 C   0  0  0  0  0  0
  -25.9880  -23.1173   20.6672 C   0  0  0  0  0  0
  -27.5788  -19.1957   23.5480 C   0  0  0  0  0  0
  -27.2852  -20.1255   17.7320 C   0  0  0  0  0  0
  -29.1077  -24.5295   22.5647 C   0  0  0  0  0  0
  -29.7901  -16.5578   19.9112 C   0  0  0  0  0  0
  -28.4082  -16.4528   19.2660 C   0  0  0  0  0  0
  -27.6519  -25.4121   20.6786 C   0  0  0  0  0  0
  -28.3036  -24.1866   21.3088 C   0  0  2  0  0  0
  -29.8635  -15.3953   20.7799 N   0  0  0  0  0  0
  -27.2281  -23.1354   21.4821 N   0  3  1  0  0  0
  -27.9360  -17.6774   18.8050 O   0  0  0  0  0  0
  -31.4741  -12.3239   19.1494 H   0  0  0  0  0  0
  -30.3133  -11.2292   19.8518 H   0  0  0  0  0  0
  -29.7550  -11.7135   17.4455 H   0  0  0  0  0  0
  -29.6665  -13.4210   17.7852 H   0  0  0  0  0  0
  -27.8958  -11.1929   18.8964 H   0  0  0  0  0  0
  -27.3639  -12.4449   17.8030 H   0  0  0  0  0  0
  -27.6239  -14.1129   19.4885 H   0  0  0  0  0  0
  -28.6356  -11.8968   21.3700 H   0  0  0  0  0  0
  -28.4421  -13.5521   21.8488 H   0  0  0  0  0  0
  -25.2594   -9.5522   22.4786 H   0  0  0  0  0  0
  -23.9853   -7.4473   22.7548 H   0  0  0  0  0  0
  -21.0635   -8.8591   19.8973 H   0  0  0  0  0  0
  -22.3541  -10.9499   19.6159 H   0  0  0  0  0  0
  -21.1977   -7.6099   23.9669 H   0  0  0  0  0  0
  -21.1503   -6.0511   25.9069 H   0  0  0  0  0  0
  -22.0620   -2.7552   23.2903 H   0  0  0  0  0  0
  -22.3881  -11.9814   22.4870 H   0  0  0  0  0  0
  -21.0993  -13.1332   22.2689 H   0  0  0  0  0  0
  -24.5965  -15.7840   20.4705 H   0  0  0  0  0  0
  -26.1831  -15.5873   19.9530 H   0  0  0  0  0  0
  -26.7060  -32.5673   23.1366 H   0  0  0  0  0  0
  -24.9983  -33.9923   25.0619 H   0  0  0  0  0  0
  -22.6754  -31.3506   21.4611 H   0  0  0  0  0  0
  -23.3775  -35.9632   23.3343 H   0  0  0  0  0  0
  -24.3578  -36.8899   22.2076 H   0  0  0  0  0  0
  -23.7166  -37.6553   23.6568 H   0  0  0  0  0  0
  -26.0486  -31.6287   20.6094 H   0  0  0  0  0  0
  -26.8024  -30.8914   22.0172 H   0  0  0  0  0  0
  -28.0404  -29.1075   21.2340 H   0  0  0  0  0  0
  -25.9850  -26.1908   18.7465 H   0  0  0  0  0  0
  -23.9630  -27.4958   18.8815 H   0  0  0  0  0  0
  -23.6813  -30.7156   19.4371 H   0  0  0  0  0  0
  -22.7153  -29.3461   19.8585 H   0  0  0  0  0  0
  -25.1231  -36.2145   25.0931 H   0  0  0  0  0  0
  -21.0028  -28.3447   24.1428 H   0  0  0  0  0  0
  -20.5944  -26.2105   23.3352 H   0  0  0  0  0  0
  -21.6767  -26.7413   22.0937 H   0  0  0  0  0  0
  -19.6854  -25.5992   21.1732 H   0  0  0  0  0  0
  -19.6507  -27.2908   20.6622 H   0  0  0  0  0  0
  -17.4164  -26.6382   21.4117 H   0  0  0  0  0  0
  -18.0356  -25.9832   22.8953 H   0  0  0  0  0  0
  -19.7923  -30.7230   24.2307 H   0  0  0  0  0  0
  -17.5088  -31.6258   24.5058 H   0  0  0  0  0  0
  -15.5397  -30.3063   23.7320 H   0  0  0  0  0  0
  -15.8672  -28.0581   22.7311 H   0  0  0  0  0  0
  -24.5898  -30.6964   25.7757 H   0  0  0  0  0  0
  -24.8774  -32.2760   26.5002 H   0  0  0  0  0  0
  -25.8001  -30.8756   27.0266 H   0  0  0  0  0  0
  -26.2845  -29.6865   24.1171 H   0  0  0  0  0  0
  -27.4123  -29.7351   25.4546 H   0  0  0  0  0  0
  -27.8619  -30.4558   23.9234 H   0  0  0  0  0  0
  -27.2889  -33.3611   26.2142 H   0  0  0  0  0  0
  -28.3835  -32.6801   25.0199 H   0  0  0  0  0  0
  -28.0826  -31.8317   26.5353 H   0  0  0  0  0  0
  -28.2703  -38.0087   24.7530 H   0  0  0  0  0  0
  -28.1025  -36.2650   24.6329 H   0  0  0  0  0  0
  -27.2334  -37.1491   25.8925 H   0  0  0  0  0  0
  -20.9174  -29.8776   21.6822 H   0  0  0  0  0  0
  -26.0243  -38.2977   24.1342 H   0  0  0  0  0  0
  -27.8551  -17.4152   21.5857 H   0  0  0  0  0  0
  -25.3631  -21.8812   19.0442 H   0  0  0  0  0  0
  -26.9363  -22.6136   18.8112 H   0  0  0  0  0  0
  -28.1613  -21.9853   23.0259 H   0  0  0  0  0  0
  -26.3921  -22.0343   23.1203 H   0  0  0  0  0  0
  -25.1537  -22.7288   21.2474 H   0  0  0  0  0  0
  -25.6173  -24.0473   20.2498 H   0  0  0  0  0  0
  -27.3916  -20.0697   24.1752 H   0  0  0  0  0  0
  -28.5684  -18.8245   23.8147 H   0  0  0  0  0  0
  -26.8455  -18.4401   23.8355 H   0  0  0  0  0  0
  -27.6626  -21.1128   17.4662 H   0  0  0  0  0  0
  -26.2726  -20.0307   17.3488 H   0  0  0  0  0  0
  -27.9327  -19.4379   17.1882 H   0  0  0  0  0  0
  -29.7110  -25.4259   22.3941 H   0  0  0  0  0  0
  -29.7985  -23.7227   22.8184 H   0  0  0  0  0  0
  -28.4485  -24.7232   23.4125 H   0  0  0  0  0  0
  -29.9180  -17.4508   20.5332 H   0  0  0  0  0  0
  -30.5216  -16.5772   19.0990 H   0  0  0  0  0  0
  -27.6882  -16.0732   19.9836 H   0  0  0  0  0  0
  -28.4049  -15.7465   18.4354 H   0  0  0  0  0  0
  -26.7929  -25.6349   21.3241 H   0  0  0  0  0  0
  -27.3485  -25.0332   19.7094 H   0  0  0  0  0  0
  -29.0035  -23.7832   20.5744 H   0  0  0  0  0  0
  -28.9769  -15.0885   21.1548 H   0  0  0  0  0  0
  -27.6843  -22.5390   20.8081 H   0  0  0  0  0  0
  1 25  1  0  0  0
  1 30  2  0  0  0
  1 87  1  0  0  0
  2  3  1  0  0  0
  2 25  1  0  0  0
  2 90  1  0  0  0
  2 91  1  0  0  0
  3  4  1  0  0  0
  3 92  1  0  0  0
  3 93  1  0  0  0
  4  5  1  0  0  0
  4 94  1  0  0  0
  4 95  1  0  0  0
  5  6  1  0  0  0
  5 26  1  0  0  0
  5 96  1  0  0  0
  6 25  1  0  0  0
  6 97  1  0  0  0
  6 98  1  0  0  0
  7  8  2  0  0  0
  7 26  1  0  0  0
  7 29  1  0  0  0
  8  9  1  0  0  0
  8 22  1  0  0  0
  9 10  1  0  0  0
  9 27  2  0  0  0
 10 11  2  0  0  0
 10 15  1  0  0  0
 11 12  1  0  0  0
 11 99  1  0  0  0
 12 13  2  0  0  0
 12100  1  0  0  0
 13 14  1  0  0  0
 13 31  1  0  0  0
 14 15  2  0  0  0
 14101  1  0  0  0
 15102  1  0  0  0
 16 17  2  0  0  0
 16 21  1  0  0  0
 16 31  1  0  0  0
 17 18  1  0  0  0
 17103  1  0  0  0
 18 19  2  0  0  0
 18104  1  0  0  0
 19 20  1  0  0  0
 19 24  1  0  0  0
 20 21  2  0  0  0
 20105  1  0  0  0
 21 23  1  0  0  0
 22 28  1  0  0  0
 22 32  2  0  0  0
 26 27  1  0  0  0
 28106  1  0  0  0
 28107  1  0  0  0
 29108  1  0  0  0
 29109  1  0  0  0
 33 34  1  0  0  0
 33 66  1  0  0  0
 33 70  2  0  0  0
 34 36  1  0  0  0
 34 59  1  0  0  0
 34110  1  0  0  0
 35 44  2  0  0  0
 35 45  1  0  0  0
 35 68  1  0  0  0
 36 56  1  0  0  0
 36111  1  0  0  0
 37 39  1  0  0  0
 37 47  1  0  0  0
 37 66  1  0  0  0
 37112  1  0  0  0
 38 43  2  0  0  0
 38 46  1  0  0  0
 38 47  1  0  0  0
 39 64  1  0  0  0
 39 67  2  0  0  0
 40 52  1  0  0  0
 40 53  2  0  0  0
 40 58  1  0  0  0
 41113  1  0  0  0
 41114  1  0  0  0
 41115  1  0  0  0
 41 48  1  0  0  0
 42 43  1  0  0  0
 42 66  1  0  0  0
 42116  1  0  0  0
 42117  1  0  0  0
 43 44  1  0  0  0
 44118  1  0  0  0
 45 46  2  0  0  0
 45119  1  0  0  0
 46120  1  0  0  0
 47121  1  0  0  0
 47122  1  0  0  0
 48 56  1  0  0  0
 48 65  1  0  0  0
 48123  1  0  0  0
 49 50  1  0  0  0
 49 53  1  0  0  0
 49 64  1  0  0  0
 49124  1  0  0  0
 50 51  1  0  0  0
 50125  1  0  0  0
 50126  1  0  0  0
 51 52  1  0  0  0
 51127  1  0  0  0
 51128  1  0  0  0
 52129  1  0  0  0
 52130  1  0  0  0
 53 54  1  0  0  0
 54 55  2  0  0  0
 54131  1  0  0  0
 55 57  1  0  0  0
 55132  1  0  0  0
 56 69  2  0  0  0
 57 58  2  0  0  0
 57133  1  0  0  0
 58134  1  0  0  0
 59 60  1  0  0  0
 59 61  1  0  0  0
 59 62  1  0  0  0
 60135  1  0  0  0
 60136  1  0  0  0
 60137  1  0  0  0
 61138  1  0  0  0
 61139  1  0  0  0
 61140  1  0  0  0
 62141  1  0  0  0
 62142  1  0  0  0
 62143  1  0  0  0
 63 65  1  0  0  0
 63144  1  0  0  0
 63145  1  0  0  0
 63146  1  0  0  0
 64147  1  0  0  0
 65148  1  0  0  0
 68 85  1  0  0  0
 71 74  2  0  0  0
 71 76  1  0  0  0
 71149  1  0  0  0
 72 73  2  0  0  0
 72 75  1  0  0  0
 72 77  1  0  0  0
 73 74  1  0  0  0
 73 78  1  0  0  0
 74 80  1  0  0  0
 75 76  2  0  0  0
 75 81  1  0  0  0
 76 89  1  0  0  0
 77 79  1  0  0  0
 77150  1  0  0  0
 77151  1  0  0  0
 78152  1  0  0  0
 78153  1  0  0  0
 78 88  1  0  0  0
 79 88  1  0  0  0
 79154  1  0  0  0
 79155  1  0  0  0
 80156  1  0  0  0
 80157  1  0  0  0
 80158  1  0  0  0
 81159  1  0  0  0
 81160  1  0  0  0
 81161  1  0  0  0
 82162  1  0  0  0
 82163  1  0  0  0
 82164  1  0  0  0
 82 86  1  0  0  0
 83 84  1  0  0  0
 83 87  1  0  0  0
 83165  1  0  0  0
 83166  1  0  0  0
 84 89  1  0  0  0
 84167  1  0  0  0
 84168  1  0  0  0
 85 86  1  0  0  0
 85169  1  0  0  0
 85170  1  0  0  0
 86 88  1  0  0  0
 86171  1  0  0  0
 87172  1  0  0  0
 88173  1  0  0  0
M  CHG  1  88   1
M  ISO  4   1 100  68 101  85 101  87 100
M  END
> <chiral flag>
0

> <version>
0

> <s_m_source_file>
/data/baiqing/PycharmProjects/Reinvent-master-3.2/result/LINK_invent/BTK/process_docking_weight1_custom_sum_contain_oxygen_bond_distance_aromatic_linkinvent_7_9_3/rearranged_h_0154.sdf

> <i_m_source_file_index>
12

> <r_mmod_Potential_Energy-OPLS-2005>
151.290466308594

> <r_mmod_Stretch_Energy-OPLS-2005>
40.870044708252

> <r_mmod_Bend_Energy-OPLS-2005>
243.227569580078

> <r_mmod_Torsional_Energy-OPLS-2005>
307.365386962891

> <r_mmod_Improper_Torsional_Energy-OPLS-2005>
13.5034255981445

> <r_mmod_Van_der_Waal_Energy-OPLS-2005>
247.253433227539

> <r_mmod_Electrostatic_Energy-OPLS-2005>
-325.539428710938

> <r_mmod_Solvation_Energy-OPLS-2005>
-413.091400146484

> <b_mmod_Minimization_Converged-OPLS-2005>
0

> <r_mmod_RMS_Derivative-OPLS-2005>
14.8501577377319

$$$$
12
                    3D
 Structure written by MMmdl.
168177  0  0  1  0            999 V2000
  -30.7496  -14.5617   20.5114 C   0  0  0  0  0  0
  -30.4068  -12.3538   19.4528 C   0  0  0  0  0  0
  -29.4915  -12.4950   18.2215 C   0  0  0  0  0  0
  -28.0201  -12.3438   18.6435 C   0  0  0  0  0  0
  -27.6507  -13.2306   19.8632 C   0  0  2  0  0  0
  -28.6995  -13.1310   20.9958 C   0  0  0  0  0  0
  -25.2539  -13.8217   20.5714 C   0  0  0  0  0  0
  -24.1817  -13.0451   20.9204 C   0  0  0  0  0  0
  -24.6409  -11.6933   20.8764 C   0  0  0  0  0  0
  -23.9079  -10.4302   21.0406 C   0  0  0  0  0  0
  -24.3619   -9.4214   21.9191 C   0  0  0  0  0  0
  -23.6287   -8.2249   22.0763 C   0  0  0  0  0  0
  -22.4271   -8.0286   21.3543 C   0  0  0  0  0  0
  -21.9914   -9.0261   20.4642 C   0  0  0  0  0  0
  -22.7253  -10.2137   20.3052 C   0  0  0  0  0  0
  -21.6848   -6.0731   22.5274 C   0  0  0  0  0  0
  -21.4005   -6.5637   23.8206 C   0  0  0  0  0  0
  -21.3655   -5.6794   24.9170 C   0  0  0  0  0  0
  -21.6046   -4.3054   24.7225 C   0  0  0  0  0  0
  -21.8824   -3.8146   23.4347 C   0  0  0  0  0  0
  -21.9192   -4.6960   22.3398 C   0  0  0  0  0  0
  -22.7833  -13.5228   21.1846 C   0  0  0  0  0  0
  -22.1665   -4.2146   21.0977 F   0  0  0  0  0  0
  -21.5632   -3.4539   25.7742 F   0  0  0  0  0  0
  -30.0197  -13.4063   20.4149 N   0  0  0  0  0  0
  -26.2995  -12.9431   20.3386 N   0  0  0  0  0  0
  -25.9352  -11.6571   20.5811 N   0  0  0  0  0  0
  -22.0468  -12.8205   22.0382 N   0  0  0  0  0  0
  -25.4237  -15.1927   20.4100 N   0  0  0  0  0  0
  -31.9053  -14.6026   20.0845 O   0  0  0  0  0  0
  -21.6635   -6.8879   21.4239 O   0  0  0  0  0  0
  -22.3518  -14.5539   20.6700 O   0  0  0  0  0  0
  -24.6223  -31.8642   23.2083 C   0  0  0  0  0  0
  -25.9079  -32.4815   23.8388 C   0  0  1  0  0  0
  -27.2150  -27.3549   20.1068 C   0  0  0  0  0  0
  -25.5908  -33.8607   24.2317 N   0  0  0  0  0  0
  -23.4138  -30.4916   21.5507 C   0  0  2  0  0  0
  -24.8589  -28.9618   20.1070 C   0  0  0  0  0  0
  -22.7452  -29.4644   22.4950 C   0  0  0  0  0  0
  -18.0277  -28.1383   22.8505 C   0  0  0  0  0  0
  -24.1474  -36.7296   23.2632 C   0  0  0  0  0  0
  -25.9528  -30.8070   21.3756 C   0  0  0  0  0  0
  -26.0259  -29.4376   20.7177 C   0  0  0  0  0  0
  -27.2068  -28.6425   20.7159 C   0  0  0  0  0  0
  -26.0307  -26.9392   19.4502 C   0  0  0  0  0  0
  -24.8603  -27.7161   19.4657 C   0  0  0  0  0  0
  -23.6252  -29.8357   20.1624 C   0  0  0  0  0  0
  -25.4107  -36.3108   24.0328 C   0  0  1  0  0  0
  -20.5876  -28.3686   23.1291 C   0  0  2  0  0  0
  -20.6772  -26.9420   22.5387 C   0  0  0  0  0  0
  -19.5729  -26.6404   21.5200 C   0  0  0  0  0  0
  -18.1911  -26.7928   22.1630 C   0  0  0  0  0  0
  -19.1531  -28.8851   23.2891 C   0  0  0  0  0  0
  -18.9451  -30.1442   23.8922 C   0  0  0  0  0  0
  -17.6464  -30.6598   24.0570 C   0  0  0  0  0  0
  -25.9047  -34.9469   23.5125 C   0  0  0  0  0  0
  -16.5351  -29.9101   23.6337 C   0  0  0  0  0  0
  -16.7266  -28.6514   23.0375 C   0  0  0  0  0  0
  -26.4498  -31.6608   25.0735 C   0  0  0  0  0  0
  -25.3727  -31.3651   26.1436 C   0  0  0  0  0  0
  -27.0397  -30.3074   24.6139 C   0  0  0  0  0  0
  -27.6031  -32.4358   25.7538 C   0  0  0  0  0  0
  -27.5566  -37.1814   24.8469 C   0  0  0  0  0  0
  -21.4168  -29.3058   22.3701 N   0  0  0  0  0  0
  -26.4287  -37.3804   23.9400 N   0  0  0  0  0  0
  -24.6809  -31.0684   22.1021 N   0  0  0  0  0  0
  -23.4200  -28.8150   23.2978 O   0  0  0  0  0  0
  -28.3344  -26.5180   20.1802 O   0  0  0  0  0  0
  -26.5620  -34.8933   22.4695 O   0  0  0  0  0  0
  -23.5396  -32.1420   23.7438 O   0  0  0  0  0  0
  -30.2118  -20.1259   22.4443 C   0  0  0  0  0  0
  -29.7115  -18.9319   21.8785 C   0  0  0  0  0  0
  -29.0416  -18.9861   20.6426 C   0  0  0  0  0  0
  -28.7993  -20.2653   20.0361 C   0  0  0  0  0  0
  -30.0055  -21.3976   21.8386 C   0  0  0  0  0  0
  -29.2260  -21.4914   20.6489 C   0  0  0  0  0  0
  -29.8427  -17.5967   22.6294 C   0  0  0  0  0  0
  -28.5668  -17.6438   20.0416 C   0  0  0  0  0  0
  -29.6962  -16.6029   19.7600 C   0  0  0  0  0  0
  -30.7698  -16.5289   21.9879 C   0  0  2  0  0  0
  -28.0617  -20.3307   18.7029 C   0  0  0  0  0  0
  -32.1630  -17.1317   21.6645 C   0  0  0  0  0  0
  -31.5739  -22.4463   23.3442 C   0  0  0  0  0  0
  -28.1443  -25.0894   19.8880 C   0  0  0  0  0  0
  -29.0506  -24.0281   20.6048 C   0  0  0  0  0  0
  -30.1360  -15.7333   20.8884 N   0  0  0  0  0  0
  -30.5408  -22.5503   22.3731 O   0  0  0  0  0  0
  -28.8681  -22.7017   20.0242 O   0  0  0  0  0  0
  -31.4523  -12.4136   19.1456 H   0  0  0  0  0  0
  -30.2945  -11.3687   19.9085 H   0  0  0  0  0  0
  -29.7462  -11.7433   17.4736 H   0  0  0  0  0  0
  -29.6454  -13.4656   17.7469 H   0  0  0  0  0  0
  -27.8609  -11.2940   18.8899 H   0  0  0  0  0  0
  -27.3593  -12.5593   17.8040 H   0  0  0  0  0  0
  -27.6577  -14.2597   19.5048 H   0  0  0  0  0  0
  -28.6925  -12.1379   21.4475 H   0  0  0  0  0  0
  -28.4686  -13.8351   21.7971 H   0  0  0  0  0  0
  -25.2756   -9.5685   22.4785 H   0  0  0  0  0  0
  -23.9989   -7.4636   22.7486 H   0  0  0  0  0  0
  -21.0858   -8.8780   19.8937 H   0  0  0  0  0  0
  -22.3721  -10.9675   19.6160 H   0  0  0  0  0  0
  -21.1990   -7.6144   23.9707 H   0  0  0  0  0  0
  -21.1474   -6.0524   25.9076 H   0  0  0  0  0  0
  -22.0607   -2.7608   23.2848 H   0  0  0  0  0  0
  -22.4070  -11.9845   22.4732 H   0  0  0  0  0  0
  -21.1076  -13.1218   22.2571 H   0  0  0  0  0  0
  -24.6573  -15.8494   20.5111 H   0  0  0  0  0  0
  -26.2827  -15.6265   20.0984 H   0  0  0  0  0  0
  -26.7142  -32.5540   23.1143 H   0  0  0  0  0  0
  -25.0043  -33.9741   25.0455 H   0  0  0  0  0  0
  -22.7085  -31.3133   21.4130 H   0  0  0  0  0  0
  -23.3756  -35.9603   23.3305 H   0  0  0  0  0  0
  -24.3548  -36.8920   22.2041 H   0  0  0  0  0  0
  -23.7205  -37.6481   23.6667 H   0  0  0  0  0  0
  -26.0686  -31.5707   20.6053 H   0  0  0  0  0  0
  -26.8378  -30.8635   21.9967 H   0  0  0  0  0  0
  -28.1000  -28.9949   21.2130 H   0  0  0  0  0  0
  -25.9723  -26.0022   18.9163 H   0  0  0  0  0  0
  -23.9681  -27.3552   18.9720 H   0  0  0  0  0  0
  -23.7372  -30.6171   19.4101 H   0  0  0  0  0  0
  -22.7479  -29.2580   19.8632 H   0  0  0  0  0  0
  -25.1277  -36.1967   25.0821 H   0  0  0  0  0  0
  -20.9961  -28.3257   24.1412 H   0  0  0  0  0  0
  -20.5710  -26.2280   23.3574 H   0  0  0  0  0  0
  -21.6634  -26.7478   22.1143 H   0  0  0  0  0  0
  -19.6892  -25.6319   21.1212 H   0  0  0  0  0  0
  -19.6657  -27.3242   20.6750 H   0  0  0  0  0  0
  -17.4170  -26.6677   21.4051 H   0  0  0  0  0  0
  -18.0309  -26.0063   22.9022 H   0  0  0  0  0  0
  -19.7925  -30.7215   24.2354 H   0  0  0  0  0  0
  -17.5028  -31.6296   24.5132 H   0  0  0  0  0  0
  -15.5355  -30.3020   23.7660 H   0  0  0  0  0  0
  -15.8648  -28.0838   22.7112 H   0  0  0  0  0  0
  -24.5929  -30.7013   25.7689 H   0  0  0  0  0  0
  -24.8885  -32.2775   26.4926 H   0  0  0  0  0  0
  -25.8035  -30.8748   27.0180 H   0  0  0  0  0  0
  -26.2984  -29.6790   24.1191 H   0  0  0  0  0  0
  -27.4189  -29.7352   25.4614 H   0  0  0  0  0  0
  -27.8803  -30.4430   23.9325 H   0  0  0  0  0  0
  -27.2628  -33.3676   26.2080 H   0  0  0  0  0  0
  -28.3883  -32.6894   25.0398 H   0  0  0  0  0  0
  -28.0665  -31.8504   26.5495 H   0  0  0  0  0  0
  -28.2567  -38.0131   24.7568 H   0  0  0  0  0  0
  -28.1091  -36.2661   24.6277 H   0  0  0  0  0  0
  -27.2263  -37.1434   25.8864 H   0  0  0  0  0  0
  -20.9320  -29.8819   21.6959 H   0  0  0  0  0  0
  -26.0176  -38.2873   24.1442 H   0  0  0  0  0  0
  -30.7466  -20.0468   23.3790 H   0  0  0  0  0  0
  -28.8508  -17.1758   22.8005 H   0  0  0  0  0  0
  -30.2247  -17.8120   23.6287 H   0  0  0  0  0  0
  -28.0368  -17.8172   19.1076 H   0  0  0  0  0  0
  -27.8123  -17.2062   20.6969 H   0  0  0  0  0  0
  -30.5537  -17.0975   19.3029 H   0  0  0  0  0  0
  -29.3130  -15.9477   18.9742 H   0  0  0  0  0  0
  -30.9392  -15.8011   22.7853 H   0  0  0  0  0  0
  -28.5475  -19.6884   17.9674 H   0  0  0  0  0  0
  -28.0404  -21.3301   18.2706 H   0  0  0  0  0  0
  -27.0284  -20.0062   18.8226 H   0  0  0  0  0  0
  -32.1401  -17.7968   20.8020 H   0  0  0  0  0  0
  -32.9217  -16.3716   21.4852 H   0  0  0  0  0  0
  -32.5253  -17.7188   22.5085 H   0  0  0  0  0  0
  -32.0050  -23.4328   23.5117 H   0  0  0  0  0  0
  -32.3823  -21.7930   23.0108 H   0  0  0  0  0  0
  -31.1863  -22.0904   24.2994 H   0  0  0  0  0  0
  -27.1361  -24.7710   20.1519 H   0  0  0  0  0  0
  -28.2368  -24.9638   18.8091 H   0  0  0  0  0  0
  -28.7805  -24.0306   21.6610 H   0  0  0  0  0  0
  -30.0978  -24.3176   20.5209 H   0  0  0  0  0  0
  1 25  1  0  0  0
  1 30  2  0  0  0
  1 86  1  0  0  0
  2  3  1  0  0  0
  2 25  1  0  0  0
  2 89  1  0  0  0
  2 90  1  0  0  0
  3  4  1  0  0  0
  3 91  1  0  0  0
  3 92  1  0  0  0
  4  5  1  0  0  0
  4 93  1  0  0  0
  4 94  1  0  0  0
  5  6  1  0  0  0
  5 26  1  0  0  0
  5 95  1  0  0  0
  6 25  1  0  0  0
  6 96  1  0  0  0
  6 97  1  0  0  0
  7  8  2  0  0  0
  7 26  1  0  0  0
  7 29  1  0  0  0
  8  9  1  0  0  0
  8 22  1  0  0  0
  9 10  1  0  0  0
  9 27  2  0  0  0
 10 11  2  0  0  0
 10 15  1  0  0  0
 11 12  1  0  0  0
 11 98  1  0  0  0
 12 13  2  0  0  0
 12 99  1  0  0  0
 13 14  1  0  0  0
 13 31  1  0  0  0
 14 15  2  0  0  0
 14100  1  0  0  0
 15101  1  0  0  0
 16 17  2  0  0  0
 16 21  1  0  0  0
 16 31  1  0  0  0
 17 18  1  0  0  0
 17102  1  0  0  0
 18 19  2  0  0  0
 18103  1  0  0  0
 19 20  1  0  0  0
 19 24  1  0  0  0
 20 21  2  0  0  0
 20104  1  0  0  0
 21 23  1  0  0  0
 22 28  1  0  0  0
 22 32  2  0  0  0
 26 27  1  0  0  0
 28105  1  0  0  0
 28106  1  0  0  0
 29107  1  0  0  0
 29108  1  0  0  0
 33 34  1  0  0  0
 33 66  1  0  0  0
 33 70  2  0  0  0
 34 36  1  0  0  0
 34 59  1  0  0  0
 34109  1  0  0  0
 35 44  2  0  0  0
 35 45  1  0  0  0
 35 68  1  0  0  0
 36 56  1  0  0  0
 36110  1  0  0  0
 37 39  1  0  0  0
 37 47  1  0  0  0
 37 66  1  0  0  0
 37111  1  0  0  0
 38 43  2  0  0  0
 38 46  1  0  0  0
 38 47  1  0  0  0
 39 64  1  0  0  0
 39 67  2  0  0  0
 40 52  1  0  0  0
 40 53  2  0  0  0
 40 58  1  0  0  0
 41112  1  0  0  0
 41113  1  0  0  0
 41114  1  0  0  0
 41 48  1  0  0  0
 42 43  1  0  0  0
 42 66  1  0  0  0
 42115  1  0  0  0
 42116  1  0  0  0
 43 44  1  0  0  0
 44117  1  0  0  0
 45 46  2  0  0  0
 45118  1  0  0  0
 46119  1  0  0  0
 47120  1  0  0  0
 47121  1  0  0  0
 48 56  1  0  0  0
 48 65  1  0  0  0
 48122  1  0  0  0
 49 50  1  0  0  0
 49 53  1  0  0  0
 49 64  1  0  0  0
 49123  1  0  0  0
 50 51  1  0  0  0
 50124  1  0  0  0
 50125  1  0  0  0
 51 52  1  0  0  0
 51126  1  0  0  0
 51127  1  0  0  0
 52128  1  0  0  0
 52129  1  0  0  0
 53 54  1  0  0  0
 54 55  2  0  0  0
 54130  1  0  0  0
 55 57  1  0  0  0
 55131  1  0  0  0
 56 69  2  0  0  0
 57 58  2  0  0  0
 57132  1  0  0  0
 58133  1  0  0  0
 59 60  1  0  0  0
 59 61  1  0  0  0
 59 62  1  0  0  0
 60134  1  0  0  0
 60135  1  0  0  0
 60136  1  0  0  0
 61137  1  0  0  0
 61138  1  0  0  0
 61139  1  0  0  0
 62140  1  0  0  0
 62141  1  0  0  0
 62142  1  0  0  0
 63 65  1  0  0  0
 63143  1  0  0  0
 63144  1  0  0  0
 63145  1  0  0  0
 64146  1  0  0  0
 65147  1  0  0  0
 68 84  1  0  0  0
 71 72  2  0  0  0
 71 75  1  0  0  0
 71148  1  0  0  0
 72 73  1  0  0  0
 72 77  1  0  0  0
 73 74  2  0  0  0
 73 78  1  0  0  0
 74 76  1  0  0  0
 74 81  1  0  0  0
 75 76  2  0  0  0
 75 87  1  0  0  0
 76 88  1  0  0  0
 77 80  1  0  0  0
 77149  1  0  0  0
 77150  1  0  0  0
 78 79  1  0  0  0
 78151  1  0  0  0
 78152  1  0  0  0
 79 86  1  0  0  0
 79153  1  0  0  0
 79154  1  0  0  0
 80 82  1  0  0  0
 80 86  1  0  0  0
 80155  1  0  0  0
 81156  1  0  0  0
 81157  1  0  0  0
 81158  1  0  0  0
 82159  1  0  0  0
 82160  1  0  0  0
 82161  1  0  0  0
 83 87  1  0  0  0
 83162  1  0  0  0
 83163  1  0  0  0
 83164  1  0  0  0
 84 85  1  0  0  0
 84165  1  0  0  0
 84166  1  0  0  0
 85 88  1  0  0  0
 85167  1  0  0  0
 85168  1  0  0  0
M  ISO  4   1 100  68 101  84 101  86 100
M  END
> <chiral flag>
0

> <version>
0

> <s_m_source_file>
/data/baiqing/PycharmProjects/Reinvent-master-3.2/result/LINK_invent/BTK/process_docking_weight1_custom_sum_contain_oxygen_bond_distance_aromatic_linkinvent_7_9_3/rearranged_h_0154.sdf

> <i_m_source_file_index>
13

> <r_mmod_Potential_Energy-OPLS-2005>
292.561859130859

> <r_mmod_Stretch_Energy-OPLS-2005>
71.714714050293

> <r_mmod_Bend_Energy-OPLS-2005>
161.207733154297

> <r_mmod_Torsional_Energy-OPLS-2005>
337.498901367188

> <r_mmod_Improper_Torsional_Energy-OPLS-2005>
8.63268375396729

> <r_mmod_Van_der_Waal_Energy-OPLS-2005>
175.623443603516

> <r_mmod_Electrostatic_Energy-OPLS-2005>
-299.751495361328

> <r_mmod_Solvation_Energy-OPLS-2005>
-200.735794067383

> <b_mmod_Minimization_Converged-OPLS-2005>
0

> <r_mmod_RMS_Derivative-OPLS-2005>
2.2685489654541

$$$$
14
                    3D
 Structure written by MMmdl.
162171  0  0  1  0            999 V2000
  -30.7116  -14.4796   20.5981 C   0  0  0  0  0  0
  -30.4217  -12.3258   19.4185 C   0  0  0  0  0  0
  -29.4908  -12.5106   18.2035 C   0  0  0  0  0  0
  -28.0141  -12.3648   18.6197 C   0  0  0  0  0  0
  -27.6590  -13.2099   19.8725 C   0  0  2  0  0  0
  -28.7011  -13.0016   20.9931 C   0  0  0  0  0  0
  -25.2581  -13.8174   20.5690 C   0  0  0  0  0  0
  -24.1834  -13.0447   20.9182 C   0  0  0  0  0  0
  -24.6389  -11.6913   20.8735 C   0  0  0  0  0  0
  -23.9057  -10.4297   21.0404 C   0  0  0  0  0  0
  -24.3611   -9.4213   21.9182 C   0  0  0  0  0  0
  -23.6289   -8.2246   22.0752 C   0  0  0  0  0  0
  -22.4272   -8.0282   21.3543 C   0  0  0  0  0  0
  -21.9905   -9.0255   20.4645 C   0  0  0  0  0  0
  -22.7229  -10.2136   20.3054 C   0  0  0  0  0  0
  -21.6853   -6.0735   22.5278 C   0  0  0  0  0  0
  -21.4014   -6.5639   23.8211 C   0  0  0  0  0  0
  -21.3659   -5.6791   24.9173 C   0  0  0  0  0  0
  -21.6044   -4.3054   24.7224 C   0  0  0  0  0  0
  -21.8820   -3.8146   23.4345 C   0  0  0  0  0  0
  -21.9193   -4.6963   22.3401 C   0  0  0  0  0  0
  -22.7860  -13.5247   21.1847 C   0  0  0  0  0  0
  -22.1661   -4.2148   21.0979 F   0  0  0  0  0  0
  -21.5629   -3.4539   25.7737 F   0  0  0  0  0  0
  -30.0286  -13.3128   20.4374 N   0  0  0  0  0  0
  -26.3013  -12.9345   20.3363 N   0  0  0  0  0  0
  -25.9316  -11.6501   20.5764 N   0  0  0  0  0  0
  -22.0498  -12.8237   22.0398 N   0  0  0  0  0  0
  -25.4308  -15.1891   20.4101 N   0  0  0  0  0  0
  -31.8247  -14.6750   20.1050 O   0  0  0  0  0  0
  -21.6639   -6.8877   21.4239 O   0  0  0  0  0  0
  -22.3551  -14.5559   20.6702 O   0  0  0  0  0  0
  -24.6165  -31.8671   23.2099 C   0  0  0  0  0  0
  -25.9053  -32.4818   23.8396 C   0  0  1  0  0  0
  -27.2245  -27.4073   20.1110 C   0  0  0  0  0  0
  -25.5906  -33.8617   24.2329 N   0  0  0  0  0  0
  -23.4055  -30.4910   21.5507 C   0  0  2  0  0  0
  -24.8519  -28.9545   20.1163 C   0  0  0  0  0  0
  -22.7421  -29.4654   22.4984 C   0  0  0  0  0  0
  -18.0275  -28.1378   22.8492 C   0  0  0  0  0  0
  -24.1486  -36.7309   23.2638 C   0  0  0  0  0  0
  -25.9370  -30.8231   21.3694 C   0  0  0  0  0  0
  -26.0126  -29.4539   20.7216 C   0  0  0  0  0  0
  -27.2036  -28.6867   20.7184 C   0  0  0  0  0  0
  -26.0559  -26.9435   19.4714 C   0  0  0  0  0  0
  -24.8690  -27.6981   19.4883 C   0  0  0  0  0  0
  -23.6158  -29.8247   20.1651 C   0  0  0  0  0  0
  -25.4107  -36.3109   24.0339 C   0  0  1  0  0  0
  -20.5866  -28.3668   23.1312 C   0  0  2  0  0  0
  -20.6766  -26.9402   22.5416 C   0  0  0  0  0  0
  -19.5745  -26.6385   21.5213 C   0  0  0  0  0  0
  -18.1922  -26.7924   22.1623 C   0  0  0  0  0  0
  -19.1525  -28.8839   23.2899 C   0  0  0  0  0  0
  -18.9453  -30.1445   23.8911 C   0  0  0  0  0  0
  -17.6455  -30.6585   24.0566 C   0  0  0  0  0  0
  -25.9036  -34.9474   23.5131 C   0  0  0  0  0  0
  -16.5346  -29.9086   23.6328 C   0  0  0  0  0  0
  -16.7264  -28.6503   23.0350 C   0  0  0  0  0  0
  -26.4477  -31.6596   25.0725 C   0  0  0  0  0  0
  -25.3742  -31.3699   26.1474 C   0  0  0  0  0  0
  -27.0307  -30.3036   24.6104 C   0  0  0  0  0  0
  -27.6055  -32.4313   25.7484 C   0  0  0  0  0  0
  -27.5580  -37.1808   24.8465 C   0  0  0  0  0  0
  -21.4146  -29.3034   22.3720 N   0  0  0  0  0  0
  -26.4293  -37.3795   23.9411 N   0  0  0  0  0  0
  -24.6712  -31.0754   22.1013 N   0  0  0  0  0  0
  -23.4183  -28.8197   23.3034 O   0  0  0  0  0  0
  -28.3759  -26.6421   20.0723 O   0  0  0  0  0  0
  -26.5596  -34.8926   22.4691 O   0  0  0  0  0  0
  -23.5353  -32.1433   23.7481 O   0  0  0  0  0  0
  -29.4370  -22.2201   20.2143 C   0  0  0  0  0  0
  -29.7660  -20.8488   20.3639 C   0  0  0  0  0  0
  -27.3145  -21.8237   21.3002 C   0  0  0  0  0  0
  -28.2040  -22.7292   20.6796 C   0  0  0  0  0  0
  -27.6352  -20.4490   21.4595 C   0  0  0  0  0  0
  -28.8722  -19.9424   20.9942 C   0  0  0  0  0  0
  -25.5614  -19.6201   22.6267 C   0  0  0  0  0  0
  -27.2984  -24.9570   21.6870 C   0  0  0  0  0  0
  -27.7629  -24.1728   20.4730 C   0  0  1  0  0  0
  -28.4996  -25.4498   20.9037 C   0  0  1  0  0  0
  -24.9126  -18.3331   23.1212 C   0  0  0  0  0  0
  -30.6656  -16.7362   21.7098 C   0  0  0  0  0  0
  -30.3573  -17.9842   20.8338 C   0  0  0  0  0  0
  -26.7679  -19.4893   22.0528 N   0  0  0  0  0  0
  -30.0734  -15.4574   21.2695 N   0  0  0  0  0  0
  -24.9634  -20.6857   22.7836 O   0  0  0  0  0  0
  -29.1038  -18.5810   21.1922 O   0  0  0  0  0  0
  -31.4647  -12.4307   19.1143 H   0  0  0  0  0  0
  -30.3312  -11.3162   19.8220 H   0  0  0  0  0  0
  -29.7337  -11.7829   17.4280 H   0  0  0  0  0  0
  -29.6523  -13.4949   17.7611 H   0  0  0  0  0  0
  -27.8306  -11.3089   18.8222 H   0  0  0  0  0  0
  -27.3603  -12.6316   17.7885 H   0  0  0  0  0  0
  -27.7005  -14.2567   19.5705 H   0  0  0  0  0  0
  -28.6841  -11.9675   21.3402 H   0  0  0  0  0  0
  -28.4562  -13.6049   21.8679 H   0  0  0  0  0  0
  -25.2758   -9.5690   22.4753 H   0  0  0  0  0  0
  -24.0001   -7.4638   22.7471 H   0  0  0  0  0  0
  -21.0836   -8.8770   19.8951 H   0  0  0  0  0  0
  -22.3686  -10.9673   19.6161 H   0  0  0  0  0  0
  -21.2007   -7.6147   23.9714 H   0  0  0  0  0  0
  -21.1480   -6.0522   25.9076 H   0  0  0  0  0  0
  -22.0599   -2.7608   23.2846 H   0  0  0  0  0  0
  -22.4108  -11.9890   22.4777 H   0  0  0  0  0  0
  -21.1116  -13.1264   22.2604 H   0  0  0  0  0  0
  -24.6599  -15.8414   20.4996 H   0  0  0  0  0  0
  -26.2815  -15.6223   20.0738 H   0  0  0  0  0  0
  -26.7122  -32.5526   23.1158 H   0  0  0  0  0  0
  -25.0072  -33.9777   25.0484 H   0  0  0  0  0  0
  -22.6953  -31.3087   21.4112 H   0  0  0  0  0  0
  -23.3748  -35.9643   23.3310 H   0  0  0  0  0  0
  -24.3582  -36.8912   22.2050 H   0  0  0  0  0  0
  -23.7238  -37.6518   23.6644 H   0  0  0  0  0  0
  -26.0528  -31.5853   20.5976 H   0  0  0  0  0  0
  -26.8243  -30.8781   21.9884 H   0  0  0  0  0  0
  -28.1006  -29.0681   21.1862 H   0  0  0  0  0  0
  -26.0543  -25.9948   18.9576 H   0  0  0  0  0  0
  -23.9816  -27.3134   19.0047 H   0  0  0  0  0  0
  -23.7274  -30.6002   19.4065 H   0  0  0  0  0  0
  -22.7389  -29.2471   19.8672 H   0  0  0  0  0  0
  -25.1283  -36.1976   25.0833 H   0  0  0  0  0  0
  -20.9958  -28.3233   24.1433 H   0  0  0  0  0  0
  -20.5674  -26.2273   23.3603 H   0  0  0  0  0  0
  -21.6637  -26.7447   22.1205 H   0  0  0  0  0  0
  -19.6909  -25.6301   21.1231 H   0  0  0  0  0  0
  -19.6685  -27.3207   20.6751 H   0  0  0  0  0  0
  -17.4193  -26.6677   21.4023 H   0  0  0  0  0  0
  -18.0322  -26.0061   22.9014 H   0  0  0  0  0  0
  -19.7931  -30.7256   24.2286 H   0  0  0  0  0  0
  -17.5012  -31.6267   24.5164 H   0  0  0  0  0  0
  -15.5348  -30.2995   23.7646 H   0  0  0  0  0  0
  -15.8661  -28.0829   22.7057 H   0  0  0  0  0  0
  -24.5920  -30.7039   25.7812 H   0  0  0  0  0  0
  -24.8926  -32.2852   26.4928 H   0  0  0  0  0  0
  -25.8098  -30.8868   27.0228 H   0  0  0  0  0  0
  -26.2851  -29.6798   24.1158 H   0  0  0  0  0  0
  -27.4078  -29.7270   25.4561 H   0  0  0  0  0  0
  -27.8688  -30.4354   23.9255 H   0  0  0  0  0  0
  -27.2680  -33.3606   26.2085 H   0  0  0  0  0  0
  -28.3851  -32.6883   25.0299 H   0  0  0  0  0  0
  -28.0739  -31.8421   26.5378 H   0  0  0  0  0  0
  -28.2604  -38.0101   24.7517 H   0  0  0  0  0  0
  -28.1071  -36.2635   24.6288 H   0  0  0  0  0  0
  -27.2300  -37.1454   25.8869 H   0  0  0  0  0  0
  -20.9310  -29.8757   21.6941 H   0  0  0  0  0  0
  -26.0183  -38.2873   24.1414 H   0  0  0  0  0  0
  -30.1344  -22.8803   19.7169 H   0  0  0  0  0  0
  -30.7139  -20.5152   19.9697 H   0  0  0  0  0  0
  -26.3655  -22.2144   21.6327 H   0  0  0  0  0  0
  -27.5145  -24.5432   22.6698 H   0  0  0  0  0  0
  -26.3367  -25.4568   21.6173 H   0  0  0  0  0  0
  -27.1565  -24.2269   19.5733 H   0  0  0  0  0  0
  -29.4930  -25.3442   21.3355 H   0  0  0  0  0  0
  -25.5193  -17.4560   22.8927 H   0  0  0  0  0  0
  -23.9379  -18.2003   22.6517 H   0  0  0  0  0  0
  -24.7691  -18.3754   24.2008 H   0  0  0  0  0  0
  -30.3536  -16.9303   22.7365 H   0  0  0  0  0  0
  -31.7497  -16.6202   21.7657 H   0  0  0  0  0  0
  -30.3776  -17.7418   19.7707 H   0  0  0  0  0  0
  -31.1668  -18.6904   21.0173 H   0  0  0  0  0  0
  -27.1355  -18.5473   22.0278 H   0  0  0  0  0  0
  -29.1429  -15.2463   21.5982 H   0  0  0  0  0  0
  1 25  1  0  0  0
  1 30  2  0  0  0
  1 85  1  0  0  0
  2  3  1  0  0  0
  2 25  1  0  0  0
  2 88  1  0  0  0
  2 89  1  0  0  0
  3  4  1  0  0  0
  3 90  1  0  0  0
  3 91  1  0  0  0
  4  5  1  0  0  0
  4 92  1  0  0  0
  4 93  1  0  0  0
  5  6  1  0  0  0
  5 26  1  0  0  0
  5 94  1  0  0  0
  6 25  1  0  0  0
  6 95  1  0  0  0
  6 96  1  0  0  0
  7  8  2  0  0  0
  7 26  1  0  0  0
  7 29  1  0  0  0
  8  9  1  0  0  0
  8 22  1  0  0  0
  9 10  1  0  0  0
  9 27  2  0  0  0
 10 11  2  0  0  0
 10 15  1  0  0  0
 11 12  1  0  0  0
 11 97  1  0  0  0
 12 13  2  0  0  0
 12 98  1  0  0  0
 13 14  1  0  0  0
 13 31  1  0  0  0
 14 15  2  0  0  0
 14 99  1  0  0  0
 15100  1  0  0  0
 16 17  2  0  0  0
 16 21  1  0  0  0
 16 31  1  0  0  0
 17 18  1  0  0  0
 17101  1  0  0  0
 18 19  2  0  0  0
 18102  1  0  0  0
 19 20  1  0  0  0
 19 24  1  0  0  0
 20 21  2  0  0  0
 20103  1  0  0  0
 21 23  1  0  0  0
 22 28  1  0  0  0
 22 32  2  0  0  0
 26 27  1  0  0  0
 28104  1  0  0  0
 28105  1  0  0  0
 29106  1  0  0  0
 29107  1  0  0  0
 33 34  1  0  0  0
 33 66  1  0  0  0
 33 70  2  0  0  0
 34 36  1  0  0  0
 34 59  1  0  0  0
 34108  1  0  0  0
 35 44  2  0  0  0
 35 45  1  0  0  0
 35 68  1  0  0  0
 36 56  1  0  0  0
 36109  1  0  0  0
 37 39  1  0  0  0
 37 47  1  0  0  0
 37 66  1  0  0  0
 37110  1  0  0  0
 38 43  2  0  0  0
 38 46  1  0  0  0
 38 47  1  0  0  0
 39 64  1  0  0  0
 39 67  2  0  0  0
 40 52  1  0  0  0
 40 53  2  0  0  0
 40 58  1  0  0  0
 41111  1  0  0  0
 41112  1  0  0  0
 41113  1  0  0  0
 41 48  1  0  0  0
 42 43  1  0  0  0
 42 66  1  0  0  0
 42114  1  0  0  0
 42115  1  0  0  0
 43 44  1  0  0  0
 44116  1  0  0  0
 45 46  2  0  0  0
 45117  1  0  0  0
 46118  1  0  0  0
 47119  1  0  0  0
 47120  1  0  0  0
 48 56  1  0  0  0
 48 65  1  0  0  0
 48121  1  0  0  0
 49 50  1  0  0  0
 49 53  1  0  0  0
 49 64  1  0  0  0
 49122  1  0  0  0
 50 51  1  0  0  0
 50123  1  0  0  0
 50124  1  0  0  0
 51 52  1  0  0  0
 51125  1  0  0  0
 51126  1  0  0  0
 52127  1  0  0  0
 52128  1  0  0  0
 53 54  1  0  0  0
 54 55  2  0  0  0
 54129  1  0  0  0
 55 57  1  0  0  0
 55130  1  0  0  0
 56 69  2  0  0  0
 57 58  2  0  0  0
 57131  1  0  0  0
 58132  1  0  0  0
 59 60  1  0  0  0
 59 61  1  0  0  0
 59 62  1  0  0  0
 60133  1  0  0  0
 60134  1  0  0  0
 60135  1  0  0  0
 61136  1  0  0  0
 61137  1  0  0  0
 61138  1  0  0  0
 62139  1  0  0  0
 62140  1  0  0  0
 62141  1  0  0  0
 63 65  1  0  0  0
 63142  1  0  0  0
 63143  1  0  0  0
 63144  1  0  0  0
 64145  1  0  0  0
 65146  1  0  0  0
 68 80  1  0  0  0
 71 72  2  0  0  0
 71 74  1  0  0  0
 71147  1  0  0  0
 72 76  1  0  0  0
 72148  1  0  0  0
 73 74  2  0  0  0
 73 75  1  0  0  0
 73149  1  0  0  0
 74 79  1  0  0  0
 75 76  2  0  0  0
 75 84  1  0  0  0
 76 87  1  0  0  0
 77 81  1  0  0  0
 77 84  1  0  0  0
 77 86  2  0  0  0
 78 79  1  0  0  0
 78 80  1  0  0  0
 78150  1  0  0  0
 78151  1  0  0  0
 79 80  1  0  0  0
 79152  1  0  0  0
 80153  1  0  0  0
 81154  1  0  0  0
 81155  1  0  0  0
 81156  1  0  0  0
 82 83  1  0  0  0
 82 85  1  0  0  0
 82157  1  0  0  0
 82158  1  0  0  0
 83 87  1  0  0  0
 83159  1  0  0  0
 83160  1  0  0  0
 84161  1  0  0  0
 85162  1  0  0  0
M  ISO  4   1 100  68 101  80 101  85 100
M  END
> <chiral flag>
0

> <version>
0

> <s_m_source_file>
/data/baiqing/PycharmProjects/Reinvent-master-3.2/result/LINK_invent/BTK/process_docking_weight1_custom_sum_contain_oxygen_bond_distance_aromatic_linkinvent_7_9_3/rearranged_h_0154.sdf

> <i_m_source_file_index>
14

> <r_mmod_Potential_Energy-OPLS-2005>
-127.531219482422

> <r_mmod_Stretch_Energy-OPLS-2005>
44.3151512145996

> <r_mmod_Bend_Energy-OPLS-2005>
141.55842590332

> <r_mmod_Torsional_Energy-OPLS-2005>
254.219680786133

> <r_mmod_Improper_Torsional_Energy-OPLS-2005>
2.57125973701477

> <r_mmod_Van_der_Waal_Energy-OPLS-2005>
156.318084716797

> <r_mmod_Electrostatic_Energy-OPLS-2005>
-513.151062011719

> <r_mmod_Solvation_Energy-OPLS-2005>
-227.728210449219

> <b_mmod_Minimization_Converged-OPLS-2005>
0

> <r_mmod_RMS_Derivative-OPLS-2005>
0.233958765864372

$$$$
15
                    3D
 Structure written by MMmdl.
170179  0  0  1  0            999 V2000
  -30.6545  -14.6503   20.4461 C   0  0  0  0  0  0
  -30.4193  -12.3903   19.4672 C   0  0  0  0  0  0
  -29.5034  -12.4917   18.2291 C   0  0  0  0  0  0
  -28.0276  -12.3345   18.6414 C   0  0  0  0  0  0
  -27.6443  -13.2273   19.8528 C   0  0  2  0  0  0
  -28.6880  -13.1403   20.9884 C   0  0  0  0  0  0
  -25.2523  -13.8196   20.5683 C   0  0  0  0  0  0
  -24.1809  -13.0445   20.9197 C   0  0  0  0  0  0
  -24.6394  -11.6922   20.8747 C   0  0  0  0  0  0
  -23.9069  -10.4297   21.0410 C   0  0  0  0  0  0
  -24.3622   -9.4212   21.9187 C   0  0  0  0  0  0
  -23.6297   -8.2246   22.0757 C   0  0  0  0  0  0
  -22.4277   -8.0282   21.3546 C   0  0  0  0  0  0
  -21.9915   -9.0255   20.4646 C   0  0  0  0  0  0
  -22.7244  -10.2136   20.3056 C   0  0  0  0  0  0
  -21.6857   -6.0738   22.5280 C   0  0  0  0  0  0
  -21.4015   -6.5641   23.8211 C   0  0  0  0  0  0
  -21.3658   -5.6794   24.9173 C   0  0  0  0  0  0
  -21.6043   -4.3058   24.7225 C   0  0  0  0  0  0
  -21.8819   -3.8149   23.4347 C   0  0  0  0  0  0
  -21.9192   -4.6965   22.3404 C   0  0  0  0  0  0
  -22.7830  -13.5229   21.1857 C   0  0  0  0  0  0
  -22.1663   -4.2152   21.0982 F   0  0  0  0  0  0
  -21.5628   -3.4541   25.7738 F   0  0  0  0  0  0
  -29.9987  -13.4493   20.4077 N   0  0  0  0  0  0
  -26.2948  -12.9398   20.3286 N   0  0  0  0  0  0
  -25.9324  -11.6546   20.5763 N   0  0  0  0  0  0
  -22.0474  -12.8213   22.0407 N   0  0  0  0  0  0
  -25.4207  -15.1918   20.4104 N   0  0  0  0  0  0
  -31.8523  -14.7136   20.1625 O   0  0  0  0  0  0
  -21.6643   -6.8878   21.4241 O   0  0  0  0  0  0
  -22.3511  -14.5536   20.6709 O   0  0  0  0  0  0
  -24.6255  -31.8593   23.2020 C   0  0  0  0  0  0
  -25.9113  -32.4775   23.8342 C   0  0  1  0  0  0
  -27.2196  -27.3238   20.1291 C   0  0  0  0  0  0
  -25.5931  -33.8574   24.2277 N   0  0  0  0  0  0
  -23.4190  -30.4819   21.5436 C   0  0  2  0  0  0
  -24.8662  -28.9346   20.1107 C   0  0  0  0  0  0
  -22.7477  -29.4616   22.4938 C   0  0  0  0  0  0
  -18.0287  -28.1384   22.8476 C   0  0  0  0  0  0
  -24.1491  -36.7290   23.2639 C   0  0  0  0  0  0
  -25.9575  -30.7953   21.3675 C   0  0  0  0  0  0
  -26.0340  -29.4208   20.7142 C   0  0  0  0  0  0
  -27.2180  -28.6274   20.7101 C   0  0  0  0  0  0
  -26.0358  -26.8834   19.5042 C   0  0  0  0  0  0
  -24.8690  -27.6722   19.4940 C   0  0  0  0  0  0
  -23.6335  -29.8143   20.1589 C   0  0  0  0  0  0
  -25.4111  -36.3077   24.0333 C   0  0  1  0  0  0
  -20.5887  -28.3688   23.1289 C   0  0  2  0  0  0
  -20.6777  -26.9411   22.5412 C   0  0  0  0  0  0
  -19.5753  -26.6384   21.5213 C   0  0  0  0  0  0
  -18.1930  -26.7925   22.1619 C   0  0  0  0  0  0
  -19.1539  -28.8852   23.2876 C   0  0  0  0  0  0
  -18.9463  -30.1453   23.8893 C   0  0  0  0  0  0
  -17.6464  -30.6582   24.0563 C   0  0  0  0  0  0
  -25.9055  -34.9448   23.5107 C   0  0  0  0  0  0
  -16.5355  -29.9081   23.6332 C   0  0  0  0  0  0
  -16.7275  -28.6505   23.0340 C   0  0  0  0  0  0
  -26.4505  -31.6573   25.0701 C   0  0  0  0  0  0
  -25.3746  -31.3693   26.1434 C   0  0  0  0  0  0
  -27.0349  -30.3011   24.6113 C   0  0  0  0  0  0
  -27.6067  -32.4298   25.7476 C   0  0  0  0  0  0
  -27.5577  -37.1793   24.8463 C   0  0  0  0  0  0
  -21.4191  -29.3040   22.3685 N   0  0  0  0  0  0
  -26.4285  -37.3773   23.9417 N   0  0  0  0  0  0
  -24.6864  -31.0614   22.0956 N   0  0  0  0  0  0
  -23.4205  -28.8160   23.3015 O   0  0  0  0  0  0
  -28.3239  -26.4669   20.1460 O   0  0  0  0  0  0
  -26.5611  -34.8918   22.4667 O   0  0  0  0  0  0
  -23.5423  -32.1379   23.7357 O   0  0  0  0  0  0
  -28.6597  -20.6865   19.5720 C   0  0  0  0  0  0
  -29.7120  -20.5283   21.7161 C   0  0  0  0  0  0
  -28.9560  -19.3051   19.3344 C   0  0  0  0  0  0
  -29.7077  -18.5103   20.2616 C   0  0  0  0  0  0
  -30.0430  -19.1575   21.4846 C   0  0  0  0  0  0
  -29.0559  -21.3482   20.7611 C   0  0  0  0  0  0
  -28.4865  -18.7158   18.0112 C   0  0  0  0  0  0
  -28.8717  -17.2432   17.8103 C   0  0  0  0  0  0
  -30.3294  -17.1064   19.8442 C   0  0  2  0  0  0
  -30.3046  -16.9381   18.2904 C   0  0  2  0  0  0
  -30.8162  -18.4088   22.5568 C   0  0  0  0  0  0
  -32.8319  -17.3801   17.9254 C   0  0  0  0  0  0
  -31.2615  -17.6368   15.9994 C   0  0  0  0  0  0
  -28.1385  -25.1508   20.8012 C   0  0  0  0  0  0
  -28.5950  -23.7797   20.1176 C   0  0  0  0  0  0
  -31.3925  -17.7663   17.5304 C   0  0  0  0  0  0
  -29.9008  -15.8023   20.4830 N   0  0  0  0  0  0
  -28.8131  -22.6999   21.0900 O   0  0  0  0  0  0
  -31.4652  -12.4837   19.1699 H   0  0  0  0  0  0
  -30.3284  -11.4090   19.9362 H   0  0  0  0  0  0
  -29.7703  -11.7270   17.4984 H   0  0  0  0  0  0
  -29.6485  -13.4536   17.7342 H   0  0  0  0  0  0
  -27.8698  -11.2849   18.8922 H   0  0  0  0  0  0
  -27.3731  -12.5450   17.7949 H   0  0  0  0  0  0
  -27.6460  -14.2520   19.4824 H   0  0  0  0  0  0
  -28.6972  -12.1442   21.4338 H   0  0  0  0  0  0
  -28.4441  -13.8359   21.7931 H   0  0  0  0  0  0
  -25.2768   -9.5690   22.4763 H   0  0  0  0  0  0
  -24.0006   -7.4640   22.7480 H   0  0  0  0  0  0
  -21.0845   -8.8775   19.8951 H   0  0  0  0  0  0
  -22.3703  -10.9676   19.6165 H   0  0  0  0  0  0
  -21.2009   -7.6149   23.9716 H   0  0  0  0  0  0
  -21.1479   -6.0525   25.9075 H   0  0  0  0  0  0
  -22.0599   -2.7611   23.2848 H   0  0  0  0  0  0
  -22.4099  -11.9877   22.4793 H   0  0  0  0  0  0
  -21.1090  -13.1233   22.2615 H   0  0  0  0  0  0
  -24.6516  -15.8429   20.5242 H   0  0  0  0  0  0
  -26.2666  -15.6358   20.0783 H   0  0  0  0  0  0
  -26.7177  -32.5457   23.1088 H   0  0  0  0  0  0
  -25.0100  -33.9712   25.0437 H   0  0  0  0  0  0
  -22.7124  -31.3019   21.3991 H   0  0  0  0  0  0
  -23.3747  -35.9630   23.3304 H   0  0  0  0  0  0
  -24.3584  -36.8906   22.2051 H   0  0  0  0  0  0
  -23.7252  -37.6497   23.6660 H   0  0  0  0  0  0
  -26.0792  -31.5559   20.5950 H   0  0  0  0  0  0
  -26.8421  -30.8519   21.9903 H   0  0  0  0  0  0
  -28.1165  -28.9947   21.1862 H   0  0  0  0  0  0
  -26.0092  -25.9105   19.0332 H   0  0  0  0  0  0
  -23.9746  -27.2957   19.0165 H   0  0  0  0  0  0
  -23.7504  -30.5901   19.4012 H   0  0  0  0  0  0
  -22.7539  -29.2425   19.8572 H   0  0  0  0  0  0
  -25.1286  -36.1926   25.0823 H   0  0  0  0  0  0
  -20.9969  -28.3259   24.1416 H   0  0  0  0  0  0
  -20.5693  -26.2289   23.3609 H   0  0  0  0  0  0
  -21.6640  -26.7442   22.1191 H   0  0  0  0  0  0
  -19.6923  -25.6302   21.1226 H   0  0  0  0  0  0
  -19.6696  -27.3206   20.6753 H   0  0  0  0  0  0
  -17.4201  -26.6678   21.4020 H   0  0  0  0  0  0
  -18.0320  -26.0069   22.9018 H   0  0  0  0  0  0
  -19.7944  -30.7267   24.2252 H   0  0  0  0  0  0
  -17.5022  -31.6262   24.5165 H   0  0  0  0  0  0
  -15.5356  -30.2981   23.7665 H   0  0  0  0  0  0
  -15.8675  -28.0835   22.7038 H   0  0  0  0  0  0
  -24.5942  -30.7017   25.7769 H   0  0  0  0  0  0
  -24.8912  -32.2844   26.4855 H   0  0  0  0  0  0
  -25.8081  -30.8883   27.0211 H   0  0  0  0  0  0
  -26.2903  -29.6756   24.1174 H   0  0  0  0  0  0
  -27.4126  -29.7268   25.4583 H   0  0  0  0  0  0
  -27.8737  -30.4327   23.9272 H   0  0  0  0  0  0
  -27.2687  -33.3609   26.2029 H   0  0  0  0  0  0
  -28.3891  -32.6824   25.0311 H   0  0  0  0  0  0
  -28.0714  -31.8430   26.5407 H   0  0  0  0  0  0
  -28.2571  -38.0108   24.7519 H   0  0  0  0  0  0
  -28.1088  -36.2636   24.6267 H   0  0  0  0  0  0
  -27.2297  -37.1417   25.8865 H   0  0  0  0  0  0
  -20.9372  -29.8767   21.6900 H   0  0  0  0  0  0
  -26.0164  -38.2847   24.1426 H   0  0  0  0  0  0
  -28.1174  -21.2384   18.8177 H   0  0  0  0  0  0
  -30.0072  -20.9836   22.6515 H   0  0  0  0  0  0
  -28.9079  -19.3177   17.2049 H   0  0  0  0  0  0
  -27.4038  -18.8237   17.9335 H   0  0  0  0  0  0
  -28.7172  -16.9465   16.7732 H   0  0  0  0  0  0
  -28.1798  -16.6238   18.3824 H   0  0  0  0  0  0
  -31.3690  -17.2022   20.1486 H   0  0  0  0  0  0
  -30.5080  -15.8989   18.0321 H   0  0  0  0  0  0
  -30.8207  -18.9545   23.5007 H   0  0  0  0  0  0
  -31.8517  -18.2599   22.2507 H   0  0  0  0  0  0
  -30.3703  -17.4327   22.7464 H   0  0  0  0  0  0
  -33.0787  -17.6775   18.9435 H   0  0  0  0  0  0
  -33.5623  -17.8750   17.2845 H   0  0  0  0  0  0
  -32.9964  -16.3054   17.8397 H   0  0  0  0  0  0
  -30.3224  -18.0466   15.6287 H   0  0  0  0  0  0
  -31.3214  -16.5950   15.6816 H   0  0  0  0  0  0
  -32.0544  -18.1827   15.4866 H   0  0  0  0  0  0
  -28.7113  -25.2367   21.7248 H   0  0  0  0  0  0
  -27.1084  -25.0294   21.1394 H   0  0  0  0  0  0
  -29.5368  -23.9401   19.5930 H   0  0  0  0  0  0
  -27.8633  -23.4813   19.3677 H   0  0  0  0  0  0
  -31.2710  -18.8213   17.7768 H   0  0  0  0  0  0
  -28.9230  -15.7053   20.7072 H   0  0  0  0  0  0
  1 25  1  0  0  0
  1 30  2  0  0  0
  1 87  1  0  0  0
  2  3  1  0  0  0
  2 25  1  0  0  0
  2 89  1  0  0  0
  2 90  1  0  0  0
  3  4  1  0  0  0
  3 91  1  0  0  0
  3 92  1  0  0  0
  4  5  1  0  0  0
  4 93  1  0  0  0
  4 94  1  0  0  0
  5  6  1  0  0  0
  5 26  1  0  0  0
  5 95  1  0  0  0
  6 25  1  0  0  0
  6 96  1  0  0  0
  6 97  1  0  0  0
  7  8  2  0  0  0
  7 26  1  0  0  0
  7 29  1  0  0  0
  8  9  1  0  0  0
  8 22  1  0  0  0
  9 10  1  0  0  0
  9 27  2  0  0  0
 10 11  2  0  0  0
 10 15  1  0  0  0
 11 12  1  0  0  0
 11 98  1  0  0  0
 12 13  2  0  0  0
 12 99  1  0  0  0
 13 14  1  0  0  0
 13 31  1  0  0  0
 14 15  2  0  0  0
 14100  1  0  0  0
 15101  1  0  0  0
 16 17  2  0  0  0
 16 21  1  0  0  0
 16 31  1  0  0  0
 17 18  1  0  0  0
 17102  1  0  0  0
 18 19  2  0  0  0
 18103  1  0  0  0
 19 20  1  0  0  0
 19 24  1  0  0  0
 20 21  2  0  0  0
 20104  1  0  0  0
 21 23  1  0  0  0
 22 28  1  0  0  0
 22 32  2  0  0  0
 26 27  1  0  0  0
 28105  1  0  0  0
 28106  1  0  0  0
 29107  1  0  0  0
 29108  1  0  0  0
 33 34  1  0  0  0
 33 66  1  0  0  0
 33 70  2  0  0  0
 34 36  1  0  0  0
 34 59  1  0  0  0
 34109  1  0  0  0
 35 44  2  0  0  0
 35 45  1  0  0  0
 35 68  1  0  0  0
 36 56  1  0  0  0
 36110  1  0  0  0
 37 39  1  0  0  0
 37 47  1  0  0  0
 37 66  1  0  0  0
 37111  1  0  0  0
 38 43  2  0  0  0
 38 46  1  0  0  0
 38 47  1  0  0  0
 39 64  1  0  0  0
 39 67  2  0  0  0
 40 52  1  0  0  0
 40 53  2  0  0  0
 40 58  1  0  0  0
 41112  1  0  0  0
 41113  1  0  0  0
 41114  1  0  0  0
 41 48  1  0  0  0
 42 43  1  0  0  0
 42 66  1  0  0  0
 42115  1  0  0  0
 42116  1  0  0  0
 43 44  1  0  0  0
 44117  1  0  0  0
 45 46  2  0  0  0
 45118  1  0  0  0
 46119  1  0  0  0
 47120  1  0  0  0
 47121  1  0  0  0
 48 56  1  0  0  0
 48 65  1  0  0  0
 48122  1  0  0  0
 49 50  1  0  0  0
 49 53  1  0  0  0
 49 64  1  0  0  0
 49123  1  0  0  0
 50 51  1  0  0  0
 50124  1  0  0  0
 50125  1  0  0  0
 51 52  1  0  0  0
 51126  1  0  0  0
 51127  1  0  0  0
 52128  1  0  0  0
 52129  1  0  0  0
 53 54  1  0  0  0
 54 55  2  0  0  0
 54130  1  0  0  0
 55 57  1  0  0  0
 55131  1  0  0  0
 56 69  2  0  0  0
 57 58  2  0  0  0
 57132  1  0  0  0
 58133  1  0  0  0
 59 60  1  0  0  0
 59 61  1  0  0  0
 59 62  1  0  0  0
 60134  1  0  0  0
 60135  1  0  0  0
 60136  1  0  0  0
 61137  1  0  0  0
 61138  1  0  0  0
 61139  1  0  0  0
 62140  1  0  0  0
 62141  1  0  0  0
 62142  1  0  0  0
 63 65  1  0  0  0
 63143  1  0  0  0
 63144  1  0  0  0
 63145  1  0  0  0
 64146  1  0  0  0
 65147  1  0  0  0
 68 84  1  0  0  0
 71 73  2  0  0  0
 71 76  1  0  0  0
 71148  1  0  0  0
 72 75  1  0  0  0
 72 76  2  0  0  0
 72149  1  0  0  0
 73 74  1  0  0  0
 73 77  1  0  0  0
 74 75  2  0  0  0
 74 79  1  0  0  0
 75 81  1  0  0  0
 76 88  1  0  0  0
 77 78  1  0  0  0
 77150  1  0  0  0
 77151  1  0  0  0
 78152  1  0  0  0
 78153  1  0  0  0
 78 80  1  0  0  0
 79 80  1  0  0  0
 79 87  1  0  0  0
 79154  1  0  0  0
 80 86  1  0  0  0
 80155  1  0  0  0
 81156  1  0  0  0
 81157  1  0  0  0
 81158  1  0  0  0
 82159  1  0  0  0
 82160  1  0  0  0
 82161  1  0  0  0
 82 86  1  0  0  0
 83 86  1  0  0  0
 83162  1  0  0  0
 83163  1  0  0  0
 83164  1  0  0  0
 84 85  1  0  0  0
 84165  1  0  0  0
 84166  1  0  0  0
 85 88  1  0  0  0
 85167  1  0  0  0
 85168  1  0  0  0
 86169  1  0  0  0
 87170  1  0  0  0
M  ISO  4   1 100  68 101  84 101  87 100
M  END
> <chiral flag>
0

> <version>
0

> <s_m_source_file>
/data/baiqing/PycharmProjects/Reinvent-master-3.2/result/LINK_invent/BTK/process_docking_weight1_custom_sum_contain_oxygen_bond_distance_aromatic_linkinvent_7_9_3/rearranged_h_0154.sdf

> <i_m_source_file_index>
15

> <r_mmod_Potential_Energy-OPLS-2005>
115.928421020508

> <r_mmod_Stretch_Energy-OPLS-2005>
87.3361740112305

> <r_mmod_Bend_Energy-OPLS-2005>
159.768859863281

> <r_mmod_Torsional_Energy-OPLS-2005>
264.433624267578

> <r_mmod_Improper_Torsional_Energy-OPLS-2005>
10.2218637466431

> <r_mmod_Van_der_Waal_Energy-OPLS-2005>
143.344924926758

> <r_mmod_Electrostatic_Energy-OPLS-2005>
-403.108367919922

> <r_mmod_Solvation_Energy-OPLS-2005>
-199.971084594727

> <b_mmod_Minimization_Converged-OPLS-2005>
0

> <r_mmod_RMS_Derivative-OPLS-2005>
0.918474555015564

$$$$
16
                    3D
 Structure written by MMmdl.
173182  0  0  1  0            999 V2000
  -30.7235  -14.4871   20.5720 C   0  0  0  0  0  0
  -30.4225  -12.3245   19.4148 C   0  0  0  0  0  0
  -29.4880  -12.4986   18.2005 C   0  0  0  0  0  0
  -28.0132  -12.3339   18.6192 C   0  0  0  0  0  0
  -27.6486  -13.1857   19.8619 C   0  0  2  0  0  0
  -28.7013  -13.0187   20.9832 C   0  0  0  0  0  0
  -25.2554  -13.8101   20.5664 C   0  0  0  0  0  0
  -24.1801  -13.0404   20.9192 C   0  0  0  0  0  0
  -24.6342  -11.6866   20.8756 C   0  0  0  0  0  0
  -23.9017  -10.4271   21.0415 C   0  0  0  0  0  0
  -24.3584   -9.4191   21.9182 C   0  0  0  0  0  0
  -23.6262   -8.2233   22.0755 C   0  0  0  0  0  0
  -22.4249   -8.0275   21.3551 C   0  0  0  0  0  0
  -21.9877   -9.0244   20.4653 C   0  0  0  0  0  0
  -22.7199  -10.2118   20.3053 C   0  0  0  0  0  0
  -21.6848   -6.0718   22.5278 C   0  0  0  0  0  0
  -21.4015   -6.5617   23.8218 C   0  0  0  0  0  0
  -21.3654   -5.6768   24.9175 C   0  0  0  0  0  0
  -21.6047   -4.3035   24.7226 C   0  0  0  0  0  0
  -21.8821   -3.8126   23.4348 C   0  0  0  0  0  0
  -21.9193   -4.6945   22.3400 C   0  0  0  0  0  0
  -22.7830  -13.5237   21.1827 C   0  0  0  0  0  0
  -22.1660   -4.2127   21.0979 F   0  0  0  0  0  0
  -21.5621   -3.4522   25.7742 F   0  0  0  0  0  0
  -30.0287  -13.3230   20.4202 N   0  0  0  0  0  0
  -26.2957  -12.9209   20.3342 N   0  0  0  0  0  0
  -25.9260  -11.6407   20.5787 N   0  0  0  0  0  0
  -22.0452  -12.8276   22.0404 N   0  0  0  0  0  0
  -25.4232  -15.1819   20.4025 N   0  0  0  0  0  0
  -31.8745  -14.6372   20.1535 O   0  0  0  0  0  0
  -21.6624   -6.8869   21.4249 O   0  0  0  0  0  0
  -22.3539  -14.5533   20.6644 O   0  0  0  0  0  0
  -24.6114  -31.8693   23.2119 C   0  0  0  0  0  0
  -25.9014  -32.4828   23.8405 C   0  0  1  0  0  0
  -27.2439  -27.4584   20.1049 C   0  0  0  0  0  0
  -25.5869  -33.8624   24.2337 N   0  0  0  0  0  0
  -23.3984  -30.4933   21.5510 C   0  0  2  0  0  0
  -24.8489  -28.9567   20.1227 C   0  0  0  0  0  0
  -22.7398  -29.4667   22.4993 C   0  0  0  0  0  0
  -18.0273  -28.1386   22.8484 C   0  0  0  0  0  0
  -24.1475  -36.7345   23.2639 C   0  0  0  0  0  0
  -25.9235  -30.8424   21.3609 C   0  0  0  0  0  0
  -26.0043  -29.4733   20.7231 C   0  0  0  0  0  0
  -27.2055  -28.7310   20.7200 C   0  0  0  0  0  0
  -26.0775  -26.9558   19.4950 C   0  0  0  0  0  0
  -24.8775  -27.6920   19.5092 C   0  0  0  0  0  0
  -23.6091  -29.8217   20.1671 C   0  0  0  0  0  0
  -25.4089  -36.3121   24.0340 C   0  0  1  0  0  0
  -20.5863  -28.3665   23.1324 C   0  0  2  0  0  0
  -20.6765  -26.9401   22.5426 C   0  0  0  0  0  0
  -19.5746  -26.6385   21.5218 C   0  0  0  0  0  0
  -18.1923  -26.7928   22.1622 C   0  0  0  0  0  0
  -19.1522  -28.8837   23.2904 C   0  0  0  0  0  0
  -18.9456  -30.1442   23.8913 C   0  0  0  0  0  0
  -17.6460  -30.6589   24.0568 C   0  0  0  0  0  0
  -25.9009  -34.9479   23.5137 C   0  0  0  0  0  0
  -16.5346  -29.9099   23.6322 C   0  0  0  0  0  0
  -16.7268  -28.6515   23.0334 C   0  0  0  0  0  0
  -26.4458  -31.6600   25.0725 C   0  0  0  0  0  0
  -25.3753  -31.3700   26.1496 C   0  0  0  0  0  0
  -27.0294  -30.3050   24.6078 C   0  0  0  0  0  0
  -27.6026  -32.4323   25.7477 C   0  0  0  0  0  0
  -27.5572  -37.1826   24.8457 C   0  0  0  0  0  0
  -21.4132  -29.3032   22.3729 N   0  0  0  0  0  0
  -26.4278  -37.3801   23.9404 N   0  0  0  0  0  0
  -24.6624  -31.0827   22.1000 N   0  0  0  0  0  0
  -23.4178  -28.8215   23.3032 O   0  0  0  0  0  0
  -28.3781  -26.6856   20.0125 O   0  0  0  0  0  0
  -26.5580  -34.8929   22.4705 O   0  0  0  0  0  0
  -23.5317  -32.1420   23.7535 O   0  0  0  0  0  0
  -30.8893  -20.5094   20.3914 C   0  0  0  0  0  0
  -29.9006  -19.9817   21.2494 C   0  0  0  0  0  0
  -30.9208  -21.9017   20.1181 C   0  0  0  0  0  0
  -29.9550  -22.7141   20.7554 C   0  0  0  0  0  0
  -29.0185  -20.8912   21.8701 C   0  0  0  0  0  0
  -30.8857  -17.7328   22.0892 C   0  0  0  0  0  0
  -30.5480  -16.2364   22.3224 C   0  0  0  0  0  0
  -29.0704  -16.2750   20.3115 C   0  0  0  0  0  0
  -29.7192  -18.4630   21.4060 C   0  0  2  0  0  0
  -29.4365  -17.7530   20.0676 C   0  0  2  0  0  0
  -28.3457  -18.4524   19.2345 C   0  0  0  0  0  0
  -32.5371  -21.6478   18.3566 C   0  0  0  0  0  0
  -27.2526  -21.3846   23.4345 C   0  0  0  0  0  0
  -29.7719  -24.1840   20.3759 C   0  0  0  0  0  0
  -29.4134  -25.1268   21.5464 C   0  0  0  0  0  0
  -29.2580  -26.6047   21.1318 C   0  0  0  0  0  0
  -29.0391  -22.2159   21.6121 N   0  0  0  0  0  0
  -30.0517  -15.5301   21.1237 N   0  0  0  0  0  0
  -31.8038  -22.4917   19.2363 O   0  0  0  0  0  0
  -28.0679  -20.4310   22.7578 O   0  0  0  0  0  0
  -31.4651  -12.4291   19.1070 H   0  0  0  0  0  0
  -30.3345  -11.3191   19.8297 H   0  0  0  0  0  0
  -29.7393  -11.7711   17.4280 H   0  0  0  0  0  0
  -29.6402  -13.4840   17.7565 H   0  0  0  0  0  0
  -27.8452  -11.2785   18.8341 H   0  0  0  0  0  0
  -27.3549  -12.5800   17.7860 H   0  0  0  0  0  0
  -27.6503  -14.2106   19.5163 H   0  0  0  0  0  0
  -28.6909  -11.9952   21.3626 H   0  0  0  0  0  0
  -28.4576  -13.6522   21.8381 H   0  0  0  0  0  0
  -25.2725   -9.5667   22.4758 H   0  0  0  0  0  0
  -23.9965   -7.4627   22.7469 H   0  0  0  0  0  0
  -21.0808   -8.8761   19.8971 H   0  0  0  0  0  0
  -22.3658  -10.9652   19.6160 H   0  0  0  0  0  0
  -21.2020   -7.6125   23.9715 H   0  0  0  0  0  0
  -21.1466   -6.0494   25.9076 H   0  0  0  0  0  0
  -22.0609   -2.7591   23.2845 H   0  0  0  0  0  0
  -22.4035  -11.9943   22.4842 H   0  0  0  0  0  0
  -21.1081  -13.1345   22.2588 H   0  0  0  0  0  0
  -24.6505  -15.8300   20.5109 H   0  0  0  0  0  0
  -26.2680  -15.6259   20.0698 H   0  0  0  0  0  0
  -26.7093  -32.5560   23.1178 H   0  0  0  0  0  0
  -25.0002  -33.9778   25.0471 H   0  0  0  0  0  0
  -22.6862  -31.3088   21.4115 H   0  0  0  0  0  0
  -23.3710  -35.9709   23.3304 H   0  0  0  0  0  0
  -24.3577  -36.8957   22.2051 H   0  0  0  0  0  0
  -23.7264  -37.6570   23.6656 H   0  0  0  0  0  0
  -26.0233  -31.6002   20.5822 H   0  0  0  0  0  0
  -26.8159  -30.9088   21.9709 H   0  0  0  0  0  0
  -28.0965  -29.1464   21.1681 H   0  0  0  0  0  0
  -26.0995  -25.9886   19.0105 H   0  0  0  0  0  0
  -23.9916  -27.2868   19.0402 H   0  0  0  0  0  0
  -23.7171  -30.5934   19.4046 H   0  0  0  0  0  0
  -22.7343  -29.2399   19.8712 H   0  0  0  0  0  0
  -25.1266  -36.1981   25.0837 H   0  0  0  0  0  0
  -20.9959  -28.3232   24.1440 H   0  0  0  0  0  0
  -20.5679  -26.2264   23.3610 H   0  0  0  0  0  0
  -21.6638  -26.7453   22.1212 H   0  0  0  0  0  0
  -19.6904  -25.6299   21.1236 H   0  0  0  0  0  0
  -19.6691  -27.3201   20.6752 H   0  0  0  0  0  0
  -17.4197  -26.6676   21.4019 H   0  0  0  0  0  0
  -18.0319  -26.0076   22.9019 H   0  0  0  0  0  0
  -19.7935  -30.7253   24.2282 H   0  0  0  0  0  0
  -17.5022  -31.6267   24.5179 H   0  0  0  0  0  0
  -15.5352  -30.3006   23.7642 H   0  0  0  0  0  0
  -15.8663  -28.0856   22.7017 H   0  0  0  0  0  0
  -24.5888  -30.7080   25.7844 H   0  0  0  0  0  0
  -24.8994  -32.2865   26.4999 H   0  0  0  0  0  0
  -25.8130  -30.8827   27.0221 H   0  0  0  0  0  0
  -26.2832  -29.6798   24.1158 H   0  0  0  0  0  0
  -27.4099  -29.7287   25.4522 H   0  0  0  0  0  0
  -27.8647  -30.4370   23.9194 H   0  0  0  0  0  0
  -27.2628  -33.3586   26.2111 H   0  0  0  0  0  0
  -28.3804  -32.6942   25.0298 H   0  0  0  0  0  0
  -28.0740  -31.8433   26.5352 H   0  0  0  0  0  0
  -28.2593  -38.0120   24.7485 H   0  0  0  0  0  0
  -28.1067  -36.2648   24.6291 H   0  0  0  0  0  0
  -27.2302  -37.1483   25.8868 H   0  0  0  0  0  0
  -20.9284  -29.8748   21.6951 H   0  0  0  0  0  0
  -26.0165  -38.2883   24.1411 H   0  0  0  0  0  0
  -31.5778  -19.8293   19.9141 H   0  0  0  0  0  0
  -31.7907  -17.8186   21.4872 H   0  0  0  0  0  0
  -31.1098  -18.2052   23.0468 H   0  0  0  0  0  0
  -29.7700  -16.1609   23.0831 H   0  0  0  0  0  0
  -31.4180  -15.7263   22.7405 H   0  0  0  0  0  0
  -28.9712  -15.8188   19.3259 H   0  0  0  0  0  0
  -28.0985  -16.2032   20.8006 H   0  0  0  0  0  0
  -28.8405  -18.3046   22.0323 H   0  0  0  0  0  0
  -30.3496  -17.7710   19.4690 H   0  0  0  0  0  0
  -27.4112  -18.5292   19.7904 H   0  0  0  0  0  0
  -28.1387  -17.9063   18.3134 H   0  0  0  0  0  0
  -28.6414  -19.4590   18.9407 H   0  0  0  0  0  0
  -33.0601  -22.2599   17.6211 H   0  0  0  0  0  0
  -31.8768  -20.9753   17.8060 H   0  0  0  0  0  0
  -33.2878  -21.0612   18.8884 H   0  0  0  0  0  0
  -26.5840  -20.8674   24.1226 H   0  0  0  0  0  0
  -26.6358  -21.9508   22.7352 H   0  0  0  0  0  0
  -27.8568  -22.0787   24.0212 H   0  0  0  0  0  0
  -28.9890  -24.2243   19.6189 H   0  0  0  0  0  0
  -30.6762  -24.5575   19.8958 H   0  0  0  0  0  0
  -30.1740  -25.0494   22.3228 H   0  0  0  0  0  0
  -28.4805  -24.7982   22.0030 H   0  0  0  0  0  0
  -30.2232  -27.0242   20.8476 H   0  0  0  0  0  0
  -28.9066  -27.1729   21.9937 H   0  0  0  0  0  0
  1 25  1  0  0  0
  1 30  2  0  0  0
  1 88  1  0  0  0
  2  3  1  0  0  0
  2 25  1  0  0  0
  2 91  1  0  0  0
  2 92  1  0  0  0
  3  4  1  0  0  0
  3 93  1  0  0  0
  3 94  1  0  0  0
  4  5  1  0  0  0
  4 95  1  0  0  0
  4 96  1  0  0  0
  5  6  1  0  0  0
  5 26  1  0  0  0
  5 97  1  0  0  0
  6 25  1  0  0  0
  6 98  1  0  0  0
  6 99  1  0  0  0
  7  8  2  0  0  0
  7 26  1  0  0  0
  7 29  1  0  0  0
  8  9  1  0  0  0
  8 22  1  0  0  0
  9 10  1  0  0  0
  9 27  2  0  0  0
 10 11  2  0  0  0
 10 15  1  0  0  0
 11 12  1  0  0  0
 11100  1  0  0  0
 12 13  2  0  0  0
 12101  1  0  0  0
 13 14  1  0  0  0
 13 31  1  0  0  0
 14 15  2  0  0  0
 14102  1  0  0  0
 15103  1  0  0  0
 16 17  2  0  0  0
 16 21  1  0  0  0
 16 31  1  0  0  0
 17 18  1  0  0  0
 17104  1  0  0  0
 18 19  2  0  0  0
 18105  1  0  0  0
 19 20  1  0  0  0
 19 24  1  0  0  0
 20 21  2  0  0  0
 20106  1  0  0  0
 21 23  1  0  0  0
 22 28  1  0  0  0
 22 32  2  0  0  0
 26 27  1  0  0  0
 28107  1  0  0  0
 28108  1  0  0  0
 29109  1  0  0  0
 29110  1  0  0  0
 33 34  1  0  0  0
 33 66  1  0  0  0
 33 70  2  0  0  0
 34 36  1  0  0  0
 34 59  1  0  0  0
 34111  1  0  0  0
 35 44  2  0  0  0
 35 45  1  0  0  0
 35 68  1  0  0  0
 36 56  1  0  0  0
 36112  1  0  0  0
 37 39  1  0  0  0
 37 47  1  0  0  0
 37 66  1  0  0  0
 37113  1  0  0  0
 38 43  2  0  0  0
 38 46  1  0  0  0
 38 47  1  0  0  0
 39 64  1  0  0  0
 39 67  2  0  0  0
 40 52  1  0  0  0
 40 53  2  0  0  0
 40 58  1  0  0  0
 41114  1  0  0  0
 41115  1  0  0  0
 41116  1  0  0  0
 41 48  1  0  0  0
 42 43  1  0  0  0
 42 66  1  0  0  0
 42117  1  0  0  0
 42118  1  0  0  0
 43 44  1  0  0  0
 44119  1  0  0  0
 45 46  2  0  0  0
 45120  1  0  0  0
 46121  1  0  0  0
 47122  1  0  0  0
 47123  1  0  0  0
 48 56  1  0  0  0
 48 65  1  0  0  0
 48124  1  0  0  0
 49 50  1  0  0  0
 49 53  1  0  0  0
 49 64  1  0  0  0
 49125  1  0  0  0
 50 51  1  0  0  0
 50126  1  0  0  0
 50127  1  0  0  0
 51 52  1  0  0  0
 51128  1  0  0  0
 51129  1  0  0  0
 52130  1  0  0  0
 52131  1  0  0  0
 53 54  1  0  0  0
 54 55  2  0  0  0
 54132  1  0  0  0
 55 57  1  0  0  0
 55133  1  0  0  0
 56 69  2  0  0  0
 57 58  2  0  0  0
 57134  1  0  0  0
 58135  1  0  0  0
 59 60  1  0  0  0
 59 61  1  0  0  0
 59 62  1  0  0  0
 60136  1  0  0  0
 60137  1  0  0  0
 60138  1  0  0  0
 61139  1  0  0  0
 61140  1  0  0  0
 61141  1  0  0  0
 62142  1  0  0  0
 62143  1  0  0  0
 62144  1  0  0  0
 63 65  1  0  0  0
 63145  1  0  0  0
 63146  1  0  0  0
 63147  1  0  0  0
 64148  1  0  0  0
 65149  1  0  0  0
 68 86  1  0  0  0
 71 72  2  0  0  0
 71 73  1  0  0  0
 71150  1  0  0  0
 72 75  1  0  0  0
 72 79  1  0  0  0
 73 74  2  0  0  0
 73 89  1  0  0  0
 74 84  1  0  0  0
 74 87  1  0  0  0
 75 87  2  0  0  0
 75 90  1  0  0  0
 76 77  1  0  0  0
 76 79  1  0  0  0
 76151  1  0  0  0
 76152  1  0  0  0
 77 88  1  0  0  0
 77153  1  0  0  0
 77154  1  0  0  0
 78 80  1  0  0  0
 78 88  1  0  0  0
 78155  1  0  0  0
 78156  1  0  0  0
 79 80  1  0  0  0
 79157  1  0  0  0
 80 81  1  0  0  0
 80158  1  0  0  0
 81159  1  0  0  0
 81160  1  0  0  0
 81161  1  0  0  0
 82 89  1  0  0  0
 82162  1  0  0  0
 82163  1  0  0  0
 82164  1  0  0  0
 83 90  1  0  0  0
 83165  1  0  0  0
 83166  1  0  0  0
 83167  1  0  0  0
 84 85  1  0  0  0
 84168  1  0  0  0
 84169  1  0  0  0
 85 86  1  0  0  0
 85170  1  0  0  0
 85171  1  0  0  0
 86172  1  0  0  0
 86173  1  0  0  0
M  ISO  4   1 100  68 101  86 101  88 100
M  END
> <chiral flag>
0

> <version>
0

> <s_m_source_file>
/data/baiqing/PycharmProjects/Reinvent-master-3.2/result/LINK_invent/BTK/process_docking_weight1_custom_sum_contain_oxygen_bond_distance_aromatic_linkinvent_7_9_3/rearranged_h_0154.sdf

> <i_m_source_file_index>
16

> <r_mmod_Potential_Energy-OPLS-2005>
-7.14363861083984

> <r_mmod_Stretch_Energy-OPLS-2005>
39.0122032165527

> <r_mmod_Bend_Energy-OPLS-2005>
118.031661987305

> <r_mmod_Torsional_Energy-OPLS-2005>
331.126922607422

> <r_mmod_Improper_Torsional_Energy-OPLS-2005>
4.40253496170044

> <r_mmod_Van_der_Waal_Energy-OPLS-2005>
171.528732299805

> <r_mmod_Electrostatic_Energy-OPLS-2005>
-485.118804931641

> <r_mmod_Solvation_Energy-OPLS-2005>
-200.11784362793

> <b_mmod_Minimization_Converged-OPLS-2005>
0

> <r_mmod_RMS_Derivative-OPLS-2005>
1.90151679515839

$$$$
17
                    3D
 Structure written by MMmdl.
181190  0  0  1  0            999 V2000
  -30.9086  -14.1396   20.8695 C   0  0  0  0  0  0
  -30.4070  -12.3091   19.3265 C   0  0  0  0  0  0
  -29.4521  -12.5662   18.1575 C   0  0  0  0  0  0
  -27.9941  -12.3846   18.6048 C   0  0  0  0  0  0
  -27.6642  -13.2041   19.8757 C   0  0  2  0  0  0
  -28.7065  -12.9614   20.9878 C   0  0  0  0  0  0
  -25.2599  -13.8151   20.5678 C   0  0  0  0  0  0
  -24.1845  -13.0427   20.9164 C   0  0  0  0  0  0
  -24.6394  -11.6899   20.8727 C   0  0  0  0  0  0
  -23.9054  -10.4291   21.0378 C   0  0  0  0  0  0
  -24.3614   -9.4211   21.9163 C   0  0  0  0  0  0
  -23.6298   -8.2247   22.0749 C   0  0  0  0  0  0
  -22.4277   -8.0279   21.3546 C   0  0  0  0  0  0
  -21.9905   -9.0241   20.4648 C   0  0  0  0  0  0
  -22.7219  -10.2124   20.3042 C   0  0  0  0  0  0
  -21.6868   -6.0728   22.5294 C   0  0  0  0  0  0
  -21.4015   -6.5637   23.8218 C   0  0  0  0  0  0
  -21.3657   -5.6786   24.9181 C   0  0  0  0  0  0
  -21.6039   -4.3050   24.7218 C   0  0  0  0  0  0
  -21.8824   -3.8142   23.4352 C   0  0  0  0  0  0
  -21.9193   -4.6955   22.3401 C   0  0  0  0  0  0
  -22.7874  -13.5240   21.1835 C   0  0  0  0  0  0
  -22.1671   -4.2142   21.0982 F   0  0  0  0  0  0
  -21.5614   -3.4535   25.7733 F   0  0  0  0  0  0
  -30.0554  -13.1916   20.4418 N   0  0  0  0  0  0
  -26.3042  -12.9330   20.3406 N   0  0  0  0  0  0
  -25.9324  -11.6476   20.5778 N   0  0  0  0  0  0
  -22.0525  -12.8234   22.0407 N   0  0  0  0  0  0
  -25.4350  -15.1861   20.4068 N   0  0  0  0  0  0
  -31.7585  -14.6913   20.1638 O   0  0  0  0  0  0
  -21.6656   -6.8868   21.4248 O   0  0  0  0  0  0
  -22.3571  -14.5547   20.6690 O   0  0  0  0  0  0
  -24.6090  -31.8687   23.2137 C   0  0  0  0  0  0
  -25.8975  -32.4835   23.8439 C   0  0  1  0  0  0
  -27.2437  -27.4878   20.1048 C   0  0  0  0  0  0
  -25.5862  -33.8636   24.2382 N   0  0  0  0  0  0
  -23.3978  -30.4875   21.5542 C   0  0  2  0  0  0
  -24.8445  -28.9599   20.1133 C   0  0  0  0  0  0
  -22.7386  -29.4630   22.5053 C   0  0  0  0  0  0
  -18.0262  -28.1360   22.8534 C   0  0  0  0  0  0
  -24.1482  -36.7310   23.2659 C   0  0  0  0  0  0
  -25.9159  -30.8571   21.3531 C   0  0  0  0  0  0
  -25.9961  -29.4970   20.6990 C   0  0  0  0  0  0
  -27.2024  -28.7758   20.6757 C   0  0  0  0  0  0
  -26.0862  -26.9532   19.5052 C   0  0  0  0  0  0
  -24.8838  -27.6897   19.5050 C   0  0  0  0  0  0
  -23.5996  -29.8133   20.1694 C   0  0  0  0  0  0
  -25.4104  -36.3145   24.0370 C   0  0  1  0  0  0
  -20.5865  -28.3619   23.1394 C   0  0  2  0  0  0
  -20.6744  -26.9357   22.5466 C   0  0  0  0  0  0
  -19.5718  -26.6374   21.5259 C   0  0  0  0  0  0
  -18.1897  -26.7919   22.1648 C   0  0  0  0  0  0
  -19.1518  -28.8803   23.2974 C   0  0  0  0  0  0
  -18.9427  -30.1432   23.8953 C   0  0  0  0  0  0
  -17.6424  -30.6581   24.0569 C   0  0  0  0  0  0
  -25.9018  -34.9493   23.5183 C   0  0  0  0  0  0
  -16.5324  -29.9085   23.6317 C   0  0  0  0  0  0
  -16.7245  -28.6504   23.0337 C   0  0  0  0  0  0
  -26.4429  -31.6576   25.0729 C   0  0  0  0  0  0
  -25.3699  -31.3655   26.1485 C   0  0  0  0  0  0
  -27.0242  -30.3052   24.6007 C   0  0  0  0  0  0
  -27.6085  -32.4236   25.7424 C   0  0  0  0  0  0
  -27.5592  -37.1798   24.8474 C   0  0  0  0  0  0
  -21.4121  -29.3001   22.3794 N   0  0  0  0  0  0
  -26.4312  -37.3807   23.9416 N   0  0  0  0  0  0
  -24.6591  -31.0838   22.1009 N   0  0  0  0  0  0
  -23.4187  -28.8174   23.3066 O   0  0  0  0  0  0
  -28.3991  -26.7503   20.1773 O   0  0  0  0  0  0
  -26.5589  -34.8935   22.4761 O   0  0  0  0  0  0
  -23.5295  -32.1396   23.7560 O   0  0  0  0  0  0
  -29.8311  -19.1401   23.2180 C   0  0  0  0  0  0
  -31.4444  -18.1449   25.2882 C   0  0  0  0  0  0
  -30.4995  -20.0441   24.0740 C   0  0  0  0  0  0
  -31.2775  -19.5389   25.1493 C   0  0  0  0  0  0
  -29.9954  -17.7499   23.3604 C   0  0  0  0  0  0
  -30.8419  -17.2583   24.3738 C   0  0  0  0  0  0
  -31.2537  -21.7841   22.4392 C   0  0  0  0  0  0
  -29.0209  -22.0765   23.5661 C   0  0  0  0  0  0
  -31.2012  -23.2530   22.0032 C   0  0  0  0  0  0
  -29.0464  -23.5528   23.1372 C   0  0  0  0  0  0
  -30.4517  -21.5295   23.7283 C   0  0  1  0  0  0
  -31.9761  -20.4534   26.1435 C   0  0  0  0  0  0
  -28.3639  -26.7102   22.6490 C   0  0  0  0  0  0
  -28.9227  -17.2483   21.1918 C   0  0  0  0  0  0
  -32.2074  -14.2570   23.0032 C   0  0  0  0  0  0
  -29.7985  -25.1230   21.2751 C   0  0  0  0  0  0
  -32.3174  -15.6395   23.6471 C   0  0  0  0  0  0
  -28.4621  -25.8964   21.3320 C   0  0  2  0  0  0
  -29.3932  -16.8216   22.5028 N   0  0  0  0  0  0
  -30.9915  -14.0996   22.2066 N   0  0  0  0  0  0
  -29.8059  -23.7480   21.8659 N   0  3  1  0  0  0
  -31.1456  -15.9240   24.4061 O   0  0  0  0  0  0
  -31.4396  -12.4520   19.0020 H   0  0  0  0  0  0
  -30.3405  -11.2696   19.6510 H   0  0  0  0  0  0
  -29.6800  -11.8950   17.3281 H   0  0  0  0  0  0
  -29.5994  -13.5797   17.7823 H   0  0  0  0  0  0
  -27.8307  -11.3244   18.7949 H   0  0  0  0  0  0
  -27.3170  -12.6620   17.7963 H   0  0  0  0  0  0
  -27.7195  -14.2574   19.5998 H   0  0  0  0  0  0
  -28.6441  -11.9410   21.3682 H   0  0  0  0  0  0
  -28.4832  -13.6219   21.8272 H   0  0  0  0  0  0
  -25.2757   -9.5697   22.4737 H   0  0  0  0  0  0
  -24.0010   -7.4643   22.7478 H   0  0  0  0  0  0
  -21.0836   -8.8741   19.8964 H   0  0  0  0  0  0
  -22.3661  -10.9652   19.6159 H   0  0  0  0  0  0
  -21.2030   -7.6149   23.9717 H   0  0  0  0  0  0
  -21.1464   -6.0519   25.9077 H   0  0  0  0  0  0
  -22.0602   -2.7600   23.2847 H   0  0  0  0  0  0
  -22.4145  -11.9879   22.4764 H   0  0  0  0  0  0
  -21.1138  -13.1266   22.2610 H   0  0  0  0  0  0
  -24.6760  -15.8490   20.5190 H   0  0  0  0  0  0
  -26.3008  -15.6191   20.1142 H   0  0  0  0  0  0
  -26.7017  -32.5545   23.1183 H   0  0  0  0  0  0
  -24.9941  -33.9812   25.0484 H   0  0  0  0  0  0
  -22.6853  -31.3025   21.4128 H   0  0  0  0  0  0
  -23.3776  -35.9607   23.3339 H   0  0  0  0  0  0
  -24.3600  -36.8930   22.2077 H   0  0  0  0  0  0
  -23.7179  -37.6515   23.6620 H   0  0  0  0  0  0
  -26.0154  -31.6284   20.5890 H   0  0  0  0  0  0
  -26.8084  -30.9148   21.9643 H   0  0  0  0  0  0
  -28.0939  -29.1932   21.1230 H   0  0  0  0  0  0
  -26.1111  -25.9695   19.0570 H   0  0  0  0  0  0
  -23.9960  -27.2728   19.0483 H   0  0  0  0  0  0
  -23.6904  -30.5828   19.4006 H   0  0  0  0  0  0
  -22.7294  -29.2183   19.8868 H   0  0  0  0  0  0
  -25.1280  -36.2052   25.0864 H   0  0  0  0  0  0
  -20.9936  -28.3106   24.1524 H   0  0  0  0  0  0
  -20.5646  -26.2205   23.3633 H   0  0  0  0  0  0
  -21.6600  -26.7376   22.1241 H   0  0  0  0  0  0
  -19.6868  -25.6304   21.1239 H   0  0  0  0  0  0
  -19.6667  -27.3235   20.6839 H   0  0  0  0  0  0
  -17.4176  -26.6734   21.4022 H   0  0  0  0  0  0
  -18.0229  -26.0036   22.9014 H   0  0  0  0  0  0
  -19.7901  -30.7255   24.2325 H   0  0  0  0  0  0
  -17.4969  -31.6267   24.5163 H   0  0  0  0  0  0
  -15.5323  -30.2990   23.7643 H   0  0  0  0  0  0
  -15.8649  -28.0855   22.7003 H   0  0  0  0  0  0
  -24.5882  -30.7003   25.7795 H   0  0  0  0  0  0
  -24.8843  -32.2796   26.4918 H   0  0  0  0  0  0
  -25.8060  -30.8801   27.0229 H   0  0  0  0  0  0
  -26.2758  -29.6828   24.1082 H   0  0  0  0  0  0
  -27.4149  -29.7265   25.4393 H   0  0  0  0  0  0
  -27.8522  -30.4514   23.9070 H   0  0  0  0  0  0
  -27.2818  -33.3561   26.2036 H   0  0  0  0  0  0
  -28.3816  -32.6740   25.0137 H   0  0  0  0  0  0
  -28.0784  -31.8281   26.5267 H   0  0  0  0  0  0
  -28.2635  -38.0066   24.7512 H   0  0  0  0  0  0
  -28.1078  -36.2623   24.6303 H   0  0  0  0  0  0
  -27.2322  -37.1460   25.8881 H   0  0  0  0  0  0
  -20.9240  -29.8774   21.7084 H   0  0  0  0  0  0
  -26.0250  -38.2925   24.1370 H   0  0  0  0  0  0
  -29.2371  -19.5296   22.4060 H   0  0  0  0  0  0
  -32.0790  -17.7479   26.0680 H   0  0  0  0  0  0
  -32.2930  -21.4888   22.5908 H   0  0  0  0  0  0
  -30.8793  -21.1649   21.6213 H   0  0  0  0  0  0
  -28.4467  -21.5080   22.8336 H   0  0  0  0  0  0
  -28.4810  -21.9869   24.5097 H   0  0  0  0  0  0
  -31.7308  -23.3600   21.0545 H   0  0  0  0  0  0
  -31.7419  -23.8687   22.7252 H   0  0  0  0  0  0
  -29.5014  -24.1476   23.9313 H   0  0  0  0  0  0
  -28.0096  -23.8728   23.0377 H   0  0  0  0  0  0
  -30.9183  -22.1087   24.5269 H   0  0  0  0  0  0
  -32.4642  -19.8848   26.9352 H   0  0  0  0  0  0
  -31.2589  -21.1216   26.6223 H   0  0  0  0  0  0
  -32.7425  -21.0536   25.6537 H   0  0  0  0  0  0
  -28.5595  -26.1125   23.5349 H   0  0  0  0  0  0
  -27.3696  -27.1303   22.7930 H   0  0  0  0  0  0
  -29.0814  -27.5301   22.6604 H   0  0  0  0  0  0
  -28.6520  -16.3790   20.5928 H   0  0  0  0  0  0
  -29.6962  -17.7967   20.6507 H   0  0  0  0  0  0
  -28.0369  -17.8800   21.2773 H   0  0  0  0  0  0
  -32.1960  -13.4972   23.7871 H   0  0  0  0  0  0
  -33.0954  -14.0477   22.4034 H   0  0  0  0  0  0
  -30.5795  -25.7344   21.7251 H   0  0  0  0  0  0
  -30.0847  -25.0023   20.2285 H   0  0  0  0  0  0
  -32.4954  -16.3805   22.8643 H   0  0  0  0  0  0
  -33.1828  -15.6699   24.3116 H   0  0  0  0  0  0
  -27.6316  -25.1940   21.2512 H   0  0  0  0  0  0
  -29.7939  -15.8882   22.5896 H   0  0  0  0  0  0
  -30.2649  -13.5563   22.6519 H   0  0  0  0  0  0
  -29.3594  -23.1590   21.1764 H   0  0  0  0  0  0
  1 25  1  0  0  0
  1 30  2  0  0  0
  1 90  1  0  0  0
  2  3  1  0  0  0
  2 25  1  0  0  0
  2 93  1  0  0  0
  2 94  1  0  0  0
  3  4  1  0  0  0
  3 95  1  0  0  0
  3 96  1  0  0  0
  4  5  1  0  0  0
  4 97  1  0  0  0
  4 98  1  0  0  0
  5  6  1  0  0  0
  5 26  1  0  0  0
  5 99  1  0  0  0
  6 25  1  0  0  0
  6100  1  0  0  0
  6101  1  0  0  0
  7  8  2  0  0  0
  7 26  1  0  0  0
  7 29  1  0  0  0
  8  9  1  0  0  0
  8 22  1  0  0  0
  9 10  1  0  0  0
  9 27  2  0  0  0
 10 11  2  0  0  0
 10 15  1  0  0  0
 11 12  1  0  0  0
 11102  1  0  0  0
 12 13  2  0  0  0
 12103  1  0  0  0
 13 14  1  0  0  0
 13 31  1  0  0  0
 14 15  2  0  0  0
 14104  1  0  0  0
 15105  1  0  0  0
 16 17  2  0  0  0
 16 21  1  0  0  0
 16 31  1  0  0  0
 17 18  1  0  0  0
 17106  1  0  0  0
 18 19  2  0  0  0
 18107  1  0  0  0
 19 20  1  0  0  0
 19 24  1  0  0  0
 20 21  2  0  0  0
 20108  1  0  0  0
 21 23  1  0  0  0
 22 28  1  0  0  0
 22 32  2  0  0  0
 26 27  1  0  0  0
 28109  1  0  0  0
 28110  1  0  0  0
 29111  1  0  0  0
 29112  1  0  0  0
 33 34  1  0  0  0
 33 66  1  0  0  0
 33 70  2  0  0  0
 34 36  1  0  0  0
 34 59  1  0  0  0
 34113  1  0  0  0
 35 44  2  0  0  0
 35 45  1  0  0  0
 35 68  1  0  0  0
 36 56  1  0  0  0
 36114  1  0  0  0
 37 39  1  0  0  0
 37 47  1  0  0  0
 37 66  1  0  0  0
 37115  1  0  0  0
 38 43  2  0  0  0
 38 46  1  0  0  0
 38 47  1  0  0  0
 39 64  1  0  0  0
 39 67  2  0  0  0
 40 52  1  0  0  0
 40 53  2  0  0  0
 40 58  1  0  0  0
 41116  1  0  0  0
 41117  1  0  0  0
 41118  1  0  0  0
 41 48  1  0  0  0
 42 43  1  0  0  0
 42 66  1  0  0  0
 42119  1  0  0  0
 42120  1  0  0  0
 43 44  1  0  0  0
 44121  1  0  0  0
 45 46  2  0  0  0
 45122  1  0  0  0
 46123  1  0  0  0
 47124  1  0  0  0
 47125  1  0  0  0
 48 56  1  0  0  0
 48 65  1  0  0  0
 48126  1  0  0  0
 49 50  1  0  0  0
 49 53  1  0  0  0
 49 64  1  0  0  0
 49127  1  0  0  0
 50 51  1  0  0  0
 50128  1  0  0  0
 50129  1  0  0  0
 51 52  1  0  0  0
 51130  1  0  0  0
 51131  1  0  0  0
 52132  1  0  0  0
 52133  1  0  0  0
 53 54  1  0  0  0
 54 55  2  0  0  0
 54134  1  0  0  0
 55 57  1  0  0  0
 55135  1  0  0  0
 56 69  2  0  0  0
 57 58  2  0  0  0
 57136  1  0  0  0
 58137  1  0  0  0
 59 60  1  0  0  0
 59 61  1  0  0  0
 59 62  1  0  0  0
 60138  1  0  0  0
 60139  1  0  0  0
 60140  1  0  0  0
 61141  1  0  0  0
 61142  1  0  0  0
 61143  1  0  0  0
 62144  1  0  0  0
 62145  1  0  0  0
 62146  1  0  0  0
 63 65  1  0  0  0
 63147  1  0  0  0
 63148  1  0  0  0
 63149  1  0  0  0
 64150  1  0  0  0
 65151  1  0  0  0
 68 88  1  0  0  0
 71 73  2  0  0  0
 71 75  1  0  0  0
 71152  1  0  0  0
 72 74  2  0  0  0
 72 76  1  0  0  0
 72153  1  0  0  0
 73 74  1  0  0  0
 73 81  1  0  0  0
 74 82  1  0  0  0
 75 76  2  0  0  0
 75 89  1  0  0  0
 76 92  1  0  0  0
 77 79  1  0  0  0
 77 81  1  0  0  0
 77154  1  0  0  0
 77155  1  0  0  0
 78 80  1  0  0  0
 78 81  1  0  0  0
 78156  1  0  0  0
 78157  1  0  0  0
 79 91  1  0  0  0
 79158  1  0  0  0
 79159  1  0  0  0
 80 91  1  0  0  0
 80160  1  0  0  0
 80161  1  0  0  0
 81162  1  0  0  0
 82163  1  0  0  0
 82164  1  0  0  0
 82165  1  0  0  0
 83166  1  0  0  0
 83167  1  0  0  0
 83168  1  0  0  0
 83 88  1  0  0  0
 84 89  1  0  0  0
 84169  1  0  0  0
 84170  1  0  0  0
 84171  1  0  0  0
 85 87  1  0  0  0
 85 90  1  0  0  0
 85172  1  0  0  0
 85173  1  0  0  0
 86 88  1  0  0  0
 86174  1  0  0  0
 86175  1  0  0  0
 86 91  1  0  0  0
 87 92  1  0  0  0
 87176  1  0  0  0
 87177  1  0  0  0
 88178  1  0  0  0
 89179  1  0  0  0
 90180  1  0  0  0
 91181  1  0  0  0
M  CHG  1  91   1
M  ISO  4   1 100  68 101  88 101  90 100
M  END
> <chiral flag>
0

> <version>
0

> <s_m_source_file>
/data/baiqing/PycharmProjects/Reinvent-master-3.2/result/LINK_invent/BTK/process_docking_weight1_custom_sum_contain_oxygen_bond_distance_aromatic_linkinvent_7_9_3/rearranged_h_0154.sdf

> <i_m_source_file_index>
17

> <r_mmod_Potential_Energy-OPLS-2005>
-117.070831298828

> <r_mmod_Stretch_Energy-OPLS-2005>
34.2102012634277

> <r_mmod_Bend_Energy-OPLS-2005>
103.769584655762

> <r_mmod_Torsional_Energy-OPLS-2005>
324.744445800781

> <r_mmod_Improper_Torsional_Energy-OPLS-2005>
15.0859394073486

> <r_mmod_Van_der_Waal_Energy-OPLS-2005>
161.61865234375

> <r_mmod_Electrostatic_Energy-OPLS-2005>
-355.673309326172

> <r_mmod_Solvation_Energy-OPLS-2005>
-422.461883544922

> <b_mmod_Minimization_Converged-OPLS-2005>
0

> <r_mmod_RMS_Derivative-OPLS-2005>
4.01141023635864

$$$$
18
                    3D
 Structure written by MMmdl.
174183  0  0  1  0            999 V2000
  -30.7075  -14.4159   20.7058 C   0  0  0  0  0  0
  -30.4427  -12.3274   19.3999 C   0  0  0  0  0  0
  -29.5082  -12.5690   18.1987 C   0  0  0  0  0  0
  -28.0264  -12.4076   18.5992 C   0  0  0  0  0  0
  -27.6746  -13.2022   19.8809 C   0  0  2  0  0  0
  -28.7050  -12.9154   20.9942 C   0  0  0  0  0  0
  -25.2645  -13.8166   20.5655 C   0  0  0  0  0  0
  -24.1872  -13.0457   20.9118 C   0  0  0  0  0  0
  -24.6411  -11.6913   20.8650 C   0  0  0  0  0  0
  -23.9045  -10.4314   21.0348 C   0  0  0  0  0  0
  -24.3600   -9.4255   21.9147 C   0  0  0  0  0  0
  -23.6285   -8.2276   22.0726 C   0  0  0  0  0  0
  -22.4266   -8.0278   21.3525 C   0  0  0  0  0  0
  -21.9899   -9.0257   20.4633 C   0  0  0  0  0  0
  -22.7206  -10.2145   20.3023 C   0  0  0  0  0  0
  -21.6862   -6.0738   22.5273 C   0  0  0  0  0  0
  -21.4025   -6.5618   23.8216 C   0  0  0  0  0  0
  -21.3666   -5.6730   24.9151 C   0  0  0  0  0  0
  -21.6067   -4.2996   24.7188 C   0  0  0  0  0  0
  -21.8818   -3.8125   23.4296 C   0  0  0  0  0  0
  -21.9199   -4.6970   22.3386 C   0  0  0  0  0  0
  -22.7886  -13.5298   21.1792 C   0  0  0  0  0  0
  -22.1632   -4.2182   21.0944 F   0  0  0  0  0  0
  -21.5683   -3.4453   25.7687 F   0  0  0  0  0  0
  -30.0538  -13.2409   20.4836 N   0  0  0  0  0  0
  -26.3086  -12.9320   20.3294 N   0  0  0  0  0  0
  -25.9341  -11.6477   20.5636 N   0  0  0  0  0  0
  -22.0492  -12.8307   22.0324 N   0  0  0  0  0  0
  -25.4338  -15.1873   20.4110 N   0  0  0  0  0  0
  -31.6942  -14.7808   20.0588 O   0  0  0  0  0  0
  -21.6618   -6.8888   21.4235 O   0  0  0  0  0  0
  -22.3592  -14.5653   20.6696 O   0  0  0  0  0  0
  -24.6144  -31.8702   23.2092 C   0  0  0  0  0  0
  -25.9045  -32.4836   23.8407 C   0  0  1  0  0  0
  -27.2400  -27.4297   20.0933 C   0  0  0  0  0  0
  -25.5922  -33.8635   24.2349 N   0  0  0  0  0  0
  -23.4032  -30.4924   21.5497 C   0  0  2  0  0  0
  -24.8501  -28.9573   20.1193 C   0  0  0  0  0  0
  -22.7431  -29.4659   22.4990 C   0  0  0  0  0  0
  -18.0268  -28.1387   22.8484 C   0  0  0  0  0  0
  -24.1497  -36.7307   23.2638 C   0  0  0  0  0  0
  -25.9312  -30.8351   21.3605 C   0  0  0  0  0  0
  -26.0096  -29.4664   20.7132 C   0  0  0  0  0  0
  -27.2042  -28.7099   20.6967 C   0  0  0  0  0  0
  -26.0517  -26.9333   19.5049 C   0  0  0  0  0  0
  -24.8656  -27.6908   19.5134 C   0  0  0  0  0  0
  -23.6135  -29.8255   20.1646 C   0  0  0  0  0  0
  -25.4110  -36.3119   24.0351 C   0  0  1  0  0  0
  -20.5862  -28.3681   23.1328 C   0  0  2  0  0  0
  -20.6754  -26.9418   22.5422 C   0  0  0  0  0  0
  -19.5744  -26.6401   21.5205 C   0  0  0  0  0  0
  -18.1917  -26.7941   22.1601 C   0  0  0  0  0  0
  -19.1517  -28.8841   23.2905 C   0  0  0  0  0  0
  -18.9448  -30.1438   23.8933 C   0  0  0  0  0  0
  -17.6454  -30.6597   24.0560 C   0  0  0  0  0  0
  -25.9040  -34.9485   23.5134 C   0  0  0  0  0  0
  -16.5345  -29.9107   23.6315 C   0  0  0  0  0  0
  -16.7261  -28.6518   23.0348 C   0  0  0  0  0  0
  -26.4477  -31.6604   25.0727 C   0  0  0  0  0  0
  -25.3744  -31.3711   26.1485 C   0  0  0  0  0  0
  -27.0275  -30.3045   24.6058 C   0  0  0  0  0  0
  -27.6082  -32.4304   25.7481 C   0  0  0  0  0  0
  -27.5593  -37.1809   24.8470 C   0  0  0  0  0  0
  -21.4157  -29.3059   22.3752 N   0  0  0  0  0  0
  -26.4299  -37.3804   23.9421 N   0  0  0  0  0  0
  -24.6682  -31.0807   22.0993 N   0  0  0  0  0  0
  -23.4212  -28.8186   23.3012 O   0  0  0  0  0  0
  -28.4365  -26.7315   20.0981 O   0  0  0  0  0  0
  -26.5583  -34.8944   22.4684 O   0  0  0  0  0  0
  -23.5335  -32.1455   23.7479 O   0  0  0  0  0  0
  -30.3880  -17.5304   21.2203 C   0  0  0  0  0  0
  -28.9691  -19.0376   22.5081 C   0  0  0  0  0  0
  -29.9426  -18.8496   21.5042 C   0  0  0  0  0  0
  -29.8646  -16.4311   21.9471 C   0  0  0  0  0  0
  -28.4083  -17.9524   23.2188 C   0  0  0  0  0  0
  -28.8657  -16.6391   22.9312 C   0  0  0  0  0  0
  -29.9928  -23.3457   19.3381 C   0  0  0  0  0  0
  -27.9952  -23.0063   20.8547 C   0  0  0  0  0  0
  -29.9071  -24.8657   19.6016 C   0  0  0  0  0  0
  -27.9067  -24.5326   21.0666 C   0  0  0  0  0  0
  -29.4141  -22.5022   20.4959 C   0  0  1  0  0  0
  -28.4560  -25.3142   19.8552 C   0  0  1  0  0  0
  -31.6728  -19.8518   19.8676 C   0  0  0  0  0  0
  -26.7286  -19.3626   24.2268 C   0  0  0  0  0  0
  -27.0471  -15.4438   23.9713 C   0  0  0  0  0  0
  -29.3901  -20.9782   20.1646 C   0  0  0  0  0  0
  -30.5035  -20.1139   20.8307 C   0  0  1  0  0  0
  -30.2643  -15.0709   21.7902 N   0  0  0  0  0  0
  -27.4676  -18.1457   24.2109 O   0  0  0  0  0  0
  -28.4119  -15.5015   23.5761 O   0  0  0  0  0  0
  -31.4854  -12.4652   19.1063 H   0  0  0  0  0  0
  -30.3615  -11.2933   19.7393 H   0  0  0  0  0  0
  -29.7582  -11.8930   17.3812 H   0  0  0  0  0  0
  -29.6702  -13.5784   17.8148 H   0  0  0  0  0  0
  -27.8261  -11.3474   18.7510 H   0  0  0  0  0  0
  -27.3866  -12.7289   17.7757 H   0  0  0  0  0  0
  -27.7355  -14.2605   19.6277 H   0  0  0  0  0  0
  -28.6689  -11.8615   21.2743 H   0  0  0  0  0  0
  -28.4265  -13.4539   21.9002 H   0  0  0  0  0  0
  -25.2750   -9.5764   22.4708 H   0  0  0  0  0  0
  -24.0034   -7.4680   22.7429 H   0  0  0  0  0  0
  -21.0843   -8.8764   19.8948 H   0  0  0  0  0  0
  -22.3644  -10.9676   19.6122 H   0  0  0  0  0  0
  -21.1980   -7.6111   23.9738 H   0  0  0  0  0  0
  -21.1485   -6.0419   25.9060 H   0  0  0  0  0  0
  -22.0607   -2.7601   23.2734 H   0  0  0  0  0  0
  -22.3983  -11.9920   22.4714 H   0  0  0  0  0  0
  -21.1176  -13.1485   22.2602 H   0  0  0  0  0  0
  -24.6571  -15.8336   20.5020 H   0  0  0  0  0  0
  -26.2847  -15.6327   20.0914 H   0  0  0  0  0  0
  -26.7107  -32.5568   23.1173 H   0  0  0  0  0  0
  -25.0121  -33.9815   25.0524 H   0  0  0  0  0  0
  -22.6891  -31.3069   21.4109 H   0  0  0  0  0  0
  -23.3782  -35.9617   23.3284 H   0  0  0  0  0  0
  -24.3598  -36.8929   22.2056 H   0  0  0  0  0  0
  -23.7236  -37.6502   23.6651 H   0  0  0  0  0  0
  -26.0353  -31.5971   20.5864 H   0  0  0  0  0  0
  -26.8228  -30.8984   21.9716 H   0  0  0  0  0  0
  -28.1001  -29.1042   21.1548 H   0  0  0  0  0  0
  -26.0086  -25.9662   19.0306 H   0  0  0  0  0  0
  -23.9720  -27.2933   19.0526 H   0  0  0  0  0  0
  -23.7293  -30.5982   19.4033 H   0  0  0  0  0  0
  -22.7376  -29.2477   19.8648 H   0  0  0  0  0  0
  -25.1272  -36.1979   25.0845 H   0  0  0  0  0  0
  -20.9931  -28.3238   24.1456 H   0  0  0  0  0  0
  -20.5641  -26.2290   23.3607 H   0  0  0  0  0  0
  -21.6641  -26.7465   22.1250 H   0  0  0  0  0  0
  -19.6915  -25.6309   21.1241 H   0  0  0  0  0  0
  -19.6684  -27.3197   20.6720 H   0  0  0  0  0  0
  -17.4191  -26.6702   21.3989 H   0  0  0  0  0  0
  -18.0300  -26.0082   22.8995 H   0  0  0  0  0  0
  -19.7922  -30.7226   24.2366 H   0  0  0  0  0  0
  -17.5015  -31.6277   24.5156 H   0  0  0  0  0  0
  -15.5345  -30.3015   23.7631 H   0  0  0  0  0  0
  -15.8655  -28.0844   22.7060 H   0  0  0  0  0  0
  -24.5942  -30.7018   25.7842 H   0  0  0  0  0  0
  -24.8892  -32.2852   26.4909 H   0  0  0  0  0  0
  -25.8110  -30.8924   27.0257 H   0  0  0  0  0  0
  -26.2776  -29.6839   24.1134 H   0  0  0  0  0  0
  -27.4085  -29.7250   25.4477 H   0  0  0  0  0  0
  -27.8606  -30.4373   23.9152 H   0  0  0  0  0  0
  -27.2752  -33.3627   26.2053 H   0  0  0  0  0  0
  -28.3893  -32.6821   25.0296 H   0  0  0  0  0  0
  -28.0747  -31.8424   26.5394 H   0  0  0  0  0  0
  -28.2609  -38.0111   24.7520 H   0  0  0  0  0  0
  -28.1086  -36.2638   24.6261 H   0  0  0  0  0  0
  -27.2324  -37.1436   25.8881 H   0  0  0  0  0  0
  -20.9312  -29.8803   21.7000 H   0  0  0  0  0  0
  -26.0187  -38.2887   24.1409 H   0  0  0  0  0  0
  -31.1451  -17.3601   20.4697 H   0  0  0  0  0  0
  -28.6672  -20.0513   22.7339 H   0  0  0  0  0  0
  -31.0294  -23.0621   19.1566 H   0  0  0  0  0  0
  -29.4551  -23.1174   18.4171 H   0  0  0  0  0  0
  -27.2972  -22.7202   20.0681 H   0  0  0  0  0  0
  -27.6531  -22.5029   21.7602 H   0  0  0  0  0  0
  -30.3144  -25.4084   18.7468 H   0  0  0  0  0  0
  -30.5313  -25.1281   20.4567 H   0  0  0  0  0  0
  -28.4602  -24.8119   21.9634 H   0  0  0  0  0  0
  -26.8684  -24.8068   21.2539 H   0  0  0  0  0  0
  -30.0405  -22.6712   21.3741 H   0  0  0  0  0  0
  -27.8938  -25.0662   18.9568 H   0  0  0  0  0  0
  -32.4774  -19.3073   20.3620 H   0  0  0  0  0  0
  -32.0956  -20.7896   19.5069 H   0  0  0  0  0  0
  -31.3620  -19.2720   18.9978 H   0  0  0  0  0  0
  -25.8611  -19.2487   24.8778 H   0  0  0  0  0  0
  -26.3530  -19.6302   23.2368 H   0  0  0  0  0  0
  -27.3274  -20.1825   24.6242 H   0  0  0  0  0  0
  -26.7328  -14.4019   24.0330 H   0  0  0  0  0  0
  -26.3884  -15.9407   23.2566 H   0  0  0  0  0  0
  -26.9042  -15.8806   24.9600 H   0  0  0  0  0  0
  -29.3826  -20.8147   19.0851 H   0  0  0  0  0  0
  -28.4181  -20.5876   20.4641 H   0  0  0  0  0  0
  -30.9216  -20.6827   21.6617 H   0  0  0  0  0  0
  -29.7219  -14.4699   22.3945 H   0  0  0  0  0  0
  1 25  1  0  0  0
  1 30  2  0  0  0
  1 88  1  0  0  0
  2  3  1  0  0  0
  2 25  1  0  0  0
  2 91  1  0  0  0
  2 92  1  0  0  0
  3  4  1  0  0  0
  3 93  1  0  0  0
  3 94  1  0  0  0
  4  5  1  0  0  0
  4 95  1  0  0  0
  4 96  1  0  0  0
  5  6  1  0  0  0
  5 26  1  0  0  0
  5 97  1  0  0  0
  6 25  1  0  0  0
  6 98  1  0  0  0
  6 99  1  0  0  0
  7  8  2  0  0  0
  7 26  1  0  0  0
  7 29  1  0  0  0
  8  9  1  0  0  0
  8 22  1  0  0  0
  9 10  1  0  0  0
  9 27  2  0  0  0
 10 11  2  0  0  0
 10 15  1  0  0  0
 11 12  1  0  0  0
 11100  1  0  0  0
 12 13  2  0  0  0
 12101  1  0  0  0
 13 14  1  0  0  0
 13 31  1  0  0  0
 14 15  2  0  0  0
 14102  1  0  0  0
 15103  1  0  0  0
 16 17  2  0  0  0
 16 21  1  0  0  0
 16 31  1  0  0  0
 17 18  1  0  0  0
 17104  1  0  0  0
 18 19  2  0  0  0
 18105  1  0  0  0
 19 20  1  0  0  0
 19 24  1  0  0  0
 20 21  2  0  0  0
 20106  1  0  0  0
 21 23  1  0  0  0
 22 28  1  0  0  0
 22 32  2  0  0  0
 26 27  1  0  0  0
 28107  1  0  0  0
 28108  1  0  0  0
 29109  1  0  0  0
 29110  1  0  0  0
 33 34  1  0  0  0
 33 66  1  0  0  0
 33 70  2  0  0  0
 34 36  1  0  0  0
 34 59  1  0  0  0
 34111  1  0  0  0
 35 44  2  0  0  0
 35 45  1  0  0  0
 35 68  1  0  0  0
 36 56  1  0  0  0
 36112  1  0  0  0
 37 39  1  0  0  0
 37 47  1  0  0  0
 37 66  1  0  0  0
 37113  1  0  0  0
 38 43  2  0  0  0
 38 46  1  0  0  0
 38 47  1  0  0  0
 39 64  1  0  0  0
 39 67  2  0  0  0
 40 52  1  0  0  0
 40 53  2  0  0  0
 40 58  1  0  0  0
 41114  1  0  0  0
 41115  1  0  0  0
 41116  1  0  0  0
 41 48  1  0  0  0
 42 43  1  0  0  0
 42 66  1  0  0  0
 42117  1  0  0  0
 42118  1  0  0  0
 43 44  1  0  0  0
 44119  1  0  0  0
 45 46  2  0  0  0
 45120  1  0  0  0
 46121  1  0  0  0
 47122  1  0  0  0
 47123  1  0  0  0
 48 56  1  0  0  0
 48 65  1  0  0  0
 48124  1  0  0  0
 49 50  1  0  0  0
 49 53  1  0  0  0
 49 64  1  0  0  0
 49125  1  0  0  0
 50 51  1  0  0  0
 50126  1  0  0  0
 50127  1  0  0  0
 51 52  1  0  0  0
 51128  1  0  0  0
 51129  1  0  0  0
 52130  1  0  0  0
 52131  1  0  0  0
 53 54  1  0  0  0
 54 55  2  0  0  0
 54132  1  0  0  0
 55 57  1  0  0  0
 55133  1  0  0  0
 56 69  2  0  0  0
 57 58  2  0  0  0
 57134  1  0  0  0
 58135  1  0  0  0
 59 60  1  0  0  0
 59 61  1  0  0  0
 59 62  1  0  0  0
 60136  1  0  0  0
 60137  1  0  0  0
 60138  1  0  0  0
 61139  1  0  0  0
 61140  1  0  0  0
 61141  1  0  0  0
 62142  1  0  0  0
 62143  1  0  0  0
 62144  1  0  0  0
 63 65  1  0  0  0
 63145  1  0  0  0
 63146  1  0  0  0
 63147  1  0  0  0
 64148  1  0  0  0
 65149  1  0  0  0
 68 82  1  0  0  0
 71 73  2  0  0  0
 71 74  1  0  0  0
 71150  1  0  0  0
 72 73  1  0  0  0
 72 75  2  0  0  0
 72151  1  0  0  0
 73 87  1  0  0  0
 74 76  2  0  0  0
 74 88  1  0  0  0
 75 76  1  0  0  0
 75 89  1  0  0  0
 76 90  1  0  0  0
 77 79  1  0  0  0
 77 81  1  0  0  0
 77152  1  0  0  0
 77153  1  0  0  0
 78 80  1  0  0  0
 78 81  1  0  0  0
 78154  1  0  0  0
 78155  1  0  0  0
 79 82  1  0  0  0
 79156  1  0  0  0
 79157  1  0  0  0
 80 82  1  0  0  0
 80158  1  0  0  0
 80159  1  0  0  0
 81 86  1  0  0  0
 81160  1  0  0  0
 82161  1  0  0  0
 83162  1  0  0  0
 83163  1  0  0  0
 83164  1  0  0  0
 83 87  1  0  0  0
 84 89  1  0  0  0
 84165  1  0  0  0
 84166  1  0  0  0
 84167  1  0  0  0
 85 90  1  0  0  0
 85168  1  0  0  0
 85169  1  0  0  0
 85170  1  0  0  0
 86 87  1  0  0  0
 86171  1  0  0  0
 86172  1  0  0  0
 87173  1  0  0  0
 88174  1  0  0  0
M  ISO  4   1 100  68 101  82 101  88 100
M  END
> <chiral flag>
0

> <version>
0

> <s_m_source_file>
/data/baiqing/PycharmProjects/Reinvent-master-3.2/result/LINK_invent/BTK/process_docking_weight1_custom_sum_contain_oxygen_bond_distance_aromatic_linkinvent_7_9_3/rearranged_h_0154.sdf

> <i_m_source_file_index>
18

> <r_mmod_Potential_Energy-OPLS-2005>
11.6992607116699

> <r_mmod_Stretch_Energy-OPLS-2005>
43.2436218261719

> <r_mmod_Bend_Energy-OPLS-2005>
134.18440246582

> <r_mmod_Torsional_Energy-OPLS-2005>
268.211700439453

> <r_mmod_Improper_Torsional_Energy-OPLS-2005>
6.00563526153564

> <r_mmod_Van_der_Waal_Energy-OPLS-2005>
166.628494262695

> <r_mmod_Electrostatic_Energy-OPLS-2005>
-426.021667480469

> <r_mmod_Solvation_Energy-OPLS-2005>
-192.859008789062

> <b_mmod_Minimization_Converged-OPLS-2005>
0

> <r_mmod_RMS_Derivative-OPLS-2005>
3.34759306907654

$$$$
19
                    3D
 Structure written by MMmdl.
161170  0  0  1  0            999 V2000
  -30.6201  -14.6555   20.4786 C   0  0  0  0  0  0
  -30.4460  -12.4028   19.4415 C   0  0  0  0  0  0
  -29.5091  -12.5119   18.2170 C   0  0  0  0  0  0
  -28.0313  -12.3502   18.6296 C   0  0  0  0  0  0
  -27.6555  -13.2168   19.8623 C   0  0  2  0  0  0
  -28.7087  -13.0708   20.9843 C   0  0  0  0  0  0
  -25.2595  -13.8150   20.5721 C   0  0  0  0  0  0
  -24.1857  -13.0422   20.9199 C   0  0  0  0  0  0
  -24.6394  -11.6889   20.8720 C   0  0  0  0  0  0
  -23.9052  -10.4283   21.0379 C   0  0  0  0  0  0
  -24.3599   -9.4211   21.9166 C   0  0  0  0  0  0
  -23.6282   -8.2249   22.0743 C   0  0  0  0  0  0
  -22.4267   -8.0272   21.3536 C   0  0  0  0  0  0
  -21.9898   -9.0245   20.4640 C   0  0  0  0  0  0
  -22.7214  -10.2128   20.3042 C   0  0  0  0  0  0
  -21.6847   -6.0715   22.5267 C   0  0  0  0  0  0
  -21.4019   -6.5626   23.8199 C   0  0  0  0  0  0
  -21.3673   -5.6785   24.9173 C   0  0  0  0  0  0
  -21.6033   -4.3042   24.7228 C   0  0  0  0  0  0
  -21.8831   -3.8128   23.4353 C   0  0  0  0  0  0
  -21.9197   -4.6941   22.3403 C   0  0  0  0  0  0
  -22.7873  -13.5212   21.1868 C   0  0  0  0  0  0
  -22.1653   -4.2119   21.0983 F   0  0  0  0  0  0
  -21.5646   -3.4539   25.7749 F   0  0  0  0  0  0
  -30.0186  -13.4250   20.4155 N   0  0  0  0  0  0
  -26.3027  -12.9334   20.3336 N   0  0  0  0  0  0
  -25.9329  -11.6494   20.5733 N   0  0  0  0  0  0
  -22.0519  -12.8212   22.0427 N   0  0  0  0  0  0
  -25.4307  -15.1882   20.4122 N   0  0  0  0  0  0
  -31.7948  -14.8153   20.1387 O   0  0  0  0  0  0
  -21.6636   -6.8863   21.4228 O   0  0  0  0  0  0
  -22.3541  -14.5503   20.6698 O   0  0  0  0  0  0
  -24.6275  -31.8605   23.2006 C   0  0  0  0  0  0
  -25.9112  -32.4780   23.8336 C   0  0  1  0  0  0
  -27.2365  -27.3231   20.1104 C   0  0  0  0  0  0
  -25.5940  -33.8564   24.2257 N   0  0  0  0  0  0
  -23.4243  -30.4861   21.5384 C   0  0  2  0  0  0
  -24.8734  -28.9446   20.1071 C   0  0  0  0  0  0
  -22.7501  -29.4641   22.4857 C   0  0  0  0  0  0
  -18.0308  -28.1378   22.8475 C   0  0  0  0  0  0
  -24.1486  -36.7330   23.2639 C   0  0  0  0  0  0
  -25.9660  -30.7961   21.3711 C   0  0  0  0  0  0
  -26.0422  -29.4236   20.7114 C   0  0  0  0  0  0
  -27.2260  -28.6262   20.6977 C   0  0  0  0  0  0
  -26.0335  -26.8962   19.4932 C   0  0  0  0  0  0
  -24.8709  -27.6863   19.4876 C   0  0  0  0  0  0
  -23.6464  -29.8296   20.1509 C   0  0  0  0  0  0
  -25.4108  -36.3075   24.0322 C   0  0  1  0  0  0
  -20.5932  -28.3711   23.1242 C   0  0  2  0  0  0
  -20.6797  -26.9429   22.5391 C   0  0  0  0  0  0
  -19.5769  -26.6389   21.5206 C   0  0  0  0  0  0
  -18.1937  -26.7925   22.1619 C   0  0  0  0  0  0
  -19.1571  -28.8850   23.2859 C   0  0  0  0  0  0
  -18.9495  -30.1448   23.8875 C   0  0  0  0  0  0
  -17.6493  -30.6573   24.0556 C   0  0  0  0  0  0
  -25.9049  -34.9449   23.5084 C   0  0  0  0  0  0
  -16.5380  -29.9080   23.6306 C   0  0  0  0  0  0
  -16.7303  -28.6508   23.0313 C   0  0  0  0  0  0
  -26.4487  -31.6591   25.0700 C   0  0  0  0  0  0
  -25.3711  -31.3773   26.1429 C   0  0  0  0  0  0
  -27.0327  -30.3004   24.6156 C   0  0  0  0  0  0
  -27.6023  -32.4340   25.7500 C   0  0  0  0  0  0
  -27.5578  -37.1807   24.8457 C   0  0  0  0  0  0
  -21.4209  -29.3086   22.3617 N   0  0  0  0  0  0
  -26.4288  -37.3781   23.9407 N   0  0  0  0  0  0
  -24.6904  -31.0660   22.0932 N   0  0  0  0  0  0
  -23.4216  -28.8157   23.2923 O   0  0  0  0  0  0
  -28.3646  -26.4818   20.1479 O   0  0  0  0  0  0
  -26.5620  -34.8929   22.4657 O   0  0  0  0  0  0
  -23.5429  -32.1401   23.7326 O   0  0  0  0  0  0
  -30.8372  -17.9643   21.2427 C   0  0  0  0  0  0
  -29.0312  -17.8365   19.6647 C   0  0  0  0  0  0
  -30.8461  -19.3901   21.1143 C   0  0  0  0  0  0
  -29.0471  -19.2555   19.5037 C   0  0  0  0  0  0
  -29.9261  -17.1497   20.5269 C   0  0  0  0  0  0
  -29.9352  -20.0796   20.2597 C   0  0  0  0  0  0
  -32.1537  -19.9541   23.3449 C   0  0  0  0  0  0
  -31.4152  -21.1996   22.9082 C   0  0  0  0  0  0
  -31.8609  -20.1888   21.8791 C   0  0  0  0  0  0
  -28.1251  -19.8492   18.4554 C   0  0  0  0  0  0
  -29.3411  -23.9815   20.2369 C   0  0  0  0  0  0
  -28.1361  -25.0168   20.1395 C   0  0  0  0  0  0
  -28.9600  -22.4278   20.2875 C   0  0  0  0  0  0
  -29.7798  -15.7096   20.7327 N   0  0  0  0  0  0
  -30.0690  -21.4816   20.1216 O   0  0  0  0  0  0
  -31.4842  -12.5364   19.1350 H   0  0  0  0  0  0
  -30.3920  -11.4073   19.8846 H   0  0  0  0  0  0
  -29.7713  -11.7591   17.4734 H   0  0  0  0  0  0
  -29.6502  -13.4791   17.7322 H   0  0  0  0  0  0
  -27.8684  -11.2955   18.8536 H   0  0  0  0  0  0
  -27.3763  -12.5845   17.7892 H   0  0  0  0  0  0
  -27.6674  -14.2543   19.5273 H   0  0  0  0  0  0
  -28.7321  -12.0437   21.3529 H   0  0  0  0  0  0
  -28.4659  -13.6920   21.8481 H   0  0  0  0  0  0
  -25.2744   -9.5691   22.4745 H   0  0  0  0  0  0
  -23.9979   -7.4633   22.7450 H   0  0  0  0  0  0
  -21.0847   -8.8741   19.8947 H   0  0  0  0  0  0
  -22.3649  -10.9652   19.6155 H   0  0  0  0  0  0
  -21.2008   -7.6128   23.9692 H   0  0  0  0  0  0
  -21.1486   -6.0520   25.9067 H   0  0  0  0  0  0
  -22.0606   -2.7586   23.2853 H   0  0  0  0  0  0
  -22.4110  -11.9848   22.4805 H   0  0  0  0  0  0
  -21.1131  -13.1231   22.2599 H   0  0  0  0  0  0
  -24.6630  -15.8402   20.5257 H   0  0  0  0  0  0
  -26.2767  -15.6271   20.0736 H   0  0  0  0  0  0
  -26.7181  -32.5444   23.1097 H   0  0  0  0  0  0
  -25.0031  -33.9694   25.0351 H   0  0  0  0  0  0
  -22.7190  -31.3047   21.3902 H   0  0  0  0  0  0
  -23.3716  -35.9696   23.3273 H   0  0  0  0  0  0
  -24.3577  -36.8984   22.2065 H   0  0  0  0  0  0
  -23.7282  -37.6537   23.6685 H   0  0  0  0  0  0
  -26.0948  -31.5601   20.6024 H   0  0  0  0  0  0
  -26.8455  -30.8473   22.0006 H   0  0  0  0  0  0
  -28.1286  -28.9948   21.1650 H   0  0  0  0  0  0
  -25.9528  -25.9382   19.0053 H   0  0  0  0  0  0
  -23.9778  -27.3116   19.0061 H   0  0  0  0  0  0
  -23.7793  -30.6070   19.3969 H   0  0  0  0  0  0
  -22.7632  -29.2676   19.8400 H   0  0  0  0  0  0
  -25.1281  -36.1920   25.0816 H   0  0  0  0  0  0
  -21.0036  -28.3305   24.1363 H   0  0  0  0  0  0
  -20.5734  -26.2324   23.3596 H   0  0  0  0  0  0
  -21.6645  -26.7459   22.1153 H   0  0  0  0  0  0
  -19.6918  -25.6304   21.1210 H   0  0  0  0  0  0
  -19.6667  -27.3197   20.6728 H   0  0  0  0  0  0
  -17.4212  -26.6669   21.4017 H   0  0  0  0  0  0
  -18.0320  -26.0087   22.9039 H   0  0  0  0  0  0
  -19.7993  -30.7251   24.2231 H   0  0  0  0  0  0
  -17.5068  -31.6249   24.5170 H   0  0  0  0  0  0
  -15.5378  -30.2959   23.7659 H   0  0  0  0  0  0
  -15.8715  -28.0821   22.6999 H   0  0  0  0  0  0
  -24.5857  -30.7155   25.7775 H   0  0  0  0  0  0
  -24.8934  -32.2956   26.4834 H   0  0  0  0  0  0
  -25.8026  -30.8963   27.0212 H   0  0  0  0  0  0
  -26.2916  -29.6757   24.1156 H   0  0  0  0  0  0
  -27.3994  -29.7259   25.4667 H   0  0  0  0  0  0
  -27.8786  -30.4256   23.9398 H   0  0  0  0  0  0
  -27.2589  -33.3629   26.2076 H   0  0  0  0  0  0
  -28.3857  -32.6934   25.0365 H   0  0  0  0  0  0
  -28.0659  -31.8466   26.5433 H   0  0  0  0  0  0
  -28.2561  -38.0136   24.7500 H   0  0  0  0  0  0
  -28.1103  -36.2653   24.6256 H   0  0  0  0  0  0
  -27.2295  -37.1432   25.8862 H   0  0  0  0  0  0
  -20.9361  -29.8906   21.6920 H   0  0  0  0  0  0
  -26.0145  -38.2849   24.1418 H   0  0  0  0  0  0
  -31.5315  -17.4918   21.9225 H   0  0  0  0  0  0
  -28.3268  -17.2558   19.0846 H   0  0  0  0  0  0
  -31.5909  -19.1870   23.8745 H   0  0  0  0  0  0
  -33.1850  -20.0832   23.6715 H   0  0  0  0  0  0
  -31.9518  -22.1441   22.9530 H   0  0  0  0  0  0
  -30.3446  -21.2626   23.0951 H   0  0  0  0  0  0
  -32.6995  -20.4541   21.2366 H   0  0  0  0  0  0
  -27.8961  -19.1170   17.6815 H   0  0  0  0  0  0
  -28.5959  -20.6951   17.9575 H   0  0  0  0  0  0
  -27.1855  -20.1745   18.9014 H   0  0  0  0  0  0
  -29.9605  -24.2214   21.1029 H   0  0  0  0  0  0
  -29.9818  -24.1443   19.3703 H   0  0  0  0  0  0
  -27.4414  -24.7987   20.9530 H   0  0  0  0  0  0
  -27.6268  -24.7519   19.2144 H   0  0  0  0  0  0
  -28.2076  -22.2477   19.5261 H   0  0  0  0  0  0
  -28.4734  -22.2146   21.2376 H   0  0  0  0  0  0
  -28.8299  -15.4058   20.8816 H   0  0  0  0  0  0
  1 25  1  0  0  0
  1 30  2  0  0  0
  1 84  1  0  0  0
  2  3  1  0  0  0
  2 25  1  0  0  0
  2 86  1  0  0  0
  2 87  1  0  0  0
  3  4  1  0  0  0
  3 88  1  0  0  0
  3 89  1  0  0  0
  4  5  1  0  0  0
  4 90  1  0  0  0
  4 91  1  0  0  0
  5  6  1  0  0  0
  5 26  1  0  0  0
  5 92  1  0  0  0
  6 25  1  0  0  0
  6 93  1  0  0  0
  6 94  1  0  0  0
  7  8  2  0  0  0
  7 26  1  0  0  0
  7 29  1  0  0  0
  8  9  1  0  0  0
  8 22  1  0  0  0
  9 10  1  0  0  0
  9 27  2  0  0  0
 10 11  2  0  0  0
 10 15  1  0  0  0
 11 12  1  0  0  0
 11 95  1  0  0  0
 12 13  2  0  0  0
 12 96  1  0  0  0
 13 14  1  0  0  0
 13 31  1  0  0  0
 14 15  2  0  0  0
 14 97  1  0  0  0
 15 98  1  0  0  0
 16 17  2  0  0  0
 16 21  1  0  0  0
 16 31  1  0  0  0
 17 18  1  0  0  0
 17 99  1  0  0  0
 18 19  2  0  0  0
 18100  1  0  0  0
 19 20  1  0  0  0
 19 24  1  0  0  0
 20 21  2  0  0  0
 20101  1  0  0  0
 21 23  1  0  0  0
 22 28  1  0  0  0
 22 32  2  0  0  0
 26 27  1  0  0  0
 28102  1  0  0  0
 28103  1  0  0  0
 29104  1  0  0  0
 29105  1  0  0  0
 33 34  1  0  0  0
 33 66  1  0  0  0
 33 70  2  0  0  0
 34 36  1  0  0  0
 34 59  1  0  0  0
 34106  1  0  0  0
 35 44  2  0  0  0
 35 45  1  0  0  0
 35 68  1  0  0  0
 36 56  1  0  0  0
 36107  1  0  0  0
 37 39  1  0  0  0
 37 47  1  0  0  0
 37 66  1  0  0  0
 37108  1  0  0  0
 38 43  2  0  0  0
 38 46  1  0  0  0
 38 47  1  0  0  0
 39 64  1  0  0  0
 39 67  2  0  0  0
 40 52  1  0  0  0
 40 53  2  0  0  0
 40 58  1  0  0  0
 41109  1  0  0  0
 41110  1  0  0  0
 41111  1  0  0  0
 41 48  1  0  0  0
 42 43  1  0  0  0
 42 66  1  0  0  0
 42112  1  0  0  0
 42113  1  0  0  0
 43 44  1  0  0  0
 44114  1  0  0  0
 45 46  2  0  0  0
 45115  1  0  0  0
 46116  1  0  0  0
 47117  1  0  0  0
 47118  1  0  0  0
 48 56  1  0  0  0
 48 65  1  0  0  0
 48119  1  0  0  0
 49 50  1  0  0  0
 49 53  1  0  0  0
 49 64  1  0  0  0
 49120  1  0  0  0
 50 51  1  0  0  0
 50121  1  0  0  0
 50122  1  0  0  0
 51 52  1  0  0  0
 51123  1  0  0  0
 51124  1  0  0  0
 52125  1  0  0  0
 52126  1  0  0  0
 53 54  1  0  0  0
 54 55  2  0  0  0
 54127  1  0  0  0
 55 57  1  0  0  0
 55128  1  0  0  0
 56 69  2  0  0  0
 57 58  2  0  0  0
 57129  1  0  0  0
 58130  1  0  0  0
 59 60  1  0  0  0
 59 61  1  0  0  0
 59 62  1  0  0  0
 60131  1  0  0  0
 60132  1  0  0  0
 60133  1  0  0  0
 61134  1  0  0  0
 61135  1  0  0  0
 61136  1  0  0  0
 62137  1  0  0  0
 62138  1  0  0  0
 62139  1  0  0  0
 63 65  1  0  0  0
 63140  1  0  0  0
 63141  1  0  0  0
 63142  1  0  0  0
 64143  1  0  0  0
 65144  1  0  0  0
 68 82  1  0  0  0
 71 73  2  0  0  0
 71 75  1  0  0  0
 71145  1  0  0  0
 72 74  1  0  0  0
 72 75  2  0  0  0
 72146  1  0  0  0
 73 76  1  0  0  0
 73 79  1  0  0  0
 74 76  2  0  0  0
 74 80  1  0  0  0
 75 84  1  0  0  0
 76 85  1  0  0  0
 77 78  1  0  0  0
 77 79  1  0  0  0
 77147  1  0  0  0
 77148  1  0  0  0
 78 79  1  0  0  0
 78149  1  0  0  0
 78150  1  0  0  0
 79151  1  0  0  0
 80152  1  0  0  0
 80153  1  0  0  0
 80154  1  0  0  0
 81 82  1  0  0  0
 81 83  1  0  0  0
 81155  1  0  0  0
 81156  1  0  0  0
 82157  1  0  0  0
 82158  1  0  0  0
 83 85  1  0  0  0
 83159  1  0  0  0
 83160  1  0  0  0
 84161  1  0  0  0
M  ISO  4   1 100  68 101  82 101  84 100
M  END
> <chiral flag>
0

> <version>
0

> <s_m_source_file>
/data/baiqing/PycharmProjects/Reinvent-master-3.2/result/LINK_invent/BTK/process_docking_weight1_custom_sum_contain_oxygen_bond_distance_aromatic_linkinvent_7_9_3/rearranged_h_0154.sdf

> <i_m_source_file_index>
19

> <r_mmod_Potential_Energy-OPLS-2005>
102.052032470703

> <r_mmod_Stretch_Energy-OPLS-2005>
80.8012390136719

> <r_mmod_Bend_Energy-OPLS-2005>
144.02946472168

> <r_mmod_Torsional_Energy-OPLS-2005>
285.028167724609

> <r_mmod_Improper_Torsional_Energy-OPLS-2005>
6.4195499420166

> <r_mmod_Van_der_Waal_Energy-OPLS-2005>
137.727462768555

> <r_mmod_Electrostatic_Energy-OPLS-2005>
-389.324401855469

> <r_mmod_Solvation_Energy-OPLS-2005>
-213.095809936523

> <b_mmod_Minimization_Converged-OPLS-2005>
0

> <r_mmod_RMS_Derivative-OPLS-2005>
3.89004921913147

$$$$
20
                    3D
 Structure written by MMmdl.
163172  0  0  1  0            999 V2000
  -30.7534  -14.6360   20.5462 C   0  0  0  0  0  0
  -30.4072  -12.4087   19.4824 C   0  0  0  0  0  0
  -29.4996  -12.5049   18.2397 C   0  0  0  0  0  0
  -28.0272  -12.3414   18.6494 C   0  0  0  0  0  0
  -27.6468  -13.2345   19.8588 C   0  0  2  0  0  0
  -28.6880  -13.1528   20.9959 C   0  0  0  0  0  0
  -25.2533  -13.8217   20.5708 C   0  0  0  0  0  0
  -24.1809  -13.0447   20.9199 C   0  0  0  0  0  0
  -24.6414  -11.6934   20.8765 C   0  0  0  0  0  0
  -23.9098  -10.4305   21.0428 C   0  0  0  0  0  0
  -24.3642   -9.4214   21.9202 C   0  0  0  0  0  0
  -23.6309   -8.2247   22.0769 C   0  0  0  0  0  0
  -22.4290   -8.0291   21.3550 C   0  0  0  0  0  0
  -21.9941   -9.0268   20.4651 C   0  0  0  0  0  0
  -22.7279  -10.2144   20.3069 C   0  0  0  0  0  0
  -21.6854   -6.0747   22.5279 C   0  0  0  0  0  0
  -21.4017   -6.5647   23.8214 C   0  0  0  0  0  0
  -21.3650   -5.6791   24.9172 C   0  0  0  0  0  0
  -21.6042   -4.3055   24.7218 C   0  0  0  0  0  0
  -21.8818   -3.8154   23.4337 C   0  0  0  0  0  0
  -21.9197   -4.6975   22.3400 C   0  0  0  0  0  0
  -22.7832  -13.5227   21.1841 C   0  0  0  0  0  0
  -22.1663   -4.2165   21.0974 F   0  0  0  0  0  0
  -21.5625   -3.4539   25.7731 F   0  0  0  0  0  0
  -30.0064  -13.4796   20.4307 N   0  0  0  0  0  0
  -26.2973  -12.9430   20.3342 N   0  0  0  0  0  0
  -25.9350  -11.6570   20.5798 N   0  0  0  0  0  0
  -22.0479  -12.8210   22.0396 N   0  0  0  0  0  0
  -25.4206  -15.1933   20.4127 N   0  0  0  0  0  0
  -31.8751  -14.6486   20.0322 O   0  0  0  0  0  0
  -21.6645   -6.8890   21.4240 O   0  0  0  0  0  0
  -22.3522  -14.5525   20.6690 O   0  0  0  0  0  0
  -24.6265  -31.8614   23.2075 C   0  0  0  0  0  0
  -25.9119  -32.4775   23.8392 C   0  0  1  0  0  0
  -27.2110  -27.3128   20.1181 C   0  0  0  0  0  0
  -25.5921  -33.8584   24.2292 N   0  0  0  0  0  0
  -23.4167  -30.4920   21.5511 C   0  0  2  0  0  0
  -24.8597  -28.9513   20.1087 C   0  0  0  0  0  0
  -22.7469  -29.4666   22.4962 C   0  0  0  0  0  0
  -18.0305  -28.1396   22.8510 C   0  0  0  0  0  0
  -24.1495  -36.7342   23.2647 C   0  0  0  0  0  0
  -25.9611  -30.7909   21.3768 C   0  0  0  0  0  0
  -26.0339  -29.4212   20.7140 C   0  0  0  0  0  0
  -27.2125  -28.6153   20.7072 C   0  0  0  0  0  0
  -26.0119  -26.9033   19.4852 C   0  0  0  0  0  0
  -24.8520  -27.6981   19.4855 C   0  0  0  0  0  0
  -23.6279  -29.8339   20.1652 C   0  0  0  0  0  0
  -25.4109  -36.3105   24.0331 C   0  0  1  0  0  0
  -20.5906  -28.3712   23.1302 C   0  0  2  0  0  0
  -20.6814  -26.9440   22.5426 C   0  0  0  0  0  0
  -19.5767  -26.6396   21.5252 C   0  0  0  0  0  0
  -18.1929  -26.7944   22.1642 C   0  0  0  0  0  0
  -19.1553  -28.8867   23.2900 C   0  0  0  0  0  0
  -18.9468  -30.1470   23.8907 C   0  0  0  0  0  0
  -17.6460  -30.6594   24.0584 C   0  0  0  0  0  0
  -25.9051  -34.9457   23.5126 C   0  0  0  0  0  0
  -16.5361  -29.9091   23.6347 C   0  0  0  0  0  0
  -16.7289  -28.6523   23.0362 C   0  0  0  0  0  0
  -26.4482  -31.6591   25.0768 C   0  0  0  0  0  0
  -25.3692  -31.3678   26.1475 C   0  0  0  0  0  0
  -27.0365  -30.3023   24.6247 C   0  0  0  0  0  0
  -27.6042  -32.4344   25.7520 C   0  0  0  0  0  0
  -27.5582  -37.1804   24.8448 C   0  0  0  0  0  0
  -21.4200  -29.3049   22.3668 N   0  0  0  0  0  0
  -26.4298  -37.3780   23.9396 N   0  0  0  0  0  0
  -24.6876  -31.0636   22.1027 N   0  0  0  0  0  0
  -23.4184  -28.8211   23.3043 O   0  0  0  0  0  0
  -28.3152  -26.4421   20.1817 O   0  0  0  0  0  0
  -26.5623  -34.8915   22.4696 O   0  0  0  0  0  0
  -23.5439  -32.1467   23.7393 O   0  0  0  0  0  0
  -29.0448  -18.9603   20.8896 C   0  0  0  0  0  0
  -30.3988  -18.6082   20.6776 C   0  0  0  0  0  0
  -31.2480  -19.7257   20.3645 C   0  0  0  0  0  0
  -30.7532  -21.0771   20.4021 C   0  0  0  0  0  0
  -29.3615  -21.3091   20.6032 C   0  0  0  0  0  0
  -31.2017  -16.5477   23.1535 C   0  0  0  0  0  0
  -31.9991  -17.1182   21.9854 C   0  0  0  0  0  0
  -29.9782  -15.8776   22.5037 C   0  0  0  0  0  0
  -31.0043  -17.1336   20.8070 C   0  0  1  0  0  0
  -32.7128  -19.5111   19.9733 C   0  0  0  0  0  0
  -31.7400  -22.2356   20.2452 C   0  0  0  0  0  0
  -28.0336  -24.9825   20.1172 C   0  0  0  0  0  0
  -29.1598  -23.8914   20.3840 C   0  0  0  0  0  0
  -28.5562  -20.2374   20.8266 N   0  0  0  0  0  0
  -30.2389  -15.8319   21.0562 N   0  0  0  0  0  0
  -28.6385  -22.5304   20.6013 O   0  0  0  0  0  0
  -31.4535  -12.4642   19.1801 H   0  0  0  0  0  0
  -30.3058  -11.4326   19.9588 H   0  0  0  0  0  0
  -29.7738  -11.7373   17.5151 H   0  0  0  0  0  0
  -29.6426  -13.4653   17.7417 H   0  0  0  0  0  0
  -27.8733  -11.2912   18.9022 H   0  0  0  0  0  0
  -27.3716  -12.5497   17.8036 H   0  0  0  0  0  0
  -27.6510  -14.2613   19.4914 H   0  0  0  0  0  0
  -28.7058  -12.1530   21.4332 H   0  0  0  0  0  0
  -28.3946  -13.8263   21.7962 H   0  0  0  0  0  0
  -25.2782   -9.5679   22.4791 H   0  0  0  0  0  0
  -24.0011   -7.4641   22.7500 H   0  0  0  0  0  0
  -21.0874   -8.8797   19.8957 H   0  0  0  0  0  0
  -22.3752  -10.9687   19.6180 H   0  0  0  0  0  0
  -21.2010   -7.6156   23.9720 H   0  0  0  0  0  0
  -21.1467   -6.0522   25.9071 H   0  0  0  0  0  0
  -22.0606   -2.7622   23.2831 H   0  0  0  0  0  0
  -22.4114  -11.9880   22.4781 H   0  0  0  0  0  0
  -21.1095  -13.1227   22.2600 H   0  0  0  0  0  0
  -24.6545  -15.8475   20.5289 H   0  0  0  0  0  0
  -26.2734  -15.6359   20.0936 H   0  0  0  0  0  0
  -26.7183  -32.5426   23.1142 H   0  0  0  0  0  0
  -24.9973  -33.9715   25.0368 H   0  0  0  0  0  0
  -22.7116  -31.3153   21.4138 H   0  0  0  0  0  0
  -23.3746  -35.9687   23.3296 H   0  0  0  0  0  0
  -24.3601  -36.9011   22.2070 H   0  0  0  0  0  0
  -23.7272  -37.6541   23.6706 H   0  0  0  0  0  0
  -26.0946  -31.5555   20.6105 H   0  0  0  0  0  0
  -26.8412  -30.8390   22.0070 H   0  0  0  0  0  0
  -28.1113  -28.9686   21.1938 H   0  0  0  0  0  0
  -25.9306  -25.9500   18.9890 H   0  0  0  0  0  0
  -23.9530  -27.3283   19.0117 H   0  0  0  0  0  0
  -23.7406  -30.6170   19.4139 H   0  0  0  0  0  0
  -22.7429  -29.2692   19.8671 H   0  0  0  0  0  0
  -25.1285  -36.1965   25.0821 H   0  0  0  0  0  0
  -21.0010  -28.3328   24.1429 H   0  0  0  0  0  0
  -20.5814  -26.2313   23.3638 H   0  0  0  0  0  0
  -21.6667  -26.7532   22.1151 H   0  0  0  0  0  0
  -19.6941  -25.6317   21.1267 H   0  0  0  0  0  0
  -19.6703  -27.3229   20.6797 H   0  0  0  0  0  0
  -17.4231  -26.6765   21.4005 H   0  0  0  0  0  0
  -18.0276  -26.0065   22.9001 H   0  0  0  0  0  0
  -19.7937  -30.7294   24.2272 H   0  0  0  0  0  0
  -17.5016  -31.6276   24.5189 H   0  0  0  0  0  0
  -15.5356  -30.2979   23.7679 H   0  0  0  0  0  0
  -15.8704  -28.0843   22.7048 H   0  0  0  0  0  0
  -24.5927  -30.6974   25.7777 H   0  0  0  0  0  0
  -24.8776  -32.2796   26.4882 H   0  0  0  0  0  0
  -25.7997  -30.8877   27.0275 H   0  0  0  0  0  0
  -26.2966  -29.6684   24.1353 H   0  0  0  0  0  0
  -27.4165  -29.7358   25.4761 H   0  0  0  0  0  0
  -27.8777  -30.4330   23.9440 H   0  0  0  0  0  0
  -27.2695  -33.3681   26.2066 H   0  0  0  0  0  0
  -28.3852  -32.6860   25.0327 H   0  0  0  0  0  0
  -28.0724  -31.8491   26.5453 H   0  0  0  0  0  0
  -28.2562  -38.0127   24.7535 H   0  0  0  0  0  0
  -28.1122  -36.2670   24.6243 H   0  0  0  0  0  0
  -27.2311  -37.1421   25.8847 H   0  0  0  0  0  0
  -20.9390  -29.8748   21.6859 H   0  0  0  0  0  0
  -26.0203  -38.2868   24.1365 H   0  0  0  0  0  0
  -28.3154  -18.1975   21.1171 H   0  0  0  0  0  0
  -30.9008  -17.3289   23.8550 H   0  0  0  0  0  0
  -31.8079  -15.8297   23.7112 H   0  0  0  0  0  0
  -32.8148  -16.4309   21.7514 H   0  0  0  0  0  0
  -32.4696  -18.0719   22.2181 H   0  0  0  0  0  0
  -29.0764  -16.4646   22.6814 H   0  0  0  0  0  0
  -29.8247  -14.9010   22.9626 H   0  0  0  0  0  0
  -31.5225  -17.0063   19.8583 H   0  0  0  0  0  0
  -32.9724  -18.4896   19.7179 H   0  0  0  0  0  0
  -33.3787  -19.8211   20.7782 H   0  0  0  0  0  0
  -32.9526  -20.0939   19.0829 H   0  0  0  0  0  0
  -32.7708  -21.9629   20.4619 H   0  0  0  0  0  0
  -31.5373  -23.0260   20.9632 H   0  0  0  0  0  0
  -31.7175  -22.6427   19.2349 H   0  0  0  0  0  0
  -27.2278  -24.7771   20.8245 H   0  0  0  0  0  0
  -27.6392  -24.7513   19.1289 H   0  0  0  0  0  0
  -29.7169  -24.1957   21.2685 H   0  0  0  0  0  0
  -29.8385  -23.9057   19.5329 H   0  0  0  0  0  0
  1 25  1  0  0  0
  1 30  2  0  0  0
  1 85  1  0  0  0
  2  3  1  0  0  0
  2 25  1  0  0  0
  2 87  1  0  0  0
  2 88  1  0  0  0
  3  4  1  0  0  0
  3 89  1  0  0  0
  3 90  1  0  0  0
  4  5  1  0  0  0
  4 91  1  0  0  0
  4 92  1  0  0  0
  5  6  1  0  0  0
  5 26  1  0  0  0
  5 93  1  0  0  0
  6 25  1  0  0  0
  6 94  1  0  0  0
  6 95  1  0  0  0
  7  8  2  0  0  0
  7 26  1  0  0  0
  7 29  1  0  0  0
  8  9  1  0  0  0
  8 22  1  0  0  0
  9 10  1  0  0  0
  9 27  2  0  0  0
 10 11  2  0  0  0
 10 15  1  0  0  0
 11 12  1  0  0  0
 11 96  1  0  0  0
 12 13  2  0  0  0
 12 97  1  0  0  0
 13 14  1  0  0  0
 13 31  1  0  0  0
 14 15  2  0  0  0
 14 98  1  0  0  0
 15 99  1  0  0  0
 16 17  2  0  0  0
 16 21  1  0  0  0
 16 31  1  0  0  0
 17 18  1  0  0  0
 17100  1  0  0  0
 18 19  2  0  0  0
 18101  1  0  0  0
 19 20  1  0  0  0
 19 24  1  0  0  0
 20 21  2  0  0  0
 20102  1  0  0  0
 21 23  1  0  0  0
 22 28  1  0  0  0
 22 32  2  0  0  0
 26 27  1  0  0  0
 28103  1  0  0  0
 28104  1  0  0  0
 29105  1  0  0  0
 29106  1  0  0  0
 33 34  1  0  0  0
 33 66  1  0  0  0
 33 70  2  0  0  0
 34 36  1  0  0  0
 34 59  1  0  0  0
 34107  1  0  0  0
 35 44  2  0  0  0
 35 45  1  0  0  0
 35 68  1  0  0  0
 36 56  1  0  0  0
 36108  1  0  0  0
 37 39  1  0  0  0
 37 47  1  0  0  0
 37 66  1  0  0  0
 37109  1  0  0  0
 38 43  2  0  0  0
 38 46  1  0  0  0
 38 47  1  0  0  0
 39 64  1  0  0  0
 39 67  2  0  0  0
 40 52  1  0  0  0
 40 53  2  0  0  0
 40 58  1  0  0  0
 41110  1  0  0  0
 41111  1  0  0  0
 41112  1  0  0  0
 41 48  1  0  0  0
 42 43  1  0  0  0
 42 66  1  0  0  0
 42113  1  0  0  0
 42114  1  0  0  0
 43 44  1  0  0  0
 44115  1  0  0  0
 45 46  2  0  0  0
 45116  1  0  0  0
 46117  1  0  0  0
 47118  1  0  0  0
 47119  1  0  0  0
 48 56  1  0  0  0
 48 65  1  0  0  0
 48120  1  0  0  0
 49 50  1  0  0  0
 49 53  1  0  0  0
 49 64  1  0  0  0
 49121  1  0  0  0
 50 51  1  0  0  0
 50122  1  0  0  0
 50123  1  0  0  0
 51 52  1  0  0  0
 51124  1  0  0  0
 51125  1  0  0  0
 52126  1  0  0  0
 52127  1  0  0  0
 53 54  1  0  0  0
 54 55  2  0  0  0
 54128  1  0  0  0
 55 57  1  0  0  0
 55129  1  0  0  0
 56 69  2  0  0  0
 57 58  2  0  0  0
 57130  1  0  0  0
 58131  1  0  0  0
 59 60  1  0  0  0
 59 61  1  0  0  0
 59 62  1  0  0  0
 60132  1  0  0  0
 60133  1  0  0  0
 60134  1  0  0  0
 61135  1  0  0  0
 61136  1  0  0  0
 61137  1  0  0  0
 62138  1  0  0  0
 62139  1  0  0  0
 62140  1  0  0  0
 63 65  1  0  0  0
 63141  1  0  0  0
 63142  1  0  0  0
 63143  1  0  0  0
 64144  1  0  0  0
 65145  1  0  0  0
 68 82  1  0  0  0
 71 72  2  0  0  0
 71 84  1  0  0  0
 71146  1  0  0  0
 72 73  1  0  0  0
 72 79  1  0  0  0
 73 74  2  0  0  0
 73 80  1  0  0  0
 74 75  1  0  0  0
 74 81  1  0  0  0
 75 84  2  0  0  0
 75 86  1  0  0  0
 76 77  1  0  0  0
 76 78  1  0  0  0
 76147  1  0  0  0
 76148  1  0  0  0
 77 79  1  0  0  0
 77149  1  0  0  0
 77150  1  0  0  0
 78 85  1  0  0  0
 78151  1  0  0  0
 78152  1  0  0  0
 79 85  1  0  0  0
 79153  1  0  0  0
 80154  1  0  0  0
 80155  1  0  0  0
 80156  1  0  0  0
 81157  1  0  0  0
 81158  1  0  0  0
 81159  1  0  0  0
 82 83  1  0  0  0
 82160  1  0  0  0
 82161  1  0  0  0
 83 86  1  0  0  0
 83162  1  0  0  0
 83163  1  0  0  0
M  ISO  4   1 100  68 101  82 101  85 100
M  END
> <chiral flag>
0

> <version>
0

> <s_m_source_file>
/data/baiqing/PycharmProjects/Reinvent-master-3.2/result/LINK_invent/BTK/process_docking_weight1_custom_sum_contain_oxygen_bond_distance_aromatic_linkinvent_7_9_3/rearranged_h_0154.sdf

> <i_m_source_file_index>
20

> <r_mmod_Potential_Energy-OPLS-2005>
255.793029785156

> <r_mmod_Stretch_Energy-OPLS-2005>
104.423545837402

> <r_mmod_Bend_Energy-OPLS-2005>
239.945129394531

> <r_mmod_Torsional_Energy-OPLS-2005>
316.701049804688

> <r_mmod_Improper_Torsional_Energy-OPLS-2005>
9.24576950073242

> <r_mmod_Van_der_Waal_Energy-OPLS-2005>
178.331787109375

> <r_mmod_Electrostatic_Energy-OPLS-2005>
-436.400146484375

> <r_mmod_Solvation_Energy-OPLS-2005>
-210.62956237793

> <b_mmod_Minimization_Converged-OPLS-2005>
0

> <r_mmod_RMS_Derivative-OPLS-2005>
3.38590741157532

$$$$
21
                    3D
 Structure written by MMmdl.
167177  0  0  1  0            999 V2000
  -30.6918  -14.5193   20.4798 C   0  0  0  0  0  0
  -30.4265  -12.3092   19.4434 C   0  0  0  0  0  0
  -29.5061  -12.4745   18.2168 C   0  0  0  0  0  0
  -28.0251  -12.3431   18.6271 C   0  0  0  0  0  0
  -27.6563  -13.2095   19.8643 C   0  0  2  0  0  0
  -28.7030  -13.0625   20.9927 C   0  0  0  0  0  0
  -25.2567  -13.8150   20.5667 C   0  0  0  0  0  0
  -24.1825  -13.0430   20.9162 C   0  0  0  0  0  0
  -24.6398  -11.6897   20.8747 C   0  0  0  0  0  0
  -23.9066  -10.4283   21.0418 C   0  0  0  0  0  0
  -24.3619   -9.4202   21.9191 C   0  0  0  0  0  0
  -23.6279   -8.2247   22.0757 C   0  0  0  0  0  0
  -22.4258   -8.0286   21.3546 C   0  0  0  0  0  0
  -21.9902   -9.0257   20.4646 C   0  0  0  0  0  0
  -22.7237  -10.2125   20.3062 C   0  0  0  0  0  0
  -21.6852   -6.0729   22.5281 C   0  0  0  0  0  0
  -21.4027   -6.5627   23.8219 C   0  0  0  0  0  0
  -21.3664   -5.6773   24.9182 C   0  0  0  0  0  0
  -21.6038   -4.3038   24.7236 C   0  0  0  0  0  0
  -21.8816   -3.8135   23.4361 C   0  0  0  0  0  0
  -21.9198   -4.6949   22.3413 C   0  0  0  0  0  0
  -22.7845  -13.5228   21.1801 C   0  0  0  0  0  0
  -22.1639   -4.2135   21.0988 F   0  0  0  0  0  0
  -21.5658   -3.4518   25.7752 F   0  0  0  0  0  0
  -30.0256  -13.3355   20.4155 N   0  0  0  0  0  0
  -26.3009  -12.9329   20.3346 N   0  0  0  0  0  0
  -25.9328  -11.6490   20.5768 N   0  0  0  0  0  0
  -22.0484  -12.8240   22.0359 N   0  0  0  0  0  0
  -25.4258  -15.1882   20.4098 N   0  0  0  0  0  0
  -31.8971  -14.6084   20.2209 O   0  0  0  0  0  0
  -21.6625   -6.8878   21.4244 O   0  0  0  0  0  0
  -22.3530  -14.5526   20.6628 O   0  0  0  0  0  0
  -24.6188  -31.8653   23.2087 C   0  0  0  0  0  0
  -25.9074  -32.4802   23.8378 C   0  0  1  0  0  0
  -27.2294  -27.3957   20.1010 C   0  0  0  0  0  0
  -25.5914  -33.8602   24.2298 N   0  0  0  0  0  0
  -23.4090  -30.4931   21.5466 C   0  0  2  0  0  0
  -24.8558  -28.9603   20.1106 C   0  0  0  0  0  0
  -22.7418  -29.4672   22.4938 C   0  0  0  0  0  0
  -18.0286  -28.1388   22.8488 C   0  0  0  0  0  0
  -24.1495  -36.7308   23.2639 C   0  0  0  0  0  0
  -25.9438  -30.8205   21.3718 C   0  0  0  0  0  0
  -26.0196  -29.4555   20.7105 C   0  0  0  0  0  0
  -27.2096  -28.6833   20.6994 C   0  0  0  0  0  0
  -26.0432  -26.9388   19.4754 C   0  0  0  0  0  0
  -24.8648  -27.7032   19.4892 C   0  0  0  0  0  0
  -23.6212  -29.8312   20.1604 C   0  0  0  0  0  0
  -25.4123  -36.3097   24.0326 C   0  0  1  0  0  0
  -20.5871  -28.3690   23.1294 C   0  0  2  0  0  0
  -20.6775  -26.9423   22.5405 C   0  0  0  0  0  0
  -19.5753  -26.6390   21.5207 C   0  0  0  0  0  0
  -18.1933  -26.7938   22.1616 C   0  0  0  0  0  0
  -19.1532  -28.8855   23.2896 C   0  0  0  0  0  0
  -18.9460  -30.1458   23.8914 C   0  0  0  0  0  0
  -17.6465  -30.6598   24.0570 C   0  0  0  0  0  0
  -25.9047  -34.9462   23.5105 C   0  0  0  0  0  0
  -16.5357  -29.9099   23.6329 C   0  0  0  0  0  0
  -16.7276  -28.6512   23.0353 C   0  0  0  0  0  0
  -26.4487  -31.6593   25.0719 C   0  0  0  0  0  0
  -25.3738  -31.3700   26.1450 C   0  0  0  0  0  0
  -27.0338  -30.3027   24.6148 C   0  0  0  0  0  0
  -27.6045  -32.4322   25.7494 C   0  0  0  0  0  0
  -27.5588  -37.1816   24.8465 C   0  0  0  0  0  0
  -21.4142  -29.3060   22.3677 N   0  0  0  0  0  0
  -26.4305  -37.3787   23.9402 N   0  0  0  0  0  0
  -24.6746  -31.0740   22.0997 N   0  0  0  0  0  0
  -23.4173  -28.8208   23.2984 O   0  0  0  0  0  0
  -28.3748  -26.6076   20.1544 O   0  0  0  0  0  0
  -26.5611  -34.8918   22.4668 O   0  0  0  0  0  0
  -23.5369  -32.1411   23.7464 O   0  0  0  0  0  0
  -30.2061  -18.8099   18.3724 C   0  0  0  0  0  0
  -29.8476  -19.3328   21.1337 C   0  0  0  0  0  0
  -30.0075  -17.7662   19.2905 C   0  0  0  0  0  0
  -29.8486  -18.0046   20.6382 C   0  0  0  0  0  0
  -30.2473  -20.1453   18.8465 C   0  0  0  0  0  0
  -30.0504  -20.4263   20.2342 C   0  0  0  0  0  0
  -29.9483  -16.2914   19.0099 C   0  0  0  0  0  0
  -30.0856  -17.2335   23.9237 C   0  0  0  0  0  0
  -30.0721  -15.7305   23.7947 C   0  0  0  0  0  0
  -29.6825  -16.6723   21.3670 C   0  0  2  0  0  0
  -30.5291  -16.5826   22.6308 C   0  0  0  0  0  0
  -30.5318  -21.2511   17.8385 C   0  0  0  0  0  0
  -30.1469  -21.8718   20.7783 C   0  0  0  0  0  0
  -29.3411  -24.2674   20.5181 C   0  0  0  0  0  0
  -28.2000  -25.1757   19.9706 C   0  0  0  0  0  0
  -29.9015  -15.6168   20.3307 N   0  0  0  0  0  0
  -29.1029  -22.8042   20.2650 N   0  3  0  0  0  0
  -31.4723  -12.4008   19.1456 H   0  0  0  0  0  0
  -30.3251  -11.3125   19.8769 H   0  0  0  0  0  0
  -29.7543  -11.7322   17.4571 H   0  0  0  0  0  0
  -29.6758  -13.4484   17.7544 H   0  0  0  0  0  0
  -27.8399  -11.2895   18.8433 H   0  0  0  0  0  0
  -27.3828  -12.5987   17.7847 H   0  0  0  0  0  0
  -27.6750  -14.2446   19.5294 H   0  0  0  0  0  0
  -28.6814  -12.0569   21.4175 H   0  0  0  0  0  0
  -28.4832  -13.7498   21.8126 H   0  0  0  0  0  0
  -25.2780   -9.5663   22.4753 H   0  0  0  0  0  0
  -24.0003   -7.4618   22.7446 H   0  0  0  0  0  0
  -21.0861   -8.8763   19.8902 H   0  0  0  0  0  0
  -22.3723  -10.9663   19.6161 H   0  0  0  0  0  0
  -21.2004   -7.6123   23.9726 H   0  0  0  0  0  0
  -21.1496   -6.0502   25.9085 H   0  0  0  0  0  0
  -22.0600   -2.7595   23.2869 H   0  0  0  0  0  0
  -22.4089  -11.9917   22.4780 H   0  0  0  0  0  0
  -21.1074  -13.1233   22.2472 H   0  0  0  0  0  0
  -24.6612  -15.8433   20.5370 H   0  0  0  0  0  0
  -26.2886  -15.6335   20.1245 H   0  0  0  0  0  0
  -26.7140  -32.5510   23.1133 H   0  0  0  0  0  0
  -25.0057  -33.9745   25.0439 H   0  0  0  0  0  0
  -22.7015  -31.3128   21.4057 H   0  0  0  0  0  0
  -23.3747  -35.9652   23.3310 H   0  0  0  0  0  0
  -24.3590  -36.8919   22.2052 H   0  0  0  0  0  0
  -23.7252  -37.6514   23.6660 H   0  0  0  0  0  0
  -26.0720  -31.5951   20.6146 H   0  0  0  0  0  0
  -26.8231  -30.8619   22.0022 H   0  0  0  0  0  0
  -28.1049  -29.0616   21.1738 H   0  0  0  0  0  0
  -25.9966  -25.9866   18.9696 H   0  0  0  0  0  0
  -23.9712  -27.3186   19.0173 H   0  0  0  0  0  0
  -23.7395  -30.6085   19.4042 H   0  0  0  0  0  0
  -22.7440  -29.2563   19.8574 H   0  0  0  0  0  0
  -25.1312  -36.1950   25.0821 H   0  0  0  0  0  0
  -20.9981  -28.3271   24.1410 H   0  0  0  0  0  0
  -20.5685  -26.2307   23.3600 H   0  0  0  0  0  0
  -21.6650  -26.7471   22.1200 H   0  0  0  0  0  0
  -19.6922  -25.6297   21.1253 H   0  0  0  0  0  0
  -19.6697  -27.3187   20.6724 H   0  0  0  0  0  0
  -17.4204  -26.6689   21.4019 H   0  0  0  0  0  0
  -18.0350  -26.0075   22.9005 H   0  0  0  0  0  0
  -19.7941  -30.7272   24.2288 H   0  0  0  0  0  0
  -17.5026  -31.6289   24.5154 H   0  0  0  0  0  0
  -15.5360  -30.3014   23.7648 H   0  0  0  0  0  0
  -15.8673  -28.0846   22.7056 H   0  0  0  0  0  0
  -24.5903  -30.7074   25.7758 H   0  0  0  0  0  0
  -24.8949  -32.2860   26.4919 H   0  0  0  0  0  0
  -25.8076  -30.8827   27.0189 H   0  0  0  0  0  0
  -26.2907  -29.6762   24.1201 H   0  0  0  0  0  0
  -27.4075  -29.7300   25.4643 H   0  0  0  0  0  0
  -27.8757  -30.4314   23.9342 H   0  0  0  0  0  0
  -27.2643  -33.3597   26.2112 H   0  0  0  0  0  0
  -28.3843  -32.6922   25.0325 H   0  0  0  0  0  0
  -28.0733  -31.8423   26.5376 H   0  0  0  0  0  0
  -28.2602  -38.0115   24.7524 H   0  0  0  0  0  0
  -28.1084  -36.2646   24.6288 H   0  0  0  0  0  0
  -27.2306  -37.1465   25.8866 H   0  0  0  0  0  0
  -20.9294  -29.8782   21.6902 H   0  0  0  0  0  0
  -26.0183  -38.2866   24.1387 H   0  0  0  0  0  0
  -30.3422  -18.5861   17.3217 H   0  0  0  0  0  0
  -29.7269  -19.5099   22.1924 H   0  0  0  0  0  0
  -30.8070  -15.9993   18.3995 H   0  0  0  0  0  0
  -29.0475  -16.0574   18.4423 H   0  0  0  0  0  0
  -30.8581  -17.6798   24.5469 H   0  0  0  0  0  0
  -29.1239  -17.7445   23.9370 H   0  0  0  0  0  0
  -29.0985  -15.2482   23.7235 H   0  0  0  0  0  0
  -30.8306  -15.1645   24.3341 H   0  0  0  0  0  0
  -28.6331  -16.6031   21.6602 H   0  0  0  0  0  0
  -31.6015  -16.6073   22.4448 H   0  0  0  0  0  0
  -30.8677  -20.8426   16.8845 H   0  0  0  0  0  0
  -31.3223  -21.9146   18.1898 H   0  0  0  0  0  0
  -29.6382  -21.8425   17.6389 H   0  0  0  0  0  0
  -31.1344  -22.2607   20.5266 H   0  0  0  0  0  0
  -30.1028  -21.8601   21.8685 H   0  0  0  0  0  0
  -29.4488  -24.4309   21.5919 H   0  0  0  0  0  0
  -30.2835  -24.5610   20.0572 H   0  0  0  0  0  0
  -27.2821  -24.8543   20.4659 H   0  0  0  0  0  0
  -28.0769  -24.9836   18.9037 H   0  0  0  0  0  0
  -28.2241  -22.5241   20.6717 H   0  0  0  0  0  0
  -29.0343  -22.6491   19.2724 H   0  0  0  0  0  0
  1 25  1  0  0  0
  1 30  2  0  0  0
  1 86  1  0  0  0
  2  3  1  0  0  0
  2 25  1  0  0  0
  2 88  1  0  0  0
  2 89  1  0  0  0
  3  4  1  0  0  0
  3 90  1  0  0  0
  3 91  1  0  0  0
  4  5  1  0  0  0
  4 92  1  0  0  0
  4 93  1  0  0  0
  5  6  1  0  0  0
  5 26  1  0  0  0
  5 94  1  0  0  0
  6 25  1  0  0  0
  6 95  1  0  0  0
  6 96  1  0  0  0
  7  8  2  0  0  0
  7 26  1  0  0  0
  7 29  1  0  0  0
  8  9  1  0  0  0
  8 22  1  0  0  0
  9 10  1  0  0  0
  9 27  2  0  0  0
 10 11  2  0  0  0
 10 15  1  0  0  0
 11 12  1  0  0  0
 11 97  1  0  0  0
 12 13  2  0  0  0
 12 98  1  0  0  0
 13 14  1  0  0  0
 13 31  1  0  0  0
 14 15  2  0  0  0
 14 99  1  0  0  0
 15100  1  0  0  0
 16 17  2  0  0  0
 16 21  1  0  0  0
 16 31  1  0  0  0
 17 18  1  0  0  0
 17101  1  0  0  0
 18 19  2  0  0  0
 18102  1  0  0  0
 19 20  1  0  0  0
 19 24  1  0  0  0
 20 21  2  0  0  0
 20103  1  0  0  0
 21 23  1  0  0  0
 22 28  1  0  0  0
 22 32  2  0  0  0
 26 27  1  0  0  0
 28104  1  0  0  0
 28105  1  0  0  0
 29106  1  0  0  0
 29107  1  0  0  0
 33 34  1  0  0  0
 33 66  1  0  0  0
 33 70  2  0  0  0
 34 36  1  0  0  0
 34 59  1  0  0  0
 34108  1  0  0  0
 35 44  2  0  0  0
 35 45  1  0  0  0
 35 68  1  0  0  0
 36 56  1  0  0  0
 36109  1  0  0  0
 37 39  1  0  0  0
 37 47  1  0  0  0
 37 66  1  0  0  0
 37110  1  0  0  0
 38 43  2  0  0  0
 38 46  1  0  0  0
 38 47  1  0  0  0
 39 64  1  0  0  0
 39 67  2  0  0  0
 40 52  1  0  0  0
 40 53  2  0  0  0
 40 58  1  0  0  0
 41111  1  0  0  0
 41112  1  0  0  0
 41113  1  0  0  0
 41 48  1  0  0  0
 42 43  1  0  0  0
 42 66  1  0  0  0
 42114  1  0  0  0
 42115  1  0  0  0
 43 44  1  0  0  0
 44116  1  0  0  0
 45 46  2  0  0  0
 45117  1  0  0  0
 46118  1  0  0  0
 47119  1  0  0  0
 47120  1  0  0  0
 48 56  1  0  0  0
 48 65  1  0  0  0
 48121  1  0  0  0
 49 50  1  0  0  0
 49 53  1  0  0  0
 49 64  1  0  0  0
 49122  1  0  0  0
 50 51  1  0  0  0
 50123  1  0  0  0
 50124  1  0  0  0
 51 52  1  0  0  0
 51125  1  0  0  0
 51126  1  0  0  0
 52127  1  0  0  0
 52128  1  0  0  0
 53 54  1  0  0  0
 54 55  2  0  0  0
 54129  1  0  0  0
 55 57  1  0  0  0
 55130  1  0  0  0
 56 69  2  0  0  0
 57 58  2  0  0  0
 57131  1  0  0  0
 58132  1  0  0  0
 59 60  1  0  0  0
 59 61  1  0  0  0
 59 62  1  0  0  0
 60133  1  0  0  0
 60134  1  0  0  0
 60135  1  0  0  0
 61136  1  0  0  0
 61137  1  0  0  0
 61138  1  0  0  0
 62139  1  0  0  0
 62140  1  0  0  0
 62141  1  0  0  0
 63 65  1  0  0  0
 63142  1  0  0  0
 63143  1  0  0  0
 63144  1  0  0  0
 64145  1  0  0  0
 65146  1  0  0  0
 68 85  1  0  0  0
 71 73  2  0  0  0
 71 75  1  0  0  0
 71147  1  0  0  0
 72 74  2  0  0  0
 72 76  1  0  0  0
 72148  1  0  0  0
 73 74  1  0  0  0
 73 77  1  0  0  0
 74 80  1  0  0  0
 75 76  2  0  0  0
 75 82  1  0  0  0
 76 83  1  0  0  0
 77 86  1  0  0  0
 77149  1  0  0  0
 77150  1  0  0  0
 78 79  1  0  0  0
 78151  1  0  0  0
 78152  1  0  0  0
 78 81  1  0  0  0
 79 81  1  0  0  0
 79153  1  0  0  0
 79154  1  0  0  0
 80 81  1  0  0  0
 80 86  1  0  0  0
 80155  1  0  0  0
 81156  1  0  0  0
 82157  1  0  0  0
 82158  1  0  0  0
 82159  1  0  0  0
 83 87  1  0  0  0
 83160  1  0  0  0
 83161  1  0  0  0
 84 85  1  0  0  0
 84 87  1  0  0  0
 84162  1  0  0  0
 84163  1  0  0  0
 85164  1  0  0  0
 85165  1  0  0  0
 87166  1  0  0  0
 87167  1  0  0  0
M  CHG  1  87   1
M  ISO  4   1 100  68 101  85 101  86 100
M  END
> <chiral flag>
0

> <version>
0

> <s_m_source_file>
/data/baiqing/PycharmProjects/Reinvent-master-3.2/result/LINK_invent/BTK/process_docking_weight1_custom_sum_contain_oxygen_bond_distance_aromatic_linkinvent_7_9_3/rearranged_h_0154.sdf

> <i_m_source_file_index>
21

> <r_mmod_Potential_Energy-OPLS-2005>
12.9757623672485

> <r_mmod_Stretch_Energy-OPLS-2005>
52.015323638916

> <r_mmod_Bend_Energy-OPLS-2005>
144.10417175293

> <r_mmod_Torsional_Energy-OPLS-2005>
309.391326904297

> <r_mmod_Improper_Torsional_Energy-OPLS-2005>
19.3899021148682

> <r_mmod_Van_der_Waal_Energy-OPLS-2005>
138.076583862305

> <r_mmod_Electrostatic_Energy-OPLS-2005>
-245.263824462891

> <r_mmod_Solvation_Energy-OPLS-2005>
-433.028533935547

> <b_mmod_Minimization_Converged-OPLS-2005>
0

> <r_mmod_RMS_Derivative-OPLS-2005>
2.37534284591675

$$$$
22
                    3D
 Structure written by MMmdl.
174184  0  0  1  0            999 V2000
  -30.7240  -14.4829   20.6343 C   0  0  0  0  0  0
  -30.4220  -12.3392   19.4224 C   0  0  0  0  0  0
  -29.4907  -12.5149   18.2058 C   0  0  0  0  0  0
  -28.0161  -12.3403   18.6176 C   0  0  0  0  0  0
  -27.6578  -13.1818   19.8668 C   0  0  2  0  0  0
  -28.7017  -12.9584   20.9915 C   0  0  0  0  0  0
  -25.2595  -13.8100   20.5642 C   0  0  0  0  0  0
  -24.1835  -13.0413   20.9179 C   0  0  0  0  0  0
  -24.6362  -11.6870   20.8749 C   0  0  0  0  0  0
  -23.9026  -10.4273   21.0422 C   0  0  0  0  0  0
  -24.3591   -9.4193   21.9196 C   0  0  0  0  0  0
  -23.6274   -8.2227   22.0757 C   0  0  0  0  0  0
  -22.4258   -8.0268   21.3543 C   0  0  0  0  0  0
  -21.9888   -9.0237   20.4644 C   0  0  0  0  0  0
  -22.7209  -10.2118   20.3059 C   0  0  0  0  0  0
  -21.6841   -6.0731   22.5280 C   0  0  0  0  0  0
  -21.4004   -6.5638   23.8213 C   0  0  0  0  0  0
  -21.3655   -5.6790   24.9175 C   0  0  0  0  0  0
  -21.6043   -4.3053   24.7223 C   0  0  0  0  0  0
  -21.8821   -3.8146   23.4346 C   0  0  0  0  0  0
  -21.9189   -4.6962   22.3405 C   0  0  0  0  0  0
  -22.7864  -13.5237   21.1848 C   0  0  0  0  0  0
  -22.1658   -4.2151   21.0980 F   0  0  0  0  0  0
  -21.5632   -3.4536   25.7736 F   0  0  0  0  0  0
  -30.0246  -13.3178   20.4575 N   0  0  0  0  0  0
  -26.2992  -12.9213   20.3308 N   0  0  0  0  0  0
  -25.9270  -11.6404   20.5754 N   0  0  0  0  0  0
  -22.0491  -12.8237   22.0400 N   0  0  0  0  0  0
  -25.4324  -15.1812   20.4009 N   0  0  0  0  0  0
  -31.8061  -14.6558   20.0605 O   0  0  0  0  0  0
  -21.6622   -6.8868   21.4240 O   0  0  0  0  0  0
  -22.3563  -14.5553   20.6701 O   0  0  0  0  0  0
  -24.6139  -31.8676   23.2095 C   0  0  0  0  0  0
  -25.9035  -32.4822   23.8391 C   0  0  1  0  0  0
  -27.2413  -27.4379   20.0850 C   0  0  0  0  0  0
  -25.5901  -33.8621   24.2322 N   0  0  0  0  0  0
  -23.4013  -30.4907   21.5498 C   0  0  2  0  0  0
  -24.8468  -28.9535   20.1151 C   0  0  0  0  0  0
  -22.7407  -29.4656   22.4992 C   0  0  0  0  0  0
  -18.0274  -28.1372   22.8492 C   0  0  0  0  0  0
  -24.1483  -36.7306   23.2636 C   0  0  0  0  0  0
  -25.9292  -30.8318   21.3625 C   0  0  0  0  0  0
  -26.0047  -29.4648   20.7127 C   0  0  0  0  0  0
  -27.1987  -28.7099   20.7019 C   0  0  0  0  0  0
  -26.0588  -26.9339   19.4941 C   0  0  0  0  0  0
  -24.8678  -27.6858   19.5083 C   0  0  0  0  0  0
  -23.6084  -29.8197   20.1649 C   0  0  0  0  0  0
  -25.4106  -36.3111   24.0335 C   0  0  1  0  0  0
  -20.5865  -28.3653   23.1318 C   0  0  2  0  0  0
  -20.6762  -26.9392   22.5414 C   0  0  0  0  0  0
  -19.5745  -26.6378   21.5211 C   0  0  0  0  0  0
  -18.1921  -26.7923   22.1615 C   0  0  0  0  0  0
  -19.1523  -28.8830   23.2901 C   0  0  0  0  0  0
  -18.9452  -30.1438   23.8909 C   0  0  0  0  0  0
  -17.6454  -30.6578   24.0567 C   0  0  0  0  0  0
  -25.9035  -34.9477   23.5124 C   0  0  0  0  0  0
  -16.5345  -29.9081   23.6325 C   0  0  0  0  0  0
  -16.7262  -28.6496   23.0347 C   0  0  0  0  0  0
  -26.4467  -31.6610   25.0721 C   0  0  0  0  0  0
  -25.3733  -31.3712   26.1471 C   0  0  0  0  0  0
  -27.0303  -30.3060   24.6091 C   0  0  0  0  0  0
  -27.6043  -32.4334   25.7482 C   0  0  0  0  0  0
  -27.5586  -37.1801   24.8459 C   0  0  0  0  0  0
  -21.4136  -29.3024   22.3727 N   0  0  0  0  0  0
  -26.4288  -37.3799   23.9421 N   0  0  0  0  0  0
  -24.6664  -31.0778   22.0994 N   0  0  0  0  0  0
  -23.4182  -28.8199   23.3032 O   0  0  0  0  0  0
  -28.4377  -26.7466   20.1006 O   0  0  0  0  0  0
  -26.5591  -34.8932   22.4683 O   0  0  0  0  0  0
  -23.5333  -32.1425   23.7493 O   0  0  0  0  0  0
  -29.2639  -20.3280   20.5242 C   0  0  0  0  0  0
  -29.8222  -19.8599   21.7301 C   0  0  0  0  0  0
  -30.1155  -22.2291   22.3387 C   0  0  0  0  0  0
  -30.2556  -20.8404   22.6732 C   0  0  0  0  0  0
  -29.4702  -22.5560   21.1214 C   0  0  0  0  0  0
  -31.1153  -24.6736   22.7542 C   0  0  0  0  0  0
  -31.9696  -23.7294   23.5444 C   0  0  0  0  0  0
  -28.8996  -17.4655   21.2102 C   0  0  0  0  0  0
  -31.2839  -17.7079   21.8409 C   0  0  0  0  0  0
  -28.9507  -15.9939   21.6749 C   0  0  0  0  0  0
  -31.2844  -16.2253   22.2994 C   0  0  0  0  0  0
  -29.8843  -18.3370   22.0121 C   0  0  0  0  0  0
  -30.5217  -23.3670   23.2620 C   0  0  0  0  0  0
  -29.7900  -20.6365   25.1801 C   0  0  0  0  0  0
  -28.6485  -25.6394   19.2141 C   0  0  0  0  0  0
  -28.2833  -24.2573   19.8017 C   0  0  0  0  0  0
  -30.7964  -20.4001   24.0471 C   0  0  2  0  0  0
  -29.0691  -21.6263   20.2354 N   0  0  0  0  0  0
  -30.3024  -15.4010   21.5608 N   0  0  0  0  0  0
  -32.0381  -20.9781   24.3714 O   0  0  0  0  0  0
  -29.2320  -23.8856   20.8104 O   0  0  0  0  0  0
  -31.4634  -12.4456   19.1133 H   0  0  0  0  0  0
  -30.3448  -11.3247   19.8167 H   0  0  0  0  0  0
  -29.7482  -11.7955   17.4274 H   0  0  0  0  0  0
  -29.6371  -13.5042   17.7694 H   0  0  0  0  0  0
  -27.8471  -11.2826   18.8227 H   0  0  0  0  0  0
  -27.3587  -12.5980   17.7864 H   0  0  0  0  0  0
  -27.6927  -14.2136   19.5247 H   0  0  0  0  0  0
  -28.7036  -11.9076   21.2855 H   0  0  0  0  0  0
  -28.4495  -13.4842   21.9107 H   0  0  0  0  0  0
  -25.2738   -9.5670   22.4770 H   0  0  0  0  0  0
  -23.9983   -7.4614   22.7473 H   0  0  0  0  0  0
  -21.0823   -8.8750   19.8945 H   0  0  0  0  0  0
  -22.3675  -10.9658   19.6166 H   0  0  0  0  0  0
  -21.1988   -7.6146   23.9717 H   0  0  0  0  0  0
  -21.1477   -6.0520   25.9078 H   0  0  0  0  0  0
  -22.0605   -2.7609   23.2841 H   0  0  0  0  0  0
  -22.4084  -11.9884   22.4780 H   0  0  0  0  0  0
  -21.1114  -13.1274   22.2601 H   0  0  0  0  0  0
  -24.6652  -15.8354   20.5096 H   0  0  0  0  0  0
  -26.2798  -15.6182   20.0631 H   0  0  0  0  0  0
  -26.7104  -32.5528   23.1152 H   0  0  0  0  0  0
  -25.0093  -33.9787   25.0498 H   0  0  0  0  0  0
  -22.6901  -31.3073   21.4097 H   0  0  0  0  0  0
  -23.3760  -35.9623   23.3287 H   0  0  0  0  0  0
  -24.3587  -36.8928   22.2054 H   0  0  0  0  0  0
  -23.7213  -37.6498   23.6655 H   0  0  0  0  0  0
  -26.0399  -31.5965   20.5923 H   0  0  0  0  0  0
  -26.8180  -30.8868   21.9792 H   0  0  0  0  0  0
  -28.0948  -29.1038   21.1613 H   0  0  0  0  0  0
  -26.0317  -25.9607   19.0272 H   0  0  0  0  0  0
  -23.9742  -27.2826   19.0512 H   0  0  0  0  0  0
  -23.7139  -30.5922   19.4024 H   0  0  0  0  0  0
  -22.7328  -29.2371   19.8719 H   0  0  0  0  0  0
  -25.1281  -36.1970   25.0827 H   0  0  0  0  0  0
  -20.9962  -28.3213   24.1436 H   0  0  0  0  0  0
  -20.5667  -26.2262   23.3597 H   0  0  0  0  0  0
  -21.6632  -26.7434   22.1204 H   0  0  0  0  0  0
  -19.6907  -25.6291   21.1231 H   0  0  0  0  0  0
  -19.6692  -27.3195   20.6749 H   0  0  0  0  0  0
  -17.4199  -26.6684   21.4008 H   0  0  0  0  0  0
  -18.0311  -26.0052   22.8997 H   0  0  0  0  0  0
  -19.7929  -30.7250   24.2284 H   0  0  0  0  0  0
  -17.5009  -31.6263   24.5161 H   0  0  0  0  0  0
  -15.5346  -30.2988   23.7639 H   0  0  0  0  0  0
  -15.8663  -28.0818   22.7061 H   0  0  0  0  0  0
  -24.5898  -30.7072   25.7802 H   0  0  0  0  0  0
  -24.8935  -32.2867   26.4941 H   0  0  0  0  0  0
  -25.8081  -30.8860   27.0218 H   0  0  0  0  0  0
  -26.2844  -29.6821   24.1153 H   0  0  0  0  0  0
  -27.4095  -29.7296   25.4539 H   0  0  0  0  0  0
  -27.8666  -30.4395   23.9223 H   0  0  0  0  0  0
  -27.2667  -33.3632   26.2074 H   0  0  0  0  0  0
  -28.3844  -32.6900   25.0302 H   0  0  0  0  0  0
  -28.0722  -31.8453   26.5386 H   0  0  0  0  0  0
  -28.2576  -38.0127   24.7558 H   0  0  0  0  0  0
  -28.1107  -36.2663   24.6214 H   0  0  0  0  0  0
  -27.2314  -37.1359   25.8861 H   0  0  0  0  0  0
  -20.9298  -29.8743   21.6944 H   0  0  0  0  0  0
  -26.0174  -38.2867   24.1460 H   0  0  0  0  0  0
  -28.9139  -19.6502   19.7620 H   0  0  0  0  0  0
  -31.3802  -24.7789   21.7038 H   0  0  0  0  0  0
  -30.8122  -25.5945   23.2497 H   0  0  0  0  0  0
  -32.2340  -24.0458   24.5522 H   0  0  0  0  0  0
  -32.7598  -23.2271   22.9882 H   0  0  0  0  0  0
  -27.8825  -17.8420   21.3322 H   0  0  0  0  0  0
  -29.1241  -17.5016   20.1436 H   0  0  0  0  0  0
  -31.5995  -17.7752   20.7986 H   0  0  0  0  0  0
  -32.0325  -18.2563   22.4123 H   0  0  0  0  0  0
  -28.2054  -15.4766   21.0922 H   0  0  0  0  0  0
  -28.6219  -15.9173   22.7121 H   0  0  0  0  0  0
  -31.0426  -16.1713   23.3617 H   0  0  0  0  0  0
  -32.2944  -15.8185   22.2192 H   0  0  0  0  0  0
  -29.5666  -18.2053   23.0463 H   0  0  0  0  0  0
  -29.7923  -23.4806   24.0607 H   0  0  0  0  0  0
  -28.8523  -20.1212   24.9694 H   0  0  0  0  0  0
  -29.5566  -21.6884   25.3261 H   0  0  0  0  0  0
  -30.1667  -20.2491   26.1268 H   0  0  0  0  0  0
  -28.1295  -25.7995   18.2682 H   0  0  0  0  0  0
  -29.7061  -25.6322   18.9490 H   0  0  0  0  0  0
  -28.2765  -23.5581   18.9656 H   0  0  0  0  0  0
  -27.2786  -24.2596   20.2251 H   0  0  0  0  0  0
  -31.0187  -19.3385   24.0631 H   0  0  0  0  0  0
  -31.9504  -21.9085   24.1902 H   0  0  0  0  0  0
  1 25  1  0  0  0
  1 30  2  0  0  0
  1 89  1  0  0  0
  2  3  1  0  0  0
  2 25  1  0  0  0
  2 92  1  0  0  0
  2 93  1  0  0  0
  3  4  1  0  0  0
  3 94  1  0  0  0
  3 95  1  0  0  0
  4  5  1  0  0  0
  4 96  1  0  0  0
  4 97  1  0  0  0
  5  6  1  0  0  0
  5 26  1  0  0  0
  5 98  1  0  0  0
  6 25  1  0  0  0
  6 99  1  0  0  0
  6100  1  0  0  0
  7  8  2  0  0  0
  7 26  1  0  0  0
  7 29  1  0  0  0
  8  9  1  0  0  0
  8 22  1  0  0  0
  9 10  1  0  0  0
  9 27  2  0  0  0
 10 11  2  0  0  0
 10 15  1  0  0  0
 11 12  1  0  0  0
 11101  1  0  0  0
 12 13  2  0  0  0
 12102  1  0  0  0
 13 14  1  0  0  0
 13 31  1  0  0  0
 14 15  2  0  0  0
 14103  1  0  0  0
 15104  1  0  0  0
 16 17  2  0  0  0
 16 21  1  0  0  0
 16 31  1  0  0  0
 17 18  1  0  0  0
 17105  1  0  0  0
 18 19  2  0  0  0
 18106  1  0  0  0
 19 20  1  0  0  0
 19 24  1  0  0  0
 20 21  2  0  0  0
 20107  1  0  0  0
 21 23  1  0  0  0
 22 28  1  0  0  0
 22 32  2  0  0  0
 26 27  1  0  0  0
 28108  1  0  0  0
 28109  1  0  0  0
 29110  1  0  0  0
 29111  1  0  0  0
 33 34  1  0  0  0
 33 66  1  0  0  0
 33 70  2  0  0  0
 34 36  1  0  0  0
 34 59  1  0  0  0
 34112  1  0  0  0
 35 44  2  0  0  0
 35 45  1  0  0  0
 35 68  1  0  0  0
 36 56  1  0  0  0
 36113  1  0  0  0
 37 39  1  0  0  0
 37 47  1  0  0  0
 37 66  1  0  0  0
 37114  1  0  0  0
 38 43  2  0  0  0
 38 46  1  0  0  0
 38 47  1  0  0  0
 39 64  1  0  0  0
 39 67  2  0  0  0
 40 52  1  0  0  0
 40 53  2  0  0  0
 40 58  1  0  0  0
 41115  1  0  0  0
 41116  1  0  0  0
 41117  1  0  0  0
 41 48  1  0  0  0
 42 43  1  0  0  0
 42 66  1  0  0  0
 42118  1  0  0  0
 42119  1  0  0  0
 43 44  1  0  0  0
 44120  1  0  0  0
 45 46  2  0  0  0
 45121  1  0  0  0
 46122  1  0  0  0
 47123  1  0  0  0
 47124  1  0  0  0
 48 56  1  0  0  0
 48 65  1  0  0  0
 48125  1  0  0  0
 49 50  1  0  0  0
 49 53  1  0  0  0
 49 64  1  0  0  0
 49126  1  0  0  0
 50 51  1  0  0  0
 50127  1  0  0  0
 50128  1  0  0  0
 51 52  1  0  0  0
 51129  1  0  0  0
 51130  1  0  0  0
 52131  1  0  0  0
 52132  1  0  0  0
 53 54  1  0  0  0
 54 55  2  0  0  0
 54133  1  0  0  0
 55 57  1  0  0  0
 55134  1  0  0  0
 56 69  2  0  0  0
 57 58  2  0  0  0
 57135  1  0  0  0
 58136  1  0  0  0
 59 60  1  0  0  0
 59 61  1  0  0  0
 59 62  1  0  0  0
 60137  1  0  0  0
 60138  1  0  0  0
 60139  1  0  0  0
 61140  1  0  0  0
 61141  1  0  0  0
 61142  1  0  0  0
 62143  1  0  0  0
 62144  1  0  0  0
 62145  1  0  0  0
 63 65  1  0  0  0
 63146  1  0  0  0
 63147  1  0  0  0
 63148  1  0  0  0
 64149  1  0  0  0
 65150  1  0  0  0
 68 85  1  0  0  0
 71 72  2  0  0  0
 71 88  1  0  0  0
 71151  1  0  0  0
 72 74  1  0  0  0
 72 82  1  0  0  0
 73 74  2  0  0  0
 73 75  1  0  0  0
 73 83  1  0  0  0
 74 87  1  0  0  0
 75 88  2  0  0  0
 75 91  1  0  0  0
 76 77  1  0  0  0
 76 83  1  0  0  0
 76152  1  0  0  0
 76153  1  0  0  0
 77 83  1  0  0  0
 77154  1  0  0  0
 77155  1  0  0  0
 78 80  1  0  0  0
 78 82  1  0  0  0
 78156  1  0  0  0
 78157  1  0  0  0
 79 81  1  0  0  0
 79 82  1  0  0  0
 79158  1  0  0  0
 79159  1  0  0  0
 80 89  1  0  0  0
 80160  1  0  0  0
 80161  1  0  0  0
 81 89  1  0  0  0
 81162  1  0  0  0
 81163  1  0  0  0
 82164  1  0  0  0
 83165  1  0  0  0
 84166  1  0  0  0
 84167  1  0  0  0
 84168  1  0  0  0
 84 87  1  0  0  0
 85 86  1  0  0  0
 85169  1  0  0  0
 85170  1  0  0  0
 86 91  1  0  0  0
 86171  1  0  0  0
 86172  1  0  0  0
 87 90  1  0  0  0
 87173  1  0  0  0
 90174  1  0  0  0
M  ISO  4   1 100  68 101  85 101  89 100
M  END
> <chiral flag>
0

> <version>
0

> <s_m_source_file>
/data/baiqing/PycharmProjects/Reinvent-master-3.2/result/LINK_invent/BTK/process_docking_weight1_custom_sum_contain_oxygen_bond_distance_aromatic_linkinvent_7_9_3/rearranged_h_0154.sdf

> <i_m_source_file_index>
22

> <r_mmod_Potential_Energy-OPLS-2005>
-25.4414920806885

> <r_mmod_Stretch_Energy-OPLS-2005>
50.6636695861816

> <r_mmod_Bend_Energy-OPLS-2005>
142.708679199219

> <r_mmod_Torsional_Energy-OPLS-2005>
310.312225341797

> <r_mmod_Improper_Torsional_Energy-OPLS-2005>
4.43020915985107

> <r_mmod_Van_der_Waal_Energy-OPLS-2005>
187.35612487793

> <r_mmod_Electrostatic_Energy-OPLS-2005>
-513.103942871094

> <r_mmod_Solvation_Energy-OPLS-2005>
-220.528030395508

> <b_mmod_Minimization_Converged-OPLS-2005>
0

> <r_mmod_RMS_Derivative-OPLS-2005>
0.707035601139069

$$$$
23
                    3D
 Structure written by MMmdl.
170180  0  0  1  0            999 V2000
  -30.7058  -14.7416   20.4589 C   0  0  0  0  0  0
  -30.4098  -12.4660   19.4685 C   0  0  0  0  0  0
  -29.4921  -12.4907   18.2311 C   0  0  0  0  0  0
  -28.0284  -12.2884   18.6587 C   0  0  0  0  0  0
  -27.6260  -13.2106   19.8363 C   0  0  2  0  0  0
  -28.6817  -13.2329   20.9685 C   0  0  0  0  0  0
  -25.2492  -13.8130   20.5736 C   0  0  0  0  0  0
  -24.1770  -13.0405   20.9244 C   0  0  0  0  0  0
  -24.6343  -11.6877   20.8794 C   0  0  0  0  0  0
  -23.9023  -10.4268   21.0439 C   0  0  0  0  0  0
  -24.3591   -9.4183   21.9205 C   0  0  0  0  0  0
  -23.6276   -8.2214   22.0759 C   0  0  0  0  0  0
  -22.4260   -8.0259   21.3543 C   0  0  0  0  0  0
  -21.9889   -9.0232   20.4647 C   0  0  0  0  0  0
  -22.7208  -10.2115   20.3071 C   0  0  0  0  0  0
  -21.6843   -6.0724   22.5279 C   0  0  0  0  0  0
  -21.4006   -6.5632   23.8212 C   0  0  0  0  0  0
  -21.3659   -5.6788   24.9175 C   0  0  0  0  0  0
  -21.6048   -4.3051   24.7228 C   0  0  0  0  0  0
  -21.8819   -3.8139   23.4350 C   0  0  0  0  0  0
  -21.9191   -4.6953   22.3405 C   0  0  0  0  0  0
  -22.7801  -13.5217   21.1889 C   0  0  0  0  0  0
  -22.1662   -4.2138   21.0983 F   0  0  0  0  0  0
  -21.5630   -3.4539   25.7743 F   0  0  0  0  0  0
  -29.9774  -13.5694   20.3643 N   0  0  0  0  0  0
  -26.2869  -12.9277   20.3300 N   0  0  0  0  0  0
  -25.9259  -11.6450   20.5799 N   0  0  0  0  0  0
  -22.0435  -12.8214   22.0439 N   0  0  0  0  0  0
  -25.4205  -15.1852   20.4158 N   0  0  0  0  0  0
  -31.9029  -14.6989   20.1647 O   0  0  0  0  0  0
  -21.6626   -6.8860   21.4237 O   0  0  0  0  0  0
  -22.3502  -14.5526   20.6728 O   0  0  0  0  0  0
  -24.6299  -31.8567   23.2013 C   0  0  0  0  0  0
  -25.9134  -32.4764   23.8344 C   0  0  1  0  0  0
  -27.2157  -27.2821   20.1254 C   0  0  0  0  0  0
  -25.5936  -33.8564   24.2269 N   0  0  0  0  0  0
  -23.4269  -30.4810   21.5433 C   0  0  2  0  0  0
  -24.8772  -28.9397   20.1024 C   0  0  0  0  0  0
  -22.7506  -29.4605   22.4908 C   0  0  0  0  0  0
  -18.0299  -28.1379   22.8485 C   0  0  0  0  0  0
  -24.1492  -36.7287   23.2638 C   0  0  0  0  0  0
  -25.9722  -30.7757   21.3812 C   0  0  0  0  0  0
  -26.0478  -29.4026   20.7189 C   0  0  0  0  0  0
  -27.2232  -28.5851   20.7241 C   0  0  0  0  0  0
  -26.0366  -26.9036   19.4467 C   0  0  0  0  0  0
  -24.8764  -27.6973   19.4531 C   0  0  0  0  0  0
  -23.6449  -29.8203   20.1569 C   0  0  0  0  0  0
  -25.4117  -36.3072   24.0327 C   0  0  1  0  0  0
  -20.5901  -28.3693   23.1276 C   0  0  2  0  0  0
  -20.6791  -26.9412   22.5410 C   0  0  0  0  0  0
  -19.5767  -26.6379   21.5214 C   0  0  0  0  0  0
  -18.1947  -26.7921   22.1625 C   0  0  0  0  0  0
  -19.1549  -28.8855   23.2873 C   0  0  0  0  0  0
  -18.9463  -30.1457   23.8887 C   0  0  0  0  0  0
  -17.6460  -30.6583   24.0551 C   0  0  0  0  0  0
  -25.9055  -34.9442   23.5099 C   0  0  0  0  0  0
  -16.5354  -29.9074   23.6322 C   0  0  0  0  0  0
  -16.7283  -28.6489   23.0350 C   0  0  0  0  0  0
  -26.4504  -31.6577   25.0724 C   0  0  0  0  0  0
  -25.3729  -31.3724   26.1444 C   0  0  0  0  0  0
  -27.0346  -30.2991   24.6201 C   0  0  0  0  0  0
  -27.6059  -32.4309   25.7498 C   0  0  0  0  0  0
  -27.5579  -37.1802   24.8465 C   0  0  0  0  0  0
  -21.4210  -29.3045   22.3664 N   0  0  0  0  0  0
  -26.4291  -37.3770   23.9406 N   0  0  0  0  0  0
  -24.6950  -31.0548   22.0981 N   0  0  0  0  0  0
  -23.4214  -28.8140   23.2994 O   0  0  0  0  0  0
  -28.2484  -26.3216   20.2370 O   0  0  0  0  0  0
  -26.5618  -34.8914   22.4663 O   0  0  0  0  0  0
  -23.5452  -32.1377   23.7318 O   0  0  0  0  0  0
  -28.4893  -22.8018   19.5886 C   0  0  0  0  0  0
  -29.1114  -22.9440   21.8722 C   0  0  0  0  0  0
  -28.8044  -21.3902   19.5654 C   0  0  0  0  0  0
  -29.2295  -20.6904   20.7548 C   0  0  0  0  0  0
  -28.5773  -23.6243   20.7454 C   0  0  0  0  0  0
  -29.4096  -21.5449   21.8935 C   0  0  0  0  0  0
  -27.8929  -21.1886   17.0549 C   0  0  0  0  0  0
  -27.3473  -20.0301   17.8471 C   0  0  0  0  0  0
  -28.6759  -18.0624   20.0340 C   0  0  0  0  0  0
  -30.8807  -18.5308   20.8793 C   0  0  0  0  0  0
  -28.8132  -16.5259   20.4176 C   0  0  0  0  0  0
  -30.9995  -17.0546   21.4273 C   0  0  0  0  0  0
  -28.6629  -20.6578   18.2536 C   0  0  0  0  0  0
  -29.4385  -19.0923   20.9191 C   0  0  0  0  0  0
  -29.8662  -20.9760   23.2309 C   0  0  0  0  0  0
  -27.5382  -25.3733   22.3685 C   0  0  0  0  0  0
  -27.8212  -25.0331   20.8874 C   0  0  1  0  0  0
  -30.1526  -15.9871   20.7983 N   0  0  0  0  0  0
  -31.4506  -12.5523   19.1528 H   0  0  0  0  0  0
  -30.3393  -11.5063   19.9835 H   0  0  0  0  0  0
  -29.7855  -11.7122   17.5258 H   0  0  0  0  0  0
  -29.6004  -13.4406   17.7049 H   0  0  0  0  0  0
  -27.9125  -11.2445   18.9522 H   0  0  0  0  0  0
  -27.3597  -12.4406   17.8105 H   0  0  0  0  0  0
  -27.5693  -14.1915   19.3848 H   0  0  0  0  0  0
  -28.7357  -12.2661   21.4708 H   0  0  0  0  0  0
  -28.4111  -13.9605   21.7343 H   0  0  0  0  0  0
  -25.2733   -9.5663   22.4784 H   0  0  0  0  0  0
  -23.9986   -7.4599   22.7474 H   0  0  0  0  0  0
  -21.0822   -8.8746   19.8952 H   0  0  0  0  0  0
  -22.3665  -10.9659   19.6185 H   0  0  0  0  0  0
  -21.1993   -7.6140   23.9711 H   0  0  0  0  0  0
  -21.1488   -6.0520   25.9079 H   0  0  0  0  0  0
  -22.0601   -2.7602   23.2853 H   0  0  0  0  0  0
  -22.4036  -11.9873   22.4834 H   0  0  0  0  0  0
  -21.1056  -13.1247   22.2639 H   0  0  0  0  0  0
  -24.6566  -15.8410   20.5377 H   0  0  0  0  0  0
  -26.2755  -15.6267   20.1054 H   0  0  0  0  0  0
  -26.7202  -32.5429   23.1087 H   0  0  0  0  0  0
  -25.0090  -33.9704   25.0418 H   0  0  0  0  0  0
  -22.7219  -31.3023   21.4001 H   0  0  0  0  0  0
  -23.3755  -35.9620   23.3297 H   0  0  0  0  0  0
  -24.3580  -36.8906   22.2051 H   0  0  0  0  0  0
  -23.7244  -37.6490   23.6659 H   0  0  0  0  0  0
  -26.1109  -31.5397   20.6150 H   0  0  0  0  0  0
  -26.8495  -30.8220   22.0145 H   0  0  0  0  0  0
  -28.1103  -28.9218   21.2416 H   0  0  0  0  0  0
  -25.9906  -25.9555   18.9308 H   0  0  0  0  0  0
  -23.9858  -27.3429   18.9526 H   0  0  0  0  0  0
  -23.7650  -30.5987   19.4022 H   0  0  0  0  0  0
  -22.7650  -29.2507   19.8533 H   0  0  0  0  0  0
  -25.1301  -36.1919   25.0821 H   0  0  0  0  0  0
  -20.9998  -28.3272   24.1396 H   0  0  0  0  0  0
  -20.5694  -26.2299   23.3611 H   0  0  0  0  0  0
  -21.6660  -26.7443   22.1205 H   0  0  0  0  0  0
  -19.6931  -25.6289   21.1245 H   0  0  0  0  0  0
  -19.6700  -27.3187   20.6741 H   0  0  0  0  0  0
  -17.4222  -26.6665   21.4026 H   0  0  0  0  0  0
  -18.0353  -26.0053   22.9014 H   0  0  0  0  0  0
  -19.7934  -30.7276   24.2258 H   0  0  0  0  0  0
  -17.5010  -31.6267   24.5143 H   0  0  0  0  0  0
  -15.5351  -30.2969   23.7644 H   0  0  0  0  0  0
  -15.8691  -28.0795   22.7074 H   0  0  0  0  0  0
  -24.5912  -30.7064   25.7771 H   0  0  0  0  0  0
  -24.8918  -32.2895   26.4855 H   0  0  0  0  0  0
  -25.8050  -30.8910   27.0227 H   0  0  0  0  0  0
  -26.2930  -29.6740   24.1215 H   0  0  0  0  0  0
  -27.4017  -29.7245   25.4715 H   0  0  0  0  0  0
  -27.8812  -30.4262   23.9451 H   0  0  0  0  0  0
  -27.2672  -33.3613   26.2067 H   0  0  0  0  0  0
  -28.3878  -32.6857   25.0333 H   0  0  0  0  0  0
  -28.0717  -31.8437   26.5421 H   0  0  0  0  0  0
  -28.2599  -38.0098   24.7507 H   0  0  0  0  0  0
  -28.1072  -36.2627   24.6298 H   0  0  0  0  0  0
  -27.2295  -37.1459   25.8868 H   0  0  0  0  0  0
  -20.9389  -29.8779   21.6885 H   0  0  0  0  0  0
  -26.0170  -38.2846   24.1402 H   0  0  0  0  0  0
  -28.1002  -23.2770   18.7019 H   0  0  0  0  0  0
  -29.2164  -23.4862   22.7998 H   0  0  0  0  0  0
  -27.3162  -22.1077   17.1152 H   0  0  0  0  0  0
  -28.2817  -20.9570   16.0653 H   0  0  0  0  0  0
  -27.3718  -19.0528   17.3690 H   0  0  0  0  0  0
  -26.4800  -20.2210   18.4764 H   0  0  0  0  0  0
  -27.6163  -18.3176   20.0215 H   0  0  0  0  0  0
  -29.0237  -18.1545   19.0068 H   0  0  0  0  0  0
  -31.2697  -18.5831   19.8613 H   0  0  0  0  0  0
  -31.5420  -19.1655   21.4671 H   0  0  0  0  0  0
  -28.4826  -15.9937   19.5328 H   0  0  0  0  0  0
  -28.1181  -16.2907   21.2237 H   0  0  0  0  0  0
  -30.7433  -17.0637   22.4873 H   0  0  0  0  0  0
  -32.0561  -16.7838   21.4055 H   0  0  0  0  0  0
  -29.5840  -20.1261   18.0208 H   0  0  0  0  0  0
  -29.0586  -18.8848   21.9186 H   0  0  0  0  0  0
  -30.0931  -21.7649   23.9485 H   0  0  0  0  0  0
  -30.7689  -20.3772   23.1303 H   0  0  0  0  0  0
  -29.0845  -20.3569   23.6715 H   0  0  0  0  0  0
  -26.8553  -26.2149   22.4787 H   0  0  0  0  0  0
  -28.4544  -25.6314   22.8995 H   0  0  0  0  0  0
  -27.0679  -24.5352   22.8840 H   0  0  0  0  0  0
  -26.8505  -24.7587   20.4800 H   0  0  0  0  0  0
  1 25  1  0  0  0
  1 30  2  0  0  0
  1 88  1  0  0  0
  2  3  1  0  0  0
  2 25  1  0  0  0
  2 89  1  0  0  0
  2 90  1  0  0  0
  3  4  1  0  0  0
  3 91  1  0  0  0
  3 92  1  0  0  0
  4  5  1  0  0  0
  4 93  1  0  0  0
  4 94  1  0  0  0
  5  6  1  0  0  0
  5 26  1  0  0  0
  5 95  1  0  0  0
  6 25  1  0  0  0
  6 96  1  0  0  0
  6 97  1  0  0  0
  7  8  2  0  0  0
  7 26  1  0  0  0
  7 29  1  0  0  0
  8  9  1  0  0  0
  8 22  1  0  0  0
  9 10  1  0  0  0
  9 27  2  0  0  0
 10 11  2  0  0  0
 10 15  1  0  0  0
 11 12  1  0  0  0
 11 98  1  0  0  0
 12 13  2  0  0  0
 12 99  1  0  0  0
 13 14  1  0  0  0
 13 31  1  0  0  0
 14 15  2  0  0  0
 14100  1  0  0  0
 15101  1  0  0  0
 16 17  2  0  0  0
 16 21  1  0  0  0
 16 31  1  0  0  0
 17 18  1  0  0  0
 17102  1  0  0  0
 18 19  2  0  0  0
 18103  1  0  0  0
 19 20  1  0  0  0
 19 24  1  0  0  0
 20 21  2  0  0  0
 20104  1  0  0  0
 21 23  1  0  0  0
 22 28  1  0  0  0
 22 32  2  0  0  0
 26 27  1  0  0  0
 28105  1  0  0  0
 28106  1  0  0  0
 29107  1  0  0  0
 29108  1  0  0  0
 33 34  1  0  0  0
 33 66  1  0  0  0
 33 70  2  0  0  0
 34 36  1  0  0  0
 34 59  1  0  0  0
 34109  1  0  0  0
 35 44  2  0  0  0
 35 45  1  0  0  0
 35 68  1  0  0  0
 36 56  1  0  0  0
 36110  1  0  0  0
 37 39  1  0  0  0
 37 47  1  0  0  0
 37 66  1  0  0  0
 37111  1  0  0  0
 38 43  2  0  0  0
 38 46  1  0  0  0
 38 47  1  0  0  0
 39 64  1  0  0  0
 39 67  2  0  0  0
 40 52  1  0  0  0
 40 53  2  0  0  0
 40 58  1  0  0  0
 41112  1  0  0  0
 41113  1  0  0  0
 41114  1  0  0  0
 41 48  1  0  0  0
 42 43  1  0  0  0
 42 66  1  0  0  0
 42115  1  0  0  0
 42116  1  0  0  0
 43 44  1  0  0  0
 44117  1  0  0  0
 45 46  2  0  0  0
 45118  1  0  0  0
 46119  1  0  0  0
 47120  1  0  0  0
 47121  1  0  0  0
 48 56  1  0  0  0
 48 65  1  0  0  0
 48122  1  0  0  0
 49 50  1  0  0  0
 49 53  1  0  0  0
 49 64  1  0  0  0
 49123  1  0  0  0
 50 51  1  0  0  0
 50124  1  0  0  0
 50125  1  0  0  0
 51 52  1  0  0  0
 51126  1  0  0  0
 51127  1  0  0  0
 52128  1  0  0  0
 52129  1  0  0  0
 53 54  1  0  0  0
 54 55  2  0  0  0
 54130  1  0  0  0
 55 57  1  0  0  0
 55131  1  0  0  0
 56 69  2  0  0  0
 57 58  2  0  0  0
 57132  1  0  0  0
 58133  1  0  0  0
 59 60  1  0  0  0
 59 61  1  0  0  0
 59 62  1  0  0  0
 60134  1  0  0  0
 60135  1  0  0  0
 60136  1  0  0  0
 61137  1  0  0  0
 61138  1  0  0  0
 61139  1  0  0  0
 62140  1  0  0  0
 62141  1  0  0  0
 62142  1  0  0  0
 63 65  1  0  0  0
 63143  1  0  0  0
 63144  1  0  0  0
 63145  1  0  0  0
 64146  1  0  0  0
 65147  1  0  0  0
 68 87  1  0  0  0
 71 73  2  0  0  0
 71 75  1  0  0  0
 71148  1  0  0  0
 72 75  2  0  0  0
 72 76  1  0  0  0
 72149  1  0  0  0
 73 74  1  0  0  0
 73 83  1  0  0  0
 74 76  2  0  0  0
 74 84  1  0  0  0
 75 87  1  0  0  0
 76 85  1  0  0  0
 77 78  1  0  0  0
 77 83  1  0  0  0
 77150  1  0  0  0
 77151  1  0  0  0
 78 83  1  0  0  0
 78152  1  0  0  0
 78153  1  0  0  0
 79 81  1  0  0  0
 79 84  1  0  0  0
 79154  1  0  0  0
 79155  1  0  0  0
 80 82  1  0  0  0
 80 84  1  0  0  0
 80156  1  0  0  0
 80157  1  0  0  0
 81 88  1  0  0  0
 81158  1  0  0  0
 81159  1  0  0  0
 82 88  1  0  0  0
 82160  1  0  0  0
 82161  1  0  0  0
 83162  1  0  0  0
 84163  1  0  0  0
 85164  1  0  0  0
 85165  1  0  0  0
 85166  1  0  0  0
 86167  1  0  0  0
 86168  1  0  0  0
 86169  1  0  0  0
 86 87  1  0  0  0
 87170  1  0  0  0
M  ISO  4   1 100  68 101  87 101  88 100
M  END
> <chiral flag>
0

> <version>
0

> <s_m_source_file>
/data/baiqing/PycharmProjects/Reinvent-master-3.2/result/LINK_invent/BTK/process_docking_weight1_custom_sum_contain_oxygen_bond_distance_aromatic_linkinvent_7_9_3/rearranged_h_0154.sdf

> <i_m_source_file_index>
23

> <r_mmod_Potential_Energy-OPLS-2005>
480.514404296875

> <r_mmod_Stretch_Energy-OPLS-2005>
123.015365600586

> <r_mmod_Bend_Energy-OPLS-2005>
211.35285949707

> <r_mmod_Torsional_Energy-OPLS-2005>
379.548492431641

> <r_mmod_Improper_Torsional_Energy-OPLS-2005>
5.05156326293945

> <r_mmod_Van_der_Waal_Energy-OPLS-2005>
162.0703125

> <r_mmod_Electrostatic_Energy-OPLS-2005>
-302.831817626953

> <r_mmod_Solvation_Energy-OPLS-2005>
-193.913711547852

> <b_mmod_Minimization_Converged-OPLS-2005>
0

> <r_mmod_RMS_Derivative-OPLS-2005>
0.676408410072327

$$$$
24
                    3D
 Structure written by MMmdl.
165174  0  0  1  0            999 V2000
  -30.6294  -14.6666   20.4309 C   0  0  0  0  0  0
  -30.3905  -12.3890   19.4606 C   0  0  0  0  0  0
  -29.4824  -12.4891   18.2200 C   0  0  0  0  0  0
  -28.0179  -12.2811   18.6474 C   0  0  0  0  0  0
  -27.6240  -13.2021   19.8348 C   0  0  2  0  0  0
  -28.6624  -13.1631   20.9748 C   0  0  0  0  0  0
  -25.2498  -13.8106   20.5678 C   0  0  0  0  0  0
  -24.1732  -13.0395   20.9165 C   0  0  0  0  0  0
  -24.6290  -11.6872   20.8734 C   0  0  0  0  0  0
  -23.8968  -10.4276   21.0421 C   0  0  0  0  0  0
  -24.3556   -9.4222   21.9194 C   0  0  0  0  0  0
  -23.6260   -8.2238   22.0771 C   0  0  0  0  0  0
  -22.4263   -8.0242   21.3546 C   0  0  0  0  0  0
  -21.9875   -9.0183   20.4637 C   0  0  0  0  0  0
  -22.7154  -10.2082   20.3052 C   0  0  0  0  0  0
  -21.6851   -6.0719   22.5290 C   0  0  0  0  0  0
  -21.4006   -6.5627   23.8208 C   0  0  0  0  0  0
  -21.3679   -5.6789   24.9172 C   0  0  0  0  0  0
  -21.6059   -4.3057   24.7234 C   0  0  0  0  0  0
  -21.8821   -3.8137   23.4365 C   0  0  0  0  0  0
  -21.9176   -4.6949   22.3405 C   0  0  0  0  0  0
  -22.7791  -13.5219   21.1864 C   0  0  0  0  0  0
  -22.1647   -4.2130   21.0988 F   0  0  0  0  0  0
  -21.5641   -3.4533   25.7763 F   0  0  0  0  0  0
  -29.9719  -13.4633   20.3875 N   0  0  0  0  0  0
  -26.2813  -12.9218   20.3182 N   0  0  0  0  0  0
  -25.9191  -11.6405   20.5723 N   0  0  0  0  0  0
  -22.0417  -12.8174   22.0403 N   0  0  0  0  0  0
  -25.4412  -15.1809   20.4217 N   0  0  0  0  0  0
  -31.8157  -14.7420   20.0973 O   0  0  0  0  0  0
  -21.6630   -6.8850   21.4245 O   0  0  0  0  0  0
  -22.3494  -14.5537   20.6751 O   0  0  0  0  0  0
  -24.6213  -31.8633   23.2036 C   0  0  0  0  0  0
  -25.9082  -32.4798   23.8365 C   0  0  1  0  0  0
  -27.2449  -27.3709   20.1344 C   0  0  0  0  0  0
  -25.5944  -33.8598   24.2304 N   0  0  0  0  0  0
  -23.4117  -30.4817   21.5479 C   0  0  2  0  0  0
  -24.8630  -28.9336   20.1202 C   0  0  0  0  0  0
  -22.7442  -29.4631   22.5020 C   0  0  0  0  0  0
  -18.0276  -28.1381   22.8501 C   0  0  0  0  0  0
  -24.1502  -36.7294   23.2630 C   0  0  0  0  0  0
  -25.9434  -30.8121   21.3630 C   0  0  0  0  0  0
  -26.0243  -29.4382   20.7180 C   0  0  0  0  0  0
  -27.2181  -28.6680   20.7162 C   0  0  0  0  0  0
  -26.0661  -26.8987   19.5192 C   0  0  0  0  0  0
  -24.8818  -27.6663   19.5111 C   0  0  0  0  0  0
  -23.6230  -29.8038   20.1672 C   0  0  0  0  0  0
  -25.4125  -36.3076   24.0321 C   0  0  1  0  0  0
  -20.5864  -28.3661   23.1329 C   0  0  2  0  0  0
  -20.6769  -26.9403   22.5406 C   0  0  0  0  0  0
  -19.5741  -26.6388   21.5206 C   0  0  0  0  0  0
  -18.1920  -26.7936   22.1617 C   0  0  0  0  0  0
  -19.1528  -28.8844   23.2907 C   0  0  0  0  0  0
  -18.9450  -30.1453   23.8908 C   0  0  0  0  0  0
  -17.6444  -30.6585   24.0566 C   0  0  0  0  0  0
  -25.9064  -34.9458   23.5107 C   0  0  0  0  0  0
  -16.5344  -29.9083   23.6333 C   0  0  0  0  0  0
  -16.7269  -28.6500   23.0355 C   0  0  0  0  0  0
  -26.4497  -31.6583   25.0699 C   0  0  0  0  0  0
  -25.3769  -31.3662   26.1450 C   0  0  0  0  0  0
  -27.0321  -30.3029   24.6070 C   0  0  0  0  0  0
  -27.6096  -32.4289   25.7461 C   0  0  0  0  0  0
  -27.5591  -37.1785   24.8451 C   0  0  0  0  0  0
  -21.4163  -29.3022   22.3738 N   0  0  0  0  0  0
  -26.4291  -37.3772   23.9419 N   0  0  0  0  0  0
  -24.6773  -31.0691   22.0970 N   0  0  0  0  0  0
  -23.4181  -28.8183   23.3090 O   0  0  0  0  0  0
  -28.3993  -26.5922   20.1130 O   0  0  0  0  0  0
  -26.5599  -34.8914   22.4651 O   0  0  0  0  0  0
  -23.5394  -32.1409   23.7415 O   0  0  0  0  0  0
  -29.6559  -20.3718   20.9453 C   0  0  0  0  0  0
  -28.4067  -24.0252   20.1001 C   0  0  0  0  0  0
  -26.8537  -21.0538   18.5898 C   0  0  0  0  0  0
  -28.1159  -20.8658   17.7427 C   0  0  0  0  0  0
  -27.3010  -21.0456   20.0564 C   0  0  0  0  0  0
  -29.2891  -21.3581   18.5999 C   0  0  0  0  0  0
  -30.8163  -18.1748   21.3334 C   0  0  0  0  0  0
  -28.7285  -18.0703   20.1210 C   0  0  0  0  0  0
  -30.4412  -16.7158   21.7873 C   0  0  0  0  0  0
  -29.3209  -16.6743   19.6437 C   0  0  0  0  0  0
  -28.8072  -21.4167   20.0800 C   0  0  0  0  0  0
  -28.4306  -25.3661   20.9249 C   0  0  0  0  0  0
  -29.7051  -18.9842   20.7701 N   0  0  0  0  0  0
  -29.9189  -15.8239   20.7218 N   0  0  0  0  0  0
  -28.9149  -22.8465   20.6039 N   0  0  0  0  0  0
  -30.3828  -20.8945   21.7986 O   0  0  0  0  0  0
  -27.8776  -24.0672   18.9891 O   0  0  0  0  0  0
  -31.4422  -12.4566   19.1813 H   0  0  0  0  0  0
  -30.2667  -11.4109   19.9321 H   0  0  0  0  0  0
  -29.7650  -11.7472   17.4699 H   0  0  0  0  0  0
  -29.5902  -13.4688   17.7520 H   0  0  0  0  0  0
  -27.9099  -11.2328   18.9348 H   0  0  0  0  0  0
  -27.3417  -12.4254   17.8029 H   0  0  0  0  0  0
  -27.6049  -14.2079   19.4259 H   0  0  0  0  0  0
  -28.6719  -12.1919   21.4671 H   0  0  0  0  0  0
  -28.3968  -13.8876   21.7456 H   0  0  0  0  0  0
  -25.2686   -9.5735   22.4769 H   0  0  0  0  0  0
  -24.0002   -7.4649   22.7494 H   0  0  0  0  0  0
  -21.0816   -8.8626   19.8933 H   0  0  0  0  0  0
  -22.3567  -10.9591   19.6164 H   0  0  0  0  0  0
  -21.2002   -7.6136   23.9702 H   0  0  0  0  0  0
  -21.1506   -6.0527   25.9073 H   0  0  0  0  0  0
  -22.0595   -2.7600   23.2847 H   0  0  0  0  0  0
  -22.4002  -11.9787   22.4737 H   0  0  0  0  0  0
  -21.1057  -13.1235   22.2613 H   0  0  0  0  0  0
  -24.7137  -15.8669   20.5923 H   0  0  0  0  0  0
  -26.3256  -15.5995   20.1629 H   0  0  0  0  0  0
  -26.7160  -32.5476   23.1132 H   0  0  0  0  0  0
  -25.0162  -33.9764   25.0494 H   0  0  0  0  0  0
  -22.7004  -31.2976   21.4031 H   0  0  0  0  0  0
  -23.3774  -35.9608   23.3242 H   0  0  0  0  0  0
  -24.3609  -36.8967   22.2052 H   0  0  0  0  0  0
  -23.7237  -37.6474   23.6692 H   0  0  0  0  0  0
  -26.0558  -31.5723   20.5897 H   0  0  0  0  0  0
  -26.8306  -30.8734   21.9811 H   0  0  0  0  0  0
  -28.1152  -29.0606   21.1755 H   0  0  0  0  0  0
  -26.0606  -25.9317   19.0398 H   0  0  0  0  0  0
  -23.9935  -27.2706   19.0376 H   0  0  0  0  0  0
  -23.7259  -30.5730   19.4018 H   0  0  0  0  0  0
  -22.7469  -29.2212   19.8780 H   0  0  0  0  0  0
  -25.1299  -36.1918   25.0808 H   0  0  0  0  0  0
  -20.9948  -28.3213   24.1454 H   0  0  0  0  0  0
  -20.5692  -26.2266   23.3582 H   0  0  0  0  0  0
  -21.6642  -26.7457   22.1190 H   0  0  0  0  0  0
  -19.6909  -25.6300   21.1235 H   0  0  0  0  0  0
  -19.6698  -27.3204   20.6742 H   0  0  0  0  0  0
  -17.4198  -26.6706   21.4004 H   0  0  0  0  0  0
  -18.0315  -26.0063   22.8998 H   0  0  0  0  0  0
  -19.7912  -30.7273   24.2293 H   0  0  0  0  0  0
  -17.4987  -31.6268   24.5144 H   0  0  0  0  0  0
  -15.5336  -30.2973   23.7650 H   0  0  0  0  0  0
  -15.8669  -28.0807   22.7075 H   0  0  0  0  0  0
  -24.5936  -30.7036   25.7747 H   0  0  0  0  0  0
  -24.8977  -32.2806   26.4963 H   0  0  0  0  0  0
  -25.8127  -30.8758   27.0166 H   0  0  0  0  0  0
  -26.2841  -29.6778   24.1184 H   0  0  0  0  0  0
  -27.4163  -29.7276   25.4501 H   0  0  0  0  0  0
  -27.8650  -30.4344   23.9157 H   0  0  0  0  0  0
  -27.2763  -33.3616   26.2029 H   0  0  0  0  0  0
  -28.3917  -32.6807   25.0280 H   0  0  0  0  0  0
  -28.0757  -31.8409   26.5376 H   0  0  0  0  0  0
  -28.2555  -38.0131   24.7577 H   0  0  0  0  0  0
  -28.1147  -36.2675   24.6191 H   0  0  0  0  0  0
  -27.2325  -37.1313   25.8850 H   0  0  0  0  0  0
  -20.9342  -29.8737   21.6941 H   0  0  0  0  0  0
  -26.0167  -38.2838   24.1454 H   0  0  0  0  0  0
  -26.1013  -20.2889   18.3892 H   0  0  0  0  0  0
  -26.3992  -22.0170   18.3552 H   0  0  0  0  0  0
  -28.0530  -21.4058   16.7958 H   0  0  0  0  0  0
  -28.2483  -19.8149   17.4842 H   0  0  0  0  0  0
  -27.1043  -20.0709   20.4943 H   0  0  0  0  0  0
  -26.6997  -21.7359   20.6505 H   0  0  0  0  0  0
  -29.6171  -22.3351   18.2463 H   0  0  0  0  0  0
  -30.1579  -20.7150   18.4517 H   0  0  0  0  0  0
  -31.5941  -18.1238   20.5693 H   0  0  0  0  0  0
  -31.2771  -18.6759   22.1848 H   0  0  0  0  0  0
  -27.9315  -17.8863   20.8444 H   0  0  0  0  0  0
  -28.2556  -18.5586   19.2743 H   0  0  0  0  0  0
  -29.7127  -16.7515   22.6001 H   0  0  0  0  0  0
  -31.3375  -16.2719   22.2269 H   0  0  0  0  0  0
  -30.0765  -16.8626   18.8766 H   0  0  0  0  0  0
  -28.5386  -16.1245   19.1187 H   0  0  0  0  0  0
  -29.3338  -25.4028   21.5366 H   0  0  0  0  0  0
  -27.5934  -25.3636   21.6256 H   0  0  0  0  0  0
  -29.3925  -22.9032   21.4976 H   0  0  0  0  0  0
  1 25  1  0  0  0
  1 30  2  0  0  0
  1 84  1  0  0  0
  2  3  1  0  0  0
  2 25  1  0  0  0
  2 88  1  0  0  0
  2 89  1  0  0  0
  3  4  1  0  0  0
  3 90  1  0  0  0
  3 91  1  0  0  0
  4  5  1  0  0  0
  4 92  1  0  0  0
  4 93  1  0  0  0
  5  6  1  0  0  0
  5 26  1  0  0  0
  5 94  1  0  0  0
  6 25  1  0  0  0
  6 95  1  0  0  0
  6 96  1  0  0  0
  7  8  2  0  0  0
  7 26  1  0  0  0
  7 29  1  0  0  0
  8  9  1  0  0  0
  8 22  1  0  0  0
  9 10  1  0  0  0
  9 27  2  0  0  0
 10 11  2  0  0  0
 10 15  1  0  0  0
 11 12  1  0  0  0
 11 97  1  0  0  0
 12 13  2  0  0  0
 12 98  1  0  0  0
 13 14  1  0  0  0
 13 31  1  0  0  0
 14 15  2  0  0  0
 14 99  1  0  0  0
 15100  1  0  0  0
 16 17  2  0  0  0
 16 21  1  0  0  0
 16 31  1  0  0  0
 17 18  1  0  0  0
 17101  1  0  0  0
 18 19  2  0  0  0
 18102  1  0  0  0
 19 20  1  0  0  0
 19 24  1  0  0  0
 20 21  2  0  0  0
 20103  1  0  0  0
 21 23  1  0  0  0
 22 28  1  0  0  0
 22 32  2  0  0  0
 26 27  1  0  0  0
 28104  1  0  0  0
 28105  1  0  0  0
 29106  1  0  0  0
 29107  1  0  0  0
 33 34  1  0  0  0
 33 66  1  0  0  0
 33 70  2  0  0  0
 34 36  1  0  0  0
 34 59  1  0  0  0
 34108  1  0  0  0
 35 44  2  0  0  0
 35 45  1  0  0  0
 35 68  1  0  0  0
 36 56  1  0  0  0
 36109  1  0  0  0
 37 39  1  0  0  0
 37 47  1  0  0  0
 37 66  1  0  0  0
 37110  1  0  0  0
 38 43  2  0  0  0
 38 46  1  0  0  0
 38 47  1  0  0  0
 39 64  1  0  0  0
 39 67  2  0  0  0
 40 52  1  0  0  0
 40 53  2  0  0  0
 40 58  1  0  0  0
 41111  1  0  0  0
 41112  1  0  0  0
 41113  1  0  0  0
 41 48  1  0  0  0
 42 43  1  0  0  0
 42 66  1  0  0  0
 42114  1  0  0  0
 42115  1  0  0  0
 43 44  1  0  0  0
 44116  1  0  0  0
 45 46  2  0  0  0
 45117  1  0  0  0
 46118  1  0  0  0
 47119  1  0  0  0
 47120  1  0  0  0
 48 56  1  0  0  0
 48 65  1  0  0  0
 48121  1  0  0  0
 49 50  1  0  0  0
 49 53  1  0  0  0
 49 64  1  0  0  0
 49122  1  0  0  0
 50 51  1  0  0  0
 50123  1  0  0  0
 50124  1  0  0  0
 51 52  1  0  0  0
 51125  1  0  0  0
 51126  1  0  0  0
 52127  1  0  0  0
 52128  1  0  0  0
 53 54  1  0  0  0
 54 55  2  0  0  0
 54129  1  0  0  0
 55 57  1  0  0  0
 55130  1  0  0  0
 56 69  2  0  0  0
 57 58  2  0  0  0
 57131  1  0  0  0
 58132  1  0  0  0
 59 60  1  0  0  0
 59 61  1  0  0  0
 59 62  1  0  0  0
 60133  1  0  0  0
 60134  1  0  0  0
 60135  1  0  0  0
 61136  1  0  0  0
 61137  1  0  0  0
 61138  1  0  0  0
 62139  1  0  0  0
 62140  1  0  0  0
 62141  1  0  0  0
 63 65  1  0  0  0
 63142  1  0  0  0
 63143  1  0  0  0
 63144  1  0  0  0
 64145  1  0  0  0
 65146  1  0  0  0
 68 82  1  0  0  0
 71 81  1  0  0  0
 71 83  1  0  0  0
 71 86  2  0  0  0
 72 82  1  0  0  0
 72 85  1  0  0  0
 72 87  2  0  0  0
 73 74  1  0  0  0
 73 75  1  0  0  0
 73147  1  0  0  0
 73148  1  0  0  0
 74 76  1  0  0  0
 74149  1  0  0  0
 74150  1  0  0  0
 75 81  1  0  0  0
 75151  1  0  0  0
 75152  1  0  0  0
 76 81  1  0  0  0
 76153  1  0  0  0
 76154  1  0  0  0
 77 79  1  0  0  0
 77 83  1  0  0  0
 77155  1  0  0  0
 77156  1  0  0  0
 78 80  1  0  0  0
 78 83  1  0  0  0
 78157  1  0  0  0
 78158  1  0  0  0
 79 84  1  0  0  0
 79159  1  0  0  0
 79160  1  0  0  0
 80 84  1  0  0  0
 80161  1  0  0  0
 80162  1  0  0  0
 81 85  1  0  0  0
 82163  1  0  0  0
 82164  1  0  0  0
 85165  1  0  0  0
M  ISO  4   1 100  68 101  82 101  84 100
M  END
> <chiral flag>
0

> <version>
0

> <s_m_source_file>
/data/baiqing/PycharmProjects/Reinvent-master-3.2/result/LINK_invent/BTK/process_docking_weight1_custom_sum_contain_oxygen_bond_distance_aromatic_linkinvent_7_9_3/rearranged_h_0154.sdf

> <i_m_source_file_index>
24

> <r_mmod_Potential_Energy-OPLS-2005>
383.797271728516

> <r_mmod_Stretch_Energy-OPLS-2005>
93.8962249755859

> <r_mmod_Bend_Energy-OPLS-2005>
168.353134155273

> <r_mmod_Torsional_Energy-OPLS-2005>
476.609130859375

> <r_mmod_Improper_Torsional_Energy-OPLS-2005>
7.01105308532715

> <r_mmod_Van_der_Waal_Energy-OPLS-2005>
144.064208984375

> <r_mmod_Electrostatic_Energy-OPLS-2005>
-316.627746582031

> <r_mmod_Solvation_Energy-OPLS-2005>
-237.662689208984

> <b_mmod_Minimization_Converged-OPLS-2005>
0

> <r_mmod_RMS_Derivative-OPLS-2005>
5.19542598724365

$$$$
25
                    3D
 Structure written by MMmdl.
176185  0  0  1  0            999 V2000
  -30.7400  -14.4864   20.5148 C   0  0  0  0  0  0
  -30.4081  -12.3035   19.4325 C   0  0  0  0  0  0
  -29.4884  -12.4831   18.2086 C   0  0  0  0  0  0
  -28.0109  -12.3526   18.6249 C   0  0  0  0  0  0
  -27.6515  -13.2103   19.8692 C   0  0  2  0  0  0
  -28.7026  -13.0647   20.9923 C   0  0  0  0  0  0
  -25.2566  -13.8169   20.5732 C   0  0  0  0  0  0
  -24.1821  -13.0435   20.9205 C   0  0  0  0  0  0
  -24.6380  -11.6906   20.8773 C   0  0  0  0  0  0
  -23.9051  -10.4289   21.0414 C   0  0  0  0  0  0
  -24.3612   -9.4202   21.9185 C   0  0  0  0  0  0
  -23.6289   -8.2239   22.0749 C   0  0  0  0  0  0
  -22.4273   -8.0285   21.3544 C   0  0  0  0  0  0
  -21.9909   -9.0257   20.4641 C   0  0  0  0  0  0
  -22.7233  -10.2132   20.3053 C   0  0  0  0  0  0
  -21.6853   -6.0742   22.5278 C   0  0  0  0  0  0
  -21.4011   -6.5643   23.8217 C   0  0  0  0  0  0
  -21.3665   -5.6791   24.9177 C   0  0  0  0  0  0
  -21.6048   -4.3054   24.7222 C   0  0  0  0  0  0
  -21.8819   -3.8151   23.4345 C   0  0  0  0  0  0
  -21.9186   -4.6968   22.3400 C   0  0  0  0  0  0
  -22.7841  -13.5230   21.1864 C   0  0  0  0  0  0
  -22.1657   -4.2157   21.0978 F   0  0  0  0  0  0
  -21.5629   -3.4536   25.7734 F   0  0  0  0  0  0
  -30.0263  -13.3318   20.4130 N   0  0  0  0  0  0
  -26.2990  -12.9322   20.3408 N   0  0  0  0  0  0
  -25.9313  -11.6482   20.5830 N   0  0  0  0  0  0
  -22.0488  -12.8225   22.0417 N   0  0  0  0  0  0
  -25.4298  -15.1886   20.4154 N   0  0  0  0  0  0
  -31.9269  -14.5577   20.1790 O   0  0  0  0  0  0
  -21.6639   -6.8885   21.4242 O   0  0  0  0  0  0
  -22.3531  -14.5546   20.6719 O   0  0  0  0  0  0
  -24.6147  -31.8706   23.2167 C   0  0  0  0  0  0
  -25.9053  -32.4847   23.8445 C   0  0  1  0  0  0
  -27.2183  -27.4242   20.0959 C   0  0  0  0  0  0
  -25.5935  -33.8652   24.2372 N   0  0  0  0  0  0
  -23.4020  -30.4974   21.5554 C   0  0  2  0  0  0
  -24.8491  -28.9689   20.1145 C   0  0  0  0  0  0
  -22.7421  -29.4666   22.5006 C   0  0  0  0  0  0
  -18.0271  -28.1371   22.8490 C   0  0  0  0  0  0
  -24.1474  -36.7315   23.2624 C   0  0  0  0  0  0
  -25.9340  -30.8254   21.3792 C   0  0  0  0  0  0
  -26.0077  -29.4568   20.7336 C   0  0  0  0  0  0
  -27.1949  -28.6836   20.7412 C   0  0  0  0  0  0
  -26.0733  -27.0059   19.3950 C   0  0  0  0  0  0
  -24.8760  -27.7386   19.4413 C   0  0  0  0  0  0
  -23.6120  -29.8372   20.1672 C   0  0  0  0  0  0
  -25.4108  -36.3144   24.0331 C   0  0  1  0  0  0
  -20.5877  -28.3642   23.1321 C   0  0  2  0  0  0
  -20.6772  -26.9384   22.5416 C   0  0  0  0  0  0
  -19.5741  -26.6365   21.5226 C   0  0  0  0  0  0
  -18.1914  -26.7919   22.1623 C   0  0  0  0  0  0
  -19.1527  -28.8826   23.2894 C   0  0  0  0  0  0
  -18.9452  -30.1437   23.8897 C   0  0  0  0  0  0
  -17.6455  -30.6576   24.0571 C   0  0  0  0  0  0
  -25.9028  -34.9505   23.5139 C   0  0  0  0  0  0
  -16.5347  -29.9082   23.6330 C   0  0  0  0  0  0
  -16.7258  -28.6497   23.0342 C   0  0  0  0  0  0
  -26.4489  -31.6619   25.0757 C   0  0  0  0  0  0
  -25.3752  -31.3731   26.1492 C   0  0  0  0  0  0
  -27.0308  -30.3062   24.6131 C   0  0  0  0  0  0
  -27.6072  -32.4327   25.7514 C   0  0  0  0  0  0
  -27.5578  -37.1824   24.8467 C   0  0  0  0  0  0
  -21.4149  -29.3023   22.3736 N   0  0  0  0  0  0
  -26.4290  -37.3832   23.9413 N   0  0  0  0  0  0
  -24.6682  -31.0795   22.1087 N   0  0  0  0  0  0
  -23.4198  -28.8180   23.3023 O   0  0  0  0  0  0
  -28.3453  -26.6330   20.0839 O   0  0  0  0  0  0
  -26.5555  -34.8944   22.4677 O   0  0  0  0  0  0
  -23.5328  -32.1465   23.7545 O   0  0  0  0  0  0
  -29.0120  -20.8159   21.4841 C   0  0  0  0  0  0
  -29.3483  -20.1085   20.3102 C   0  0  0  0  0  0
  -28.5395  -22.1457   21.4504 C   0  0  0  0  0  0
  -29.2601  -20.8067   19.0708 C   0  0  0  0  0  0
  -28.6594  -22.1014   19.0094 C   0  0  0  0  0  0
  -28.2882  -22.7921   20.2065 C   0  0  0  0  0  0
  -29.9591  -17.9906   21.7845 C   0  0  0  0  0  0
  -28.9463  -17.6432   19.6040 C   0  0  0  0  0  0
  -30.6079  -16.5786   21.7194 C   0  0  0  0  0  0
  -29.6891  -16.3071   19.4395 C   0  0  0  0  0  0
  -29.8290  -18.6335   20.3871 C   0  0  0  0  0  0
  -28.2665  -22.8240   22.7849 C   0  0  0  0  0  0
  -29.8089  -20.1791   17.7885 C   0  0  0  0  0  0
  -28.3721  -22.7339   17.6409 C   0  0  0  0  0  0
  -25.4381  -22.5445   20.4879 C   0  0  0  0  0  0
  -28.2748  -25.3769   20.8084 C   0  0  0  0  0  0
  -27.5294  -24.1561   20.1441 C   0  0  2  0  0  0
  -25.9846  -23.9855   20.4420 C   0  0  2  0  0  0
  -30.0461  -15.6398   20.7123 N   0  0  0  0  0  0
  -25.5501  -24.6284   21.6291 O   0  0  0  0  0  0
  -31.4549  -12.3738   19.1305 H   0  0  0  0  0  0
  -30.2884  -11.3081   19.8639 H   0  0  0  0  0  0
  -29.7257  -11.7389   17.4474 H   0  0  0  0  0  0
  -29.6613  -13.4584   17.7492 H   0  0  0  0  0  0
  -27.8214  -11.2995   18.8354 H   0  0  0  0  0  0
  -27.3598  -12.6161   17.7900 H   0  0  0  0  0  0
  -27.6584  -14.2457   19.5424 H   0  0  0  0  0  0
  -28.6819  -12.0605   21.4155 H   0  0  0  0  0  0
  -28.4858  -13.7477   21.8147 H   0  0  0  0  0  0
  -25.2758   -9.5682   22.4763 H   0  0  0  0  0  0
  -24.0006   -7.4625   22.7467 H   0  0  0  0  0  0
  -21.0842   -8.8773   19.8945 H   0  0  0  0  0  0
  -22.3693  -10.9677   19.6170 H   0  0  0  0  0  0
  -21.2004   -7.6151   23.9722 H   0  0  0  0  0  0
  -21.1487   -6.0522   25.9082 H   0  0  0  0  0  0
  -22.0594   -2.7614   23.2837 H   0  0  0  0  0  0
  -22.4087  -11.9858   22.4772 H   0  0  0  0  0  0
  -21.1113  -13.1260   22.2655 H   0  0  0  0  0  0
  -24.6718  -15.8512   20.5350 H   0  0  0  0  0  0
  -26.2993  -15.6259   20.1373 H   0  0  0  0  0  0
  -26.7117  -32.5560   23.1207 H   0  0  0  0  0  0
  -25.0231  -33.9841   25.0613 H   0  0  0  0  0  0
  -22.6907  -31.3137   21.4186 H   0  0  0  0  0  0
  -23.3758  -35.9633   23.3313 H   0  0  0  0  0  0
  -24.3548  -36.8890   22.2024 H   0  0  0  0  0  0
  -23.7201  -37.6521   23.6614 H   0  0  0  0  0  0
  -26.0457  -31.5845   20.6038 H   0  0  0  0  0  0
  -26.8237  -30.8839   21.9958 H   0  0  0  0  0  0
  -28.0813  -29.0449   21.2441 H   0  0  0  0  0  0
  -26.1152  -26.1389   18.7598 H   0  0  0  0  0  0
  -24.0056  -27.3807   18.9089 H   0  0  0  0  0  0
  -23.7196  -30.6156   19.4097 H   0  0  0  0  0  0
  -22.7369  -29.2568   19.8695 H   0  0  0  0  0  0
  -25.1293  -36.2016   25.0828 H   0  0  0  0  0  0
  -20.9970  -28.3185   24.1443 H   0  0  0  0  0  0
  -20.5681  -26.2262   23.3599 H   0  0  0  0  0  0
  -21.6633  -26.7425   22.1204 H   0  0  0  0  0  0
  -19.6904  -25.6284   21.1228 H   0  0  0  0  0  0
  -19.6675  -27.3194   20.6775 H   0  0  0  0  0  0
  -17.4206  -26.6678   21.4002 H   0  0  0  0  0  0
  -18.0272  -26.0062   22.9007 H   0  0  0  0  0  0
  -19.7925  -30.7257   24.2255 H   0  0  0  0  0  0
  -17.5009  -31.6259   24.5154 H   0  0  0  0  0  0
  -15.5347  -30.2985   23.7643 H   0  0  0  0  0  0
  -15.8656  -28.0816   22.7057 H   0  0  0  0  0  0
  -24.5977  -30.7013   25.7843 H   0  0  0  0  0  0
  -24.8893  -32.2874   26.4896 H   0  0  0  0  0  0
  -25.8103  -30.8963   27.0280 H   0  0  0  0  0  0
  -26.2856  -29.6855   24.1146 H   0  0  0  0  0  0
  -27.4020  -29.7274   25.4599 H   0  0  0  0  0  0
  -27.8734  -30.4378   23.9348 H   0  0  0  0  0  0
  -27.2733  -33.3648   26.2099 H   0  0  0  0  0  0
  -28.3902  -32.6842   25.0345 H   0  0  0  0  0  0
  -28.0740  -31.8445   26.5428 H   0  0  0  0  0  0
  -28.2632  -38.0091   24.7542 H   0  0  0  0  0  0
  -28.1037  -36.2632   24.6285 H   0  0  0  0  0  0
  -27.2286  -37.1477   25.8865 H   0  0  0  0  0  0
  -20.9285  -29.8783   21.7007 H   0  0  0  0  0  0
  -26.0175  -38.2908   24.1450 H   0  0  0  0  0  0
  -29.1175  -20.3379   22.4458 H   0  0  0  0  0  0
  -30.5727  -18.6196   22.4316 H   0  0  0  0  0  0
  -28.9788  -17.9235   22.2618 H   0  0  0  0  0  0
  -27.9882  -17.4977   20.1034 H   0  0  0  0  0  0
  -28.6998  -18.0114   18.6119 H   0  0  0  0  0  0
  -30.5505  -16.1155   22.7066 H   0  0  0  0  0  0
  -31.6730  -16.7193   21.5215 H   0  0  0  0  0  0
  -30.6015  -16.4946   18.8678 H   0  0  0  0  0  0
  -29.0996  -15.6453   18.8068 H   0  0  0  0  0  0
  -30.8352  -18.6356   19.9659 H   0  0  0  0  0  0
  -28.3944  -22.1336   23.6199 H   0  0  0  0  0  0
  -27.2497  -23.2034   22.8466 H   0  0  0  0  0  0
  -28.9581  -23.6516   22.9446 H   0  0  0  0  0  0
  -30.5144  -19.3692   17.9617 H   0  0  0  0  0  0
  -30.3660  -20.9147   17.2068 H   0  0  0  0  0  0
  -28.9949  -19.7958   17.1722 H   0  0  0  0  0  0
  -28.9640  -23.6397   17.5035 H   0  0  0  0  0  0
  -27.3165  -22.9936   17.5595 H   0  0  0  0  0  0
  -28.5590  -22.0950   16.7817 H   0  0  0  0  0  0
  -25.6810  -22.0052   19.5721 H   0  0  0  0  0  0
  -24.3511  -22.5417   20.5732 H   0  0  0  0  0  0
  -25.8257  -21.9693   21.3285 H   0  0  0  0  0  0
  -29.3214  -25.0913   20.9144 H   0  0  0  0  0  0
  -27.9354  -25.5579   21.8284 H   0  0  0  0  0  0
  -27.5581  -24.4685   19.1091 H   0  0  0  0  0  0
  -25.4188  -24.4361   19.6317 H   0  0  0  0  0  0
  -25.5686  -25.5685   21.4707 H   0  0  0  0  0  0
  1 25  1  0  0  0
  1 30  2  0  0  0
  1 89  1  0  0  0
  2  3  1  0  0  0
  2 25  1  0  0  0
  2 91  1  0  0  0
  2 92  1  0  0  0
  3  4  1  0  0  0
  3 93  1  0  0  0
  3 94  1  0  0  0
  4  5  1  0  0  0
  4 95  1  0  0  0
  4 96  1  0  0  0
  5  6  1  0  0  0
  5 26  1  0  0  0
  5 97  1  0  0  0
  6 25  1  0  0  0
  6 98  1  0  0  0
  6 99  1  0  0  0
  7  8  2  0  0  0
  7 26  1  0  0  0
  7 29  1  0  0  0
  8  9  1  0  0  0
  8 22  1  0  0  0
  9 10  1  0  0  0
  9 27  2  0  0  0
 10 11  2  0  0  0
 10 15  1  0  0  0
 11 12  1  0  0  0
 11100  1  0  0  0
 12 13  2  0  0  0
 12101  1  0  0  0
 13 14  1  0  0  0
 13 31  1  0  0  0
 14 15  2  0  0  0
 14102  1  0  0  0
 15103  1  0  0  0
 16 17  2  0  0  0
 16 21  1  0  0  0
 16 31  1  0  0  0
 17 18  1  0  0  0
 17104  1  0  0  0
 18 19  2  0  0  0
 18105  1  0  0  0
 19 20  1  0  0  0
 19 24  1  0  0  0
 20 21  2  0  0  0
 20106  1  0  0  0
 21 23  1  0  0  0
 22 28  1  0  0  0
 22 32  2  0  0  0
 26 27  1  0  0  0
 28107  1  0  0  0
 28108  1  0  0  0
 29109  1  0  0  0
 29110  1  0  0  0
 33 34  1  0  0  0
 33 66  1  0  0  0
 33 70  2  0  0  0
 34 36  1  0  0  0
 34 59  1  0  0  0
 34111  1  0  0  0
 35 44  2  0  0  0
 35 45  1  0  0  0
 35 68  1  0  0  0
 36 56  1  0  0  0
 36112  1  0  0  0
 37 39  1  0  0  0
 37 47  1  0  0  0
 37 66  1  0  0  0
 37113  1  0  0  0
 38 43  2  0  0  0
 38 46  1  0  0  0
 38 47  1  0  0  0
 39 64  1  0  0  0
 39 67  2  0  0  0
 40 52  1  0  0  0
 40 53  2  0  0  0
 40 58  1  0  0  0
 41114  1  0  0  0
 41115  1  0  0  0
 41116  1  0  0  0
 41 48  1  0  0  0
 42 43  1  0  0  0
 42 66  1  0  0  0
 42117  1  0  0  0
 42118  1  0  0  0
 43 44  1  0  0  0
 44119  1  0  0  0
 45 46  2  0  0  0
 45120  1  0  0  0
 46121  1  0  0  0
 47122  1  0  0  0
 47123  1  0  0  0
 48 56  1  0  0  0
 48 65  1  0  0  0
 48124  1  0  0  0
 49 50  1  0  0  0
 49 53  1  0  0  0
 49 64  1  0  0  0
 49125  1  0  0  0
 50 51  1  0  0  0
 50126  1  0  0  0
 50127  1  0  0  0
 51 52  1  0  0  0
 51128  1  0  0  0
 51129  1  0  0  0
 52130  1  0  0  0
 52131  1  0  0  0
 53 54  1  0  0  0
 54 55  2  0  0  0
 54132  1  0  0  0
 55 57  1  0  0  0
 55133  1  0  0  0
 56 69  2  0  0  0
 57 58  2  0  0  0
 57134  1  0  0  0
 58135  1  0  0  0
 59 60  1  0  0  0
 59 61  1  0  0  0
 59 62  1  0  0  0
 60136  1  0  0  0
 60137  1  0  0  0
 60138  1  0  0  0
 61139  1  0  0  0
 61140  1  0  0  0
 61141  1  0  0  0
 62142  1  0  0  0
 62143  1  0  0  0
 62144  1  0  0  0
 63 65  1  0  0  0
 63145  1  0  0  0
 63146  1  0  0  0
 63147  1  0  0  0
 64148  1  0  0  0
 65149  1  0  0  0
 68 86  1  0  0  0
 71 72  2  0  0  0
 71 73  1  0  0  0
 71150  1  0  0  0
 72 74  1  0  0  0
 72 81  1  0  0  0
 73 76  2  0  0  0
 73 82  1  0  0  0
 74 75  2  0  0  0
 74 83  1  0  0  0
 75 76  1  0  0  0
 75 84  1  0  0  0
 76 87  1  0  0  0
 77 79  1  0  0  0
 77 81  1  0  0  0
 77151  1  0  0  0
 77152  1  0  0  0
 78 80  1  0  0  0
 78 81  1  0  0  0
 78153  1  0  0  0
 78154  1  0  0  0
 79 89  1  0  0  0
 79155  1  0  0  0
 79156  1  0  0  0
 80 89  1  0  0  0
 80157  1  0  0  0
 80158  1  0  0  0
 81159  1  0  0  0
 82160  1  0  0  0
 82161  1  0  0  0
 82162  1  0  0  0
 83163  1  0  0  0
 83164  1  0  0  0
 83165  1  0  0  0
 84166  1  0  0  0
 84167  1  0  0  0
 84168  1  0  0  0
 85169  1  0  0  0
 85170  1  0  0  0
 85171  1  0  0  0
 85 88  1  0  0  0
 86172  1  0  0  0
 86173  1  0  0  0
 86 87  1  0  0  0
 87 88  1  0  0  0
 87174  1  0  0  0
 88 90  1  0  0  0
 88175  1  0  0  0
 90176  1  0  0  0
M  ISO  4   1 100  68 101  86 101  89 100
M  END
> <chiral flag>
0

> <version>
0

> <s_m_source_file>
/data/baiqing/PycharmProjects/Reinvent-master-3.2/result/LINK_invent/BTK/process_docking_weight1_custom_sum_contain_oxygen_bond_distance_aromatic_linkinvent_7_9_3/rearranged_h_0154.sdf

> <i_m_source_file_index>
25

> <r_mmod_Potential_Energy-OPLS-2005>
309.485290527344

> <r_mmod_Stretch_Energy-OPLS-2005>
57.9101371765137

> <r_mmod_Bend_Energy-OPLS-2005>
146.611480712891

> <r_mmod_Torsional_Energy-OPLS-2005>
372.982238769531

> <r_mmod_Improper_Torsional_Energy-OPLS-2005>
11.8455905914307

> <r_mmod_Van_der_Waal_Energy-OPLS-2005>
183.234237670898

> <r_mmod_Electrostatic_Energy-OPLS-2005>
-292.784301757812

> <r_mmod_Solvation_Energy-OPLS-2005>
-194.984466552734

> <b_mmod_Minimization_Converged-OPLS-2005>
0

> <r_mmod_RMS_Derivative-OPLS-2005>
2.63296937942505

$$$$
26
                    3D
 Structure written by MMmdl.
178188  0  0  1  0            999 V2000
  -30.6249  -14.7490   20.4291 C   0  0  0  0  0  0
  -30.4194  -12.4573   19.4726 C   0  0  0  0  0  0
  -29.5018  -12.4957   18.2334 C   0  0  0  0  0  0
  -28.0267  -12.3298   18.6462 C   0  0  0  0  0  0
  -27.6299  -13.2393   19.8408 C   0  0  2  0  0  0
  -28.6749  -13.1988   20.9730 C   0  0  0  0  0  0
  -25.2446  -13.8208   20.5724 C   0  0  0  0  0  0
  -24.1763  -13.0443   20.9232 C   0  0  0  0  0  0
  -24.6374  -11.6921   20.8761 C   0  0  0  0  0  0
  -23.9061  -10.4298   21.0433 C   0  0  0  0  0  0
  -24.3613   -9.4207   21.9204 C   0  0  0  0  0  0
  -23.6296   -8.2237   22.0755 C   0  0  0  0  0  0
  -22.4279   -8.0271   21.3539 C   0  0  0  0  0  0
  -21.9923   -9.0245   20.4642 C   0  0  0  0  0  0
  -22.7239  -10.2133   20.3071 C   0  0  0  0  0  0
  -21.6845   -6.0733   22.5287 C   0  0  0  0  0  0
  -21.4011   -6.5647   23.8217 C   0  0  0  0  0  0
  -21.3665   -5.6804   24.9184 C   0  0  0  0  0  0
  -21.6045   -4.3066   24.7234 C   0  0  0  0  0  0
  -21.8820   -3.8147   23.4355 C   0  0  0  0  0  0
  -21.9188   -4.6962   22.3410 C   0  0  0  0  0  0
  -22.7771  -13.5193   21.1888 C   0  0  0  0  0  0
  -22.1657   -4.2149   21.0985 F   0  0  0  0  0  0
  -21.5633   -3.4550   25.7748 F   0  0  0  0  0  0
  -29.9634  -13.5442   20.3682 N   0  0  0  0  0  0
  -26.2873  -12.9444   20.3274 N   0  0  0  0  0  0
  -25.9301  -11.6576   20.5760 N   0  0  0  0  0  0
  -22.0422  -12.8170   22.0436 N   0  0  0  0  0  0
  -25.4145  -15.1935   20.4141 N   0  0  0  0  0  0
  -31.8475  -14.7431   20.2492 O   0  0  0  0  0  0
  -21.6632   -6.8872   21.4249 O   0  0  0  0  0  0
  -22.3451  -14.5496   20.6728 O   0  0  0  0  0  0
  -24.6321  -31.8538   23.1985 C   0  0  0  0  0  0
  -25.9151  -32.4736   23.8325 C   0  0  1  0  0  0
  -27.2096  -27.2618   20.1122 C   0  0  0  0  0  0
  -25.5957  -33.8539   24.2264 N   0  0  0  0  0  0
  -23.4268  -30.4773   21.5444 C   0  0  2  0  0  0
  -24.8694  -28.9238   20.1100 C   0  0  0  0  0  0
  -22.7510  -29.4583   22.4936 C   0  0  0  0  0  0
  -18.0289  -28.1385   22.8496 C   0  0  0  0  0  0
  -24.1497  -36.7253   23.2646 C   0  0  0  0  0  0
  -25.9732  -30.7653   21.3774 C   0  0  0  0  0  0
  -26.0429  -29.3887   20.7164 C   0  0  0  0  0  0
  -27.2182  -28.5710   20.7041 C   0  0  0  0  0  0
  -26.0131  -26.8626   19.4805 C   0  0  0  0  0  0
  -24.8582  -27.6682   19.4836 C   0  0  0  0  0  0
  -23.6431  -29.8132   20.1603 C   0  0  0  0  0  0
  -25.4125  -36.3052   24.0331 C   0  0  1  0  0  0
  -20.5898  -28.3682   23.1293 C   0  0  2  0  0  0
  -20.6784  -26.9405   22.5421 C   0  0  0  0  0  0
  -19.5757  -26.6386   21.5228 C   0  0  0  0  0  0
  -18.1928  -26.7932   22.1627 C   0  0  0  0  0  0
  -19.1546  -28.8856   23.2880 C   0  0  0  0  0  0
  -18.9466  -30.1466   23.8887 C   0  0  0  0  0  0
  -17.6465  -30.6586   24.0564 C   0  0  0  0  0  0
  -25.9064  -34.9424   23.5088 C   0  0  0  0  0  0
  -16.5354  -29.9077   23.6349 C   0  0  0  0  0  0
  -16.7278  -28.6499   23.0363 C   0  0  0  0  0  0
  -26.4541  -31.6547   25.0701 C   0  0  0  0  0  0
  -25.3768  -31.3632   26.1409 C   0  0  0  0  0  0
  -27.0431  -30.2984   24.6159 C   0  0  0  0  0  0
  -27.6077  -32.4297   25.7494 C   0  0  0  0  0  0
  -27.5576  -37.1788   24.8475 C   0  0  0  0  0  0
  -21.4217  -29.3017   22.3679 N   0  0  0  0  0  0
  -26.4291  -37.3756   23.9410 N   0  0  0  0  0  0
  -24.6962  -31.0506   22.0955 N   0  0  0  0  0  0
  -23.4217  -28.8123   23.3025 O   0  0  0  0  0  0
  -28.3075  -26.3750   20.1460 O   0  0  0  0  0  0
  -26.5638  -34.8910   22.4659 O   0  0  0  0  0  0
  -23.5470  -32.1376   23.7277 O   0  0  0  0  0  0
  -31.7321  -18.8684   18.6277 C   0  0  0  0  0  0
  -30.5913  -18.2741   19.1872 C   0  0  0  0  0  0
  -29.6218  -19.0851   19.8379 C   0  0  0  0  0  0
  -29.7264  -20.5589   19.7955 C   0  0  0  0  0  0
  -31.9283  -20.2559   18.7030 C   0  0  0  0  0  0
  -30.9475  -21.0879   19.2930 C   0  0  0  0  0  0
  -28.5539  -18.2018   20.5189 C   0  0  0  0  0  0
  -30.3895  -16.7501   18.9769 C   0  0  0  0  0  0
  -28.0625  -22.5247   18.9657 C   0  0  0  0  0  0
  -28.8554  -22.5930   21.4037 C   0  0  0  0  0  0
  -28.3745  -24.0790   18.8916 C   0  0  0  0  0  0
  -29.0069  -24.1663   21.2300 C   0  0  0  0  0  0
  -29.0577  -16.7548   21.0298 C   0  0  0  0  0  0
  -28.6176  -21.6498   20.1619 C   0  0  2  0  0  0
  -28.0902  -24.8830   20.1965 C   0  0  1  0  0  0
  -32.6425  -21.9389   16.1252 C   0  0  0  0  0  0
  -32.7115  -24.2423   19.6592 C   0  0  0  0  0  0
  -33.2514  -20.7026   16.7904 C   0  0  0  0  0  0
  -32.2200  -22.8815   20.1589 C   0  0  0  0  0  0
  -29.9230  -15.9253   20.1213 N   0  0  0  0  0  0
  -33.0802  -20.8076   18.1977 O   0  0  0  0  0  0
  -31.1564  -22.4447   19.3170 O   0  0  0  0  0  0
  -31.4600  -12.5734   19.1644 H   0  0  0  0  0  0
  -30.3620  -11.4928   19.9792 H   0  0  0  0  0  0
  -29.7840  -11.7159   17.5252 H   0  0  0  0  0  0
  -29.6316  -13.4454   17.7128 H   0  0  0  0  0  0
  -27.8783  -11.2839   18.9157 H   0  0  0  0  0  0
  -27.3743  -12.5185   17.7930 H   0  0  0  0  0  0
  -27.6157  -14.2558   19.4475 H   0  0  0  0  0  0
  -28.7124  -12.2111   21.4342 H   0  0  0  0  0  0
  -28.4192  -13.9008   21.7683 H   0  0  0  0  0  0
  -25.2754   -9.5683   22.4785 H   0  0  0  0  0  0
  -24.0006   -7.4627   22.7470 H   0  0  0  0  0  0
  -21.0858   -8.8748   19.8938 H   0  0  0  0  0  0
  -22.3689  -10.9671   19.6178 H   0  0  0  0  0  0
  -21.2004   -7.6153   23.9717 H   0  0  0  0  0  0
  -21.1491   -6.0539   25.9086 H   0  0  0  0  0  0
  -22.0594   -2.7608   23.2857 H   0  0  0  0  0  0
  -22.4028  -11.9832   22.4841 H   0  0  0  0  0  0
  -21.1040  -13.1180   22.2650 H   0  0  0  0  0  0
  -24.6458  -15.8464   20.5169 H   0  0  0  0  0  0
  -26.2615  -15.6273   20.0717 H   0  0  0  0  0  0
  -26.7189  -32.5391   23.1039 H   0  0  0  0  0  0
  -25.0128  -33.9678   25.0424 H   0  0  0  0  0  0
  -22.7214  -31.2970   21.4000 H   0  0  0  0  0  0
  -23.3775  -35.9565   23.3299 H   0  0  0  0  0  0
  -24.3580  -36.8901   22.2062 H   0  0  0  0  0  0
  -23.7245  -37.6443   23.6690 H   0  0  0  0  0  0
  -26.1143  -31.5275   20.6106 H   0  0  0  0  0  0
  -26.8496  -30.8093   22.0119 H   0  0  0  0  0  0
  -28.1184  -28.9186   21.1916 H   0  0  0  0  0  0
  -25.9503  -25.9046   18.9858 H   0  0  0  0  0  0
  -23.9582  -27.3083   19.0035 H   0  0  0  0  0  0
  -23.7675  -30.5910   19.4066 H   0  0  0  0  0  0
  -22.7616  -29.2479   19.8546 H   0  0  0  0  0  0
  -25.1301  -36.1884   25.0824 H   0  0  0  0  0  0
  -20.9978  -28.3250   24.1422 H   0  0  0  0  0  0
  -20.5719  -26.2278   23.3608 H   0  0  0  0  0  0
  -21.6642  -26.7442   22.1195 H   0  0  0  0  0  0
  -19.6915  -25.6303   21.1248 H   0  0  0  0  0  0
  -19.6701  -27.3211   20.6771 H   0  0  0  0  0  0
  -17.4211  -26.6715   21.4014 H   0  0  0  0  0  0
  -18.0296  -26.0061   22.9005 H   0  0  0  0  0  0
  -19.7936  -30.7291   24.2250 H   0  0  0  0  0  0
  -17.5009  -31.6273   24.5149 H   0  0  0  0  0  0
  -15.5352  -30.2962   23.7683 H   0  0  0  0  0  0
  -15.8682  -28.0809   22.7078 H   0  0  0  0  0  0
  -24.6012  -30.6907   25.7721 H   0  0  0  0  0  0
  -24.8872  -32.2757   26.4804 H   0  0  0  0  0  0
  -25.8112  -30.8849   27.0195 H   0  0  0  0  0  0
  -26.3029  -29.6685   24.1211 H   0  0  0  0  0  0
  -27.4198  -29.7272   25.4652 H   0  0  0  0  0  0
  -27.8854  -30.4301   23.9364 H   0  0  0  0  0  0
  -27.2695  -33.3631   26.2001 H   0  0  0  0  0  0
  -28.3943  -32.6791   25.0360 H   0  0  0  0  0  0
  -28.0678  -31.8453   26.5476 H   0  0  0  0  0  0
  -28.2565  -38.0112   24.7539 H   0  0  0  0  0  0
  -28.1113  -36.2637   24.6292 H   0  0  0  0  0  0
  -27.2287  -37.1413   25.8879 H   0  0  0  0  0  0
  -20.9425  -29.8702   21.6843 H   0  0  0  0  0  0
  -26.0162  -38.2828   24.1412 H   0  0  0  0  0  0
  -32.4765  -18.2508   18.1451 H   0  0  0  0  0  0
  -27.7467  -18.0579   19.7982 H   0  0  0  0  0  0
  -28.1104  -18.7498   21.3505 H   0  0  0  0  0  0
  -31.2928  -16.3399   18.5228 H   0  0  0  0  0  0
  -29.6331  -16.6385   18.1994 H   0  0  0  0  0  0
  -28.3352  -22.0548   18.0194 H   0  0  0  0  0  0
  -26.9752  -22.4459   19.0028 H   0  0  0  0  0  0
  -27.9956  -22.4504   22.0595 H   0  0  0  0  0  0
  -29.6990  -22.2143   21.9824 H   0  0  0  0  0  0
  -27.8003  -24.5120   18.0722 H   0  0  0  0  0  0
  -29.4179  -24.2214   18.6083 H   0  0  0  0  0  0
  -30.0376  -24.3990   20.9737 H   0  0  0  0  0  0
  -28.8478  -24.6327   22.2023 H   0  0  0  0  0  0
  -28.1883  -16.1665   21.3239 H   0  0  0  0  0  0
  -29.6317  -16.9086   21.9443 H   0  0  0  0  0  0
  -27.7802  -21.0118   20.4477 H   0  0  0  0  0  0
  -27.0628  -24.6840   20.5020 H   0  0  0  0  0  0
  -32.8206  -21.9314   15.0502 H   0  0  0  0  0  0
  -33.0827  -22.8519   16.5267 H   0  0  0  0  0  0
  -31.5664  -21.9843   16.2936 H   0  0  0  0  0  0
  -33.5284  -24.6101   20.2798 H   0  0  0  0  0  0
  -31.9164  -24.9873   19.6774 H   0  0  0  0  0  0
  -33.0768  -24.1705   18.6361 H   0  0  0  0  0  0
  -34.3203  -20.6572   16.5787 H   0  0  0  0  0  0
  -32.8135  -19.7943   16.3731 H   0  0  0  0  0  0
  -31.8592  -22.9682   21.1837 H   0  0  0  0  0  0
  -33.0559  -22.1844   20.1951 H   0  0  0  0  0  0
  1 25  1  0  0  0
  1 30  2  0  0  0
  1 90  1  0  0  0
  2  3  1  0  0  0
  2 25  1  0  0  0
  2 93  1  0  0  0
  2 94  1  0  0  0
  3  4  1  0  0  0
  3 95  1  0  0  0
  3 96  1  0  0  0
  4  5  1  0  0  0
  4 97  1  0  0  0
  4 98  1  0  0  0
  5  6  1  0  0  0
  5 26  1  0  0  0
  5 99  1  0  0  0
  6 25  1  0  0  0
  6100  1  0  0  0
  6101  1  0  0  0
  7  8  2  0  0  0
  7 26  1  0  0  0
  7 29  1  0  0  0
  8  9  1  0  0  0
  8 22  1  0  0  0
  9 10  1  0  0  0
  9 27  2  0  0  0
 10 11  2  0  0  0
 10 15  1  0  0  0
 11 12  1  0  0  0
 11102  1  0  0  0
 12 13  2  0  0  0
 12103  1  0  0  0
 13 14  1  0  0  0
 13 31  1  0  0  0
 14 15  2  0  0  0
 14104  1  0  0  0
 15105  1  0  0  0
 16 17  2  0  0  0
 16 21  1  0  0  0
 16 31  1  0  0  0
 17 18  1  0  0  0
 17106  1  0  0  0
 18 19  2  0  0  0
 18107  1  0  0  0
 19 20  1  0  0  0
 19 24  1  0  0  0
 20 21  2  0  0  0
 20108  1  0  0  0
 21 23  1  0  0  0
 22 28  1  0  0  0
 22 32  2  0  0  0
 26 27  1  0  0  0
 28109  1  0  0  0
 28110  1  0  0  0
 29111  1  0  0  0
 29112  1  0  0  0
 33 34  1  0  0  0
 33 66  1  0  0  0
 33 70  2  0  0  0
 34 36  1  0  0  0
 34 59  1  0  0  0
 34113  1  0  0  0
 35 44  2  0  0  0
 35 45  1  0  0  0
 35 68  1  0  0  0
 36 56  1  0  0  0
 36114  1  0  0  0
 37 39  1  0  0  0
 37 47  1  0  0  0
 37 66  1  0  0  0
 37115  1  0  0  0
 38 43  2  0  0  0
 38 46  1  0  0  0
 38 47  1  0  0  0
 39 64  1  0  0  0
 39 67  2  0  0  0
 40 52  1  0  0  0
 40 53  2  0  0  0
 40 58  1  0  0  0
 41116  1  0  0  0
 41117  1  0  0  0
 41118  1  0  0  0
 41 48  1  0  0  0
 42 43  1  0  0  0
 42 66  1  0  0  0
 42119  1  0  0  0
 42120  1  0  0  0
 43 44  1  0  0  0
 44121  1  0  0  0
 45 46  2  0  0  0
 45122  1  0  0  0
 46123  1  0  0  0
 47124  1  0  0  0
 47125  1  0  0  0
 48 56  1  0  0  0
 48 65  1  0  0  0
 48126  1  0  0  0
 49 50  1  0  0  0
 49 53  1  0  0  0
 49 64  1  0  0  0
 49127  1  0  0  0
 50 51  1  0  0  0
 50128  1  0  0  0
 50129  1  0  0  0
 51 52  1  0  0  0
 51130  1  0  0  0
 51131  1  0  0  0
 52132  1  0  0  0
 52133  1  0  0  0
 53 54  1  0  0  0
 54 55  2  0  0  0
 54134  1  0  0  0
 55 57  1  0  0  0
 55135  1  0  0  0
 56 69  2  0  0  0
 57 58  2  0  0  0
 57136  1  0  0  0
 58137  1  0  0  0
 59 60  1  0  0  0
 59 61  1  0  0  0
 59 62  1  0  0  0
 60138  1  0  0  0
 60139  1  0  0  0
 60140  1  0  0  0
 61141  1  0  0  0
 61142  1  0  0  0
 61143  1  0  0  0
 62144  1  0  0  0
 62145  1  0  0  0
 62146  1  0  0  0
 63 65  1  0  0  0
 63147  1  0  0  0
 63148  1  0  0  0
 63149  1  0  0  0
 64150  1  0  0  0
 65151  1  0  0  0
 68 85  1  0  0  0
 71 72  2  0  0  0
 71 75  1  0  0  0
 71152  1  0  0  0
 72 73  1  0  0  0
 72 78  1  0  0  0
 73 74  2  0  0  0
 73 77  1  0  0  0
 74 76  1  0  0  0
 74 84  1  0  0  0
 75 76  2  0  0  0
 75 91  1  0  0  0
 76 92  1  0  0  0
 77 83  1  0  0  0
 77153  1  0  0  0
 77154  1  0  0  0
 78 90  1  0  0  0
 78155  1  0  0  0
 78156  1  0  0  0
 79 81  1  0  0  0
 79 84  1  0  0  0
 79157  1  0  0  0
 79158  1  0  0  0
 80 82  1  0  0  0
 80 84  1  0  0  0
 80159  1  0  0  0
 80160  1  0  0  0
 81 85  1  0  0  0
 81161  1  0  0  0
 81162  1  0  0  0
 82 85  1  0  0  0
 82163  1  0  0  0
 82164  1  0  0  0
 83 90  1  0  0  0
 83165  1  0  0  0
 83166  1  0  0  0
 84167  1  0  0  0
 85168  1  0  0  0
 86 88  1  0  0  0
 86169  1  0  0  0
 86170  1  0  0  0
 86171  1  0  0  0
 87 89  1  0  0  0
 87172  1  0  0  0
 87173  1  0  0  0
 87174  1  0  0  0
 88 91  1  0  0  0
 88175  1  0  0  0
 88176  1  0  0  0
 89 92  1  0  0  0
 89177  1  0  0  0
 89178  1  0  0  0
M  ISO  4   1 100  68 101  85 101  90 100
M  END
> <chiral flag>
0

> <version>
0

> <s_m_source_file>
/data/baiqing/PycharmProjects/Reinvent-master-3.2/result/LINK_invent/BTK/process_docking_weight1_custom_sum_contain_oxygen_bond_distance_aromatic_linkinvent_7_9_3/rearranged_h_0154.sdf

> <i_m_source_file_index>
26

> <r_mmod_Potential_Energy-OPLS-2005>
441.875610351562

> <r_mmod_Stretch_Energy-OPLS-2005>
123.59651184082

> <r_mmod_Bend_Energy-OPLS-2005>
205.621673583984

> <r_mmod_Torsional_Energy-OPLS-2005>
408.821563720703

> <r_mmod_Improper_Torsional_Energy-OPLS-2005>
21.2078742980957

> <r_mmod_Van_der_Waal_Energy-OPLS-2005>
139.535385131836

> <r_mmod_Electrostatic_Energy-OPLS-2005>
-345.326873779297

> <r_mmod_Solvation_Energy-OPLS-2005>
-202.464462280273

> <b_mmod_Minimization_Converged-OPLS-2005>
0

> <r_mmod_RMS_Derivative-OPLS-2005>
2.3197717666626

$$$$
27
                    3D
 Structure written by MMmdl.
169178  0  0  1  0            999 V2000
  -30.6871  -14.4717   20.5945 C   0  0  0  0  0  0
  -30.4370  -12.3193   19.3974 C   0  0  0  0  0  0
  -29.4922  -12.5076   18.1912 C   0  0  0  0  0  0
  -28.0102  -12.3805   18.6090 C   0  0  0  0  0  0
  -27.6655  -13.2033   19.8812 C   0  0  2  0  0  0
  -28.7153  -12.9494   20.9864 C   0  0  0  0  0  0
  -25.2595  -13.8139   20.5675 C   0  0  0  0  0  0
  -24.1859  -13.0422   20.9227 C   0  0  0  0  0  0
  -24.6413  -11.6891   20.8765 C   0  0  0  0  0  0
  -23.9056  -10.4286   21.0411 C   0  0  0  0  0  0
  -24.3669   -9.4162   21.9106 C   0  0  0  0  0  0
  -23.6370   -8.2184   22.0641 C   0  0  0  0  0  0
  -22.4284   -8.0281   21.3533 C   0  0  0  0  0  0
  -21.9879   -9.0264   20.4671 C   0  0  0  0  0  0
  -22.7185  -10.2164   20.3100 C   0  0  0  0  0  0
  -21.6827   -6.0777   22.5290 C   0  0  0  0  0  0
  -21.4016   -6.5664   23.8237 C   0  0  0  0  0  0
  -21.3669   -5.6798   24.9177 C   0  0  0  0  0  0
  -21.6043   -4.3069   24.7202 C   0  0  0  0  0  0
  -21.8823   -3.8182   23.4318 C   0  0  0  0  0  0
  -21.9171   -4.7011   22.3388 C   0  0  0  0  0  0
  -22.7890  -13.5231   21.1891 C   0  0  0  0  0  0
  -22.1646   -4.2220   21.0957 F   0  0  0  0  0  0
  -21.5620   -3.4538   25.7701 F   0  0  0  0  0  0
  -30.0404  -13.2837   20.4345 N   0  0  0  0  0  0
  -26.3050  -12.9312   20.3394 N   0  0  0  0  0  0
  -25.9329  -11.6468   20.5767 N   0  0  0  0  0  0
  -22.0518  -12.8239   22.0466 N   0  0  0  0  0  0
  -25.4292  -15.1841   20.3949 N   0  0  0  0  0  0
  -31.7995  -14.7024   20.1125 O   0  0  0  0  0  0
  -21.6618   -6.8914   21.4259 O   0  0  0  0  0  0
  -22.3549  -14.5485   20.6686 O   0  0  0  0  0  0
  -24.6160  -31.8652   23.2071 C   0  0  0  0  0  0
  -25.9039  -32.4821   23.8370 C   0  0  1  0  0  0
  -27.2373  -27.4245   20.1090 C   0  0  0  0  0  0
  -25.5900  -33.8623   24.2292 N   0  0  0  0  0  0
  -23.4049  -30.4883   21.5478 C   0  0  2  0  0  0
  -24.8547  -28.9499   20.1160 C   0  0  0  0  0  0
  -22.7411  -29.4658   22.4978 C   0  0  0  0  0  0
  -18.0275  -28.1385   22.8508 C   0  0  0  0  0  0
  -24.1481  -36.7317   23.2634 C   0  0  0  0  0  0
  -25.9355  -30.8267   21.3628 C   0  0  0  0  0  0
  -26.0118  -29.4584   20.7185 C   0  0  0  0  0  0
  -27.2104  -28.7032   20.7160 C   0  0  0  0  0  0
  -26.0676  -26.9360   19.4935 C   0  0  0  0  0  0
  -24.8757  -27.6883   19.4985 C   0  0  0  0  0  0
  -23.6154  -29.8158   20.1646 C   0  0  0  0  0  0
  -25.4097  -36.3114   24.0324 C   0  0  1  0  0  0
  -20.5876  -28.3650   23.1324 C   0  0  2  0  0  0
  -20.6776  -26.9386   22.5427 C   0  0  0  0  0  0
  -19.5757  -26.6384   21.5222 C   0  0  0  0  0  0
  -18.1922  -26.7939   22.1619 C   0  0  0  0  0  0
  -19.1531  -28.8831   23.2920 C   0  0  0  0  0  0
  -18.9460  -30.1446   23.8911 C   0  0  0  0  0  0
  -17.6463  -30.6591   24.0567 C   0  0  0  0  0  0
  -25.9029  -34.9484   23.5089 C   0  0  0  0  0  0
  -16.5353  -29.9085   23.6342 C   0  0  0  0  0  0
  -16.7258  -28.6510   23.0346 C   0  0  0  0  0  0
  -26.4448  -31.6612   25.0707 C   0  0  0  0  0  0
  -25.3704  -31.3753   26.1451 C   0  0  0  0  0  0
  -27.0237  -30.3037   24.6095 C   0  0  0  0  0  0
  -27.6036  -32.4317   25.7459 C   0  0  0  0  0  0
  -27.5577  -37.1813   24.8457 C   0  0  0  0  0  0
  -21.4139  -29.3004   22.3712 N   0  0  0  0  0  0
  -26.4282  -37.3801   23.9420 N   0  0  0  0  0  0
  -24.6699  -31.0778   22.0952 N   0  0  0  0  0  0
  -23.4186  -28.8203   23.3028 O   0  0  0  0  0  0
  -28.3875  -26.6666   20.0627 O   0  0  0  0  0  0
  -26.5611  -34.8934   22.4666 O   0  0  0  0  0  0
  -23.5351  -32.1379   23.7489 O   0  0  0  0  0  0
  -29.5771  -21.5736   20.2603 C   0  0  0  0  0  0
  -28.4829  -21.2165   22.3826 C   0  0  0  0  0  0
  -28.9553  -22.1143   21.4030 C   0  0  0  0  0  0
  -29.6845  -20.1736   20.0806 C   0  0  0  0  0  0
  -28.5702  -19.8085   22.2268 C   0  0  0  0  0  0
  -29.1592  -19.2642   21.0431 C   0  0  0  0  0  0
  -29.6865  -24.7075   20.9495 C   0  0  0  0  0  0
  -27.6102  -24.4459   21.0631 C   0  0  0  0  0  0
  -28.8011  -23.6319   21.6167 C   0  0  1  0  0  0
  -28.5152  -25.6975   21.1168 C   0  0  2  0  0  0
  -30.3280  -19.6759   18.7993 C   0  0  0  0  0  0
  -26.6366  -19.3890   23.8551 C   0  0  0  0  0  0
  -29.0058  -18.8363   24.5286 C   0  0  0  0  0  0
  -29.1338  -17.7458   20.7338 C   0  0  0  0  0  0
  -30.2524  -16.8660   21.3598 C   0  0  0  0  0  0
  -28.0177  -18.9247   23.3559 C   0  0  0  0  0  0
  -29.9590  -15.4276   21.2021 N   0  0  0  0  0  0
  -31.4725  -12.4500   19.0773 H   0  0  0  0  0  0
  -30.3768  -11.3011   19.7845 H   0  0  0  0  0  0
  -29.7217  -11.7668   17.4246 H   0  0  0  0  0  0
  -29.6665  -13.4828   17.7314 H   0  0  0  0  0  0
  -27.8037  -11.3234   18.7839 H   0  0  0  0  0  0
  -27.3611  -12.6812   17.7850 H   0  0  0  0  0  0
  -27.7186  -14.2589   19.6114 H   0  0  0  0  0  0
  -28.7015  -11.9002   21.2775 H   0  0  0  0  0  0
  -28.4771  -13.5012   21.8984 H   0  0  0  0  0  0
  -25.2853   -9.5628   22.4631 H   0  0  0  0  0  0
  -24.0143   -7.4525   22.7264 H   0  0  0  0  0  0
  -21.0762   -8.8840   19.9041 H   0  0  0  0  0  0
  -22.3575  -10.9772   19.6320 H   0  0  0  0  0  0
  -21.2011   -7.6166   23.9775 H   0  0  0  0  0  0
  -21.1490   -6.0496   25.9097 H   0  0  0  0  0  0
  -22.0583   -2.7656   23.2756 H   0  0  0  0  0  0
  -22.4127  -11.9977   22.4977 H   0  0  0  0  0  0
  -21.1100  -13.1252   22.2565 H   0  0  0  0  0  0
  -24.6597  -15.8348   20.5037 H   0  0  0  0  0  0
  -26.2409  -15.6007   19.9594 H   0  0  0  0  0  0
  -26.7117  -32.5517   23.1149 H   0  0  0  0  0  0
  -25.0051  -33.9780   25.0442 H   0  0  0  0  0  0
  -22.6929  -31.3037   21.4065 H   0  0  0  0  0  0
  -23.3746  -35.9654   23.3295 H   0  0  0  0  0  0
  -24.3571  -36.8919   22.2050 H   0  0  0  0  0  0
  -23.7241  -37.6518   23.6645 H   0  0  0  0  0  0
  -26.0483  -31.5841   20.5866 H   0  0  0  0  0  0
  -26.8237  -30.8832   21.9795 H   0  0  0  0  0  0
  -28.1059  -29.0982   21.1741 H   0  0  0  0  0  0
  -26.0788  -25.9733   19.0015 H   0  0  0  0  0  0
  -23.9876  -27.2938   19.0215 H   0  0  0  0  0  0
  -23.7221  -30.5852   19.3988 H   0  0  0  0  0  0
  -22.7405  -29.2304   19.8736 H   0  0  0  0  0  0
  -25.1304  -36.1939   25.0823 H   0  0  0  0  0  0
  -20.9987  -28.3233   24.1443 H   0  0  0  0  0  0
  -20.5675  -26.2268   23.3623 H   0  0  0  0  0  0
  -21.6644  -26.7426   22.1227 H   0  0  0  0  0  0
  -19.6888  -25.6293   21.1232 H   0  0  0  0  0  0
  -19.6707  -27.3224   20.6781 H   0  0  0  0  0  0
  -17.4216  -26.6728   21.3992 H   0  0  0  0  0  0
  -18.0285  -26.0067   22.8999 H   0  0  0  0  0  0
  -19.7913  -30.7273   24.2294 H   0  0  0  0  0  0
  -17.4990  -31.6269   24.5162 H   0  0  0  0  0  0
  -15.5340  -30.2985   23.7629 H   0  0  0  0  0  0
  -15.8668  -28.0812   22.7054 H   0  0  0  0  0  0
  -24.5960  -30.6981   25.7834 H   0  0  0  0  0  0
  -24.8807  -32.2924   26.4753 H   0  0  0  0  0  0
  -25.8071  -30.9080   27.0290 H   0  0  0  0  0  0
  -26.2760  -29.6858   24.1123 H   0  0  0  0  0  0
  -27.3934  -29.7227   25.4551 H   0  0  0  0  0  0
  -27.8639  -30.4322   23.9269 H   0  0  0  0  0  0
  -27.2671  -33.3632   26.2031 H   0  0  0  0  0  0
  -28.3863  -32.6843   25.0292 H   0  0  0  0  0  0
  -28.0693  -31.8439   26.5381 H   0  0  0  0  0  0
  -28.2621  -38.0091   24.7526 H   0  0  0  0  0  0
  -28.1041  -36.2636   24.6251 H   0  0  0  0  0  0
  -27.2309  -37.1442   25.8859 H   0  0  0  0  0  0
  -20.9282  -29.8695   21.6914 H   0  0  0  0  0  0
  -26.0150  -38.2866   24.1439 H   0  0  0  0  0  0
  -29.9584  -22.2344   19.4957 H   0  0  0  0  0  0
  -28.0284  -21.6256   23.2737 H   0  0  0  0  0  0
  -29.9112  -24.5014   19.9014 H   0  0  0  0  0  0
  -30.5906  -24.9549   21.5049 H   0  0  0  0  0  0
  -26.7362  -24.4791   21.7150 H   0  0  0  0  0  0
  -27.3348  -24.1604   20.0462 H   0  0  0  0  0  0
  -28.8478  -23.7938   22.6972 H   0  0  0  0  0  0
  -28.5248  -26.1670   22.1046 H   0  0  0  0  0  0
  -30.9330  -18.7857   18.9763 H   0  0  0  0  0  0
  -30.9879  -20.4264   18.3640 H   0  0  0  0  0  0
  -29.5497  -19.4346   18.0733 H   0  0  0  0  0  0
  -25.9511  -19.5625   23.0253 H   0  0  0  0  0  0
  -26.6929  -20.3080   24.4426 H   0  0  0  0  0  0
  -26.1853  -18.6340   24.4991 H   0  0  0  0  0  0
  -29.9766  -18.4640   24.2051 H   0  0  0  0  0  0
  -28.6408  -18.1558   25.2986 H   0  0  0  0  0  0
  -29.1628  -19.8096   24.9959 H   0  0  0  0  0  0
  -29.1611  -17.5956   19.6573 H   0  0  0  0  0  0
  -28.1518  -17.3534   20.9903 H   0  0  0  0  0  0
  -30.3296  -17.0682   22.4265 H   0  0  0  0  0  0
  -31.2218  -17.1202   20.9271 H   0  0  0  0  0  0
  -27.8748  -17.9124   22.9903 H   0  0  0  0  0  0
  -29.0500  -15.1263   21.5224 H   0  0  0  0  0  0
  1 25  1  0  0  0
  1 30  2  0  0  0
  1 87  1  0  0  0
  2  3  1  0  0  0
  2 25  1  0  0  0
  2 88  1  0  0  0
  2 89  1  0  0  0
  3  4  1  0  0  0
  3 90  1  0  0  0
  3 91  1  0  0  0
  4  5  1  0  0  0
  4 92  1  0  0  0
  4 93  1  0  0  0
  5  6  1  0  0  0
  5 26  1  0  0  0
  5 94  1  0  0  0
  6 25  1  0  0  0
  6 95  1  0  0  0
  6 96  1  0  0  0
  7  8  2  0  0  0
  7 26  1  0  0  0
  7 29  1  0  0  0
  8  9  1  0  0  0
  8 22  1  0  0  0
  9 10  1  0  0  0
  9 27  2  0  0  0
 10 11  2  0  0  0
 10 15  1  0  0  0
 11 12  1  0  0  0
 11 97  1  0  0  0
 12 13  2  0  0  0
 12 98  1  0  0  0
 13 14  1  0  0  0
 13 31  1  0  0  0
 14 15  2  0  0  0
 14 99  1  0  0  0
 15100  1  0  0  0
 16 17  2  0  0  0
 16 21  1  0  0  0
 16 31  1  0  0  0
 17 18  1  0  0  0
 17101  1  0  0  0
 18 19  2  0  0  0
 18102  1  0  0  0
 19 20  1  0  0  0
 19 24  1  0  0  0
 20 21  2  0  0  0
 20103  1  0  0  0
 21 23  1  0  0  0
 22 28  1  0  0  0
 22 32  2  0  0  0
 26 27  1  0  0  0
 28104  1  0  0  0
 28105  1  0  0  0
 29106  1  0  0  0
 29107  1  0  0  0
 33 34  1  0  0  0
 33 66  1  0  0  0
 33 70  2  0  0  0
 34 36  1  0  0  0
 34 59  1  0  0  0
 34108  1  0  0  0
 35 44  2  0  0  0
 35 45  1  0  0  0
 35 68  1  0  0  0
 36 56  1  0  0  0
 36109  1  0  0  0
 37 39  1  0  0  0
 37 47  1  0  0  0
 37 66  1  0  0  0
 37110  1  0  0  0
 38 43  2  0  0  0
 38 46  1  0  0  0
 38 47  1  0  0  0
 39 64  1  0  0  0
 39 67  2  0  0  0
 40 52  1  0  0  0
 40 53  2  0  0  0
 40 58  1  0  0  0
 41111  1  0  0  0
 41112  1  0  0  0
 41113  1  0  0  0
 41 48  1  0  0  0
 42 43  1  0  0  0
 42 66  1  0  0  0
 42114  1  0  0  0
 42115  1  0  0  0
 43 44  1  0  0  0
 44116  1  0  0  0
 45 46  2  0  0  0
 45117  1  0  0  0
 46118  1  0  0  0
 47119  1  0  0  0
 47120  1  0  0  0
 48 56  1  0  0  0
 48 65  1  0  0  0
 48121  1  0  0  0
 49 50  1  0  0  0
 49 53  1  0  0  0
 49 64  1  0  0  0
 49122  1  0  0  0
 50 51  1  0  0  0
 50123  1  0  0  0
 50124  1  0  0  0
 51 52  1  0  0  0
 51125  1  0  0  0
 51126  1  0  0  0
 52127  1  0  0  0
 52128  1  0  0  0
 53 54  1  0  0  0
 54 55  2  0  0  0
 54129  1  0  0  0
 55 57  1  0  0  0
 55130  1  0  0  0
 56 69  2  0  0  0
 57 58  2  0  0  0
 57131  1  0  0  0
 58132  1  0  0  0
 59 60  1  0  0  0
 59 61  1  0  0  0
 59 62  1  0  0  0
 60133  1  0  0  0
 60134  1  0  0  0
 60135  1  0  0  0
 61136  1  0  0  0
 61137  1  0  0  0
 61138  1  0  0  0
 62139  1  0  0  0
 62140  1  0  0  0
 62141  1  0  0  0
 63 65  1  0  0  0
 63142  1  0  0  0
 63143  1  0  0  0
 63144  1  0  0  0
 64145  1  0  0  0
 65146  1  0  0  0
 68 80  1  0  0  0
 71 73  2  0  0  0
 71 74  1  0  0  0
 71147  1  0  0  0
 72 73  1  0  0  0
 72 75  2  0  0  0
 72148  1  0  0  0
 73 79  1  0  0  0
 74 76  2  0  0  0
 74 81  1  0  0  0
 75 76  1  0  0  0
 75 86  1  0  0  0
 76 84  1  0  0  0
 77 79  1  0  0  0
 77 80  1  0  0  0
 77149  1  0  0  0
 77150  1  0  0  0
 78 79  1  0  0  0
 78 80  1  0  0  0
 78151  1  0  0  0
 78152  1  0  0  0
 79153  1  0  0  0
 80154  1  0  0  0
 81155  1  0  0  0
 81156  1  0  0  0
 81157  1  0  0  0
 82158  1  0  0  0
 82159  1  0  0  0
 82160  1  0  0  0
 82 86  1  0  0  0
 83 86  1  0  0  0
 83161  1  0  0  0
 83162  1  0  0  0
 83163  1  0  0  0
 84 85  1  0  0  0
 84164  1  0  0  0
 84165  1  0  0  0
 85 87  1  0  0  0
 85166  1  0  0  0
 85167  1  0  0  0
 86168  1  0  0  0
 87169  1  0  0  0
M  ISO  4   1 100  68 101  80 101  87 100
M  END
> <chiral flag>
0

> <version>
0

> <s_m_source_file>
/data/baiqing/PycharmProjects/Reinvent-master-3.2/result/LINK_invent/BTK/process_docking_weight1_custom_sum_contain_oxygen_bond_distance_aromatic_linkinvent_7_9_3/rearranged_h_0154.sdf

> <i_m_source_file_index>
27

> <r_mmod_Potential_Energy-OPLS-2005>
-64.2747268676758

> <r_mmod_Stretch_Energy-OPLS-2005>
43.3133010864258

> <r_mmod_Bend_Energy-OPLS-2005>
120.474822998047

> <r_mmod_Torsional_Energy-OPLS-2005>
238.231552124023

> <r_mmod_Improper_Torsional_Energy-OPLS-2005>
3.92276930809021

> <r_mmod_Van_der_Waal_Energy-OPLS-2005>
148.661254882812

> <r_mmod_Electrostatic_Energy-OPLS-2005>
-431.156097412109

> <r_mmod_Solvation_Energy-OPLS-2005>
-200.053436279297

> <b_mmod_Minimization_Converged-OPLS-2005>
0

> <r_mmod_RMS_Derivative-OPLS-2005>
4.3687596321106

$$$$
28
                    3D
 Structure written by MMmdl.
166174  0  0  1  0            999 V2000
  -30.6758  -14.5299   20.5343 C   0  0  0  0  0  0
  -30.4303  -12.3317   19.4328 C   0  0  0  0  0  0
  -29.5019  -12.4980   18.2110 C   0  0  0  0  0  0
  -28.0242  -12.3515   18.6243 C   0  0  0  0  0  0
  -27.6603  -13.2085   19.8667 C   0  0  2  0  0  0
  -28.7034  -13.0229   20.9914 C   0  0  0  0  0  0
  -25.2597  -13.8151   20.5681 C   0  0  0  0  0  0
  -24.1835  -13.0437   20.9181 C   0  0  0  0  0  0
  -24.6391  -11.6913   20.8716 C   0  0  0  0  0  0
  -23.9055  -10.4312   21.0408 C   0  0  0  0  0  0
  -24.3611   -9.4243   21.9193 C   0  0  0  0  0  0
  -23.6297   -8.2275   22.0770 C   0  0  0  0  0  0
  -22.4284   -8.0292   21.3554 C   0  0  0  0  0  0
  -21.9908   -9.0271   20.4665 C   0  0  0  0  0  0
  -22.7225  -10.2155   20.3074 C   0  0  0  0  0  0
  -21.6867   -6.0736   22.5288 C   0  0  0  0  0  0
  -21.4023   -6.5640   23.8217 C   0  0  0  0  0  0
  -21.3655   -5.6793   24.9180 C   0  0  0  0  0  0
  -21.6048   -4.3062   24.7236 C   0  0  0  0  0  0
  -21.8814   -3.8149   23.4364 C   0  0  0  0  0  0
  -21.9200   -4.6963   22.3418 C   0  0  0  0  0  0
  -22.7870  -13.5263   21.1843 C   0  0  0  0  0  0
  -22.1670   -4.2141   21.1001 F   0  0  0  0  0  0
  -21.5626   -3.4557   25.7752 F   0  0  0  0  0  0
  -30.0281  -13.3355   20.4318 N   0  0  0  0  0  0
  -26.3023  -12.9324   20.3329 N   0  0  0  0  0  0
  -25.9325  -11.6494   20.5746 N   0  0  0  0  0  0
  -22.0499  -12.8262   22.0389 N   0  0  0  0  0  0
  -25.4306  -15.1864   20.4109 N   0  0  0  0  0  0
  -31.8231  -14.7002   20.1155 O   0  0  0  0  0  0
  -21.6660   -6.8883   21.4247 O   0  0  0  0  0  0
  -22.3596  -14.5591   20.6711 O   0  0  0  0  0  0
  -24.6193  -31.8663   23.2074 C   0  0  0  0  0  0
  -25.9064  -32.4813   23.8382 C   0  0  1  0  0  0
  -27.2275  -27.3942   20.1126 C   0  0  0  0  0  0
  -25.5913  -33.8609   24.2318 N   0  0  0  0  0  0
  -23.4104  -30.4893   21.5499 C   0  0  2  0  0  0
  -24.8601  -28.9541   20.1094 C   0  0  0  0  0  0
  -22.7446  -29.4650   22.4968 C   0  0  0  0  0  0
  -18.0321  -28.1343   22.8480 C   0  0  0  0  0  0
  -24.1497  -36.7290   23.2643 C   0  0  0  0  0  0
  -25.9452  -30.8176   21.3697 C   0  0  0  0  0  0
  -26.0223  -29.4524   20.7099 C   0  0  0  0  0  0
  -27.2152  -28.6836   20.7054 C   0  0  0  0  0  0
  -26.0547  -26.9294   19.4824 C   0  0  0  0  0  0
  -24.8735  -27.6942   19.4866 C   0  0  0  0  0  0
  -23.6208  -29.8211   20.1652 C   0  0  0  0  0  0
  -25.4120  -36.3091   24.0347 C   0  0  1  0  0  0
  -20.5908  -28.3665   23.1312 C   0  0  2  0  0  0
  -20.6838  -26.9387   22.5449 C   0  0  0  0  0  0
  -19.5823  -26.6330   21.5236 C   0  0  0  0  0  0
  -18.1980  -26.7903   22.1589 C   0  0  0  0  0  0
  -19.1562  -28.8814   23.2896 C   0  0  0  0  0  0
  -18.9480  -30.1442   23.8887 C   0  0  0  0  0  0
  -17.6474  -30.6558   24.0522 C   0  0  0  0  0  0
  -25.9055  -34.9466   23.5130 C   0  0  0  0  0  0
  -16.5382  -29.9036   23.6317 C   0  0  0  0  0  0
  -16.7298  -28.6452   23.0350 C   0  0  0  0  0  0
  -26.4474  -31.6599   25.0724 C   0  0  0  0  0  0
  -25.3717  -31.3726   26.1454 C   0  0  0  0  0  0
  -27.0318  -30.3038   24.6138 C   0  0  0  0  0  0
  -27.6070  -32.4301   25.7474 C   0  0  0  0  0  0
  -27.5585  -37.1806   24.8471 C   0  0  0  0  0  0
  -21.4171  -29.3044   22.3718 N   0  0  0  0  0  0
  -26.4297  -37.3776   23.9415 N   0  0  0  0  0  0
  -24.6758  -31.0732   22.0993 N   0  0  0  0  0  0
  -23.4203  -28.8157   23.2997 O   0  0  0  0  0  0
  -28.3311  -26.5570   20.1684 O   0  0  0  0  0  0
  -26.5603  -34.8918   22.4681 O   0  0  0  0  0  0
  -23.5376  -32.1432   23.7452 O   0  0  0  0  0  0
  -27.5843  -20.4990   22.0581 C   0  0  0  0  0  0
  -28.1121  -21.3242   21.0127 C   0  0  0  0  0  0
  -28.0125  -19.2125   21.8715 C   0  0  0  0  0  0
  -28.9169  -20.4920   20.2536 C   0  0  0  0  0  0
  -26.6267  -20.9464   23.1401 C   0  0  0  0  0  0
  -27.6328  -17.9862   22.6541 C   0  0  0  0  0  0
  -29.7103  -20.7930   19.0213 C   0  0  0  0  0  0
  -26.4239  -22.7651   19.8566 C   0  0  0  0  0  0
  -28.6051  -23.9611   20.4211 C   0  0  0  0  0  0
  -29.3607  -17.9305   20.1231 C   0  0  0  0  0  0
  -30.2774  -17.0115   21.0040 C   0  0  0  0  0  0
  -28.1044  -25.3555   20.9636 C   0  0  0  0  0  0
  -27.6300  -22.7888   20.8053 C   0  0  2  0  0  0
  -28.8319  -19.1758   20.7498 N   0  0  0  0  0  0
  -29.9217  -15.5686   20.9565 N   0  0  0  0  0  0
  -31.4736  -12.4396   19.1331 H   0  0  0  0  0  0
  -30.3426  -11.3276   19.8506 H   0  0  0  0  0  0
  -29.7505  -11.7643   17.4428 H   0  0  0  0  0  0
  -29.6597  -13.4775   17.7566 H   0  0  0  0  0  0
  -27.8450  -11.2969   18.8392 H   0  0  0  0  0  0
  -27.3728  -12.6056   17.7869 H   0  0  0  0  0  0
  -27.6934  -14.2506   19.5479 H   0  0  0  0  0  0
  -28.6913  -11.9945   21.3563 H   0  0  0  0  0  0
  -28.4638  -13.6434   21.8568 H   0  0  0  0  0  0
  -25.2759   -9.5724   22.4763 H   0  0  0  0  0  0
  -24.0006   -7.4685   22.7505 H   0  0  0  0  0  0
  -21.0833   -8.8792   19.8992 H   0  0  0  0  0  0
  -22.3675  -10.9694   19.6190 H   0  0  0  0  0  0
  -21.2011   -7.6151   23.9704 H   0  0  0  0  0  0
  -21.1477   -6.0544   25.9075 H   0  0  0  0  0  0
  -22.0590   -2.7612   23.2879 H   0  0  0  0  0  0
  -22.4103  -11.9917   22.4766 H   0  0  0  0  0  0
  -21.1133  -13.1323   22.2599 H   0  0  0  0  0  0
  -24.6589  -15.8352   20.5279 H   0  0  0  0  0  0
  -26.2703  -15.6290   20.0630 H   0  0  0  0  0  0
  -26.7132  -32.5510   23.1146 H   0  0  0  0  0  0
  -25.0086  -33.9767   25.0477 H   0  0  0  0  0  0
  -22.7012  -31.3081   21.4122 H   0  0  0  0  0  0
  -23.3758  -35.9618   23.3322 H   0  0  0  0  0  0
  -24.3604  -36.8878   22.2049 H   0  0  0  0  0  0
  -23.7240  -37.6512   23.6632 H   0  0  0  0  0  0
  -26.0730  -31.5890   20.6079 H   0  0  0  0  0  0
  -26.8265  -30.8628   21.9972 H   0  0  0  0  0  0
  -28.1068  -29.0583   21.1873 H   0  0  0  0  0  0
  -26.0524  -25.9607   19.0044 H   0  0  0  0  0  0
  -23.9811  -27.3073   19.0140 H   0  0  0  0  0  0
  -23.7225  -30.5957   19.4047 H   0  0  0  0  0  0
  -22.7446  -29.2406   19.8713 H   0  0  0  0  0  0
  -25.1290  -36.1969   25.0838 H   0  0  0  0  0  0
  -20.9990  -28.3256   24.1440 H   0  0  0  0  0  0
  -20.5725  -26.2300   23.3661 H   0  0  0  0  0  0
  -21.6746  -26.7404   22.1335 H   0  0  0  0  0  0
  -19.6991  -25.6213   21.1325 H   0  0  0  0  0  0
  -19.6780  -27.3072   20.6705 H   0  0  0  0  0  0
  -17.4286  -26.6676   21.3953 H   0  0  0  0  0  0
  -18.0319  -26.0028   22.8945 H   0  0  0  0  0  0
  -19.7925  -30.7266   24.2302 H   0  0  0  0  0  0
  -17.5017  -31.6270   24.5042 H   0  0  0  0  0  0
  -15.5374  -30.2932   23.7669 H   0  0  0  0  0  0
  -15.8688  -28.0764   22.7107 H   0  0  0  0  0  0
  -24.5888  -30.7080   25.7783 H   0  0  0  0  0  0
  -24.8895  -32.2886   26.4884 H   0  0  0  0  0  0
  -25.8038  -30.8899   27.0226 H   0  0  0  0  0  0
  -26.2889  -29.6798   24.1158 H   0  0  0  0  0  0
  -27.4054  -29.7285   25.4621 H   0  0  0  0  0  0
  -27.8733  -30.4373   23.9332 H   0  0  0  0  0  0
  -27.2726  -33.3600   26.2091 H   0  0  0  0  0  0
  -28.3853  -32.6863   25.0269 H   0  0  0  0  0  0
  -28.0762  -31.8382   26.5349 H   0  0  0  0  0  0
  -28.2623  -38.0083   24.7493 H   0  0  0  0  0  0
  -28.1061  -36.2617   24.6317 H   0  0  0  0  0  0
  -27.2307  -37.1470   25.8876 H   0  0  0  0  0  0
  -20.9336  -29.8840   21.7002 H   0  0  0  0  0  0
  -26.0202  -38.2877   24.1358 H   0  0  0  0  0  0
  -27.1019  -21.6749   23.7972 H   0  0  0  0  0  0
  -25.7420  -21.4028   22.6962 H   0  0  0  0  0  0
  -26.2881  -20.1183   23.7600 H   0  0  0  0  0  0
  -26.5745  -18.0047   22.9137 H   0  0  0  0  0  0
  -28.2001  -17.9258   23.5834 H   0  0  0  0  0  0
  -27.7818  -17.0616   22.1018 H   0  0  0  0  0  0
  -29.3161  -20.2533   18.1608 H   0  0  0  0  0  0
  -30.7550  -20.5066   19.1529 H   0  0  0  0  0  0
  -29.6872  -21.8529   18.7756 H   0  0  0  0  0  0
  -25.6631  -22.0719   20.2156 H   0  0  0  0  0  0
  -26.7196  -22.4399   18.8595 H   0  0  0  0  0  0
  -25.9560  -23.7444   19.7668 H   0  0  0  0  0  0
  -29.5935  -23.7722   20.8410 H   0  0  0  0  0  0
  -28.7401  -23.9972   19.3396 H   0  0  0  0  0  0
  -28.4910  -17.3618   19.7881 H   0  0  0  0  0  0
  -29.8927  -18.1768   19.2045 H   0  0  0  0  0  0
  -30.2448  -17.3282   22.0462 H   0  0  0  0  0  0
  -31.3127  -17.1605   20.6949 H   0  0  0  0  0  0
  -28.5759  -25.5252   21.9324 H   0  0  0  0  0  0
  -27.0464  -25.2698   21.2212 H   0  0  0  0  0  0
  -27.2545  -23.0765   21.7869 H   0  0  0  0  0  0
  -28.9887  -15.3272   21.2532 H   0  0  0  0  0  0
  1 25  1  0  0  0
  1 30  2  0  0  0
  1 85  1  0  0  0
  2  3  1  0  0  0
  2 25  1  0  0  0
  2 86  1  0  0  0
  2 87  1  0  0  0
  3  4  1  0  0  0
  3 88  1  0  0  0
  3 89  1  0  0  0
  4  5  1  0  0  0
  4 90  1  0  0  0
  4 91  1  0  0  0
  5  6  1  0  0  0
  5 26  1  0  0  0
  5 92  1  0  0  0
  6 25  1  0  0  0
  6 93  1  0  0  0
  6 94  1  0  0  0
  7  8  2  0  0  0
  7 26  1  0  0  0
  7 29  1  0  0  0
  8  9  1  0  0  0
  8 22  1  0  0  0
  9 10  1  0  0  0
  9 27  2  0  0  0
 10 11  2  0  0  0
 10 15  1  0  0  0
 11 12  1  0  0  0
 11 95  1  0  0  0
 12 13  2  0  0  0
 12 96  1  0  0  0
 13 14  1  0  0  0
 13 31  1  0  0  0
 14 15  2  0  0  0
 14 97  1  0  0  0
 15 98  1  0  0  0
 16 17  2  0  0  0
 16 21  1  0  0  0
 16 31  1  0  0  0
 17 18  1  0  0  0
 17 99  1  0  0  0
 18 19  2  0  0  0
 18100  1  0  0  0
 19 20  1  0  0  0
 19 24  1  0  0  0
 20 21  2  0  0  0
 20101  1  0  0  0
 21 23  1  0  0  0
 22 28  1  0  0  0
 22 32  2  0  0  0
 26 27  1  0  0  0
 28102  1  0  0  0
 28103  1  0  0  0
 29104  1  0  0  0
 29105  1  0  0  0
 33 34  1  0  0  0
 33 66  1  0  0  0
 33 70  2  0  0  0
 34 36  1  0  0  0
 34 59  1  0  0  0
 34106  1  0  0  0
 35 44  2  0  0  0
 35 45  1  0  0  0
 35 68  1  0  0  0
 36 56  1  0  0  0
 36107  1  0  0  0
 37 39  1  0  0  0
 37 47  1  0  0  0
 37 66  1  0  0  0
 37108  1  0  0  0
 38 43  2  0  0  0
 38 46  1  0  0  0
 38 47  1  0  0  0
 39 64  1  0  0  0
 39 67  2  0  0  0
 40 52  1  0  0  0
 40 53  2  0  0  0
 40 58  1  0  0  0
 41109  1  0  0  0
 41110  1  0  0  0
 41111  1  0  0  0
 41 48  1  0  0  0
 42 43  1  0  0  0
 42 66  1  0  0  0
 42112  1  0  0  0
 42113  1  0  0  0
 43 44  1  0  0  0
 44114  1  0  0  0
 45 46  2  0  0  0
 45115  1  0  0  0
 46116  1  0  0  0
 47117  1  0  0  0
 47118  1  0  0  0
 48 56  1  0  0  0
 48 65  1  0  0  0
 48119  1  0  0  0
 49 50  1  0  0  0
 49 53  1  0  0  0
 49 64  1  0  0  0
 49120  1  0  0  0
 50 51  1  0  0  0
 50121  1  0  0  0
 50122  1  0  0  0
 51 52  1  0  0  0
 51123  1  0  0  0
 51124  1  0  0  0
 52125  1  0  0  0
 52126  1  0  0  0
 53 54  1  0  0  0
 54 55  2  0  0  0
 54127  1  0  0  0
 55 57  1  0  0  0
 55128  1  0  0  0
 56 69  2  0  0  0
 57 58  2  0  0  0
 57129  1  0  0  0
 58130  1  0  0  0
 59 60  1  0  0  0
 59 61  1  0  0  0
 59 62  1  0  0  0
 60131  1  0  0  0
 60132  1  0  0  0
 60133  1  0  0  0
 61134  1  0  0  0
 61135  1  0  0  0
 61136  1  0  0  0
 62137  1  0  0  0
 62138  1  0  0  0
 62139  1  0  0  0
 63 65  1  0  0  0
 63140  1  0  0  0
 63141  1  0  0  0
 63142  1  0  0  0
 64143  1  0  0  0
 65144  1  0  0  0
 68 82  1  0  0  0
 71 72  1  0  0  0
 71 73  2  0  0  0
 71 75  1  0  0  0
 72 74  2  0  0  0
 72 83  1  0  0  0
 73 76  1  0  0  0
 73 84  1  0  0  0
 74 77  1  0  0  0
 74 84  1  0  0  0
 75145  1  0  0  0
 75146  1  0  0  0
 75147  1  0  0  0
 76148  1  0  0  0
 76149  1  0  0  0
 76150  1  0  0  0
 77151  1  0  0  0
 77152  1  0  0  0
 77153  1  0  0  0
 78154  1  0  0  0
 78155  1  0  0  0
 78156  1  0  0  0
 78 83  1  0  0  0
 79 82  1  0  0  0
 79 83  1  0  0  0
 79157  1  0  0  0
 79158  1  0  0  0
 80 81  1  0  0  0
 80 84  1  0  0  0
 80159  1  0  0  0
 80160  1  0  0  0
 81 85  1  0  0  0
 81161  1  0  0  0
 81162  1  0  0  0
 82163  1  0  0  0
 82164  1  0  0  0
 83165  1  0  0  0
 85166  1  0  0  0
M  ISO  4   1 100  68 101  82 101  85 100
M  END
> <chiral flag>
0

> <version>
0

> <s_m_source_file>
/data/baiqing/PycharmProjects/Reinvent-master-3.2/result/LINK_invent/BTK/process_docking_weight1_custom_sum_contain_oxygen_bond_distance_aromatic_linkinvent_7_9_3/rearranged_h_0154.sdf

> <i_m_source_file_index>
28

> <r_mmod_Potential_Energy-OPLS-2005>
-55.9755935668945

> <r_mmod_Stretch_Energy-OPLS-2005>
52.6872634887695

> <r_mmod_Bend_Energy-OPLS-2005>
129.112976074219

> <r_mmod_Torsional_Energy-OPLS-2005>
260.316986083984

> <r_mmod_Improper_Torsional_Energy-OPLS-2005>
6.06022644042969

> <r_mmod_Van_der_Waal_Energy-OPLS-2005>
124.61986541748

> <r_mmod_Electrostatic_Energy-OPLS-2005>
-445.465698242188

> <r_mmod_Solvation_Energy-OPLS-2005>
-208.188613891602

> <b_mmod_Minimization_Converged-OPLS-2005>
0

> <r_mmod_RMS_Derivative-OPLS-2005>
2.75008225440979

$$$$
29
                    3D
 Structure written by MMmdl.
165174  0  0  1  0            999 V2000
  -30.5708  -14.9895   20.4020 C   0  0  0  0  0  0
  -30.4283  -12.6111   19.5089 C   0  0  0  0  0  0
  -29.5176  -12.5340   18.2633 C   0  0  0  0  0  0
  -28.0523  -12.3210   18.6809 C   0  0  0  0  0  0
  -27.6253  -13.2610   19.8385 C   0  0  2  0  0  0
  -28.6709  -13.3249   20.9747 C   0  0  0  0  0  0
  -25.2441  -13.8249   20.5763 C   0  0  0  0  0  0
  -24.1767  -13.0450   20.9249 C   0  0  0  0  0  0
  -24.6389  -11.6941   20.8762 C   0  0  0  0  0  0
  -23.9070  -10.4301   21.0400 C   0  0  0  0  0  0
  -24.3616   -9.4211   21.9174 C   0  0  0  0  0  0
  -23.6285   -8.2251   22.0749 C   0  0  0  0  0  0
  -22.4262   -8.0280   21.3540 C   0  0  0  0  0  0
  -21.9898   -9.0253   20.4641 C   0  0  0  0  0  0
  -22.7243  -10.2132   20.3046 C   0  0  0  0  0  0
  -21.6849   -6.0730   22.5276 C   0  0  0  0  0  0
  -21.4016   -6.5642   23.8211 C   0  0  0  0  0  0
  -21.3670   -5.6800   24.9175 C   0  0  0  0  0  0
  -21.6052   -4.3055   24.7226 C   0  0  0  0  0  0
  -21.8820   -3.8145   23.4344 C   0  0  0  0  0  0
  -21.9193   -4.6961   22.3394 C   0  0  0  0  0  0
  -22.7787  -13.5213   21.1888 C   0  0  0  0  0  0
  -22.1654   -4.2149   21.0969 F   0  0  0  0  0  0
  -21.5634   -3.4535   25.7735 F   0  0  0  0  0  0
  -29.9429  -13.7375   20.3664 N   0  0  0  0  0  0
  -26.2870  -12.9502   20.3275 N   0  0  0  0  0  0
  -25.9330  -11.6613   20.5748 N   0  0  0  0  0  0
  -22.0436  -12.8195   22.0437 N   0  0  0  0  0  0
  -25.4110  -15.1978   20.4236 N   0  0  0  0  0  0
  -31.7716  -14.9579   20.1253 O   0  0  0  0  0  0
  -21.6635   -6.8868   21.4236 O   0  0  0  0  0  0
  -22.3472  -14.5515   20.6727 O   0  0  0  0  0  0
  -24.6470  -31.8413   23.1854 C   0  0  0  0  0  0
  -25.9228  -32.4681   23.8254 C   0  0  1  0  0  0
  -27.2141  -27.1048   20.1559 C   0  0  0  0  0  0
  -25.5966  -33.8485   24.2180 N   0  0  0  0  0  0
  -23.4515  -30.4602   21.5312 C   0  0  2  0  0  0
  -24.9015  -28.8816   20.1093 C   0  0  0  0  0  0
  -22.7584  -29.4536   22.4839 C   0  0  0  0  0  0
  -18.0307  -28.1394   22.8476 C   0  0  0  0  0  0
  -24.1492  -36.7243   23.2640 C   0  0  0  0  0  0
  -26.0105  -30.7045   21.3895 C   0  0  0  0  0  0
  -26.0796  -29.3126   20.7321 C   0  0  0  0  0  0
  -27.2360  -28.4402   20.7386 C   0  0  0  0  0  0
  -26.0115  -26.7864   19.4866 C   0  0  0  0  0  0
  -24.8822  -27.6334   19.4698 C   0  0  0  0  0  0
  -23.6802  -29.7879   20.1512 C   0  0  0  0  0  0
  -25.4124  -36.3021   24.0317 C   0  0  1  0  0  0
  -20.5924  -28.3726   23.1223 C   0  0  2  0  0  0
  -20.6787  -26.9424   22.5399 C   0  0  0  0  0  0
  -19.5758  -26.6377   21.5210 C   0  0  0  0  0  0
  -18.1943  -26.7930   22.1627 C   0  0  0  0  0  0
  -19.1565  -28.8877   23.2844 C   0  0  0  0  0  0
  -18.9481  -30.1470   23.8875 C   0  0  0  0  0  0
  -17.6477  -30.6590   24.0555 C   0  0  0  0  0  0
  -25.9083  -34.9399   23.5059 C   0  0  0  0  0  0
  -16.5368  -29.9080   23.6337 C   0  0  0  0  0  0
  -16.7291  -28.6497   23.0361 C   0  0  0  0  0  0
  -26.4540  -31.6553   25.0704 C   0  0  0  0  0  0
  -25.3728  -31.3752   26.1406 C   0  0  0  0  0  0
  -27.0398  -30.2939   24.6304 C   0  0  0  0  0  0
  -27.6074  -32.4317   25.7487 C   0  0  0  0  0  0
  -27.5587  -37.1767   24.8461 C   0  0  0  0  0  0
  -21.4273  -29.3053   22.3593 N   0  0  0  0  0  0
  -26.4277  -37.3745   23.9430 N   0  0  0  0  0  0
  -24.7230  -31.0245   22.0902 N   0  0  0  0  0  0
  -23.4219  -28.8092   23.3003 O   0  0  0  0  0  0
  -28.2494  -26.0925   20.2396 O   0  0  0  0  0  0
  -26.5666  -34.8904   22.4637 O   0  0  0  0  0  0
  -23.5583  -32.1297   23.7066 O   0  0  0  0  0  0
  -29.1042  -18.8570   20.4439 C   0  0  0  0  0  0
  -31.6942  -19.6842   20.1634 C   0  0  0  0  0  0
  -29.3601  -20.3263   20.3120 C   0  0  0  0  0  0
  -30.6993  -20.6939   20.1152 C   0  0  0  0  0  0
  -30.1180  -17.7589   20.4300 C   0  0  0  0  0  0
  -31.4479  -18.2818   20.3211 C   0  0  0  0  0  0
  -28.3166  -21.5833   20.3199 C   0  0  1  0  0  0
  -28.8761  -23.1663   20.3985 C   0  0  2  0  0  0
  -31.0997  -22.1807   19.8913 C   0  0  0  0  0  0
  -27.3715  -21.4304   19.1203 C   0  0  0  0  0  0
  -31.8483  -22.7255   21.1214 C   0  0  0  0  0  0
  -31.9956  -22.3160   18.6452 C   0  0  0  0  0  0
  -33.8096  -17.8261   20.0143 C   0  0  0  0  0  0
  -27.9577  -24.5613   20.0262 C   0  0  0  0  0  0
  -29.8354  -16.2224   20.5423 N   0  0  0  0  0  0
  -30.0250  -23.0922   19.5508 O   0  0  0  0  0  0
  -32.5064  -17.4060   20.4072 O   0  0  0  0  0  0
  -31.4651  -12.7406   19.1943 H   0  0  0  0  0  0
  -30.4097  -11.6704   20.0620 H   0  0  0  0  0  0
  -29.8413  -11.7250   17.6070 H   0  0  0  0  0  0
  -29.6081  -13.4544   17.6846 H   0  0  0  0  0  0
  -27.9496  -11.2810   18.9929 H   0  0  0  0  0  0
  -27.3884  -12.4478   17.8246 H   0  0  0  0  0  0
  -27.5764  -14.2571   19.3968 H   0  0  0  0  0  0
  -28.7671  -12.3636   21.4821 H   0  0  0  0  0  0
  -28.3687  -14.0468   21.7348 H   0  0  0  0  0  0
  -25.2756   -9.5700   22.4761 H   0  0  0  0  0  0
  -23.9996   -7.4650   22.7469 H   0  0  0  0  0  0
  -21.0829   -8.8774   19.8947 H   0  0  0  0  0  0
  -22.3686  -10.9667   19.6159 H   0  0  0  0  0  0
  -21.2002   -7.6150   23.9712 H   0  0  0  0  0  0
  -21.1493   -6.0523   25.9078 H   0  0  0  0  0  0
  -22.0588   -2.7601   23.2838 H   0  0  0  0  0  0
  -22.4042  -11.9843   22.4817 H   0  0  0  0  0  0
  -21.1064  -13.1233   22.2667 H   0  0  0  0  0  0
  -24.6460  -15.8518   20.5453 H   0  0  0  0  0  0
  -26.2598  -15.6404   20.0975 H   0  0  0  0  0  0
  -26.7296  -32.5272   23.0983 H   0  0  0  0  0  0
  -25.0103  -33.9589   25.0322 H   0  0  0  0  0  0
  -22.7562  -31.2874   21.3739 H   0  0  0  0  0  0
  -23.3775  -35.9551   23.3247 H   0  0  0  0  0  0
  -24.3593  -36.8927   22.2068 H   0  0  0  0  0  0
  -23.7215  -37.6409   23.6707 H   0  0  0  0  0  0
  -26.1712  -31.4555   20.6151 H   0  0  0  0  0  0
  -26.8793  -30.7552   22.0337 H   0  0  0  0  0  0
  -28.1295  -28.7630   21.2542 H   0  0  0  0  0  0
  -25.9074  -25.8342   18.9892 H   0  0  0  0  0  0
  -23.9848  -27.3000   18.9679 H   0  0  0  0  0  0
  -23.8226  -30.5610   19.3954 H   0  0  0  0  0  0
  -22.7943  -29.2330   19.8379 H   0  0  0  0  0  0
  -25.1304  -36.1835   25.0805 H   0  0  0  0  0  0
  -21.0020  -28.3317   24.1344 H   0  0  0  0  0  0
  -20.5670  -26.2348   23.3627 H   0  0  0  0  0  0
  -21.6653  -26.7418   22.1203 H   0  0  0  0  0  0
  -19.6920  -25.6280   21.1258 H   0  0  0  0  0  0
  -19.6690  -27.3175   20.6730 H   0  0  0  0  0  0
  -17.4210  -26.6674   21.4031 H   0  0  0  0  0  0
  -18.0345  -26.0073   22.9026 H   0  0  0  0  0  0
  -19.7956  -30.7286   24.2243 H   0  0  0  0  0  0
  -17.5031  -31.6269   24.5154 H   0  0  0  0  0  0
  -15.5368  -30.2979   23.7663 H   0  0  0  0  0  0
  -15.8692  -28.0802   22.7101 H   0  0  0  0  0  0
  -24.5874  -30.7146   25.7721 H   0  0  0  0  0  0
  -24.8965  -32.2942   26.4826 H   0  0  0  0  0  0
  -25.8002  -30.8904   27.0192 H   0  0  0  0  0  0
  -26.3013  -29.6660   24.1305 H   0  0  0  0  0  0
  -27.3992  -29.7240   25.4883 H   0  0  0  0  0  0
  -27.8935  -30.4161   23.9636 H   0  0  0  0  0  0
  -27.2667  -33.3632   26.2018 H   0  0  0  0  0  0
  -28.3902  -32.6853   25.0328 H   0  0  0  0  0  0
  -28.0723  -31.8473   26.5437 H   0  0  0  0  0  0
  -28.2551  -38.0116   24.7567 H   0  0  0  0  0  0
  -28.1126  -36.2645   24.6193 H   0  0  0  0  0  0
  -27.2315  -37.1307   25.8863 H   0  0  0  0  0  0
  -20.9494  -29.8769   21.6766 H   0  0  0  0  0  0
  -26.0132  -38.2799   24.1466 H   0  0  0  0  0  0
  -28.0701  -18.5647   20.5561 H   0  0  0  0  0  0
  -32.7087  -20.0387   20.0896 H   0  0  0  0  0  0
  -27.7031  -21.4410   21.2098 H   0  0  0  0  0  0
  -29.2200  -23.3201   21.4203 H   0  0  0  0  0  0
  -27.9160  -21.5165   18.1800 H   0  0  0  0  0  0
  -26.5914  -22.1917   19.1295 H   0  0  0  0  0  0
  -26.8770  -20.4586   19.1298 H   0  0  0  0  0  0
  -32.7739  -22.1770   21.2949 H   0  0  0  0  0  0
  -31.2550  -22.6385   22.0314 H   0  0  0  0  0  0
  -32.1133  -23.7752   20.9937 H   0  0  0  0  0  0
  -32.9246  -21.7522   18.7283 H   0  0  0  0  0  0
  -32.2743  -23.3564   18.4714 H   0  0  0  0  0  0
  -31.4783  -21.9670   17.7508 H   0  0  0  0  0  0
  -33.8148  -18.2727   19.0186 H   0  0  0  0  0  0
  -34.4679  -16.9582   19.9769 H   0  0  0  0  0  0
  -34.2379  -18.5296   20.7296 H   0  0  0  0  0  0
  -27.0163  -24.3988   20.5524 H   0  0  0  0  0  0
  -27.7071  -24.4653   18.9694 H   0  0  0  0  0  0
  -28.8621  -16.0245   20.7167 H   0  0  0  0  0  0
  1 25  1  0  0  0
  1 30  2  0  0  0
  1 85  1  0  0  0
  2  3  1  0  0  0
  2 25  1  0  0  0
  2 88  1  0  0  0
  2 89  1  0  0  0
  3  4  1  0  0  0
  3 90  1  0  0  0
  3 91  1  0  0  0
  4  5  1  0  0  0
  4 92  1  0  0  0
  4 93  1  0  0  0
  5  6  1  0  0  0
  5 26  1  0  0  0
  5 94  1  0  0  0
  6 25  1  0  0  0
  6 95  1  0  0  0
  6 96  1  0  0  0
  7  8  2  0  0  0
  7 26  1  0  0  0
  7 29  1  0  0  0
  8  9  1  0  0  0
  8 22  1  0  0  0
  9 10  1  0  0  0
  9 27  2  0  0  0
 10 11  2  0  0  0
 10 15  1  0  0  0
 11 12  1  0  0  0
 11 97  1  0  0  0
 12 13  2  0  0  0
 12 98  1  0  0  0
 13 14  1  0  0  0
 13 31  1  0  0  0
 14 15  2  0  0  0
 14 99  1  0  0  0
 15100  1  0  0  0
 16 17  2  0  0  0
 16 21  1  0  0  0
 16 31  1  0  0  0
 17 18  1  0  0  0
 17101  1  0  0  0
 18 19  2  0  0  0
 18102  1  0  0  0
 19 20  1  0  0  0
 19 24  1  0  0  0
 20 21  2  0  0  0
 20103  1  0  0  0
 21 23  1  0  0  0
 22 28  1  0  0  0
 22 32  2  0  0  0
 26 27  1  0  0  0
 28104  1  0  0  0
 28105  1  0  0  0
 29106  1  0  0  0
 29107  1  0  0  0
 33 34  1  0  0  0
 33 66  1  0  0  0
 33 70  2  0  0  0
 34 36  1  0  0  0
 34 59  1  0  0  0
 34108  1  0  0  0
 35 44  2  0  0  0
 35 45  1  0  0  0
 35 68  1  0  0  0
 36 56  1  0  0  0
 36109  1  0  0  0
 37 39  1  0  0  0
 37 47  1  0  0  0
 37 66  1  0  0  0
 37110  1  0  0  0
 38 43  2  0  0  0
 38 46  1  0  0  0
 38 47  1  0  0  0
 39 64  1  0  0  0
 39 67  2  0  0  0
 40 52  1  0  0  0
 40 53  2  0  0  0
 40 58  1  0  0  0
 41111  1  0  0  0
 41112  1  0  0  0
 41113  1  0  0  0
 41 48  1  0  0  0
 42 43  1  0  0  0
 42 66  1  0  0  0
 42114  1  0  0  0
 42115  1  0  0  0
 43 44  1  0  0  0
 44116  1  0  0  0
 45 46  2  0  0  0
 45117  1  0  0  0
 46118  1  0  0  0
 47119  1  0  0  0
 47120  1  0  0  0
 48 56  1  0  0  0
 48 65  1  0  0  0
 48121  1  0  0  0
 49 50  1  0  0  0
 49 53  1  0  0  0
 49 64  1  0  0  0
 49122  1  0  0  0
 50 51  1  0  0  0
 50123  1  0  0  0
 50124  1  0  0  0
 51 52  1  0  0  0
 51125  1  0  0  0
 51126  1  0  0  0
 52127  1  0  0  0
 52128  1  0  0  0
 53 54  1  0  0  0
 54 55  2  0  0  0
 54129  1  0  0  0
 55 57  1  0  0  0
 55130  1  0  0  0
 56 69  2  0  0  0
 57 58  2  0  0  0
 57131  1  0  0  0
 58132  1  0  0  0
 59 60  1  0  0  0
 59 61  1  0  0  0
 59 62  1  0  0  0
 60133  1  0  0  0
 60134  1  0  0  0
 60135  1  0  0  0
 61136  1  0  0  0
 61137  1  0  0  0
 61138  1  0  0  0
 62139  1  0  0  0
 62140  1  0  0  0
 62141  1  0  0  0
 63 65  1  0  0  0
 63142  1  0  0  0
 63143  1  0  0  0
 63144  1  0  0  0
 64145  1  0  0  0
 65146  1  0  0  0
 68 84  1  0  0  0
 71 73  2  0  0  0
 71 75  1  0  0  0
 71147  1  0  0  0
 72 74  2  0  0  0
 72 76  1  0  0  0
 72148  1  0  0  0
 73 74  1  0  0  0
 73 77  1  0  0  0
 74 79  1  0  0  0
 75 76  2  0  0  0
 75 85  1  0  0  0
 76 87  1  0  0  0
 77 78  1  0  0  0
 77 80  1  0  0  0
 77149  1  0  0  0
 78 84  1  0  0  0
 78 86  1  0  0  0
 78150  1  0  0  0
 79 81  1  0  0  0
 79 82  1  0  0  0
 79 86  1  0  0  0
 80151  1  0  0  0
 80152  1  0  0  0
 80153  1  0  0  0
 81154  1  0  0  0
 81155  1  0  0  0
 81156  1  0  0  0
 82157  1  0  0  0
 82158  1  0  0  0
 82159  1  0  0  0
 83 87  1  0  0  0
 83160  1  0  0  0
 83161  1  0  0  0
 83162  1  0  0  0
 84163  1  0  0  0
 84164  1  0  0  0
 85165  1  0  0  0
M  ISO  4   1 100  68 101  84 101  85 100
M  END
> <chiral flag>
0

> <version>
0

> <s_m_source_file>
/data/baiqing/PycharmProjects/Reinvent-master-3.2/result/LINK_invent/BTK/process_docking_weight1_custom_sum_contain_oxygen_bond_distance_aromatic_linkinvent_7_9_3/rearranged_h_0154.sdf

> <i_m_source_file_index>
29

> <r_mmod_Potential_Energy-OPLS-2005>
538.798950195312

> <r_mmod_Stretch_Energy-OPLS-2005>
298.100341796875

> <r_mmod_Bend_Energy-OPLS-2005>
283.072204589844

> <r_mmod_Torsional_Energy-OPLS-2005>
223.665069580078

> <r_mmod_Improper_Torsional_Energy-OPLS-2005>
4.29683446884155

> <r_mmod_Van_der_Waal_Energy-OPLS-2005>
149.735092163086

> <r_mmod_Electrostatic_Energy-OPLS-2005>
-414.676971435547

> <r_mmod_Solvation_Energy-OPLS-2005>
-225.173980712891

> <b_mmod_Minimization_Converged-OPLS-2005>
0

> <r_mmod_RMS_Derivative-OPLS-2005>
1.59566283226013

$$$$
30
                    3D
 Structure written by MMmdl.
166175  0  0  1  0            999 V2000
  -30.4059  -15.3448   20.3575 C   0  0  0  0  0  0
  -30.4372  -12.8624   19.5425 C   0  0  0  0  0  0
  -29.5420  -12.5988   18.3034 C   0  0  0  0  0  0
  -28.0943  -12.3050   18.7296 C   0  0  0  0  0  0
  -27.6105  -13.2842   19.8268 C   0  0  2  0  0  0
  -28.6379  -13.4885   20.9626 C   0  0  0  0  0  0
  -25.2377  -13.8264   20.5759 C   0  0  0  0  0  0
  -24.1738  -13.0441   20.9262 C   0  0  0  0  0  0
  -24.6406  -11.6942   20.8764 C   0  0  0  0  0  0
  -23.9104  -10.4295   21.0404 C   0  0  0  0  0  0
  -24.3644   -9.4207   21.9186 C   0  0  0  0  0  0
  -23.6307   -8.2248   22.0757 C   0  0  0  0  0  0
  -22.4289   -8.0289   21.3546 C   0  0  0  0  0  0
  -21.9933   -9.0265   20.4647 C   0  0  0  0  0  0
  -22.7272  -10.2138   20.3054 C   0  0  0  0  0  0
  -21.6858   -6.0740   22.5279 C   0  0  0  0  0  0
  -21.4017   -6.5644   23.8213 C   0  0  0  0  0  0
  -21.3658   -5.6794   24.9174 C   0  0  0  0  0  0
  -21.6043   -4.3056   24.7226 C   0  0  0  0  0  0
  -21.8818   -3.8149   23.4346 C   0  0  0  0  0  0
  -21.9195   -4.6966   22.3401 C   0  0  0  0  0  0
  -22.7754  -13.5188   21.1903 C   0  0  0  0  0  0
  -22.1663   -4.2151   21.0978 F   0  0  0  0  0  0
  -21.5627   -3.4539   25.7739 F   0  0  0  0  0  0
  -29.8633  -14.0181   20.3389 N   0  0  0  0  0  0
  -26.2815  -12.9556   20.3239 N   0  0  0  0  0  0
  -25.9348  -11.6651   20.5726 N   0  0  0  0  0  0
  -22.0411  -12.8169   22.0452 N   0  0  0  0  0  0
  -25.3999  -15.2000   20.4196 N   0  0  0  0  0  0
  -31.6202  -15.3383   20.1019 O   0  0  0  0  0  0
  -21.6648   -6.8888   21.4243 O   0  0  0  0  0  0
  -22.3435  -14.5490   20.6741 O   0  0  0  0  0  0
  -24.6682  -31.8169   23.1658 C   0  0  0  0  0  0
  -25.9337  -32.4555   23.8140 C   0  0  1  0  0  0
  -27.2195  -26.8703   20.1914 C   0  0  0  0  0  0
  -25.5980  -33.8371   24.2038 N   0  0  0  0  0  0
  -23.4864  -30.4259   21.5153 C   0  0  2  0  0  0
  -24.9420  -28.8036   20.1074 C   0  0  0  0  0  0
  -22.7693  -29.4402   22.4755 C   0  0  0  0  0  0
  -18.0330  -28.1409   22.8470 C   0  0  0  0  0  0
  -24.1492  -36.7187   23.2650 C   0  0  0  0  0  0
  -26.0577  -30.6044   21.4057 C   0  0  0  0  0  0
  -26.1240  -29.1880   20.7514 C   0  0  0  0  0  0
  -27.2519  -28.2416   20.7721 C   0  0  0  0  0  0
  -26.0136  -26.6583   19.4833 C   0  0  0  0  0  0
  -24.9162  -27.5617   19.4508 C   0  0  0  0  0  0
  -23.7296  -29.7373   20.1427 C   0  0  0  0  0  0
  -25.4135  -36.2944   24.0297 C   0  0  1  0  0  0
  -20.5957  -28.3757   23.1177 C   0  0  2  0  0  0
  -20.6800  -26.9432   22.5402 C   0  0  0  0  0  0
  -19.5774  -26.6377   21.5213 C   0  0  0  0  0  0
  -18.1957  -26.7945   22.1618 C   0  0  0  0  0  0
  -19.1593  -28.8903   23.2809 C   0  0  0  0  0  0
  -18.9503  -30.1491   23.8848 C   0  0  0  0  0  0
  -17.6496  -30.6596   24.0557 C   0  0  0  0  0  0
  -25.9106  -34.9331   23.4994 C   0  0  0  0  0  0
  -16.5384  -29.9083   23.6347 C   0  0  0  0  0  0
  -16.7313  -28.6502   23.0370 C   0  0  0  0  0  0
  -26.4570  -31.6526   25.0697 C   0  0  0  0  0  0
  -25.3674  -31.3788   26.1335 C   0  0  0  0  0  0
  -27.0480  -30.2889   24.6467 C   0  0  0  0  0  0
  -27.6051  -32.4352   25.7498 C   0  0  0  0  0  0
  -27.5564  -37.1746   24.8469 C   0  0  0  0  0  0
  -21.4355  -29.3036   22.3512 N   0  0  0  0  0  0
  -26.4274  -37.3688   23.9412 N   0  0  0  0  0  0
  -24.7591  -30.9782   22.0820 N   0  0  0  0  0  0
  -23.4213  -28.7976   23.3020 O   0  0  0  0  0  0
  -28.1976  -25.7296   20.3249 O   0  0  0  0  0  0
  -26.5731  -34.8881   22.4600 O   0  0  0  0  0  0
  -23.5742  -32.1155   23.6727 O   0  0  0  0  0  0
  -28.9099  -21.1493   20.0196 C   0  0  0  0  0  0
  -29.2666  -19.8282   20.7351 C   0  0  0  0  0  0
  -28.6148  -22.5694   20.6024 C   0  0  0  0  0  0
  -29.2979  -20.0276   22.1382 C   0  0  0  0  0  0
  -28.7115  -22.5105   22.0209 C   0  0  0  0  0  0
  -29.0973  -21.3209   22.7401 C   0  0  0  0  0  0
  -28.8401  -20.9609   18.5119 C   0  0  0  0  0  0
  -29.6205  -18.4454   18.5324 C   0  0  0  0  0  0
  -29.7829  -18.2784   20.0656 C   0  0  2  0  0  0
  -28.5562  -19.4888   18.0694 C   0  0  2  0  0  0
  -29.5769  -18.8089   23.0163 C   0  0  0  0  0  0
  -28.3484  -23.7753   22.8031 C   0  0  0  0  0  0
  -29.3365  -21.4447   24.2487 C   0  0  0  0  0  0
  -28.3790  -19.4225   16.5444 C   0  0  0  0  0  0
  -28.0679  -24.1119   19.8948 C   0  0  0  0  0  0
  -29.6348  -16.6301   20.4625 N   0  0  0  0  0  0
  -31.4531  -13.0734   19.2064 H   0  0  0  0  0  0
  -30.5198  -11.9662   20.1599 H   0  0  0  0  0  0
  -29.9377  -11.7697   17.7152 H   0  0  0  0  0  0
  -29.5599  -13.4744   17.6528 H   0  0  0  0  0  0
  -28.0632  -11.2841   19.1121 H   0  0  0  0  0  0
  -27.4271  -12.3314   17.8673 H   0  0  0  0  0  0
  -27.5174  -14.2443   19.3180 H   0  0  0  0  0  0
  -28.8211  -12.5633   21.5113 H   0  0  0  0  0  0
  -28.2608  -14.2106   21.6886 H   0  0  0  0  0  0
  -25.2783   -9.5685   22.4770 H   0  0  0  0  0  0
  -24.0010   -7.4642   22.7481 H   0  0  0  0  0  0
  -21.0863   -8.8792   19.8954 H   0  0  0  0  0  0
  -22.3732  -10.9681   19.6168 H   0  0  0  0  0  0
  -21.2010   -7.6152   23.9717 H   0  0  0  0  0  0
  -21.1479   -6.0524   25.9077 H   0  0  0  0  0  0
  -22.0597   -2.7612   23.2847 H   0  0  0  0  0  0
  -22.4043  -11.9839   22.4842 H   0  0  0  0  0  0
  -21.1022  -13.1177   22.2650 H   0  0  0  0  0  0
  -24.6266  -15.8468   20.5304 H   0  0  0  0  0  0
  -26.2349  -15.6418   20.0589 H   0  0  0  0  0  0
  -26.7409  -32.5076   23.0854 H   0  0  0  0  0  0
  -25.0072  -33.9436   25.0154 H   0  0  0  0  0  0
  -22.8031  -31.2595   21.3404 H   0  0  0  0  0  0
  -23.3770  -35.9501   23.3280 H   0  0  0  0  0  0
  -24.3565  -36.8875   22.2070 H   0  0  0  0  0  0
  -23.7233  -37.6356   23.6736 H   0  0  0  0  0  0
  -26.2453  -31.3420   20.6242 H   0  0  0  0  0  0
  -26.9155  -30.6633   22.0635 H   0  0  0  0  0  0
  -28.1396  -28.5308   21.3169 H   0  0  0  0  0  0
  -25.8737  -25.7132   18.9807 H   0  0  0  0  0  0
  -24.0215  -27.2626   18.9217 H   0  0  0  0  0  0
  -23.8887  -30.5046   19.3840 H   0  0  0  0  0  0
  -22.8378  -29.1938   19.8253 H   0  0  0  0  0  0
  -25.1332  -36.1732   25.0786 H   0  0  0  0  0  0
  -21.0051  -28.3378   24.1298 H   0  0  0  0  0  0
  -20.5677  -26.2376   23.3648 H   0  0  0  0  0  0
  -21.6661  -26.7399   22.1206 H   0  0  0  0  0  0
  -19.6931  -25.6275   21.1274 H   0  0  0  0  0  0
  -19.6717  -27.3162   20.6723 H   0  0  0  0  0  0
  -17.4226  -26.6709   21.4018 H   0  0  0  0  0  0
  -18.0338  -26.0088   22.9013 H   0  0  0  0  0  0
  -19.7980  -30.7320   24.2195 H   0  0  0  0  0  0
  -17.5048  -31.6273   24.5164 H   0  0  0  0  0  0
  -15.5384  -30.2969   23.7694 H   0  0  0  0  0  0
  -15.8716  -28.0802   22.7114 H   0  0  0  0  0  0
  -24.5905  -30.7088   25.7634 H   0  0  0  0  0  0
  -24.8805  -32.2984   26.4587 H   0  0  0  0  0  0
  -25.7885  -30.9074   27.0225 H   0  0  0  0  0  0
  -26.3164  -29.6544   24.1454 H   0  0  0  0  0  0
  -27.3976  -29.7281   25.5144 H   0  0  0  0  0  0
  -27.9113  -30.4061   23.9918 H   0  0  0  0  0  0
  -27.2629  -33.3730   26.1887 H   0  0  0  0  0  0
  -28.3950  -32.6784   25.0380 H   0  0  0  0  0  0
  -28.0613  -31.8598   26.5565 H   0  0  0  0  0  0
  -28.2553  -38.0068   24.7520 H   0  0  0  0  0  0
  -28.1090  -36.2592   24.6293 H   0  0  0  0  0  0
  -27.2281  -37.1380   25.8872 H   0  0  0  0  0  0
  -20.9620  -29.8718   21.6627 H   0  0  0  0  0  0
  -26.0119  -38.2742   24.1433 H   0  0  0  0  0  0
  -29.7776  -21.3098   18.0769 H   0  0  0  0  0  0
  -28.0584  -21.6154   18.1242 H   0  0  0  0  0  0
  -29.4129  -17.4764   18.0771 H   0  0  0  0  0  0
  -30.5818  -18.7530   18.1172 H   0  0  0  0  0  0
  -30.8567  -18.3738   20.2363 H   0  0  0  0  0  0
  -27.6009  -19.1931   18.5072 H   0  0  0  0  0  0
  -29.0905  -17.9212   22.6205 H   0  0  0  0  0  0
  -29.1736  -18.9014   24.0234 H   0  0  0  0  0  0
  -30.6481  -18.6179   23.0859 H   0  0  0  0  0  0
  -27.5137  -24.3087   22.3519 H   0  0  0  0  0  0
  -29.2010  -24.4524   22.8591 H   0  0  0  0  0  0
  -28.0023  -23.5698   23.8143 H   0  0  0  0  0  0
  -30.1165  -20.7707   24.6004 H   0  0  0  0  0  0
  -28.4210  -21.2386   24.8040 H   0  0  0  0  0  0
  -29.7036  -22.4296   24.5344 H   0  0  0  0  0  0
  -29.2949  -19.7075   16.0254 H   0  0  0  0  0  0
  -27.5859  -20.0919   16.2095 H   0  0  0  0  0  0
  -28.1135  -18.4157   16.2198 H   0  0  0  0  0  0
  -26.9969  -23.9490   19.7822 H   0  0  0  0  0  0
  -28.4465  -24.0841   18.8731 H   0  0  0  0  0  0
  -28.6831  -16.4217   20.7255 H   0  0  0  0  0  0
  1 25  1  0  0  0
  1 30  2  0  0  0
  1 86  1  0  0  0
  2  3  1  0  0  0
  2 25  1  0  0  0
  2 87  1  0  0  0
  2 88  1  0  0  0
  3  4  1  0  0  0
  3 89  1  0  0  0
  3 90  1  0  0  0
  4  5  1  0  0  0
  4 91  1  0  0  0
  4 92  1  0  0  0
  5  6  1  0  0  0
  5 26  1  0  0  0
  5 93  1  0  0  0
  6 25  1  0  0  0
  6 94  1  0  0  0
  6 95  1  0  0  0
  7  8  2  0  0  0
  7 26  1  0  0  0
  7 29  1  0  0  0
  8  9  1  0  0  0
  8 22  1  0  0  0
  9 10  1  0  0  0
  9 27  2  0  0  0
 10 11  2  0  0  0
 10 15  1  0  0  0
 11 12  1  0  0  0
 11 96  1  0  0  0
 12 13  2  0  0  0
 12 97  1  0  0  0
 13 14  1  0  0  0
 13 31  1  0  0  0
 14 15  2  0  0  0
 14 98  1  0  0  0
 15 99  1  0  0  0
 16 17  2  0  0  0
 16 21  1  0  0  0
 16 31  1  0  0  0
 17 18  1  0  0  0
 17100  1  0  0  0
 18 19  2  0  0  0
 18101  1  0  0  0
 19 20  1  0  0  0
 19 24  1  0  0  0
 20 21  2  0  0  0
 20102  1  0  0  0
 21 23  1  0  0  0
 22 28  1  0  0  0
 22 32  2  0  0  0
 26 27  1  0  0  0
 28103  1  0  0  0
 28104  1  0  0  0
 29105  1  0  0  0
 29106  1  0  0  0
 33 34  1  0  0  0
 33 66  1  0  0  0
 33 70  2  0  0  0
 34 36  1  0  0  0
 34 59  1  0  0  0
 34107  1  0  0  0
 35 44  2  0  0  0
 35 45  1  0  0  0
 35 68  1  0  0  0
 36 56  1  0  0  0
 36108  1  0  0  0
 37 39  1  0  0  0
 37 47  1  0  0  0
 37 66  1  0  0  0
 37109  1  0  0  0
 38 43  2  0  0  0
 38 46  1  0  0  0
 38 47  1  0  0  0
 39 64  1  0  0  0
 39 67  2  0  0  0
 40 52  1  0  0  0
 40 53  2  0  0  0
 40 58  1  0  0  0
 41110  1  0  0  0
 41111  1  0  0  0
 41112  1  0  0  0
 41 48  1  0  0  0
 42 43  1  0  0  0
 42 66  1  0  0  0
 42113  1  0  0  0
 42114  1  0  0  0
 43 44  1  0  0  0
 44115  1  0  0  0
 45 46  2  0  0  0
 45116  1  0  0  0
 46117  1  0  0  0
 47118  1  0  0  0
 47119  1  0  0  0
 48 56  1  0  0  0
 48 65  1  0  0  0
 48120  1  0  0  0
 49 50  1  0  0  0
 49 53  1  0  0  0
 49 64  1  0  0  0
 49121  1  0  0  0
 50 51  1  0  0  0
 50122  1  0  0  0
 50123  1  0  0  0
 51 52  1  0  0  0
 51124  1  0  0  0
 51125  1  0  0  0
 52126  1  0  0  0
 52127  1  0  0  0
 53 54  1  0  0  0
 54 55  2  0  0  0
 54128  1  0  0  0
 55 57  1  0  0  0
 55129  1  0  0  0
 56 69  2  0  0  0
 57 58  2  0  0  0
 57130  1  0  0  0
 58131  1  0  0  0
 59 60  1  0  0  0
 59 61  1  0  0  0
 59 62  1  0  0  0
 60132  1  0  0  0
 60133  1  0  0  0
 60134  1  0  0  0
 61135  1  0  0  0
 61136  1  0  0  0
 61137  1  0  0  0
 62138  1  0  0  0
 62139  1  0  0  0
 62140  1  0  0  0
 63 65  1  0  0  0
 63141  1  0  0  0
 63142  1  0  0  0
 63143  1  0  0  0
 64144  1  0  0  0
 65145  1  0  0  0
 68 85  1  0  0  0
 71 72  1  0  0  0
 71 73  2  0  0  0
 71 77  1  0  0  0
 72 74  2  0  0  0
 72 79  1  0  0  0
 73 75  1  0  0  0
 73 85  1  0  0  0
 74 76  1  0  0  0
 74 81  1  0  0  0
 75 76  2  0  0  0
 75 82  1  0  0  0
 76 83  1  0  0  0
 77 80  1  0  0  0
 77146  1  0  0  0
 77147  1  0  0  0
 78 79  1  0  0  0
 78 80  1  0  0  0
 78148  1  0  0  0
 78149  1  0  0  0
 79 86  1  0  0  0
 79150  1  0  0  0
 80 84  1  0  0  0
 80151  1  0  0  0
 81152  1  0  0  0
 81153  1  0  0  0
 81154  1  0  0  0
 82155  1  0  0  0
 82156  1  0  0  0
 82157  1  0  0  0
 83158  1  0  0  0
 83159  1  0  0  0
 83160  1  0  0  0
 84161  1  0  0  0
 84162  1  0  0  0
 84163  1  0  0  0
 85164  1  0  0  0
 85165  1  0  0  0
 86166  1  0  0  0
M  ISO  4   1 100  68 101  85 101  86 100
M  END
> <chiral flag>
0

> <version>
0

> <s_m_source_file>
/data/baiqing/PycharmProjects/Reinvent-master-3.2/result/LINK_invent/BTK/process_docking_weight1_custom_sum_contain_oxygen_bond_distance_aromatic_linkinvent_7_9_3/rearranged_h_0154.sdf

> <i_m_source_file_index>
30

> <r_mmod_Potential_Energy-OPLS-2005>
1444.412109375

> <r_mmod_Stretch_Energy-OPLS-2005>
666.308410644531

> <r_mmod_Bend_Energy-OPLS-2005>
448.447662353516

> <r_mmod_Torsional_Energy-OPLS-2005>
227.359527587891

> <r_mmod_Improper_Torsional_Energy-OPLS-2005>
5.61804866790771

> <r_mmod_Van_der_Waal_Energy-OPLS-2005>
146.678482055664

> <r_mmod_Electrostatic_Energy-OPLS-2005>
-396.147430419922

> <r_mmod_Solvation_Energy-OPLS-2005>
-204.382080078125

> <b_mmod_Minimization_Converged-OPLS-2005>
0

> <r_mmod_RMS_Derivative-OPLS-2005>
0.695245146751404

$$$$
31
                    3D
 Structure written by MMmdl.
166175  0  0  1  0            999 V2000
  -30.6929  -14.7737   20.4565 C   0  0  0  0  0  0
  -30.4064  -12.4872   19.4731 C   0  0  0  0  0  0
  -29.4884  -12.4806   18.2360 C   0  0  0  0  0  0
  -28.0260  -12.2757   18.6640 C   0  0  0  0  0  0
  -27.6208  -13.2157   19.8291 C   0  0  2  0  0  0
  -28.6728  -13.2507   20.9634 C   0  0  0  0  0  0
  -25.2434  -13.8150   20.5629 C   0  0  0  0  0  0
  -24.1748  -13.0420   20.9211 C   0  0  0  0  0  0
  -24.6354  -11.6896   20.8797 C   0  0  0  0  0  0
  -23.9056  -10.4270   21.0426 C   0  0  0  0  0  0
  -24.3622   -9.4171   21.9179 C   0  0  0  0  0  0
  -23.6280   -8.2217   22.0775 C   0  0  0  0  0  0
  -22.4262   -8.0276   21.3563 C   0  0  0  0  0  0
  -21.9903   -9.0252   20.4667 C   0  0  0  0  0  0
  -22.7248  -10.2114   20.3048 C   0  0  0  0  0  0
  -21.6857   -6.0737   22.5271 C   0  0  0  0  0  0
  -21.4016   -6.5634   23.8204 C   0  0  0  0  0  0
  -21.3659   -5.6784   24.9163 C   0  0  0  0  0  0
  -21.6034   -4.3046   24.7217 C   0  0  0  0  0  0
  -21.8829   -3.8138   23.4337 C   0  0  0  0  0  0
  -21.9192   -4.6962   22.3390 C   0  0  0  0  0  0
  -22.7771  -13.5210   21.1842 C   0  0  0  0  0  0
  -22.1651   -4.2142   21.0973 F   0  0  0  0  0  0
  -21.5632   -3.4537   25.7732 F   0  0  0  0  0  0
  -29.9635  -13.5990   20.3577 N   0  0  0  0  0  0
  -26.2831  -12.9313   20.3240 N   0  0  0  0  0  0
  -25.9283  -11.6492   20.5855 N   0  0  0  0  0  0
  -22.0444  -12.8200   22.0433 N   0  0  0  0  0  0
  -25.4066  -15.1876   20.3880 N   0  0  0  0  0  0
  -31.8933  -14.7124   20.1785 O   0  0  0  0  0  0
  -21.6639   -6.8874   21.4235 O   0  0  0  0  0  0
  -22.3448  -14.5505   20.6670 O   0  0  0  0  0  0
  -24.6292  -31.8586   23.1975 C   0  0  0  0  0  0
  -25.9123  -32.4766   23.8340 C   0  0  1  0  0  0
  -27.2143  -27.2823   20.1308 C   0  0  0  0  0  0
  -25.5937  -33.8567   24.2283 N   0  0  0  0  0  0
  -23.4278  -30.4818   21.5385 C   0  0  2  0  0  0
  -24.8789  -28.9375   20.0950 C   0  0  0  0  0  0
  -22.7454  -29.4665   22.4871 C   0  0  0  0  0  0
  -18.0296  -28.1441   22.8526 C   0  0  0  0  0  0
  -24.1488  -36.7294   23.2637 C   0  0  0  0  0  0
  -25.9714  -30.7721   21.3818 C   0  0  0  0  0  0
  -26.0470  -29.3988   20.7210 C   0  0  0  0  0  0
  -27.2222  -28.5822   20.7334 C   0  0  0  0  0  0
  -26.0473  -26.9026   19.4374 C   0  0  0  0  0  0
  -24.8861  -27.7004   19.4346 C   0  0  0  0  0  0
  -23.6396  -29.8116   20.1554 C   0  0  0  0  0  0
  -25.4120  -36.3095   24.0330 C   0  0  1  0  0  0
  -20.5895  -28.3738   23.1177 C   0  0  2  0  0  0
  -20.6784  -26.9414   22.5385 C   0  0  0  0  0  0
  -19.5675  -26.6248   21.5323 C   0  0  0  0  0  0
  -18.1952  -26.7879   22.1848 C   0  0  0  0  0  0
  -19.1580  -28.8932   23.2786 C   0  0  0  0  0  0
  -18.9547  -30.1604   23.8699 C   0  0  0  0  0  0
  -17.6559  -30.6726   24.0414 C   0  0  0  0  0  0
  -25.9065  -34.9452   23.5126 C   0  0  0  0  0  0
  -16.5410  -29.9229   23.6245 C   0  0  0  0  0  0
  -16.7310  -28.6591   23.0360 C   0  0  0  0  0  0
  -26.4496  -31.6587   25.0721 C   0  0  0  0  0  0
  -25.3705  -31.3719   26.1427 C   0  0  0  0  0  0
  -27.0337  -30.2998   24.6199 C   0  0  0  0  0  0
  -27.6058  -32.4311   25.7503 C   0  0  0  0  0  0
  -27.5583  -37.1797   24.8472 C   0  0  0  0  0  0
  -21.4190  -29.3034   22.3492 N   0  0  0  0  0  0
  -26.4307  -37.3773   23.9407 N   0  0  0  0  0  0
  -24.6945  -31.0535   22.0957 N   0  0  0  0  0  0
  -23.4110  -28.8280   23.3070 O   0  0  0  0  0  0
  -28.2372  -26.3156   20.2149 O   0  0  0  0  0  0
  -26.5624  -34.8918   22.4668 O   0  0  0  0  0  0
  -23.5451  -32.1427   23.7289 O   0  0  0  0  0  0
  -28.9330  -21.4852   19.8003 C   0  0  0  0  0  0
  -28.8151  -22.9171   22.1568 C   0  0  0  0  0  0
  -29.1124  -20.7187   20.9971 C   0  0  0  0  0  0
  -28.6799  -22.9129   19.7784 C   0  0  0  0  0  0
  -29.0704  -21.5127   22.1876 C   0  0  0  0  0  0
  -28.5761  -23.6803   20.9821 C   0  0  0  0  0  0
  -28.5623  -18.1282   20.1666 C   0  0  0  0  0  0
  -30.7975  -18.6199   20.9144 C   0  0  0  0  0  0
  -28.7780  -16.5666   20.4597 C   0  0  0  0  0  0
  -31.0306  -17.1146   21.3416 C   0  0  0  0  0  0
  -29.3476  -19.1219   21.0759 C   0  0  0  0  0  0
  -28.5088  -23.6068   18.4393 C   0  0  0  0  0  0
  -29.2388  -20.8875   23.5636 C   0  0  0  0  0  0
  -26.6218  -25.0822   21.7924 C   0  0  0  0  0  0
  -28.0510  -25.1869   21.1946 C   0  0  2  0  0  0
  -30.1453  -16.0373   20.7723 N   0  0  0  0  0  0
  -31.4433  -12.5789   19.1485 H   0  0  0  0  0  0
  -30.3499  -11.5374   20.0082 H   0  0  0  0  0  0
  -29.7872  -11.6893   17.5450 H   0  0  0  0  0  0
  -29.5877  -13.4228   17.6936 H   0  0  0  0  0  0
  -27.9129  -11.2353   18.9706 H   0  0  0  0  0  0
  -27.3581  -12.4181   17.8140 H   0  0  0  0  0  0
  -27.5644  -14.1949   19.3696 H   0  0  0  0  0  0
  -28.3931  -13.9785   21.7265 H   0  0  0  0  0  0
  -28.7314  -12.2848   21.4673 H   0  0  0  0  0  0
  -25.2799   -9.5631   22.4721 H   0  0  0  0  0  0
  -24.0010   -7.4606   22.7489 H   0  0  0  0  0  0
  -21.0847   -8.8768   19.8958 H   0  0  0  0  0  0
  -22.3746  -10.9646   19.6119 H   0  0  0  0  0  0
  -21.2013   -7.6144   23.9709 H   0  0  0  0  0  0
  -21.1468   -6.0509   25.9065 H   0  0  0  0  0  0
  -22.0611   -2.7604   23.2836 H   0  0  0  0  0  0
  -22.4151  -11.9903   22.4827 H   0  0  0  0  0  0
  -21.1041  -13.1164   22.2676 H   0  0  0  0  0  0
  -24.6153  -15.8207   20.4343 H   0  0  0  0  0  0
  -26.2302  -15.6150   19.9878 H   0  0  0  0  0  0
  -26.7183  -32.5427   23.1088 H   0  0  0  0  0  0
  -25.0060  -33.9712   25.0419 H   0  0  0  0  0  0
  -22.7300  -31.3067   21.3924 H   0  0  0  0  0  0
  -23.3745  -35.9631   23.3326 H   0  0  0  0  0  0
  -24.3568  -36.8863   22.2037 H   0  0  0  0  0  0
  -23.7232  -37.6501   23.6643 H   0  0  0  0  0  0
  -26.1152  -31.5323   20.6140 H   0  0  0  0  0  0
  -26.8487  -30.8202   22.0146 H   0  0  0  0  0  0
  -28.1137  -28.9222   21.2452 H   0  0  0  0  0  0
  -26.0198  -25.9419   18.9383 H   0  0  0  0  0  0
  -24.0004  -27.3505   18.9217 H   0  0  0  0  0  0
  -23.7400  -30.5854   19.3923 H   0  0  0  0  0  0
  -22.7606  -29.2252   19.8731 H   0  0  0  0  0  0
  -25.1301  -36.1958   25.0816 H   0  0  0  0  0  0
  -20.9972  -28.3330   24.1276 H   0  0  0  0  0  0
  -20.5804  -26.2396   23.3681 H   0  0  0  0  0  0
  -21.6604  -26.7472   22.1035 H   0  0  0  0  0  0
  -19.6765  -25.6091   21.1472 H   0  0  0  0  0  0
  -19.6493  -27.2938   20.6758 H   0  0  0  0  0  0
  -17.4143  -26.6451   21.4371 H   0  0  0  0  0  0
  -18.0419  -26.0161   22.9409 H   0  0  0  0  0  0
  -19.8070  -30.7483   24.1865 H   0  0  0  0  0  0
  -17.5218  -31.6434   24.4982 H   0  0  0  0  0  0
  -15.5423  -30.3147   23.7645 H   0  0  0  0  0  0
  -15.8703  -28.0866   22.7161 H   0  0  0  0  0  0
  -24.5918  -30.7042   25.7732 H   0  0  0  0  0  0
  -24.8853  -32.2869   26.4831 H   0  0  0  0  0  0
  -25.8007  -30.8902   27.0219 H   0  0  0  0  0  0
  -26.2913  -29.6735   24.1233 H   0  0  0  0  0  0
  -27.4024  -29.7281   25.4732 H   0  0  0  0  0  0
  -27.8817  -30.4265   23.9460 H   0  0  0  0  0  0
  -27.2690  -33.3626   26.2079 H   0  0  0  0  0  0
  -28.3889  -32.6817   25.0333 H   0  0  0  0  0  0
  -28.0733  -31.8416   26.5404 H   0  0  0  0  0  0
  -28.2634  -38.0067   24.7518 H   0  0  0  0  0  0
  -28.1063  -36.2595   24.6352 H   0  0  0  0  0  0
  -27.2311  -37.1518   25.8880 H   0  0  0  0  0  0
  -20.9395  -29.8520   21.6485 H   0  0  0  0  0  0
  -26.0210  -38.2872   24.1318 H   0  0  0  0  0  0
  -28.9702  -20.9615   18.8563 H   0  0  0  0  0  0
  -28.7490  -23.4337   23.1055 H   0  0  0  0  0  0
  -27.4959  -18.3483   20.2436 H   0  0  0  0  0  0
  -28.8245  -18.3282   19.1273 H   0  0  0  0  0  0
  -31.1143  -18.7630   19.8787 H   0  0  0  0  0  0
  -31.4584  -19.2576   21.5046 H   0  0  0  0  0  0
  -28.4227  -16.0519   19.5711 H   0  0  0  0  0  0
  -28.1260  -16.2723   21.2839 H   0  0  0  0  0  0
  -30.9410  -17.0532   22.4282 H   0  0  0  0  0  0
  -32.0844  -16.9051   21.1422 H   0  0  0  0  0  0
  -29.0268  -18.8401   22.0782 H   0  0  0  0  0  0
  -28.8237  -22.9666   17.6140 H   0  0  0  0  0  0
  -29.1139  -24.5153   18.3954 H   0  0  0  0  0  0
  -27.4659  -23.8782   18.2793 H   0  0  0  0  0  0
  -29.5273  -21.6301   24.3118 H   0  0  0  0  0  0
  -30.0182  -20.1246   23.5675 H   0  0  0  0  0  0
  -28.2971  -20.4424   23.8930 H   0  0  0  0  0  0
  -26.2293  -26.0349   22.1473 H   0  0  0  0  0  0
  -26.6015  -24.4223   22.6603 H   0  0  0  0  0  0
  -25.9181  -24.6685   21.0730 H   0  0  0  0  0  0
  -28.6657  -25.5510   22.0186 H   0  0  0  0  0  0
  1 25  1  0  0  0
  1 30  2  0  0  0
  1 86  1  0  0  0
  2  3  1  0  0  0
  2 25  1  0  0  0
  2 87  1  0  0  0
  2 88  1  0  0  0
  3  4  1  0  0  0
  3 89  1  0  0  0
  3 90  1  0  0  0
  4  5  1  0  0  0
  4 91  1  0  0  0
  4 92  1  0  0  0
  5  6  1  0  0  0
  5 26  1  0  0  0
  5 93  1  0  0  0
  6 25  1  0  0  0
  6 94  1  0  0  0
  6 95  1  0  0  0
  7  8  2  0  0  0
  7 26  1  0  0  0
  7 29  1  0  0  0
  8  9  1  0  0  0
  8 22  1  0  0  0
  9 10  1  0  0  0
  9 27  2  0  0  0
 10 11  2  0  0  0
 10 15  1  0  0  0
 11 12  1  0  0  0
 11 96  1  0  0  0
 12 13  2  0  0  0
 12 97  1  0  0  0
 13 14  1  0  0  0
 13 31  1  0  0  0
 14 15  2  0  0  0
 14 98  1  0  0  0
 15 99  1  0  0  0
 16 17  2  0  0  0
 16 21  1  0  0  0
 16 31  1  0  0  0
 17 18  1  0  0  0
 17100  1  0  0  0
 18 19  2  0  0  0
 18101  1  0  0  0
 19 20  1  0  0  0
 19 24  1  0  0  0
 20 21  2  0  0  0
 20102  1  0  0  0
 21 23  1  0  0  0
 22 28  1  0  0  0
 22 32  2  0  0  0
 26 27  1  0  0  0
 28103  1  0  0  0
 28104  1  0  0  0
 29105  1  0  0  0
 29106  1  0  0  0
 33 34  1  0  0  0
 33 66  1  0  0  0
 33 70  2  0  0  0
 34 36  1  0  0  0
 34 59  1  0  0  0
 34107  1  0  0  0
 35 44  2  0  0  0
 35 45  1  0  0  0
 35 68  1  0  0  0
 36 56  1  0  0  0
 36108  1  0  0  0
 37 39  1  0  0  0
 37 47  1  0  0  0
 37 66  1  0  0  0
 37109  1  0  0  0
 38 43  2  0  0  0
 38 46  1  0  0  0
 38 47  1  0  0  0
 39 64  1  0  0  0
 39 67  2  0  0  0
 40 52  1  0  0  0
 40 53  2  0  0  0
 40 58  1  0  0  0
 41110  1  0  0  0
 41111  1  0  0  0
 41112  1  0  0  0
 41 48  1  0  0  0
 42 43  1  0  0  0
 42 66  1  0  0  0
 42113  1  0  0  0
 42114  1  0  0  0
 43 44  1  0  0  0
 44115  1  0  0  0
 45 46  2  0  0  0
 45116  1  0  0  0
 46117  1  0  0  0
 47118  1  0  0  0
 47119  1  0  0  0
 48 56  1  0  0  0
 48 65  1  0  0  0
 48120  1  0  0  0
 49 50  1  0  0  0
 49 53  1  0  0  0
 49 64  1  0  0  0
 49121  1  0  0  0
 50 51  1  0  0  0
 50122  1  0  0  0
 50123  1  0  0  0
 51 52  1  0  0  0
 51124  1  0  0  0
 51125  1  0  0  0
 52126  1  0  0  0
 52127  1  0  0  0
 53 54  1  0  0  0
 54 55  2  0  0  0
 54128  1  0  0  0
 55 57  1  0  0  0
 55129  1  0  0  0
 56 69  2  0  0  0
 57 58  2  0  0  0
 57130  1  0  0  0
 58131  1  0  0  0
 59 60  1  0  0  0
 59 61  1  0  0  0
 59 62  1  0  0  0
 60132  1  0  0  0
 60133  1  0  0  0
 60134  1  0  0  0
 61135  1  0  0  0
 61136  1  0  0  0
 61137  1  0  0  0
 62138  1  0  0  0
 62139  1  0  0  0
 62140  1  0  0  0
 63 65  1  0  0  0
 63141  1  0  0  0
 63142  1  0  0  0
 63143  1  0  0  0
 64144  1  0  0  0
 65145  1  0  0  0
 68 85  1  0  0  0
 71 73  2  0  0  0
 71 74  1  0  0  0
 71146  1  0  0  0
 72 75  2  0  0  0
 72 76  1  0  0  0
 72147  1  0  0  0
 73 75  1  0  0  0
 73 81  1  0  0  0
 74 76  2  0  0  0
 74 82  1  0  0  0
 75 83  1  0  0  0
 76 85  1  0  0  0
 77 79  1  0  0  0
 77 81  1  0  0  0
 77148  1  0  0  0
 77149  1  0  0  0
 78 80  1  0  0  0
 78 81  1  0  0  0
 78150  1  0  0  0
 78151  1  0  0  0
 79 86  1  0  0  0
 79152  1  0  0  0
 79153  1  0  0  0
 80 86  1  0  0  0
 80154  1  0  0  0
 80155  1  0  0  0
 81156  1  0  0  0
 82157  1  0  0  0
 82158  1  0  0  0
 82159  1  0  0  0
 83160  1  0  0  0
 83161  1  0  0  0
 83162  1  0  0  0
 84163  1  0  0  0
 84164  1  0  0  0
 84165  1  0  0  0
 84 85  1  0  0  0
 85166  1  0  0  0
M  ISO  4   1 100  68 101  85 101  86 100
M  END
> <chiral flag>
0

> <version>
0

> <s_m_source_file>
/data/baiqing/PycharmProjects/Reinvent-master-3.2/result/LINK_invent/BTK/process_docking_weight1_custom_sum_contain_oxygen_bond_distance_aromatic_linkinvent_7_9_3/rearranged_h_0154.sdf

> <i_m_source_file_index>
31

> <r_mmod_Potential_Energy-OPLS-2005>
478.849426269531

> <r_mmod_Stretch_Energy-OPLS-2005>
128.300354003906

> <r_mmod_Bend_Energy-OPLS-2005>
225.929229736328

> <r_mmod_Torsional_Energy-OPLS-2005>
351.008117675781

> <r_mmod_Improper_Torsional_Energy-OPLS-2005>
3.60455656051636

> <r_mmod_Van_der_Waal_Energy-OPLS-2005>
151.708877563477

> <r_mmod_Electrostatic_Energy-OPLS-2005>
-295.922912597656

> <r_mmod_Solvation_Energy-OPLS-2005>
-191.207382202148

> <b_mmod_Minimization_Converged-OPLS-2005>
0

> <r_mmod_RMS_Derivative-OPLS-2005>
5.43223285675049

$$$$
32
                    3D
 Structure written by MMmdl.
164173  0  0  1  0            999 V2000
  -30.6738  -14.6325   20.5131 C   0  0  0  0  0  0
  -30.4301  -12.3967   19.4493 C   0  0  0  0  0  0
  -29.5005  -12.4994   18.2215 C   0  0  0  0  0  0
  -28.0285  -12.3314   18.6441 C   0  0  0  0  0  0
  -27.6503  -13.2217   19.8578 C   0  0  2  0  0  0
  -28.6988  -13.1124   20.9874 C   0  0  0  0  0  0
  -25.2552  -13.8185   20.5695 C   0  0  0  0  0  0
  -24.1828  -13.0445   20.9202 C   0  0  0  0  0  0
  -24.6407  -11.6918   20.8760 C   0  0  0  0  0  0
  -23.9081  -10.4301   21.0422 C   0  0  0  0  0  0
  -24.3625   -9.4209   21.9195 C   0  0  0  0  0  0
  -23.6295   -8.2246   22.0761 C   0  0  0  0  0  0
  -22.4279   -8.0289   21.3548 C   0  0  0  0  0  0
  -21.9921   -9.0268   20.4651 C   0  0  0  0  0  0
  -22.7258  -10.2143   20.3064 C   0  0  0  0  0  0
  -21.6849   -6.0741   22.5281 C   0  0  0  0  0  0
  -21.4019   -6.5643   23.8216 C   0  0  0  0  0  0
  -21.3660   -5.6794   24.9178 C   0  0  0  0  0  0
  -21.6044   -4.3058   24.7229 C   0  0  0  0  0  0
  -21.8817   -3.8153   23.4348 C   0  0  0  0  0  0
  -21.9191   -4.6970   22.3406 C   0  0  0  0  0  0
  -22.7846  -13.5231   21.1860 C   0  0  0  0  0  0
  -22.1657   -4.2158   21.0981 F   0  0  0  0  0  0
  -21.5625   -3.4538   25.7738 F   0  0  0  0  0  0
  -30.0107  -13.4379   20.4089 N   0  0  0  0  0  0
  -26.2985  -12.9379   20.3325 N   0  0  0  0  0  0
  -25.9339  -11.6529   20.5785 N   0  0  0  0  0  0
  -22.0487  -12.8219   22.0414 N   0  0  0  0  0  0
  -25.4249  -15.1908   20.4097 N   0  0  0  0  0  0
  -31.8466  -14.7474   20.1552 O   0  0  0  0  0  0
  -21.6635   -6.8889   21.4243 O   0  0  0  0  0  0
  -22.3531  -14.5543   20.6719 O   0  0  0  0  0  0
  -24.6283  -31.8617   23.2063 C   0  0  0  0  0  0
  -25.9128  -32.4792   23.8384 C   0  0  1  0  0  0
  -27.2132  -27.3063   20.1037 C   0  0  0  0  0  0
  -25.5945  -33.8589   24.2307 N   0  0  0  0  0  0
  -23.4212  -30.4911   21.5503 C   0  0  2  0  0  0
  -24.8655  -28.9605   20.1095 C   0  0  0  0  0  0
  -22.7486  -29.4639   22.4930 C   0  0  0  0  0  0
  -18.0291  -28.1380   22.8480 C   0  0  0  0  0  0
  -24.1494  -36.7301   23.2636 C   0  0  0  0  0  0
  -25.9684  -30.7867   21.3846 C   0  0  0  0  0  0
  -26.0396  -29.4169   20.7215 C   0  0  0  0  0  0
  -27.2152  -28.6008   20.7171 C   0  0  0  0  0  0
  -26.0110  -26.9337   19.4437 C   0  0  0  0  0  0
  -24.8545  -27.7228   19.4630 C   0  0  0  0  0  0
  -23.6359  -29.8404   20.1621 C   0  0  0  0  0  0
  -25.4115  -36.3085   24.0329 C   0  0  1  0  0  0
  -20.5893  -28.3694   23.1264 C   0  0  2  0  0  0
  -20.6779  -26.9416   22.5391 C   0  0  0  0  0  0
  -19.5752  -26.6381   21.5199 C   0  0  0  0  0  0
  -18.1931  -26.7926   22.1611 C   0  0  0  0  0  0
  -19.1543  -28.8853   23.2868 C   0  0  0  0  0  0
  -18.9472  -30.1454   23.8886 C   0  0  0  0  0  0
  -17.6473  -30.6585   24.0555 C   0  0  0  0  0  0
  -25.9052  -34.9454   23.5114 C   0  0  0  0  0  0
  -16.5362  -29.9083   23.6327 C   0  0  0  0  0  0
  -16.7278  -28.6497   23.0350 C   0  0  0  0  0  0
  -26.4510  -31.6591   25.0747 C   0  0  0  0  0  0
  -25.3743  -31.3721   26.1470 C   0  0  0  0  0  0
  -27.0369  -30.3017   24.6214 C   0  0  0  0  0  0
  -27.6061  -32.4340   25.7523 C   0  0  0  0  0  0
  -27.5583  -37.1804   24.8462 C   0  0  0  0  0  0
  -21.4196  -29.3060   22.3673 N   0  0  0  0  0  0
  -26.4294  -37.3776   23.9408 N   0  0  0  0  0  0
  -24.6914  -31.0624   22.1031 N   0  0  0  0  0  0
  -23.4212  -28.8139   23.2979 O   0  0  0  0  0  0
  -28.2955  -26.3964   20.1752 O   0  0  0  0  0  0
  -26.5603  -34.8915   22.4671 O   0  0  0  0  0  0
  -23.5439  -32.1429   23.7376 O   0  0  0  0  0  0
  -28.8589  -22.7018   19.0847 C   0  0  0  0  0  0
  -29.2496  -23.3115   21.3637 C   0  0  0  0  0  0
  -29.2828  -21.3552   19.3149 C   0  0  0  0  0  0
  -28.7951  -23.7047   20.0864 C   0  0  0  0  0  0
  -29.7119  -21.9815   21.6173 C   0  0  0  0  0  0
  -29.7096  -20.9511   20.6206 C   0  0  0  0  0  0
  -28.3803  -20.5915   16.9319 C   0  0  0  0  0  0
  -28.1693  -19.4425   17.8817 C   0  0  0  0  0  0
  -29.2970  -20.4215   18.1322 C   0  0  0  0  0  0
  -29.0193  -21.2214   23.9311 C   0  0  0  0  0  0
  -30.1776  -21.6630   23.0299 C   0  0  0  0  0  0
  -27.9588  -25.0014   19.7912 C   0  0  0  0  0  0
  -30.4488  -17.1291   21.1688 C   0  0  0  0  0  0
  -29.8075  -18.3789   20.4189 C   0  0  0  0  0  0
  -29.9492  -15.7369   20.8671 N   0  0  0  0  0  0
  -30.1831  -19.6711   21.0081 O   0  0  0  0  0  0
  -31.4715  -12.5079   19.1433 H   0  0  0  0  0  0
  -30.3564  -11.4096   19.9083 H   0  0  0  0  0  0
  -29.7652  -11.7415   17.4832 H   0  0  0  0  0  0
  -29.6350  -13.4653   17.7325 H   0  0  0  0  0  0
  -27.8810  -11.2815   18.8999 H   0  0  0  0  0  0
  -27.3648  -12.5337   17.8025 H   0  0  0  0  0  0
  -27.6608  -14.2500   19.4963 H   0  0  0  0  0  0
  -28.7130  -12.1054   21.4064 H   0  0  0  0  0  0
  -28.4501  -13.7792   21.8142 H   0  0  0  0  0  0
  -25.2770   -9.5676   22.4774 H   0  0  0  0  0  0
  -24.0003   -7.4633   22.7480 H   0  0  0  0  0  0
  -21.0854   -8.8799   19.8953 H   0  0  0  0  0  0
  -22.3730  -10.9688   19.6173 H   0  0  0  0  0  0
  -21.2015   -7.6151   23.9729 H   0  0  0  0  0  0
  -21.1479   -6.0519   25.9082 H   0  0  0  0  0  0
  -22.0595   -2.7615   23.2845 H   0  0  0  0  0  0
  -22.4093  -11.9861   22.4775 H   0  0  0  0  0  0
  -21.1117  -13.1262   22.2646 H   0  0  0  0  0  0
  -24.6567  -15.8444   20.5169 H   0  0  0  0  0  0
  -26.2725  -15.6306   20.0748 H   0  0  0  0  0  0
  -26.7191  -32.5455   23.1128 H   0  0  0  0  0  0
  -25.0136  -33.9744   25.0479 H   0  0  0  0  0  0
  -22.7147  -31.3122   21.4113 H   0  0  0  0  0  0
  -23.3755  -35.9633   23.3293 H   0  0  0  0  0  0
  -24.3587  -36.8929   22.2050 H   0  0  0  0  0  0
  -23.7254  -37.6504   23.6667 H   0  0  0  0  0  0
  -26.1063  -31.5515   20.6184 H   0  0  0  0  0  0
  -26.8467  -30.8293   22.0167 H   0  0  0  0  0  0
  -28.1087  -28.9424   21.2210 H   0  0  0  0  0  0
  -25.8993  -26.0060   18.9052 H   0  0  0  0  0  0
  -23.9593  -27.3708   18.9689 H   0  0  0  0  0  0
  -23.7566  -30.6228   19.4116 H   0  0  0  0  0  0
  -22.7553  -29.2734   19.8544 H   0  0  0  0  0  0
  -25.1290  -36.1941   25.0820 H   0  0  0  0  0  0
  -20.9984  -28.3267   24.1384 H   0  0  0  0  0  0
  -20.5681  -26.2305   23.3592 H   0  0  0  0  0  0
  -21.6646  -26.7432   22.1189 H   0  0  0  0  0  0
  -19.6914  -25.6289   21.1238 H   0  0  0  0  0  0
  -19.6695  -27.3176   20.6718 H   0  0  0  0  0  0
  -17.4202  -26.6679   21.4012 H   0  0  0  0  0  0
  -18.0325  -26.0061   22.9000 H   0  0  0  0  0  0
  -19.7950  -30.7265   24.2258 H   0  0  0  0  0  0
  -17.5031  -31.6266   24.5155 H   0  0  0  0  0  0
  -15.5365  -30.2984   23.7661 H   0  0  0  0  0  0
  -15.8673  -28.0816   22.7075 H   0  0  0  0  0  0
  -24.5947  -30.7028   25.7810 H   0  0  0  0  0  0
  -24.8897  -32.2875   26.4868 H   0  0  0  0  0  0
  -25.8073  -30.8938   27.0263 H   0  0  0  0  0  0
  -26.2954  -29.6757   24.1232 H   0  0  0  0  0  0
  -27.4065  -29.7275   25.4722 H   0  0  0  0  0  0
  -27.8823  -30.4308   23.9452 H   0  0  0  0  0  0
  -27.2667  -33.3654   26.2067 H   0  0  0  0  0  0
  -28.3884  -32.6879   25.0356 H   0  0  0  0  0  0
  -28.0716  -31.8491   26.5467 H   0  0  0  0  0  0
  -28.2584  -38.0118   24.7518 H   0  0  0  0  0  0
  -28.1100  -36.2644   24.6278 H   0  0  0  0  0  0
  -27.2301  -37.1438   25.8866 H   0  0  0  0  0  0
  -20.9368  -29.8846   21.6941 H   0  0  0  0  0  0
  -26.0179  -38.2852   24.1407 H   0  0  0  0  0  0
  -28.5159  -22.9749   18.0980 H   0  0  0  0  0  0
  -29.1929  -24.0233   22.1758 H   0  0  0  0  0  0
  -27.6049  -21.3543   16.9356 H   0  0  0  0  0  0
  -28.7803  -20.3443   15.9504 H   0  0  0  0  0  0
  -28.4276  -18.4503   17.5168 H   0  0  0  0  0  0
  -27.3021  -19.4893   18.5376 H   0  0  0  0  0  0
  -30.3154  -20.1049   17.9141 H   0  0  0  0  0  0
  -29.3772  -20.9783   24.9318 H   0  0  0  0  0  0
  -28.5235  -20.3370   23.5299 H   0  0  0  0  0  0
  -28.2726  -22.0100   24.0278 H   0  0  0  0  0  0
  -30.6555  -22.5465   23.4558 H   0  0  0  0  0  0
  -30.9513  -20.8947   23.0108 H   0  0  0  0  0  0
  -27.0112  -24.7446   20.2669 H   0  0  0  0  0  0
  -27.7894  -25.0110   18.7140 H   0  0  0  0  0  0
  -30.2898  -17.2749   22.2377 H   0  0  0  0  0  0
  -31.5314  -17.1686   21.0382 H   0  0  0  0  0  0
  -28.7205  -18.2959   20.4253 H   0  0  0  0  0  0
  -30.1411  -18.3290   19.3856 H   0  0  0  0  0  0
  -28.9735  -15.5663   21.0598 H   0  0  0  0  0  0
  1 25  1  0  0  0
  1 30  2  0  0  0
  1 85  1  0  0  0
  2  3  1  0  0  0
  2 25  1  0  0  0
  2 87  1  0  0  0
  2 88  1  0  0  0
  3  4  1  0  0  0
  3 89  1  0  0  0
  3 90  1  0  0  0
  4  5  1  0  0  0
  4 91  1  0  0  0
  4 92  1  0  0  0
  5  6  1  0  0  0
  5 26  1  0  0  0
  5 93  1  0  0  0
  6 25  1  0  0  0
  6 94  1  0  0  0
  6 95  1  0  0  0
  7  8  2  0  0  0
  7 26  1  0  0  0
  7 29  1  0  0  0
  8  9  1  0  0  0
  8 22  1  0  0  0
  9 10  1  0  0  0
  9 27  2  0  0  0
 10 11  2  0  0  0
 10 15  1  0  0  0
 11 12  1  0  0  0
 11 96  1  0  0  0
 12 13  2  0  0  0
 12 97  1  0  0  0
 13 14  1  0  0  0
 13 31  1  0  0  0
 14 15  2  0  0  0
 14 98  1  0  0  0
 15 99  1  0  0  0
 16 17  2  0  0  0
 16 21  1  0  0  0
 16 31  1  0  0  0
 17 18  1  0  0  0
 17100  1  0  0  0
 18 19  2  0  0  0
 18101  1  0  0  0
 19 20  1  0  0  0
 19 24  1  0  0  0
 20 21  2  0  0  0
 20102  1  0  0  0
 21 23  1  0  0  0
 22 28  1  0  0  0
 22 32  2  0  0  0
 26 27  1  0  0  0
 28103  1  0  0  0
 28104  1  0  0  0
 29105  1  0  0  0
 29106  1  0  0  0
 33 34  1  0  0  0
 33 66  1  0  0  0
 33 70  2  0  0  0
 34 36  1  0  0  0
 34 59  1  0  0  0
 34107  1  0  0  0
 35 44  2  0  0  0
 35 45  1  0  0  0
 35 68  1  0  0  0
 36 56  1  0  0  0
 36108  1  0  0  0
 37 39  1  0  0  0
 37 47  1  0  0  0
 37 66  1  0  0  0
 37109  1  0  0  0
 38 43  2  0  0  0
 38 46  1  0  0  0
 38 47  1  0  0  0
 39 64  1  0  0  0
 39 67  2  0  0  0
 40 52  1  0  0  0
 40 53  2  0  0  0
 40 58  1  0  0  0
 41110  1  0  0  0
 41111  1  0  0  0
 41112  1  0  0  0
 41 48  1  0  0  0
 42 43  1  0  0  0
 42 66  1  0  0  0
 42113  1  0  0  0
 42114  1  0  0  0
 43 44  1  0  0  0
 44115  1  0  0  0
 45 46  2  0  0  0
 45116  1  0  0  0
 46117  1  0  0  0
 47118  1  0  0  0
 47119  1  0  0  0
 48 56  1  0  0  0
 48 65  1  0  0  0
 48120  1  0  0  0
 49 50  1  0  0  0
 49 53  1  0  0  0
 49 64  1  0  0  0
 49121  1  0  0  0
 50 51  1  0  0  0
 50122  1  0  0  0
 50123  1  0  0  0
 51 52  1  0  0  0
 51124  1  0  0  0
 51125  1  0  0  0
 52126  1  0  0  0
 52127  1  0  0  0
 53 54  1  0  0  0
 54 55  2  0  0  0
 54128  1  0  0  0
 55 57  1  0  0  0
 55129  1  0  0  0
 56 69  2  0  0  0
 57 58  2  0  0  0
 57130  1  0  0  0
 58131  1  0  0  0
 59 60  1  0  0  0
 59 61  1  0  0  0
 59 62  1  0  0  0
 60132  1  0  0  0
 60133  1  0  0  0
 60134  1  0  0  0
 61135  1  0  0  0
 61136  1  0  0  0
 61137  1  0  0  0
 62138  1  0  0  0
 62139  1  0  0  0
 62140  1  0  0  0
 63 65  1  0  0  0
 63141  1  0  0  0
 63142  1  0  0  0
 63143  1  0  0  0
 64144  1  0  0  0
 65145  1  0  0  0
 68 82  1  0  0  0
 71 73  2  0  0  0
 71 74  1  0  0  0
 71146  1  0  0  0
 72 74  2  0  0  0
 72 75  1  0  0  0
 72147  1  0  0  0
 73 76  1  0  0  0
 73 79  1  0  0  0
 74 82  1  0  0  0
 75 76  2  0  0  0
 75 81  1  0  0  0
 76 86  1  0  0  0
 77 78  1  0  0  0
 77 79  1  0  0  0
 77148  1  0  0  0
 77149  1  0  0  0
 78 79  1  0  0  0
 78150  1  0  0  0
 78151  1  0  0  0
 79152  1  0  0  0
 80 81  1  0  0  0
 80153  1  0  0  0
 80154  1  0  0  0
 80155  1  0  0  0
 81156  1  0  0  0
 81157  1  0  0  0
 82158  1  0  0  0
 82159  1  0  0  0
 83 84  1  0  0  0
 83 85  1  0  0  0
 83160  1  0  0  0
 83161  1  0  0  0
 84 86  1  0  0  0
 84162  1  0  0  0
 84163  1  0  0  0
 85164  1  0  0  0
M  ISO  4   1 100  68 101  82 101  85 100
M  END
> <chiral flag>
0

> <version>
0

> <s_m_source_file>
/data/baiqing/PycharmProjects/Reinvent-master-3.2/result/LINK_invent/BTK/process_docking_weight1_custom_sum_contain_oxygen_bond_distance_aromatic_linkinvent_7_9_3/rearranged_h_0154.sdf

> <i_m_source_file_index>
32

> <r_mmod_Potential_Energy-OPLS-2005>
104.698791503906

> <r_mmod_Stretch_Energy-OPLS-2005>
84.4286193847656

> <r_mmod_Bend_Energy-OPLS-2005>
174.620956420898

> <r_mmod_Torsional_Energy-OPLS-2005>
248.0224609375

> <r_mmod_Improper_Torsional_Energy-OPLS-2005>
6.02736759185791

> <r_mmod_Van_der_Waal_Energy-OPLS-2005>
157.225341796875

> <r_mmod_Electrostatic_Energy-OPLS-2005>
-413.037536621094

> <r_mmod_Solvation_Energy-OPLS-2005>
-209.43212890625

> <b_mmod_Minimization_Converged-OPLS-2005>
0

> <r_mmod_RMS_Derivative-OPLS-2005>
1.03668344020844

$$$$
33
                    3D
 Structure written by MMmdl.
175184  0  0  1  0            999 V2000
  -30.6841  -14.4088   20.6163 C   0  0  0  0  0  0
  -30.4223  -12.2740   19.4138 C   0  0  0  0  0  0
  -29.4911  -12.4950   18.2025 C   0  0  0  0  0  0
  -28.0079  -12.3817   18.6079 C   0  0  0  0  0  0
  -27.6659  -13.1938   19.8866 C   0  0  2  0  0  0
  -28.6989  -12.9105   20.9993 C   0  0  0  0  0  0
  -25.2585  -13.8123   20.5672 C   0  0  0  0  0  0
  -24.1833  -13.0420   20.9151 C   0  0  0  0  0  0
  -24.6363  -11.6881   20.8712 C   0  0  0  0  0  0
  -23.9009  -10.4269   21.0368 C   0  0  0  0  0  0
  -24.3571   -9.4191   21.9158 C   0  0  0  0  0  0
  -23.6270   -8.2216   22.0727 C   0  0  0  0  0  0
  -22.4254   -8.0245   21.3516 C   0  0  0  0  0  0
  -21.9867   -9.0207   20.4609 C   0  0  0  0  0  0
  -22.7178  -10.2095   20.3013 C   0  0  0  0  0  0
  -21.6842   -6.0718   22.5277 C   0  0  0  0  0  0
  -21.3997   -6.5619   23.8217 C   0  0  0  0  0  0
  -21.3651   -5.6774   24.9174 C   0  0  0  0  0  0
  -21.6055   -4.3050   24.7219 C   0  0  0  0  0  0
  -21.8836   -3.8140   23.4340 C   0  0  0  0  0  0
  -21.9194   -4.6951   22.3395 C   0  0  0  0  0  0
  -22.7860  -13.5211   21.1861 C   0  0  0  0  0  0
  -22.1666   -4.2144   21.0973 F   0  0  0  0  0  0
  -21.5622   -3.4537   25.7721 F   0  0  0  0  0  0
  -30.0370  -13.2236   20.4661 N   0  0  0  0  0  0
  -26.3027  -12.9281   20.3397 N   0  0  0  0  0  0
  -25.9282  -11.6457   20.5749 N   0  0  0  0  0  0
  -22.0518  -12.8170   22.0396 N   0  0  0  0  0  0
  -25.4298  -15.1853   20.4120 N   0  0  0  0  0  0
  -31.7511  -14.6609   20.0604 O   0  0  0  0  0  0
  -21.6611   -6.8852   21.4225 O   0  0  0  0  0  0
  -22.3546  -14.5558   20.6761 O   0  0  0  0  0  0
  -24.6192  -31.8729   23.2231 C   0  0  0  0  0  0
  -25.9120  -32.4836   23.8466 C   0  0  1  0  0  0
  -27.1905  -27.4500   20.0808 C   0  0  0  0  0  0
  -25.6021  -33.8640   24.2413 N   0  0  0  0  0  0
  -23.3973  -30.5129   21.5635 C   0  0  2  0  0  0
  -24.8282  -29.0037   20.1075 C   0  0  0  0  0  0
  -22.7420  -29.4717   22.5016 C   0  0  0  0  0  0
  -18.0276  -28.1370   22.8507 C   0  0  0  0  0  0
  -24.1475  -36.7280   23.2621 C   0  0  0  0  0  0
  -25.9282  -30.8510   21.3671 C   0  0  0  0  0  0
  -25.9972  -29.4929   20.7028 C   0  0  0  0  0  0
  -27.1859  -28.7263   20.6876 C   0  0  0  0  0  0
  -25.9997  -27.0033   19.4453 C   0  0  0  0  0  0
  -24.8245  -27.7592   19.4737 C   0  0  0  0  0  0
  -23.5980  -29.8711   20.1684 C   0  0  0  0  0  0
  -25.4089  -36.3118   24.0353 C   0  0  1  0  0  0
  -20.5877  -28.3664   23.1294 C   0  0  2  0  0  0
  -20.6774  -26.9403   22.5401 C   0  0  0  0  0  0
  -19.5737  -26.6391   21.5201 C   0  0  0  0  0  0
  -18.1913  -26.7925   22.1624 C   0  0  0  0  0  0
  -19.1528  -28.8832   23.2897 C   0  0  0  0  0  0
  -18.9460  -30.1452   23.8887 C   0  0  0  0  0  0
  -17.6470  -30.6582   24.0568 C   0  0  0  0  0  0
  -25.9039  -34.9486   23.5143 C   0  0  0  0  0  0
  -16.5361  -29.9087   23.6335 C   0  0  0  0  0  0
  -16.7269  -28.6500   23.0356 C   0  0  0  0  0  0
  -26.4527  -31.6599   25.0778 C   0  0  0  0  0  0
  -25.3825  -31.3739   26.1554 C   0  0  0  0  0  0
  -27.0290  -30.3037   24.6099 C   0  0  0  0  0  0
  -27.6134  -32.4276   25.7531 C   0  0  0  0  0  0
  -27.5557  -37.1795   24.8465 C   0  0  0  0  0  0
  -21.4157  -29.3044   22.3726 N   0  0  0  0  0  0
  -26.4262  -37.3819   23.9429 N   0  0  0  0  0  0
  -24.6664  -31.0916   22.1093 N   0  0  0  0  0  0
  -23.4211  -28.8224   23.3007 O   0  0  0  0  0  0
  -28.3044  -26.6347   20.1646 O   0  0  0  0  0  0
  -26.5523  -34.8924   22.4653 O   0  0  0  0  0  0
  -23.5400  -32.1429   23.7686 O   0  0  0  0  0  0
  -29.6039  -21.8893   20.9383 C   0  0  0  0  0  0
  -30.3411  -24.5876   20.7136 C   0  0  0  0  0  0
  -30.9660  -22.2390   21.0430 C   0  0  0  0  0  0
  -28.6167  -22.8565   20.6812 C   0  0  0  0  0  0
  -31.3364  -23.6050   20.9042 C   0  0  0  0  0  0
  -28.9878  -24.2229   20.5932 C   0  0  0  0  0  0
  -31.9910  -21.1272   21.2916 C   0  0  1  0  0  0
  -32.3629  -19.3352   22.8569 C   0  0  2  0  0  0
  -32.2754  -20.8558   22.7863 C   0  0  1  0  0  0
  -31.3252  -18.9257   21.8110 C   0  0  2  0  0  0
  -27.1800  -22.3756   20.4878 C   0  0  0  0  0  0
  -32.7902  -24.0479   20.9067 C   0  0  0  0  0  0
  -32.1131  -18.7578   24.2604 C   0  0  0  0  0  0
  -33.3229  -17.4345   19.8854 C   0  0  0  0  0  0
  -27.9203  -25.2600   20.3281 C   0  0  0  0  0  0
  -30.0109  -16.7720   21.3159 C   0  0  0  0  0  0
  -31.4023  -17.4464   21.3272 C   0  0  1  0  0  0
  -29.9964  -15.3027   21.3418 N   0  0  0  0  0  0
  -31.5624  -19.8673   20.7599 O   0  0  0  0  0  0
  -33.4872  -21.4337   23.2470 O   0  0  0  0  0  0
  -31.9048  -17.4236   19.9920 O   0  0  0  0  0  0
  -31.4674  -12.3823   19.1140 H   0  0  0  0  0  0
  -30.3242  -11.2550   19.7890 H   0  0  0  0  0  0
  -29.7179  -11.7699   17.4205 H   0  0  0  0  0  0
  -29.6807  -13.4798   17.7720 H   0  0  0  0  0  0
  -27.7852  -11.3258   18.7721 H   0  0  0  0  0  0
  -27.3687  -12.6974   17.7815 H   0  0  0  0  0  0
  -27.7302  -14.2500   19.6290 H   0  0  0  0  0  0
  -28.6662  -11.8576   21.2806 H   0  0  0  0  0  0
  -28.4501  -13.4513   21.9128 H   0  0  0  0  0  0
  -25.2699   -9.5686   22.4745 H   0  0  0  0  0  0
  -23.9973   -7.4617   22.7448 H   0  0  0  0  0  0
  -21.0782   -8.8694   19.8933 H   0  0  0  0  0  0
  -22.3600  -10.9611   19.6129 H   0  0  0  0  0  0
  -21.1968   -7.6138   23.9711 H   0  0  0  0  0  0
  -21.1460   -6.0495   25.9077 H   0  0  0  0  0  0
  -22.0623   -2.7599   23.2829 H   0  0  0  0  0  0
  -22.4142  -11.9789   22.4712 H   0  0  0  0  0  0
  -21.1181  -13.1223   22.2732 H   0  0  0  0  0  0
  -24.6582  -15.8337   20.5223 H   0  0  0  0  0  0
  -26.2832  -15.6325   20.1041 H   0  0  0  0  0  0
  -26.7201  -32.5532   23.1238 H   0  0  0  0  0  0
  -25.0388  -33.9811   25.0705 H   0  0  0  0  0  0
  -22.6827  -31.3305   21.4449 H   0  0  0  0  0  0
  -23.3744  -35.9608   23.3323 H   0  0  0  0  0  0
  -24.3565  -36.8825   22.2024 H   0  0  0  0  0  0
  -23.7213  -37.6505   23.6571 H   0  0  0  0  0  0
  -26.0381  -31.6262   20.6063 H   0  0  0  0  0  0
  -26.8195  -30.8929   21.9821 H   0  0  0  0  0  0
  -28.0809  -29.0974   21.1671 H   0  0  0  0  0  0
  -25.9174  -26.0674   18.9176 H   0  0  0  0  0  0
  -23.9281  -27.3834   18.9979 H   0  0  0  0  0  0
  -23.7182  -30.6572   19.4225 H   0  0  0  0  0  0
  -22.7147  -29.3066   19.8641 H   0  0  0  0  0  0
  -25.1263  -36.1976   25.0853 H   0  0  0  0  0  0
  -20.9966  -28.3223   24.1420 H   0  0  0  0  0  0
  -20.5670  -26.2286   23.3591 H   0  0  0  0  0  0
  -21.6639  -26.7452   22.1182 H   0  0  0  0  0  0
  -19.6886  -25.6304   21.1216 H   0  0  0  0  0  0
  -19.6662  -27.3210   20.6737 H   0  0  0  0  0  0
  -17.4202  -26.6708   21.4008 H   0  0  0  0  0  0
  -18.0290  -26.0048   22.8990 H   0  0  0  0  0  0
  -19.7949  -30.7271   24.2222 H   0  0  0  0  0  0
  -17.5035  -31.6240   24.5181 H   0  0  0  0  0  0
  -15.5354  -30.2983   23.7651 H   0  0  0  0  0  0
  -15.8679  -28.0815   22.7056 H   0  0  0  0  0  0
  -24.6054  -30.6977   25.7979 H   0  0  0  0  0  0
  -24.8947  -32.2903   26.4897 H   0  0  0  0  0  0
  -25.8240  -30.9069   27.0365 H   0  0  0  0  0  0
  -26.2797  -29.6853   24.1140 H   0  0  0  0  0  0
  -27.4048  -29.7228   25.4533 H   0  0  0  0  0  0
  -27.8672  -30.4342   23.9242 H   0  0  0  0  0  0
  -27.2795  -33.3591   26.2096 H   0  0  0  0  0  0
  -28.3961  -32.6757   25.0363 H   0  0  0  0  0  0
  -28.0755  -31.8375   26.5448 H   0  0  0  0  0  0
  -28.2605  -38.0064   24.7511 H   0  0  0  0  0  0
  -28.1015  -36.2602   24.6287 H   0  0  0  0  0  0
  -27.2282  -37.1468   25.8871 H   0  0  0  0  0  0
  -20.9298  -29.8839   21.7014 H   0  0  0  0  0  0
  -26.0137  -38.2883   24.1494 H   0  0  0  0  0  0
  -29.3100  -20.8523   21.0250 H   0  0  0  0  0  0
  -30.6149  -25.6300   20.6236 H   0  0  0  0  0  0
  -32.9164  -21.3675   20.7660 H   0  0  0  0  0  0
  -33.3484  -19.0156   22.5177 H   0  0  0  0  0  0
  -31.4395  -21.1993   23.3996 H   0  0  0  0  0  0
  -30.3357  -19.1379   22.2170 H   0  0  0  0  0  0
  -27.1779  -21.3834   20.0346 H   0  0  0  0  0  0
  -26.5862  -23.0065   19.8276 H   0  0  0  0  0  0
  -26.6615  -22.3080   21.4435 H   0  0  0  0  0  0
  -32.8735  -25.1331   20.8377 H   0  0  0  0  0  0
  -33.3060  -23.6288   20.0418 H   0  0  0  0  0  0
  -33.3057  -23.7305   21.8120 H   0  0  0  0  0  0
  -31.0743  -18.8761   24.5712 H   0  0  0  0  0  0
  -32.7355  -19.2585   25.0017 H   0  0  0  0  0  0
  -32.3530  -17.6960   24.2952 H   0  0  0  0  0  0
  -33.6227  -18.1515   19.1215 H   0  0  0  0  0  0
  -33.7011  -16.4585   19.5823 H   0  0  0  0  0  0
  -33.8248  -17.7057   20.8108 H   0  0  0  0  0  0
  -27.1794  -25.1776   21.1297 H   0  0  0  0  0  0
  -27.4893  -24.9140   19.3952 H   0  0  0  0  0  0
  -29.4120  -17.1303   20.4760 H   0  0  0  0  0  0
  -29.4631  -17.0737   22.2110 H   0  0  0  0  0  0
  -32.0317  -16.8624   22.0010 H   0  0  0  0  0  0
  -29.2038  -14.9027   21.8229 H   0  0  0  0  0  0
  -34.1873  -21.1400   22.6707 H   0  0  0  0  0  0
  1 25  1  0  0  0
  1 30  2  0  0  0
  1 88  1  0  0  0
  2  3  1  0  0  0
  2 25  1  0  0  0
  2 92  1  0  0  0
  2 93  1  0  0  0
  3  4  1  0  0  0
  3 94  1  0  0  0
  3 95  1  0  0  0
  4  5  1  0  0  0
  4 96  1  0  0  0
  4 97  1  0  0  0
  5  6  1  0  0  0
  5 26  1  0  0  0
  5 98  1  0  0  0
  6 25  1  0  0  0
  6 99  1  0  0  0
  6100  1  0  0  0
  7  8  2  0  0  0
  7 26  1  0  0  0
  7 29  1  0  0  0
  8  9  1  0  0  0
  8 22  1  0  0  0
  9 10  1  0  0  0
  9 27  2  0  0  0
 10 11  2  0  0  0
 10 15  1  0  0  0
 11 12  1  0  0  0
 11101  1  0  0  0
 12 13  2  0  0  0
 12102  1  0  0  0
 13 14  1  0  0  0
 13 31  1  0  0  0
 14 15  2  0  0  0
 14103  1  0  0  0
 15104  1  0  0  0
 16 17  2  0  0  0
 16 21  1  0  0  0
 16 31  1  0  0  0
 17 18  1  0  0  0
 17105  1  0  0  0
 18 19  2  0  0  0
 18106  1  0  0  0
 19 20  1  0  0  0
 19 24  1  0  0  0
 20 21  2  0  0  0
 20107  1  0  0  0
 21 23  1  0  0  0
 22 28  1  0  0  0
 22 32  2  0  0  0
 26 27  1  0  0  0
 28108  1  0  0  0
 28109  1  0  0  0
 29110  1  0  0  0
 29111  1  0  0  0
 33 34  1  0  0  0
 33 66  1  0  0  0
 33 70  2  0  0  0
 34 36  1  0  0  0
 34 59  1  0  0  0
 34112  1  0  0  0
 35 44  2  0  0  0
 35 45  1  0  0  0
 35 68  1  0  0  0
 36 56  1  0  0  0
 36113  1  0  0  0
 37 39  1  0  0  0
 37 47  1  0  0  0
 37 66  1  0  0  0
 37114  1  0  0  0
 38 43  2  0  0  0
 38 46  1  0  0  0
 38 47  1  0  0  0
 39 64  1  0  0  0
 39 67  2  0  0  0
 40 52  1  0  0  0
 40 53  2  0  0  0
 40 58  1  0  0  0
 41115  1  0  0  0
 41116  1  0  0  0
 41117  1  0  0  0
 41 48  1  0  0  0
 42 43  1  0  0  0
 42 66  1  0  0  0
 42118  1  0  0  0
 42119  1  0  0  0
 43 44  1  0  0  0
 44120  1  0  0  0
 45 46  2  0  0  0
 45121  1  0  0  0
 46122  1  0  0  0
 47123  1  0  0  0
 47124  1  0  0  0
 48 56  1  0  0  0
 48 65  1  0  0  0
 48125  1  0  0  0
 49 50  1  0  0  0
 49 53  1  0  0  0
 49 64  1  0  0  0
 49126  1  0  0  0
 50 51  1  0  0  0
 50127  1  0  0  0
 50128  1  0  0  0
 51 52  1  0  0  0
 51129  1  0  0  0
 51130  1  0  0  0
 52131  1  0  0  0
 52132  1  0  0  0
 53 54  1  0  0  0
 54 55  2  0  0  0
 54133  1  0  0  0
 55 57  1  0  0  0
 55134  1  0  0  0
 56 69  2  0  0  0
 57 58  2  0  0  0
 57135  1  0  0  0
 58136  1  0  0  0
 59 60  1  0  0  0
 59 61  1  0  0  0
 59 62  1  0  0  0
 60137  1  0  0  0
 60138  1  0  0  0
 60139  1  0  0  0
 61140  1  0  0  0
 61141  1  0  0  0
 61142  1  0  0  0
 62143  1  0  0  0
 62144  1  0  0  0
 62145  1  0  0  0
 63 65  1  0  0  0
 63146  1  0  0  0
 63147  1  0  0  0
 63148  1  0  0  0
 64149  1  0  0  0
 65150  1  0  0  0
 68 85  1  0  0  0
 71 73  2  0  0  0
 71 74  1  0  0  0
 71151  1  0  0  0
 72 75  2  0  0  0
 72 76  1  0  0  0
 72152  1  0  0  0
 73 75  1  0  0  0
 73 77  1  0  0  0
 74 76  2  0  0  0
 74 81  1  0  0  0
 75 82  1  0  0  0
 76 85  1  0  0  0
 77 79  1  0  0  0
 77 89  1  0  0  0
 77153  1  0  0  0
 78 79  1  0  0  0
 78 80  1  0  0  0
 78 83  1  0  0  0
 78154  1  0  0  0
 79 90  1  0  0  0
 79155  1  0  0  0
 80 87  1  0  0  0
 80 89  1  0  0  0
 80156  1  0  0  0
 81157  1  0  0  0
 81158  1  0  0  0
 81159  1  0  0  0
 82160  1  0  0  0
 82161  1  0  0  0
 82162  1  0  0  0
 83163  1  0  0  0
 83164  1  0  0  0
 83165  1  0  0  0
 84 91  1  0  0  0
 84166  1  0  0  0
 84167  1  0  0  0
 84168  1  0  0  0
 85169  1  0  0  0
 85170  1  0  0  0
 86 88  1  0  0  0
 86171  1  0  0  0
 86172  1  0  0  0
 86 87  1  0  0  0
 87 91  1  0  0  0
 87173  1  0  0  0
 88174  1  0  0  0
 90175  1  0  0  0
M  ISO  4   1 100  68 101  85 101  88 100
M  END
> <chiral flag>
0

> <version>
0

> <s_m_source_file>
/data/baiqing/PycharmProjects/Reinvent-master-3.2/result/LINK_invent/BTK/process_docking_weight1_custom_sum_contain_oxygen_bond_distance_aromatic_linkinvent_7_9_3/rearranged_h_0154.sdf

> <i_m_source_file_index>
33

> <r_mmod_Potential_Energy-OPLS-2005>
57.6323471069336

> <r_mmod_Stretch_Energy-OPLS-2005>
38.4503211975098

> <r_mmod_Bend_Energy-OPLS-2005>
131.619567871094

> <r_mmod_Torsional_Energy-OPLS-2005>
287.457702636719

> <r_mmod_Improper_Torsional_Energy-OPLS-2005>
3.48460173606873

> <r_mmod_Van_der_Waal_Energy-OPLS-2005>
172.626602172852

> <r_mmod_Electrostatic_Energy-OPLS-2005>
-353.655059814453

> <r_mmod_Solvation_Energy-OPLS-2005>
-238.556716918945

> <b_mmod_Minimization_Converged-OPLS-2005>
0

> <r_mmod_RMS_Derivative-OPLS-2005>
4.34259033203125

$$$$
34
                    3D
 Structure written by MMmdl.
182191  0  0  1  0            999 V2000
  -30.7832  -14.3964   20.6706 C   0  0  0  0  0  0
  -30.4097  -12.2989   19.4215 C   0  0  0  0  0  0
  -29.4894  -12.5207   18.2054 C   0  0  0  0  0  0
  -28.0111  -12.3722   18.6081 C   0  0  0  0  0  0
  -27.6594  -13.2050   19.8658 C   0  0  2  0  0  0
  -28.6902  -12.9691   20.9868 C   0  0  0  0  0  0
  -25.2562  -13.8159   20.5633 C   0  0  0  0  0  0
  -24.1830  -13.0428   20.9160 C   0  0  0  0  0  0
  -24.6394  -11.6905   20.8725 C   0  0  0  0  0  0
  -23.9064  -10.4290   21.0415 C   0  0  0  0  0  0
  -24.3619   -9.4208   21.9191 C   0  0  0  0  0  0
  -23.6299   -8.2241   22.0752 C   0  0  0  0  0  0
  -22.4275   -8.0283   21.3552 C   0  0  0  0  0  0
  -21.9921   -9.0253   20.4645 C   0  0  0  0  0  0
  -22.7243  -10.2133   20.3063 C   0  0  0  0  0  0
  -21.6856   -6.0739   22.5282 C   0  0  0  0  0  0
  -21.4011   -6.5641   23.8211 C   0  0  0  0  0  0
  -21.3657   -5.6795   24.9173 C   0  0  0  0  0  0
  -21.6045   -4.3059   24.7224 C   0  0  0  0  0  0
  -21.8822   -3.8153   23.4345 C   0  0  0  0  0  0
  -21.9188   -4.6970   22.3404 C   0  0  0  0  0  0
  -22.7854  -13.5231   21.1844 C   0  0  0  0  0  0
  -22.1662   -4.2158   21.0983 F   0  0  0  0  0  0
  -21.5627   -3.4542   25.7734 F   0  0  0  0  0  0
  -30.0380  -13.2699   20.4685 N   0  0  0  0  0  0
  -26.2995  -12.9329   20.3284 N   0  0  0  0  0  0
  -25.9313  -11.6490   20.5724 N   0  0  0  0  0  0
  -22.0507  -12.8218   22.0403 N   0  0  0  0  0  0
  -25.4239  -15.1867   20.4013 N   0  0  0  0  0  0
  -31.8191  -14.6013   20.0285 O   0  0  0  0  0  0
  -21.6637   -6.8881   21.4244 O   0  0  0  0  0  0
  -22.3534  -14.5536   20.6697 O   0  0  0  0  0  0
  -24.6119  -31.8701   23.2132 C   0  0  0  0  0  0
  -25.9021  -32.4834   23.8420 C   0  0  1  0  0  0
  -27.2251  -27.4497   20.0936 C   0  0  0  0  0  0
  -25.5884  -33.8631   24.2357 N   0  0  0  0  0  0
  -23.3997  -30.4949   21.5548 C   0  0  2  0  0  0
  -24.8421  -28.9679   20.1138 C   0  0  0  0  0  0
  -22.7414  -29.4661   22.5024 C   0  0  0  0  0  0
  -18.0267  -28.1374   22.8496 C   0  0  0  0  0  0
  -24.1486  -36.7330   23.2641 C   0  0  0  0  0  0
  -25.9269  -30.8422   21.3633 C   0  0  0  0  0  0
  -26.0017  -29.4789   20.7088 C   0  0  0  0  0  0
  -27.1961  -28.7250   20.6974 C   0  0  0  0  0  0
  -26.0482  -26.9555   19.4810 C   0  0  0  0  0  0
  -24.8589  -27.7053   19.4989 C   0  0  0  0  0  0
  -23.6046  -29.8319   20.1680 C   0  0  0  0  0  0
  -25.4106  -36.3143   24.0351 C   0  0  1  0  0  0
  -20.5862  -28.3649   23.1336 C   0  0  2  0  0  0
  -20.6763  -26.9390   22.5435 C   0  0  0  0  0  0
  -19.5744  -26.6384   21.5225 C   0  0  0  0  0  0
  -18.1909  -26.7916   22.1622 C   0  0  0  0  0  0
  -19.1519  -28.8828   23.2903 C   0  0  0  0  0  0
  -18.9453  -30.1428   23.8914 C   0  0  0  0  0  0
  -17.6459  -30.6576   24.0563 C   0  0  0  0  0  0
  -25.9035  -34.9491   23.5163 C   0  0  0  0  0  0
  -16.5349  -29.9078   23.6322 C   0  0  0  0  0  0
  -16.7259  -28.6496   23.0347 C   0  0  0  0  0  0
  -26.4451  -31.6606   25.0736 C   0  0  0  0  0  0
  -25.3712  -31.3693   26.1485 C   0  0  0  0  0  0
  -27.0293  -30.3065   24.6081 C   0  0  0  0  0  0
  -27.6042  -32.4319   25.7477 C   0  0  0  0  0  0
  -27.5590  -37.1803   24.8464 C   0  0  0  0  0  0
  -21.4145  -29.3013   22.3745 N   0  0  0  0  0  0
  -26.4304  -37.3811   23.9411 N   0  0  0  0  0  0
  -24.6644  -31.0807   22.1035 N   0  0  0  0  0  0
  -23.4183  -28.8185   23.3046 O   0  0  0  0  0  0
  -28.3975  -26.7287   20.1275 O   0  0  0  0  0  0
  -26.5593  -34.8931   22.4726 O   0  0  0  0  0  0
  -23.5314  -32.1463   23.7526 O   0  0  0  0  0  0
  -30.2161  -20.6377   23.6745 C   0  0  0  0  0  0
  -28.9265  -22.4885   22.7334 C   0  0  0  0  0  0
  -30.6366  -21.3889   21.3976 C   0  0  0  0  0  0
  -29.1983  -21.6065   23.8012 C   0  0  0  0  0  0
  -30.9346  -20.5145   22.4633 C   0  0  0  0  0  0
  -29.6655  -22.3965   21.5341 C   0  0  0  0  0  0
  -30.0171  -15.1123   22.9106 C   0  0  0  0  0  0
  -30.8022  -16.1537   23.6976 C   0  0  1  0  0  0
  -30.7810  -17.3755   22.7817 C   0  0  2  0  0  0
  -30.7276  -16.7785   21.3503 C   0  0  2  0  0  0
  -28.3954  -21.6973   25.0835 C   0  0  0  0  0  0
  -30.2262  -16.4016   25.1009 C   0  0  0  0  0  0
  -33.4155  -20.2146   22.6433 C   0  0  0  0  0  0
  -30.0571  -17.2461   18.9043 C   0  0  0  0  0  0
  -28.2906  -17.3924   20.6978 C   0  0  0  0  0  0
  -28.2842  -25.3062   20.0396 C   0  0  0  0  0  0
  -29.4675  -24.6400   20.7504 C   0  0  0  0  0  0
  -32.0877  -19.5255   22.2895 C   0  0  1  0  0  0
  -29.7890  -17.5674   20.3853 C   0  0  0  0  0  0
  -30.2940  -15.3643   21.4920 N   0  0  0  0  0  0
  -31.9421  -18.2639   23.0534 N   0  3  0  0  0  0
  -29.4676  -23.2407   20.4692 O   0  0  0  0  0  0
  -31.4552  -12.3756   19.1185 H   0  0  0  0  0  0
  -30.2969  -11.2829   19.8032 H   0  0  0  0  0  0
  -29.7328  -11.8112   17.4134 H   0  0  0  0  0  0
  -29.6588  -13.5155   17.7894 H   0  0  0  0  0  0
  -27.8190  -11.3149   18.7956 H   0  0  0  0  0  0
  -27.3641  -12.6553   17.7766 H   0  0  0  0  0  0
  -27.7107  -14.2540   19.5760 H   0  0  0  0  0  0
  -28.6572  -11.9304   21.3186 H   0  0  0  0  0  0
  -28.3955  -13.5480   21.8536 H   0  0  0  0  0  0
  -25.2769   -9.5675   22.4762 H   0  0  0  0  0  0
  -24.0004   -7.4630   22.7476 H   0  0  0  0  0  0
  -21.0848   -8.8779   19.8951 H   0  0  0  0  0  0
  -22.3715  -10.9673   19.6166 H   0  0  0  0  0  0
  -21.2009   -7.6147   23.9721 H   0  0  0  0  0  0
  -21.1474   -6.0521   25.9075 H   0  0  0  0  0  0
  -22.0605   -2.7615   23.2843 H   0  0  0  0  0  0
  -22.4114  -11.9867   22.4772 H   0  0  0  0  0  0
  -21.1131  -13.1246   22.2627 H   0  0  0  0  0  0
  -24.6573  -15.8407   20.5137 H   0  0  0  0  0  0
  -26.2759  -15.6273   20.0815 H   0  0  0  0  0  0
  -26.7078  -32.5567   23.1179 H   0  0  0  0  0  0
  -24.9996  -33.9798   25.0478 H   0  0  0  0  0  0
  -22.6870  -31.3099   21.4194 H   0  0  0  0  0  0
  -23.3751  -35.9658   23.3324 H   0  0  0  0  0  0
  -24.3576  -36.8934   22.2053 H   0  0  0  0  0  0
  -23.7220  -37.6525   23.6637 H   0  0  0  0  0  0
  -26.0349  -31.6097   20.5965 H   0  0  0  0  0  0
  -26.8170  -30.8962   21.9792 H   0  0  0  0  0  0
  -28.0920  -29.1100   21.1645 H   0  0  0  0  0  0
  -26.0309  -25.9965   18.9829 H   0  0  0  0  0  0
  -23.9661  -27.3070   19.0337 H   0  0  0  0  0  0
  -23.7093  -30.6072   19.4088 H   0  0  0  0  0  0
  -22.7271  -29.2509   19.8763 H   0  0  0  0  0  0
  -25.1265  -36.2029   25.0838 H   0  0  0  0  0  0
  -20.9936  -28.3221   24.1466 H   0  0  0  0  0  0
  -20.5703  -26.2246   23.3615 H   0  0  0  0  0  0
  -21.6616  -26.7456   22.1184 H   0  0  0  0  0  0
  -19.6922  -25.6309   21.1221 H   0  0  0  0  0  0
  -19.6690  -27.3226   20.6784 H   0  0  0  0  0  0
  -17.4187  -26.6686   21.4010 H   0  0  0  0  0  0
  -18.0276  -26.0065   22.9021 H   0  0  0  0  0  0
  -19.7938  -30.7218   24.2301 H   0  0  0  0  0  0
  -17.5021  -31.6261   24.5154 H   0  0  0  0  0  0
  -15.5341  -30.2976   23.7649 H   0  0  0  0  0  0
  -15.8664  -28.0812   22.7061 H   0  0  0  0  0  0
  -24.5890  -30.7053   25.7801 H   0  0  0  0  0  0
  -24.8885  -32.2832   26.4947 H   0  0  0  0  0  0
  -25.8054  -30.8831   27.0234 H   0  0  0  0  0  0
  -26.2844  -29.6809   24.1152 H   0  0  0  0  0  0
  -27.4115  -29.7306   25.4512 H   0  0  0  0  0  0
  -27.8645  -30.4416   23.9209 H   0  0  0  0  0  0
  -27.2698  -33.3624   26.2073 H   0  0  0  0  0  0
  -28.3822  -32.6875   25.0274 H   0  0  0  0  0  0
  -28.0742  -31.8431   26.5363 H   0  0  0  0  0  0
  -28.2593  -38.0110   24.7527 H   0  0  0  0  0  0
  -28.1099  -36.2637   24.6276 H   0  0  0  0  0  0
  -27.2304  -37.1456   25.8864 H   0  0  0  0  0  0
  -20.9308  -29.8750   21.6982 H   0  0  0  0  0  0
  -26.0220  -38.2901   24.1400 H   0  0  0  0  0  0
  -30.4319  -19.9915   24.5133 H   0  0  0  0  0  0
  -28.1491  -23.2311   22.8382 H   0  0  0  0  0  0
  -31.1965  -21.3226   20.4758 H   0  0  0  0  0  0
  -28.9485  -15.2509   23.0829 H   0  0  0  0  0  0
  -30.2814  -14.1014   23.2283 H   0  0  0  0  0  0
  -31.8261  -15.7862   23.7920 H   0  0  0  0  0  0
  -29.8639  -17.9294   22.9792 H   0  0  0  0  0  0
  -31.7428  -16.8177   20.9511 H   0  0  0  0  0  0
  -28.9546  -21.3008   25.9311 H   0  0  0  0  0  0
  -27.4708  -21.1270   24.9891 H   0  0  0  0  0  0
  -28.1359  -22.7311   25.3114 H   0  0  0  0  0  0
  -29.2017  -16.7735   25.0540 H   0  0  0  0  0  0
  -30.8188  -17.1306   25.6541 H   0  0  0  0  0  0
  -30.2146  -15.4799   25.6834 H   0  0  0  0  0  0
  -33.5630  -21.1063   22.0328 H   0  0  0  0  0  0
  -34.2683  -19.5598   22.4667 H   0  0  0  0  0  0
  -33.4425  -20.5269   23.6882 H   0  0  0  0  0  0
  -31.1094  -17.3803   18.6513 H   0  0  0  0  0  0
  -29.4849  -17.9085   18.2531 H   0  0  0  0  0  0
  -29.7795  -16.2238   18.6464 H   0  0  0  0  0  0
  -28.0365  -17.7196   21.7058 H   0  0  0  0  0  0
  -27.9787  -16.3540   20.6054 H   0  0  0  0  0  0
  -27.6764  -17.9781   20.0130 H   0  0  0  0  0  0
  -27.3676  -24.9364   20.5009 H   0  0  0  0  0  0
  -28.2673  -25.0180   18.9871 H   0  0  0  0  0  0
  -29.4477  -24.8774   21.8145 H   0  0  0  0  0  0
  -30.4017  -25.0487   20.3660 H   0  0  0  0  0  0
  -32.1407  -19.2576   21.2333 H   0  0  0  0  0  0
  -30.0071  -18.6281   20.4981 H   0  0  0  0  0  0
  -32.7801  -17.7287   22.8946 H   0  0  0  0  0  0
  -31.9339  -18.5003   24.0312 H   0  0  0  0  0  0
  1 25  1  0  0  0
  1 30  2  0  0  0
  1 90  1  0  0  0
  2  3  1  0  0  0
  2 25  1  0  0  0
  2 93  1  0  0  0
  2 94  1  0  0  0
  3  4  1  0  0  0
  3 95  1  0  0  0
  3 96  1  0  0  0
  4  5  1  0  0  0
  4 97  1  0  0  0
  4 98  1  0  0  0
  5  6  1  0  0  0
  5 26  1  0  0  0
  5 99  1  0  0  0
  6 25  1  0  0  0
  6100  1  0  0  0
  6101  1  0  0  0
  7  8  2  0  0  0
  7 26  1  0  0  0
  7 29  1  0  0  0
  8  9  1  0  0  0
  8 22  1  0  0  0
  9 10  1  0  0  0
  9 27  2  0  0  0
 10 11  2  0  0  0
 10 15  1  0  0  0
 11 12  1  0  0  0
 11102  1  0  0  0
 12 13  2  0  0  0
 12103  1  0  0  0
 13 14  1  0  0  0
 13 31  1  0  0  0
 14 15  2  0  0  0
 14104  1  0  0  0
 15105  1  0  0  0
 16 17  2  0  0  0
 16 21  1  0  0  0
 16 31  1  0  0  0
 17 18  1  0  0  0
 17106  1  0  0  0
 18 19  2  0  0  0
 18107  1  0  0  0
 19 20  1  0  0  0
 19 24  1  0  0  0
 20 21  2  0  0  0
 20108  1  0  0  0
 21 23  1  0  0  0
 22 28  1  0  0  0
 22 32  2  0  0  0
 26 27  1  0  0  0
 28109  1  0  0  0
 28110  1  0  0  0
 29111  1  0  0  0
 29112  1  0  0  0
 33 34  1  0  0  0
 33 66  1  0  0  0
 33 70  2  0  0  0
 34 36  1  0  0  0
 34 59  1  0  0  0
 34113  1  0  0  0
 35 44  2  0  0  0
 35 45  1  0  0  0
 35 68  1  0  0  0
 36 56  1  0  0  0
 36114  1  0  0  0
 37 39  1  0  0  0
 37 47  1  0  0  0
 37 66  1  0  0  0
 37115  1  0  0  0
 38 43  2  0  0  0
 38 46  1  0  0  0
 38 47  1  0  0  0
 39 64  1  0  0  0
 39 67  2  0  0  0
 40 52  1  0  0  0
 40 53  2  0  0  0
 40 58  1  0  0  0
 41116  1  0  0  0
 41117  1  0  0  0
 41118  1  0  0  0
 41 48  1  0  0  0
 42 43  1  0  0  0
 42 66  1  0  0  0
 42119  1  0  0  0
 42120  1  0  0  0
 43 44  1  0  0  0
 44121  1  0  0  0
 45 46  2  0  0  0
 45122  1  0  0  0
 46123  1  0  0  0
 47124  1  0  0  0
 47125  1  0  0  0
 48 56  1  0  0  0
 48 65  1  0  0  0
 48126  1  0  0  0
 49 50  1  0  0  0
 49 53  1  0  0  0
 49 64  1  0  0  0
 49127  1  0  0  0
 50 51  1  0  0  0
 50128  1  0  0  0
 50129  1  0  0  0
 51 52  1  0  0  0
 51130  1  0  0  0
 51131  1  0  0  0
 52132  1  0  0  0
 52133  1  0  0  0
 53 54  1  0  0  0
 54 55  2  0  0  0
 54134  1  0  0  0
 55 57  1  0  0  0
 55135  1  0  0  0
 56 69  2  0  0  0
 57 58  2  0  0  0
 57136  1  0  0  0
 58137  1  0  0  0
 59 60  1  0  0  0
 59 61  1  0  0  0
 59 62  1  0  0  0
 60138  1  0  0  0
 60139  1  0  0  0
 60140  1  0  0  0
 61141  1  0  0  0
 61142  1  0  0  0
 61143  1  0  0  0
 62144  1  0  0  0
 62145  1  0  0  0
 62146  1  0  0  0
 63 65  1  0  0  0
 63147  1  0  0  0
 63148  1  0  0  0
 63149  1  0  0  0
 64150  1  0  0  0
 65151  1  0  0  0
 68 86  1  0  0  0
 71 74  2  0  0  0
 71 75  1  0  0  0
 71152  1  0  0  0
 72 74  1  0  0  0
 72 76  2  0  0  0
 72153  1  0  0  0
 73 75  2  0  0  0
 73 76  1  0  0  0
 73154  1  0  0  0
 74 81  1  0  0  0
 75 88  1  0  0  0
 76 92  1  0  0  0
 77 78  1  0  0  0
 77 90  1  0  0  0
 77155  1  0  0  0
 77156  1  0  0  0
 78 79  1  0  0  0
 78 82  1  0  0  0
 78157  1  0  0  0
 79 80  1  0  0  0
 79 91  1  0  0  0
 79158  1  0  0  0
 80 89  1  0  0  0
 80 90  1  0  0  0
 80159  1  0  0  0
 81160  1  0  0  0
 81161  1  0  0  0
 81162  1  0  0  0
 82163  1  0  0  0
 82164  1  0  0  0
 82165  1  0  0  0
 83166  1  0  0  0
 83167  1  0  0  0
 83168  1  0  0  0
 83 88  1  0  0  0
 84169  1  0  0  0
 84170  1  0  0  0
 84171  1  0  0  0
 84 89  1  0  0  0
 85 89  1  0  0  0
 85172  1  0  0  0
 85173  1  0  0  0
 85174  1  0  0  0
 86 87  1  0  0  0
 86175  1  0  0  0
 86176  1  0  0  0
 87 92  1  0  0  0
 87177  1  0  0  0
 87178  1  0  0  0
 88 91  1  0  0  0
 88179  1  0  0  0
 89180  1  0  0  0
 91181  1  0  0  0
 91182  1  0  0  0
M  CHG  1  91   1
M  ISO  4   1 100  68 101  86 101  90 100
M  END
> <chiral flag>
0

> <version>
0

> <s_m_source_file>
/data/baiqing/PycharmProjects/Reinvent-master-3.2/result/LINK_invent/BTK/process_docking_weight1_custom_sum_contain_oxygen_bond_distance_aromatic_linkinvent_7_9_3/rearranged_h_0154.sdf

> <i_m_source_file_index>
34

> <r_mmod_Potential_Energy-OPLS-2005>
8.21575164794922

> <r_mmod_Stretch_Energy-OPLS-2005>
39.1817817687988

> <r_mmod_Bend_Energy-OPLS-2005>
133.062210083008

> <r_mmod_Torsional_Energy-OPLS-2005>
377.059020996094

> <r_mmod_Improper_Torsional_Energy-OPLS-2005>
6.08441495895386

> <r_mmod_Van_der_Waal_Energy-OPLS-2005>
147.622665405273

> <r_mmod_Electrostatic_Energy-OPLS-2005>
-285.840393066406

> <r_mmod_Solvation_Energy-OPLS-2005>
-418.887512207031

> <b_mmod_Minimization_Converged-OPLS-2005>
0

> <r_mmod_RMS_Derivative-OPLS-2005>
2.2672176361084

$$$$
35
                    3D
 Structure written by MMmdl.
166175  0  0  1  0            999 V2000
  -30.5173  -14.9569   20.4202 C   0  0  0  0  0  0
  -30.4494  -12.5937   19.4881 C   0  0  0  0  0  0
  -29.5245  -12.5324   18.2492 C   0  0  0  0  0  0
  -28.0569  -12.3140   18.6671 C   0  0  0  0  0  0
  -27.6309  -13.2429   19.8340 C   0  0  2  0  0  0
  -28.6764  -13.2616   20.9698 C   0  0  0  0  0  0
  -25.2468  -13.8195   20.5690 C   0  0  0  0  0  0
  -24.1784  -13.0423   20.9220 C   0  0  0  0  0  0
  -24.6392  -11.6908   20.8741 C   0  0  0  0  0  0
  -23.9073  -10.4283   21.0397 C   0  0  0  0  0  0
  -24.3622   -9.4202   21.9177 C   0  0  0  0  0  0
  -23.6297   -8.2240   22.0751 C   0  0  0  0  0  0
  -22.4280   -8.0277   21.3543 C   0  0  0  0  0  0
  -21.9912   -9.0248   20.4643 C   0  0  0  0  0  0
  -22.7242  -10.2126   20.3048 C   0  0  0  0  0  0
  -21.6858   -6.0733   22.5278 C   0  0  0  0  0  0
  -21.4016   -6.5634   23.8212 C   0  0  0  0  0  0
  -21.3658   -5.6784   24.9175 C   0  0  0  0  0  0
  -21.6045   -4.3047   24.7226 C   0  0  0  0  0  0
  -21.8815   -3.8142   23.4344 C   0  0  0  0  0  0
  -21.9191   -4.6959   22.3400 C   0  0  0  0  0  0
  -22.7801  -13.5198   21.1880 C   0  0  0  0  0  0
  -22.1659   -4.2141   21.0980 F   0  0  0  0  0  0
  -21.5630   -3.4533   25.7741 F   0  0  0  0  0  0
  -29.9503  -13.6832   20.3704 N   0  0  0  0  0  0
  -26.2893  -12.9417   20.3212 N   0  0  0  0  0  0
  -25.9326  -11.6550   20.5717 N   0  0  0  0  0  0
  -22.0445  -12.8200   22.0442 N   0  0  0  0  0  0
  -25.4094  -15.1928   20.4103 N   0  0  0  0  0  0
  -31.7314  -15.0435   20.1950 O   0  0  0  0  0  0
  -21.6638   -6.8878   21.4243 O   0  0  0  0  0  0
  -22.3482  -14.5500   20.6717 O   0  0  0  0  0  0
  -24.6444  -31.8426   23.1883 C   0  0  0  0  0  0
  -25.9213  -32.4686   23.8270 C   0  0  1  0  0  0
  -27.2171  -27.1248   20.1524 C   0  0  0  0  0  0
  -25.5957  -33.8491   24.2183 N   0  0  0  0  0  0
  -23.4485  -30.4630   21.5338 C   0  0  2  0  0  0
  -24.8988  -28.8875   20.1132 C   0  0  0  0  0  0
  -22.7570  -29.4542   22.4854 C   0  0  0  0  0  0
  -18.0303  -28.1399   22.8482 C   0  0  0  0  0  0
  -24.1494  -36.7254   23.2641 C   0  0  0  0  0  0
  -26.0061  -30.7131   21.3890 C   0  0  0  0  0  0
  -26.0775  -29.3225   20.7322 C   0  0  0  0  0  0
  -27.2383  -28.4584   20.7334 C   0  0  0  0  0  0
  -26.0146  -26.7998   19.4862 C   0  0  0  0  0  0
  -24.8809  -27.6401   19.4733 C   0  0  0  0  0  0
  -23.6765  -29.7920   20.1538 C   0  0  0  0  0  0
  -25.4124  -36.3026   24.0313 C   0  0  1  0  0  0
  -20.5916  -28.3723   23.1232 C   0  0  2  0  0  0
  -20.6792  -26.9423   22.5405 C   0  0  0  0  0  0
  -19.5765  -26.6382   21.5215 C   0  0  0  0  0  0
  -18.1946  -26.7940   22.1625 C   0  0  0  0  0  0
  -19.1559  -28.8877   23.2853 C   0  0  0  0  0  0
  -18.9477  -30.1475   23.8878 C   0  0  0  0  0  0
  -17.6471  -30.6596   24.0555 C   0  0  0  0  0  0
  -25.9075  -34.9400   23.5056 C   0  0  0  0  0  0
  -16.5362  -29.9088   23.6334 C   0  0  0  0  0  0
  -16.7285  -28.6504   23.0359 C   0  0  0  0  0  0
  -26.4531  -31.6555   25.0713 C   0  0  0  0  0  0
  -25.3710  -31.3753   26.1402 C   0  0  0  0  0  0
  -27.0395  -30.2946   24.6308 C   0  0  0  0  0  0
  -27.6055  -32.4321   25.7506 C   0  0  0  0  0  0
  -27.5574  -37.1786   24.8462 C   0  0  0  0  0  0
  -21.4258  -29.3049   22.3602 N   0  0  0  0  0  0
  -26.4287  -37.3737   23.9407 N   0  0  0  0  0  0
  -24.7198  -31.0269   22.0925 N   0  0  0  0  0  0
  -23.4206  -28.8080   23.3003 O   0  0  0  0  0  0
  -28.2700  -26.1344   20.1893 O   0  0  0  0  0  0
  -26.5659  -34.8899   22.4635 O   0  0  0  0  0  0
  -23.5559  -32.1305   23.7096 O   0  0  0  0  0  0
  -29.2761  -20.0228   19.7571 C   0  0  0  0  0  0
  -29.2559  -20.5261   21.0684 C   0  0  0  0  0  0
  -29.4863  -18.5809   19.5251 C   0  0  0  0  0  0
  -29.5154  -19.5350   22.0659 C   0  0  0  0  0  0
  -29.7236  -17.6126   20.5971 C   0  0  0  0  0  0
  -29.0585  -21.0931   18.7176 C   0  0  0  0  0  0
  -28.9173  -22.4593   18.8789 C   0  0  0  0  0  0
  -28.8952  -22.0670   21.3773 C   0  0  0  0  0  0
  -28.9474  -23.2298   20.2395 C   0  0  2  0  0  0
  -29.4277  -18.0773   18.0909 C   0  0  0  0  0  0
  -29.5307  -19.9328   23.5284 C   0  0  0  0  0  0
  -30.0197  -23.2103   16.7149 C   0  0  0  0  0  0
  -27.4854  -23.1278   16.9003 C   0  0  0  0  0  0
  -27.9663  -24.6130   20.4040 C   0  0  0  0  0  0
  -28.8068  -23.3591   17.6482 C   0  0  0  0  0  0
  -29.7358  -18.1900   21.8363 N   0  0  0  0  0  0
  -29.6528  -16.0878   20.4404 N   0  0  0  0  0  0
  -31.4808  -12.7663   19.1764 H   0  0  0  0  0  0
  -30.4546  -11.6393   20.0168 H   0  0  0  0  0  0
  -29.8473  -11.7385   17.5747 H   0  0  0  0  0  0
  -29.6088  -13.4632   17.6857 H   0  0  0  0  0  0
  -27.9548  -11.2719   18.9729 H   0  0  0  0  0  0
  -27.3936  -12.4462   17.8110 H   0  0  0  0  0  0
  -27.5929  -14.2453   19.4067 H   0  0  0  0  0  0
  -28.7650  -12.2804   21.4391 H   0  0  0  0  0  0
  -28.3763  -13.9543   21.7582 H   0  0  0  0  0  0
  -25.2770   -9.5682   22.4746 H   0  0  0  0  0  0
  -24.0003   -7.4631   22.7471 H   0  0  0  0  0  0
  -21.0841   -8.8765   19.8954 H   0  0  0  0  0  0
  -22.3697  -10.9660   19.6153 H   0  0  0  0  0  0
  -21.2014   -7.6142   23.9717 H   0  0  0  0  0  0
  -21.1483   -6.0515   25.9077 H   0  0  0  0  0  0
  -22.0599   -2.7605   23.2845 H   0  0  0  0  0  0
  -22.4068  -11.9880   22.4859 H   0  0  0  0  0  0
  -21.1051  -13.1215   22.2618 H   0  0  0  0  0  0
  -24.6299  -15.8334   20.5175 H   0  0  0  0  0  0
  -26.2348  -15.6407   20.0371 H   0  0  0  0  0  0
  -26.7276  -32.5296   23.0993 H   0  0  0  0  0  0
  -25.0074  -33.9601   25.0313 H   0  0  0  0  0  0
  -22.7521  -31.2899   21.3783 H   0  0  0  0  0  0
  -23.3757  -35.9584   23.3284 H   0  0  0  0  0  0
  -24.3576  -36.8908   22.2059 H   0  0  0  0  0  0
  -23.7250  -37.6446   23.6690 H   0  0  0  0  0  0
  -26.1615  -31.4658   20.6146 H   0  0  0  0  0  0
  -26.8768  -30.7646   22.0314 H   0  0  0  0  0  0
  -28.1369  -28.7875   21.2360 H   0  0  0  0  0  0
  -25.9206  -25.8606   18.9639 H   0  0  0  0  0  0
  -23.9854  -27.3084   18.9657 H   0  0  0  0  0  0
  -23.8151  -30.5661   19.3979 H   0  0  0  0  0  0
  -22.7913  -29.2352   19.8415 H   0  0  0  0  0  0
  -25.1313  -36.1847   25.0804 H   0  0  0  0  0  0
  -21.0013  -28.3320   24.1350 H   0  0  0  0  0  0
  -20.5696  -26.2330   23.3625 H   0  0  0  0  0  0
  -21.6658  -26.7439   22.1192 H   0  0  0  0  0  0
  -19.6927  -25.6288   21.1259 H   0  0  0  0  0  0
  -19.6707  -27.3181   20.6738 H   0  0  0  0  0  0
  -17.4216  -26.6678   21.4031 H   0  0  0  0  0  0
  -18.0344  -26.0091   22.9028 H   0  0  0  0  0  0
  -19.7949  -30.7296   24.2246 H   0  0  0  0  0  0
  -17.5022  -31.6276   24.5159 H   0  0  0  0  0  0
  -15.5359  -30.2982   23.7674 H   0  0  0  0  0  0
  -15.8685  -28.0816   22.7085 H   0  0  0  0  0  0
  -24.5892  -30.7097   25.7721 H   0  0  0  0  0  0
  -24.8897  -32.2940   26.4766 H   0  0  0  0  0  0
  -25.7986  -30.8964   27.0220 H   0  0  0  0  0  0
  -26.3015  -29.6666   24.1303 H   0  0  0  0  0  0
  -27.3982  -29.7246   25.4890 H   0  0  0  0  0  0
  -27.8935  -30.4167   23.9641 H   0  0  0  0  0  0
  -27.2640  -33.3636   26.2027 H   0  0  0  0  0  0
  -28.3902  -32.6857   25.0367 H   0  0  0  0  0  0
  -28.0680  -31.8485   26.5474 H   0  0  0  0  0  0
  -28.2577  -38.0096   24.7505 H   0  0  0  0  0  0
  -28.1084  -36.2621   24.6289 H   0  0  0  0  0  0
  -27.2287  -37.1430   25.8864 H   0  0  0  0  0  0
  -20.9465  -29.8753   21.6777 H   0  0  0  0  0  0
  -26.0148  -38.2803   24.1415 H   0  0  0  0  0  0
  -29.0357  -20.7242   17.7039 H   0  0  0  0  0  0
  -29.4877  -22.4010   22.2290 H   0  0  0  0  0  0
  -27.8689  -22.0392   21.7448 H   0  0  0  0  0  0
  -29.9669  -23.6144   20.2816 H   0  0  0  0  0  0
  -30.2013  -18.5592   17.4922 H   0  0  0  0  0  0
  -28.4593  -18.3063   17.6454 H   0  0  0  0  0  0
  -29.5816  -17.0018   18.0131 H   0  0  0  0  0  0
  -30.3679  -20.6006   23.7310 H   0  0  0  0  0  0
  -29.6247  -19.0656   24.1821 H   0  0  0  0  0  0
  -28.6082  -20.4490   23.7935 H   0  0  0  0  0  0
  -30.9523  -23.3774   17.2551 H   0  0  0  0  0  0
  -29.9819  -23.9407   15.9060 H   0  0  0  0  0  0
  -30.0724  -22.2217   16.2591 H   0  0  0  0  0  0
  -26.6288  -23.2736   17.5589 H   0  0  0  0  0  0
  -27.4235  -22.1177   16.4937 H   0  0  0  0  0  0
  -27.3776  -23.8239   16.0677 H   0  0  0  0  0  0
  -27.6472  -24.5929   21.4464 H   0  0  0  0  0  0
  -27.0558  -24.3620   19.8663 H   0  0  0  0  0  0
  -28.8141  -24.3987   17.9759 H   0  0  0  0  0  0
  -28.6984  -15.7710   20.4544 H   0  0  0  0  0  0
  1 25  1  0  0  0
  1 30  2  0  0  0
  1 87  1  0  0  0
  2  3  1  0  0  0
  2 25  1  0  0  0
  2 88  1  0  0  0
  2 89  1  0  0  0
  3  4  1  0  0  0
  3 90  1  0  0  0
  3 91  1  0  0  0
  4  5  1  0  0  0
  4 92  1  0  0  0
  4 93  1  0  0  0
  5  6  1  0  0  0
  5 26  1  0  0  0
  5 94  1  0  0  0
  6 25  1  0  0  0
  6 95  1  0  0  0
  6 96  1  0  0  0
  7  8  2  0  0  0
  7 26  1  0  0  0
  7 29  1  0  0  0
  8  9  1  0  0  0
  8 22  1  0  0  0
  9 10  1  0  0  0
  9 27  2  0  0  0
 10 11  2  0  0  0
 10 15  1  0  0  0
 11 12  1  0  0  0
 11 97  1  0  0  0
 12 13  2  0  0  0
 12 98  1  0  0  0
 13 14  1  0  0  0
 13 31  1  0  0  0
 14 15  2  0  0  0
 14 99  1  0  0  0
 15100  1  0  0  0
 16 17  2  0  0  0
 16 21  1  0  0  0
 16 31  1  0  0  0
 17 18  1  0  0  0
 17101  1  0  0  0
 18 19  2  0  0  0
 18102  1  0  0  0
 19 20  1  0  0  0
 19 24  1  0  0  0
 20 21  2  0  0  0
 20103  1  0  0  0
 21 23  1  0  0  0
 22 28  1  0  0  0
 22 32  2  0  0  0
 26 27  1  0  0  0
 28104  1  0  0  0
 28105  1  0  0  0
 29106  1  0  0  0
 29107  1  0  0  0
 33 34  1  0  0  0
 33 66  1  0  0  0
 33 70  2  0  0  0
 34 36  1  0  0  0
 34 59  1  0  0  0
 34108  1  0  0  0
 35 44  2  0  0  0
 35 45  1  0  0  0
 35 68  1  0  0  0
 36 56  1  0  0  0
 36109  1  0  0  0
 37 39  1  0  0  0
 37 47  1  0  0  0
 37 66  1  0  0  0
 37110  1  0  0  0
 38 43  2  0  0  0
 38 46  1  0  0  0
 38 47  1  0  0  0
 39 64  1  0  0  0
 39 67  2  0  0  0
 40 52  1  0  0  0
 40 53  2  0  0  0
 40 58  1  0  0  0
 41111  1  0  0  0
 41112  1  0  0  0
 41113  1  0  0  0
 41 48  1  0  0  0
 42 43  1  0  0  0
 42 66  1  0  0  0
 42114  1  0  0  0
 42115  1  0  0  0
 43 44  1  0  0  0
 44116  1  0  0  0
 45 46  2  0  0  0
 45117  1  0  0  0
 46118  1  0  0  0
 47119  1  0  0  0
 47120  1  0  0  0
 48 56  1  0  0  0
 48 65  1  0  0  0
 48121  1  0  0  0
 49 50  1  0  0  0
 49 53  1  0  0  0
 49 64  1  0  0  0
 49122  1  0  0  0
 50 51  1  0  0  0
 50123  1  0  0  0
 50124  1  0  0  0
 51 52  1  0  0  0
 51125  1  0  0  0
 51126  1  0  0  0
 52127  1  0  0  0
 52128  1  0  0  0
 53 54  1  0  0  0
 54 55  2  0  0  0
 54129  1  0  0  0
 55 57  1  0  0  0
 55130  1  0  0  0
 56 69  2  0  0  0
 57 58  2  0  0  0
 57131  1  0  0  0
 58132  1  0  0  0
 59 60  1  0  0  0
 59 61  1  0  0  0
 59 62  1  0  0  0
 60133  1  0  0  0
 60134  1  0  0  0
 60135  1  0  0  0
 61136  1  0  0  0
 61137  1  0  0  0
 61138  1  0  0  0
 62139  1  0  0  0
 62140  1  0  0  0
 62141  1  0  0  0
 63 65  1  0  0  0
 63142  1  0  0  0
 63143  1  0  0  0
 63144  1  0  0  0
 64145  1  0  0  0
 65146  1  0  0  0
 68 84  1  0  0  0
 71 72  1  0  0  0
 71 73  2  0  0  0
 71 76  1  0  0  0
 72 74  2  0  0  0
 72 78  1  0  0  0
 73 75  1  0  0  0
 73 80  1  0  0  0
 74 81  1  0  0  0
 74 86  1  0  0  0
 75 86  2  0  0  0
 75 87  1  0  0  0
 76 77  2  0  0  0
 76147  1  0  0  0
 77 79  1  0  0  0
 77 85  1  0  0  0
 78 79  1  0  0  0
 78148  1  0  0  0
 78149  1  0  0  0
 79 84  1  0  0  0
 79150  1  0  0  0
 80151  1  0  0  0
 80152  1  0  0  0
 80153  1  0  0  0
 81154  1  0  0  0
 81155  1  0  0  0
 81156  1  0  0  0
 82157  1  0  0  0
 82158  1  0  0  0
 82159  1  0  0  0
 82 85  1  0  0  0
 83 85  1  0  0  0
 83160  1  0  0  0
 83161  1  0  0  0
 83162  1  0  0  0
 84163  1  0  0  0
 84164  1  0  0  0
 85165  1  0  0  0
 87166  1  0  0  0
M  ISO  4   1 100  68 101  84 101  87 100
M  END
> <chiral flag>
0

> <version>
0

> <s_m_source_file>
/data/baiqing/PycharmProjects/Reinvent-master-3.2/result/LINK_invent/BTK/process_docking_weight1_custom_sum_contain_oxygen_bond_distance_aromatic_linkinvent_7_9_3/rearranged_h_0154.sdf

> <i_m_source_file_index>
35

> <r_mmod_Potential_Energy-OPLS-2005>
346.202392578125

> <r_mmod_Stretch_Energy-OPLS-2005>
235.201766967773

> <r_mmod_Bend_Energy-OPLS-2005>
258.691711425781

> <r_mmod_Torsional_Energy-OPLS-2005>
270.050506591797

> <r_mmod_Improper_Torsional_Energy-OPLS-2005>
9.20845890045166

> <r_mmod_Van_der_Waal_Energy-OPLS-2005>
137.769744873047

> <r_mmod_Electrostatic_Energy-OPLS-2005>
-541.671813964844

> <r_mmod_Solvation_Energy-OPLS-2005>
-223.073913574219

> <b_mmod_Minimization_Converged-OPLS-2005>
0

> <r_mmod_RMS_Derivative-OPLS-2005>
1.07374060153961

$$$$
36
                    3D
 Structure written by MMmdl.
170179  0  0  1  0            999 V2000
  -30.7309  -14.4288   20.6402 C   0  0  0  0  0  0
  -30.4194  -12.3098   19.4078 C   0  0  0  0  0  0
  -29.4879  -12.5189   18.1982 C   0  0  0  0  0  0
  -28.0112  -12.3741   18.6140 C   0  0  0  0  0  0
  -27.6618  -13.2055   19.8769 C   0  0  2  0  0  0
  -28.7012  -12.9695   20.9941 C   0  0  0  0  0  0
  -25.2574  -13.8131   20.5644 C   0  0  0  0  0  0
  -24.1830  -13.0420   20.9165 C   0  0  0  0  0  0
  -24.6391  -11.6891   20.8736 C   0  0  0  0  0  0
  -23.9058  -10.4283   21.0409 C   0  0  0  0  0  0
  -24.3611   -9.4202   21.9188 C   0  0  0  0  0  0
  -23.6288   -8.2237   22.0757 C   0  0  0  0  0  0
  -22.4271   -8.0277   21.3545 C   0  0  0  0  0  0
  -21.9905   -9.0249   20.4646 C   0  0  0  0  0  0
  -22.7233  -10.2128   20.3056 C   0  0  0  0  0  0
  -21.6849   -6.0733   22.5279 C   0  0  0  0  0  0
  -21.4007   -6.5637   23.8211 C   0  0  0  0  0  0
  -21.3655   -5.6791   24.9175 C   0  0  0  0  0  0
  -21.6045   -4.3055   24.7227 C   0  0  0  0  0  0
  -21.8821   -3.8146   23.4349 C   0  0  0  0  0  0
  -21.9194   -4.6961   22.3404 C   0  0  0  0  0  0
  -22.7860  -13.5231   21.1838 C   0  0  0  0  0  0
  -22.1662   -4.2148   21.0982 F   0  0  0  0  0  0
  -21.5631   -3.4539   25.7739 F   0  0  0  0  0  0
  -30.0351  -13.2764   20.4480 N   0  0  0  0  0  0
  -26.3022  -12.9312   20.3370 N   0  0  0  0  0  0
  -25.9320  -11.6471   20.5772 N   0  0  0  0  0  0
  -22.0501  -12.8224   22.0399 N   0  0  0  0  0  0
  -25.4286  -15.1825   20.3988 N   0  0  0  0  0  0
  -31.8082  -14.6670   20.0884 O   0  0  0  0  0  0
  -21.6635   -6.8876   21.4242 O   0  0  0  0  0  0
  -22.3547  -14.5545   20.6702 O   0  0  0  0  0  0
  -24.6142  -31.8679   23.2104 C   0  0  0  0  0  0
  -25.9039  -32.4819   23.8396 C   0  0  1  0  0  0
  -27.2402  -27.4422   20.0735 C   0  0  0  0  0  0
  -25.5897  -33.8618   24.2328 N   0  0  0  0  0  0
  -23.4012  -30.4918   21.5515 C   0  0  2  0  0  0
  -24.8453  -28.9565   20.1163 C   0  0  0  0  0  0
  -22.7403  -29.4659   22.5000 C   0  0  0  0  0  0
  -18.0270  -28.1374   22.8495 C   0  0  0  0  0  0
  -24.1480  -36.7307   23.2641 C   0  0  0  0  0  0
  -25.9300  -30.8323   21.3634 C   0  0  0  0  0  0
  -26.0054  -29.4666   20.7108 C   0  0  0  0  0  0
  -27.2004  -28.7125   20.6944 C   0  0  0  0  0  0
  -26.0489  -26.9314   19.5065 C   0  0  0  0  0  0
  -24.8603  -27.6852   19.5183 C   0  0  0  0  0  0
  -23.6081  -29.8238   20.1661 C   0  0  0  0  0  0
  -25.4104  -36.3110   24.0339 C   0  0  1  0  0  0
  -20.5859  -28.3657   23.1323 C   0  0  2  0  0  0
  -20.6761  -26.9394   22.5423 C   0  0  0  0  0  0
  -19.5744  -26.6382   21.5215 C   0  0  0  0  0  0
  -18.1918  -26.7924   22.1618 C   0  0  0  0  0  0
  -19.1519  -28.8833   23.2907 C   0  0  0  0  0  0
  -18.9447  -30.1439   23.8918 C   0  0  0  0  0  0
  -17.6451  -30.6580   24.0568 C   0  0  0  0  0  0
  -25.9034  -34.9474   23.5131 C   0  0  0  0  0  0
  -16.5342  -29.9083   23.6327 C   0  0  0  0  0  0
  -16.7260  -28.6500   23.0350 C   0  0  0  0  0  0
  -26.4467  -31.6600   25.0725 C   0  0  0  0  0  0
  -25.3735  -31.3693   26.1473 C   0  0  0  0  0  0
  -27.0301  -30.3048   24.6097 C   0  0  0  0  0  0
  -27.6044  -32.4320   25.7489 C   0  0  0  0  0  0
  -27.5578  -37.1806   24.8467 C   0  0  0  0  0  0
  -21.4133  -29.3027   22.3733 N   0  0  0  0  0  0
  -26.4288  -37.3796   23.9414 N   0  0  0  0  0  0
  -24.6668  -31.0782   22.1003 N   0  0  0  0  0  0
  -23.4178  -28.8204   23.3043 O   0  0  0  0  0  0
  -28.4297  -26.7395   20.0810 O   0  0  0  0  0  0
  -26.5597  -34.8925   22.4694 O   0  0  0  0  0  0
  -23.5337  -32.1432   23.7503 O   0  0  0  0  0  0
  -29.8528  -20.5041   20.2857 C   0  0  0  0  0  0
  -27.5296  -21.6664   21.2101 C   0  0  0  0  0  0
  -27.7733  -20.2929   21.5064 C   0  0  0  0  0  0
  -28.9781  -19.6922   21.0469 C   0  0  0  0  0  0
  -28.4767  -22.3636   20.4280 C   0  0  0  0  0  0
  -26.3374  -23.7787   22.2901 C   0  0  0  0  0  0
  -25.9895  -22.5924   23.1484 C   0  0  0  0  0  0
  -26.2875  -22.3918   21.6754 C   0  0  0  0  0  0
  -27.2912  -19.0372   23.6784 C   0  0  0  0  0  0
  -26.1933  -18.2804   21.4995 C   0  0  0  0  0  0
  -30.7882  -16.5599   21.9486 C   0  0  0  0  0  0
  -30.5284  -17.8086   21.0739 C   0  0  0  0  0  0
  -28.7217  -25.8258   19.0134 C   0  0  0  0  0  0
  -29.2684  -24.4768   19.5231 C   0  0  0  0  0  0
  -26.7514  -19.4651   22.3035 C   0  0  0  0  0  0
  -29.6165  -21.7966   19.9833 N   0  0  0  0  0  0
  -30.1625  -15.3235   21.4622 N   0  0  0  0  0  0
  -29.2400  -18.3630   21.3545 O   0  0  0  0  0  0
  -28.2186  -23.6754   20.0687 O   0  0  0  0  0  0
  -31.4626  -12.4148   19.1043 H   0  0  0  0  0  0
  -30.3250  -11.2932   19.7922 H   0  0  0  0  0  0
  -29.7258  -11.8026   17.4106 H   0  0  0  0  0  0
  -29.6541  -13.5095   17.7720 H   0  0  0  0  0  0
  -27.8223  -11.3168   18.8034 H   0  0  0  0  0  0
  -27.3582  -12.6555   17.7870 H   0  0  0  0  0  0
  -27.7121  -14.2570   19.5927 H   0  0  0  0  0  0
  -28.6754  -11.9287   21.3201 H   0  0  0  0  0  0
  -28.4508  -13.5529   21.8806 H   0  0  0  0  0  0
  -25.2757   -9.5677   22.4761 H   0  0  0  0  0  0
  -23.9997   -7.4628   22.7475 H   0  0  0  0  0  0
  -21.0839   -8.8767   19.8949 H   0  0  0  0  0  0
  -22.3698  -10.9667   19.6163 H   0  0  0  0  0  0
  -21.1992   -7.6144   23.9715 H   0  0  0  0  0  0
  -21.1473   -6.0521   25.9077 H   0  0  0  0  0  0
  -22.0604   -2.7609   23.2850 H   0  0  0  0  0  0
  -22.4111  -11.9876   22.4771 H   0  0  0  0  0  0
  -21.1127  -13.1259   22.2618 H   0  0  0  0  0  0
  -24.6659  -15.8408   20.5086 H   0  0  0  0  0  0
  -26.2907  -15.6198   20.1000 H   0  0  0  0  0  0
  -26.7110  -32.5527   23.1160 H   0  0  0  0  0  0
  -25.0062  -33.9781   25.0483 H   0  0  0  0  0  0
  -22.6902  -31.3090   21.4131 H   0  0  0  0  0  0
  -23.3745  -35.9637   23.3311 H   0  0  0  0  0  0
  -24.3573  -36.8916   22.2054 H   0  0  0  0  0  0
  -23.7228  -37.6512   23.6651 H   0  0  0  0  0  0
  -26.0428  -31.5984   20.5949 H   0  0  0  0  0  0
  -26.8180  -30.8847   21.9816 H   0  0  0  0  0  0
  -28.0980  -29.1070   21.1500 H   0  0  0  0  0  0
  -26.0064  -25.9440   19.0723 H   0  0  0  0  0  0
  -23.9622  -27.2769   19.0756 H   0  0  0  0  0  0
  -23.7159  -30.5983   19.4060 H   0  0  0  0  0  0
  -22.7317  -29.2440   19.8709 H   0  0  0  0  0  0
  -25.1281  -36.1975   25.0832 H   0  0  0  0  0  0
  -20.9951  -28.3221   24.1443 H   0  0  0  0  0  0
  -20.5663  -26.2265   23.3608 H   0  0  0  0  0  0
  -21.6634  -26.7435   22.1219 H   0  0  0  0  0  0
  -19.6905  -25.6296   21.1237 H   0  0  0  0  0  0
  -19.6689  -27.3201   20.6754 H   0  0  0  0  0  0
  -17.4194  -26.6686   21.4011 H   0  0  0  0  0  0
  -18.0305  -26.0055   22.9001 H   0  0  0  0  0  0
  -19.7922  -30.7250   24.2298 H   0  0  0  0  0  0
  -17.5004  -31.6261   24.5167 H   0  0  0  0  0  0
  -15.5345  -30.2992   23.7639 H   0  0  0  0  0  0
  -15.8659  -28.0826   22.7058 H   0  0  0  0  0  0
  -24.5925  -30.7018   25.7811 H   0  0  0  0  0  0
  -24.8901  -32.2835   26.4924 H   0  0  0  0  0  0
  -25.8096  -30.8870   27.0231 H   0  0  0  0  0  0
  -26.2839  -29.6808   24.1162 H   0  0  0  0  0  0
  -27.4089  -29.7286   25.4549 H   0  0  0  0  0  0
  -27.8664  -30.4376   23.9230 H   0  0  0  0  0  0
  -27.2667  -33.3614   26.2088 H   0  0  0  0  0  0
  -28.3842  -32.6892   25.0308 H   0  0  0  0  0  0
  -28.0723  -31.8430   26.5388 H   0  0  0  0  0  0
  -28.2601  -38.0097   24.7519 H   0  0  0  0  0  0
  -28.1067  -36.2632   24.6286 H   0  0  0  0  0  0
  -27.2296  -37.1452   25.8870 H   0  0  0  0  0  0
  -20.9295  -29.8752   21.6957 H   0  0  0  0  0  0
  -26.0177  -38.2871   24.1424 H   0  0  0  0  0  0
  -30.7761  -20.1178   19.8820 H   0  0  0  0  0  0
  -27.3064  -24.2419   22.4675 H   0  0  0  0  0  0
  -25.5301  -24.4688   22.0509 H   0  0  0  0  0  0
  -24.9544  -22.5071   23.4741 H   0  0  0  0  0  0
  -26.7348  -22.2701   23.8732 H   0  0  0  0  0  0
  -25.4495  -22.1736   21.0151 H   0  0  0  0  0  0
  -27.6095  -19.9038   24.2580 H   0  0  0  0  0  0
  -28.1436  -18.3644   23.5953 H   0  0  0  0  0  0
  -26.5236  -18.5211   24.2552 H   0  0  0  0  0  0
  -25.7629  -18.6191   20.5567 H   0  0  0  0  0  0
  -25.4049  -17.7724   22.0552 H   0  0  0  0  0  0
  -26.9544  -17.5370   21.2695 H   0  0  0  0  0  0
  -30.4503  -16.7507   22.9676 H   0  0  0  0  0  0
  -31.8659  -16.4038   22.0272 H   0  0  0  0  0  0
  -30.6302  -17.5801   20.0120 H   0  0  0  0  0  0
  -31.3035  -18.5326   21.3287 H   0  0  0  0  0  0
  -27.9180  -25.6575   18.3005 H   0  0  0  0  0  0
  -29.5075  -26.3035   18.4275 H   0  0  0  0  0  0
  -30.0506  -24.6342   20.2668 H   0  0  0  0  0  0
  -29.7235  -23.9671   18.6728 H   0  0  0  0  0  0
  -25.8757  -20.0734   22.5107 H   0  0  0  0  0  0
  -29.2630  -15.0800   21.8496 H   0  0  0  0  0  0
  1 25  1  0  0  0
  1 30  2  0  0  0
  1 87  1  0  0  0
  2  3  1  0  0  0
  2 25  1  0  0  0
  2 90  1  0  0  0
  2 91  1  0  0  0
  3  4  1  0  0  0
  3 92  1  0  0  0
  3 93  1  0  0  0
  4  5  1  0  0  0
  4 94  1  0  0  0
  4 95  1  0  0  0
  5  6  1  0  0  0
  5 26  1  0  0  0
  5 96  1  0  0  0
  6 25  1  0  0  0
  6 97  1  0  0  0
  6 98  1  0  0  0
  7  8  2  0  0  0
  7 26  1  0  0  0
  7 29  1  0  0  0
  8  9  1  0  0  0
  8 22  1  0  0  0
  9 10  1  0  0  0
  9 27  2  0  0  0
 10 11  2  0  0  0
 10 15  1  0  0  0
 11 12  1  0  0  0
 11 99  1  0  0  0
 12 13  2  0  0  0
 12100  1  0  0  0
 13 14  1  0  0  0
 13 31  1  0  0  0
 14 15  2  0  0  0
 14101  1  0  0  0
 15102  1  0  0  0
 16 17  2  0  0  0
 16 21  1  0  0  0
 16 31  1  0  0  0
 17 18  1  0  0  0
 17103  1  0  0  0
 18 19  2  0  0  0
 18104  1  0  0  0
 19 20  1  0  0  0
 19 24  1  0  0  0
 20 21  2  0  0  0
 20105  1  0  0  0
 21 23  1  0  0  0
 22 28  1  0  0  0
 22 32  2  0  0  0
 26 27  1  0  0  0
 28106  1  0  0  0
 28107  1  0  0  0
 29108  1  0  0  0
 29109  1  0  0  0
 33 34  1  0  0  0
 33 66  1  0  0  0
 33 70  2  0  0  0
 34 36  1  0  0  0
 34 59  1  0  0  0
 34110  1  0  0  0
 35 44  2  0  0  0
 35 45  1  0  0  0
 35 68  1  0  0  0
 36 56  1  0  0  0
 36111  1  0  0  0
 37 39  1  0  0  0
 37 47  1  0  0  0
 37 66  1  0  0  0
 37112  1  0  0  0
 38 43  2  0  0  0
 38 46  1  0  0  0
 38 47  1  0  0  0
 39 64  1  0  0  0
 39 67  2  0  0  0
 40 52  1  0  0  0
 40 53  2  0  0  0
 40 58  1  0  0  0
 41113  1  0  0  0
 41114  1  0  0  0
 41115  1  0  0  0
 41 48  1  0  0  0
 42 43  1  0  0  0
 42 66  1  0  0  0
 42116  1  0  0  0
 42117  1  0  0  0
 43 44  1  0  0  0
 44118  1  0  0  0
 45 46  2  0  0  0
 45119  1  0  0  0
 46120  1  0  0  0
 47121  1  0  0  0
 47122  1  0  0  0
 48 56  1  0  0  0
 48 65  1  0  0  0
 48123  1  0  0  0
 49 50  1  0  0  0
 49 53  1  0  0  0
 49 64  1  0  0  0
 49124  1  0  0  0
 50 51  1  0  0  0
 50125  1  0  0  0
 50126  1  0  0  0
 51 52  1  0  0  0
 51127  1  0  0  0
 51128  1  0  0  0
 52129  1  0  0  0
 52130  1  0  0  0
 53 54  1  0  0  0
 54 55  2  0  0  0
 54131  1  0  0  0
 55 57  1  0  0  0
 55132  1  0  0  0
 56 69  2  0  0  0
 57 58  2  0  0  0
 57133  1  0  0  0
 58134  1  0  0  0
 59 60  1  0  0  0
 59 61  1  0  0  0
 59 62  1  0  0  0
 60135  1  0  0  0
 60136  1  0  0  0
 60137  1  0  0  0
 61138  1  0  0  0
 61139  1  0  0  0
 61140  1  0  0  0
 62141  1  0  0  0
 62142  1  0  0  0
 62143  1  0  0  0
 63 65  1  0  0  0
 63144  1  0  0  0
 63145  1  0  0  0
 63146  1  0  0  0
 64147  1  0  0  0
 65148  1  0  0  0
 68 83  1  0  0  0
 71 74  2  0  0  0
 71 86  1  0  0  0
 71149  1  0  0  0
 72 73  2  0  0  0
 72 75  1  0  0  0
 72 78  1  0  0  0
 73 74  1  0  0  0
 73 85  1  0  0  0
 74 88  1  0  0  0
 75 86  2  0  0  0
 75 89  1  0  0  0
 76 77  1  0  0  0
 76 78  1  0  0  0
 76150  1  0  0  0
 76151  1  0  0  0
 77 78  1  0  0  0
 77152  1  0  0  0
 77153  1  0  0  0
 78154  1  0  0  0
 79155  1  0  0  0
 79156  1  0  0  0
 79157  1  0  0  0
 79 85  1  0  0  0
 80 85  1  0  0  0
 80158  1  0  0  0
 80159  1  0  0  0
 80160  1  0  0  0
 81 82  1  0  0  0
 81 87  1  0  0  0
 81161  1  0  0  0
 81162  1  0  0  0
 82 88  1  0  0  0
 82163  1  0  0  0
 82164  1  0  0  0
 83 84  1  0  0  0
 83165  1  0  0  0
 83166  1  0  0  0
 84 89  1  0  0  0
 84167  1  0  0  0
 84168  1  0  0  0
 85169  1  0  0  0
 87170  1  0  0  0
M  ISO  4   1 100  68 101  83 101  87 100
M  END
> <chiral flag>
0

> <version>
0

> <s_m_source_file>
/data/baiqing/PycharmProjects/Reinvent-master-3.2/result/LINK_invent/BTK/process_docking_weight1_custom_sum_contain_oxygen_bond_distance_aromatic_linkinvent_7_9_3/rearranged_h_0154.sdf

> <i_m_source_file_index>
36

> <r_mmod_Potential_Energy-OPLS-2005>
-219.065689086914

> <r_mmod_Stretch_Energy-OPLS-2005>
39.8633842468262

> <r_mmod_Bend_Energy-OPLS-2005>
118.023429870605

> <r_mmod_Torsional_Energy-OPLS-2005>
218.071304321289

> <r_mmod_Improper_Torsional_Energy-OPLS-2005>
1.84848964214325

> <r_mmod_Van_der_Waal_Energy-OPLS-2005>
162.984283447266

> <r_mmod_Electrostatic_Energy-OPLS-2005>
-563.6708984375

> <r_mmod_Solvation_Energy-OPLS-2005>
-205.698364257812

> <b_mmod_Minimization_Converged-OPLS-2005>
0

> <r_mmod_RMS_Derivative-OPLS-2005>
0.387163698673248

$$$$
37
                    3D
 Structure written by MMmdl.
168178  0  0  1  0            999 V2000
  -30.6425  -14.5965   20.5181 C   0  0  0  0  0  0
  -30.4396  -12.3680   19.4447 C   0  0  0  0  0  0
  -29.5085  -12.5075   18.2197 C   0  0  0  0  0  0
  -28.0303  -12.3496   18.6300 C   0  0  0  0  0  0
  -27.6578  -13.2118   19.8657 C   0  0  2  0  0  0
  -28.7027  -13.0448   20.9935 C   0  0  0  0  0  0
  -25.2582  -13.8155   20.5668 C   0  0  0  0  0  0
  -24.1844  -13.0436   20.9193 C   0  0  0  0  0  0
  -24.6398  -11.6903   20.8732 C   0  0  0  0  0  0
  -23.9055  -10.4293   21.0402 C   0  0  0  0  0  0
  -24.3608   -9.4208   21.9182 C   0  0  0  0  0  0
  -23.6287   -8.2241   22.0753 C   0  0  0  0  0  0
  -22.4271   -8.0276   21.3544 C   0  0  0  0  0  0
  -21.9903   -9.0249   20.4650 C   0  0  0  0  0  0
  -22.7224  -10.2133   20.3054 C   0  0  0  0  0  0
  -21.6852   -6.0729   22.5277 C   0  0  0  0  0  0
  -21.4012   -6.5636   23.8210 C   0  0  0  0  0  0
  -21.3658   -5.6788   24.9173 C   0  0  0  0  0  0
  -21.6043   -4.3050   24.7224 C   0  0  0  0  0  0
  -21.8820   -3.8142   23.4346 C   0  0  0  0  0  0
  -21.9193   -4.6957   22.3400 C   0  0  0  0  0  0
  -22.7866  -13.5241   21.1843 C   0  0  0  0  0  0
  -22.1663   -4.2144   21.0978 F   0  0  0  0  0  0
  -21.5629   -3.4534   25.7737 F   0  0  0  0  0  0
  -30.0246  -13.3781   20.4361 N   0  0  0  0  0  0
  -26.3012  -12.9331   20.3314 N   0  0  0  0  0  0
  -25.9328  -11.6490   20.5742 N   0  0  0  0  0  0
  -22.0490  -12.8248   22.0398 N   0  0  0  0  0  0
  -25.4298  -15.1870   20.4041 N   0  0  0  0  0  0
  -31.7994  -14.7658   20.1226 O   0  0  0  0  0  0
  -21.6638   -6.8871   21.4240 O   0  0  0  0  0  0
  -22.3559  -14.5543   20.6677 O   0  0  0  0  0  0
  -24.6234  -31.8625   23.2058 C   0  0  0  0  0  0
  -25.9093  -32.4791   23.8376 C   0  0  1  0  0  0
  -27.2249  -27.3478   20.1068 C   0  0  0  0  0  0
  -25.5920  -33.8593   24.2301 N   0  0  0  0  0  0
  -23.4150  -30.4883   21.5485 C   0  0  2  0  0  0
  -24.8606  -28.9505   20.1116 C   0  0  0  0  0  0
  -22.7458  -29.4639   22.4953 C   0  0  0  0  0  0
  -18.0280  -28.1385   22.8488 C   0  0  0  0  0  0
  -24.1486  -36.7300   23.2638 C   0  0  0  0  0  0
  -25.9551  -30.8026   21.3726 C   0  0  0  0  0  0
  -26.0294  -29.4335   20.7131 C   0  0  0  0  0  0
  -27.2149  -28.6437   20.7016 C   0  0  0  0  0  0
  -26.0288  -26.9131   19.4850 C   0  0  0  0  0  0
  -24.8604  -27.6941   19.4905 C   0  0  0  0  0  0
  -23.6270  -29.8260   20.1628 C   0  0  0  0  0  0
  -25.4108  -36.3092   24.0333 C   0  0  1  0  0  0
  -20.5880  -28.3680   23.1296 C   0  0  2  0  0  0
  -20.6769  -26.9409   22.5414 C   0  0  0  0  0  0
  -19.5745  -26.6385   21.5215 C   0  0  0  0  0  0
  -18.1925  -26.7928   22.1627 C   0  0  0  0  0  0
  -19.1533  -28.8849   23.2887 C   0  0  0  0  0  0
  -18.9458  -30.1454   23.8899 C   0  0  0  0  0  0
  -17.6459  -30.6588   24.0565 C   0  0  0  0  0  0
  -25.9043  -34.9460   23.5114 C   0  0  0  0  0  0
  -16.5349  -29.9087   23.6336 C   0  0  0  0  0  0
  -16.7269  -28.6506   23.0353 C   0  0  0  0  0  0
  -26.4484  -31.6591   25.0734 C   0  0  0  0  0  0
  -25.3721  -31.3733   26.1463 C   0  0  0  0  0  0
  -27.0321  -30.3016   24.6171 C   0  0  0  0  0  0
  -27.6057  -32.4314   25.7498 C   0  0  0  0  0  0
  -27.5580  -37.1806   24.8464 C   0  0  0  0  0  0
  -21.4175  -29.3042   22.3697 N   0  0  0  0  0  0
  -26.4292  -37.3781   23.9409 N   0  0  0  0  0  0
  -24.6833  -31.0664   22.0996 N   0  0  0  0  0  0
  -23.4196  -28.8169   23.3014 O   0  0  0  0  0  0
  -28.3536  -26.5182   20.1538 O   0  0  0  0  0  0
  -26.5613  -34.8922   22.4679 O   0  0  0  0  0  0
  -23.5403  -32.1417   23.7399 O   0  0  0  0  0  0
  -31.1322  -17.8067   20.6627 C   0  0  0  0  0  0
  -28.7371  -17.8043   20.4969 C   0  0  0  0  0  0
  -31.1545  -19.2141   20.4242 C   0  0  0  0  0  0
  -29.9442  -19.9504   20.1928 C   0  0  0  0  0  0
  -29.9300  -17.0642   20.6751 C   0  0  0  0  0  0
  -28.7246  -19.2134   20.2454 C   0  0  0  0  0  0
  -33.1654  -20.3155   19.1327 C   0  0  0  0  0  0
  -33.7720  -19.2193   19.9712 C   0  0  0  0  0  0
  -29.4031  -23.3368   21.5973 C   0  0  0  0  0  0
  -32.4963  -19.9011   20.4248 C   0  0  0  0  0  0
  -29.2774  -24.0646   20.2755 C   0  0  1  0  0  0
  -29.0253  -22.5215   20.3830 C   0  0  1  0  0  0
  -29.8588  -21.5413   18.2178 C   0  0  0  0  0  0
  -26.3122  -19.2427   20.1957 C   0  0  0  0  0  0
  -28.1275  -25.0743   19.9922 C   0  0  0  0  0  0
  -29.9908  -21.4682   19.7473 C   0  0  2  0  0  0
  -29.8388  -15.6294   20.9040 N   0  0  0  0  0  0
  -27.5562  -19.9056   20.0065 O   0  0  0  0  0  0
  -31.4818  -12.4890   19.1432 H   0  0  0  0  0  0
  -30.3659  -11.3664   19.8721 H   0  0  0  0  0  0
  -29.7678  -11.7662   17.4628 H   0  0  0  0  0  0
  -29.6567  -13.4832   17.7538 H   0  0  0  0  0  0
  -27.8602  -11.2951   18.8506 H   0  0  0  0  0  0
  -27.3774  -12.5910   17.7903 H   0  0  0  0  0  0
  -27.6829  -14.2502   19.5350 H   0  0  0  0  0  0
  -28.7041  -12.0184   21.3635 H   0  0  0  0  0  0
  -28.4514  -13.6658   21.8546 H   0  0  0  0  0  0
  -25.2753   -9.5685   22.4754 H   0  0  0  0  0  0
  -23.9998   -7.4631   22.7472 H   0  0  0  0  0  0
  -21.0831   -8.8761   19.8958 H   0  0  0  0  0  0
  -22.3676  -10.9667   19.6160 H   0  0  0  0  0  0
  -21.2004   -7.6144   23.9711 H   0  0  0  0  0  0
  -21.1482   -6.0520   25.9078 H   0  0  0  0  0  0
  -22.0602   -2.7604   23.2843 H   0  0  0  0  0  0
  -22.4098  -11.9920   22.4811 H   0  0  0  0  0  0
  -21.1106  -13.1288   22.2579 H   0  0  0  0  0  0
  -24.6510  -15.8315   20.4844 H   0  0  0  0  0  0
  -26.2569  -15.6072   20.0036 H   0  0  0  0  0  0
  -26.7162  -32.5469   23.1132 H   0  0  0  0  0  0
  -25.0057  -33.9738   25.0436 H   0  0  0  0  0  0
  -22.7081  -31.3087   21.4087 H   0  0  0  0  0  0
  -23.3745  -35.9636   23.3305 H   0  0  0  0  0  0
  -24.3584  -36.8912   22.2054 H   0  0  0  0  0  0
  -23.7244  -37.6507   23.6653 H   0  0  0  0  0  0
  -26.0825  -31.5690   20.6065 H   0  0  0  0  0  0
  -26.8372  -30.8498   21.9995 H   0  0  0  0  0  0
  -28.1121  -29.0106   21.1800 H   0  0  0  0  0  0
  -25.9597  -25.9559   18.9915 H   0  0  0  0  0  0
  -23.9636  -27.3187   19.0168 H   0  0  0  0  0  0
  -23.7412  -30.6029   19.4062 H   0  0  0  0  0  0
  -22.7478  -29.2525   19.8634 H   0  0  0  0  0  0
  -25.1286  -36.1949   25.0827 H   0  0  0  0  0  0
  -20.9974  -28.3249   24.1416 H   0  0  0  0  0  0
  -20.5676  -26.2288   23.3607 H   0  0  0  0  0  0
  -21.6638  -26.7446   22.1206 H   0  0  0  0  0  0
  -19.6906  -25.6298   21.1245 H   0  0  0  0  0  0
  -19.6683  -27.3197   20.6746 H   0  0  0  0  0  0
  -17.4197  -26.6681   21.4028 H   0  0  0  0  0  0
  -18.0322  -26.0071   22.9025 H   0  0  0  0  0  0
  -19.7933  -30.7272   24.2267 H   0  0  0  0  0  0
  -17.5015  -31.6270   24.5164 H   0  0  0  0  0  0
  -15.5351  -30.2990   23.7659 H   0  0  0  0  0  0
  -15.8670  -28.0831   22.7061 H   0  0  0  0  0  0
  -24.5885  -30.7093   25.7794 H   0  0  0  0  0  0
  -24.8917  -32.2902   26.4892 H   0  0  0  0  0  0
  -25.8038  -30.8907   27.0238 H   0  0  0  0  0  0
  -26.2895  -29.6775   24.1186 H   0  0  0  0  0  0
  -27.4018  -29.7260   25.4667 H   0  0  0  0  0  0
  -27.8762  -30.4310   23.9394 H   0  0  0  0  0  0
  -27.2684  -33.3613   26.2088 H   0  0  0  0  0  0
  -28.3859  -32.6873   25.0317 H   0  0  0  0  0  0
  -28.0734  -31.8427   26.5400 H   0  0  0  0  0  0
  -28.2600  -38.0102   24.7508 H   0  0  0  0  0  0
  -28.1073  -36.2634   24.6285 H   0  0  0  0  0  0
  -27.2303  -37.1448   25.8870 H   0  0  0  0  0  0
  -20.9343  -29.8776   21.6923 H   0  0  0  0  0  0
  -26.0173  -38.2857   24.1407 H   0  0  0  0  0  0
  -32.0627  -17.2869   20.8412 H   0  0  0  0  0  0
  -27.8122  -17.2505   20.5256 H   0  0  0  0  0  0
  -32.7113  -20.0122   18.1920 H   0  0  0  0  0  0
  -33.6820  -21.2732   19.1153 H   0  0  0  0  0  0
  -34.6934  -19.4603   20.4981 H   0  0  0  0  0  0
  -33.7217  -18.2131   19.5608 H   0  0  0  0  0  0
  -28.6274  -23.5019   22.3432 H   0  0  0  0  0  0
  -30.4052  -23.2081   22.0012 H   0  0  0  0  0  0
  -32.5770  -20.5771   21.2752 H   0  0  0  0  0  0
  -30.2121  -24.3448   19.7930 H   0  0  0  0  0  0
  -27.9755  -22.2543   20.3008 H   0  0  0  0  0  0
  -30.6133  -20.9298   17.7240 H   0  0  0  0  0  0
  -29.9816  -22.5628   17.8563 H   0  0  0  0  0  0
  -28.8818  -21.1875   17.8875 H   0  0  0  0  0  0
  -25.5001  -19.9536   20.0446 H   0  0  0  0  0  0
  -26.2177  -18.8487   21.2085 H   0  0  0  0  0  0
  -26.1746  -18.4329   19.4785 H   0  0  0  0  0  0
  -27.2762  -24.7763   20.6072 H   0  0  0  0  0  0
  -27.8409  -24.8992   18.9547 H   0  0  0  0  0  0
  -30.9836  -21.8493   19.9769 H   0  0  0  0  0  0
  -28.9268  -15.3073   21.1883 H   0  0  0  0  0  0
  1 25  1  0  0  0
  1 30  2  0  0  0
  1 87  1  0  0  0
  2  3  1  0  0  0
  2 25  1  0  0  0
  2 89  1  0  0  0
  2 90  1  0  0  0
  3  4  1  0  0  0
  3 91  1  0  0  0
  3 92  1  0  0  0
  4  5  1  0  0  0
  4 93  1  0  0  0
  4 94  1  0  0  0
  5  6  1  0  0  0
  5 26  1  0  0  0
  5 95  1  0  0  0
  6 25  1  0  0  0
  6 96  1  0  0  0
  6 97  1  0  0  0
  7  8  2  0  0  0
  7 26  1  0  0  0
  7 29  1  0  0  0
  8  9  1  0  0  0
  8 22  1  0  0  0
  9 10  1  0  0  0
  9 27  2  0  0  0
 10 11  2  0  0  0
 10 15  1  0  0  0
 11 12  1  0  0  0
 11 98  1  0  0  0
 12 13  2  0  0  0
 12 99  1  0  0  0
 13 14  1  0  0  0
 13 31  1  0  0  0
 14 15  2  0  0  0
 14100  1  0  0  0
 15101  1  0  0  0
 16 17  2  0  0  0
 16 21  1  0  0  0
 16 31  1  0  0  0
 17 18  1  0  0  0
 17102  1  0  0  0
 18 19  2  0  0  0
 18103  1  0  0  0
 19 20  1  0  0  0
 19 24  1  0  0  0
 20 21  2  0  0  0
 20104  1  0  0  0
 21 23  1  0  0  0
 22 28  1  0  0  0
 22 32  2  0  0  0
 26 27  1  0  0  0
 28105  1  0  0  0
 28106  1  0  0  0
 29107  1  0  0  0
 29108  1  0  0  0
 33 34  1  0  0  0
 33 66  1  0  0  0
 33 70  2  0  0  0
 34 36  1  0  0  0
 34 59  1  0  0  0
 34109  1  0  0  0
 35 44  2  0  0  0
 35 45  1  0  0  0
 35 68  1  0  0  0
 36 56  1  0  0  0
 36110  1  0  0  0
 37 39  1  0  0  0
 37 47  1  0  0  0
 37 66  1  0  0  0
 37111  1  0  0  0
 38 43  2  0  0  0
 38 46  1  0  0  0
 38 47  1  0  0  0
 39 64  1  0  0  0
 39 67  2  0  0  0
 40 52  1  0  0  0
 40 53  2  0  0  0
 40 58  1  0  0  0
 41112  1  0  0  0
 41113  1  0  0  0
 41114  1  0  0  0
 41 48  1  0  0  0
 42 43  1  0  0  0
 42 66  1  0  0  0
 42115  1  0  0  0
 42116  1  0  0  0
 43 44  1  0  0  0
 44117  1  0  0  0
 45 46  2  0  0  0
 45118  1  0  0  0
 46119  1  0  0  0
 47120  1  0  0  0
 47121  1  0  0  0
 48 56  1  0  0  0
 48 65  1  0  0  0
 48122  1  0  0  0
 49 50  1  0  0  0
 49 53  1  0  0  0
 49 64  1  0  0  0
 49123  1  0  0  0
 50 51  1  0  0  0
 50124  1  0  0  0
 50125  1  0  0  0
 51 52  1  0  0  0
 51126  1  0  0  0
 51127  1  0  0  0
 52128  1  0  0  0
 52129  1  0  0  0
 53 54  1  0  0  0
 54 55  2  0  0  0
 54130  1  0  0  0
 55 57  1  0  0  0
 55131  1  0  0  0
 56 69  2  0  0  0
 57 58  2  0  0  0
 57132  1  0  0  0
 58133  1  0  0  0
 59 60  1  0  0  0
 59 61  1  0  0  0
 59 62  1  0  0  0
 60134  1  0  0  0
 60135  1  0  0  0
 60136  1  0  0  0
 61137  1  0  0  0
 61138  1  0  0  0
 61139  1  0  0  0
 62140  1  0  0  0
 62141  1  0  0  0
 62142  1  0  0  0
 63 65  1  0  0  0
 63143  1  0  0  0
 63144  1  0  0  0
 63145  1  0  0  0
 64146  1  0  0  0
 65147  1  0  0  0
 68 85  1  0  0  0
 71 73  2  0  0  0
 71 75  1  0  0  0
 71148  1  0  0  0
 72 75  2  0  0  0
 72 76  1  0  0  0
 72149  1  0  0  0
 73 74  1  0  0  0
 73 80  1  0  0  0
 74 76  2  0  0  0
 74 86  1  0  0  0
 75 87  1  0  0  0
 76 88  1  0  0  0
 77 78  1  0  0  0
 77 80  1  0  0  0
 77150  1  0  0  0
 77151  1  0  0  0
 78 80  1  0  0  0
 78152  1  0  0  0
 78153  1  0  0  0
 79 81  1  0  0  0
 79154  1  0  0  0
 79155  1  0  0  0
 79 82  1  0  0  0
 80156  1  0  0  0
 81 82  1  0  0  0
 81 85  1  0  0  0
 81157  1  0  0  0
 82 86  1  0  0  0
 82158  1  0  0  0
 83159  1  0  0  0
 83160  1  0  0  0
 83161  1  0  0  0
 83 86  1  0  0  0
 84 88  1  0  0  0
 84162  1  0  0  0
 84163  1  0  0  0
 84164  1  0  0  0
 85165  1  0  0  0
 85166  1  0  0  0
 86167  1  0  0  0
 87168  1  0  0  0
M  ISO  4   1 100  68 101  85 101  87 100
M  END
> <chiral flag>
0

> <version>
0

> <s_m_source_file>
/data/baiqing/PycharmProjects/Reinvent-master-3.2/result/LINK_invent/BTK/process_docking_weight1_custom_sum_contain_oxygen_bond_distance_aromatic_linkinvent_7_9_3/rearranged_h_0154.sdf

> <i_m_source_file_index>
37

> <r_mmod_Potential_Energy-OPLS-2005>
122.239227294922

> <r_mmod_Stretch_Energy-OPLS-2005>
72.1984100341797

> <r_mmod_Bend_Energy-OPLS-2005>
134.410217285156

> <r_mmod_Torsional_Energy-OPLS-2005>
299.022644042969

> <r_mmod_Improper_Torsional_Energy-OPLS-2005>
5.4731125831604

> <r_mmod_Van_der_Waal_Energy-OPLS-2005>
149.24494934082

> <r_mmod_Electrostatic_Energy-OPLS-2005>
-369.477935791016

> <r_mmod_Solvation_Energy-OPLS-2005>
-204.962371826172

> <b_mmod_Minimization_Converged-OPLS-2005>
0

> <r_mmod_RMS_Derivative-OPLS-2005>
0.913876533508301

$$$$
38
                    3D
 Structure written by MMmdl.
172182  0  0  1  0            999 V2000
  -30.6088  -14.5781   20.5714 C   0  0  0  0  0  0
  -30.4505  -12.3737   19.4266 C   0  0  0  0  0  0
  -29.5059  -12.5199   18.2114 C   0  0  0  0  0  0
  -28.0268  -12.3595   18.6228 C   0  0  0  0  0  0
  -27.6623  -13.2007   19.8744 C   0  0  2  0  0  0
  -28.7048  -12.9761   20.9919 C   0  0  0  0  0  0
  -25.2609  -13.8142   20.5675 C   0  0  0  0  0  0
  -24.1847  -13.0434   20.9172 C   0  0  0  0  0  0
  -24.6388  -11.6896   20.8725 C   0  0  0  0  0  0
  -23.9050  -10.4289   21.0400 C   0  0  0  0  0  0
  -24.3606   -9.4207   21.9179 C   0  0  0  0  0  0
  -23.6284   -8.2241   22.0752 C   0  0  0  0  0  0
  -22.4268   -8.0278   21.3543 C   0  0  0  0  0  0
  -21.9900   -9.0248   20.4645 C   0  0  0  0  0  0
  -22.7224  -10.2128   20.3050 C   0  0  0  0  0  0
  -21.6851   -6.0731   22.5279 C   0  0  0  0  0  0
  -21.4012   -6.5637   23.8212 C   0  0  0  0  0  0
  -21.3658   -5.6791   24.9175 C   0  0  0  0  0  0
  -21.6044   -4.3053   24.7227 C   0  0  0  0  0  0
  -21.8822   -3.8144   23.4348 C   0  0  0  0  0  0
  -21.9192   -4.6959   22.3404 C   0  0  0  0  0  0
  -22.7874  -13.5242   21.1843 C   0  0  0  0  0  0
  -22.1662   -4.2145   21.0981 F   0  0  0  0  0  0
  -21.5628   -3.4539   25.7740 F   0  0  0  0  0  0
  -30.0270  -13.3457   20.4499 N   0  0  0  0  0  0
  -26.3028  -12.9288   20.3348 N   0  0  0  0  0  0
  -25.9311  -11.6459   20.5743 N   0  0  0  0  0  0
  -22.0510  -12.8231   22.0396 N   0  0  0  0  0  0
  -25.4365  -15.1858   20.4106 N   0  0  0  0  0  0
  -31.7223  -14.8392   20.1053 O   0  0  0  0  0  0
  -21.6638   -6.8872   21.4239 O   0  0  0  0  0  0
  -22.3561  -14.5549   20.6693 O   0  0  0  0  0  0
  -24.6193  -31.8635   23.2037 C   0  0  0  0  0  0
  -25.9062  -32.4802   23.8353 C   0  0  1  0  0  0
  -27.2361  -27.3589   20.1236 C   0  0  0  0  0  0
  -25.5903  -33.8598   24.2296 N   0  0  0  0  0  0
  -23.4110  -30.4836   21.5465 C   0  0  2  0  0  0
  -24.8569  -28.9275   20.1269 C   0  0  0  0  0  0
  -22.7431  -29.4644   22.4980 C   0  0  0  0  0  0
  -18.0284  -28.1379   22.8502 C   0  0  0  0  0  0
  -24.1491  -36.7288   23.2640 C   0  0  0  0  0  0
  -25.9445  -30.8046   21.3667 C   0  0  0  0  0  0
  -26.0192  -29.4282   20.7250 C   0  0  0  0  0  0
  -27.2092  -28.6541   20.7123 C   0  0  0  0  0  0
  -26.0534  -26.8898   19.5147 C   0  0  0  0  0  0
  -24.8716  -27.6595   19.5189 C   0  0  0  0  0  0
  -23.6242  -29.8067   20.1656 C   0  0  0  0  0  0
  -25.4116  -36.3094   24.0337 C   0  0  1  0  0  0
  -20.5875  -28.3670   23.1312 C   0  0  2  0  0  0
  -20.6777  -26.9403   22.5415 C   0  0  0  0  0  0
  -19.5753  -26.6385   21.5215 C   0  0  0  0  0  0
  -18.1930  -26.7931   22.1623 C   0  0  0  0  0  0
  -19.1532  -28.8840   23.2905 C   0  0  0  0  0  0
  -18.9463  -30.1446   23.8913 C   0  0  0  0  0  0
  -17.6464  -30.6586   24.0568 C   0  0  0  0  0  0
  -25.9042  -34.9467   23.5116 C   0  0  0  0  0  0
  -16.5354  -29.9090   23.6328 C   0  0  0  0  0  0
  -16.7273  -28.6505   23.0353 C   0  0  0  0  0  0
  -26.4475  -31.6591   25.0699 C   0  0  0  0  0  0
  -25.3729  -31.3713   26.1439 C   0  0  0  0  0  0
  -27.0306  -30.3033   24.6087 C   0  0  0  0  0  0
  -27.6043  -32.4314   25.7468 C   0  0  0  0  0  0
  -27.5586  -37.1800   24.8474 C   0  0  0  0  0  0
  -21.4153  -29.3032   22.3712 N   0  0  0  0  0  0
  -26.4302  -37.3787   23.9415 N   0  0  0  0  0  0
  -24.6770  -31.0676   22.0968 N   0  0  0  0  0  0
  -23.4176  -28.8196   23.3051 O   0  0  0  0  0  0
  -28.4368  -26.6642   20.0218 O   0  0  0  0  0  0
  -26.5610  -34.8927   22.4682 O   0  0  0  0  0  0
  -23.5370  -32.1413   23.7392 O   0  0  0  0  0  0
  -30.4384  -17.8383   20.3842 C   0  0  0  0  0  0
  -28.9799  -18.9543   22.4520 C   0  0  0  0  0  0
  -29.0652  -17.5340   22.3375 C   0  0  0  0  0  0
  -29.8168  -16.9446   21.2889 C   0  0  0  0  0  0
  -29.7202  -19.7706   21.5444 C   0  0  0  0  0  0
  -26.7419  -19.2408   23.8697 C   0  0  0  0  0  0
  -27.1031  -20.5886   23.3098 C   0  0  0  0  0  0
  -28.2798  -22.6434   20.3542 C   0  0  0  0  0  0
  -29.4528  -23.7438   22.2980 C   0  0  0  0  0  0
  -28.0249  -24.0460   19.6691 C   0  0  0  0  0  0
  -28.6325  -25.0112   21.9144 C   0  0  0  0  0  0
  -28.1935  -19.5758   23.5854 C   0  0  0  0  0  0
  -29.5623  -22.5963   21.2266 C   0  0  1  0  0  0
  -28.6642  -25.2681   20.4087 C   0  0  2  0  0  0
  -28.3935  -16.6314   23.3733 C   0  0  0  0  0  0
  -31.6297  -21.3382   22.1039 C   0  0  0  0  0  0
  -30.1005  -21.2533   21.9193 C   0  0  2  0  0  0
  -30.3929  -19.1978   20.5076 N   0  0  0  0  0  0
  -29.8084  -15.4980   21.1699 N   0  0  0  0  0  0
  -31.4866  -12.5290   19.1204 H   0  0  0  0  0  0
  -30.4067  -11.3604   19.8289 H   0  0  0  0  0  0
  -29.7618  -11.7856   17.4464 H   0  0  0  0  0  0
  -29.6502  -13.4994   17.7524 H   0  0  0  0  0  0
  -27.8510  -11.3022   18.8250 H   0  0  0  0  0  0
  -27.3733  -12.6207   17.7895 H   0  0  0  0  0  0
  -27.7042  -14.2482   19.5754 H   0  0  0  0  0  0
  -28.7106  -11.9282   21.2956 H   0  0  0  0  0  0
  -28.4402  -13.5281   21.8945 H   0  0  0  0  0  0
  -25.2755   -9.5685   22.4748 H   0  0  0  0  0  0
  -23.9998   -7.4633   22.7470 H   0  0  0  0  0  0
  -21.0832   -8.8760   19.8950 H   0  0  0  0  0  0
  -22.3683  -10.9662   19.6154 H   0  0  0  0  0  0
  -21.2004   -7.6145   23.9712 H   0  0  0  0  0  0
  -21.1478   -6.0523   25.9077 H   0  0  0  0  0  0
  -22.0601   -2.7606   23.2852 H   0  0  0  0  0  0
  -22.4119  -11.9890   22.4782 H   0  0  0  0  0  0
  -21.1124  -13.1252   22.2592 H   0  0  0  0  0  0
  -24.6719  -15.8434   20.5175 H   0  0  0  0  0  0
  -26.2905  -15.6217   20.0860 H   0  0  0  0  0  0
  -26.7122  -32.5483   23.1100 H   0  0  0  0  0  0
  -25.0074  -33.9754   25.0456 H   0  0  0  0  0  0
  -22.7028  -31.3018   21.4010 H   0  0  0  0  0  0
  -23.3758  -35.9613   23.3313 H   0  0  0  0  0  0
  -24.3591  -36.8888   22.2054 H   0  0  0  0  0  0
  -23.7229  -37.6492   23.6647 H   0  0  0  0  0  0
  -26.0627  -31.5614   20.5896 H   0  0  0  0  0  0
  -26.8304  -30.8636   21.9870 H   0  0  0  0  0  0
  -28.1136  -29.0500   21.1533 H   0  0  0  0  0  0
  -26.0391  -25.9480   18.9924 H   0  0  0  0  0  0
  -23.9810  -27.2749   19.0405 H   0  0  0  0  0  0
  -23.7415  -30.5770   19.4024 H   0  0  0  0  0  0
  -22.7456  -29.2316   19.8686 H   0  0  0  0  0  0
  -25.1294  -36.1954   25.0832 H   0  0  0  0  0  0
  -20.9971  -28.3234   24.1431 H   0  0  0  0  0  0
  -20.5685  -26.2272   23.3598 H   0  0  0  0  0  0
  -21.6648  -26.7448   22.1202 H   0  0  0  0  0  0
  -19.6916  -25.6301   21.1227 H   0  0  0  0  0  0
  -19.6695  -27.3213   20.6759 H   0  0  0  0  0  0
  -17.4206  -26.6688   21.4019 H   0  0  0  0  0  0
  -18.0330  -26.0071   22.9010 H   0  0  0  0  0  0
  -19.7942  -30.7261   24.2279 H   0  0  0  0  0  0
  -17.5025  -31.6268   24.5169 H   0  0  0  0  0  0
  -15.5360  -30.2998   23.7642 H   0  0  0  0  0  0
  -15.8675  -28.0824   22.7060 H   0  0  0  0  0  0
  -24.5908  -30.7055   25.7780 H   0  0  0  0  0  0
  -24.8905  -32.2870   26.4868 H   0  0  0  0  0  0
  -25.8066  -30.8903   27.0207 H   0  0  0  0  0  0
  -26.2858  -29.6800   24.1126 H   0  0  0  0  0  0
  -27.4072  -29.7267   25.4538 H   0  0  0  0  0  0
  -27.8691  -30.4366   23.9246 H   0  0  0  0  0  0
  -27.2665  -33.3615   26.2049 H   0  0  0  0  0  0
  -28.3849  -32.6861   25.0289 H   0  0  0  0  0  0
  -28.0705  -31.8426   26.5376 H   0  0  0  0  0  0
  -28.2607  -38.0094   24.7521 H   0  0  0  0  0  0
  -28.1073  -36.2624   24.6300 H   0  0  0  0  0  0
  -27.2304  -37.1454   25.8878 H   0  0  0  0  0  0
  -20.9319  -29.8738   21.6915 H   0  0  0  0  0  0
  -26.0182  -38.2862   24.1413 H   0  0  0  0  0  0
  -30.9898  -17.4633   19.5347 H   0  0  0  0  0  0
  -26.2241  -18.5534   23.2033 H   0  0  0  0  0  0
  -26.4211  -19.2134   24.9096 H   0  0  0  0  0  0
  -27.0245  -21.4453   23.9771 H   0  0  0  0  0  0
  -26.7975  -20.7621   22.2821 H   0  0  0  0  0  0
  -28.3037  -21.8586   19.5971 H   0  0  0  0  0  0
  -27.4248  -22.4216   20.9895 H   0  0  0  0  0  0
  -29.0154  -23.3617   23.2215 H   0  0  0  0  0  0
  -30.4610  -24.0604   22.5662 H   0  0  0  0  0  0
  -26.9473  -24.1630   19.5883 H   0  0  0  0  0  0
  -28.4046  -24.0233   18.6473 H   0  0  0  0  0  0
  -29.0244  -25.8740   22.4548 H   0  0  0  0  0  0
  -27.5959  -24.9000   22.2348 H   0  0  0  0  0  0
  -28.8360  -19.7479   24.4478 H   0  0  0  0  0  0
  -30.3458  -22.8800   20.5226 H   0  0  0  0  0  0
  -29.7223  -25.1944   20.1535 H   0  0  0  0  0  0
  -28.3498  -17.0997   24.3555 H   0  0  0  0  0  0
  -28.9379  -15.7010   23.5301 H   0  0  0  0  0  0
  -27.3787  -16.3841   23.0622 H   0  0  0  0  0  0
  -31.9844  -20.5533   22.7732 H   0  0  0  0  0  0
  -31.9389  -22.2911   22.5318 H   0  0  0  0  0  0
  -32.1499  -21.2187   21.1532 H   0  0  0  0  0  0
  -29.7567  -21.3469   22.9435 H   0  0  0  0  0  0
  -29.0019  -15.0611   21.5880 H   0  0  0  0  0  0
  1 25  1  0  0  0
  1 30  2  0  0  0
  1 89  1  0  0  0
  2  3  1  0  0  0
  2 25  1  0  0  0
  2 90  1  0  0  0
  2 91  1  0  0  0
  3  4  1  0  0  0
  3 92  1  0  0  0
  3 93  1  0  0  0
  4  5  1  0  0  0
  4 94  1  0  0  0
  4 95  1  0  0  0
  5  6  1  0  0  0
  5 26  1  0  0  0
  5 96  1  0  0  0
  6 25  1  0  0  0
  6 97  1  0  0  0
  6 98  1  0  0  0
  7  8  2  0  0  0
  7 26  1  0  0  0
  7 29  1  0  0  0
  8  9  1  0  0  0
  8 22  1  0  0  0
  9 10  1  0  0  0
  9 27  2  0  0  0
 10 11  2  0  0  0
 10 15  1  0  0  0
 11 12  1  0  0  0
 11 99  1  0  0  0
 12 13  2  0  0  0
 12100  1  0  0  0
 13 14  1  0  0  0
 13 31  1  0  0  0
 14 15  2  0  0  0
 14101  1  0  0  0
 15102  1  0  0  0
 16 17  2  0  0  0
 16 21  1  0  0  0
 16 31  1  0  0  0
 17 18  1  0  0  0
 17103  1  0  0  0
 18 19  2  0  0  0
 18104  1  0  0  0
 19 20  1  0  0  0
 19 24  1  0  0  0
 20 21  2  0  0  0
 20105  1  0  0  0
 21 23  1  0  0  0
 22 28  1  0  0  0
 22 32  2  0  0  0
 26 27  1  0  0  0
 28106  1  0  0  0
 28107  1  0  0  0
 29108  1  0  0  0
 29109  1  0  0  0
 33 34  1  0  0  0
 33 66  1  0  0  0
 33 70  2  0  0  0
 34 36  1  0  0  0
 34 59  1  0  0  0
 34110  1  0  0  0
 35 44  2  0  0  0
 35 45  1  0  0  0
 35 68  1  0  0  0
 36 56  1  0  0  0
 36111  1  0  0  0
 37 39  1  0  0  0
 37 47  1  0  0  0
 37 66  1  0  0  0
 37112  1  0  0  0
 38 43  2  0  0  0
 38 46  1  0  0  0
 38 47  1  0  0  0
 39 64  1  0  0  0
 39 67  2  0  0  0
 40 52  1  0  0  0
 40 53  2  0  0  0
 40 58  1  0  0  0
 41113  1  0  0  0
 41114  1  0  0  0
 41115  1  0  0  0
 41 48  1  0  0  0
 42 43  1  0  0  0
 42 66  1  0  0  0
 42116  1  0  0  0
 42117  1  0  0  0
 43 44  1  0  0  0
 44118  1  0  0  0
 45 46  2  0  0  0
 45119  1  0  0  0
 46120  1  0  0  0
 47121  1  0  0  0
 47122  1  0  0  0
 48 56  1  0  0  0
 48 65  1  0  0  0
 48123  1  0  0  0
 49 50  1  0  0  0
 49 53  1  0  0  0
 49 64  1  0  0  0
 49124  1  0  0  0
 50 51  1  0  0  0
 50125  1  0  0  0
 50126  1  0  0  0
 51 52  1  0  0  0
 51127  1  0  0  0
 51128  1  0  0  0
 52129  1  0  0  0
 52130  1  0  0  0
 53 54  1  0  0  0
 54 55  2  0  0  0
 54131  1  0  0  0
 55 57  1  0  0  0
 55132  1  0  0  0
 56 69  2  0  0  0
 57 58  2  0  0  0
 57133  1  0  0  0
 58134  1  0  0  0
 59 60  1  0  0  0
 59 61  1  0  0  0
 59 62  1  0  0  0
 60135  1  0  0  0
 60136  1  0  0  0
 60137  1  0  0  0
 61138  1  0  0  0
 61139  1  0  0  0
 61140  1  0  0  0
 62141  1  0  0  0
 62142  1  0  0  0
 62143  1  0  0  0
 63 65  1  0  0  0
 63144  1  0  0  0
 63145  1  0  0  0
 63146  1  0  0  0
 64147  1  0  0  0
 65148  1  0  0  0
 68 84  1  0  0  0
 71 74  2  0  0  0
 71 88  1  0  0  0
 71149  1  0  0  0
 72 73  2  0  0  0
 72 75  1  0  0  0
 72 82  1  0  0  0
 73 74  1  0  0  0
 73 85  1  0  0  0
 74 89  1  0  0  0
 75 87  1  0  0  0
 75 88  2  0  0  0
 76 77  1  0  0  0
 76 82  1  0  0  0
 76150  1  0  0  0
 76151  1  0  0  0
 77 82  1  0  0  0
 77152  1  0  0  0
 77153  1  0  0  0
 78 80  1  0  0  0
 78154  1  0  0  0
 78155  1  0  0  0
 78 83  1  0  0  0
 79 81  1  0  0  0
 79 83  1  0  0  0
 79156  1  0  0  0
 79157  1  0  0  0
 80 84  1  0  0  0
 80158  1  0  0  0
 80159  1  0  0  0
 81 84  1  0  0  0
 81160  1  0  0  0
 81161  1  0  0  0
 82162  1  0  0  0
 83 87  1  0  0  0
 83163  1  0  0  0
 84164  1  0  0  0
 85165  1  0  0  0
 85166  1  0  0  0
 85167  1  0  0  0
 86168  1  0  0  0
 86169  1  0  0  0
 86170  1  0  0  0
 86 87  1  0  0  0
 87171  1  0  0  0
 89172  1  0  0  0
M  ISO  4   1 100  68 101  84 101  89 100
M  END
> <chiral flag>
0

> <version>
0

> <s_m_source_file>
/data/baiqing/PycharmProjects/Reinvent-master-3.2/result/LINK_invent/BTK/process_docking_weight1_custom_sum_contain_oxygen_bond_distance_aromatic_linkinvent_7_9_3/rearranged_h_0154.sdf

> <i_m_source_file_index>
38

> <r_mmod_Potential_Energy-OPLS-2005>
28.4898662567139

> <r_mmod_Stretch_Energy-OPLS-2005>
70.92529296875

> <r_mmod_Bend_Energy-OPLS-2005>
205.298187255859

> <r_mmod_Torsional_Energy-OPLS-2005>
296.268707275391

> <r_mmod_Improper_Torsional_Energy-OPLS-2005>
6.26852512359619

> <r_mmod_Van_der_Waal_Energy-OPLS-2005>
155.726577758789

> <r_mmod_Electrostatic_Energy-OPLS-2005>
-523.280029296875

> <r_mmod_Solvation_Energy-OPLS-2005>
-210.522384643555

> <b_mmod_Minimization_Converged-OPLS-2005>
0

> <r_mmod_RMS_Derivative-OPLS-2005>
1.01321756839752

$$$$
39
                    3D
 Structure written by MMmdl.
163172  0  0  1  0            999 V2000
  -30.6812  -14.6058   20.4929 C   0  0  0  0  0  0
  -30.4190  -12.3709   19.4560 C   0  0  0  0  0  0
  -29.4993  -12.4922   18.2238 C   0  0  0  0  0  0
  -28.0228  -12.3439   18.6379 C   0  0  0  0  0  0
  -27.6475  -13.2263   19.8598 C   0  0  2  0  0  0
  -28.6930  -13.1150   20.9909 C   0  0  0  0  0  0
  -25.2531  -13.8199   20.5709 C   0  0  0  0  0  0
  -24.1810  -13.0447   20.9202 C   0  0  0  0  0  0
  -24.6398  -11.6924   20.8762 C   0  0  0  0  0  0
  -23.9074  -10.4297   21.0418 C   0  0  0  0  0  0
  -24.3625   -9.4206   21.9190 C   0  0  0  0  0  0
  -23.6298   -8.2245   22.0758 C   0  0  0  0  0  0
  -22.4279   -8.0283   21.3547 C   0  0  0  0  0  0
  -21.9919   -9.0255   20.4648 C   0  0  0  0  0  0
  -22.7250  -10.2135   20.3062 C   0  0  0  0  0  0
  -21.6850   -6.0741   22.5279 C   0  0  0  0  0  0
  -21.4016   -6.5645   23.8213 C   0  0  0  0  0  0
  -21.3661   -5.6803   24.9179 C   0  0  0  0  0  0
  -21.6042   -4.3064   24.7231 C   0  0  0  0  0  0
  -21.8817   -3.8158   23.4349 C   0  0  0  0  0  0
  -21.9192   -4.6971   22.3401 C   0  0  0  0  0  0
  -22.7827  -13.5223   21.1857 C   0  0  0  0  0  0
  -22.1651   -4.2156   21.0977 F   0  0  0  0  0  0
  -21.5633   -3.4548   25.7743 F   0  0  0  0  0  0
  -30.0042  -13.4197   20.4080 N   0  0  0  0  0  0
  -26.2967  -12.9403   20.3344 N   0  0  0  0  0  0
  -25.9330  -11.6546   20.5797 N   0  0  0  0  0  0
  -22.0475  -12.8206   22.0411 N   0  0  0  0  0  0
  -25.4244  -15.1921   20.4117 N   0  0  0  0  0  0
  -31.8708  -14.6746   20.1671 O   0  0  0  0  0  0
  -21.6638   -6.8884   21.4240 O   0  0  0  0  0  0
  -22.3502  -14.5524   20.6704 O   0  0  0  0  0  0
  -24.6240  -31.8624   23.2048 C   0  0  0  0  0  0
  -25.9102  -32.4792   23.8374 C   0  0  1  0  0  0
  -27.2204  -27.3532   20.1145 C   0  0  0  0  0  0
  -25.5928  -33.8590   24.2299 N   0  0  0  0  0  0
  -23.4161  -30.4866   21.5469 C   0  0  2  0  0  0
  -24.8641  -28.9476   20.1097 C   0  0  0  0  0  0
  -22.7460  -29.4636   22.4943 C   0  0  0  0  0  0
  -18.0289  -28.1384   22.8498 C   0  0  0  0  0  0
  -24.1487  -36.7297   23.2639 C   0  0  0  0  0  0
  -25.9547  -30.8036   21.3718 C   0  0  0  0  0  0
  -26.0317  -29.4339   20.7146 C   0  0  0  0  0  0
  -27.2182  -28.6460   20.7118 C   0  0  0  0  0  0
  -26.0407  -26.9147   19.4795 C   0  0  0  0  0  0
  -24.8684  -27.6912   19.4835 C   0  0  0  0  0  0
  -23.6296  -29.8229   20.1616 C   0  0  0  0  0  0
  -25.4114  -36.3091   24.0333 C   0  0  1  0  0  0
  -20.5884  -28.3687   23.1291 C   0  0  2  0  0  0
  -20.6774  -26.9414   22.5411 C   0  0  0  0  0  0
  -19.5748  -26.6385   21.5217 C   0  0  0  0  0  0
  -18.1928  -26.7932   22.1628 C   0  0  0  0  0  0
  -19.1540  -28.8853   23.2890 C   0  0  0  0  0  0
  -18.9462  -30.1457   23.8903 C   0  0  0  0  0  0
  -17.6461  -30.6591   24.0566 C   0  0  0  0  0  0
  -25.9050  -34.9458   23.5114 C   0  0  0  0  0  0
  -16.5354  -29.9089   23.6328 C   0  0  0  0  0  0
  -16.7277  -28.6503   23.0357 C   0  0  0  0  0  0
  -26.4495  -31.6589   25.0729 C   0  0  0  0  0  0
  -25.3741  -31.3712   26.1462 C   0  0  0  0  0  0
  -27.0337  -30.3023   24.6152 C   0  0  0  0  0  0
  -27.6056  -32.4320   25.7500 C   0  0  0  0  0  0
  -27.5581  -37.1801   24.8465 C   0  0  0  0  0  0
  -21.4174  -29.3041   22.3682 N   0  0  0  0  0  0
  -26.4291  -37.3787   23.9414 N   0  0  0  0  0  0
  -24.6837  -31.0661   22.0988 N   0  0  0  0  0  0
  -23.4196  -28.8177   23.3017 O   0  0  0  0  0  0
  -28.2960  -26.4680   20.1625 O   0  0  0  0  0  0
  -26.5606  -34.8922   22.4671 O   0  0  0  0  0  0
  -23.5413  -32.1403   23.7397 O   0  0  0  0  0  0
  -29.8783  -23.5124   21.2779 C   0  0  0  0  0  0
  -28.6171  -23.8995   20.7722 C   0  0  0  0  0  0
  -30.2689  -22.1458   21.2798 C   0  0  0  0  0  0
  -27.8327  -22.8388   20.2297 C   0  0  0  0  0  0
  -29.3947  -21.1539   20.7785 C   0  0  0  0  0  0
  -29.0797  -17.8734   19.3746 C   0  0  0  0  0  0
  -28.8230  -17.6704   21.8523 C   0  0  0  0  0  0
  -30.1686  -16.7632   19.4796 C   0  0  0  0  0  0
  -29.8995  -16.5331   21.8261 C   0  0  0  0  0  0
  -28.8322  -18.6862   20.6689 C   0  0  0  0  0  0
  -31.6055  -21.7426   21.8761 C   0  0  0  0  0  0
  -26.4661  -23.0980   19.6248 C   0  0  0  0  0  0
  -28.0580  -25.3373   21.0670 C   0  0  0  0  0  0
  -28.2090  -21.5221   20.2341 N   0  0  0  0  0  0
  -29.9408  -15.7684   20.5599 N   0  0  0  0  0  0
  -29.7629  -19.7946   20.8570 O   0  0  0  0  0  0
  -31.4640  -12.4650   19.1549 H   0  0  0  0  0  0
  -30.3282  -11.3850   19.9142 H   0  0  0  0  0  0
  -29.7570  -11.7338   17.4826 H   0  0  0  0  0  0
  -29.6516  -13.4590   17.7415 H   0  0  0  0  0  0
  -27.8538  -11.2930   18.8750 H   0  0  0  0  0  0
  -27.3709  -12.5714   17.7940 H   0  0  0  0  0  0
  -27.6589  -14.2576   19.5060 H   0  0  0  0  0  0
  -28.6945  -12.1136   21.4235 H   0  0  0  0  0  0
  -28.4563  -13.8018   21.8050 H   0  0  0  0  0  0
  -25.2767   -9.5673   22.4773 H   0  0  0  0  0  0
  -24.0000   -7.4637   22.7475 H   0  0  0  0  0  0
  -21.0860   -8.8776   19.8950 H   0  0  0  0  0  0
  -22.3709  -10.9678   19.6176 H   0  0  0  0  0  0
  -21.2004   -7.6151   23.9717 H   0  0  0  0  0  0
  -21.1486   -6.0537   25.9084 H   0  0  0  0  0  0
  -22.0595   -2.7620   23.2855 H   0  0  0  0  0  0
  -22.4105  -11.9866   22.4790 H   0  0  0  0  0  0
  -21.1095  -13.1226   22.2625 H   0  0  0  0  0  0
  -24.6617  -15.8518   20.5185 H   0  0  0  0  0  0
  -26.2871  -15.6270   20.1105 H   0  0  0  0  0  0
  -26.7174  -32.5477   23.1133 H   0  0  0  0  0  0
  -25.0100  -33.9748   25.0459 H   0  0  0  0  0  0
  -22.7087  -31.3064   21.4061 H   0  0  0  0  0  0
  -23.3755  -35.9623   23.3301 H   0  0  0  0  0  0
  -24.3576  -36.8915   22.2052 H   0  0  0  0  0  0
  -23.7229  -37.6496   23.6657 H   0  0  0  0  0  0
  -26.0800  -31.5680   20.6037 H   0  0  0  0  0  0
  -26.8376  -30.8545   21.9977 H   0  0  0  0  0  0
  -28.1126  -29.0079   21.1995 H   0  0  0  0  0  0
  -26.0177  -25.9478   19.0001 H   0  0  0  0  0  0
  -23.9739  -27.3133   19.0077 H   0  0  0  0  0  0
  -23.7442  -30.6006   19.4059 H   0  0  0  0  0  0
  -22.7507  -29.2499   19.8599 H   0  0  0  0  0  0
  -25.1291  -36.1947   25.0825 H   0  0  0  0  0  0
  -20.9984  -28.3267   24.1409 H   0  0  0  0  0  0
  -20.5689  -26.2298   23.3611 H   0  0  0  0  0  0
  -21.6643  -26.7446   22.1201 H   0  0  0  0  0  0
  -19.6906  -25.6299   21.1243 H   0  0  0  0  0  0
  -19.6680  -27.3198   20.6752 H   0  0  0  0  0  0
  -17.4197  -26.6697   21.4028 H   0  0  0  0  0  0
  -18.0317  -26.0070   22.9016 H   0  0  0  0  0  0
  -19.7937  -30.7277   24.2272 H   0  0  0  0  0  0
  -17.5015  -31.6268   24.5171 H   0  0  0  0  0  0
  -15.5354  -30.2991   23.7646 H   0  0  0  0  0  0
  -15.8680  -28.0820   22.7069 H   0  0  0  0  0  0
  -24.5916  -30.7062   25.7789 H   0  0  0  0  0  0
  -24.8935  -32.2874   26.4901 H   0  0  0  0  0  0
  -25.8083  -30.8880   27.0223 H   0  0  0  0  0  0
  -26.2901  -29.6775   24.1193 H   0  0  0  0  0  0
  -27.4070  -29.7272   25.4633 H   0  0  0  0  0  0
  -27.8752  -30.4325   23.9347 H   0  0  0  0  0  0
  -27.2671  -33.3620   26.2082 H   0  0  0  0  0  0
  -28.3870  -32.6882   25.0334 H   0  0  0  0  0  0
  -28.0723  -31.8442   26.5415 H   0  0  0  0  0  0
  -28.2591  -38.0105   24.7531 H   0  0  0  0  0  0
  -28.1084  -36.2637   24.6272 H   0  0  0  0  0  0
  -27.2299  -37.1434   25.8867 H   0  0  0  0  0  0
  -20.9347  -29.8765   21.6895 H   0  0  0  0  0  0
  -26.0173  -38.2860   24.1427 H   0  0  0  0  0  0
  -30.5201  -24.2557   21.7293 H   0  0  0  0  0  0
  -28.1430  -17.3916   19.0913 H   0  0  0  0  0  0
  -29.3133  -18.5533   18.5547 H   0  0  0  0  0  0
  -28.8773  -18.2128   22.7971 H   0  0  0  0  0  0
  -27.8459  -17.1848   21.8586 H   0  0  0  0  0  0
  -31.1461  -17.2304   19.6164 H   0  0  0  0  0  0
  -30.2191  -16.2453   18.5194 H   0  0  0  0  0  0
  -29.7111  -15.8491   22.6556 H   0  0  0  0  0  0
  -30.8845  -16.9651   22.0142 H   0  0  0  0  0  0
  -27.8227  -19.0938   20.6138 H   0  0  0  0  0  0
  -32.1862  -22.6097   22.1913 H   0  0  0  0  0  0
  -32.1959  -21.1865   21.1471 H   0  0  0  0  0  0
  -31.4541  -21.1043   22.7470 H   0  0  0  0  0  0
  -25.7954  -23.5673   20.3435 H   0  0  0  0  0  0
  -25.9926  -22.1739   19.2916 H   0  0  0  0  0  0
  -26.5612  -23.7469   18.7552 H   0  0  0  0  0  0
  -28.4926  -25.6428   22.0195 H   0  0  0  0  0  0
  -26.9977  -25.2323   21.2991 H   0  0  0  0  0  0
  1 25  1  0  0  0
  1 30  2  0  0  0
  1 85  1  0  0  0
  2  3  1  0  0  0
  2 25  1  0  0  0
  2 87  1  0  0  0
  2 88  1  0  0  0
  3  4  1  0  0  0
  3 89  1  0  0  0
  3 90  1  0  0  0
  4  5  1  0  0  0
  4 91  1  0  0  0
  4 92  1  0  0  0
  5  6  1  0  0  0
  5 26  1  0  0  0
  5 93  1  0  0  0
  6 25  1  0  0  0
  6 94  1  0  0  0
  6 95  1  0  0  0
  7  8  2  0  0  0
  7 26  1  0  0  0
  7 29  1  0  0  0
  8  9  1  0  0  0
  8 22  1  0  0  0
  9 10  1  0  0  0
  9 27  2  0  0  0
 10 11  2  0  0  0
 10 15  1  0  0  0
 11 12  1  0  0  0
 11 96  1  0  0  0
 12 13  2  0  0  0
 12 97  1  0  0  0
 13 14  1  0  0  0
 13 31  1  0  0  0
 14 15  2  0  0  0
 14 98  1  0  0  0
 15 99  1  0  0  0
 16 17  2  0  0  0
 16 21  1  0  0  0
 16 31  1  0  0  0
 17 18  1  0  0  0
 17100  1  0  0  0
 18 19  2  0  0  0
 18101  1  0  0  0
 19 20  1  0  0  0
 19 24  1  0  0  0
 20 21  2  0  0  0
 20102  1  0  0  0
 21 23  1  0  0  0
 22 28  1  0  0  0
 22 32  2  0  0  0
 26 27  1  0  0  0
 28103  1  0  0  0
 28104  1  0  0  0
 29105  1  0  0  0
 29106  1  0  0  0
 33 34  1  0  0  0
 33 66  1  0  0  0
 33 70  2  0  0  0
 34 36  1  0  0  0
 34 59  1  0  0  0
 34107  1  0  0  0
 35 44  2  0  0  0
 35 45  1  0  0  0
 35 68  1  0  0  0
 36 56  1  0  0  0
 36108  1  0  0  0
 37 39  1  0  0  0
 37 47  1  0  0  0
 37 66  1  0  0  0
 37109  1  0  0  0
 38 43  2  0  0  0
 38 46  1  0  0  0
 38 47  1  0  0  0
 39 64  1  0  0  0
 39 67  2  0  0  0
 40 52  1  0  0  0
 40 53  2  0  0  0
 40 58  1  0  0  0
 41110  1  0  0  0
 41111  1  0  0  0
 41112  1  0  0  0
 41 48  1  0  0  0
 42 43  1  0  0  0
 42 66  1  0  0  0
 42113  1  0  0  0
 42114  1  0  0  0
 43 44  1  0  0  0
 44115  1  0  0  0
 45 46  2  0  0  0
 45116  1  0  0  0
 46117  1  0  0  0
 47118  1  0  0  0
 47119  1  0  0  0
 48 56  1  0  0  0
 48 65  1  0  0  0
 48120  1  0  0  0
 49 50  1  0  0  0
 49 53  1  0  0  0
 49 64  1  0  0  0
 49121  1  0  0  0
 50 51  1  0  0  0
 50122  1  0  0  0
 50123  1  0  0  0
 51 52  1  0  0  0
 51124  1  0  0  0
 51125  1  0  0  0
 52126  1  0  0  0
 52127  1  0  0  0
 53 54  1  0  0  0
 54 55  2  0  0  0
 54128  1  0  0  0
 55 57  1  0  0  0
 55129  1  0  0  0
 56 69  2  0  0  0
 57 58  2  0  0  0
 57130  1  0  0  0
 58131  1  0  0  0
 59 60  1  0  0  0
 59 61  1  0  0  0
 59 62  1  0  0  0
 60132  1  0  0  0
 60133  1  0  0  0
 60134  1  0  0  0
 61135  1  0  0  0
 61136  1  0  0  0
 61137  1  0  0  0
 62138  1  0  0  0
 62139  1  0  0  0
 62140  1  0  0  0
 63 65  1  0  0  0
 63141  1  0  0  0
 63142  1  0  0  0
 63143  1  0  0  0
 64144  1  0  0  0
 65145  1  0  0  0
 68 83  1  0  0  0
 71 72  2  0  0  0
 71 73  1  0  0  0
 71146  1  0  0  0
 72 74  1  0  0  0
 72 83  1  0  0  0
 73 75  2  0  0  0
 73 81  1  0  0  0
 74 82  1  0  0  0
 74 84  2  0  0  0
 75 84  1  0  0  0
 75 86  1  0  0  0
 76 78  1  0  0  0
 76 80  1  0  0  0
 76147  1  0  0  0
 76148  1  0  0  0
 77 79  1  0  0  0
 77 80  1  0  0  0
 77149  1  0  0  0
 77150  1  0  0  0
 78 85  1  0  0  0
 78151  1  0  0  0
 78152  1  0  0  0
 79 85  1  0  0  0
 79153  1  0  0  0
 79154  1  0  0  0
 80 86  1  0  0  0
 80155  1  0  0  0
 81156  1  0  0  0
 81157  1  0  0  0
 81158  1  0  0  0
 82159  1  0  0  0
 82160  1  0  0  0
 82161  1  0  0  0
 83162  1  0  0  0
 83163  1  0  0  0
M  ISO  4   1 100  68 101  83 101  85 100
M  END
> <chiral flag>
0

> <version>
0

> <s_m_source_file>
/data/baiqing/PycharmProjects/Reinvent-master-3.2/result/LINK_invent/BTK/process_docking_weight1_custom_sum_contain_oxygen_bond_distance_aromatic_linkinvent_7_9_3/rearranged_h_0154.sdf

> <i_m_source_file_index>
39

> <r_mmod_Potential_Energy-OPLS-2005>
135.01643371582

> <r_mmod_Stretch_Energy-OPLS-2005>
67.508918762207

> <r_mmod_Bend_Energy-OPLS-2005>
150.949768066406

> <r_mmod_Torsional_Energy-OPLS-2005>
354.289733886719

> <r_mmod_Improper_Torsional_Energy-OPLS-2005>
17.0922718048096

> <r_mmod_Van_der_Waal_Energy-OPLS-2005>
146.500930786133

> <r_mmod_Electrostatic_Energy-OPLS-2005>
-445.034606933594

> <r_mmod_Solvation_Energy-OPLS-2005>
-200.916870117188

> <b_mmod_Minimization_Converged-OPLS-2005>
0

> <r_mmod_RMS_Derivative-OPLS-2005>
1.03401207923889

$$$$
40
                    3D
 Structure written by MMmdl.
167176  0  0  1  0            999 V2000
  -30.5641  -14.6827   20.3900 C   0  0  0  0  0  0
  -30.4391  -12.3564   19.5045 C   0  0  0  0  0  0
  -29.5099  -12.3195   18.2687 C   0  0  0  0  0  0
  -28.0219  -12.2730   18.6723 C   0  0  0  0  0  0
  -27.6460  -13.2001   19.8584 C   0  0  2  0  0  0
  -28.6883  -13.1108   20.9947 C   0  0  0  0  0  0
  -25.2554  -13.8188   20.5666 C   0  0  0  0  0  0
  -24.1802  -13.0425   20.9176 C   0  0  0  0  0  0
  -24.6369  -11.6920   20.8784 C   0  0  0  0  0  0
  -23.9053  -10.4287   21.0434 C   0  0  0  0  0  0
  -24.3612   -9.4192   21.9192 C   0  0  0  0  0  0
  -23.6259   -8.2243   22.0796 C   0  0  0  0  0  0
  -22.4259   -8.0285   21.3568 C   0  0  0  0  0  0
  -21.9896   -9.0259   20.4680 C   0  0  0  0  0  0
  -22.7226  -10.2129   20.3075 C   0  0  0  0  0  0
  -21.6870   -6.0706   22.5273 C   0  0  0  0  0  0
  -21.4003   -6.5622   23.8192 C   0  0  0  0  0  0
  -21.3646   -5.6795   24.9170 C   0  0  0  0  0  0
  -21.6036   -4.3054   24.7238 C   0  0  0  0  0  0
  -21.8813   -3.8137   23.4370 C   0  0  0  0  0  0
  -21.9183   -4.6938   22.3407 C   0  0  0  0  0  0
  -22.7847  -13.5233   21.1804 C   0  0  0  0  0  0
  -22.1670   -4.2118   21.0994 F   0  0  0  0  0  0
  -21.5624   -3.4546   25.7765 F   0  0  0  0  0  0
  -29.9896  -13.4379   20.4047 N   0  0  0  0  0  0
  -26.2943  -12.9307   20.3352 N   0  0  0  0  0  0
  -25.9288  -11.6492   20.5900 N   0  0  0  0  0  0
  -22.0508  -12.8220   22.0393 N   0  0  0  0  0  0
  -25.4212  -15.1906   20.4050 N   0  0  0  0  0  0
  -31.7485  -14.8310   20.0782 O   0  0  0  0  0  0
  -21.6658   -6.8857   21.4228 O   0  0  0  0  0  0
  -22.3482  -14.5468   20.6614 O   0  0  0  0  0  0
  -24.6302  -31.8551   23.2060 C   0  0  0  0  0  0
  -25.9110  -32.4752   23.8388 C   0  0  1  0  0  0
  -27.2093  -27.3345   20.0794 C   0  0  0  0  0  0
  -25.5892  -33.8568   24.2290 N   0  0  0  0  0  0
  -23.4223  -30.4833   21.5478 C   0  0  2  0  0  0
  -24.8588  -28.9492   20.1054 C   0  0  0  0  0  0
  -22.7502  -29.4607   22.4932 C   0  0  0  0  0  0
  -18.0291  -28.1421   22.8503 C   0  0  0  0  0  0
  -24.1476  -36.7323   23.2640 C   0  0  0  0  0  0
  -25.9600  -30.7926   21.3676 C   0  0  0  0  0  0
  -26.0334  -29.4248   20.7059 C   0  0  0  0  0  0
  -27.2168  -28.6302   20.6798 C   0  0  0  0  0  0
  -26.0082  -26.9076   19.4699 C   0  0  0  0  0  0
  -24.8484  -27.6960   19.4778 C   0  0  0  0  0  0
  -23.6307  -29.8276   20.1596 C   0  0  0  0  0  0
  -25.4095  -36.3090   24.0329 C   0  0  1  0  0  0
  -20.5890  -28.3709   23.1290 C   0  0  2  0  0  0
  -20.6779  -26.9424   22.5402 C   0  0  0  0  0  0
  -19.5727  -26.6424   21.5225 C   0  0  0  0  0  0
  -18.1913  -26.7946   22.1658 C   0  0  0  0  0  0
  -19.1543  -28.8901   23.2875 C   0  0  0  0  0  0
  -18.9448  -30.1504   23.8879 C   0  0  0  0  0  0
  -17.6442  -30.6594   24.0612 C   0  0  0  0  0  0
  -25.9031  -34.9451   23.5122 C   0  0  0  0  0  0
  -16.5350  -29.9092   23.6341 C   0  0  0  0  0  0
  -16.7279  -28.6537   23.0328 C   0  0  0  0  0  0
  -26.4504  -31.6578   25.0773 C   0  0  0  0  0  0
  -25.3758  -31.3582   26.1490 C   0  0  0  0  0  0
  -27.0398  -30.3059   24.6194 C   0  0  0  0  0  0
  -27.6084  -32.4317   25.7496 C   0  0  0  0  0  0
  -27.5563  -37.1805   24.8474 C   0  0  0  0  0  0
  -21.4214  -29.3060   22.3688 N   0  0  0  0  0  0
  -26.4283  -37.3789   23.9414 N   0  0  0  0  0  0
  -24.6923  -31.0569   22.0997 N   0  0  0  0  0  0
  -23.4210  -28.8127   23.2999 O   0  0  0  0  0  0
  -28.3191  -26.4823   20.0849 O   0  0  0  0  0  0
  -26.5616  -34.8933   22.4692 O   0  0  0  0  0  0
  -23.5471  -32.1341   23.7399 O   0  0  0  0  0  0
  -28.9756  -19.5556   18.5643 C   0  0  0  0  0  0
  -29.1534  -18.2174   20.5900 C   0  0  0  0  0  0
  -29.1868  -18.3974   17.7945 C   0  0  0  0  0  0
  -29.4762  -17.1488   18.4263 C   0  0  0  0  0  0
  -29.5166  -17.0312   19.8579 C   0  0  0  0  0  0
  -28.8931  -19.4881   19.9679 C   0  0  0  0  0  0
  -28.0035  -24.1166   19.0078 C   0  0  0  0  0  0
  -29.1040  -24.3853   21.2233 C   0  0  0  0  0  0
  -27.5979  -22.6505   19.3884 C   0  0  0  0  0  0
  -28.8002  -22.8862   21.5208 C   0  0  0  0  0  0
  -28.0665  -25.0359   20.2718 C   0  0  1  0  0  0
  -28.7030  -21.9816   20.2638 C   0  0  1  0  0  0
  -29.0189  -18.5278   16.2735 C   0  0  0  0  0  0
  -31.1295  -15.8743   16.9833 C   0  0  0  0  0  0
  -29.6893  -15.9500   17.5194 C   0  0  0  0  0  0
  -29.7046  -15.7487   20.5741 N   0  0  0  0  0  0
  -28.4941  -20.6048   20.7174 O   0  0  0  0  0  0
  -31.4782  -12.4796   19.1963 H   0  0  0  0  0  0
  -30.3970  -11.4025   20.0341 H   0  0  0  0  0  0
  -29.7370  -11.4227   17.6921 H   0  0  0  0  0  0
  -29.7218  -13.1364   17.5870 H   0  0  0  0  0  0
  -27.8194  -11.2409   18.9539 H   0  0  0  0  0  0
  -27.3828  -12.4676   17.8107 H   0  0  0  0  0  0
  -27.6505  -14.2198   19.4735 H   0  0  0  0  0  0
  -28.7190  -12.1176   21.4435 H   0  0  0  0  0  0
  -28.4407  -13.7947   21.8054 H   0  0  0  0  0  0
  -25.2756   -9.5649   22.4771 H   0  0  0  0  0  0
  -23.9945   -7.4649   22.7557 H   0  0  0  0  0  0
  -21.0828   -8.8752   19.9003 H   0  0  0  0  0  0
  -22.3667  -10.9657   19.6213 H   0  0  0  0  0  0
  -21.1992   -7.6144   23.9653 H   0  0  0  0  0  0
  -21.1475   -6.0581   25.9057 H   0  0  0  0  0  0
  -22.0597   -2.7593   23.2916 H   0  0  0  0  0  0
  -22.4167  -11.9899   22.4786 H   0  0  0  0  0  0
  -21.1115  -13.1242   22.2562 H   0  0  0  0  0  0
  -24.6407  -15.8323   20.4960 H   0  0  0  0  0  0
  -26.2586  -15.6371   20.0512 H   0  0  0  0  0  0
  -26.7177  -32.5448   23.1136 H   0  0  0  0  0  0
  -25.0021  -33.9704   25.0436 H   0  0  0  0  0  0
  -22.7196  -31.3071   21.4102 H   0  0  0  0  0  0
  -23.3744  -35.9650   23.3307 H   0  0  0  0  0  0
  -24.3574  -36.8975   22.2054 H   0  0  0  0  0  0
  -23.7263  -37.6525   23.6713 H   0  0  0  0  0  0
  -26.0824  -31.5583   20.5986 H   0  0  0  0  0  0
  -26.8475  -30.8442   21.9892 H   0  0  0  0  0  0
  -28.1283  -28.9932   21.1331 H   0  0  0  0  0  0
  -25.9447  -25.9511   18.9779 H   0  0  0  0  0  0
  -23.9511  -27.3265   18.9994 H   0  0  0  0  0  0
  -23.7406  -30.6061   19.4017 H   0  0  0  0  0  0
  -22.7533  -29.2510   19.8593 H   0  0  0  0  0  0
  -25.1266  -36.1931   25.0819 H   0  0  0  0  0  0
  -20.9961  -28.3263   24.1419 H   0  0  0  0  0  0
  -20.5726  -26.2286   23.3592 H   0  0  0  0  0  0
  -21.6626  -26.7454   22.1158 H   0  0  0  0  0  0
  -19.6859  -25.6343   21.1227 H   0  0  0  0  0  0
  -19.6642  -27.3273   20.6782 H   0  0  0  0  0  0
  -17.4150  -26.6737   21.4070 H   0  0  0  0  0  0
  -18.0277  -26.0092   22.9056 H   0  0  0  0  0  0
  -19.7914  -30.7356   24.2205 H   0  0  0  0  0  0
  -17.4974  -31.6247   24.5240 H   0  0  0  0  0  0
  -15.5336  -30.2980   23.7673 H   0  0  0  0  0  0
  -15.8701  -28.0888   22.6977 H   0  0  0  0  0  0
  -24.5985  -30.6888   25.7762 H   0  0  0  0  0  0
  -24.8866  -32.2660   26.5033 H   0  0  0  0  0  0
  -25.8086  -30.8670   27.0221 H   0  0  0  0  0  0
  -26.2940  -29.6716   24.1380 H   0  0  0  0  0  0
  -27.4316  -29.7392   25.4658 H   0  0  0  0  0  0
  -27.8704  -30.4425   23.9275 H   0  0  0  0  0  0
  -27.2746  -33.3642   26.2069 H   0  0  0  0  0  0
  -28.3842  -32.6832   25.0247 H   0  0  0  0  0  0
  -28.0834  -31.8460   26.5392 H   0  0  0  0  0  0
  -28.2559  -38.0119   24.7535 H   0  0  0  0  0  0
  -28.1080  -36.2654   24.6285 H   0  0  0  0  0  0
  -27.2274  -37.1406   25.8874 H   0  0  0  0  0  0
  -20.9382  -29.8807   21.6935 H   0  0  0  0  0  0
  -26.0164  -38.2841   24.1484 H   0  0  0  0  0  0
  -28.7938  -20.4865   18.0479 H   0  0  0  0  0  0
  -29.0652  -18.1614   21.6689 H   0  0  0  0  0  0
  -27.3229  -24.5118   18.2540 H   0  0  0  0  0  0
  -28.9761  -24.0839   18.5158 H   0  0  0  0  0  0
  -30.1112  -24.4784   20.8131 H   0  0  0  0  0  0
  -29.1100  -24.9392   22.1623 H   0  0  0  0  0  0
  -27.3685  -22.0699   18.4982 H   0  0  0  0  0  0
  -26.6600  -22.6754   19.9469 H   0  0  0  0  0  0
  -27.8542  -22.8354   22.0587 H   0  0  0  0  0  0
  -29.5429  -22.4844   22.2075 H   0  0  0  0  0  0
  -27.1059  -24.9362   20.7802 H   0  0  0  0  0  0
  -29.6526  -22.0198   19.7264 H   0  0  0  0  0  0
  -28.7265  -19.5336   15.9676 H   0  0  0  0  0  0
  -28.2159  -17.8782   15.9137 H   0  0  0  0  0  0
  -29.9317  -18.2740   15.7343 H   0  0  0  0  0  0
  -31.2782  -15.0003   16.3497 H   0  0  0  0  0  0
  -31.8502  -15.8160   17.7968 H   0  0  0  0  0  0
  -31.4046  -16.7514   16.3976 H   0  0  0  0  0  0
  -28.9708  -15.9509   16.7002 H   0  0  0  0  0  0
  -29.4063  -15.0704   18.0698 H   0  0  0  0  0  0
  -28.9110  -15.4853   21.1366 H   0  0  0  0  0  0
  1 25  1  0  0  0
  1 30  2  0  0  0
  1 86  1  0  0  0
  2  3  1  0  0  0
  2 25  1  0  0  0
  2 88  1  0  0  0
  2 89  1  0  0  0
  3  4  1  0  0  0
  3 90  1  0  0  0
  3 91  1  0  0  0
  4  5  1  0  0  0
  4 92  1  0  0  0
  4 93  1  0  0  0
  5  6  1  0  0  0
  5 26  1  0  0  0
  5 94  1  0  0  0
  6 25  1  0  0  0
  6 95  1  0  0  0
  6 96  1  0  0  0
  7  8  2  0  0  0
  7 26  1  0  0  0
  7 29  1  0  0  0
  8  9  1  0  0  0
  8 22  1  0  0  0
  9 10  1  0  0  0
  9 27  2  0  0  0
 10 11  2  0  0  0
 10 15  1  0  0  0
 11 12  1  0  0  0
 11 97  1  0  0  0
 12 13  2  0  0  0
 12 98  1  0  0  0
 13 14  1  0  0  0
 13 31  1  0  0  0
 14 15  2  0  0  0
 14 99  1  0  0  0
 15100  1  0  0  0
 16 17  2  0  0  0
 16 21  1  0  0  0
 16 31  1  0  0  0
 17 18  1  0  0  0
 17101  1  0  0  0
 18 19  2  0  0  0
 18102  1  0  0  0
 19 20  1  0  0  0
 19 24  1  0  0  0
 20 21  2  0  0  0
 20103  1  0  0  0
 21 23  1  0  0  0
 22 28  1  0  0  0
 22 32  2  0  0  0
 26 27  1  0  0  0
 28104  1  0  0  0
 28105  1  0  0  0
 29106  1  0  0  0
 29107  1  0  0  0
 33 34  1  0  0  0
 33 66  1  0  0  0
 33 70  2  0  0  0
 34 36  1  0  0  0
 34 59  1  0  0  0
 34108  1  0  0  0
 35 44  2  0  0  0
 35 45  1  0  0  0
 35 68  1  0  0  0
 36 56  1  0  0  0
 36109  1  0  0  0
 37 39  1  0  0  0
 37 47  1  0  0  0
 37 66  1  0  0  0
 37110  1  0  0  0
 38 43  2  0  0  0
 38 46  1  0  0  0
 38 47  1  0  0  0
 39 64  1  0  0  0
 39 67  2  0  0  0
 40 52  1  0  0  0
 40 53  2  0  0  0
 40 58  1  0  0  0
 41111  1  0  0  0
 41112  1  0  0  0
 41113  1  0  0  0
 41 48  1  0  0  0
 42 43  1  0  0  0
 42 66  1  0  0  0
 42114  1  0  0  0
 42115  1  0  0  0
 43 44  1  0  0  0
 44116  1  0  0  0
 45 46  2  0  0  0
 45117  1  0  0  0
 46118  1  0  0  0
 47119  1  0  0  0
 47120  1  0  0  0
 48 56  1  0  0  0
 48 65  1  0  0  0
 48121  1  0  0  0
 49 50  1  0  0  0
 49 53  1  0  0  0
 49 64  1  0  0  0
 49122  1  0  0  0
 50 51  1  0  0  0
 50123  1  0  0  0
 50124  1  0  0  0
 51 52  1  0  0  0
 51125  1  0  0  0
 51126  1  0  0  0
 52127  1  0  0  0
 52128  1  0  0  0
 53 54  1  0  0  0
 54 55  2  0  0  0
 54129  1  0  0  0
 55 57  1  0  0  0
 55130  1  0  0  0
 56 69  2  0  0  0
 57 58  2  0  0  0
 57131  1  0  0  0
 58132  1  0  0  0
 59 60  1  0  0  0
 59 61  1  0  0  0
 59 62  1  0  0  0
 60133  1  0  0  0
 60134  1  0  0  0
 60135  1  0  0  0
 61136  1  0  0  0
 61137  1  0  0  0
 61138  1  0  0  0
 62139  1  0  0  0
 62140  1  0  0  0
 62141  1  0  0  0
 63 65  1  0  0  0
 63142  1  0  0  0
 63143  1  0  0  0
 63144  1  0  0  0
 64145  1  0  0  0
 65146  1  0  0  0
 68 81  1  0  0  0
 71 73  2  0  0  0
 71 76  1  0  0  0
 71147  1  0  0  0
 72 75  1  0  0  0
 72 76  2  0  0  0
 72148  1  0  0  0
 73 74  1  0  0  0
 73 83  1  0  0  0
 74 75  2  0  0  0
 74 85  1  0  0  0
 75 86  1  0  0  0
 76 87  1  0  0  0
 77 79  1  0  0  0
 77 81  1  0  0  0
 77149  1  0  0  0
 77150  1  0  0  0
 78 80  1  0  0  0
 78 81  1  0  0  0
 78151  1  0  0  0
 78152  1  0  0  0
 79 82  1  0  0  0
 79153  1  0  0  0
 79154  1  0  0  0
 80 82  1  0  0  0
 80155  1  0  0  0
 80156  1  0  0  0
 81157  1  0  0  0
 82 87  1  0  0  0
 82158  1  0  0  0
 83159  1  0  0  0
 83160  1  0  0  0
 83161  1  0  0  0
 84 85  1  0  0  0
 84162  1  0  0  0
 84163  1  0  0  0
 84164  1  0  0  0
 85165  1  0  0  0
 85166  1  0  0  0
 86167  1  0  0  0
M  ISO  4   1 100  68 101  81 101  86 100
M  END
> <chiral flag>
0

> <version>
0

> <s_m_source_file>
/data/baiqing/PycharmProjects/Reinvent-master-3.2/result/LINK_invent/BTK/process_docking_weight1_custom_sum_contain_oxygen_bond_distance_aromatic_linkinvent_7_9_3/rearranged_h_0154.sdf

> <i_m_source_file_index>
40

> <r_mmod_Potential_Energy-OPLS-2005>
145.989959716797

> <r_mmod_Stretch_Energy-OPLS-2005>
80.5751190185547

> <r_mmod_Bend_Energy-OPLS-2005>
150.793807983398

> <r_mmod_Torsional_Energy-OPLS-2005>
279.449798583984

> <r_mmod_Improper_Torsional_Energy-OPLS-2005>
5.98339939117432

> <r_mmod_Van_der_Waal_Energy-OPLS-2005>
158.785766601562

> <r_mmod_Electrostatic_Energy-OPLS-2005>
-391.348907470703

> <r_mmod_Solvation_Energy-OPLS-2005>
-203.789642333984

> <b_mmod_Minimization_Converged-OPLS-2005>
0

> <r_mmod_RMS_Derivative-OPLS-2005>
7.17265748977661

$$$$
41
                    3D
 Structure written by MMmdl.
169178  0  0  1  0            999 V2000
  -30.5664  -14.7809   20.4713 C   0  0  0  0  0  0
  -30.4437  -12.4774   19.4768 C   0  0  0  0  0  0
  -29.5146  -12.5265   18.2408 C   0  0  0  0  0  0
  -28.0411  -12.3386   18.6538 C   0  0  0  0  0  0
  -27.6441  -13.2318   19.8591 C   0  0  2  0  0  0
  -28.6888  -13.1466   20.9956 C   0  0  0  0  0  0
  -25.2516  -13.8176   20.5680 C   0  0  0  0  0  0
  -24.1803  -13.0435   20.9200 C   0  0  0  0  0  0
  -24.6377  -11.6911   20.8743 C   0  0  0  0  0  0
  -23.9063  -10.4304   21.0400 C   0  0  0  0  0  0
  -24.3637   -9.4236   21.9178 C   0  0  0  0  0  0
  -23.6310   -8.2282   22.0760 C   0  0  0  0  0  0
  -22.4306   -8.0295   21.3544 C   0  0  0  0  0  0
  -21.9917   -9.0271   20.4663 C   0  0  0  0  0  0
  -22.7243  -10.2139   20.3054 C   0  0  0  0  0  0
  -21.6856   -6.0749   22.5274 C   0  0  0  0  0  0
  -21.4040   -6.5660   23.8211 C   0  0  0  0  0  0
  -21.3648   -5.6804   24.9163 C   0  0  0  0  0  0
  -21.6037   -4.3065   24.7215 C   0  0  0  0  0  0
  -21.8810   -3.8156   23.4339 C   0  0  0  0  0  0
  -21.9212   -4.6978   22.3402 C   0  0  0  0  0  0
  -22.7829  -13.5234   21.1869 C   0  0  0  0  0  0
  -22.1668   -4.2162   21.0970 F   0  0  0  0  0  0
  -21.5619   -3.4545   25.7723 F   0  0  0  0  0  0
  -29.9936  -13.5254   20.4270 N   0  0  0  0  0  0
  -26.2948  -12.9397   20.3299 N   0  0  0  0  0  0
  -25.9313  -11.6548   20.5771 N   0  0  0  0  0  0
  -22.0476  -12.8216   22.0405 N   0  0  0  0  0  0
  -25.4170  -15.1889   20.3999 N   0  0  0  0  0  0
  -31.7396  -14.9233   20.1019 O   0  0  0  0  0  0
  -21.6674   -6.8891   21.4234 O   0  0  0  0  0  0
  -22.3528  -14.5567   20.6755 O   0  0  0  0  0  0
  -24.6309  -31.8491   23.1880 C   0  0  0  0  0  0
  -25.9106  -32.4745   23.8255 C   0  0  1  0  0  0
  -27.2553  -27.2476   20.1215 C   0  0  0  0  0  0
  -25.5924  -33.8559   24.2200 N   0  0  0  0  0  0
  -23.4316  -30.4637   21.5312 C   0  0  2  0  0  0
  -24.8823  -28.8896   20.1150 C   0  0  0  0  0  0
  -22.7493  -29.4545   22.4867 C   0  0  0  0  0  0
  -18.0302  -28.1358   22.8490 C   0  0  0  0  0  0
  -24.1492  -36.7270   23.2638 C   0  0  0  0  0  0
  -25.9752  -30.7535   21.3676 C   0  0  0  0  0  0
  -26.0508  -29.3692   20.7190 C   0  0  0  0  0  0
  -27.2317  -28.5617   20.7056 C   0  0  0  0  0  0
  -26.0578  -26.8171   19.5141 C   0  0  0  0  0  0
  -24.8901  -27.6179   19.5058 C   0  0  0  0  0  0
  -23.6536  -29.7794   20.1545 C   0  0  0  0  0  0
  -25.4119  -36.3043   24.0334 C   0  0  1  0  0  0
  -20.5910  -28.3669   23.1268 C   0  0  2  0  0  0
  -20.6788  -26.9382   22.5399 C   0  0  0  0  0  0
  -19.5781  -26.6346   21.5200 C   0  0  0  0  0  0
  -18.1951  -26.7923   22.1588 C   0  0  0  0  0  0
  -19.1562  -28.8825   23.2886 C   0  0  0  0  0  0
  -18.9495  -30.1441   23.8881 C   0  0  0  0  0  0
  -17.6492  -30.6567   24.0578 C   0  0  0  0  0  0
  -25.9067  -34.9445   23.5052 C   0  0  0  0  0  0
  -16.5380  -29.9072   23.6331 C   0  0  0  0  0  0
  -16.7290  -28.6498   23.0332 C   0  0  0  0  0  0
  -26.4461  -31.6606   25.0675 C   0  0  0  0  0  0
  -25.3681  -31.3796   26.1403 C   0  0  0  0  0  0
  -27.0315  -30.3045   24.6118 C   0  0  0  0  0  0
  -27.5998  -32.4354   25.7458 C   0  0  0  0  0  0
  -27.5618  -37.1751   24.8440 C   0  0  0  0  0  0
  -21.4198  -29.3042   22.3654 N   0  0  0  0  0  0
  -26.4258  -37.3781   23.9465 N   0  0  0  0  0  0
  -24.6987  -31.0415   22.0873 N   0  0  0  0  0  0
  -23.4194  -28.8086   23.2963 O   0  0  0  0  0  0
  -28.4354  -26.4673   20.1030 O   0  0  0  0  0  0
  -26.5625  -34.8940   22.4613 O   0  0  0  0  0  0
  -23.5438  -32.1322   23.7136 O   0  0  0  0  0  0
  -28.4831  -19.4822   21.0922 C   0  0  0  0  0  0
  -29.3903  -20.2639   20.3384 C   0  0  0  0  0  0
  -28.6459  -18.0701   21.3103 C   0  0  0  0  0  0
  -29.6972  -17.3287   20.6676 C   0  0  0  0  0  0
  -30.4738  -19.4747   19.8449 C   0  0  0  0  0  0
  -28.4138  -22.5814   21.3522 C   0  0  0  0  0  0
  -28.8701  -22.5504   18.8851 C   0  0  0  0  0  0
  -28.3753  -24.1702   21.4087 C   0  0  0  0  0  0
  -28.2242  -24.0225   18.8999 C   0  0  0  0  0  0
  -29.2856  -21.8803   20.2538 C   0  0  2  0  0  0
  -28.6239  -24.9620   20.0856 C   0  0  1  0  0  0
  -26.3113  -17.9943   22.4061 C   0  0  0  0  0  0
  -28.4118  -17.5380   23.7390 C   0  0  0  0  0  0
  -32.8094  -19.4641   19.3475 C   0  0  0  0  0  0
  -27.7395  -17.4117   22.3588 C   0  0  0  0  0  0
  -30.5789  -18.0939   19.9568 N   0  0  0  0  0  0
  -29.7334  -15.8398   20.8228 N   0  0  0  0  0  0
  -31.5456  -20.1260   19.2742 O   0  0  0  0  0  0
  -31.4822  -12.6242   19.1739 H   0  0  0  0  0  0
  -30.4076  -11.4943   19.9488 H   0  0  0  0  0  0
  -29.8021  -11.7605   17.5200 H   0  0  0  0  0  0
  -29.6291  -13.4841   17.7301 H   0  0  0  0  0  0
  -27.8993  -11.2877   18.9102 H   0  0  0  0  0  0
  -27.3804  -12.5304   17.8078 H   0  0  0  0  0  0
  -27.6417  -14.2567   19.4866 H   0  0  0  0  0  0
  -28.7299  -12.1382   21.4126 H   0  0  0  0  0  0
  -28.4084  -13.7952   21.8266 H   0  0  0  0  0  0
  -25.2772   -9.5744   22.4758 H   0  0  0  0  0  0
  -24.0018   -7.4691   22.7476 H   0  0  0  0  0  0
  -21.0856   -8.8789   19.8975 H   0  0  0  0  0  0
  -22.3689  -10.9695   19.6190 H   0  0  0  0  0  0
  -21.2045   -7.6177   23.9708 H   0  0  0  0  0  0
  -21.1464   -6.0541   25.9055 H   0  0  0  0  0  0
  -22.0598   -2.7621   23.2826 H   0  0  0  0  0  0
  -22.4107  -11.9879   22.4789 H   0  0  0  0  0  0
  -21.1087  -13.1214   22.2609 H   0  0  0  0  0  0
  -24.6378  -15.8278   20.5138 H   0  0  0  0  0  0
  -26.2242  -15.6248   19.9761 H   0  0  0  0  0  0
  -26.7169  -32.5354   23.0997 H   0  0  0  0  0  0
  -25.0231  -33.9730   25.0436 H   0  0  0  0  0  0
  -22.7303  -31.2855   21.3728 H   0  0  0  0  0  0
  -23.3831  -35.9518   23.3158 H   0  0  0  0  0  0
  -24.3618  -36.8985   22.2081 H   0  0  0  0  0  0
  -23.7142  -37.6389   23.6734 H   0  0  0  0  0  0
  -26.1032  -31.5047   20.5863 H   0  0  0  0  0  0
  -26.8563  -30.8117   21.9947 H   0  0  0  0  0  0
  -28.1330  -28.9373   21.1707 H   0  0  0  0  0  0
  -26.0194  -25.8544   19.0293 H   0  0  0  0  0  0
  -23.9957  -27.2389   19.0281 H   0  0  0  0  0  0
  -23.7797  -30.5510   19.3944 H   0  0  0  0  0  0
  -22.7737  -29.2088   19.8537 H   0  0  0  0  0  0
  -25.1268  -36.1855   25.0821 H   0  0  0  0  0  0
  -21.0003  -28.3218   24.1385 H   0  0  0  0  0  0
  -20.5630  -26.2270   23.3594 H   0  0  0  0  0  0
  -21.6659  -26.7354   22.1214 H   0  0  0  0  0  0
  -19.6947  -25.6238   21.1251 H   0  0  0  0  0  0
  -19.6777  -27.3143   20.6734 H   0  0  0  0  0  0
  -17.4233  -26.6699   21.3973 H   0  0  0  0  0  0
  -18.0333  -26.0034   22.8940 H   0  0  0  0  0  0
  -19.7980  -30.7263   24.2194 H   0  0  0  0  0  0
  -17.5070  -31.6255   24.5156 H   0  0  0  0  0  0
  -15.5388  -30.2989   23.7659 H   0  0  0  0  0  0
  -15.8696  -28.0839   22.7017 H   0  0  0  0  0  0
  -24.5901  -30.7080   25.7779 H   0  0  0  0  0  0
  -24.8867  -32.2992   26.4749 H   0  0  0  0  0  0
  -25.8015  -30.9085   27.0241 H   0  0  0  0  0  0
  -26.2905  -29.6821   24.1116 H   0  0  0  0  0  0
  -27.4028  -29.7253   25.4576 H   0  0  0  0  0  0
  -27.8724  -30.4380   23.9322 H   0  0  0  0  0  0
  -27.2609  -33.3693   26.1963 H   0  0  0  0  0  0
  -28.3873  -32.6841   25.0337 H   0  0  0  0  0  0
  -28.0601  -31.8541   26.5452 H   0  0  0  0  0  0
  -28.2434  -38.0240   24.7693 H   0  0  0  0  0  0
  -28.1270  -36.2776   24.5918 H   0  0  0  0  0  0
  -27.2380  -37.0931   25.8828 H   0  0  0  0  0  0
  -20.9308  -29.8844   21.6977 H   0  0  0  0  0  0
  -26.0116  -38.2782   24.1652 H   0  0  0  0  0  0
  -27.6768  -20.0009   21.5843 H   0  0  0  0  0  0
  -27.3880  -22.2333   21.2282 H   0  0  0  0  0  0
  -28.7319  -22.2177   22.3307 H   0  0  0  0  0  0
  -29.7481  -22.5597   18.2368 H   0  0  0  0  0  0
  -28.1593  -21.8975   18.3784 H   0  0  0  0  0  0
  -29.0977  -24.5103   22.1532 H   0  0  0  0  0  0
  -27.4009  -24.4623   21.8020 H   0  0  0  0  0  0
  -27.1411  -23.9124   18.9033 H   0  0  0  0  0  0
  -28.4570  -24.5137   17.9528 H   0  0  0  0  0  0
  -30.3058  -22.2167   20.4423 H   0  0  0  0  0  0
  -29.7119  -24.9469   20.0014 H   0  0  0  0  0  0
  -25.8914  -18.1164   21.4063 H   0  0  0  0  0  0
  -26.2770  -18.9626   22.9084 H   0  0  0  0  0  0
  -25.6378  -17.3367   22.9566 H   0  0  0  0  0  0
  -29.3865  -17.0466   23.7585 H   0  0  0  0  0  0
  -27.8077  -17.0947   24.5315 H   0  0  0  0  0  0
  -28.5732  -18.5866   24.0021 H   0  0  0  0  0  0
  -33.6045  -20.1182   18.9961 H   0  0  0  0  0  0
  -32.8251  -18.5592   18.7388 H   0  0  0  0  0  0
  -33.0428  -19.1907   20.3795 H   0  0  0  0  0  0
  -27.6255  -16.3550   22.1225 H   0  0  0  0  0  0
  -28.8738  -15.4821   21.2031 H   0  0  0  0  0  0
  1 25  1  0  0  0
  1 30  2  0  0  0
  1 87  1  0  0  0
  2  3  1  0  0  0
  2 25  1  0  0  0
  2 89  1  0  0  0
  2 90  1  0  0  0
  3  4  1  0  0  0
  3 91  1  0  0  0
  3 92  1  0  0  0
  4  5  1  0  0  0
  4 93  1  0  0  0
  4 94  1  0  0  0
  5  6  1  0  0  0
  5 26  1  0  0  0
  5 95  1  0  0  0
  6 25  1  0  0  0
  6 96  1  0  0  0
  6 97  1  0  0  0
  7  8  2  0  0  0
  7 26  1  0  0  0
  7 29  1  0  0  0
  8  9  1  0  0  0
  8 22  1  0  0  0
  9 10  1  0  0  0
  9 27  2  0  0  0
 10 11  2  0  0  0
 10 15  1  0  0  0
 11 12  1  0  0  0
 11 98  1  0  0  0
 12 13  2  0  0  0
 12 99  1  0  0  0
 13 14  1  0  0  0
 13 31  1  0  0  0
 14 15  2  0  0  0
 14100  1  0  0  0
 15101  1  0  0  0
 16 17  2  0  0  0
 16 21  1  0  0  0
 16 31  1  0  0  0
 17 18  1  0  0  0
 17102  1  0  0  0
 18 19  2  0  0  0
 18103  1  0  0  0
 19 20  1  0  0  0
 19 24  1  0  0  0
 20 21  2  0  0  0
 20104  1  0  0  0
 21 23  1  0  0  0
 22 28  1  0  0  0
 22 32  2  0  0  0
 26 27  1  0  0  0
 28105  1  0  0  0
 28106  1  0  0  0
 29107  1  0  0  0
 29108  1  0  0  0
 33 34  1  0  0  0
 33 66  1  0  0  0
 33 70  2  0  0  0
 34 36  1  0  0  0
 34 59  1  0  0  0
 34109  1  0  0  0
 35 44  2  0  0  0
 35 45  1  0  0  0
 35 68  1  0  0  0
 36 56  1  0  0  0
 36110  1  0  0  0
 37 39  1  0  0  0
 37 47  1  0  0  0
 37 66  1  0  0  0
 37111  1  0  0  0
 38 43  2  0  0  0
 38 46  1  0  0  0
 38 47  1  0  0  0
 39 64  1  0  0  0
 39 67  2  0  0  0
 40 52  1  0  0  0
 40 53  2  0  0  0
 40 58  1  0  0  0
 41112  1  0  0  0
 41113  1  0  0  0
 41114  1  0  0  0
 41 48  1  0  0  0
 42 43  1  0  0  0
 42 66  1  0  0  0
 42115  1  0  0  0
 42116  1  0  0  0
 43 44  1  0  0  0
 44117  1  0  0  0
 45 46  2  0  0  0
 45118  1  0  0  0
 46119  1  0  0  0
 47120  1  0  0  0
 47121  1  0  0  0
 48 56  1  0  0  0
 48 65  1  0  0  0
 48122  1  0  0  0
 49 50  1  0  0  0
 49 53  1  0  0  0
 49 64  1  0  0  0
 49123  1  0  0  0
 50 51  1  0  0  0
 50124  1  0  0  0
 50125  1  0  0  0
 51 52  1  0  0  0
 51126  1  0  0  0
 51127  1  0  0  0
 52128  1  0  0  0
 52129  1  0  0  0
 53 54  1  0  0  0
 54 55  2  0  0  0
 54130  1  0  0  0
 55 57  1  0  0  0
 55131  1  0  0  0
 56 69  2  0  0  0
 57 58  2  0  0  0
 57132  1  0  0  0
 58133  1  0  0  0
 59 60  1  0  0  0
 59 61  1  0  0  0
 59 62  1  0  0  0
 60134  1  0  0  0
 60135  1  0  0  0
 60136  1  0  0  0
 61137  1  0  0  0
 61138  1  0  0  0
 61139  1  0  0  0
 62140  1  0  0  0
 62141  1  0  0  0
 62142  1  0  0  0
 63 65  1  0  0  0
 63143  1  0  0  0
 63144  1  0  0  0
 63145  1  0  0  0
 64146  1  0  0  0
 65147  1  0  0  0
 68 81  1  0  0  0
 71 72  2  0  0  0
 71 73  1  0  0  0
 71148  1  0  0  0
 72 75  1  0  0  0
 72 80  1  0  0  0
 73 74  2  0  0  0
 73 85  1  0  0  0
 74 86  1  0  0  0
 74 87  1  0  0  0
 75 86  2  0  0  0
 75 88  1  0  0  0
 76 78  1  0  0  0
 76 80  1  0  0  0
 76149  1  0  0  0
 76150  1  0  0  0
 77 79  1  0  0  0
 77 80  1  0  0  0
 77151  1  0  0  0
 77152  1  0  0  0
 78 81  1  0  0  0
 78153  1  0  0  0
 78154  1  0  0  0
 79 81  1  0  0  0
 79155  1  0  0  0
 79156  1  0  0  0
 80157  1  0  0  0
 81158  1  0  0  0
 82159  1  0  0  0
 82160  1  0  0  0
 82161  1  0  0  0
 82 85  1  0  0  0
 83 85  1  0  0  0
 83162  1  0  0  0
 83163  1  0  0  0
 83164  1  0  0  0
 84 88  1  0  0  0
 84165  1  0  0  0
 84166  1  0  0  0
 84167  1  0  0  0
 85168  1  0  0  0
 87169  1  0  0  0
M  ISO  4   1 100  68 101  81 101  87 100
M  END
> <chiral flag>
0

> <version>
0

> <s_m_source_file>
/data/baiqing/PycharmProjects/Reinvent-master-3.2/result/LINK_invent/BTK/process_docking_weight1_custom_sum_contain_oxygen_bond_distance_aromatic_linkinvent_7_9_3/rearranged_h_0154.sdf

> <i_m_source_file_index>
41

> <r_mmod_Potential_Energy-OPLS-2005>
121.406280517578

> <r_mmod_Stretch_Energy-OPLS-2005>
132.082794189453

> <r_mmod_Bend_Energy-OPLS-2005>
246.69270324707

> <r_mmod_Torsional_Energy-OPLS-2005>
250.225250244141

> <r_mmod_Improper_Torsional_Energy-OPLS-2005>
4.85097599029541

> <r_mmod_Van_der_Waal_Energy-OPLS-2005>
139.578811645508

> <r_mmod_Electrostatic_Energy-OPLS-2005>
-526.024475097656

> <r_mmod_Solvation_Energy-OPLS-2005>
-214.175918579102

> <b_mmod_Minimization_Converged-OPLS-2005>
0

> <r_mmod_RMS_Derivative-OPLS-2005>
4.4397144317627

$$$$
42
                    3D
 Structure written by MMmdl.
164173  0  0  1  0            999 V2000
  -30.6187  -14.7499   20.4731 C   0  0  0  0  0  0
  -30.4375  -12.4706   19.4528 C   0  0  0  0  0  0
  -29.5033  -12.5143   18.2257 C   0  0  0  0  0  0
  -28.0346  -12.3243   18.6475 C   0  0  0  0  0  0
  -27.6437  -13.2263   19.8508 C   0  0  2  0  0  0
  -28.6950  -13.1619   20.9796 C   0  0  0  0  0  0
  -25.2561  -13.8207   20.5717 C   0  0  0  0  0  0
  -24.1829  -13.0456   20.9231 C   0  0  0  0  0  0
  -24.6397  -11.6916   20.8762 C   0  0  0  0  0  0
  -23.9075  -10.4293   21.0411 C   0  0  0  0  0  0
  -24.3631   -9.4220   21.9199 C   0  0  0  0  0  0
  -23.6299   -8.2257   22.0763 C   0  0  0  0  0  0
  -22.4279   -8.0294   21.3561 C   0  0  0  0  0  0
  -21.9923   -9.0268   20.4675 C   0  0  0  0  0  0
  -22.7241  -10.2153   20.3070 C   0  0  0  0  0  0
  -21.6848   -6.0767   22.5277 C   0  0  0  0  0  0
  -21.4008   -6.5669   23.8219 C   0  0  0  0  0  0
  -21.3650   -5.6819   24.9186 C   0  0  0  0  0  0
  -21.6033   -4.3075   24.7232 C   0  0  0  0  0  0
  -21.8817   -3.8175   23.4348 C   0  0  0  0  0  0
  -21.9195   -4.6997   22.3408 C   0  0  0  0  0  0
  -22.7868  -13.5250   21.1880 C   0  0  0  0  0  0
  -22.1663   -4.2192   21.0979 F   0  0  0  0  0  0
  -21.5633   -3.4540   25.7743 F   0  0  0  0  0  0
  -29.9887  -13.5266   20.3903 N   0  0  0  0  0  0
  -26.2950  -12.9370   20.3288 N   0  0  0  0  0  0
  -25.9326  -11.6516   20.5765 N   0  0  0  0  0  0
  -22.0501  -12.8230   22.0435 N   0  0  0  0  0  0
  -25.4287  -15.1926   20.4127 N   0  0  0  0  0  0
  -31.8117  -14.8477   20.1783 O   0  0  0  0  0  0
  -21.6632   -6.8898   21.4231 O   0  0  0  0  0  0
  -22.3573  -14.5563   20.6762 O   0  0  0  0  0  0
  -24.6296  -31.8567   23.1976 C   0  0  0  0  0  0
  -25.9126  -32.4724   23.8351 C   0  0  1  0  0  0
  -27.2207  -27.2545   20.1465 C   0  0  0  0  0  0
  -25.5926  -33.8546   24.2272 N   0  0  0  0  0  0
  -23.4290  -30.4788   21.5440 C   0  0  2  0  0  0
  -24.8769  -28.9341   20.1116 C   0  0  0  0  0  0
  -22.7470  -29.4611   22.4903 C   0  0  0  0  0  0
  -18.0280  -28.1362   22.8508 C   0  0  0  0  0  0
  -24.1478  -36.7272   23.2649 C   0  0  0  0  0  0
  -25.9753  -30.7700   21.3822 C   0  0  0  0  0  0
  -26.0491  -29.3944   20.7238 C   0  0  0  0  0  0
  -27.2215  -28.5665   20.7342 C   0  0  0  0  0  0
  -26.0264  -26.8861   19.4765 C   0  0  0  0  0  0
  -24.8724  -27.6866   19.4762 C   0  0  0  0  0  0
  -23.6459  -29.8189   20.1611 C   0  0  0  0  0  0
  -25.4086  -36.3059   24.0354 C   0  0  1  0  0  0
  -20.5887  -28.3689   23.1240 C   0  0  2  0  0  0
  -20.6768  -26.9402   22.5394 C   0  0  0  0  0  0
  -19.5760  -26.6379   21.5189 C   0  0  0  0  0  0
  -18.1940  -26.7924   22.1618 C   0  0  0  0  0  0
  -19.1538  -28.8834   23.2874 C   0  0  0  0  0  0
  -18.9474  -30.1432   23.8903 C   0  0  0  0  0  0
  -17.6484  -30.6577   24.0563 C   0  0  0  0  0  0
  -25.9041  -34.9438   23.5084 C   0  0  0  0  0  0
  -16.5366  -29.9091   23.6318 C   0  0  0  0  0  0
  -16.7277  -28.6477   23.0394 C   0  0  0  0  0  0
  -26.4523  -31.6538   25.0725 C   0  0  0  0  0  0
  -25.3771  -31.3720   26.1462 C   0  0  0  0  0  0
  -27.0384  -30.2951   24.6216 C   0  0  0  0  0  0
  -27.6066  -32.4300   25.7513 C   0  0  0  0  0  0
  -27.5562  -37.1771   24.8466 C   0  0  0  0  0  0
  -21.4186  -29.3045   22.3617 N   0  0  0  0  0  0
  -26.4265  -37.3744   23.9416 N   0  0  0  0  0  0
  -24.6973  -31.0539   22.0979 N   0  0  0  0  0  0
  -23.4139  -28.8141   23.3024 O   0  0  0  0  0  0
  -28.2878  -26.3229   20.2600 O   0  0  0  0  0  0
  -26.5625  -34.8907   22.4669 O   0  0  0  0  0  0
  -23.5428  -32.1447   23.7214 O   0  0  0  0  0  0
  -28.9412  -22.0637   17.2946 C   0  0  0  0  0  0
  -30.4271  -20.8357   18.7406 C   0  0  0  0  0  0
  -28.6658  -22.2204   19.6952 C   0  0  0  0  0  0
  -28.0978  -22.3316   18.3956 C   0  0  0  0  0  0
  -30.1947  -21.4394   17.4944 C   0  0  0  0  0  0
  -29.5581  -21.0572   19.8303 C   0  0  0  0  0  0
  -28.8059  -23.6134   20.4325 C   0  0  0  0  0  0
  -25.6298  -21.5597   18.2006 C   0  0  0  0  0  0
  -25.8838  -22.2881   16.9059 C   0  0  0  0  0  0
  -26.6428  -22.6770   18.1583 C   0  0  0  0  0  0
  -31.0545  -22.0820   15.3616 C   0  0  0  0  0  0
  -27.9739  -24.8938   19.9066 C   0  0  0  0  0  0
  -30.2866  -17.3583   20.8637 C   0  0  0  0  0  0
  -29.3275  -18.5828   20.3765 C   0  0  0  0  0  0
  -29.8586  -15.8903   20.6882 N   0  0  0  0  0  0
  -29.5494  -23.7596   21.4077 O   0  0  0  0  0  0
  -31.1360  -21.2491   16.5100 O   0  0  0  0  0  0
  -29.5312  -20.0206   20.8058 O   0  0  0  0  0  0
  -31.4709  -12.6183   19.1375 H   0  0  0  0  0  0
  -30.4123  -11.4900   19.9301 H   0  0  0  0  0  0
  -29.7883  -11.7525   17.5018 H   0  0  0  0  0  0
  -29.6118  -13.4722   17.7170 H   0  0  0  0  0  0
  -27.8989  -11.2729   18.9087 H   0  0  0  0  0  0
  -27.3765  -12.5133   17.7982 H   0  0  0  0  0  0
  -27.6374  -14.2480   19.4709 H   0  0  0  0  0  0
  -28.7447  -12.1623   21.4135 H   0  0  0  0  0  0
  -28.4348  -13.8382   21.7943 H   0  0  0  0  0  0
  -25.2781   -9.5715   22.4785 H   0  0  0  0  0  0
  -24.0038   -7.4643   22.7452 H   0  0  0  0  0  0
  -21.0889   -8.8785   19.8950 H   0  0  0  0  0  0
  -22.3700  -10.9717   19.6197 H   0  0  0  0  0  0
  -21.1964   -7.6168   23.9741 H   0  0  0  0  0  0
  -21.1480   -6.0541   25.9102 H   0  0  0  0  0  0
  -22.0595   -2.7628   23.2826 H   0  0  0  0  0  0
  -22.4116  -11.9860   22.4743 H   0  0  0  0  0  0
  -21.1133  -13.1288   22.2659 H   0  0  0  0  0  0
  -24.6663  -15.8523   20.5298 H   0  0  0  0  0  0
  -26.2770  -15.6217   20.0640 H   0  0  0  0  0  0
  -26.7203  -32.5363   23.1104 H   0  0  0  0  0  0
  -25.0038  -33.9721   25.0393 H   0  0  0  0  0  0
  -22.7280  -31.3002   21.3925 H   0  0  0  0  0  0
  -23.3726  -35.9611   23.3292 H   0  0  0  0  0  0
  -24.3568  -36.8903   22.2062 H   0  0  0  0  0  0
  -23.7242  -37.6481   23.6667 H   0  0  0  0  0  0
  -26.1082  -31.5357   20.6184 H   0  0  0  0  0  0
  -26.8560  -30.8217   22.0092 H   0  0  0  0  0  0
  -28.1082  -28.9071   21.2514 H   0  0  0  0  0  0
  -25.9285  -25.9469   18.9586 H   0  0  0  0  0  0
  -23.9786  -27.3232   18.9877 H   0  0  0  0  0  0
  -23.7590  -30.5983   19.4074 H   0  0  0  0  0  0
  -22.7670  -29.2484   19.8582 H   0  0  0  0  0  0
  -25.1253  -36.1932   25.0851 H   0  0  0  0  0  0
  -21.0005  -28.3285   24.1354 H   0  0  0  0  0  0
  -20.5606  -26.2322   23.3610 H   0  0  0  0  0  0
  -21.6646  -26.7413   22.1211 H   0  0  0  0  0  0
  -19.6943  -25.6287   21.1233 H   0  0  0  0  0  0
  -19.6688  -27.3181   20.6709 H   0  0  0  0  0  0
  -17.4193  -26.6657   21.4040 H   0  0  0  0  0  0
  -18.0351  -26.0058   22.9005 H   0  0  0  0  0  0
  -19.7954  -30.7219   24.2306 H   0  0  0  0  0  0
  -17.5047  -31.6279   24.5135 H   0  0  0  0  0  0
  -15.5369  -30.3005   23.7619 H   0  0  0  0  0  0
  -15.8674  -28.0761   22.7176 H   0  0  0  0  0  0
  -24.5925  -30.7076   25.7814 H   0  0  0  0  0  0
  -24.8984  -32.2914   26.4864 H   0  0  0  0  0  0
  -25.8126  -30.8930   27.0252 H   0  0  0  0  0  0
  -26.2999  -29.6677   24.1205 H   0  0  0  0  0  0
  -27.4047  -29.7213   25.4742 H   0  0  0  0  0  0
  -27.8877  -30.4189   23.9485 H   0  0  0  0  0  0
  -27.2647  -33.3594   26.2089 H   0  0  0  0  0  0
  -28.3908  -32.6889   25.0381 H   0  0  0  0  0  0
  -28.0725  -31.8448   26.5457 H   0  0  0  0  0  0
  -28.2572  -38.0073   24.7481 H   0  0  0  0  0  0
  -28.1097  -36.2609   24.6334 H   0  0  0  0  0  0
  -27.2298  -37.1439   25.8880 H   0  0  0  0  0  0
  -20.9338  -29.8723   21.6801 H   0  0  0  0  0  0
  -26.0163  -38.2829   24.1420 H   0  0  0  0  0  0
  -28.5980  -22.3114   16.3031 H   0  0  0  0  0  0
  -31.2470  -20.1379   18.8374 H   0  0  0  0  0  0
  -26.0050  -20.5414   18.2843 H   0  0  0  0  0  0
  -24.6848  -21.7562   18.7029 H   0  0  0  0  0  0
  -25.1099  -22.9713   16.5609 H   0  0  0  0  0  0
  -26.3986  -21.7389   16.1250 H   0  0  0  0  0  0
  -26.3157  -23.6031   18.6098 H   0  0  0  0  0  0
  -30.2292  -21.7633   14.7248 H   0  0  0  0  0  0
  -31.9683  -21.9917   14.7730 H   0  0  0  0  0  0
  -30.9366  -23.1359   15.6243 H   0  0  0  0  0  0
  -26.9687  -24.6852   20.2728 H   0  0  0  0  0  0
  -27.9660  -24.8807   18.8183 H   0  0  0  0  0  0
  -30.4437  -17.4842   21.9362 H   0  0  0  0  0  0
  -31.2707  -17.4840   20.4110 H   0  0  0  0  0  0
  -28.3202  -18.3468   20.7227 H   0  0  0  0  0  0
  -29.2370  -18.5327   19.2917 H   0  0  0  0  0  0
  -28.8702  -15.7185   20.7909 H   0  0  0  0  0  0
  1 25  1  0  0  0
  1 30  2  0  0  0
  1 85  1  0  0  0
  2  3  1  0  0  0
  2 25  1  0  0  0
  2 89  1  0  0  0
  2 90  1  0  0  0
  3  4  1  0  0  0
  3 91  1  0  0  0
  3 92  1  0  0  0
  4  5  1  0  0  0
  4 93  1  0  0  0
  4 94  1  0  0  0
  5  6  1  0  0  0
  5 26  1  0  0  0
  5 95  1  0  0  0
  6 25  1  0  0  0
  6 96  1  0  0  0
  6 97  1  0  0  0
  7  8  2  0  0  0
  7 26  1  0  0  0
  7 29  1  0  0  0
  8  9  1  0  0  0
  8 22  1  0  0  0
  9 10  1  0  0  0
  9 27  2  0  0  0
 10 11  2  0  0  0
 10 15  1  0  0  0
 11 12  1  0  0  0
 11 98  1  0  0  0
 12 13  2  0  0  0
 12 99  1  0  0  0
 13 14  1  0  0  0
 13 31  1  0  0  0
 14 15  2  0  0  0
 14100  1  0  0  0
 15101  1  0  0  0
 16 17  2  0  0  0
 16 21  1  0  0  0
 16 31  1  0  0  0
 17 18  1  0  0  0
 17102  1  0  0  0
 18 19  2  0  0  0
 18103  1  0  0  0
 19 20  1  0  0  0
 19 24  1  0  0  0
 20 21  2  0  0  0
 20104  1  0  0  0
 21 23  1  0  0  0
 22 28  1  0  0  0
 22 32  2  0  0  0
 26 27  1  0  0  0
 28105  1  0  0  0
 28106  1  0  0  0
 29107  1  0  0  0
 29108  1  0  0  0
 33 34  1  0  0  0
 33 66  1  0  0  0
 33 70  2  0  0  0
 34 36  1  0  0  0
 34 59  1  0  0  0
 34109  1  0  0  0
 35 44  2  0  0  0
 35 45  1  0  0  0
 35 68  1  0  0  0
 36 56  1  0  0  0
 36110  1  0  0  0
 37 39  1  0  0  0
 37 47  1  0  0  0
 37 66  1  0  0  0
 37111  1  0  0  0
 38 43  2  0  0  0
 38 46  1  0  0  0
 38 47  1  0  0  0
 39 64  1  0  0  0
 39 67  2  0  0  0
 40 52  1  0  0  0
 40 53  2  0  0  0
 40 58  1  0  0  0
 41112  1  0  0  0
 41113  1  0  0  0
 41114  1  0  0  0
 41 48  1  0  0  0
 42 43  1  0  0  0
 42 66  1  0  0  0
 42115  1  0  0  0
 42116  1  0  0  0
 43 44  1  0  0  0
 44117  1  0  0  0
 45 46  2  0  0  0
 45118  1  0  0  0
 46119  1  0  0  0
 47120  1  0  0  0
 47121  1  0  0  0
 48 56  1  0  0  0
 48 65  1  0  0  0
 48122  1  0  0  0
 49 50  1  0  0  0
 49 53  1  0  0  0
 49 64  1  0  0  0
 49123  1  0  0  0
 50 51  1  0  0  0
 50124  1  0  0  0
 50125  1  0  0  0
 51 52  1  0  0  0
 51126  1  0  0  0
 51127  1  0  0  0
 52128  1  0  0  0
 52129  1  0  0  0
 53 54  1  0  0  0
 54 55  2  0  0  0
 54130  1  0  0  0
 55 57  1  0  0  0
 55131  1  0  0  0
 56 69  2  0  0  0
 57 58  2  0  0  0
 57132  1  0  0  0
 58133  1  0  0  0
 59 60  1  0  0  0
 59 61  1  0  0  0
 59 62  1  0  0  0
 60134  1  0  0  0
 60135  1  0  0  0
 60136  1  0  0  0
 61137  1  0  0  0
 61138  1  0  0  0
 61139  1  0  0  0
 62140  1  0  0  0
 62141  1  0  0  0
 62142  1  0  0  0
 63 65  1  0  0  0
 63143  1  0  0  0
 63144  1  0  0  0
 63145  1  0  0  0
 64146  1  0  0  0
 65147  1  0  0  0
 68 82  1  0  0  0
 71 74  2  0  0  0
 71 75  1  0  0  0
 71148  1  0  0  0
 72 75  2  0  0  0
 72 76  1  0  0  0
 72149  1  0  0  0
 73 74  1  0  0  0
 73 76  2  0  0  0
 73 77  1  0  0  0
 74 80  1  0  0  0
 75 87  1  0  0  0
 76 88  1  0  0  0
 77 82  1  0  0  0
 77 86  2  0  0  0
 78 79  1  0  0  0
 78 80  1  0  0  0
 78150  1  0  0  0
 78151  1  0  0  0
 79 80  1  0  0  0
 79152  1  0  0  0
 79153  1  0  0  0
 80154  1  0  0  0
 81 87  1  0  0  0
 81155  1  0  0  0
 81156  1  0  0  0
 81157  1  0  0  0
 82158  1  0  0  0
 82159  1  0  0  0
 83 84  1  0  0  0
 83 85  1  0  0  0
 83160  1  0  0  0
 83161  1  0  0  0
 84 88  1  0  0  0
 84162  1  0  0  0
 84163  1  0  0  0
 85164  1  0  0  0
M  ISO  4   1 100  68 101  82 101  85 100
M  END
> <chiral flag>
0

> <version>
0

> <s_m_source_file>
/data/baiqing/PycharmProjects/Reinvent-master-3.2/result/LINK_invent/BTK/process_docking_weight1_custom_sum_contain_oxygen_bond_distance_aromatic_linkinvent_7_9_3/rearranged_h_0154.sdf

> <i_m_source_file_index>
42

> <r_mmod_Potential_Energy-OPLS-2005>
513.767395019531

> <r_mmod_Stretch_Energy-OPLS-2005>
147.825317382812

> <r_mmod_Bend_Energy-OPLS-2005>
204.757034301758

> <r_mmod_Torsional_Energy-OPLS-2005>
481.05078125

> <r_mmod_Improper_Torsional_Energy-OPLS-2005>
15.7970457077026

> <r_mmod_Van_der_Waal_Energy-OPLS-2005>
159.021697998047

> <r_mmod_Electrostatic_Energy-OPLS-2005>
-345.093963623047

> <r_mmod_Solvation_Energy-OPLS-2005>
-243.72087097168

> <b_mmod_Minimization_Converged-OPLS-2005>
0

> <r_mmod_RMS_Derivative-OPLS-2005>
5.19345760345459

$$$$
43
                    3D
 Structure written by MMmdl.
183192  0  0  1  0            999 V2000
  -30.7683  -14.2940   20.8146 C   0  0  0  0  0  0
  -30.4303  -12.3213   19.3526 C   0  0  0  0  0  0
  -29.4743  -12.5537   18.1694 C   0  0  0  0  0  0
  -28.0059  -12.3751   18.5973 C   0  0  0  0  0  0
  -27.6640  -13.1902   19.8693 C   0  0  2  0  0  0
  -28.6943  -12.8950   20.9737 C   0  0  0  0  0  0
  -25.2621  -13.8123   20.5629 C   0  0  0  0  0  0
  -24.1850  -13.0432   20.9136 C   0  0  0  0  0  0
  -24.6383  -11.6883   20.8707 C   0  0  0  0  0  0
  -23.9034  -10.4286   21.0398 C   0  0  0  0  0  0
  -24.3597   -9.4212   21.9180 C   0  0  0  0  0  0
  -23.6277   -8.2246   22.0753 C   0  0  0  0  0  0
  -22.4269   -8.0272   21.3541 C   0  0  0  0  0  0
  -21.9892   -9.0238   20.4651 C   0  0  0  0  0  0
  -22.7208  -10.2119   20.3051 C   0  0  0  0  0  0
  -21.6847   -6.0725   22.5277 C   0  0  0  0  0  0
  -21.4010   -6.5632   23.8208 C   0  0  0  0  0  0
  -21.3661   -5.6793   24.9177 C   0  0  0  0  0  0
  -21.6044   -4.3054   24.7230 C   0  0  0  0  0  0
  -21.8820   -3.8142   23.4353 C   0  0  0  0  0  0
  -21.9192   -4.6956   22.3408 C   0  0  0  0  0  0
  -22.7888  -13.5241   21.1814 C   0  0  0  0  0  0
  -22.1662   -4.2140   21.0986 F   0  0  0  0  0  0
  -21.5629   -3.4543   25.7742 F   0  0  0  0  0  0
  -30.0453  -13.2030   20.4586 N   0  0  0  0  0  0
  -26.3031  -12.9253   20.3287 N   0  0  0  0  0  0
  -25.9283  -11.6434   20.5683 N   0  0  0  0  0  0
  -22.0524  -12.8229   22.0375 N   0  0  0  0  0  0
  -25.4406  -15.1835   20.4076 N   0  0  0  0  0  0
  -31.6993  -14.7590   20.1476 O   0  0  0  0  0  0
  -21.6632   -6.8866   21.4239 O   0  0  0  0  0  0
  -22.3573  -14.5565   20.6687 O   0  0  0  0  0  0
  -24.6057  -31.8731   23.2099 C   0  0  0  0  0  0
  -25.8932  -32.4866   23.8414 C   0  0  1  0  0  0
  -27.2596  -27.4698   20.1262 C   0  0  0  0  0  0
  -25.5830  -33.8661   24.2377 N   0  0  0  0  0  0
  -23.3973  -30.4929   21.5430 C   0  0  2  0  0  0
  -24.8559  -28.9559   20.1195 C   0  0  0  0  0  0
  -22.7370  -29.4687   22.4931 C   0  0  0  0  0  0
  -18.0309  -28.1408   22.8525 C   0  0  0  0  0  0
  -24.1479  -36.7312   23.2651 C   0  0  0  0  0  0
  -25.9199  -30.8507   21.3575 C   0  0  0  0  0  0
  -26.0036  -29.4794   20.7257 C   0  0  0  0  0  0
  -27.2037  -28.7400   20.7427 C   0  0  0  0  0  0
  -26.1038  -26.9588   19.5023 C   0  0  0  0  0  0
  -24.8971  -27.6861   19.5120 C   0  0  0  0  0  0
  -23.6133  -29.8168   20.1601 C   0  0  0  0  0  0
  -25.4092  -36.3114   24.0351 C   0  0  1  0  0  0
  -20.5895  -28.3671   23.1331 C   0  0  2  0  0  0
  -20.6766  -26.9408   22.5416 C   0  0  0  0  0  0
  -19.5733  -26.6428   21.5214 C   0  0  0  0  0  0
  -18.1929  -26.7964   22.1648 C   0  0  0  0  0  0
  -19.1562  -28.8848   23.2952 C   0  0  0  0  0  0
  -18.9489  -30.1473   23.8923 C   0  0  0  0  0  0
  -17.6489  -30.6597   24.0614 C   0  0  0  0  0  0
  -25.9003  -34.9483   23.5158 C   0  0  0  0  0  0
  -16.5381  -29.9115   23.6359 C   0  0  0  0  0  0
  -16.7303  -28.6551   23.0346 C   0  0  0  0  0  0
  -26.4423  -31.6609   25.0696 C   0  0  0  0  0  0
  -25.3790  -31.3693   26.1523 C   0  0  0  0  0  0
  -27.0209  -30.3055   24.5955 C   0  0  0  0  0  0
  -27.5987  -32.4356   25.7449 C   0  0  0  0  0  0
  -27.5581  -37.1818   24.8483 C   0  0  0  0  0  0
  -21.4103  -29.3052   22.3685 N   0  0  0  0  0  0
  -26.4292  -37.3789   23.9432 N   0  0  0  0  0  0
  -24.6582  -31.0895   22.0948 N   0  0  0  0  0  0
  -23.4125  -28.8198   23.2964 O   0  0  0  0  0  0
  -28.3965  -26.6945   20.1037 O   0  0  0  0  0  0
  -26.5582  -34.8914   22.4726 O   0  0  0  0  0  0
  -23.5267  -32.1438   23.7538 O   0  0  0  0  0  0
  -30.5753  -18.1860   23.2185 C   0  0  0  0  0  0
  -30.9381  -18.0383   24.5788 C   0  0  0  0  0  0
  -31.1487  -16.7330   25.0977 C   0  0  0  0  0  0
  -31.1139  -15.6165   24.2215 C   0  0  0  0  0  0
  -30.7624  -15.7878   22.8558 C   0  0  0  0  0  0
  -30.4517  -17.0709   22.3533 C   0  0  0  0  0  0
  -32.3939  -20.0915   25.0085 C   0  0  0  0  0  0
  -29.8995  -20.1932   25.5862 C   0  0  0  0  0  0
  -32.0957  -21.2215   24.0024 C   0  0  0  0  0  0
  -30.2714  -21.6866   25.6547 C   0  0  0  0  0  0
  -31.1478  -19.2935   25.4485 C   0  0  1  0  0  0
  -31.3600  -16.5322   26.6007 C   0  0  0  0  0  0
  -31.4495  -14.2216   24.7504 C   0  0  0  0  0  0
  -32.7669  -24.4321   22.4411 C   0  0  0  0  0  0
  -29.4496  -18.3875   20.5971 C   0  0  0  0  0  0
  -31.2460  -23.5570   24.3173 C   0  0  0  0  0  0
  -29.1765  -26.6852   21.3023 C   0  0  0  0  0  0
  -29.9562  -25.3663   21.4007 C   0  0  0  0  0  0
  -31.3351  -24.0557   22.8541 C   0  0  1  0  0  0
  -30.5146  -14.6198   22.0919 N   0  0  0  0  0  0
  -30.9511  -22.0991   24.3991 N   0  3  1  0  0  0
  -30.0073  -17.1610   21.0482 O   0  0  0  0  0  0
  -30.4947  -25.2016   22.7127 O   0  0  0  0  0  0
  -31.4658  -12.4832   19.0424 H   0  0  0  0  0  0
  -30.3752  -11.2843   19.6872 H   0  0  0  0  0  0
  -29.7126  -11.8683   17.3543 H   0  0  0  0  0  0
  -29.6203  -13.5610   17.7761 H   0  0  0  0  0  0
  -27.8336  -11.3132   18.7799 H   0  0  0  0  0  0
  -27.3377  -12.6552   17.7817 H   0  0  0  0  0  0
  -27.7350  -14.2480   19.6150 H   0  0  0  0  0  0
  -28.6584  -11.8401   21.2520 H   0  0  0  0  0  0
  -28.4087  -13.4421   21.8729 H   0  0  0  0  0  0
  -25.2752   -9.5681   22.4743 H   0  0  0  0  0  0
  -23.9988   -7.4636   22.7486 H   0  0  0  0  0  0
  -21.0810   -8.8757   19.8956 H   0  0  0  0  0  0
  -22.3675  -10.9651   19.6154 H   0  0  0  0  0  0
  -21.2000   -7.6138   23.9703 H   0  0  0  0  0  0
  -21.1481   -6.0526   25.9075 H   0  0  0  0  0  0
  -22.0596   -2.7604   23.2859 H   0  0  0  0  0  0
  -22.4130  -11.9880   22.4742 H   0  0  0  0  0  0
  -21.1162  -13.1282   22.2618 H   0  0  0  0  0  0
  -24.6860  -15.8495   20.5330 H   0  0  0  0  0  0
  -26.3090  -15.6168   20.1171 H   0  0  0  0  0  0
  -26.7009  -32.5670   23.1217 H   0  0  0  0  0  0
  -25.0022  -33.9850   25.0540 H   0  0  0  0  0  0
  -22.6856  -31.3083   21.3953 H   0  0  0  0  0  0
  -23.3726  -35.9672   23.3341 H   0  0  0  0  0  0
  -24.3628  -36.8889   22.2077 H   0  0  0  0  0  0
  -23.7195  -37.6509   23.6636 H   0  0  0  0  0  0
  -26.0280  -31.6019   20.5746 H   0  0  0  0  0  0
  -26.8088  -30.9216   21.9689 H   0  0  0  0  0  0
  -28.0781  -29.1534   21.2233 H   0  0  0  0  0  0
  -26.1430  -25.9904   19.0245 H   0  0  0  0  0  0
  -24.0140  -27.2680   19.0482 H   0  0  0  0  0  0
  -23.7304  -30.5840   19.3941 H   0  0  0  0  0  0
  -22.7402  -29.2335   19.8613 H   0  0  0  0  0  0
  -25.1270  -36.1994   25.0842 H   0  0  0  0  0  0
  -21.0111  -28.3255   24.1392 H   0  0  0  0  0  0
  -20.5674  -26.2279   23.3595 H   0  0  0  0  0  0
  -21.6642  -26.7435   22.1196 H   0  0  0  0  0  0
  -19.6859  -25.6353   21.1208 H   0  0  0  0  0  0
  -19.6662  -27.3276   20.6760 H   0  0  0  0  0  0
  -17.4199  -26.6794   21.4034 H   0  0  0  0  0  0
  -18.0301  -26.0093   22.9026 H   0  0  0  0  0  0
  -19.7955  -30.7356   24.2212 H   0  0  0  0  0  0
  -17.5025  -31.6252   24.5261 H   0  0  0  0  0  0
  -15.5381  -30.3025   23.7615 H   0  0  0  0  0  0
  -15.8717  -28.0885   22.6973 H   0  0  0  0  0  0
  -24.5932  -30.7018   25.7961 H   0  0  0  0  0  0
  -24.9029  -32.2855   26.5049 H   0  0  0  0  0  0
  -25.8298  -30.8884   27.0211 H   0  0  0  0  0  0
  -26.2668  -29.6848   24.1081 H   0  0  0  0  0  0
  -27.4080  -29.7249   25.4336 H   0  0  0  0  0  0
  -27.8500  -30.4414   23.8997 H   0  0  0  0  0  0
  -27.2531  -33.3635   26.2034 H   0  0  0  0  0  0
  -28.3769  -32.6978   25.0260 H   0  0  0  0  0  0
  -28.0644  -31.8473   26.5365 H   0  0  0  0  0  0
  -28.2620  -38.0097   24.7538 H   0  0  0  0  0  0
  -28.1053  -36.2639   24.6307 H   0  0  0  0  0  0
  -27.2358  -37.1480   25.8902 H   0  0  0  0  0  0
  -20.9168  -29.8826   21.7019 H   0  0  0  0  0  0
  -26.0182  -38.2872   24.1413 H   0  0  0  0  0  0
  -30.3662  -19.1765   22.8499 H   0  0  0  0  0  0
  -32.8363  -20.5558   25.8913 H   0  0  0  0  0  0
  -33.1644  -19.4212   24.6262 H   0  0  0  0  0  0
  -29.2194  -20.0432   24.7483 H   0  0  0  0  0  0
  -29.3340  -19.9042   26.4729 H   0  0  0  0  0  0
  -31.8802  -20.7955   23.0225 H   0  0  0  0  0  0
  -33.0092  -21.7987   23.8719 H   0  0  0  0  0  0
  -30.9161  -21.8887   26.5130 H   0  0  0  0  0  0
  -29.3678  -22.2809   25.8054 H   0  0  0  0  0  0
  -31.3884  -18.9929   26.4653 H   0  0  0  0  0  0
  -30.5335  -16.9872   27.1511 H   0  0  0  0  0  0
  -32.2914  -16.9896   26.9356 H   0  0  0  0  0  0
  -31.3739  -15.4938   26.9221 H   0  0  0  0  0  0
  -32.3275  -14.2565   25.3951 H   0  0  0  0  0  0
  -31.6974  -13.5105   23.9644 H   0  0  0  0  0  0
  -30.6133  -13.8173   25.3198 H   0  0  0  0  0  0
  -33.4661  -23.6136   22.6093 H   0  0  0  0  0  0
  -33.1273  -25.2920   23.0056 H   0  0  0  0  0  0
  -32.8220  -24.6822   21.3835 H   0  0  0  0  0  0
  -28.9622  -18.2208   19.6367 H   0  0  0  0  0  0
  -30.2237  -19.1422   20.4513 H   0  0  0  0  0  0
  -28.6884  -18.7682   21.2793 H   0  0  0  0  0  0
  -30.4419  -24.1023   24.8094 H   0  0  0  0  0  0
  -32.1445  -23.7967   24.8886 H   0  0  0  0  0  0
  -29.8644  -27.5293   21.3101 H   0  0  0  0  0  0
  -28.5337  -26.7765   22.1817 H   0  0  0  0  0  0
  -30.7440  -25.3477   20.6479 H   0  0  0  0  0  0
  -29.2831  -24.5319   21.1904 H   0  0  0  0  0  0
  -30.9721  -23.2650   22.1950 H   0  0  0  0  0  0
  -29.9277  -13.9436   22.5540 H   0  0  0  0  0  0
  -30.2444  -21.9423   23.6945 H   0  0  0  0  0  0
  1 25  1  0  0  0
  1 30  2  0  0  0
  1 90  1  0  0  0
  2  3  1  0  0  0
  2 25  1  0  0  0
  2 94  1  0  0  0
  2 95  1  0  0  0
  3  4  1  0  0  0
  3 96  1  0  0  0
  3 97  1  0  0  0
  4  5  1  0  0  0
  4 98  1  0  0  0
  4 99  1  0  0  0
  5  6  1  0  0  0
  5 26  1  0  0  0
  5100  1  0  0  0
  6 25  1  0  0  0
  6101  1  0  0  0
  6102  1  0  0  0
  7  8  2  0  0  0
  7 26  1  0  0  0
  7 29  1  0  0  0
  8  9  1  0  0  0
  8 22  1  0  0  0
  9 10  1  0  0  0
  9 27  2  0  0  0
 10 11  2  0  0  0
 10 15  1  0  0  0
 11 12  1  0  0  0
 11103  1  0  0  0
 12 13  2  0  0  0
 12104  1  0  0  0
 13 14  1  0  0  0
 13 31  1  0  0  0
 14 15  2  0  0  0
 14105  1  0  0  0
 15106  1  0  0  0
 16 17  2  0  0  0
 16 21  1  0  0  0
 16 31  1  0  0  0
 17 18  1  0  0  0
 17107  1  0  0  0
 18 19  2  0  0  0
 18108  1  0  0  0
 19 20  1  0  0  0
 19 24  1  0  0  0
 20 21  2  0  0  0
 20109  1  0  0  0
 21 23  1  0  0  0
 22 28  1  0  0  0
 22 32  2  0  0  0
 26 27  1  0  0  0
 28110  1  0  0  0
 28111  1  0  0  0
 29112  1  0  0  0
 29113  1  0  0  0
 33 34  1  0  0  0
 33 66  1  0  0  0
 33 70  2  0  0  0
 34 36  1  0  0  0
 34 59  1  0  0  0
 34114  1  0  0  0
 35 44  2  0  0  0
 35 45  1  0  0  0
 35 68  1  0  0  0
 36 56  1  0  0  0
 36115  1  0  0  0
 37 39  1  0  0  0
 37 47  1  0  0  0
 37 66  1  0  0  0
 37116  1  0  0  0
 38 43  2  0  0  0
 38 46  1  0  0  0
 38 47  1  0  0  0
 39 64  1  0  0  0
 39 67  2  0  0  0
 40 52  1  0  0  0
 40 53  2  0  0  0
 40 58  1  0  0  0
 41117  1  0  0  0
 41118  1  0  0  0
 41119  1  0  0  0
 41 48  1  0  0  0
 42 43  1  0  0  0
 42 66  1  0  0  0
 42120  1  0  0  0
 42121  1  0  0  0
 43 44  1  0  0  0
 44122  1  0  0  0
 45 46  2  0  0  0
 45123  1  0  0  0
 46124  1  0  0  0
 47125  1  0  0  0
 47126  1  0  0  0
 48 56  1  0  0  0
 48 65  1  0  0  0
 48127  1  0  0  0
 49 50  1  0  0  0
 49 53  1  0  0  0
 49 64  1  0  0  0
 49128  1  0  0  0
 50 51  1  0  0  0
 50129  1  0  0  0
 50130  1  0  0  0
 51 52  1  0  0  0
 51131  1  0  0  0
 51132  1  0  0  0
 52133  1  0  0  0
 52134  1  0  0  0
 53 54  1  0  0  0
 54 55  2  0  0  0
 54135  1  0  0  0
 55 57  1  0  0  0
 55136  1  0  0  0
 56 69  2  0  0  0
 57 58  2  0  0  0
 57137  1  0  0  0
 58138  1  0  0  0
 59 60  1  0  0  0
 59 61  1  0  0  0
 59 62  1  0  0  0
 60139  1  0  0  0
 60140  1  0  0  0
 60141  1  0  0  0
 61142  1  0  0  0
 61143  1  0  0  0
 61144  1  0  0  0
 62145  1  0  0  0
 62146  1  0  0  0
 62147  1  0  0  0
 63 65  1  0  0  0
 63148  1  0  0  0
 63149  1  0  0  0
 63150  1  0  0  0
 64151  1  0  0  0
 65152  1  0  0  0
 68 87  1  0  0  0
 71 72  2  0  0  0
 71 76  1  0  0  0
 71153  1  0  0  0
 72 73  1  0  0  0
 72 81  1  0  0  0
 73 74  2  0  0  0
 73 82  1  0  0  0
 74 75  1  0  0  0
 74 83  1  0  0  0
 75 76  2  0  0  0
 75 90  1  0  0  0
 76 92  1  0  0  0
 77 79  1  0  0  0
 77 81  1  0  0  0
 77154  1  0  0  0
 77155  1  0  0  0
 78 80  1  0  0  0
 78 81  1  0  0  0
 78156  1  0  0  0
 78157  1  0  0  0
 79 91  1  0  0  0
 79158  1  0  0  0
 79159  1  0  0  0
 80 91  1  0  0  0
 80160  1  0  0  0
 80161  1  0  0  0
 81162  1  0  0  0
 82163  1  0  0  0
 82164  1  0  0  0
 82165  1  0  0  0
 83166  1  0  0  0
 83167  1  0  0  0
 83168  1  0  0  0
 84169  1  0  0  0
 84170  1  0  0  0
 84171  1  0  0  0
 84 89  1  0  0  0
 85 92  1  0  0  0
 85172  1  0  0  0
 85173  1  0  0  0
 85174  1  0  0  0
 86 89  1  0  0  0
 86175  1  0  0  0
 86176  1  0  0  0
 86 91  1  0  0  0
 87 88  1  0  0  0
 87177  1  0  0  0
 87178  1  0  0  0
 88 93  1  0  0  0
 88179  1  0  0  0
 88180  1  0  0  0
 89 93  1  0  0  0
 89181  1  0  0  0
 90182  1  0  0  0
 91183  1  0  0  0
M  CHG  1  91   1
M  ISO  4   1 100  68 101  87 101  90 100
M  END
> <chiral flag>
0

> <version>
0

> <s_m_source_file>
/data/baiqing/PycharmProjects/Reinvent-master-3.2/result/LINK_invent/BTK/process_docking_weight1_custom_sum_contain_oxygen_bond_distance_aromatic_linkinvent_7_9_3/rearranged_h_0154.sdf

> <i_m_source_file_index>
43

> <r_mmod_Potential_Energy-OPLS-2005>
-89.9236679077148

> <r_mmod_Stretch_Energy-OPLS-2005>
40.1357307434082

> <r_mmod_Bend_Energy-OPLS-2005>
119.447311401367

> <r_mmod_Torsional_Energy-OPLS-2005>
319.257049560547

> <r_mmod_Improper_Torsional_Energy-OPLS-2005>
6.97855567932129

> <r_mmod_Van_der_Waal_Energy-OPLS-2005>
188.56330871582

> <r_mmod_Electrostatic_Energy-OPLS-2005>
-342.207427978516

> <r_mmod_Solvation_Energy-OPLS-2005>
-434.881591796875

> <b_mmod_Minimization_Converged-OPLS-2005>
0

> <r_mmod_RMS_Derivative-OPLS-2005>
4.35070419311523

$$$$
44
                    3D
 Structure written by MMmdl.
173182  0  0  1  0            999 V2000
  -30.7101  -14.3427   20.6743 C   0  0  0  0  0  0
  -30.4382  -12.2658   19.3782 C   0  0  0  0  0  0
  -29.4989  -12.5252   18.1818 C   0  0  0  0  0  0
  -28.0148  -12.3931   18.5837 C   0  0  0  0  0  0
  -27.6737  -13.1699   19.8801 C   0  0  2  0  0  0
  -28.7086  -12.8470   20.9821 C   0  0  0  0  0  0
  -25.2606  -13.8073   20.5513 C   0  0  0  0  0  0
  -24.1875  -13.0408   20.9178 C   0  0  0  0  0  0
  -24.6370  -11.6857   20.8716 C   0  0  0  0  0  0
  -23.9038  -10.4280   21.0394 C   0  0  0  0  0  0
  -24.3614   -9.4184   21.9158 C   0  0  0  0  0  0
  -23.6278   -8.2223   22.0764 C   0  0  0  0  0  0
  -22.4251   -8.0269   21.3565 C   0  0  0  0  0  0
  -21.9876   -9.0230   20.4675 C   0  0  0  0  0  0
  -22.7208  -10.2112   20.3048 C   0  0  0  0  0  0
  -21.6825   -6.0740   22.5279 C   0  0  0  0  0  0
  -21.3978   -6.5649   23.8225 C   0  0  0  0  0  0
  -21.3651   -5.6811   24.9175 C   0  0  0  0  0  0
  -21.6042   -4.3080   24.7239 C   0  0  0  0  0  0
  -21.8821   -3.8170   23.4353 C   0  0  0  0  0  0
  -21.9182   -4.6968   22.3413 C   0  0  0  0  0  0
  -22.7909  -13.5237   21.1904 C   0  0  0  0  0  0
  -22.1676   -4.2162   21.0983 F   0  0  0  0  0  0
  -21.5614   -3.4557   25.7742 F   0  0  0  0  0  0
  -30.0606  -13.1694   20.4691 N   0  0  0  0  0  0
  -26.3048  -12.9177   20.3268 N   0  0  0  0  0  0
  -25.9273  -11.6394   20.5674 N   0  0  0  0  0  0
  -22.0546  -12.8215   22.0444 N   0  0  0  0  0  0
  -25.4247  -15.1758   20.3558 N   0  0  0  0  0  0
  -31.7073  -14.7102   20.0454 O   0  0  0  0  0  0
  -21.6609   -6.8862   21.4258 O   0  0  0  0  0  0
  -22.3638  -14.5586   20.6795 O   0  0  0  0  0  0
  -24.6064  -31.8732   23.2151 C   0  0  0  0  0  0
  -25.8970  -32.4843   23.8448 C   0  0  1  0  0  0
  -27.2399  -27.4807   20.1175 C   0  0  0  0  0  0
  -25.5865  -33.8633   24.2364 N   0  0  0  0  0  0
  -23.3912  -30.4929   21.5518 C   0  0  2  0  0  0
  -24.8431  -28.9516   20.1271 C   0  0  0  0  0  0
  -22.7334  -29.4682   22.5019 C   0  0  0  0  0  0
  -18.0254  -28.1347   22.8537 C   0  0  0  0  0  0
  -24.1505  -36.7335   23.2633 C   0  0  0  0  0  0
  -25.9105  -30.8507   21.3618 C   0  0  0  0  0  0
  -25.9929  -29.4861   20.7192 C   0  0  0  0  0  0
  -27.1950  -28.7559   20.7149 C   0  0  0  0  0  0
  -26.0830  -26.9493   19.5165 C   0  0  0  0  0  0
  -24.8764  -27.6793   19.5279 C   0  0  0  0  0  0
  -23.6014  -29.8115   20.1704 C   0  0  0  0  0  0
  -25.4122  -36.3124   24.0338 C   0  0  1  0  0  0
  -20.5824  -28.3670   23.1358 C   0  0  2  0  0  0
  -20.6751  -26.9432   22.5441 C   0  0  0  0  0  0
  -19.5711  -26.6300   21.5279 C   0  0  0  0  0  0
  -18.1938  -26.7824   22.1794 C   0  0  0  0  0  0
  -19.1496  -28.8824   23.2916 C   0  0  0  0  0  0
  -18.9408  -30.1457   23.8862 C   0  0  0  0  0  0
  -17.6432  -30.6609   24.0488 C   0  0  0  0  0  0
  -25.9019  -34.9484   23.5160 C   0  0  0  0  0  0
  -16.5321  -29.9093   23.6304 C   0  0  0  0  0  0
  -16.7245  -28.6479   23.0394 C   0  0  0  0  0  0
  -26.4456  -31.6578   25.0728 C   0  0  0  0  0  0
  -25.3756  -31.3658   26.1502 C   0  0  0  0  0  0
  -27.0240  -30.3018   24.6020 C   0  0  0  0  0  0
  -27.6066  -32.4265   25.7474 C   0  0  0  0  0  0
  -27.5600  -37.1825   24.8459 C   0  0  0  0  0  0
  -21.4070  -29.3076   22.3766 N   0  0  0  0  0  0
  -26.4311  -37.3807   23.9393 N   0  0  0  0  0  0
  -24.6525  -31.0893   22.1003 N   0  0  0  0  0  0
  -23.4113  -28.8200   23.3040 O   0  0  0  0  0  0
  -28.4169  -26.7821   20.0793 O   0  0  0  0  0  0
  -26.5589  -34.8918   22.4717 O   0  0  0  0  0  0
  -23.5265  -32.1454   23.7584 O   0  0  0  0  0  0
  -27.4581  -20.2198   22.7487 C   0  0  0  0  0  0
  -26.2516  -20.9173   20.7548 C   0  0  0  0  0  0
  -27.5268  -22.5573   22.0575 C   0  0  0  0  0  0
  -26.7317  -19.8957   21.5928 C   0  0  0  0  0  0
  -27.8759  -21.5376   22.9812 C   0  0  0  0  0  0
  -26.6013  -22.2558   21.0208 C   0  0  0  0  0  0
  -27.1966  -25.0058   22.7536 C   0  0  0  0  0  0
  -28.0413  -26.2635   22.5920 C   0  0  0  0  0  0
  -28.7243  -24.5819   20.9331 C   0  0  0  0  0  0
  -28.1356  -23.9482   22.1978 C   0  0  2  0  0  0
  -28.8194  -26.0796   21.2582 C   0  0  1  0  0  0
  -28.6949  -21.7938   24.2363 C   0  0  0  0  0  0
  -24.6080  -23.2958   20.4652 C   0  0  0  0  0  0
  -26.6324  -18.4422   21.2114 C   0  0  0  0  0  0
  -29.8315  -16.5392   21.4239 C   0  0  0  0  0  0
  -28.4002  -16.7076   20.8693 C   0  0  0  0  0  0
  -30.1096  -15.1149   21.5845 N   0  0  0  0  0  0
  -27.9925  -18.1123   20.7416 N   0  3  0  0  0  0
  -26.0213  -23.2519   20.2838 O   0  0  0  0  0  0
  -31.4845  -12.3917   19.0891 H   0  0  0  0  0  0
  -30.3513  -11.2271   19.6994 H   0  0  0  0  0  0
  -29.7189  -11.8290   17.3695 H   0  0  0  0  0  0
  -29.6842  -13.5262   17.7845 H   0  0  0  0  0  0
  -27.7962  -11.3319   18.7072 H   0  0  0  0  0  0
  -27.3789  -12.7404   17.7677 H   0  0  0  0  0  0
  -27.7558  -14.2245   19.6385 H   0  0  0  0  0  0
  -28.6699  -11.7850   21.2305 H   0  0  0  0  0  0
  -28.4464  -13.3435   21.9158 H   0  0  0  0  0  0
  -25.2793   -9.5617   22.4708 H   0  0  0  0  0  0
  -23.9999   -7.4601   22.7452 H   0  0  0  0  0  0
  -21.0821   -8.8742   19.8972 H   0  0  0  0  0  0
  -22.3692  -10.9648   19.6152 H   0  0  0  0  0  0
  -21.1969   -7.6158   23.9712 H   0  0  0  0  0  0
  -21.1468   -6.0548   25.9081 H   0  0  0  0  0  0
  -22.0604   -2.7627   23.2854 H   0  0  0  0  0  0
  -22.4191  -11.9851   22.4773 H   0  0  0  0  0  0
  -21.1173  -13.1220   22.2722 H   0  0  0  0  0  0
  -24.5436  -15.6763   20.2898 H   0  0  0  0  0  0
  -26.0383  -15.4194   19.5904 H   0  0  0  0  0  0
  -26.7023  -32.5585   23.1208 H   0  0  0  0  0  0
  -25.0018  -33.9835   25.0508 H   0  0  0  0  0  0
  -22.6746  -31.3026   21.4052 H   0  0  0  0  0  0
  -23.3757  -35.9675   23.3291 H   0  0  0  0  0  0
  -24.3600  -36.8942   22.2046 H   0  0  0  0  0  0
  -23.7257  -37.6543   23.6639 H   0  0  0  0  0  0
  -26.0094  -31.6121   20.5877 H   0  0  0  0  0  0
  -26.7991  -30.9120   21.9745 H   0  0  0  0  0  0
  -28.0799  -29.1617   21.1857 H   0  0  0  0  0  0
  -26.1215  -25.9754   19.0516 H   0  0  0  0  0  0
  -23.9911  -27.2536   19.0788 H   0  0  0  0  0  0
  -23.7085  -30.5744   19.3996 H   0  0  0  0  0  0
  -22.7283  -29.2242   19.8810 H   0  0  0  0  0  0
  -25.1292  -36.2010   25.0829 H   0  0  0  0  0  0
  -20.9929  -28.3189   24.1471 H   0  0  0  0  0  0
  -21.6592  -26.7592   22.1181 H   0  0  0  0  0  0
  -20.5763  -26.2278   23.3635 H   0  0  0  0  0  0
  -19.6990  -25.6192   21.1378 H   0  0  0  0  0  0
  -19.6556  -27.3039   20.6770 H   0  0  0  0  0  0
  -17.4132  -26.6326   21.4314 H   0  0  0  0  0  0
  -18.0547  -26.0090   22.9367 H   0  0  0  0  0  0
  -19.7873  -30.7287   24.2248 H   0  0  0  0  0  0
  -17.5028  -31.6353   24.4993 H   0  0  0  0  0  0
  -15.5333  -30.3022   23.7641 H   0  0  0  0  0  0
  -15.8662  -28.0771   22.7169 H   0  0  0  0  0  0
  -24.5957  -30.6957   25.7870 H   0  0  0  0  0  0
  -24.8932  -32.2803   26.4969 H   0  0  0  0  0  0
  -25.8173  -30.8854   27.0240 H   0  0  0  0  0  0
  -26.2746  -29.6833   24.1062 H   0  0  0  0  0  0
  -27.4007  -29.7200   25.4445 H   0  0  0  0  0  0
  -27.8607  -30.4351   23.9147 H   0  0  0  0  0  0
  -27.2702  -33.3542   26.2121 H   0  0  0  0  0  0
  -28.3847  -32.6829   25.0267 H   0  0  0  0  0  0
  -28.0746  -31.8316   26.5329 H   0  0  0  0  0  0
  -28.2620  -38.0126   24.7504 H   0  0  0  0  0  0
  -28.1095  -36.2653   24.6283 H   0  0  0  0  0  0
  -27.2312  -37.1464   25.8863 H   0  0  0  0  0  0
  -20.9206  -29.8917   21.7112 H   0  0  0  0  0  0
  -26.0209  -38.2887   24.1376 H   0  0  0  0  0  0
  -27.7639  -19.4340   23.4232 H   0  0  0  0  0  0
  -25.6410  -20.6899   19.8904 H   0  0  0  0  0  0
  -26.2970  -25.0830   22.1414 H   0  0  0  0  0  0
  -26.8921  -24.8125   23.7832 H   0  0  0  0  0  0
  -28.7763  -26.2717   23.3980 H   0  0  0  0  0  0
  -27.4708  -27.1799   22.7146 H   0  0  0  0  0  0
  -28.0663  -24.4473   20.0787 H   0  0  0  0  0  0
  -29.6868  -24.1441   20.6652 H   0  0  0  0  0  0
  -28.9951  -23.8842   22.8640 H   0  0  0  0  0  0
  -29.8614  -26.3387   21.4443 H   0  0  0  0  0  0
  -28.4735  -22.7665   24.6754 H   0  0  0  0  0  0
  -29.7595  -21.7315   24.0103 H   0  0  0  0  0  0
  -28.4708  -21.0497   24.9992 H   0  0  0  0  0  0
  -24.3404  -23.1489   21.5178 H   0  0  0  0  0  0
  -24.1080  -22.5303   19.8662 H   0  0  0  0  0  0
  -24.2037  -24.2599   20.1583 H   0  0  0  0  0  0
  -25.8737  -18.2629   20.4476 H   0  0  0  0  0  0
  -26.3570  -17.8608   22.0961 H   0  0  0  0  0  0
  -29.9225  -17.0144   22.4015 H   0  0  0  0  0  0
  -30.5623  -17.0121   20.7670 H   0  0  0  0  0  0
  -27.7007  -16.1617   21.5031 H   0  0  0  0  0  0
  -28.3235  -16.2805   19.8730 H   0  0  0  0  0  0
  -29.4658  -14.6075   22.1721 H   0  0  0  0  0  0
  -28.1002  -18.4250   19.7903 H   0  0  0  0  0  0
  -28.6082  -18.6669   21.3071 H   0  0  0  0  0  0
  1 25  1  0  0  0
  1 30  2  0  0  0
  1 87  1  0  0  0
  2  3  1  0  0  0
  2 25  1  0  0  0
  2 90  1  0  0  0
  2 91  1  0  0  0
  3  4  1  0  0  0
  3 92  1  0  0  0
  3 93  1  0  0  0
  4  5  1  0  0  0
  4 94  1  0  0  0
  4 95  1  0  0  0
  5  6  1  0  0  0
  5 26  1  0  0  0
  5 96  1  0  0  0
  6 25  1  0  0  0
  6 97  1  0  0  0
  6 98  1  0  0  0
  7  8  2  0  0  0
  7 26  1  0  0  0
  7 29  1  0  0  0
  8  9  1  0  0  0
  8 22  1  0  0  0
  9 10  1  0  0  0
  9 27  2  0  0  0
 10 11  2  0  0  0
 10 15  1  0  0  0
 11 12  1  0  0  0
 11 99  1  0  0  0
 12 13  2  0  0  0
 12100  1  0  0  0
 13 14  1  0  0  0
 13 31  1  0  0  0
 14 15  2  0  0  0
 14101  1  0  0  0
 15102  1  0  0  0
 16 17  2  0  0  0
 16 21  1  0  0  0
 16 31  1  0  0  0
 17 18  1  0  0  0
 17103  1  0  0  0
 18 19  2  0  0  0
 18104  1  0  0  0
 19 20  1  0  0  0
 19 24  1  0  0  0
 20 21  2  0  0  0
 20105  1  0  0  0
 21 23  1  0  0  0
 22 28  1  0  0  0
 22 32  2  0  0  0
 26 27  1  0  0  0
 28106  1  0  0  0
 28107  1  0  0  0
 29108  1  0  0  0
 29109  1  0  0  0
 33 34  1  0  0  0
 33 66  1  0  0  0
 33 70  2  0  0  0
 34 36  1  0  0  0
 34 59  1  0  0  0
 34110  1  0  0  0
 35 44  2  0  0  0
 35 45  1  0  0  0
 35 68  1  0  0  0
 36 56  1  0  0  0
 36111  1  0  0  0
 37 39  1  0  0  0
 37 47  1  0  0  0
 37 66  1  0  0  0
 37112  1  0  0  0
 38 43  2  0  0  0
 38 46  1  0  0  0
 38 47  1  0  0  0
 39 64  1  0  0  0
 39 67  2  0  0  0
 40 52  1  0  0  0
 40 53  2  0  0  0
 40 58  1  0  0  0
 41113  1  0  0  0
 41114  1  0  0  0
 41115  1  0  0  0
 41 48  1  0  0  0
 42 43  1  0  0  0
 42 66  1  0  0  0
 42116  1  0  0  0
 42117  1  0  0  0
 43 44  1  0  0  0
 44118  1  0  0  0
 45 46  2  0  0  0
 45119  1  0  0  0
 46120  1  0  0  0
 47121  1  0  0  0
 47122  1  0  0  0
 48 56  1  0  0  0
 48 65  1  0  0  0
 48123  1  0  0  0
 49 50  1  0  0  0
 49 53  1  0  0  0
 49 64  1  0  0  0
 49124  1  0  0  0
 50 51  1  0  0  0
 50125  1  0  0  0
 50126  1  0  0  0
 51 52  1  0  0  0
 51127  1  0  0  0
 51128  1  0  0  0
 52129  1  0  0  0
 52130  1  0  0  0
 53 54  1  0  0  0
 54 55  2  0  0  0
 54131  1  0  0  0
 55 57  1  0  0  0
 55132  1  0  0  0
 56 69  2  0  0  0
 57 58  2  0  0  0
 57133  1  0  0  0
 58134  1  0  0  0
 59 60  1  0  0  0
 59 61  1  0  0  0
 59 62  1  0  0  0
 60135  1  0  0  0
 60136  1  0  0  0
 60137  1  0  0  0
 61138  1  0  0  0
 61139  1  0  0  0
 61140  1  0  0  0
 62141  1  0  0  0
 62142  1  0  0  0
 62143  1  0  0  0
 63 65  1  0  0  0
 63144  1  0  0  0
 63145  1  0  0  0
 63146  1  0  0  0
 64147  1  0  0  0
 65148  1  0  0  0
 68 81  1  0  0  0
 71 74  2  0  0  0
 71 75  1  0  0  0
 71149  1  0  0  0
 72 74  1  0  0  0
 72 76  2  0  0  0
 72150  1  0  0  0
 73 75  2  0  0  0
 73 76  1  0  0  0
 73 80  1  0  0  0
 74 84  1  0  0  0
 75 82  1  0  0  0
 76 89  1  0  0  0
 77 78  1  0  0  0
 77 80  1  0  0  0
 77151  1  0  0  0
 77152  1  0  0  0
 78 81  1  0  0  0
 78153  1  0  0  0
 78154  1  0  0  0
 79 80  1  0  0  0
 79 81  1  0  0  0
 79155  1  0  0  0
 79156  1  0  0  0
 80157  1  0  0  0
 81158  1  0  0  0
 82159  1  0  0  0
 82160  1  0  0  0
 82161  1  0  0  0
 83 89  1  0  0  0
 83162  1  0  0  0
 83163  1  0  0  0
 83164  1  0  0  0
 84 88  1  0  0  0
 84165  1  0  0  0
 84166  1  0  0  0
 85 86  1  0  0  0
 85 87  1  0  0  0
 85167  1  0  0  0
 85168  1  0  0  0
 86 88  1  0  0  0
 86169  1  0  0  0
 86170  1  0  0  0
 87171  1  0  0  0
 88172  1  0  0  0
 88173  1  0  0  0
M  CHG  1  88   1
M  ISO  4   1 100  68 101  81 101  87 100
M  END
> <chiral flag>
0

> <version>
0

> <s_m_source_file>
/data/baiqing/PycharmProjects/Reinvent-master-3.2/result/LINK_invent/BTK/process_docking_weight1_custom_sum_contain_oxygen_bond_distance_aromatic_linkinvent_7_9_3/rearranged_h_0154.sdf

> <i_m_source_file_index>
44

> <r_mmod_Potential_Energy-OPLS-2005>
-176.061859130859

> <r_mmod_Stretch_Energy-OPLS-2005>
33.0531768798828

> <r_mmod_Bend_Energy-OPLS-2005>
139.088317871094

> <r_mmod_Torsional_Energy-OPLS-2005>
342.6767578125

> <r_mmod_Improper_Torsional_Energy-OPLS-2005>
10.275426864624

> <r_mmod_Van_der_Waal_Energy-OPLS-2005>
150.1875

> <r_mmod_Electrostatic_Energy-OPLS-2005>
-388.343444824219

> <r_mmod_Solvation_Energy-OPLS-2005>
-472.104614257812

> <b_mmod_Minimization_Converged-OPLS-2005>
0

> <r_mmod_RMS_Derivative-OPLS-2005>
6.35235500335693

$$$$
45
                    3D
 Structure written by MMmdl.
156164  0  0  1  0            999 V2000
  -30.4297  -15.2038   20.3744 C   0  0  0  0  0  0
  -30.4495  -12.7627   19.5116 C   0  0  0  0  0  0
  -29.5359  -12.5660   18.2755 C   0  0  0  0  0  0
  -28.0791  -12.3030   18.7010 C   0  0  0  0  0  0
  -27.6178  -13.2649   19.8244 C   0  0  2  0  0  0
  -28.6569  -13.3950   20.9578 C   0  0  0  0  0  0
  -25.2415  -13.8228   20.5724 C   0  0  0  0  0  0
  -24.1760  -13.0432   20.9254 C   0  0  0  0  0  0
  -24.6401  -11.6926   20.8756 C   0  0  0  0  0  0
  -23.9093  -10.4290   21.0405 C   0  0  0  0  0  0
  -24.3638   -9.4205   21.9184 C   0  0  0  0  0  0
  -23.6304   -8.2244   22.0754 C   0  0  0  0  0  0
  -22.4286   -8.0283   21.3543 C   0  0  0  0  0  0
  -21.9926   -9.0259   20.4646 C   0  0  0  0  0  0
  -22.7263  -10.2134   20.3055 C   0  0  0  0  0  0
  -21.6859   -6.0736   22.5279 C   0  0  0  0  0  0
  -21.4017   -6.5638   23.8212 C   0  0  0  0  0  0
  -21.3661   -5.6790   24.9173 C   0  0  0  0  0  0
  -21.6048   -4.3053   24.7225 C   0  0  0  0  0  0
  -21.8818   -3.8146   23.4345 C   0  0  0  0  0  0
  -21.9195   -4.6963   22.3401 C   0  0  0  0  0  0
  -22.7777  -13.5191   21.1902 C   0  0  0  0  0  0
  -22.1662   -4.2149   21.0979 F   0  0  0  0  0  0
  -21.5631   -3.4537   25.7737 F   0  0  0  0  0  0
  -29.8968  -13.8900   20.3383 N   0  0  0  0  0  0
  -26.2842  -12.9488   20.3203 N   0  0  0  0  0  0
  -25.9335  -11.6606   20.5713 N   0  0  0  0  0  0
  -22.0428  -12.8177   22.0458 N   0  0  0  0  0  0
  -25.4024  -15.1966   20.4137 N   0  0  0  0  0  0
  -31.6534  -15.2499   20.1719 O   0  0  0  0  0  0
  -21.6644   -6.8882   21.4242 O   0  0  0  0  0  0
  -22.3459  -14.5493   20.6743 O   0  0  0  0  0  0
  -24.6590  -31.8274   23.1733 C   0  0  0  0  0  0
  -25.9288  -32.4607   23.8185 C   0  0  1  0  0  0
  -27.2221  -26.9690   20.1811 C   0  0  0  0  0  0
  -25.5973  -33.8421   24.2096 N   0  0  0  0  0  0
  -23.4716  -30.4395   21.5221 C   0  0  2  0  0  0
  -24.9246  -28.8318   20.1146 C   0  0  0  0  0  0
  -22.7645  -29.4456   22.4798 C   0  0  0  0  0  0
  -18.0320  -28.1400   22.8468 C   0  0  0  0  0  0
  -24.1495  -36.7214   23.2645 C   0  0  0  0  0  0
  -26.0382  -30.6481   21.3962 C   0  0  0  0  0  0
  -26.1076  -29.2413   20.7420 C   0  0  0  0  0  0
  -27.2528  -28.3313   20.7482 C   0  0  0  0  0  0
  -26.0083  -26.6988   19.5111 C   0  0  0  0  0  0
  -24.8976  -27.5797   19.4796 C   0  0  0  0  0  0
  -23.7089  -29.7549   20.1482 C   0  0  0  0  0  0
  -25.4135  -36.2980   24.0302 C   0  0  1  0  0  0
  -20.5942  -28.3740   23.1197 C   0  0  2  0  0  0
  -20.6797  -26.9425   22.5403 C   0  0  0  0  0  0
  -19.5772  -26.6373   21.5212 C   0  0  0  0  0  0
  -18.1954  -26.7935   22.1621 C   0  0  0  0  0  0
  -19.1582  -28.8892   23.2820 C   0  0  0  0  0  0
  -18.9490  -30.1483   23.8852 C   0  0  0  0  0  0
  -17.6483  -30.6592   24.0553 C   0  0  0  0  0  0
  -25.9098  -34.9359   23.5018 C   0  0  0  0  0  0
  -16.5373  -29.9079   23.6340 C   0  0  0  0  0  0
  -16.7302  -28.6499   23.0360 C   0  0  0  0  0  0
  -26.4557  -31.6534   25.0693 C   0  0  0  0  0  0
  -25.3698  -31.3768   26.1357 C   0  0  0  0  0  0
  -27.0448  -30.2908   24.6391 C   0  0  0  0  0  0
  -27.6053  -32.4335   25.7499 C   0  0  0  0  0  0
  -27.5574  -37.1765   24.8466 C   0  0  0  0  0  0
  -21.4319  -29.3040   22.3552 N   0  0  0  0  0  0
  -26.4285  -37.3710   23.9407 N   0  0  0  0  0  0
  -24.7441  -30.9975   22.0847 N   0  0  0  0  0  0
  -23.4210  -28.8023   23.3025 O   0  0  0  0  0  0
  -28.2508  -25.9024   20.2353 O   0  0  0  0  0  0
  -26.5700  -34.8887   22.4610 O   0  0  0  0  0  0
  -23.5668  -32.1225   23.6851 O   0  0  0  0  0  0
  -30.5076  -18.9543   20.8046 C   0  0  0  0  0  0
  -30.3580  -20.4305   20.8018 C   0  0  0  0  0  0
  -29.2064  -21.1978   20.3084 C   0  0  0  0  0  0
  -29.5284  -17.9977   20.3505 C   0  0  0  0  0  0
  -28.2717  -20.1660   19.8790 C   0  0  0  0  0  0
  -31.5306  -21.2044   21.3830 C   0  0  0  0  0  0
  -30.0052  -23.2593   18.8893 C   0  0  0  0  0  0
  -27.1386  -21.0764   18.0440 C   0  0  0  0  0  0
  -28.0230  -24.2810   20.2342 C   0  0  0  0  0  0
  -29.1940  -22.9466   20.1587 C   0  0  1  0  0  0
  -28.4220  -18.7488   19.9264 N   0  0  0  0  0  0
  -29.5660  -16.3937   20.4181 N   0  0  0  0  0  0
  -27.0631  -20.5347   19.3544 O   0  0  0  0  0  0
  -31.4679  -12.9732   19.1818 H   0  0  0  0  0  0
  -30.5133  -11.8448   20.0979 H   0  0  0  0  0  0
  -29.9017  -11.7432   17.6594 H   0  0  0  0  0  0
  -29.5765  -13.4587   17.6496 H   0  0  0  0  0  0
  -28.0210  -11.2728   19.0545 H   0  0  0  0  0  0
  -27.4120  -12.3697   17.8405 H   0  0  0  0  0  0
  -27.5448  -14.2419   19.3463 H   0  0  0  0  0  0
  -28.8109  -12.4435   21.4688 H   0  0  0  0  0  0
  -28.3103  -14.1009   21.7143 H   0  0  0  0  0  0
  -25.2781   -9.5682   22.4761 H   0  0  0  0  0  0
  -24.0013   -7.4636   22.7471 H   0  0  0  0  0  0
  -21.0860   -8.8781   19.8949 H   0  0  0  0  0  0
  -22.3724  -10.9673   19.6164 H   0  0  0  0  0  0
  -21.2007   -7.6145   23.9717 H   0  0  0  0  0  0
  -21.1486   -6.0517   25.9077 H   0  0  0  0  0  0
  -22.0596   -2.7608   23.2845 H   0  0  0  0  0  0
  -22.4057  -11.9851   22.4858 H   0  0  0  0  0  0
  -21.1035  -13.1183   22.2645 H   0  0  0  0  0  0
  -24.6240  -15.8377   20.5232 H   0  0  0  0  0  0
  -26.2251  -15.6438   20.0323 H   0  0  0  0  0  0
  -26.7353  -32.5160   23.0900 H   0  0  0  0  0  0
  -25.0084  -33.9512   25.0221 H   0  0  0  0  0  0
  -22.7825  -31.2697   21.3532 H   0  0  0  0  0  0
  -23.3769  -35.9533   23.3280 H   0  0  0  0  0  0
  -24.3572  -36.8886   22.2065 H   0  0  0  0  0  0
  -23.7237  -37.6390   23.6717 H   0  0  0  0  0  0
  -26.2123  -31.3915   20.6170 H   0  0  0  0  0  0
  -26.9006  -30.7055   22.0485 H   0  0  0  0  0  0
  -28.1525  -28.6457   21.2579 H   0  0  0  0  0  0
  -25.8875  -25.7451   19.0196 H   0  0  0  0  0  0
  -23.9975  -27.2606   18.9721 H   0  0  0  0  0  0
  -23.8609  -30.5231   19.3893 H   0  0  0  0  0  0
  -22.8197  -29.2062   19.8323 H   0  0  0  0  0  0
  -25.1332  -36.1784   25.0793 H   0  0  0  0  0  0
  -21.0033  -28.3342   24.1318 H   0  0  0  0  0  0
  -20.5676  -26.2356   23.3639 H   0  0  0  0  0  0
  -21.6660  -26.7402   22.1208 H   0  0  0  0  0  0
  -19.6930  -25.6272   21.1270 H   0  0  0  0  0  0
  -19.6712  -27.3159   20.6723 H   0  0  0  0  0  0
  -17.4222  -26.6676   21.4025 H   0  0  0  0  0  0
  -18.0349  -26.0087   22.9027 H   0  0  0  0  0  0
  -19.7966  -30.7315   24.2195 H   0  0  0  0  0  0
  -17.5034  -31.6268   24.5162 H   0  0  0  0  0  0
  -15.5371  -30.2964   23.7692 H   0  0  0  0  0  0
  -15.8702  -28.0802   22.7097 H   0  0  0  0  0  0
  -24.5895  -30.7103   25.7665 H   0  0  0  0  0  0
  -24.8873  -32.2965   26.4672 H   0  0  0  0  0  0
  -25.7943  -30.9007   27.0204 H   0  0  0  0  0  0
  -26.3104  -29.6590   24.1384 H   0  0  0  0  0  0
  -27.3986  -29.7258   25.5025 H   0  0  0  0  0  0
  -27.9041  -30.4098   23.9789 H   0  0  0  0  0  0
  -27.2622  -33.3673   26.1965 H   0  0  0  0  0  0
  -28.3927  -32.6836   25.0376 H   0  0  0  0  0  0
  -28.0652  -31.8535   26.5510 H   0  0  0  0  0  0
  -28.2571  -38.0080   24.7517 H   0  0  0  0  0  0
  -28.1092  -36.2606   24.6294 H   0  0  0  0  0  0
  -27.2289  -37.1404   25.8868 H   0  0  0  0  0  0
  -20.9562  -29.8733   21.6691 H   0  0  0  0  0  0
  -26.0136  -38.2771   24.1415 H   0  0  0  0  0  0
  -31.4228  -18.5382   21.2042 H   0  0  0  0  0  0
  -32.3123  -20.5404   21.7514 H   0  0  0  0  0  0
  -31.2047  -21.8114   22.2274 H   0  0  0  0  0  0
  -31.9872  -21.8578   20.6421 H   0  0  0  0  0  0
  -30.9601  -22.7372   18.8680 H   0  0  0  0  0  0
  -30.2217  -24.3256   18.8117 H   0  0  0  0  0  0
  -29.4622  -22.9737   17.9899 H   0  0  0  0  0  0
  -27.2835  -22.1543   18.0767 H   0  0  0  0  0  0
  -26.2015  -20.8872   17.5211 H   0  0  0  0  0  0
  -27.9424  -20.6322   17.4537 H   0  0  0  0  0  0
  -27.4379  -24.1020   21.1364 H   0  0  0  0  0  0
  -27.3245  -24.0947   19.4206 H   0  0  0  0  0  0
  -29.8363  -23.2248   20.9925 H   0  0  0  0  0  0
  -28.6207  -16.0498   20.4435 H   0  0  0  0  0  0
  1 25  1  0  0  0
  1 30  2  0  0  0
  1 82  1  0  0  0
  2  3  1  0  0  0
  2 25  1  0  0  0
  2 84  1  0  0  0
  2 85  1  0  0  0
  3  4  1  0  0  0
  3 86  1  0  0  0
  3 87  1  0  0  0
  4  5  1  0  0  0
  4 88  1  0  0  0
  4 89  1  0  0  0
  5  6  1  0  0  0
  5 26  1  0  0  0
  5 90  1  0  0  0
  6 25  1  0  0  0
  6 91  1  0  0  0
  6 92  1  0  0  0
  7  8  2  0  0  0
  7 26  1  0  0  0
  7 29  1  0  0  0
  8  9  1  0  0  0
  8 22  1  0  0  0
  9 10  1  0  0  0
  9 27  2  0  0  0
 10 11  2  0  0  0
 10 15  1  0  0  0
 11 12  1  0  0  0
 11 93  1  0  0  0
 12 13  2  0  0  0
 12 94  1  0  0  0
 13 14  1  0  0  0
 13 31  1  0  0  0
 14 15  2  0  0  0
 14 95  1  0  0  0
 15 96  1  0  0  0
 16 17  2  0  0  0
 16 21  1  0  0  0
 16 31  1  0  0  0
 17 18  1  0  0  0
 17 97  1  0  0  0
 18 19  2  0  0  0
 18 98  1  0  0  0
 19 20  1  0  0  0
 19 24  1  0  0  0
 20 21  2  0  0  0
 20 99  1  0  0  0
 21 23  1  0  0  0
 22 28  1  0  0  0
 22 32  2  0  0  0
 26 27  1  0  0  0
 28100  1  0  0  0
 28101  1  0  0  0
 29102  1  0  0  0
 29103  1  0  0  0
 33 34  1  0  0  0
 33 66  1  0  0  0
 33 70  2  0  0  0
 34 36  1  0  0  0
 34 59  1  0  0  0
 34104  1  0  0  0
 35 44  2  0  0  0
 35 45  1  0  0  0
 35 68  1  0  0  0
 36 56  1  0  0  0
 36105  1  0  0  0
 37 39  1  0  0  0
 37 47  1  0  0  0
 37 66  1  0  0  0
 37106  1  0  0  0
 38 43  2  0  0  0
 38 46  1  0  0  0
 38 47  1  0  0  0
 39 64  1  0  0  0
 39 67  2  0  0  0
 40 52  1  0  0  0
 40 53  2  0  0  0
 40 58  1  0  0  0
 41107  1  0  0  0
 41108  1  0  0  0
 41109  1  0  0  0
 41 48  1  0  0  0
 42 43  1  0  0  0
 42 66  1  0  0  0
 42110  1  0  0  0
 42111  1  0  0  0
 43 44  1  0  0  0
 44112  1  0  0  0
 45 46  2  0  0  0
 45113  1  0  0  0
 46114  1  0  0  0
 47115  1  0  0  0
 47116  1  0  0  0
 48 56  1  0  0  0
 48 65  1  0  0  0
 48117  1  0  0  0
 49 50  1  0  0  0
 49 53  1  0  0  0
 49 64  1  0  0  0
 49118  1  0  0  0
 50 51  1  0  0  0
 50119  1  0  0  0
 50120  1  0  0  0
 51 52  1  0  0  0
 51121  1  0  0  0
 51122  1  0  0  0
 52123  1  0  0  0
 52124  1  0  0  0
 53 54  1  0  0  0
 54 55  2  0  0  0
 54125  1  0  0  0
 55 57  1  0  0  0
 55126  1  0  0  0
 56 69  2  0  0  0
 57 58  2  0  0  0
 57127  1  0  0  0
 58128  1  0  0  0
 59 60  1  0  0  0
 59 61  1  0  0  0
 59 62  1  0  0  0
 60129  1  0  0  0
 60130  1  0  0  0
 60131  1  0  0  0
 61132  1  0  0  0
 61133  1  0  0  0
 61134  1  0  0  0
 62135  1  0  0  0
 62136  1  0  0  0
 62137  1  0  0  0
 63 65  1  0  0  0
 63138  1  0  0  0
 63139  1  0  0  0
 63140  1  0  0  0
 64141  1  0  0  0
 65142  1  0  0  0
 68 79  1  0  0  0
 71 72  2  0  0  0
 71 74  1  0  0  0
 71143  1  0  0  0
 72 73  1  0  0  0
 72 76  1  0  0  0
 73 75  2  0  0  0
 73 80  1  0  0  0
 74 81  2  0  0  0
 74 82  1  0  0  0
 75 81  1  0  0  0
 75 83  1  0  0  0
 76144  1  0  0  0
 76145  1  0  0  0
 76146  1  0  0  0
 77147  1  0  0  0
 77148  1  0  0  0
 77149  1  0  0  0
 77 80  1  0  0  0
 78 83  1  0  0  0
 78150  1  0  0  0
 78151  1  0  0  0
 78152  1  0  0  0
 79 80  1  0  0  0
 79153  1  0  0  0
 79154  1  0  0  0
 80155  1  0  0  0
 82156  1  0  0  0
M  ISO  4   1 100  68 101  79 101  82 100
M  END
> <chiral flag>
0

> <version>
0

> <s_m_source_file>
/data/baiqing/PycharmProjects/Reinvent-master-3.2/result/LINK_invent/BTK/process_docking_weight1_custom_sum_contain_oxygen_bond_distance_aromatic_linkinvent_7_9_3/rearranged_h_0154.sdf

> <i_m_source_file_index>
45

> <r_mmod_Potential_Energy-OPLS-2005>
940.246154785156

> <r_mmod_Stretch_Energy-OPLS-2005>
473.384887695312

> <r_mmod_Bend_Energy-OPLS-2005>
432.543670654297

> <r_mmod_Torsional_Energy-OPLS-2005>
256.724395751953

> <r_mmod_Improper_Torsional_Energy-OPLS-2005>
5.93074464797974

> <r_mmod_Van_der_Waal_Energy-OPLS-2005>
128.242568969727

> <r_mmod_Electrostatic_Energy-OPLS-2005>
-534.248901367188

> <r_mmod_Solvation_Energy-OPLS-2005>
-217.254928588867

> <b_mmod_Minimization_Converged-OPLS-2005>
0

> <r_mmod_RMS_Derivative-OPLS-2005>
0.562705159187317

$$$$
46
                    3D
 Structure written by MMmdl.
165174  0  0  1  0            999 V2000
  -30.6484  -14.5498   20.5256 C   0  0  0  0  0  0
  -30.4327  -12.3369   19.4521 C   0  0  0  0  0  0
  -29.5067  -12.4968   18.2255 C   0  0  0  0  0  0
  -28.0259  -12.3507   18.6314 C   0  0  0  0  0  0
  -27.6572  -13.2062   19.8726 C   0  0  2  0  0  0
  -28.6975  -13.0241   21.0029 C   0  0  0  0  0  0
  -25.2525  -13.8078   20.5557 C   0  0  0  0  0  0
  -24.1812  -13.0383   20.9178 C   0  0  0  0  0  0
  -24.6395  -11.6860   20.8761 C   0  0  0  0  0  0
  -23.9060  -10.4265   21.0431 C   0  0  0  0  0  0
  -24.3609   -9.4184   21.9207 C   0  0  0  0  0  0
  -23.6283   -8.2220   22.0759 C   0  0  0  0  0  0
  -22.4269   -8.0269   21.3539 C   0  0  0  0  0  0
  -21.9909   -9.0248   20.4646 C   0  0  0  0  0  0
  -22.7239  -10.2125   20.3069 C   0  0  0  0  0  0
  -21.6848   -6.0732   22.5279 C   0  0  0  0  0  0
  -21.4008   -6.5639   23.8214 C   0  0  0  0  0  0
  -21.3659   -5.6791   24.9180 C   0  0  0  0  0  0
  -21.6040   -4.3053   24.7228 C   0  0  0  0  0  0
  -21.8820   -3.8142   23.4352 C   0  0  0  0  0  0
  -21.9194   -4.6959   22.3405 C   0  0  0  0  0  0
  -22.7851  -13.5209   21.1847 C   0  0  0  0  0  0
  -22.1661   -4.2147   21.0981 F   0  0  0  0  0  0
  -21.5632   -3.4534   25.7745 F   0  0  0  0  0  0
  -30.0270  -13.3372   20.4546 N   0  0  0  0  0  0
  -26.2991  -12.9278   20.3335 N   0  0  0  0  0  0
  -25.9326  -11.6446   20.5804 N   0  0  0  0  0  0
  -22.0482  -12.8217   22.0416 N   0  0  0  0  0  0
  -25.4134  -15.1730   20.3683 N   0  0  0  0  0  0
  -31.7851  -14.7372   20.0824 O   0  0  0  0  0  0
  -21.6628   -6.8874   21.4237 O   0  0  0  0  0  0
  -22.3556  -14.5538   20.6725 O   0  0  0  0  0  0
  -24.6204  -31.8630   23.2048 C   0  0  0  0  0  0
  -25.9065  -32.4790   23.8379 C   0  0  1  0  0  0
  -27.2404  -27.3891   20.0986 C   0  0  0  0  0  0
  -25.5896  -33.8593   24.2312 N   0  0  0  0  0  0
  -23.4107  -30.4884   21.5423 C   0  0  2  0  0  0
  -24.8550  -28.9388   20.1125 C   0  0  0  0  0  0
  -22.7421  -29.4679   22.4922 C   0  0  0  0  0  0
  -18.0290  -28.1380   22.8475 C   0  0  0  0  0  0
  -24.1486  -36.7310   23.2650 C   0  0  0  0  0  0
  -25.9431  -30.8135   21.3634 C   0  0  0  0  0  0
  -26.0153  -29.4421   20.7122 C   0  0  0  0  0  0
  -27.2049  -28.6738   20.7030 C   0  0  0  0  0  0
  -26.0520  -26.9016   19.5059 C   0  0  0  0  0  0
  -24.8692  -27.6678   19.5104 C   0  0  0  0  0  0
  -23.6202  -29.8119   20.1609 C   0  0  0  0  0  0
  -25.4096  -36.3096   24.0356 C   0  0  1  0  0  0
  -20.5877  -28.3696   23.1261 C   0  0  2  0  0  0
  -20.6777  -26.9419   22.5391 C   0  0  0  0  0  0
  -19.5756  -26.6391   21.5187 C   0  0  0  0  0  0
  -18.1936  -26.7929   22.1612 C   0  0  0  0  0  0
  -19.1536  -28.8846   23.2878 C   0  0  0  0  0  0
  -18.9473  -30.1446   23.8895 C   0  0  0  0  0  0
  -17.6478  -30.6575   24.0568 C   0  0  0  0  0  0
  -25.9029  -34.9469   23.5135 C   0  0  0  0  0  0
  -16.5362  -29.9085   23.6329 C   0  0  0  0  0  0
  -16.7281  -28.6511   23.0324 C   0  0  0  0  0  0
  -26.4461  -31.6583   25.0735 C   0  0  0  0  0  0
  -25.3730  -31.3689   26.1487 C   0  0  0  0  0  0
  -27.0313  -30.3038   24.6134 C   0  0  0  0  0  0
  -27.6046  -32.4299   25.7475 C   0  0  0  0  0  0
  -27.5576  -37.1807   24.8472 C   0  0  0  0  0  0
  -21.4150  -29.3072   22.3654 N   0  0  0  0  0  0
  -26.4288  -37.3785   23.9410 N   0  0  0  0  0  0
  -24.6766  -31.0715   22.0949 N   0  0  0  0  0  0
  -23.4165  -28.8222   23.2991 O   0  0  0  0  0  0
  -28.4301  -26.6738   20.1245 O   0  0  0  0  0  0
  -26.5586  -34.8928   22.4696 O   0  0  0  0  0  0
  -23.5391  -32.1387   23.7422 O   0  0  0  0  0  0
  -29.2871  -20.6070   20.6005 C   0  0  0  0  0  0
  -27.5531  -19.1228   21.3806 C   0  0  0  0  0  0
  -26.6136  -20.1293   21.1926 C   0  0  0  0  0  0
  -28.9136  -19.3093   21.0751 C   0  0  0  0  0  0
  -28.3402  -21.6729   20.4377 C   0  0  0  0  0  0
  -26.9665  -21.4010   20.7048 C   0  0  0  0  0  0
  -26.9114  -17.8698   21.9149 C   0  0  0  0  0  0
  -25.2253  -19.6605   21.5426 C   0  0  0  0  0  0
  -25.4467  -18.2765   22.1908 C   0  0  0  0  0  0
  -25.6141  -22.4310   19.1064 C   0  0  0  0  0  0
  -29.9109  -18.1501   21.3353 C   0  0  0  0  0  0
  -29.8729  -16.9633   20.3142 C   0  0  0  0  0  0
  -28.5523  -25.3487   19.5471 C   0  0  0  0  0  0
  -28.3197  -24.1496   20.5213 C   0  0  0  0  0  0
  -29.8542  -15.5870   20.8847 N   0  0  0  0  0  0
  -25.9605  -22.3030   20.4774 O   0  0  0  0  0  0
  -28.7881  -22.9001   19.9504 O   0  0  0  0  0  0
  -31.4772  -12.4470   19.1538 H   0  0  0  0  0  0
  -30.3461  -11.3320   19.8699 H   0  0  0  0  0  0
  -29.7577  -11.7551   17.4651 H   0  0  0  0  0  0
  -29.6682  -13.4735   17.7666 H   0  0  0  0  0  0
  -27.8447  -11.2967   18.8449 H   0  0  0  0  0  0
  -27.3779  -12.6041   17.7917 H   0  0  0  0  0  0
  -27.6886  -14.2472   19.5518 H   0  0  0  0  0  0
  -28.6829  -11.9973   21.3711 H   0  0  0  0  0  0
  -28.4525  -13.6482   21.8636 H   0  0  0  0  0  0
  -25.2754   -9.5664   22.4783 H   0  0  0  0  0  0
  -23.9995   -7.4610   22.7477 H   0  0  0  0  0  0
  -21.0842   -8.8770   19.8950 H   0  0  0  0  0  0
  -22.3705  -10.9668   19.6178 H   0  0  0  0  0  0
  -21.1992   -7.6146   23.9718 H   0  0  0  0  0  0
  -21.1481   -6.0521   25.9084 H   0  0  0  0  0  0
  -22.0602   -2.7604   23.2851 H   0  0  0  0  0  0
  -22.4073  -11.9859   22.4782 H   0  0  0  0  0  0
  -21.1112  -13.1261   22.2629 H   0  0  0  0  0  0
  -24.6290  -15.8116   20.4337 H   0  0  0  0  0  0
  -26.2359  -15.5910   19.9538 H   0  0  0  0  0  0
  -26.7127  -32.5465   23.1126 H   0  0  0  0  0  0
  -25.0100  -33.9722   25.0497 H   0  0  0  0  0  0
  -22.7076  -31.3108   21.3938 H   0  0  0  0  0  0
  -23.3748  -35.9646   23.3309 H   0  0  0  0  0  0
  -24.3610  -36.8910   22.2068 H   0  0  0  0  0  0
  -23.7234  -37.6527   23.6641 H   0  0  0  0  0  0
  -26.0637  -31.5756   20.5925 H   0  0  0  0  0  0
  -26.8314  -30.8689   21.9811 H   0  0  0  0  0  0
  -28.0992  -29.0596   21.1726 H   0  0  0  0  0  0
  -26.0066  -25.9249   19.0498 H   0  0  0  0  0  0
  -23.9754  -27.2653   19.0553 H   0  0  0  0  0  0
  -23.7291  -30.5826   19.3960 H   0  0  0  0  0  0
  -22.7440  -29.2321   19.8665 H   0  0  0  0  0  0
  -25.1264  -36.1990   25.0854 H   0  0  0  0  0  0
  -20.9992  -28.3283   24.1370 H   0  0  0  0  0  0
  -20.5660  -26.2317   23.3595 H   0  0  0  0  0  0
  -21.6648  -26.7439   22.1182 H   0  0  0  0  0  0
  -19.6930  -25.6307   21.1208 H   0  0  0  0  0  0
  -19.6686  -27.3203   20.6713 H   0  0  0  0  0  0
  -17.4195  -26.6664   21.4024 H   0  0  0  0  0  0
  -18.0360  -26.0063   22.9007 H   0  0  0  0  0  0
  -19.7958  -30.7256   24.2257 H   0  0  0  0  0  0
  -17.5041  -31.6258   24.5171 H   0  0  0  0  0  0
  -15.5365  -30.2983   23.7666 H   0  0  0  0  0  0
  -15.8687  -28.0851   22.6997 H   0  0  0  0  0  0
  -24.5902  -30.7014   25.7828 H   0  0  0  0  0  0
  -24.8907  -32.2848   26.4942 H   0  0  0  0  0  0
  -25.8104  -30.8864   27.0243 H   0  0  0  0  0  0
  -26.2883  -29.6777   24.1175 H   0  0  0  0  0  0
  -27.4086  -29.7289   25.4601 H   0  0  0  0  0  0
  -27.8697  -30.4368   23.9292 H   0  0  0  0  0  0
  -27.2683  -33.3603   26.2066 H   0  0  0  0  0  0
  -28.3836  -32.6848   25.0270 H   0  0  0  0  0  0
  -28.0730  -31.8410   26.5371 H   0  0  0  0  0  0
  -28.2597  -38.0104   24.7496 H   0  0  0  0  0  0
  -28.1067  -36.2633   24.6301 H   0  0  0  0  0  0
  -27.2303  -37.1458   25.8883 H   0  0  0  0  0  0
  -20.9305  -29.8802   21.6870 H   0  0  0  0  0  0
  -26.0192  -38.2877   24.1383 H   0  0  0  0  0  0
  -30.3225  -20.8084   20.3670 H   0  0  0  0  0  0
  -27.4064  -17.5022   22.8144 H   0  0  0  0  0  0
  -26.9772  -17.0960   21.1544 H   0  0  0  0  0  0
  -24.6327  -19.5806   20.6310 H   0  0  0  0  0  0
  -24.7257  -20.3559   22.2169 H   0  0  0  0  0  0
  -25.3192  -18.3755   23.2696 H   0  0  0  0  0  0
  -24.7237  -17.5334   21.8553 H   0  0  0  0  0  0
  -26.4742  -22.6929   18.4894 H   0  0  0  0  0  0
  -24.8666  -23.2157   18.9858 H   0  0  0  0  0  0
  -25.1841  -21.5016   18.7305 H   0  0  0  0  0  0
  -29.7249  -17.7729   22.3410 H   0  0  0  0  0  0
  -30.9226  -18.5568   21.3764 H   0  0  0  0  0  0
  -30.6869  -17.0753   19.5950 H   0  0  0  0  0  0
  -28.9629  -17.0505   19.7193 H   0  0  0  0  0  0
  -27.9756  -25.2333   18.6297 H   0  0  0  0  0  0
  -29.5881  -25.2837   19.2126 H   0  0  0  0  0  0
  -27.2802  -24.1498   20.8357 H   0  0  0  0  0  0
  -28.9023  -24.3164   21.4277 H   0  0  0  0  0  0
  -28.9774  -15.3097   21.2999 H   0  0  0  0  0  0
  1 25  1  0  0  0
  1 30  2  0  0  0
  1 85  1  0  0  0
  2  3  1  0  0  0
  2 25  1  0  0  0
  2 88  1  0  0  0
  2 89  1  0  0  0
  3  4  1  0  0  0
  3 90  1  0  0  0
  3 91  1  0  0  0
  4  5  1  0  0  0
  4 92  1  0  0  0
  4 93  1  0  0  0
  5  6  1  0  0  0
  5 26  1  0  0  0
  5 94  1  0  0  0
  6 25  1  0  0  0
  6 95  1  0  0  0
  6 96  1  0  0  0
  7  8  2  0  0  0
  7 26  1  0  0  0
  7 29  1  0  0  0
  8  9  1  0  0  0
  8 22  1  0  0  0
  9 10  1  0  0  0
  9 27  2  0  0  0
 10 11  2  0  0  0
 10 15  1  0  0  0
 11 12  1  0  0  0
 11 97  1  0  0  0
 12 13  2  0  0  0
 12 98  1  0  0  0
 13 14  1  0  0  0
 13 31  1  0  0  0
 14 15  2  0  0  0
 14 99  1  0  0  0
 15100  1  0  0  0
 16 17  2  0  0  0
 16 21  1  0  0  0
 16 31  1  0  0  0
 17 18  1  0  0  0
 17101  1  0  0  0
 18 19  2  0  0  0
 18102  1  0  0  0
 19 20  1  0  0  0
 19 24  1  0  0  0
 20 21  2  0  0  0
 20103  1  0  0  0
 21 23  1  0  0  0
 22 28  1  0  0  0
 22 32  2  0  0  0
 26 27  1  0  0  0
 28104  1  0  0  0
 28105  1  0  0  0
 29106  1  0  0  0
 29107  1  0  0  0
 33 34  1  0  0  0
 33 66  1  0  0  0
 33 70  2  0  0  0
 34 36  1  0  0  0
 34 59  1  0  0  0
 34108  1  0  0  0
 35 44  2  0  0  0
 35 45  1  0  0  0
 35 68  1  0  0  0
 36 56  1  0  0  0
 36109  1  0  0  0
 37 39  1  0  0  0
 37 47  1  0  0  0
 37 66  1  0  0  0
 37110  1  0  0  0
 38 43  2  0  0  0
 38 46  1  0  0  0
 38 47  1  0  0  0
 39 64  1  0  0  0
 39 67  2  0  0  0
 40 52  1  0  0  0
 40 53  2  0  0  0
 40 58  1  0  0  0
 41111  1  0  0  0
 41112  1  0  0  0
 41113  1  0  0  0
 41 48  1  0  0  0
 42 43  1  0  0  0
 42 66  1  0  0  0
 42114  1  0  0  0
 42115  1  0  0  0
 43 44  1  0  0  0
 44116  1  0  0  0
 45 46  2  0  0  0
 45117  1  0  0  0
 46118  1  0  0  0
 47119  1  0  0  0
 47120  1  0  0  0
 48 56  1  0  0  0
 48 65  1  0  0  0
 48121  1  0  0  0
 49 50  1  0  0  0
 49 53  1  0  0  0
 49 64  1  0  0  0
 49122  1  0  0  0
 50 51  1  0  0  0
 50123  1  0  0  0
 50124  1  0  0  0
 51 52  1  0  0  0
 51125  1  0  0  0
 51126  1  0  0  0
 52127  1  0  0  0
 52128  1  0  0  0
 53 54  1  0  0  0
 54 55  2  0  0  0
 54129  1  0  0  0
 55 57  1  0  0  0
 55130  1  0  0  0
 56 69  2  0  0  0
 57 58  2  0  0  0
 57131  1  0  0  0
 58132  1  0  0  0
 59 60  1  0  0  0
 59 61  1  0  0  0
 59 62  1  0  0  0
 60133  1  0  0  0
 60134  1  0  0  0
 60135  1  0  0  0
 61136  1  0  0  0
 61137  1  0  0  0
 61138  1  0  0  0
 62139  1  0  0  0
 62140  1  0  0  0
 62141  1  0  0  0
 63 65  1  0  0  0
 63142  1  0  0  0
 63143  1  0  0  0
 63144  1  0  0  0
 64145  1  0  0  0
 65146  1  0  0  0
 68 83  1  0  0  0
 71 74  2  0  0  0
 71 75  1  0  0  0
 71147  1  0  0  0
 72 73  2  0  0  0
 72 74  1  0  0  0
 72 77  1  0  0  0
 73 76  1  0  0  0
 73 78  1  0  0  0
 74 81  1  0  0  0
 75 76  2  0  0  0
 75 87  1  0  0  0
 76 86  1  0  0  0
 77 79  1  0  0  0
 77148  1  0  0  0
 77149  1  0  0  0
 78 79  1  0  0  0
 78150  1  0  0  0
 78151  1  0  0  0
 79152  1  0  0  0
 79153  1  0  0  0
 80 86  1  0  0  0
 80154  1  0  0  0
 80155  1  0  0  0
 80156  1  0  0  0
 81 82  1  0  0  0
 81157  1  0  0  0
 81158  1  0  0  0
 82 85  1  0  0  0
 82159  1  0  0  0
 82160  1  0  0  0
 83 84  1  0  0  0
 83161  1  0  0  0
 83162  1  0  0  0
 84 87  1  0  0  0
 84163  1  0  0  0
 84164  1  0  0  0
 85165  1  0  0  0
M  ISO  4   1 100  68 101  83 101  85 100
M  END
> <chiral flag>
0

> <version>
0

> <s_m_source_file>
/data/baiqing/PycharmProjects/Reinvent-master-3.2/result/LINK_invent/BTK/process_docking_weight1_custom_sum_contain_oxygen_bond_distance_aromatic_linkinvent_7_9_3/rearranged_h_0154.sdf

> <i_m_source_file_index>
46

> <r_mmod_Potential_Energy-OPLS-2005>
55.7202987670898

> <r_mmod_Stretch_Energy-OPLS-2005>
53.2002372741699

> <r_mmod_Bend_Energy-OPLS-2005>
162.054061889648

> <r_mmod_Torsional_Energy-OPLS-2005>
279.973937988281

> <r_mmod_Improper_Torsional_Energy-OPLS-2005>
7.98243761062622

> <r_mmod_Van_der_Waal_Energy-OPLS-2005>
136.448135375977

> <r_mmod_Electrostatic_Energy-OPLS-2005>
-391.924743652344

> <r_mmod_Solvation_Energy-OPLS-2005>
-215.121704101562

> <b_mmod_Minimization_Converged-OPLS-2005>
0

> <r_mmod_RMS_Derivative-OPLS-2005>
2.36399745941162

$$$$
47
                    3D
 Structure written by MMmdl.
164172  0  0  1  0            999 V2000
  -30.6625  -14.4874   20.6091 C   0  0  0  0  0  0
  -30.4400  -12.3256   19.4166 C   0  0  0  0  0  0
  -29.5021  -12.5218   18.2054 C   0  0  0  0  0  0
  -28.0212  -12.3725   18.6118 C   0  0  0  0  0  0
  -27.6653  -13.1977   19.8772 C   0  0  2  0  0  0
  -28.7036  -12.9398   20.9918 C   0  0  0  0  0  0
  -25.2612  -13.8141   20.5662 C   0  0  0  0  0  0
  -24.1850  -13.0434   20.9166 C   0  0  0  0  0  0
  -24.6385  -11.6897   20.8712 C   0  0  0  0  0  0
  -23.9044  -10.4290   21.0403 C   0  0  0  0  0  0
  -24.3603   -9.4209   21.9185 C   0  0  0  0  0  0
  -23.6282   -8.2245   22.0752 C   0  0  0  0  0  0
  -22.4262   -8.0276   21.3541 C   0  0  0  0  0  0
  -21.9889   -9.0248   20.4644 C   0  0  0  0  0  0
  -22.7212  -10.2132   20.3055 C   0  0  0  0  0  0
  -21.6852   -6.0726   22.5275 C   0  0  0  0  0  0
  -21.4013   -6.5633   23.8208 C   0  0  0  0  0  0
  -21.3660   -5.6784   24.9169 C   0  0  0  0  0  0
  -21.6047   -4.3047   24.7225 C   0  0  0  0  0  0
  -21.8820   -3.8137   23.4349 C   0  0  0  0  0  0
  -21.9192   -4.6951   22.3398 C   0  0  0  0  0  0
  -22.7874  -13.5246   21.1841 C   0  0  0  0  0  0
  -22.1662   -4.2136   21.0975 F   0  0  0  0  0  0
  -21.5630   -3.4533   25.7741 F   0  0  0  0  0  0
  -30.0385  -13.2824   20.4599 N   0  0  0  0  0  0
  -26.3029  -12.9287   20.3329 N   0  0  0  0  0  0
  -25.9307  -11.6457   20.5726 N   0  0  0  0  0  0
  -22.0499  -12.8251   22.0396 N   0  0  0  0  0  0
  -25.4353  -15.1859   20.4093 N   0  0  0  0  0  0
  -31.7628  -14.7328   20.1006 O   0  0  0  0  0  0
  -21.6632   -6.8872   21.4237 O   0  0  0  0  0  0
  -22.3570  -14.5560   20.6691 O   0  0  0  0  0  0
  -24.6179  -31.8691   23.2113 C   0  0  0  0  0  0
  -25.9065  -32.4829   23.8407 C   0  0  1  0  0  0
  -27.2276  -27.4141   20.0696 C   0  0  0  0  0  0
  -25.5921  -33.8625   24.2335 N   0  0  0  0  0  0
  -23.4049  -30.4963   21.5539 C   0  0  2  0  0  0
  -24.8452  -28.9657   20.1139 C   0  0  0  0  0  0
  -22.7422  -29.4673   22.4986 C   0  0  0  0  0  0
  -18.0278  -28.1387   22.8489 C   0  0  0  0  0  0
  -24.1485  -36.7308   23.2634 C   0  0  0  0  0  0
  -25.9390  -30.8244   21.3705 C   0  0  0  0  0  0
  -26.0105  -29.4591   20.7124 C   0  0  0  0  0  0
  -27.1988  -28.6877   20.6952 C   0  0  0  0  0  0
  -26.0285  -26.9416   19.4798 C   0  0  0  0  0  0
  -24.8498  -27.7052   19.5019 C   0  0  0  0  0  0
  -23.6125  -29.8384   20.1658 C   0  0  0  0  0  0
  -25.4106  -36.3109   24.0335 C   0  0  1  0  0  0
  -20.5870  -28.3678   23.1310 C   0  0  2  0  0  0
  -20.6775  -26.9417   22.5410 C   0  0  0  0  0  0
  -19.5745  -26.6395   21.5213 C   0  0  0  0  0  0
  -18.1925  -26.7930   22.1630 C   0  0  0  0  0  0
  -19.1529  -28.8847   23.2898 C   0  0  0  0  0  0
  -18.9455  -30.1449   23.8916 C   0  0  0  0  0  0
  -17.6461  -30.6591   24.0567 C   0  0  0  0  0  0
  -25.9040  -34.9480   23.5129 C   0  0  0  0  0  0
  -16.5352  -29.9098   23.6326 C   0  0  0  0  0  0
  -16.7269  -28.6514   23.0348 C   0  0  0  0  0  0
  -26.4480  -31.6608   25.0742 C   0  0  0  0  0  0
  -25.3744  -31.3749   26.1499 C   0  0  0  0  0  0
  -27.0286  -30.3037   24.6131 C   0  0  0  0  0  0
  -27.6073  -32.4314   25.7489 C   0  0  0  0  0  0
  -27.5579  -37.1811   24.8465 C   0  0  0  0  0  0
  -21.4150  -29.3046   22.3718 N   0  0  0  0  0  0
  -26.4291  -37.3796   23.9408 N   0  0  0  0  0  0
  -24.6725  -31.0772   22.1032 N   0  0  0  0  0  0
  -23.4188  -28.8208   23.3030 O   0  0  0  0  0  0
  -28.4022  -26.6725   20.0969 O   0  0  0  0  0  0
  -26.5598  -34.8928   22.4687 O   0  0  0  0  0  0
  -23.5363  -32.1465   23.7488 O   0  0  0  0  0  0
  -28.5365  -17.2875   21.5326 C   0  0  0  0  0  0
  -28.2754  -18.6707   21.5603 C   0  0  0  0  0  0
  -29.3319  -19.5883   21.3041 C   0  0  0  0  0  0
  -30.6028  -19.0062   21.0161 C   0  0  0  0  0  0
  -29.8189  -16.7948   21.2360 C   0  0  0  0  0  0
  -26.8604  -19.1143   21.9043 C   0  0  0  0  0  0
  -31.8528  -19.8301   20.7718 C   0  0  0  0  0  0
  -29.4275  -21.5590   22.8867 C   0  0  0  0  0  0
  -29.6124  -24.5202   19.6177 C   0  0  0  0  0  0
  -29.6373  -22.1011   20.3825 C   0  0  0  0  0  0
  -28.6040  -25.6029   19.1477 C   0  0  0  0  0  0
  -29.0656  -21.1196   21.4554 C   0  0  1  0  0  0
  -30.8219  -17.6636   20.9706 N   0  0  0  0  0  0
  -29.9353  -15.3762   21.3178 N   0  0  0  0  0  0
  -28.9939  -23.4485   20.4526 N   0  3  0  0  0  0
  -31.4815  -12.4537   19.1149 H   0  0  0  0  0  0
  -30.3675  -11.3066   19.7988 H   0  0  0  0  0  0
  -29.7475  -11.8036   17.4215 H   0  0  0  0  0  0
  -29.6636  -13.5114   17.7744 H   0  0  0  0  0  0
  -27.8319  -11.3142   18.7955 H   0  0  0  0  0  0
  -27.3740  -12.6560   17.7810 H   0  0  0  0  0  0
  -27.7186  -14.2504   19.5997 H   0  0  0  0  0  0
  -28.6886  -11.8868   21.2769 H   0  0  0  0  0  0
  -28.4428  -13.4764   21.9047 H   0  0  0  0  0  0
  -25.2755   -9.5678   22.4757 H   0  0  0  0  0  0
  -23.9988   -7.4635   22.7471 H   0  0  0  0  0  0
  -21.0815   -8.8765   19.8952 H   0  0  0  0  0  0
  -22.3674  -10.9671   19.6160 H   0  0  0  0  0  0
  -21.2009   -7.6144   23.9709 H   0  0  0  0  0  0
  -21.1481   -6.0517   25.9072 H   0  0  0  0  0  0
  -22.0601   -2.7595   23.2858 H   0  0  0  0  0  0
  -22.4086  -11.9903   22.4790 H   0  0  0  0  0  0
  -21.1119  -13.1296   22.2593 H   0  0  0  0  0  0
  -24.6669  -15.8395   20.5140 H   0  0  0  0  0  0
  -26.2791  -15.6206   20.0584 H   0  0  0  0  0  0
  -26.7134  -32.5525   23.1166 H   0  0  0  0  0  0
  -25.0079  -33.9793   25.0485 H   0  0  0  0  0  0
  -22.6945  -31.3147   21.4197 H   0  0  0  0  0  0
  -23.3750  -35.9639   23.3296 H   0  0  0  0  0  0
  -24.3579  -36.8920   22.2048 H   0  0  0  0  0  0
  -23.7236  -37.6511   23.6648 H   0  0  0  0  0  0
  -26.0589  -31.5920   20.6044 H   0  0  0  0  0  0
  -26.8247  -30.8716   21.9925 H   0  0  0  0  0  0
  -28.0973  -29.0668   21.1619 H   0  0  0  0  0  0
  -25.9366  -25.9790   19.0052 H   0  0  0  0  0  0
  -23.9490  -27.3156   19.0467 H   0  0  0  0  0  0
  -23.7287  -30.6201   19.4140 H   0  0  0  0  0  0
  -22.7319  -29.2693   19.8618 H   0  0  0  0  0  0
  -25.1277  -36.1979   25.0828 H   0  0  0  0  0  0
  -20.9955  -28.3250   24.1434 H   0  0  0  0  0  0
  -20.5693  -26.2287   23.3596 H   0  0  0  0  0  0
  -21.6644  -26.7472   22.1194 H   0  0  0  0  0  0
  -19.6910  -25.6310   21.1232 H   0  0  0  0  0  0
  -19.6675  -27.3213   20.6749 H   0  0  0  0  0  0
  -17.4189  -26.6665   21.4043 H   0  0  0  0  0  0
  -18.0336  -26.0082   22.9035 H   0  0  0  0  0  0
  -19.7931  -30.7257   24.2301 H   0  0  0  0  0  0
  -17.5019  -31.6273   24.5164 H   0  0  0  0  0  0
  -15.5355  -30.3009   23.7641 H   0  0  0  0  0  0
  -15.8665  -28.0843   22.7058 H   0  0  0  0  0  0
  -24.5853  -30.7172   25.7837 H   0  0  0  0  0  0
  -24.9024  -32.2932   26.5005 H   0  0  0  0  0  0
  -25.8084  -30.8851   27.0224 H   0  0  0  0  0  0
  -26.2821  -29.6818   24.1176 H   0  0  0  0  0  0
  -27.4026  -29.7266   25.4597 H   0  0  0  0  0  0
  -27.8680  -30.4336   23.9296 H   0  0  0  0  0  0
  -27.2727  -33.3639   26.2047 H   0  0  0  0  0  0
  -28.3891  -32.6824   25.0308 H   0  0  0  0  0  0
  -28.0717  -31.8438   26.5418 H   0  0  0  0  0  0
  -28.2606  -38.0100   24.7507 H   0  0  0  0  0  0
  -28.1065  -36.2635   24.6292 H   0  0  0  0  0  0
  -27.2296  -37.1460   25.8868 H   0  0  0  0  0  0
  -20.9311  -29.8780   21.6948 H   0  0  0  0  0  0
  -26.0178  -38.2873   24.1415 H   0  0  0  0  0  0
  -27.7346  -16.5964   21.7571 H   0  0  0  0  0  0
  -26.2314  -18.2695   22.1849 H   0  0  0  0  0  0
  -26.3897  -19.5981   21.0481 H   0  0  0  0  0  0
  -26.8569  -19.8079   22.7451 H   0  0  0  0  0  0
  -31.9646  -20.6167   21.5164 H   0  0  0  0  0  0
  -31.8268  -20.2748   19.7772 H   0  0  0  0  0  0
  -32.7520  -19.2155   20.8317 H   0  0  0  0  0  0
  -28.8605  -20.9878   23.6220 H   0  0  0  0  0  0
  -29.2041  -22.6107   23.0654 H   0  0  0  0  0  0
  -30.4839  -21.4099   23.1072 H   0  0  0  0  0  0
  -30.4603  -24.9721   20.1331 H   0  0  0  0  0  0
  -30.0167  -24.0494   18.7204 H   0  0  0  0  0  0
  -29.4671  -21.6950   19.3840 H   0  0  0  0  0  0
  -30.7123  -22.2306   20.4959 H   0  0  0  0  0  0
  -27.7070  -25.0789   18.8346 H   0  0  0  0  0  0
  -28.9956  -26.0721   18.2443 H   0  0  0  0  0  0
  -27.9919  -21.2622   21.3560 H   0  0  0  0  0  0
  -29.1359  -14.9357   21.7408 H   0  0  0  0  0  0
  -28.0328  -23.3332   20.1699 H   0  0  0  0  0  0
  -28.9840  -23.7618   21.4109 H   0  0  0  0  0  0
  1 25  1  0  0  0
  1 30  2  0  0  0
  1 84  1  0  0  0
  2  3  1  0  0  0
  2 25  1  0  0  0
  2 86  1  0  0  0
  2 87  1  0  0  0
  3  4  1  0  0  0
  3 88  1  0  0  0
  3 89  1  0  0  0
  4  5  1  0  0  0
  4 90  1  0  0  0
  4 91  1  0  0  0
  5  6  1  0  0  0
  5 26  1  0  0  0
  5 92  1  0  0  0
  6 25  1  0  0  0
  6 93  1  0  0  0
  6 94  1  0  0  0
  7  8  2  0  0  0
  7 26  1  0  0  0
  7 29  1  0  0  0
  8  9  1  0  0  0
  8 22  1  0  0  0
  9 10  1  0  0  0
  9 27  2  0  0  0
 10 11  2  0  0  0
 10 15  1  0  0  0
 11 12  1  0  0  0
 11 95  1  0  0  0
 12 13  2  0  0  0
 12 96  1  0  0  0
 13 14  1  0  0  0
 13 31  1  0  0  0
 14 15  2  0  0  0
 14 97  1  0  0  0
 15 98  1  0  0  0
 16 17  2  0  0  0
 16 21  1  0  0  0
 16 31  1  0  0  0
 17 18  1  0  0  0
 17 99  1  0  0  0
 18 19  2  0  0  0
 18100  1  0  0  0
 19 20  1  0  0  0
 19 24  1  0  0  0
 20 21  2  0  0  0
 20101  1  0  0  0
 21 23  1  0  0  0
 22 28  1  0  0  0
 22 32  2  0  0  0
 26 27  1  0  0  0
 28102  1  0  0  0
 28103  1  0  0  0
 29104  1  0  0  0
 29105  1  0  0  0
 33 34  1  0  0  0
 33 66  1  0  0  0
 33 70  2  0  0  0
 34 36  1  0  0  0
 34 59  1  0  0  0
 34106  1  0  0  0
 35 44  2  0  0  0
 35 45  1  0  0  0
 35 68  1  0  0  0
 36 56  1  0  0  0
 36107  1  0  0  0
 37 39  1  0  0  0
 37 47  1  0  0  0
 37 66  1  0  0  0
 37108  1  0  0  0
 38 43  2  0  0  0
 38 46  1  0  0  0
 38 47  1  0  0  0
 39 64  1  0  0  0
 39 67  2  0  0  0
 40 52  1  0  0  0
 40 53  2  0  0  0
 40 58  1  0  0  0
 41109  1  0  0  0
 41110  1  0  0  0
 41111  1  0  0  0
 41 48  1  0  0  0
 42 43  1  0  0  0
 42 66  1  0  0  0
 42112  1  0  0  0
 42113  1  0  0  0
 43 44  1  0  0  0
 44114  1  0  0  0
 45 46  2  0  0  0
 45115  1  0  0  0
 46116  1  0  0  0
 47117  1  0  0  0
 47118  1  0  0  0
 48 56  1  0  0  0
 48 65  1  0  0  0
 48119  1  0  0  0
 49 50  1  0  0  0
 49 53  1  0  0  0
 49 64  1  0  0  0
 49120  1  0  0  0
 50 51  1  0  0  0
 50121  1  0  0  0
 50122  1  0  0  0
 51 52  1  0  0  0
 51123  1  0  0  0
 51124  1  0  0  0
 52125  1  0  0  0
 52126  1  0  0  0
 53 54  1  0  0  0
 54 55  2  0  0  0
 54127  1  0  0  0
 55 57  1  0  0  0
 55128  1  0  0  0
 56 69  2  0  0  0
 57 58  2  0  0  0
 57129  1  0  0  0
 58130  1  0  0  0
 59 60  1  0  0  0
 59 61  1  0  0  0
 59 62  1  0  0  0
 60131  1  0  0  0
 60132  1  0  0  0
 60133  1  0  0  0
 61134  1  0  0  0
 61135  1  0  0  0
 61136  1  0  0  0
 62137  1  0  0  0
 62138  1  0  0  0
 62139  1  0  0  0
 63 65  1  0  0  0
 63140  1  0  0  0
 63141  1  0  0  0
 63142  1  0  0  0
 64143  1  0  0  0
 65144  1  0  0  0
 68 81  1  0  0  0
 71 72  2  0  0  0
 71 75  1  0  0  0
 71145  1  0  0  0
 72 73  1  0  0  0
 72 76  1  0  0  0
 73 74  2  0  0  0
 73 82  1  0  0  0
 74 77  1  0  0  0
 74 83  1  0  0  0
 75 83  2  0  0  0
 75 84  1  0  0  0
 76146  1  0  0  0
 76147  1  0  0  0
 76148  1  0  0  0
 77149  1  0  0  0
 77150  1  0  0  0
 77151  1  0  0  0
 78152  1  0  0  0
 78153  1  0  0  0
 78154  1  0  0  0
 78 82  1  0  0  0
 79 81  1  0  0  0
 79 85  1  0  0  0
 79155  1  0  0  0
 79156  1  0  0  0
 80 82  1  0  0  0
 80 85  1  0  0  0
 80157  1  0  0  0
 80158  1  0  0  0
 81159  1  0  0  0
 81160  1  0  0  0
 82161  1  0  0  0
 84162  1  0  0  0
 85163  1  0  0  0
 85164  1  0  0  0
M  CHG  1  85   1
M  ISO  4   1 100  68 101  81 101  84 100
M  END
> <chiral flag>
0

> <version>
0

> <s_m_source_file>
/data/baiqing/PycharmProjects/Reinvent-master-3.2/result/LINK_invent/BTK/process_docking_weight1_custom_sum_contain_oxygen_bond_distance_aromatic_linkinvent_7_9_3/rearranged_h_0154.sdf

> <i_m_source_file_index>
47

> <r_mmod_Potential_Energy-OPLS-2005>
-305.676391601562

> <r_mmod_Stretch_Energy-OPLS-2005>
46.2996215820312

> <r_mmod_Bend_Energy-OPLS-2005>
130.389389038086

> <r_mmod_Torsional_Energy-OPLS-2005>
225.42463684082

> <r_mmod_Improper_Torsional_Energy-OPLS-2005>
4.058762550354

> <r_mmod_Van_der_Waal_Energy-OPLS-2005>
159.105987548828

> <r_mmod_Electrostatic_Energy-OPLS-2005>
-406.110534667969

> <r_mmod_Solvation_Energy-OPLS-2005>
-480.058166503906

> <b_mmod_Minimization_Converged-OPLS-2005>
0

> <r_mmod_RMS_Derivative-OPLS-2005>
1.35997223854065

$$$$
48
                    3D
 Structure written by MMmdl.
169178  0  0  1  0            999 V2000
  -30.6769  -14.6167   20.4904 C   0  0  0  0  0  0
  -30.4159  -12.3796   19.4542 C   0  0  0  0  0  0
  -29.4961  -12.4937   18.2216 C   0  0  0  0  0  0
  -28.0209  -12.3406   18.6375 C   0  0  0  0  0  0
  -27.6451  -13.2267   19.8556 C   0  0  2  0  0  0
  -28.6902  -13.1192   20.9877 C   0  0  0  0  0  0
  -25.2523  -13.8199   20.5694 C   0  0  0  0  0  0
  -24.1803  -13.0445   20.9202 C   0  0  0  0  0  0
  -24.6388  -11.6924   20.8752 C   0  0  0  0  0  0
  -23.9068  -10.4296   21.0410 C   0  0  0  0  0  0
  -24.3620   -9.4212   21.9188 C   0  0  0  0  0  0
  -23.6293   -8.2248   22.0758 C   0  0  0  0  0  0
  -22.4278   -8.0284   21.3547 C   0  0  0  0  0  0
  -21.9918   -9.0256   20.4648 C   0  0  0  0  0  0
  -22.7245  -10.2134   20.3056 C   0  0  0  0  0  0
  -21.6850   -6.0737   22.5279 C   0  0  0  0  0  0
  -21.4012   -6.5641   23.8214 C   0  0  0  0  0  0
  -21.3660   -5.6793   24.9178 C   0  0  0  0  0  0
  -21.6045   -4.3057   24.7227 C   0  0  0  0  0  0
  -21.8816   -3.8148   23.4349 C   0  0  0  0  0  0
  -21.9192   -4.6964   22.3404 C   0  0  0  0  0  0
  -22.7826  -13.5229   21.1863 C   0  0  0  0  0  0
  -22.1661   -4.2151   21.0981 F   0  0  0  0  0  0
  -21.5632   -3.4540   25.7740 F   0  0  0  0  0  0
  -30.0020  -13.4290   20.4080 N   0  0  0  0  0  0
  -26.2952  -12.9401   20.3309 N   0  0  0  0  0  0
  -25.9316  -11.6547   20.5769 N   0  0  0  0  0  0
  -22.0475  -12.8203   22.0413 N   0  0  0  0  0  0
  -25.4225  -15.1920   20.4109 N   0  0  0  0  0  0
  -31.8580  -14.6927   20.1460 O   0  0  0  0  0  0
  -21.6641   -6.8882   21.4242 O   0  0  0  0  0  0
  -22.3510  -14.5540   20.6721 O   0  0  0  0  0  0
  -24.6240  -31.8612   23.2040 C   0  0  0  0  0  0
  -25.9094  -32.4785   23.8367 C   0  0  1  0  0  0
  -27.2208  -27.3309   20.1305 C   0  0  0  0  0  0
  -25.5913  -33.8582   24.2295 N   0  0  0  0  0  0
  -23.4172  -30.4813   21.5472 C   0  0  2  0  0  0
  -24.8640  -28.9336   20.1159 C   0  0  0  0  0  0
  -22.7466  -29.4617   22.4974 C   0  0  0  0  0  0
  -18.0277  -28.1387   22.8493 C   0  0  0  0  0  0
  -24.1486  -36.7303   23.2644 C   0  0  0  0  0  0
  -25.9539  -30.7944   21.3730 C   0  0  0  0  0  0
  -26.0280  -29.4186   20.7259 C   0  0  0  0  0  0
  -27.2101  -28.6258   20.7272 C   0  0  0  0  0  0
  -26.0507  -26.9067   19.4685 C   0  0  0  0  0  0
  -24.8751  -27.6812   19.4792 C   0  0  0  0  0  0
  -23.6311  -29.8114   20.1640 C   0  0  0  0  0  0
  -25.4111  -36.3086   24.0333 C   0  0  1  0  0  0
  -20.5876  -28.3684   23.1308 C   0  0  2  0  0  0
  -20.6770  -26.9417   22.5415 C   0  0  0  0  0  0
  -19.5741  -26.6392   21.5218 C   0  0  0  0  0  0
  -18.1920  -26.7932   22.1630 C   0  0  0  0  0  0
  -19.1529  -28.8854   23.2888 C   0  0  0  0  0  0
  -18.9453  -30.1456   23.8900 C   0  0  0  0  0  0
  -17.6454  -30.6593   24.0567 C   0  0  0  0  0  0
  -25.9045  -34.9451   23.5114 C   0  0  0  0  0  0
  -16.5346  -29.9093   23.6334 C   0  0  0  0  0  0
  -16.7267  -28.6509   23.0357 C   0  0  0  0  0  0
  -26.4492  -31.6588   25.0728 C   0  0  0  0  0  0
  -25.3743  -31.3681   26.1463 C   0  0  0  0  0  0
  -27.0345  -30.3023   24.6153 C   0  0  0  0  0  0
  -27.6048  -32.4332   25.7507 C   0  0  0  0  0  0
  -27.5572  -37.1812   24.8468 C   0  0  0  0  0  0
  -21.4186  -29.3034   22.3716 N   0  0  0  0  0  0
  -26.4292  -37.3778   23.9400 N   0  0  0  0  0  0
  -24.6838  -31.0628   22.0986 N   0  0  0  0  0  0
  -23.4197  -28.8163   23.3052 O   0  0  0  0  0  0
  -28.3564  -26.5198   20.1238 O   0  0  0  0  0  0
  -26.5620  -34.8916   22.4685 O   0  0  0  0  0  0
  -23.5408  -32.1410   23.7374 O   0  0  0  0  0  0
  -29.9957  -19.4803   21.5952 C   0  0  0  0  0  0
  -28.7508  -21.2183   20.3264 C   0  0  0  0  0  0
  -29.5044  -20.8104   21.4682 C   0  0  0  0  0  0
  -29.8060  -18.4770   20.6143 C   0  0  0  0  0  0
  -28.5535  -20.2081   19.3197 C   0  0  0  0  0  0
  -29.0683  -18.8662   19.4601 C   0  0  0  0  0  0
  -27.0708  -24.5302   21.3089 C   0  0  0  0  0  0
  -28.0881  -22.6632   20.2102 C   0  0  2  0  0  0
  -28.9286  -23.9480   19.8296 C   0  0  2  0  0  0
  -28.3411  -25.1413   20.6793 C   0  0  1  0  0  0
  -29.8252  -21.7715   22.6046 C   0  0  0  0  0  0
  -27.7805  -20.5741   18.0498 C   0  0  0  0  0  0
  -28.8698  -17.8550   18.3331 C   0  0  0  0  0  0
  -28.9124  -24.2550   18.3216 C   0  0  0  0  0  0
  -30.6053  -17.1272   20.7657 C   0  0  0  0  0  0
  -29.9770  -15.7612   20.7664 N   0  0  0  0  0  0
  -27.3168  -23.0679   21.4005 N   0  3  0  0  0  0
  -31.4604  -12.4717   19.1520 H   0  0  0  0  0  0
  -30.3243  -11.3946   19.9148 H   0  0  0  0  0  0
  -29.7557  -11.7326   17.4842 H   0  0  0  0  0  0
  -29.6441  -13.4581   17.7330 H   0  0  0  0  0  0
  -27.8584  -11.2901   18.8815 H   0  0  0  0  0  0
  -27.3644  -12.5603   17.7947 H   0  0  0  0  0  0
  -27.6551  -14.2561   19.4973 H   0  0  0  0  0  0
  -28.6958  -12.1164   21.4166 H   0  0  0  0  0  0
  -28.4473  -13.7991   21.8057 H   0  0  0  0  0  0
  -25.2761   -9.5688   22.4771 H   0  0  0  0  0  0
  -24.0000   -7.4643   22.7478 H   0  0  0  0  0  0
  -21.0852   -8.8776   19.8952 H   0  0  0  0  0  0
  -22.3705  -10.9676   19.6169 H   0  0  0  0  0  0
  -21.2000   -7.6147   23.9718 H   0  0  0  0  0  0
  -21.1487   -6.0524   25.9081 H   0  0  0  0  0  0
  -22.0594   -2.7609   23.2848 H   0  0  0  0  0  0
  -22.4096  -11.9852   22.4776 H   0  0  0  0  0  0
  -21.1094  -13.1220   22.2629 H   0  0  0  0  0  0
  -24.6568  -15.8473   20.5250 H   0  0  0  0  0  0
  -26.2726  -15.6331   20.0843 H   0  0  0  0  0  0
  -26.7167  -32.5476   23.1125 H   0  0  0  0  0  0
  -25.0028  -33.9729   25.0417 H   0  0  0  0  0  0
  -22.7099  -31.3003   21.4033 H   0  0  0  0  0  0
  -23.3731  -35.9654   23.3323 H   0  0  0  0  0  0
  -24.3564  -36.8910   22.2052 H   0  0  0  0  0  0
  -23.7264  -37.6520   23.6661 H   0  0  0  0  0  0
  -26.0768  -31.5519   20.5972 H   0  0  0  0  0  0
  -26.8376  -30.8520   21.9964 H   0  0  0  0  0  0
  -28.1068  -28.9922   21.2072 H   0  0  0  0  0  0
  -26.0424  -25.9661   18.9373 H   0  0  0  0  0  0
  -23.9878  -27.3124   18.9825 H   0  0  0  0  0  0
  -23.7467  -30.5848   19.4038 H   0  0  0  0  0  0
  -22.7528  -29.2350   19.8679 H   0  0  0  0  0  0
  -25.1288  -36.1948   25.0827 H   0  0  0  0  0  0
  -20.9952  -28.3259   24.1435 H   0  0  0  0  0  0
  -20.5686  -26.2290   23.3608 H   0  0  0  0  0  0
  -21.6637  -26.7468   22.1197 H   0  0  0  0  0  0
  -19.6901  -25.6307   21.1239 H   0  0  0  0  0  0
  -19.6673  -27.3210   20.6754 H   0  0  0  0  0  0
  -17.4193  -26.6685   21.4029 H   0  0  0  0  0  0
  -18.0301  -26.0073   22.9018 H   0  0  0  0  0  0
  -19.7927  -30.7265   24.2279 H   0  0  0  0  0  0
  -17.5010  -31.6275   24.5167 H   0  0  0  0  0  0
  -15.5343  -30.2993   23.7660 H   0  0  0  0  0  0
  -15.8666  -28.0832   22.7079 H   0  0  0  0  0  0
  -24.5935  -30.7020   25.7778 H   0  0  0  0  0  0
  -24.8914  -32.2821   26.4930 H   0  0  0  0  0  0
  -25.8084  -30.8835   27.0218 H   0  0  0  0  0  0
  -26.2909  -29.6767   24.1204 H   0  0  0  0  0  0
  -27.4084  -29.7284   25.4643 H   0  0  0  0  0  0
  -27.8758  -30.4321   23.9344 H   0  0  0  0  0  0
  -27.2658  -33.3642   26.2067 H   0  0  0  0  0  0
  -28.3868  -32.6880   25.0342 H   0  0  0  0  0  0
  -28.0708  -31.8474   26.5443 H   0  0  0  0  0  0
  -28.2600  -38.0098   24.7498 H   0  0  0  0  0  0
  -28.1056  -36.2626   24.6323 H   0  0  0  0  0  0
  -27.2280  -37.1503   25.8870 H   0  0  0  0  0  0
  -20.9375  -29.8758   21.6921 H   0  0  0  0  0  0
  -26.0176  -38.2860   24.1374 H   0  0  0  0  0  0
  -30.5809  -19.2317   22.4707 H   0  0  0  0  0  0
  -26.1959  -24.6492   20.6757 H   0  0  0  0  0  0
  -26.8380  -24.9666   22.2805 H   0  0  0  0  0  0
  -27.2938  -22.5959   19.4699 H   0  0  0  0  0  0
  -29.9647  -23.8003   20.1335 H   0  0  0  0  0  0
  -29.0296  -25.2362   21.5210 H   0  0  0  0  0  0
  -30.6753  -21.4146   23.1874 H   0  0  0  0  0  0
  -28.9812  -21.8589   23.2892 H   0  0  0  0  0  0
  -30.0968  -22.7613   22.2403 H   0  0  0  0  0  0
  -26.7111  -20.6189   18.2563 H   0  0  0  0  0  0
  -27.9196  -19.8853   17.2198 H   0  0  0  0  0  0
  -28.0977  -21.5394   17.6612 H   0  0  0  0  0  0
  -29.2184  -16.8539   18.5695 H   0  0  0  0  0  0
  -29.4128  -18.1713   17.4420 H   0  0  0  0  0  0
  -27.8132  -17.7621   18.0809 H   0  0  0  0  0  0
  -27.8966  -24.3956   17.9509 H   0  0  0  0  0  0
  -29.3752  -23.4507   17.7505 H   0  0  0  0  0  0
  -29.4694  -25.1662   18.1014 H   0  0  0  0  0  0
  -31.1974  -17.1844   21.6805 H   0  0  0  0  0  0
  -31.3447  -17.1581   19.9630 H   0  0  0  0  0  0
  -28.9973  -15.6864   20.9923 H   0  0  0  0  0  0
  -26.4565  -22.5461   21.4614 H   0  0  0  0  0  0
  -27.8692  -22.8619   22.2174 H   0  0  0  0  0  0
  1 25  1  0  0  0
  1 30  2  0  0  0
  1 86  1  0  0  0
  2  3  1  0  0  0
  2 25  1  0  0  0
  2 88  1  0  0  0
  2 89  1  0  0  0
  3  4  1  0  0  0
  3 90  1  0  0  0
  3 91  1  0  0  0
  4  5  1  0  0  0
  4 92  1  0  0  0
  4 93  1  0  0  0
  5  6  1  0  0  0
  5 26  1  0  0  0
  5 94  1  0  0  0
  6 25  1  0  0  0
  6 95  1  0  0  0
  6 96  1  0  0  0
  7  8  2  0  0  0
  7 26  1  0  0  0
  7 29  1  0  0  0
  8  9  1  0  0  0
  8 22  1  0  0  0
  9 10  1  0  0  0
  9 27  2  0  0  0
 10 11  2  0  0  0
 10 15  1  0  0  0
 11 12  1  0  0  0
 11 97  1  0  0  0
 12 13  2  0  0  0
 12 98  1  0  0  0
 13 14  1  0  0  0
 13 31  1  0  0  0
 14 15  2  0  0  0
 14 99  1  0  0  0
 15100  1  0  0  0
 16 17  2  0  0  0
 16 21  1  0  0  0
 16 31  1  0  0  0
 17 18  1  0  0  0
 17101  1  0  0  0
 18 19  2  0  0  0
 18102  1  0  0  0
 19 20  1  0  0  0
 19 24  1  0  0  0
 20 21  2  0  0  0
 20103  1  0  0  0
 21 23  1  0  0  0
 22 28  1  0  0  0
 22 32  2  0  0  0
 26 27  1  0  0  0
 28104  1  0  0  0
 28105  1  0  0  0
 29106  1  0  0  0
 29107  1  0  0  0
 33 34  1  0  0  0
 33 66  1  0  0  0
 33 70  2  0  0  0
 34 36  1  0  0  0
 34 59  1  0  0  0
 34108  1  0  0  0
 35 44  2  0  0  0
 35 45  1  0  0  0
 35 68  1  0  0  0
 36 56  1  0  0  0
 36109  1  0  0  0
 37 39  1  0  0  0
 37 47  1  0  0  0
 37 66  1  0  0  0
 37110  1  0  0  0
 38 43  2  0  0  0
 38 46  1  0  0  0
 38 47  1  0  0  0
 39 64  1  0  0  0
 39 67  2  0  0  0
 40 52  1  0  0  0
 40 53  2  0  0  0
 40 58  1  0  0  0
 41111  1  0  0  0
 41112  1  0  0  0
 41113  1  0  0  0
 41 48  1  0  0  0
 42 43  1  0  0  0
 42 66  1  0  0  0
 42114  1  0  0  0
 42115  1  0  0  0
 43 44  1  0  0  0
 44116  1  0  0  0
 45 46  2  0  0  0
 45117  1  0  0  0
 46118  1  0  0  0
 47119  1  0  0  0
 47120  1  0  0  0
 48 56  1  0  0  0
 48 65  1  0  0  0
 48121  1  0  0  0
 49 50  1  0  0  0
 49 53  1  0  0  0
 49 64  1  0  0  0
 49122  1  0  0  0
 50 51  1  0  0  0
 50123  1  0  0  0
 50124  1  0  0  0
 51 52  1  0  0  0
 51125  1  0  0  0
 51126  1  0  0  0
 52127  1  0  0  0
 52128  1  0  0  0
 53 54  1  0  0  0
 54 55  2  0  0  0
 54129  1  0  0  0
 55 57  1  0  0  0
 55130  1  0  0  0
 56 69  2  0  0  0
 57 58  2  0  0  0
 57131  1  0  0  0
 58132  1  0  0  0
 59 60  1  0  0  0
 59 61  1  0  0  0
 59 62  1  0  0  0
 60133  1  0  0  0
 60134  1  0  0  0
 60135  1  0  0  0
 61136  1  0  0  0
 61137  1  0  0  0
 61138  1  0  0  0
 62139  1  0  0  0
 62140  1  0  0  0
 62141  1  0  0  0
 63 65  1  0  0  0
 63142  1  0  0  0
 63143  1  0  0  0
 63144  1  0  0  0
 64145  1  0  0  0
 65146  1  0  0  0
 68 80  1  0  0  0
 71 73  2  0  0  0
 71 74  1  0  0  0
 71147  1  0  0  0
 72 73  1  0  0  0
 72 75  2  0  0  0
 72 78  1  0  0  0
 73 81  1  0  0  0
 74 76  2  0  0  0
 74 85  1  0  0  0
 75 76  1  0  0  0
 75 82  1  0  0  0
 76 83  1  0  0  0
 77 80  1  0  0  0
 77 87  1  0  0  0
 77148  1  0  0  0
 77149  1  0  0  0
 78 79  1  0  0  0
 78 87  1  0  0  0
 78150  1  0  0  0
 79 80  1  0  0  0
 79 84  1  0  0  0
 79151  1  0  0  0
 80152  1  0  0  0
 81153  1  0  0  0
 81154  1  0  0  0
 81155  1  0  0  0
 82156  1  0  0  0
 82157  1  0  0  0
 82158  1  0  0  0
 83159  1  0  0  0
 83160  1  0  0  0
 83161  1  0  0  0
 84162  1  0  0  0
 84163  1  0  0  0
 84164  1  0  0  0
 85 86  1  0  0  0
 85165  1  0  0  0
 85166  1  0  0  0
 86167  1  0  0  0
 87168  1  0  0  0
 87169  1  0  0  0
M  CHG  1  87   1
M  ISO  4   1 100  68 101  80 101  86 100
M  END
> <chiral flag>
0

> <version>
0

> <s_m_source_file>
/data/baiqing/PycharmProjects/Reinvent-master-3.2/result/LINK_invent/BTK/process_docking_weight1_custom_sum_contain_oxygen_bond_distance_aromatic_linkinvent_7_9_3/rearranged_h_0154.sdf

> <i_m_source_file_index>
48

> <r_mmod_Potential_Energy-OPLS-2005>
-42.936595916748

> <r_mmod_Stretch_Energy-OPLS-2005>
82.8010711669922

> <r_mmod_Bend_Energy-OPLS-2005>
187.081802368164

> <r_mmod_Torsional_Energy-OPLS-2005>
287.824249267578

> <r_mmod_Improper_Torsional_Energy-OPLS-2005>
5.65554666519165

> <r_mmod_Van_der_Waal_Energy-OPLS-2005>
149.526351928711

> <r_mmod_Electrostatic_Energy-OPLS-2005>
-364.704925537109

> <r_mmod_Solvation_Energy-OPLS-2005>
-433.921264648438

> <b_mmod_Minimization_Converged-OPLS-2005>
0

> <r_mmod_RMS_Derivative-OPLS-2005>
1.03945064544678

$$$$
49
                    3D
 Structure written by MMmdl.
167176  0  0  1  0            999 V2000
  -30.6458  -14.6485   20.4856 C   0  0  0  0  0  0
  -30.4260  -12.3983   19.4631 C   0  0  0  0  0  0
  -29.5037  -12.5011   18.2294 C   0  0  0  0  0  0
  -28.0281  -12.3387   18.6418 C   0  0  0  0  0  0
  -27.6462  -13.2249   19.8573 C   0  0  2  0  0  0
  -28.6888  -13.1180   20.9925 C   0  0  0  0  0  0
  -25.2516  -13.8188   20.5685 C   0  0  0  0  0  0
  -24.1797  -13.0444   20.9196 C   0  0  0  0  0  0
  -24.6378  -11.6918   20.8739 C   0  0  0  0  0  0
  -23.9053  -10.4293   21.0400 C   0  0  0  0  0  0
  -24.3607   -9.4209   21.9179 C   0  0  0  0  0  0
  -23.6289   -8.2243   22.0750 C   0  0  0  0  0  0
  -22.4272   -8.0274   21.3540 C   0  0  0  0  0  0
  -21.9904   -9.0244   20.4641 C   0  0  0  0  0  0
  -22.7225  -10.2128   20.3052 C   0  0  0  0  0  0
  -21.6850   -6.0729   22.5276 C   0  0  0  0  0  0
  -21.4011   -6.5635   23.8209 C   0  0  0  0  0  0
  -21.3664   -5.6789   24.9172 C   0  0  0  0  0  0
  -21.6047   -4.3052   24.7224 C   0  0  0  0  0  0
  -21.8819   -3.8142   23.4346 C   0  0  0  0  0  0
  -21.9192   -4.6956   22.3400 C   0  0  0  0  0  0
  -22.7817  -13.5223   21.1862 C   0  0  0  0  0  0
  -22.1660   -4.2139   21.0978 F   0  0  0  0  0  0
  -21.5633   -3.4540   25.7741 F   0  0  0  0  0  0
  -30.0024  -13.4407   20.4206 N   0  0  0  0  0  0
  -26.2945  -12.9389   20.3299 N   0  0  0  0  0  0
  -25.9309  -11.6534   20.5756 N   0  0  0  0  0  0
  -22.0467  -12.8213   22.0420 N   0  0  0  0  0  0
  -25.4220  -15.1914   20.4086 N   0  0  0  0  0  0
  -31.8180  -14.7652   20.1235 O   0  0  0  0  0  0
  -21.6641   -6.8870   21.4238 O   0  0  0  0  0  0
  -22.3497  -14.5523   20.6701 O   0  0  0  0  0  0
  -24.6253  -31.8598   23.2020 C   0  0  0  0  0  0
  -25.9100  -32.4783   23.8356 C   0  0  1  0  0  0
  -27.2257  -27.3331   20.1190 C   0  0  0  0  0  0
  -25.5924  -33.8585   24.2287 N   0  0  0  0  0  0
  -23.4203  -30.4804   21.5442 C   0  0  2  0  0  0
  -24.8705  -28.9371   20.1085 C   0  0  0  0  0  0
  -22.7484  -29.4603   22.4940 C   0  0  0  0  0  0
  -18.0284  -28.1388   22.8485 C   0  0  0  0  0  0
  -24.1488  -36.7297   23.2641 C   0  0  0  0  0  0
  -25.9590  -30.7950   21.3712 C   0  0  0  0  0  0
  -26.0377  -29.4225   20.7149 C   0  0  0  0  0  0
  -27.2228  -28.6296   20.7146 C   0  0  0  0  0  0
  -26.0443  -26.8940   19.4896 C   0  0  0  0  0  0
  -24.8744  -27.6777   19.4864 C   0  0  0  0  0  0
  -23.6353  -29.8132   20.1596 C   0  0  0  0  0  0
  -25.4111  -36.3086   24.0328 C   0  0  1  0  0  0
  -20.5883  -28.3684   23.1289 C   0  0  2  0  0  0
  -20.6776  -26.9408   22.5413 C   0  0  0  0  0  0
  -19.5750  -26.6377   21.5222 C   0  0  0  0  0  0
  -18.1926  -26.7932   22.1625 C   0  0  0  0  0  0
  -19.1536  -28.8855   23.2879 C   0  0  0  0  0  0
  -18.9462  -30.1460   23.8890 C   0  0  0  0  0  0
  -17.6463  -30.6591   24.0561 C   0  0  0  0  0  0
  -25.9041  -34.9455   23.5104 C   0  0  0  0  0  0
  -16.5353  -29.9086   23.6339 C   0  0  0  0  0  0
  -16.7272  -28.6506   23.0355 C   0  0  0  0  0  0
  -26.4491  -31.6593   25.0729 C   0  0  0  0  0  0
  -25.3726  -31.3720   26.1457 C   0  0  0  0  0  0
  -27.0347  -30.3025   24.6170 C   0  0  0  0  0  0
  -27.6042  -32.4337   25.7509 C   0  0  0  0  0  0
  -27.5576  -37.1800   24.8466 C   0  0  0  0  0  0
  -21.4194  -29.3036   22.3691 N   0  0  0  0  0  0
  -26.4292  -37.3775   23.9404 N   0  0  0  0  0  0
  -24.6869  -31.0612   22.0968 N   0  0  0  0  0  0
  -23.4213  -28.8138   23.3009 O   0  0  0  0  0  0
  -28.2979  -26.4372   20.1659 O   0  0  0  0  0  0
  -26.5611  -34.8922   22.4670 O   0  0  0  0  0  0
  -23.5416  -32.1395   23.7347 O   0  0  0  0  0  0
  -29.4671  -23.4322   20.0094 C   0  0  0  0  0  0
  -27.7309  -22.7680   21.5483 C   0  0  0  0  0  0
  -28.1204  -21.3766   21.4037 C   0  0  0  0  0  0
  -28.4130  -23.8328   20.8585 C   0  0  0  0  0  0
  -29.8536  -22.0676   19.8635 C   0  0  0  0  0  0
  -29.2201  -20.9968   20.5601 C   0  0  0  0  0  0
  -27.4028  -20.2927   22.2165 C   0  0  0  0  0  0
  -26.1456  -20.7102   22.9765 C   0  0  0  0  0  0
  -26.3084  -22.0969   23.5746 C   0  0  0  0  0  0
  -26.5595  -23.1339   22.4763 C   0  0  2  0  0  0
  -31.0176  -21.7481   18.9410 C   0  0  0  0  0  0
  -25.2789  -23.4184   21.6616 C   0  0  0  0  0  0
  -28.1318  -25.3663   21.1646 C   0  0  0  0  0  0
  -30.3167  -17.1902   20.4491 C   0  0  0  0  0  0
  -29.3268  -18.3897   20.7990 C   0  0  0  0  0  0
  -29.8943  -15.7677   20.7338 N   0  0  0  0  0  0
  -29.7983  -19.7106   20.3514 O   0  0  0  0  0  0
  -31.4691  -12.5095   19.1620 H   0  0  0  0  0  0
  -30.3516  -11.4117   19.9223 H   0  0  0  0  0  0
  -29.7715  -11.7427   17.4929 H   0  0  0  0  0  0
  -29.6447  -13.4666   17.7406 H   0  0  0  0  0  0
  -27.8708  -11.2879   18.8881 H   0  0  0  0  0  0
  -27.3730  -12.5530   17.7966 H   0  0  0  0  0  0
  -27.6542  -14.2539   19.4967 H   0  0  0  0  0  0
  -28.6982  -12.1125   21.4156 H   0  0  0  0  0  0
  -28.4371  -13.7917   21.8132 H   0  0  0  0  0  0
  -25.2751   -9.5691   22.4754 H   0  0  0  0  0  0
  -23.9999   -7.4635   22.7471 H   0  0  0  0  0  0
  -21.0837   -8.8754   19.8946 H   0  0  0  0  0  0
  -22.3675  -10.9662   19.6161 H   0  0  0  0  0  0
  -21.1999   -7.6144   23.9705 H   0  0  0  0  0  0
  -21.1490   -6.0524   25.9073 H   0  0  0  0  0  0
  -22.0596   -2.7604   23.2850 H   0  0  0  0  0  0
  -22.4088  -11.9884   22.4822 H   0  0  0  0  0  0
  -21.1078  -13.1223   22.2619 H   0  0  0  0  0  0
  -24.6517  -15.8442   20.5032 H   0  0  0  0  0  0
  -26.2691  -15.6269   20.0674 H   0  0  0  0  0  0
  -26.7175  -32.5465   23.1113 H   0  0  0  0  0  0
  -25.0096  -33.9729   25.0451 H   0  0  0  0  0  0
  -22.7134  -31.3002   21.4008 H   0  0  0  0  0  0
  -23.3748  -35.9633   23.3309 H   0  0  0  0  0  0
  -24.3577  -36.8915   22.2054 H   0  0  0  0  0  0
  -23.7245  -37.6499   23.6665 H   0  0  0  0  0  0
  -26.0853  -31.5585   20.6026 H   0  0  0  0  0  0
  -26.8402  -30.8479   21.9985 H   0  0  0  0  0  0
  -28.1168  -28.9896   21.2041 H   0  0  0  0  0  0
  -26.0215  -25.9189   19.0229 H   0  0  0  0  0  0
  -23.9795  -27.3007   19.0108 H   0  0  0  0  0  0
  -23.7485  -30.5891   19.4016 H   0  0  0  0  0  0
  -22.7571  -29.2377   19.8613 H   0  0  0  0  0  0
  -25.1288  -36.1939   25.0819 H   0  0  0  0  0  0
  -20.9969  -28.3258   24.1412 H   0  0  0  0  0  0
  -20.5701  -26.2286   23.3606 H   0  0  0  0  0  0
  -21.6639  -26.7446   22.1189 H   0  0  0  0  0  0
  -19.6908  -25.6286   21.1256 H   0  0  0  0  0  0
  -19.6694  -27.3187   20.6753 H   0  0  0  0  0  0
  -17.4199  -26.6695   21.4024 H   0  0  0  0  0  0
  -18.0302  -26.0081   22.9021 H   0  0  0  0  0  0
  -19.7942  -30.7274   24.2254 H   0  0  0  0  0  0
  -17.5022  -31.6274   24.5160 H   0  0  0  0  0  0
  -15.5356  -30.2985   23.7669 H   0  0  0  0  0  0
  -15.8672  -28.0825   22.7070 H   0  0  0  0  0  0
  -24.5903  -30.7068   25.7783 H   0  0  0  0  0  0
  -24.8911  -32.2880   26.4891 H   0  0  0  0  0  0
  -25.8048  -30.8896   27.0232 H   0  0  0  0  0  0
  -26.2922  -29.6763   24.1210 H   0  0  0  0  0  0
  -27.4077  -29.7291   25.4665 H   0  0  0  0  0  0
  -27.8771  -30.4330   23.9373 H   0  0  0  0  0  0
  -27.2646  -33.3640   26.2077 H   0  0  0  0  0  0
  -28.3860  -32.6893   25.0346 H   0  0  0  0  0  0
  -28.0706  -31.8476   26.5438 H   0  0  0  0  0  0
  -28.2586  -38.0104   24.7509 H   0  0  0  0  0  0
  -28.1075  -36.2629   24.6296 H   0  0  0  0  0  0
  -27.2290  -37.1452   25.8868 H   0  0  0  0  0  0
  -20.9376  -29.8784   21.6923 H   0  0  0  0  0  0
  -26.0176  -38.2847   24.1410 H   0  0  0  0  0  0
  -30.0185  -24.2009   19.4858 H   0  0  0  0  0  0
  -28.1177  -19.9195   22.9496 H   0  0  0  0  0  0
  -27.1137  -19.4690   21.5690 H   0  0  0  0  0  0
  -25.9208  -19.9785   23.7529 H   0  0  0  0  0  0
  -25.2901  -20.6972   22.3020 H   0  0  0  0  0  0
  -27.1505  -22.0914   24.2690 H   0  0  0  0  0  0
  -25.4312  -22.3644   24.1650 H   0  0  0  0  0  0
  -26.8177  -24.0302   23.0380 H   0  0  0  0  0  0
  -31.3874  -22.6372   18.4295 H   0  0  0  0  0  0
  -30.7131  -21.0273   18.1812 H   0  0  0  0  0  0
  -31.8439  -21.3178   19.5077 H   0  0  0  0  0  0
  -24.9723  -22.5532   21.0738 H   0  0  0  0  0  0
  -25.4124  -24.2370   20.9563 H   0  0  0  0  0  0
  -24.4460  -23.6882   22.3113 H   0  0  0  0  0  0
  -28.8047  -25.6246   21.9828 H   0  0  0  0  0  0
  -27.1411  -25.4841   21.5939 H   0  0  0  0  0  0
  -31.2639  -17.3709   20.9600 H   0  0  0  0  0  0
  -30.5449  -17.2478   19.3836 H   0  0  0  0  0  0
  -29.1905  -18.3827   21.8777 H   0  0  0  0  0  0
  -28.3639  -18.1899   20.3293 H   0  0  0  0  0  0
  -28.9340  -15.6164   21.0048 H   0  0  0  0  0  0
  1 25  1  0  0  0
  1 30  2  0  0  0
  1 86  1  0  0  0
  2  3  1  0  0  0
  2 25  1  0  0  0
  2 88  1  0  0  0
  2 89  1  0  0  0
  3  4  1  0  0  0
  3 90  1  0  0  0
  3 91  1  0  0  0
  4  5  1  0  0  0
  4 92  1  0  0  0
  4 93  1  0  0  0
  5  6  1  0  0  0
  5 26  1  0  0  0
  5 94  1  0  0  0
  6 25  1  0  0  0
  6 95  1  0  0  0
  6 96  1  0  0  0
  7  8  2  0  0  0
  7 26  1  0  0  0
  7 29  1  0  0  0
  8  9  1  0  0  0
  8 22  1  0  0  0
  9 10  1  0  0  0
  9 27  2  0  0  0
 10 11  2  0  0  0
 10 15  1  0  0  0
 11 12  1  0  0  0
 11 97  1  0  0  0
 12 13  2  0  0  0
 12 98  1  0  0  0
 13 14  1  0  0  0
 13 31  1  0  0  0
 14 15  2  0  0  0
 14 99  1  0  0  0
 15100  1  0  0  0
 16 17  2  0  0  0
 16 21  1  0  0  0
 16 31  1  0  0  0
 17 18  1  0  0  0
 17101  1  0  0  0
 18 19  2  0  0  0
 18102  1  0  0  0
 19 20  1  0  0  0
 19 24  1  0  0  0
 20 21  2  0  0  0
 20103  1  0  0  0
 21 23  1  0  0  0
 22 28  1  0  0  0
 22 32  2  0  0  0
 26 27  1  0  0  0
 28104  1  0  0  0
 28105  1  0  0  0
 29106  1  0  0  0
 29107  1  0  0  0
 33 34  1  0  0  0
 33 66  1  0  0  0
 33 70  2  0  0  0
 34 36  1  0  0  0
 34 59  1  0  0  0
 34108  1  0  0  0
 35 44  2  0  0  0
 35 45  1  0  0  0
 35 68  1  0  0  0
 36 56  1  0  0  0
 36109  1  0  0  0
 37 39  1  0  0  0
 37 47  1  0  0  0
 37 66  1  0  0  0
 37110  1  0  0  0
 38 43  2  0  0  0
 38 46  1  0  0  0
 38 47  1  0  0  0
 39 64  1  0  0  0
 39 67  2  0  0  0
 40 52  1  0  0  0
 40 53  2  0  0  0
 40 58  1  0  0  0
 41111  1  0  0  0
 41112  1  0  0  0
 41113  1  0  0  0
 41 48  1  0  0  0
 42 43  1  0  0  0
 42 66  1  0  0  0
 42114  1  0  0  0
 42115  1  0  0  0
 43 44  1  0  0  0
 44116  1  0  0  0
 45 46  2  0  0  0
 45117  1  0  0  0
 46118  1  0  0  0
 47119  1  0  0  0
 47120  1  0  0  0
 48 56  1  0  0  0
 48 65  1  0  0  0
 48121  1  0  0  0
 49 50  1  0  0  0
 49 53  1  0  0  0
 49 64  1  0  0  0
 49122  1  0  0  0
 50 51  1  0  0  0
 50123  1  0  0  0
 50124  1  0  0  0
 51 52  1  0  0  0
 51125  1  0  0  0
 51126  1  0  0  0
 52127  1  0  0  0
 52128  1  0  0  0
 53 54  1  0  0  0
 54 55  2  0  0  0
 54129  1  0  0  0
 55 57  1  0  0  0
 55130  1  0  0  0
 56 69  2  0  0  0
 57 58  2  0  0  0
 57131  1  0  0  0
 58132  1  0  0  0
 59 60  1  0  0  0
 59 61  1  0  0  0
 59 62  1  0  0  0
 60133  1  0  0  0
 60134  1  0  0  0
 60135  1  0  0  0
 61136  1  0  0  0
 61137  1  0  0  0
 61138  1  0  0  0
 62139  1  0  0  0
 62140  1  0  0  0
 62141  1  0  0  0
 63 65  1  0  0  0
 63142  1  0  0  0
 63143  1  0  0  0
 63144  1  0  0  0
 64145  1  0  0  0
 65146  1  0  0  0
 68 83  1  0  0  0
 71 74  2  0  0  0
 71 75  1  0  0  0
 71147  1  0  0  0
 72 73  2  0  0  0
 72 74  1  0  0  0
 72 80  1  0  0  0
 73 76  1  0  0  0
 73 77  1  0  0  0
 74 83  1  0  0  0
 75 76  2  0  0  0
 75 81  1  0  0  0
 76 87  1  0  0  0
 77 78  1  0  0  0
 77148  1  0  0  0
 77149  1  0  0  0
 78 79  1  0  0  0
 78150  1  0  0  0
 78151  1  0  0  0
 79 80  1  0  0  0
 79152  1  0  0  0
 79153  1  0  0  0
 80 82  1  0  0  0
 80154  1  0  0  0
 81155  1  0  0  0
 81156  1  0  0  0
 81157  1  0  0  0
 82158  1  0  0  0
 82159  1  0  0  0
 82160  1  0  0  0
 83161  1  0  0  0
 83162  1  0  0  0
 84 85  1  0  0  0
 84 86  1  0  0  0
 84163  1  0  0  0
 84164  1  0  0  0
 85 87  1  0  0  0
 85165  1  0  0  0
 85166  1  0  0  0
 86167  1  0  0  0
M  ISO  4   1 100  68 101  83 101  86 100
M  END
> <chiral flag>
0

> <version>
0

> <s_m_source_file>
/data/baiqing/PycharmProjects/Reinvent-master-3.2/result/LINK_invent/BTK/process_docking_weight1_custom_sum_contain_oxygen_bond_distance_aromatic_linkinvent_7_9_3/rearranged_h_0154.sdf

> <i_m_source_file_index>
49

> <r_mmod_Potential_Energy-OPLS-2005>
88.3272399902344

> <r_mmod_Stretch_Energy-OPLS-2005>
90.93798828125

> <r_mmod_Bend_Energy-OPLS-2005>
171.898498535156

> <r_mmod_Torsional_Energy-OPLS-2005>
251.918930053711

> <r_mmod_Improper_Torsional_Energy-OPLS-2005>
6.42842531204224

> <r_mmod_Van_der_Waal_Energy-OPLS-2005>
155.05256652832

> <r_mmod_Electrostatic_Energy-OPLS-2005>
-431.272277832031

> <r_mmod_Solvation_Energy-OPLS-2005>
-209.58447265625

> <b_mmod_Minimization_Converged-OPLS-2005>
0

> <r_mmod_RMS_Derivative-OPLS-2005>
0.948163688182831

$$$$
50
                    3D
 Structure written by MMmdl.
180190  0  0  1  0            999 V2000
  -30.7316  -14.4926   20.3717 C   0  0  0  0  0  0
  -30.3977  -12.2656   19.4218 C   0  0  0  0  0  0
  -29.4692  -12.3828   18.1961 C   0  0  0  0  0  0
  -27.9942  -12.2747   18.6241 C   0  0  0  0  0  0
  -27.6336  -13.1769   19.8334 C   0  0  2  0  0  0
  -28.6976  -13.1068   20.9537 C   0  0  0  0  0  0
  -25.2521  -13.8110   20.5677 C   0  0  0  0  0  0
  -24.1754  -13.0435   20.9209 C   0  0  0  0  0  0
  -24.6276  -11.6893   20.8797 C   0  0  0  0  0  0
  -23.8947  -10.4305   21.0450 C   0  0  0  0  0  0
  -24.3547   -9.4230   21.9206 C   0  0  0  0  0  0
  -23.6255   -8.2256   22.0775 C   0  0  0  0  0  0
  -22.4231   -8.0288   21.3562 C   0  0  0  0  0  0
  -21.9832   -9.0250   20.4664 C   0  0  0  0  0  0
  -22.7135  -10.2143   20.3077 C   0  0  0  0  0  0
  -21.6853   -6.0708   22.5266 C   0  0  0  0  0  0
  -21.4018   -6.5622   23.8198 C   0  0  0  0  0  0
  -21.3652   -5.6779   24.9164 C   0  0  0  0  0  0
  -21.6034   -4.3038   24.7218 C   0  0  0  0  0  0
  -21.8824   -3.8120   23.4343 C   0  0  0  0  0  0
  -21.9194   -4.6933   22.3391 C   0  0  0  0  0  0
  -22.7789  -13.5288   21.1826 C   0  0  0  0  0  0
  -22.1672   -4.2117   21.0972 F   0  0  0  0  0  0
  -21.5616   -3.4533   25.7741 F   0  0  0  0  0  0
  -30.0133  -13.3377   20.3456 N   0  0  0  0  0  0
  -26.2880  -12.9196   20.3280 N   0  0  0  0  0  0
  -25.9179  -11.6406   20.5804 N   0  0  0  0  0  0
  -22.0388  -12.8346   22.0394 N   0  0  0  0  0  0
  -25.4255  -15.1827   20.4073 N   0  0  0  0  0  0
  -31.9602  -14.4840   20.3768 O   0  0  0  0  0  0
  -21.6645   -6.8847   21.4224 O   0  0  0  0  0  0
  -22.3518  -14.5591   20.6632 O   0  0  0  0  0  0
  -24.6121  -31.8696   23.2104 C   0  0  0  0  0  0
  -25.9019  -32.4833   23.8389 C   0  0  1  0  0  0
  -27.2313  -27.4550   20.0967 C   0  0  0  0  0  0
  -25.5879  -33.8630   24.2327 N   0  0  0  0  0  0
  -23.3976  -30.4893   21.5536 C   0  0  2  0  0  0
  -24.8428  -28.9516   20.1214 C   0  0  0  0  0  0
  -22.7386  -29.4654   22.5041 C   0  0  0  0  0  0
  -18.0265  -28.1377   22.8498 C   0  0  0  0  0  0
  -24.1486  -36.7315   23.2633 C   0  0  0  0  0  0
  -25.9214  -30.8424   21.3564 C   0  0  0  0  0  0
  -26.0006  -29.4748   20.7110 C   0  0  0  0  0  0
  -27.2012  -28.7335   20.6924 C   0  0  0  0  0  0
  -26.0586  -26.9300   19.5161 C   0  0  0  0  0  0
  -24.8649  -27.6777   19.5235 C   0  0  0  0  0  0
  -23.6023  -29.8139   20.1698 C   0  0  0  0  0  0
  -25.4098  -36.3121   24.0344 C   0  0  1  0  0  0
  -20.5857  -28.3647   23.1354 C   0  0  2  0  0  0
  -20.6767  -26.9391   22.5432 C   0  0  0  0  0  0
  -19.5740  -26.6389   21.5226 C   0  0  0  0  0  0
  -18.1915  -26.7931   22.1634 C   0  0  0  0  0  0
  -19.1517  -28.8827   23.2927 C   0  0  0  0  0  0
  -18.9449  -30.1443   23.8926 C   0  0  0  0  0  0
  -17.6450  -30.6587   24.0570 C   0  0  0  0  0  0
  -25.9021  -34.9487   23.5136 C   0  0  0  0  0  0
  -16.5341  -29.9086   23.6330 C   0  0  0  0  0  0
  -16.7254  -28.6504   23.0346 C   0  0  0  0  0  0
  -26.4453  -31.6607   25.0710 C   0  0  0  0  0  0
  -25.3732  -31.3731   26.1481 C   0  0  0  0  0  0
  -27.0254  -30.3047   24.6052 C   0  0  0  0  0  0
  -27.6064  -32.4298   25.7442 C   0  0  0  0  0  0
  -27.5584  -37.1805   24.8451 C   0  0  0  0  0  0
  -21.4123  -29.3013   22.3764 N   0  0  0  0  0  0
  -26.4279  -37.3801   23.9420 N   0  0  0  0  0  0
  -24.6623  -31.0808   22.0998 N   0  0  0  0  0  0
  -23.4172  -28.8211   23.3082 O   0  0  0  0  0  0
  -28.4128  -26.7615   20.0474 O   0  0  0  0  0  0
  -26.5593  -34.8934   22.4705 O   0  0  0  0  0  0
  -23.5330  -32.1437   23.7528 O   0  0  0  0  0  0
  -28.8098  -20.0788   20.7354 C   0  0  0  0  0  0
  -28.4597  -18.7492   20.4336 C   0  0  0  0  0  0
  -30.7571  -18.0613   20.7718 C   0  0  0  0  0  0
  -30.1506  -20.4326   21.0163 C   0  0  0  0  0  0
  -29.4382  -17.7360   20.3809 C   0  0  0  0  0  0
  -31.1226  -19.3892   21.0790 C   0  0  0  0  0  0
  -30.5230  -21.8928   21.1464 C   0  0  0  0  0  0
  -29.8511  -16.6447   17.5197 C   0  0  0  0  0  0
  -28.5663  -16.5547   18.3445 C   0  0  0  0  0  0
  -32.0905  -26.5175   21.5201 C   0  0  0  0  0  0
  -31.2228  -27.3689   20.6199 C   0  0  0  0  0  0
  -30.8696  -15.8355   18.3226 C   0  0  0  0  0  0
  -29.0648  -16.3619   19.7955 C   0  0  1  0  0  0
  -30.5846  -26.4166   21.6055 C   0  0  0  0  0  0
  -32.5871  -19.6375   21.4181 C   0  0  0  0  0  0
  -29.3808  -23.2828   24.6461 C   0  0  0  0  0  0
  -29.1751  -24.3377   23.5486 C   0  0  0  0  0  0
  -28.4198  -25.4657   20.6490 C   0  0  0  0  0  0
  -29.8533  -25.1521   21.1566 C   0  0  2  0  0  0
  -29.9571  -24.0420   22.2475 C   0  0  2  0  0  0
  -30.1926  -15.4461   19.5711 N   0  0  0  0  0  0
  -29.6369  -22.6973   21.7559 N   0  0  0  0  0  0
  -31.6135  -22.3068   20.7476 O   0  0  0  0  0  0
  -31.4430  -12.3271   19.1134 H   0  0  0  0  0  0
  -30.2764  -11.2899   19.8986 H   0  0  0  0  0  0
  -29.7005  -11.5871   17.4859 H   0  0  0  0  0  0
  -29.6317  -13.3191   17.6619 H   0  0  0  0  0  0
  -27.8078  -11.2299   18.8734 H   0  0  0  0  0  0
  -27.3399  -12.4992   17.7812 H   0  0  0  0  0  0
  -27.6101  -14.1743   19.4278 H   0  0  0  0  0  0
  -28.6756  -12.1319   21.4416 H   0  0  0  0  0  0
  -28.4899  -13.8484   21.7273 H   0  0  0  0  0  0
  -25.2703   -9.5736   22.4756 H   0  0  0  0  0  0
  -23.9987   -7.4654   22.7484 H   0  0  0  0  0  0
  -21.0764   -8.8734   19.8976 H   0  0  0  0  0  0
  -22.3582  -10.9672   19.6180 H   0  0  0  0  0  0
  -21.2037   -7.6136   23.9694 H   0  0  0  0  0  0
  -21.1451   -6.0516   25.9061 H   0  0  0  0  0  0
  -22.0607   -2.7577   23.2863 H   0  0  0  0  0  0
  -22.3958  -12.0052   22.4896 H   0  0  0  0  0  0
  -21.0993  -13.1400   22.2500 H   0  0  0  0  0  0
  -24.6551  -15.8328   20.5197 H   0  0  0  0  0  0
  -26.2784  -15.6309   20.1046 H   0  0  0  0  0  0
  -26.7091  -32.5560   23.1165 H   0  0  0  0  0  0
  -25.0035  -33.9789   25.0478 H   0  0  0  0  0  0
  -22.6850  -31.3059   21.4140 H   0  0  0  0  0  0
  -23.3751  -35.9643   23.3289 H   0  0  0  0  0  0
  -24.3589  -36.8937   22.2051 H   0  0  0  0  0  0
  -23.7229  -37.6513   23.6654 H   0  0  0  0  0  0
  -26.0216  -31.6035   20.5825 H   0  0  0  0  0  0
  -26.8137  -30.9064   21.9658 H   0  0  0  0  0  0
  -28.1017  -29.1338   21.1385 H   0  0  0  0  0  0
  -26.0717  -25.9573   19.0455 H   0  0  0  0  0  0
  -23.9728  -27.2683   19.0684 H   0  0  0  0  0  0
  -23.7001  -30.5825   19.4026 H   0  0  0  0  0  0
  -22.7266  -29.2282   19.8857 H   0  0  0  0  0  0
  -25.1262  -36.1994   25.0827 H   0  0  0  0  0  0
  -20.9938  -28.3209   24.1486 H   0  0  0  0  0  0
  -20.5691  -26.2240   23.3605 H   0  0  0  0  0  0
  -21.6643  -26.7470   22.1220 H   0  0  0  0  0  0
  -19.6906  -25.6310   21.1232 H   0  0  0  0  0  0
  -19.6676  -27.3217   20.6773 H   0  0  0  0  0  0
  -17.4192  -26.6699   21.4025 H   0  0  0  0  0  0
  -18.0289  -26.0061   22.9009 H   0  0  0  0  0  0
  -19.7917  -30.7257   24.2308 H   0  0  0  0  0  0
  -17.5000  -31.6271   24.5160 H   0  0  0  0  0  0
  -15.5345  -30.2997   23.7632 H   0  0  0  0  0  0
  -15.8658  -28.0830   22.7053 H   0  0  0  0  0  0
  -24.5849  -30.7141   25.7818 H   0  0  0  0  0  0
  -24.8992  -32.2909   26.4973 H   0  0  0  0  0  0
  -25.8080  -30.8846   27.0211 H   0  0  0  0  0  0
  -26.2770  -29.6834   24.1117 H   0  0  0  0  0  0
  -27.4043  -29.7259   25.4484 H   0  0  0  0  0  0
  -27.8597  -30.4362   23.9160 H   0  0  0  0  0  0
  -27.2726  -33.3604   26.2038 H   0  0  0  0  0  0
  -28.3846  -32.6840   25.0234 H   0  0  0  0  0  0
  -28.0750  -31.8401   26.5334 H   0  0  0  0  0  0
  -28.2600  -38.0110   24.7548 H   0  0  0  0  0  0
  -28.1097  -36.2661   24.6210 H   0  0  0  0  0  0
  -27.2331  -37.1371   25.8858 H   0  0  0  0  0  0
  -20.9287  -29.8703   21.6964 H   0  0  0  0  0  0
  -26.0186  -38.2877   24.1443 H   0  0  0  0  0  0
  -28.0423  -20.8376   20.6868 H   0  0  0  0  0  0
  -27.4362  -18.5269   20.1613 H   0  0  0  0  0  0
  -31.5267  -17.3041   20.7763 H   0  0  0  0  0  0
  -30.1829  -17.6808   17.4479 H   0  0  0  0  0  0
  -29.7284  -16.2701   16.5032 H   0  0  0  0  0  0
  -28.0061  -15.6868   18.0013 H   0  0  0  0  0  0
  -27.9080  -17.4085   18.1915 H   0  0  0  0  0  0
  -32.6035  -27.0082   22.3438 H   0  0  0  0  0  0
  -32.6272  -25.6887   21.0611 H   0  0  0  0  0  0
  -31.1619  -27.1061   19.5656 H   0  0  0  0  0  0
  -31.1357  -28.4304   20.8407 H   0  0  0  0  0  0
  -31.7585  -16.4292   18.5385 H   0  0  0  0  0  0
  -31.2054  -14.9579   17.7681 H   0  0  0  0  0  0
  -28.3051  -15.9257   20.4423 H   0  0  0  0  0  0
  -30.1261  -26.9013   22.4652 H   0  0  0  0  0  0
  -33.0803  -18.7218   21.7480 H   0  0  0  0  0  0
  -32.6953  -20.3684   22.2182 H   0  0  0  0  0  0
  -33.1204  -19.9979   20.5383 H   0  0  0  0  0  0
  -28.9268  -23.6140   25.5802 H   0  0  0  0  0  0
  -30.4400  -23.0997   24.8349 H   0  0  0  0  0  0
  -28.9175  -22.3342   24.3766 H   0  0  0  0  0  0
  -29.4870  -25.3031   23.9477 H   0  0  0  0  0  0
  -28.1077  -24.4255   23.3514 H   0  0  0  0  0  0
  -27.7071  -25.4524   21.4721 H   0  0  0  0  0  0
  -28.0928  -24.7105   19.9333 H   0  0  0  0  0  0
  -30.4048  -24.7970   20.2839 H   0  0  0  0  0  0
  -31.0083  -24.0143   22.5455 H   0  0  0  0  0  0
  -28.7619  -22.2865   22.0467 H   0  0  0  0  0  0
  1 25  1  0  0  0
  1 30  2  0  0  0
  1 91  1  0  0  0
  2  3  1  0  0  0
  2 25  1  0  0  0
  2 94  1  0  0  0
  2 95  1  0  0  0
  3  4  1  0  0  0
  3 96  1  0  0  0
  3 97  1  0  0  0
  4  5  1  0  0  0
  4 98  1  0  0  0
  4 99  1  0  0  0
  5  6  1  0  0  0
  5 26  1  0  0  0
  5100  1  0  0  0
  6 25  1  0  0  0
  6101  1  0  0  0
  6102  1  0  0  0
  7  8  2  0  0  0
  7 26  1  0  0  0
  7 29  1  0  0  0
  8  9  1  0  0  0
  8 22  1  0  0  0
  9 10  1  0  0  0
  9 27  2  0  0  0
 10 11  2  0  0  0
 10 15  1  0  0  0
 11 12  1  0  0  0
 11103  1  0  0  0
 12 13  2  0  0  0
 12104  1  0  0  0
 13 14  1  0  0  0
 13 31  1  0  0  0
 14 15  2  0  0  0
 14105  1  0  0  0
 15106  1  0  0  0
 16 17  2  0  0  0
 16 21  1  0  0  0
 16 31  1  0  0  0
 17 18  1  0  0  0
 17107  1  0  0  0
 18 19  2  0  0  0
 18108  1  0  0  0
 19 20  1  0  0  0
 19 24  1  0  0  0
 20 21  2  0  0  0
 20109  1  0  0  0
 21 23  1  0  0  0
 22 28  1  0  0  0
 22 32  2  0  0  0
 26 27  1  0  0  0
 28110  1  0  0  0
 28111  1  0  0  0
 29112  1  0  0  0
 29113  1  0  0  0
 33 34  1  0  0  0
 33 66  1  0  0  0
 33 70  2  0  0  0
 34 36  1  0  0  0
 34 59  1  0  0  0
 34114  1  0  0  0
 35 44  2  0  0  0
 35 45  1  0  0  0
 35 68  1  0  0  0
 36 56  1  0  0  0
 36115  1  0  0  0
 37 39  1  0  0  0
 37 47  1  0  0  0
 37 66  1  0  0  0
 37116  1  0  0  0
 38 43  2  0  0  0
 38 46  1  0  0  0
 38 47  1  0  0  0
 39 64  1  0  0  0
 39 67  2  0  0  0
 40 52  1  0  0  0
 40 53  2  0  0  0
 40 58  1  0  0  0
 41117  1  0  0  0
 41118  1  0  0  0
 41119  1  0  0  0
 41 48  1  0  0  0
 42 43  1  0  0  0
 42 66  1  0  0  0
 42120  1  0  0  0
 42121  1  0  0  0
 43 44  1  0  0  0
 44122  1  0  0  0
 45 46  2  0  0  0
 45123  1  0  0  0
 46124  1  0  0  0
 47125  1  0  0  0
 47126  1  0  0  0
 48 56  1  0  0  0
 48 65  1  0  0  0
 48127  1  0  0  0
 49 50  1  0  0  0
 49 53  1  0  0  0
 49 64  1  0  0  0
 49128  1  0  0  0
 50 51  1  0  0  0
 50129  1  0  0  0
 50130  1  0  0  0
 51 52  1  0  0  0
 51131  1  0  0  0
 51132  1  0  0  0
 52133  1  0  0  0
 52134  1  0  0  0
 53 54  1  0  0  0
 54 55  2  0  0  0
 54135  1  0  0  0
 55 57  1  0  0  0
 55136  1  0  0  0
 56 69  2  0  0  0
 57 58  2  0  0  0
 57137  1  0  0  0
 58138  1  0  0  0
 59 60  1  0  0  0
 59 61  1  0  0  0
 59 62  1  0  0  0
 60139  1  0  0  0
 60140  1  0  0  0
 60141  1  0  0  0
 61142  1  0  0  0
 61143  1  0  0  0
 61144  1  0  0  0
 62145  1  0  0  0
 62146  1  0  0  0
 62147  1  0  0  0
 63 65  1  0  0  0
 63148  1  0  0  0
 63149  1  0  0  0
 63150  1  0  0  0
 64151  1  0  0  0
 65152  1  0  0  0
 68 88  1  0  0  0
 71 72  2  0  0  0
 71 74  1  0  0  0
 71153  1  0  0  0
 72 75  1  0  0  0
 72154  1  0  0  0
 73 75  2  0  0  0
 73 76  1  0  0  0
 73155  1  0  0  0
 74 76  2  0  0  0
 74 77  1  0  0  0
 75 83  1  0  0  0
 76 85  1  0  0  0
 77 92  1  0  0  0
 77 93  2  0  0  0
 78 79  1  0  0  0
 78 82  1  0  0  0
 78156  1  0  0  0
 78157  1  0  0  0
 79 83  1  0  0  0
 79158  1  0  0  0
 79159  1  0  0  0
 80 81  1  0  0  0
 80160  1  0  0  0
 80161  1  0  0  0
 80 84  1  0  0  0
 81 84  1  0  0  0
 81162  1  0  0  0
 81163  1  0  0  0
 82 91  1  0  0  0
 82164  1  0  0  0
 82165  1  0  0  0
 83 91  1  0  0  0
 83166  1  0  0  0
 84 89  1  0  0  0
 84167  1  0  0  0
 85168  1  0  0  0
 85169  1  0  0  0
 85170  1  0  0  0
 86 87  1  0  0  0
 86171  1  0  0  0
 86172  1  0  0  0
 86173  1  0  0  0
 87174  1  0  0  0
 87175  1  0  0  0
 87 90  1  0  0  0
 88176  1  0  0  0
 88177  1  0  0  0
 88 89  1  0  0  0
 89 90  1  0  0  0
 89178  1  0  0  0
 90 92  1  0  0  0
 90179  1  0  0  0
 92180  1  0  0  0
M  ISO  4   1 100  68 101  88 101  91 100
M  END
> <chiral flag>
0

> <version>
0

> <s_m_source_file>
/data/baiqing/PycharmProjects/Reinvent-master-3.2/result/LINK_invent/BTK/process_docking_weight1_custom_sum_contain_oxygen_bond_distance_aromatic_linkinvent_7_9_3/rearranged_h_0154.sdf

> <i_m_source_file_index>
50

> <r_mmod_Potential_Energy-OPLS-2005>
349.215881347656

> <r_mmod_Stretch_Energy-OPLS-2005>
39.2080192565918

> <r_mmod_Bend_Energy-OPLS-2005>
142.007400512695

> <r_mmod_Torsional_Energy-OPLS-2005>
444.349761962891

> <r_mmod_Improper_Torsional_Energy-OPLS-2005>
35.4386253356934

> <r_mmod_Van_der_Waal_Energy-OPLS-2005>
149.399429321289

> <r_mmod_Electrostatic_Energy-OPLS-2005>
-304.969604492188

> <r_mmod_Solvation_Energy-OPLS-2005>
-200.820571899414

> <b_mmod_Minimization_Converged-OPLS-2005>
0

> <r_mmod_RMS_Derivative-OPLS-2005>
3.69964694976807

$$$$
51
                    3D
 Structure written by MMmdl.
170179  0  0  1  0            999 V2000
  -30.6747  -14.6813   20.4530 C   0  0  0  0  0  0
  -30.4263  -12.4117   19.4772 C   0  0  0  0  0  0
  -29.5185  -12.5025   18.2360 C   0  0  0  0  0  0
  -28.0434  -12.3291   18.6443 C   0  0  0  0  0  0
  -27.6475  -13.2318   19.8464 C   0  0  2  0  0  0
  -28.6899  -13.1751   20.9821 C   0  0  0  0  0  0
  -25.2591  -13.8217   20.5701 C   0  0  0  0  0  0
  -24.1855  -13.0444   20.9137 C   0  0  0  0  0  0
  -24.6441  -11.6928   20.8669 C   0  0  0  0  0  0
  -23.9106  -10.4297   21.0362 C   0  0  0  0  0  0
  -24.3662   -9.4222   21.9150 C   0  0  0  0  0  0
  -23.6326   -8.2264   22.0747 C   0  0  0  0  0  0
  -22.4301   -8.0296   21.3544 C   0  0  0  0  0  0
  -21.9934   -9.0266   20.4636 C   0  0  0  0  0  0
  -22.7272  -10.2139   20.3022 C   0  0  0  0  0  0
  -21.6855   -6.0750   22.5284 C   0  0  0  0  0  0
  -21.4018   -6.5654   23.8216 C   0  0  0  0  0  0
  -21.3652   -5.6806   24.9174 C   0  0  0  0  0  0
  -21.6042   -4.3064   24.7227 C   0  0  0  0  0  0
  -21.8822   -3.8164   23.4343 C   0  0  0  0  0  0
  -21.9207   -4.6981   22.3402 C   0  0  0  0  0  0
  -22.7878  -13.5215   21.1842 C   0  0  0  0  0  0
  -22.1665   -4.2168   21.0975 F   0  0  0  0  0  0
  -21.5629   -3.4541   25.7728 F   0  0  0  0  0  0
  -29.9932  -13.4912   20.3894 N   0  0  0  0  0  0
  -26.3000  -12.9411   20.3268 N   0  0  0  0  0  0
  -25.9374  -11.6543   20.5685 N   0  0  0  0  0  0
  -22.0590  -12.8143   22.0407 N   0  0  0  0  0  0
  -25.4372  -15.1927   20.4252 N   0  0  0  0  0  0
  -31.8817  -14.6978   20.1930 O   0  0  0  0  0  0
  -21.6655   -6.8900   21.4245 O   0  0  0  0  0  0
  -22.3524  -14.5534   20.6743 O   0  0  0  0  0  0
  -24.6337  -31.8528   23.1916 C   0  0  0  0  0  0
  -25.9175  -32.4743   23.8248 C   0  0  1  0  0  0
  -27.1673  -27.2404   20.1157 C   0  0  0  0  0  0
  -25.6017  -33.8540   24.2182 N   0  0  0  0  0  0
  -23.4264  -30.4796   21.5396 C   0  0  2  0  0  0
  -24.8584  -28.9251   20.1006 C   0  0  0  0  0  0
  -22.7480  -29.4595   22.4899 C   0  0  0  0  0  0
  -18.0291  -28.1349   22.8463 C   0  0  0  0  0  0
  -24.1503  -36.7252   23.2636 C   0  0  0  0  0  0
  -25.9728  -30.7546   21.3760 C   0  0  0  0  0  0
  -26.0348  -29.3787   20.7131 C   0  0  0  0  0  0
  -27.2029  -28.5488   20.7051 C   0  0  0  0  0  0
  -25.9798  -26.8585   19.4657 C   0  0  0  0  0  0
  -24.8383  -27.6785   19.4572 C   0  0  0  0  0  0
  -23.6349  -29.8164   20.1541 C   0  0  0  0  0  0
  -25.4139  -36.3046   24.0295 C   0  0  1  0  0  0
  -20.5896  -28.3680   23.1222 C   0  0  2  0  0  0
  -20.6776  -26.9399   22.5365 C   0  0  0  0  0  0
  -19.5774  -26.6355   21.5168 C   0  0  0  0  0  0
  -18.1962  -26.7883   22.1590 C   0  0  0  0  0  0
  -19.1548  -28.8830   23.2843 C   0  0  0  0  0  0
  -18.9478  -30.1438   23.8863 C   0  0  0  0  0  0
  -17.6490  -30.6568   24.0557 C   0  0  0  0  0  0
  -25.9094  -34.9442   23.5024 C   0  0  0  0  0  0
  -16.5373  -29.9053   23.6365 C   0  0  0  0  0  0
  -16.7280  -28.6470   23.0367 C   0  0  0  0  0  0
  -26.4508  -31.6577   25.0670 C   0  0  0  0  0  0
  -25.3681  -31.3726   26.1361 C   0  0  0  0  0  0
  -27.0390  -30.3001   24.6187 C   0  0  0  0  0  0
  -27.6070  -32.4314   25.7450 C   0  0  0  0  0  0
  -27.5564  -37.1783   24.8471 C   0  0  0  0  0  0
  -21.4204  -29.3047   22.3624 N   0  0  0  0  0  0
  -26.4293  -37.3770   23.9409 N   0  0  0  0  0  0
  -24.6974  -31.0478   22.0910 N   0  0  0  0  0  0
  -23.4173  -28.8130   23.3004 O   0  0  0  0  0  0
  -28.2165  -26.3031   20.1502 O   0  0  0  0  0  0
  -26.5676  -34.8930   22.4595 O   0  0  0  0  0  0
  -23.5498  -32.1358   23.7231 O   0  0  0  0  0  0
  -26.5991  -18.8631   19.2491 C   0  0  0  0  0  0
  -25.9624  -21.5374   19.5606 C   0  0  0  0  0  0
  -27.5998  -19.7130   19.7900 C   0  0  0  0  0  0
  -25.3292  -19.2991   18.8607 C   0  0  0  0  0  0
  -24.9798  -20.6403   19.0856 C   0  0  0  0  0  0
  -27.3022  -21.1546   19.8666 C   0  0  0  0  0  0
  -28.5453  -17.7992   21.3207 C   0  0  0  0  0  0
  -29.5057  -18.0726   19.0283 C   0  0  0  0  0  0
  -29.5981  -16.6538   21.5661 C   0  0  0  0  0  0
  -30.4723  -16.8930   19.3920 C   0  0  0  0  0  0
  -28.8746  -18.8801   20.2191 C   0  0  0  0  0  0
  -24.3791  -18.3048   18.2087 C   0  0  0  0  0  0
  -23.5532  -21.1115   18.8410 C   0  0  0  0  0  0
  -29.4295  -23.6425   18.8818 C   0  0  0  0  0  0
  -27.8930  -24.8916   20.5808 C   0  0  0  0  0  0
  -28.1065  -23.5753   19.6517 C   0  0  2  0  0  0
  -29.9632  -15.8749   20.3584 N   0  0  0  0  0  0
  -28.1663  -22.2050   20.2754 O   0  0  0  0  0  0
  -31.4753  -12.4988   19.1903 H   0  0  0  0  0  0
  -30.3348  -11.4368   19.9636 H   0  0  0  0  0  0
  -29.8027  -11.7472   17.5033 H   0  0  0  0  0  0
  -29.6553  -13.4715   17.7531 H   0  0  0  0  0  0
  -27.8986  -11.2794   18.9039 H   0  0  0  0  0  0
  -27.3923  -12.5266   17.7909 H   0  0  0  0  0  0
  -27.6421  -14.2515   19.4604 H   0  0  0  0  0  0
  -28.7136  -12.1912   21.4525 H   0  0  0  0  0  0
  -28.4347  -13.8853   21.7683 H   0  0  0  0  0  0
  -25.2831   -9.5682   22.4695 H   0  0  0  0  0  0
  -24.0036   -7.4651   22.7465 H   0  0  0  0  0  0
  -21.0866   -8.8773   19.8934 H   0  0  0  0  0  0
  -22.3740  -10.9662   19.6103 H   0  0  0  0  0  0
  -21.1996   -7.6157   23.9715 H   0  0  0  0  0  0
  -21.1467   -6.0535   25.9074 H   0  0  0  0  0  0
  -22.0610   -2.7629   23.2838 H   0  0  0  0  0  0
  -22.4248  -11.9717   22.4600 H   0  0  0  0  0  0
  -21.1235  -13.1147   22.2761 H   0  0  0  0  0  0
  -24.6902  -15.8620   20.5696 H   0  0  0  0  0  0
  -26.3260  -15.6256   20.2142 H   0  0  0  0  0  0
  -26.7223  -32.5343   23.0960 H   0  0  0  0  0  0
  -25.0271  -33.9699   25.0407 H   0  0  0  0  0  0
  -22.7295  -31.3073   21.3974 H   0  0  0  0  0  0
  -23.3794  -35.9568   23.3307 H   0  0  0  0  0  0
  -24.3556  -36.8876   22.2040 H   0  0  0  0  0  0
  -23.7234  -37.6428   23.6671 H   0  0  0  0  0  0
  -26.1273  -31.5148   20.6071 H   0  0  0  0  0  0
  -26.8446  -30.7845   22.0168 H   0  0  0  0  0  0
  -28.1046  -28.8843   21.1957 H   0  0  0  0  0  0
  -25.9162  -25.8952   18.9767 H   0  0  0  0  0  0
  -23.9428  -27.3328   18.9583 H   0  0  0  0  0  0
  -23.7581  -30.5924   19.3985 H   0  0  0  0  0  0
  -22.7483  -29.2525   19.8585 H   0  0  0  0  0  0
  -25.1326  -36.1850   25.0785 H   0  0  0  0  0  0
  -21.0016  -28.3257   24.1325 H   0  0  0  0  0  0
  -20.5659  -26.2304   23.3567 H   0  0  0  0  0  0
  -21.6643  -26.7399   22.1187 H   0  0  0  0  0  0
  -19.6975  -25.6262   21.1216 H   0  0  0  0  0  0
  -19.6718  -27.3152   20.6683 H   0  0  0  0  0  0
  -17.4217  -26.6627   21.3993 H   0  0  0  0  0  0
  -18.0401  -25.9972   22.8935 H   0  0  0  0  0  0
  -19.7966  -30.7263   24.2187 H   0  0  0  0  0  0
  -17.5055  -31.6267   24.5121 H   0  0  0  0  0  0
  -15.5385  -30.2976   23.7677 H   0  0  0  0  0  0
  -15.8666  -28.0803   22.7096 H   0  0  0  0  0  0
  -24.5907  -30.7056   25.7608 H   0  0  0  0  0  0
  -24.8842  -32.2893   26.4714 H   0  0  0  0  0  0
  -25.7940  -30.8894   27.0172 H   0  0  0  0  0  0
  -26.2959  -29.6707   24.1288 H   0  0  0  0  0  0
  -27.4149  -29.7317   25.4707 H   0  0  0  0  0  0
  -27.8796  -30.4276   23.9378 H   0  0  0  0  0  0
  -27.2697  -33.3653   26.1953 H   0  0  0  0  0  0
  -28.3889  -32.6804   25.0265 H   0  0  0  0  0  0
  -28.0725  -31.8474   26.5394 H   0  0  0  0  0  0
  -28.2599  -38.0074   24.7543 H   0  0  0  0  0  0
  -28.1049  -36.2606   24.6274 H   0  0  0  0  0  0
  -27.2286  -37.1378   25.8882 H   0  0  0  0  0  0
  -20.9390  -29.8773   21.6838 H   0  0  0  0  0  0
  -26.0160  -38.2848   24.1408 H   0  0  0  0  0  0
  -26.7969  -17.8071   19.1281 H   0  0  0  0  0  0
  -25.6554  -22.5631   19.7046 H   0  0  0  0  0  0
  -28.3487  -18.3095   22.2643 H   0  0  0  0  0  0
  -27.6097  -17.2936   21.0815 H   0  0  0  0  0  0
  -28.7388  -17.6306   18.3979 H   0  0  0  0  0  0
  -30.0249  -18.7678   18.3682 H   0  0  0  0  0  0
  -29.2291  -15.9803   22.3421 H   0  0  0  0  0  0
  -30.5082  -17.0996   21.9742 H   0  0  0  0  0  0
  -31.4077  -17.3073   19.7726 H   0  0  0  0  0  0
  -30.7388  -16.3899   18.4586 H   0  0  0  0  0  0
  -29.6196  -19.5701   20.6171 H   0  0  0  0  0  0
  -24.8037  -17.2981   18.1989 H   0  0  0  0  0  0
  -24.1996  -18.5872   17.1703 H   0  0  0  0  0  0
  -23.4211  -18.2535   18.7251 H   0  0  0  0  0  0
  -23.4495  -22.1857   18.9924 H   0  0  0  0  0  0
  -22.8684  -20.6159   19.5310 H   0  0  0  0  0  0
  -23.2258  -20.8802   17.8259 H   0  0  0  0  0  0
  -29.5206  -24.5721   18.3205 H   0  0  0  0  0  0
  -29.5018  -22.8226   18.1652 H   0  0  0  0  0  0
  -30.2820  -23.5653   19.5571 H   0  0  0  0  0  0
  -28.4880  -24.7366   21.4829 H   0  0  0  0  0  0
  -26.8648  -24.8563   20.9520 H   0  0  0  0  0  0
  -27.3392  -23.6105   18.8794 H   0  0  0  0  0  0
  1 25  1  0  0  0
  1 30  2  0  0  0
  1 87  1  0  0  0
  2  3  1  0  0  0
  2 25  1  0  0  0
  2 89  1  0  0  0
  2 90  1  0  0  0
  3  4  1  0  0  0
  3 91  1  0  0  0
  3 92  1  0  0  0
  4  5  1  0  0  0
  4 93  1  0  0  0
  4 94  1  0  0  0
  5  6  1  0  0  0
  5 26  1  0  0  0
  5 95  1  0  0  0
  6 25  1  0  0  0
  6 96  1  0  0  0
  6 97  1  0  0  0
  7  8  2  0  0  0
  7 26  1  0  0  0
  7 29  1  0  0  0
  8  9  1  0  0  0
  8 22  1  0  0  0
  9 10  1  0  0  0
  9 27  2  0  0  0
 10 11  2  0  0  0
 10 15  1  0  0  0
 11 12  1  0  0  0
 11 98  1  0  0  0
 12 13  2  0  0  0
 12 99  1  0  0  0
 13 14  1  0  0  0
 13 31  1  0  0  0
 14 15  2  0  0  0
 14100  1  0  0  0
 15101  1  0  0  0
 16 17  2  0  0  0
 16 21  1  0  0  0
 16 31  1  0  0  0
 17 18  1  0  0  0
 17102  1  0  0  0
 18 19  2  0  0  0
 18103  1  0  0  0
 19 20  1  0  0  0
 19 24  1  0  0  0
 20 21  2  0  0  0
 20104  1  0  0  0
 21 23  1  0  0  0
 22 28  1  0  0  0
 22 32  2  0  0  0
 26 27  1  0  0  0
 28105  1  0  0  0
 28106  1  0  0  0
 29107  1  0  0  0
 29108  1  0  0  0
 33 34  1  0  0  0
 33 66  1  0  0  0
 33 70  2  0  0  0
 34 36  1  0  0  0
 34 59  1  0  0  0
 34109  1  0  0  0
 35 44  2  0  0  0
 35 45  1  0  0  0
 35 68  1  0  0  0
 36 56  1  0  0  0
 36110  1  0  0  0
 37 39  1  0  0  0
 37 47  1  0  0  0
 37 66  1  0  0  0
 37111  1  0  0  0
 38 43  2  0  0  0
 38 46  1  0  0  0
 38 47  1  0  0  0
 39 64  1  0  0  0
 39 67  2  0  0  0
 40 52  1  0  0  0
 40 53  2  0  0  0
 40 58  1  0  0  0
 41112  1  0  0  0
 41113  1  0  0  0
 41114  1  0  0  0
 41 48  1  0  0  0
 42 43  1  0  0  0
 42 66  1  0  0  0
 42115  1  0  0  0
 42116  1  0  0  0
 43 44  1  0  0  0
 44117  1  0  0  0
 45 46  2  0  0  0
 45118  1  0  0  0
 46119  1  0  0  0
 47120  1  0  0  0
 47121  1  0  0  0
 48 56  1  0  0  0
 48 65  1  0  0  0
 48122  1  0  0  0
 49 50  1  0  0  0
 49 53  1  0  0  0
 49 64  1  0  0  0
 49123  1  0  0  0
 50 51  1  0  0  0
 50124  1  0  0  0
 50125  1  0  0  0
 51 52  1  0  0  0
 51126  1  0  0  0
 51127  1  0  0  0
 52128  1  0  0  0
 52129  1  0  0  0
 53 54  1  0  0  0
 54 55  2  0  0  0
 54130  1  0  0  0
 55 57  1  0  0  0
 55131  1  0  0  0
 56 69  2  0  0  0
 57 58  2  0  0  0
 57132  1  0  0  0
 58133  1  0  0  0
 59 60  1  0  0  0
 59 61  1  0  0  0
 59 62  1  0  0  0
 60134  1  0  0  0
 60135  1  0  0  0
 60136  1  0  0  0
 61137  1  0  0  0
 61138  1  0  0  0
 61139  1  0  0  0
 62140  1  0  0  0
 62141  1  0  0  0
 62142  1  0  0  0
 63 65  1  0  0  0
 63143  1  0  0  0
 63144  1  0  0  0
 63145  1  0  0  0
 64146  1  0  0  0
 65147  1  0  0  0
 68 85  1  0  0  0
 71 73  2  0  0  0
 71 74  1  0  0  0
 71148  1  0  0  0
 72 75  1  0  0  0
 72 76  2  0  0  0
 72149  1  0  0  0
 73 76  1  0  0  0
 73 81  1  0  0  0
 74 75  2  0  0  0
 74 82  1  0  0  0
 75 83  1  0  0  0
 76 88  1  0  0  0
 77 79  1  0  0  0
 77 81  1  0  0  0
 77150  1  0  0  0
 77151  1  0  0  0
 78 80  1  0  0  0
 78 81  1  0  0  0
 78152  1  0  0  0
 78153  1  0  0  0
 79 87  1  0  0  0
 79154  1  0  0  0
 79155  1  0  0  0
 80 87  1  0  0  0
 80156  1  0  0  0
 80157  1  0  0  0
 81158  1  0  0  0
 82159  1  0  0  0
 82160  1  0  0  0
 82161  1  0  0  0
 83162  1  0  0  0
 83163  1  0  0  0
 83164  1  0  0  0
 84165  1  0  0  0
 84166  1  0  0  0
 84167  1  0  0  0
 84 86  1  0  0  0
 85 86  1  0  0  0
 85168  1  0  0  0
 85169  1  0  0  0
 86 88  1  0  0  0
 86170  1  0  0  0
M  ISO  4   1 100  68 101  85 101  87 100
M  END
> <chiral flag>
0

> <version>
0

> <s_m_source_file>
/data/baiqing/PycharmProjects/Reinvent-master-3.2/result/LINK_invent/BTK/process_docking_weight1_custom_sum_contain_oxygen_bond_distance_aromatic_linkinvent_7_9_3/rearranged_h_0154.sdf

> <i_m_source_file_index>
51

> <r_mmod_Potential_Energy-OPLS-2005>
437.131317138672

> <r_mmod_Stretch_Energy-OPLS-2005>
123.019264221191

> <r_mmod_Bend_Energy-OPLS-2005>
204.393096923828

> <r_mmod_Torsional_Energy-OPLS-2005>
349.388092041016

> <r_mmod_Improper_Torsional_Energy-OPLS-2005>
17.9394512176514

> <r_mmod_Van_der_Waal_Energy-OPLS-2005>
148.778381347656

> <r_mmod_Electrostatic_Energy-OPLS-2005>
-306.184692382812

> <r_mmod_Solvation_Energy-OPLS-2005>
-188.158416748047

> <b_mmod_Minimization_Converged-OPLS-2005>
0

> <r_mmod_RMS_Derivative-OPLS-2005>
4.83363771438599

$$$$
52
                    3D
 Structure written by MMmdl.
169178  0  0  1  0            999 V2000
  -30.5966  -14.7715   20.4506 C   0  0  0  0  0  0
  -30.4432  -12.4688   19.4685 C   0  0  0  0  0  0
  -29.5198  -12.5075   18.2311 C   0  0  0  0  0  0
  -28.0432  -12.3303   18.6437 C   0  0  0  0  0  0
  -27.6419  -13.2323   19.8424 C   0  0  2  0  0  0
  -28.6919  -13.1689   20.9724 C   0  0  0  0  0  0
  -25.2527  -13.8207   20.5726 C   0  0  0  0  0  0
  -24.1830  -13.0452   20.9248 C   0  0  0  0  0  0
  -24.6428  -11.6928   20.8755 C   0  0  0  0  0  0
  -23.9100  -10.4305   21.0425 C   0  0  0  0  0  0
  -24.3642   -9.4202   21.9184 C   0  0  0  0  0  0
  -23.6309   -8.2238   22.0736 C   0  0  0  0  0  0
  -22.4278   -8.0289   21.3546 C   0  0  0  0  0  0
  -21.9937   -9.0272   20.4648 C   0  0  0  0  0  0
  -22.7277  -10.2146   20.3071 C   0  0  0  0  0  0
  -21.6855   -6.0765   22.5297 C   0  0  0  0  0  0
  -21.4015   -6.5651   23.8241 C   0  0  0  0  0  0
  -21.3664   -5.6783   24.9196 C   0  0  0  0  0  0
  -21.6049   -4.3052   24.7230 C   0  0  0  0  0  0
  -21.8807   -3.8161   23.4347 C   0  0  0  0  0  0
  -21.9186   -4.6992   22.3414 C   0  0  0  0  0  0
  -22.7835  -13.5228   21.1900 C   0  0  0  0  0  0
  -22.1652   -4.2188   21.0988 F   0  0  0  0  0  0
  -21.5618   -3.4523   25.7741 F   0  0  0  0  0  0
  -29.9864  -13.5369   20.3840 N   0  0  0  0  0  0
  -26.2951  -12.9413   20.3243 N   0  0  0  0  0  0
  -25.9356  -11.6553   20.5737 N   0  0  0  0  0  0
  -22.0464  -12.8219   22.0443 N   0  0  0  0  0  0
  -25.4147  -15.1954   20.4157 N   0  0  0  0  0  0
  -31.8095  -14.8666   20.2583 O   0  0  0  0  0  0
  -21.6623   -6.8904   21.4262 O   0  0  0  0  0  0
  -22.3522  -14.5526   20.6728 O   0  0  0  0  0  0
  -24.6333  -31.8546   23.1986 C   0  0  0  0  0  0
  -25.9147  -32.4769   23.8349 C   0  0  1  0  0  0
  -27.2253  -27.2334   20.1111 C   0  0  0  0  0  0
  -25.5924  -33.8567   24.2283 N   0  0  0  0  0  0
  -23.4328  -30.4767   21.5431 C   0  0  2  0  0  0
  -24.8777  -28.9151   20.1138 C   0  0  0  0  0  0
  -22.7514  -29.4615   22.4935 C   0  0  0  0  0  0
  -18.0301  -28.1382   22.8496 C   0  0  0  0  0  0
  -24.1473  -36.7287   23.2637 C   0  0  0  0  0  0
  -25.9801  -30.7514   21.3834 C   0  0  0  0  0  0
  -26.0500  -29.3702   20.7276 C   0  0  0  0  0  0
  -27.2196  -28.5383   20.7224 C   0  0  0  0  0  0
  -26.0274  -26.8619   19.4541 C   0  0  0  0  0  0
  -24.8724  -27.6688   19.4714 C   0  0  0  0  0  0
  -23.6509  -29.8075   20.1604 C   0  0  0  0  0  0
  -25.4102  -36.3087   24.0334 C   0  0  1  0  0  0
  -20.5908  -28.3701   23.1277 C   0  0  2  0  0  0
  -20.6793  -26.9423   22.5410 C   0  0  0  0  0  0
  -19.5777  -26.6382   21.5229 C   0  0  0  0  0  0
  -18.1946  -26.7931   22.1629 C   0  0  0  0  0  0
  -19.1559  -28.8861   23.2881 C   0  0  0  0  0  0
  -18.9485  -30.1457   23.8905 C   0  0  0  0  0  0
  -17.6484  -30.6598   24.0559 C   0  0  0  0  0  0
  -25.9041  -34.9453   23.5118 C   0  0  0  0  0  0
  -16.5371  -29.9098   23.6313 C   0  0  0  0  0  0
  -16.7292  -28.6504   23.0361 C   0  0  0  0  0  0
  -26.4526  -31.6597   25.0738 C   0  0  0  0  0  0
  -25.3755  -31.3740   26.1466 C   0  0  0  0  0  0
  -27.0418  -30.3050   24.6197 C   0  0  0  0  0  0
  -27.6090  -32.4333   25.7492 C   0  0  0  0  0  0
  -27.5585  -37.1782   24.8454 C   0  0  0  0  0  0
  -21.4223  -29.3052   22.3665 N   0  0  0  0  0  0
  -26.4289  -37.3790   23.9409 N   0  0  0  0  0  0
  -24.7017  -31.0468   22.0970 N   0  0  0  0  0  0
  -23.4204  -28.8171   23.3066 O   0  0  0  0  0  0
  -28.3367  -26.3484   20.1908 O   0  0  0  0  0  0
  -26.5645  -34.8920   22.4704 O   0  0  0  0  0  0
  -23.5482  -32.1398   23.7249 O   0  0  0  0  0  0
  -31.3632  -19.1786   17.6505 C   0  0  0  0  0  0
  -30.7649  -18.0786   18.2971 C   0  0  0  0  0  0
  -30.9674  -20.3062   18.3449 C   0  0  0  0  0  0
  -30.2235  -18.4555   19.5060 C   0  0  0  0  0  0
  -31.2856  -21.6884   18.1345 C   0  0  0  0  0  0
  -30.7387  -22.6860   18.9220 C   0  0  0  0  0  0
  -29.6844  -22.3928   19.8412 C   0  0  0  0  0  0
  -29.4534  -20.9963   20.1137 C   0  0  0  0  0  0
  -32.2557  -19.0441   16.4348 C   0  0  0  0  0  0
  -30.8337  -16.6889   17.7281 C   0  0  0  0  0  0
  -32.2697  -22.0532   17.0196 C   0  0  0  0  0  0
  -31.3197  -24.1044   18.8153 C   0  0  0  0  0  0
  -28.4257  -20.5550   21.1426 C   0  0  0  0  0  0
  -29.9343  -17.4195   20.6779 C   0  0  0  0  0  0
  -28.9843  -23.6701   20.5513 C   0  0  0  0  0  0
  -28.3255  -24.9101   19.7056 C   0  0  0  0  0  0
  -30.1169  -19.9294   19.4380 N   0  0  0  0  0  0
  -29.7652  -15.8896   20.4970 N   0  0  0  0  0  0
  -31.4854  -12.6013   19.1716 H   0  0  0  0  0  0
  -30.3871  -11.4938   19.9576 H   0  0  0  0  0  0
  -29.8051  -11.7275   17.5254 H   0  0  0  0  0  0
  -29.6492  -13.4567   17.7085 H   0  0  0  0  0  0
  -27.9053  -11.2823   18.9123 H   0  0  0  0  0  0
  -27.3899  -12.5177   17.7906 H   0  0  0  0  0  0
  -27.6295  -14.2529   19.4587 H   0  0  0  0  0  0
  -28.7417  -12.1692   21.4066 H   0  0  0  0  0  0
  -28.4240  -13.8452   21.7875 H   0  0  0  0  0  0
  -25.2801   -9.5654   22.4750 H   0  0  0  0  0  0
  -24.0027   -7.4615   22.7431 H   0  0  0  0  0  0
  -21.0866   -8.8809   19.8950 H   0  0  0  0  0  0
  -22.3753  -10.9687   19.6169 H   0  0  0  0  0  0
  -21.2002   -7.6150   23.9776 H   0  0  0  0  0  0
  -21.1493   -6.0497   25.9107 H   0  0  0  0  0  0
  -22.0578   -2.7625   23.2828 H   0  0  0  0  0  0
  -22.4050  -11.9895   22.4884 H   0  0  0  0  0  0
  -21.1085  -13.1248   22.2629 H   0  0  0  0  0  0
  -24.6304  -15.8317   20.5222 H   0  0  0  0  0  0
  -26.2401  -15.6499   20.0494 H   0  0  0  0  0  0
  -26.7212  -32.5404   23.1097 H   0  0  0  0  0  0
  -24.9979  -33.9714   25.0373 H   0  0  0  0  0  0
  -22.7318  -31.3019   21.3979 H   0  0  0  0  0  0
  -23.3747  -35.9603   23.3294 H   0  0  0  0  0  0
  -24.3548  -36.8909   22.2053 H   0  0  0  0  0  0
  -23.7213  -37.6480   23.6670 H   0  0  0  0  0  0
  -26.1180  -31.5013   20.6035 H   0  0  0  0  0  0
  -26.8581  -30.8078   22.0148 H   0  0  0  0  0  0
  -28.1126  -28.8771   21.2290 H   0  0  0  0  0  0
  -25.9342  -25.9324   18.9173 H   0  0  0  0  0  0
  -23.9734  -27.3246   18.9761 H   0  0  0  0  0  0
  -23.7835  -30.5856   19.4067 H   0  0  0  0  0  0
  -22.7652  -29.2466   19.8534 H   0  0  0  0  0  0
  -25.1279  -36.1942   25.0836 H   0  0  0  0  0  0
  -21.0001  -28.3286   24.1401 H   0  0  0  0  0  0
  -20.5702  -26.2324   23.3613 H   0  0  0  0  0  0
  -21.6664  -26.7451   22.1217 H   0  0  0  0  0  0
  -19.6921  -25.6290   21.1273 H   0  0  0  0  0  0
  -19.6706  -27.3177   20.6746 H   0  0  0  0  0  0
  -17.4224  -26.6688   21.4021 H   0  0  0  0  0  0
  -18.0340  -26.0068   22.9019 H   0  0  0  0  0  0
  -19.7957  -30.7264   24.2292 H   0  0  0  0  0  0
  -17.5040  -31.6281   24.5164 H   0  0  0  0  0  0
  -15.5373  -30.3010   23.7626 H   0  0  0  0  0  0
  -15.8686  -28.0810   22.7085 H   0  0  0  0  0  0
  -24.5917  -30.7108   25.7788 H   0  0  0  0  0  0
  -24.8941  -32.2907   26.4907 H   0  0  0  0  0  0
  -25.8052  -30.8916   27.0245 H   0  0  0  0  0  0
  -26.3072  -29.6832   24.1074 H   0  0  0  0  0  0
  -27.4014  -29.7262   25.4707 H   0  0  0  0  0  0
  -27.8952  -30.4426   23.9569 H   0  0  0  0  0  0
  -27.2754  -33.3676   26.2027 H   0  0  0  0  0  0
  -28.3910  -32.6828   25.0300 H   0  0  0  0  0  0
  -28.0766  -31.8471   26.5406 H   0  0  0  0  0  0
  -28.2615  -38.0080   24.7504 H   0  0  0  0  0  0
  -28.1078  -36.2604   24.6265 H   0  0  0  0  0  0
  -27.2307  -37.1414   25.8866 H   0  0  0  0  0  0
  -20.9419  -29.8756   21.6832 H   0  0  0  0  0  0
  -26.0169  -38.2860   24.1437 H   0  0  0  0  0  0
  -32.5870  -18.0215   16.2657 H   0  0  0  0  0  0
  -33.1825  -19.6041   16.5404 H   0  0  0  0  0  0
  -31.7566  -19.3745   15.5232 H   0  0  0  0  0  0
  -30.8684  -16.6954   16.6388 H   0  0  0  0  0  0
  -29.9456  -16.1065   17.9665 H   0  0  0  0  0  0
  -31.7178  -16.1542   18.0710 H   0  0  0  0  0  0
  -31.9658  -21.5976   16.0799 H   0  0  0  0  0  0
  -33.2711  -21.7102   17.2788 H   0  0  0  0  0  0
  -32.3490  -23.1124   16.7919 H   0  0  0  0  0  0
  -32.4113  -24.0690   18.8003 H   0  0  0  0  0  0
  -31.0926  -24.7595   19.6514 H   0  0  0  0  0  0
  -30.9830  -24.6023   17.9062 H   0  0  0  0  0  0
  -28.9077  -20.3261   22.0920 H   0  0  0  0  0  0
  -27.8999  -19.6653   20.7969 H   0  0  0  0  0  0
  -27.6548  -21.3003   21.3175 H   0  0  0  0  0  0
  -29.0348  -17.7421   21.2014 H   0  0  0  0  0  0
  -30.7304  -17.5384   21.4150 H   0  0  0  0  0  0
  -29.7415  -24.0974   21.2050 H   0  0  0  0  0  0
  -28.2294  -23.3306   21.2562 H   0  0  0  0  0  0
  -27.3208  -24.5718   19.4726 H   0  0  0  0  0  0
  -28.8073  -24.9575   18.7310 H   0  0  0  0  0  0
  -28.7980  -15.6099   20.5352 H   0  0  0  0  0  0
  1 25  1  0  0  0
  1 30  2  0  0  0
  1 88  1  0  0  0
  2  3  1  0  0  0
  2 25  1  0  0  0
  2 89  1  0  0  0
  2 90  1  0  0  0
  3  4  1  0  0  0
  3 91  1  0  0  0
  3 92  1  0  0  0
  4  5  1  0  0  0
  4 93  1  0  0  0
  4 94  1  0  0  0
  5  6  1  0  0  0
  5 26  1  0  0  0
  5 95  1  0  0  0
  6 25  1  0  0  0
  6 96  1  0  0  0
  6 97  1  0  0  0
  7  8  2  0  0  0
  7 26  1  0  0  0
  7 29  1  0  0  0
  8  9  1  0  0  0
  8 22  1  0  0  0
  9 10  1  0  0  0
  9 27  2  0  0  0
 10 11  2  0  0  0
 10 15  1  0  0  0
 11 12  1  0  0  0
 11 98  1  0  0  0
 12 13  2  0  0  0
 12 99  1  0  0  0
 13 14  1  0  0  0
 13 31  1  0  0  0
 14 15  2  0  0  0
 14100  1  0  0  0
 15101  1  0  0  0
 16 17  2  0  0  0
 16 21  1  0  0  0
 16 31  1  0  0  0
 17 18  1  0  0  0
 17102  1  0  0  0
 18 19  2  0  0  0
 18103  1  0  0  0
 19 20  1  0  0  0
 19 24  1  0  0  0
 20 21  2  0  0  0
 20104  1  0  0  0
 21 23  1  0  0  0
 22 28  1  0  0  0
 22 32  2  0  0  0
 26 27  1  0  0  0
 28105  1  0  0  0
 28106  1  0  0  0
 29107  1  0  0  0
 29108  1  0  0  0
 33 34  1  0  0  0
 33 66  1  0  0  0
 33 70  2  0  0  0
 34 36  1  0  0  0
 34 59  1  0  0  0
 34109  1  0  0  0
 35 44  2  0  0  0
 35 45  1  0  0  0
 35 68  1  0  0  0
 36 56  1  0  0  0
 36110  1  0  0  0
 37 39  1  0  0  0
 37 47  1  0  0  0
 37 66  1  0  0  0
 37111  1  0  0  0
 38 43  2  0  0  0
 38 46  1  0  0  0
 38 47  1  0  0  0
 39 64  1  0  0  0
 39 67  2  0  0  0
 40 52  1  0  0  0
 40 53  2  0  0  0
 40 58  1  0  0  0
 41112  1  0  0  0
 41113  1  0  0  0
 41114  1  0  0  0
 41 48  1  0  0  0
 42 43  1  0  0  0
 42 66  1  0  0  0
 42115  1  0  0  0
 42116  1  0  0  0
 43 44  1  0  0  0
 44117  1  0  0  0
 45 46  2  0  0  0
 45118  1  0  0  0
 46119  1  0  0  0
 47120  1  0  0  0
 47121  1  0  0  0
 48 56  1  0  0  0
 48 65  1  0  0  0
 48122  1  0  0  0
 49 50  1  0  0  0
 49 53  1  0  0  0
 49 64  1  0  0  0
 49123  1  0  0  0
 50 51  1  0  0  0
 50124  1  0  0  0
 50125  1  0  0  0
 51 52  1  0  0  0
 51126  1  0  0  0
 51127  1  0  0  0
 52128  1  0  0  0
 52129  1  0  0  0
 53 54  1  0  0  0
 54 55  2  0  0  0
 54130  1  0  0  0
 55 57  1  0  0  0
 55131  1  0  0  0
 56 69  2  0  0  0
 57 58  2  0  0  0
 57132  1  0  0  0
 58133  1  0  0  0
 59 60  1  0  0  0
 59 61  1  0  0  0
 59 62  1  0  0  0
 60134  1  0  0  0
 60135  1  0  0  0
 60136  1  0  0  0
 61137  1  0  0  0
 61138  1  0  0  0
 61139  1  0  0  0
 62140  1  0  0  0
 62141  1  0  0  0
 62142  1  0  0  0
 63 65  1  0  0  0
 63143  1  0  0  0
 63144  1  0  0  0
 63145  1  0  0  0
 64146  1  0  0  0
 65147  1  0  0  0
 68 86  1  0  0  0
 71 72  1  0  0  0
 71 73  2  0  0  0
 71 79  1  0  0  0
 72 74  2  0  0  0
 72 80  1  0  0  0
 73 75  1  0  0  0
 73 87  1  0  0  0
 74 84  1  0  0  0
 74 87  1  0  0  0
 75 76  2  0  0  0
 75 81  1  0  0  0
 76 77  1  0  0  0
 76 82  1  0  0  0
 77 78  2  0  0  0
 77 85  1  0  0  0
 78 83  1  0  0  0
 78 87  1  0  0  0
 79148  1  0  0  0
 79149  1  0  0  0
 79150  1  0  0  0
 80151  1  0  0  0
 80152  1  0  0  0
 80153  1  0  0  0
 81154  1  0  0  0
 81155  1  0  0  0
 81156  1  0  0  0
 82157  1  0  0  0
 82158  1  0  0  0
 82159  1  0  0  0
 83160  1  0  0  0
 83161  1  0  0  0
 83162  1  0  0  0
 84 88  1  0  0  0
 84163  1  0  0  0
 84164  1  0  0  0
 85 86  1  0  0  0
 85165  1  0  0  0
 85166  1  0  0  0
 86167  1  0  0  0
 86168  1  0  0  0
 88169  1  0  0  0
M  ISO  4   1 100  68 101  86 101  88 100
M  END
> <chiral flag>
0

> <version>
0

> <s_m_source_file>
/data/baiqing/PycharmProjects/Reinvent-master-3.2/result/LINK_invent/BTK/process_docking_weight1_custom_sum_contain_oxygen_bond_distance_aromatic_linkinvent_7_9_3/rearranged_h_0154.sdf

> <i_m_source_file_index>
52

> <r_mmod_Potential_Energy-OPLS-2005>
370.454956054688

> <r_mmod_Stretch_Energy-OPLS-2005>
175.658660888672

> <r_mmod_Bend_Energy-OPLS-2005>
221.401733398438

> <r_mmod_Torsional_Energy-OPLS-2005>
246.974670410156

> <r_mmod_Improper_Torsional_Energy-OPLS-2005>
6.51522302627563

> <r_mmod_Van_der_Waal_Energy-OPLS-2005>
161.192443847656

> <r_mmod_Electrostatic_Energy-OPLS-2005>
-332.624359130859

> <r_mmod_Solvation_Energy-OPLS-2005>
-209.699935913086

> <b_mmod_Minimization_Converged-OPLS-2005>
0

> <r_mmod_RMS_Derivative-OPLS-2005>
3.57020568847656

$$$$
53
                    3D
 Structure written by MMmdl.
170180  0  0  1  0            999 V2000
  -30.6887  -14.9071   20.3934 C   0  0  0  0  0  0
  -30.3700  -12.5466   19.5342 C   0  0  0  0  0  0
  -29.4898  -12.5607   18.2693 C   0  0  0  0  0  0
  -28.0272  -12.3612   18.6769 C   0  0  0  0  0  0
  -27.6172  -13.2864   19.8548 C   0  0  2  0  0  0
  -28.6617  -13.3531   20.9965 C   0  0  0  0  0  0
  -25.2331  -13.8308   20.5855 C   0  0  0  0  0  0
  -24.1679  -13.0484   20.9278 C   0  0  0  0  0  0
  -24.6359  -11.6977   20.8762 C   0  0  0  0  0  0
  -23.9066  -10.4323   21.0383 C   0  0  0  0  0  0
  -24.3622   -9.4208   21.9124 C   0  0  0  0  0  0
  -23.6293   -8.2251   22.0702 C   0  0  0  0  0  0
  -22.4271   -8.0247   21.3511 C   0  0  0  0  0  0
  -21.9905   -9.0255   20.4657 C   0  0  0  0  0  0
  -22.7228  -10.2129   20.3050 C   0  0  0  0  0  0
  -21.6882   -6.0719   22.5273 C   0  0  0  0  0  0
  -21.4061   -6.5621   23.8200 C   0  0  0  0  0  0
  -21.3711   -5.6734   24.9150 C   0  0  0  0  0  0
  -21.6069   -4.3009   24.7171 C   0  0  0  0  0  0
  -21.8826   -3.8101   23.4297 C   0  0  0  0  0  0
  -21.9189   -4.6950   22.3347 C   0  0  0  0  0  0
  -22.7656  -13.5206   21.1877 C   0  0  0  0  0  0
  -22.1643   -4.2138   21.0937 F   0  0  0  0  0  0
  -21.5622   -3.4503   25.7698 F   0  0  0  0  0  0
  -29.9480  -13.7133   20.3906 N   0  0  0  0  0  0
  -26.2808  -12.9637   20.3399 N   0  0  0  0  0  0
  -25.9323  -11.6739   20.5811 N   0  0  0  0  0  0
  -22.0326  -12.8232   22.0464 N   0  0  0  0  0  0
  -25.3929  -15.2062   20.4332 N   0  0  0  0  0  0
  -31.8097  -14.7437   19.8933 O   0  0  0  0  0  0
  -21.6644   -6.8861   21.4216 O   0  0  0  0  0  0
  -22.3331  -14.5482   20.6656 O   0  0  0  0  0  0
  -24.6503  -31.8495   23.1877 C   0  0  0  0  0  0
  -25.9292  -32.4662   23.8253 C   0  0  1  0  0  0
  -27.1660  -27.1364   20.1309 C   0  0  0  0  0  0
  -25.6101  -33.8458   24.2198 N   0  0  0  0  0  0
  -23.4434  -30.4776   21.5398 C   0  0  2  0  0  0
  -24.8702  -28.9030   20.1185 C   0  0  0  0  0  0
  -22.7562  -29.4629   22.4889 C   0  0  0  0  0  0
  -18.0296  -28.1425   22.8485 C   0  0  0  0  0  0
  -24.1483  -36.7181   23.2624 C   0  0  0  0  0  0
  -26.0029  -30.7291   21.3715 C   0  0  0  0  0  0
  -26.0619  -29.3430   20.7066 C   0  0  0  0  0  0
  -27.2183  -28.4783   20.6883 C   0  0  0  0  0  0
  -25.9487  -26.8082   19.4968 C   0  0  0  0  0  0
  -24.8191  -27.6417   19.5138 C   0  0  0  0  0  0
  -23.6615  -29.8184   20.1589 C   0  0  0  0  0  0
  -25.4126  -36.2986   24.0311 C   0  0  1  0  0  0
  -20.5924  -28.3747   23.1216 C   0  0  2  0  0  0
  -20.6807  -26.9457   22.5373 C   0  0  0  0  0  0
  -19.5780  -26.6426   21.5176 C   0  0  0  0  0  0
  -18.1954  -26.7982   22.1599 C   0  0  0  0  0  0
  -19.1564  -28.8879   23.2863 C   0  0  0  0  0  0
  -18.9499  -30.1474   23.8867 C   0  0  0  0  0  0
  -17.6505  -30.6600   24.0567 C   0  0  0  0  0  0
  -25.9110  -34.9369   23.5036 C   0  0  0  0  0  0
  -16.5376  -29.9115   23.6342 C   0  0  0  0  0  0
  -16.7288  -28.6544   23.0344 C   0  0  0  0  0  0
  -26.4616  -31.6496   25.0652 C   0  0  0  0  0  0
  -25.3831  -31.3669   26.1362 C   0  0  0  0  0  0
  -27.0481  -30.2923   24.6180 C   0  0  0  0  0  0
  -27.6174  -32.4241   25.7432 C   0  0  0  0  0  0
  -27.5560  -37.1742   24.8501 C   0  0  0  0  0  0
  -21.4245  -29.3088   22.3599 N   0  0  0  0  0  0
  -26.4272  -37.3740   23.9439 N   0  0  0  0  0  0
  -24.7216  -31.0390   22.0884 N   0  0  0  0  0  0
  -23.4233  -28.8139   23.3003 O   0  0  0  0  0  0
  -28.1847  -26.1258   20.2249 O   0  0  0  0  0  0
  -26.5630  -34.8888   22.4568 O   0  0  0  0  0  0
  -23.5645  -32.1302   23.7168 O   0  0  0  0  0  0
  -28.8955  -19.4462   19.1565 C   0  0  0  0  0  0
  -28.9469  -18.2791   21.6274 C   0  0  0  0  0  0
  -28.6023  -20.3804   20.2152 C   0  0  0  0  0  0
  -29.2596  -18.0445   19.3043 C   0  0  0  0  0  0
  -28.5550  -19.6764   21.4766 C   0  0  0  0  0  0
  -29.4487  -17.4123   20.5860 C   0  0  0  0  0  0
  -33.2346  -18.2609   21.4299 C   0  0  0  0  0  0
  -28.7624  -22.6237   18.6169 C   0  0  0  0  0  0
  -31.8682  -18.1536   22.1281 C   0  0  0  0  0  0
  -32.5998  -17.4335   20.3085 C   0  0  0  0  0  0
  -28.2894  -24.1254   18.5395 C   0  0  0  0  0  0
  -28.3133  -23.2913   20.8381 C   0  0  0  0  0  0
  -28.1713  -21.9579   19.9022 C   0  0  2  0  0  0
  -31.7102  -16.7768   21.4133 C   0  0  0  0  0  0
  -27.8943  -24.6147   19.9705 C   0  0  1  0  0  0
  -29.4101  -17.2434   18.0223 C   0  0  0  0  0  0
  -28.0843  -20.3974   22.7350 C   0  0  0  0  0  0
  -30.3830  -16.2297   20.9147 N   0  0  0  0  0  0
  -31.4227  -12.5481   19.2457 H   0  0  0  0  0  0
  -30.2471  -11.6007   20.0716 H   0  0  0  0  0  0
  -29.7939  -11.7913   17.5606 H   0  0  0  0  0  0
  -29.6027  -13.5113   17.7464 H   0  0  0  0  0  0
  -27.9119  -11.3167   18.9624 H   0  0  0  0  0  0
  -27.3689  -12.5231   17.8232 H   0  0  0  0  0  0
  -27.5730  -14.2911   19.4332 H   0  0  0  0  0  0
  -28.7312  -12.4001   21.5205 H   0  0  0  0  0  0
  -28.3807  -14.0969   21.7415 H   0  0  0  0  0  0
  -25.2797   -9.5692   22.4638 H   0  0  0  0  0  0
  -24.0062   -7.4646   22.7390 H   0  0  0  0  0  0
  -21.0836   -8.8776   19.8972 H   0  0  0  0  0  0
  -22.3682  -10.9654   19.6133 H   0  0  0  0  0  0
  -21.2107   -7.6123   23.9735 H   0  0  0  0  0  0
  -21.1529   -6.0445   25.9072 H   0  0  0  0  0  0
  -22.0572   -2.7578   23.2761 H   0  0  0  0  0  0
  -22.3993  -11.9954   22.4909 H   0  0  0  0  0  0
  -21.0902  -13.1175   22.2635 H   0  0  0  0  0  0
  -24.6203  -15.8498   20.5535 H   0  0  0  0  0  0
  -26.2531  -15.6630   20.1625 H   0  0  0  0  0  0
  -26.7345  -32.5210   23.0979 H   0  0  0  0  0  0
  -25.0423  -33.9568   25.0461 H   0  0  0  0  0  0
  -22.7474  -31.3094   21.3937 H   0  0  0  0  0  0
  -23.3766  -35.9501   23.3285 H   0  0  0  0  0  0
  -24.3605  -36.8800   22.2054 H   0  0  0  0  0  0
  -23.7218  -37.6366   23.6639 H   0  0  0  0  0  0
  -26.1663  -31.4838   20.6019 H   0  0  0  0  0  0
  -26.8746  -30.7696   22.0152 H   0  0  0  0  0  0
  -28.1326  -28.8207   21.1491 H   0  0  0  0  0  0
  -25.7987  -25.8554   19.0204 H   0  0  0  0  0  0
  -23.8868  -27.2816   19.0956 H   0  0  0  0  0  0
  -23.8281  -30.5961   19.4137 H   0  0  0  0  0  0
  -22.7702  -29.2898   19.8194 H   0  0  0  0  0  0
  -25.1320  -36.1807   25.0816 H   0  0  0  0  0  0
  -21.0006  -28.3300   24.1344 H   0  0  0  0  0  0
  -20.5718  -26.2356   23.3590 H   0  0  0  0  0  0
  -21.6678  -26.7515   22.1147 H   0  0  0  0  0  0
  -19.6967  -25.6332   21.1211 H   0  0  0  0  0  0
  -19.6694  -27.3211   20.6683 H   0  0  0  0  0  0
  -17.4237  -26.6694   21.3984 H   0  0  0  0  0  0
  -18.0371  -26.0116   22.8993 H   0  0  0  0  0  0
  -19.7956  -30.7309   24.2226 H   0  0  0  0  0  0
  -17.5041  -31.6256   24.5219 H   0  0  0  0  0  0
  -15.5368  -30.3025   23.7669 H   0  0  0  0  0  0
  -15.8696  -28.0843   22.7101 H   0  0  0  0  0  0
  -24.6071  -30.6962   25.7665 H   0  0  0  0  0  0
  -24.8940  -32.2820   26.4701 H   0  0  0  0  0  0
  -25.8150  -30.8908   27.0183 H   0  0  0  0  0  0
  -26.3058  -29.6646   24.1250 H   0  0  0  0  0  0
  -27.4234  -29.7249   25.4706 H   0  0  0  0  0  0
  -27.8917  -30.4201   23.9405 H   0  0  0  0  0  0
  -27.2831  -33.3637   26.1888 H   0  0  0  0  0  0
  -28.4048  -32.6665   25.0258 H   0  0  0  0  0  0
  -28.0789  -31.8426   26.5448 H   0  0  0  0  0  0
  -28.2601  -38.0011   24.7537 H   0  0  0  0  0  0
  -28.1029  -36.2550   24.6344 H   0  0  0  0  0  0
  -27.2279  -37.1398   25.8905 H   0  0  0  0  0  0
  -20.9472  -29.8835   21.6786 H   0  0  0  0  0  0
  -26.0111  -38.2799   24.1480 H   0  0  0  0  0  0
  -28.8270  -19.8166   18.1412 H   0  0  0  0  0  0
  -28.9779  -17.8861   22.6329 H   0  0  0  0  0  0
  -34.0362  -17.7257   21.9451 H   0  0  0  0  0  0
  -33.5423  -19.2738   21.1511 H   0  0  0  0  0  0
  -29.8556  -22.6158   18.6785 H   0  0  0  0  0  0
  -28.5054  -22.0932   17.6944 H   0  0  0  0  0  0
  -31.2806  -18.9995   21.7812 H   0  0  0  0  0  0
  -31.9258  -18.1194   23.2180 H   0  0  0  0  0  0
  -33.2890  -16.7710   19.7835 H   0  0  0  0  0  0
  -32.0477  -18.0523   19.5963 H   0  0  0  0  0  0
  -27.4199  -24.2118   17.8736 H   0  0  0  0  0  0
  -29.0790  -24.7434   18.0965 H   0  0  0  0  0  0
  -29.3315  -23.3839   21.2232 H   0  0  0  0  0  0
  -27.6679  -23.2188   21.7197 H   0  0  0  0  0  0
  -27.1009  -21.8619   19.7020 H   0  0  0  0  0  0
  -32.2771  -16.0523   22.0071 H   0  0  0  0  0  0
  -26.8157  -24.4924   20.0724 H   0  0  0  0  0  0
  -28.4331  -17.1567   17.5470 H   0  0  0  0  0  0
  -29.7643  -16.2243   18.1756 H   0  0  0  0  0  0
  -30.0713  -17.7387   17.3130 H   0  0  0  0  0  0
  -28.4329  -21.4244   22.7741 H   0  0  0  0  0  0
  -28.4606  -19.9076   23.6340 H   0  0  0  0  0  0
  -26.9927  -20.3925   22.7995 H   0  0  0  0  0  0
  1 25  1  0  0  0
  1 30  2  0  0  0
  1 88  1  0  0  0
  2  3  1  0  0  0
  2 25  1  0  0  0
  2 89  1  0  0  0
  2 90  1  0  0  0
  3  4  1  0  0  0
  3 91  1  0  0  0
  3 92  1  0  0  0
  4  5  1  0  0  0
  4 93  1  0  0  0
  4 94  1  0  0  0
  5  6  1  0  0  0
  5 26  1  0  0  0
  5 95  1  0  0  0
  6 25  1  0  0  0
  6 96  1  0  0  0
  6 97  1  0  0  0
  7  8  2  0  0  0
  7 26  1  0  0  0
  7 29  1  0  0  0
  8  9  1  0  0  0
  8 22  1  0  0  0
  9 10  1  0  0  0
  9 27  2  0  0  0
 10 11  2  0  0  0
 10 15  1  0  0  0
 11 12  1  0  0  0
 11 98  1  0  0  0
 12 13  2  0  0  0
 12 99  1  0  0  0
 13 14  1  0  0  0
 13 31  1  0  0  0
 14 15  2  0  0  0
 14100  1  0  0  0
 15101  1  0  0  0
 16 17  2  0  0  0
 16 21  1  0  0  0
 16 31  1  0  0  0
 17 18  1  0  0  0
 17102  1  0  0  0
 18 19  2  0  0  0
 18103  1  0  0  0
 19 20  1  0  0  0
 19 24  1  0  0  0
 20 21  2  0  0  0
 20104  1  0  0  0
 21 23  1  0  0  0
 22 28  1  0  0  0
 22 32  2  0  0  0
 26 27  1  0  0  0
 28105  1  0  0  0
 28106  1  0  0  0
 29107  1  0  0  0
 29108  1  0  0  0
 33 34  1  0  0  0
 33 66  1  0  0  0
 33 70  2  0  0  0
 34 36  1  0  0  0
 34 59  1  0  0  0
 34109  1  0  0  0
 35 44  2  0  0  0
 35 45  1  0  0  0
 35 68  1  0  0  0
 36 56  1  0  0  0
 36110  1  0  0  0
 37 39  1  0  0  0
 37 47  1  0  0  0
 37 66  1  0  0  0
 37111  1  0  0  0
 38 43  2  0  0  0
 38 46  1  0  0  0
 38 47  1  0  0  0
 39 64  1  0  0  0
 39 67  2  0  0  0
 40 52  1  0  0  0
 40 53  2  0  0  0
 40 58  1  0  0  0
 41112  1  0  0  0
 41113  1  0  0  0
 41114  1  0  0  0
 41 48  1  0  0  0
 42 43  1  0  0  0
 42 66  1  0  0  0
 42115  1  0  0  0
 42116  1  0  0  0
 43 44  1  0  0  0
 44117  1  0  0  0
 45 46  2  0  0  0
 45118  1  0  0  0
 46119  1  0  0  0
 47120  1  0  0  0
 47121  1  0  0  0
 48 56  1  0  0  0
 48 65  1  0  0  0
 48122  1  0  0  0
 49 50  1  0  0  0
 49 53  1  0  0  0
 49 64  1  0  0  0
 49123  1  0  0  0
 50 51  1  0  0  0
 50124  1  0  0  0
 50125  1  0  0  0
 51 52  1  0  0  0
 51126  1  0  0  0
 51127  1  0  0  0
 52128  1  0  0  0
 52129  1  0  0  0
 53 54  1  0  0  0
 54 55  2  0  0  0
 54130  1  0  0  0
 55 57  1  0  0  0
 55131  1  0  0  0
 56 69  2  0  0  0
 57 58  2  0  0  0
 57132  1  0  0  0
 58133  1  0  0  0
 59 60  1  0  0  0
 59 61  1  0  0  0
 59 62  1  0  0  0
 60134  1  0  0  0
 60135  1  0  0  0
 60136  1  0  0  0
 61137  1  0  0  0
 61138  1  0  0  0
 61139  1  0  0  0
 62140  1  0  0  0
 62141  1  0  0  0
 62142  1  0  0  0
 63 65  1  0  0  0
 63143  1  0  0  0
 63144  1  0  0  0
 63145  1  0  0  0
 64146  1  0  0  0
 65147  1  0  0  0
 68 85  1  0  0  0
 71 73  2  0  0  0
 71 74  1  0  0  0
 71148  1  0  0  0
 72 75  2  0  0  0
 72 76  1  0  0  0
 72149  1  0  0  0
 73 75  1  0  0  0
 73 83  1  0  0  0
 74 76  2  0  0  0
 74 86  1  0  0  0
 75 87  1  0  0  0
 76 88  1  0  0  0
 77 79  1  0  0  0
 77 80  1  0  0  0
 77150  1  0  0  0
 77151  1  0  0  0
 78 81  1  0  0  0
 78 83  1  0  0  0
 78152  1  0  0  0
 78153  1  0  0  0
 79 84  1  0  0  0
 79154  1  0  0  0
 79155  1  0  0  0
 80 84  1  0  0  0
 80156  1  0  0  0
 80157  1  0  0  0
 81 85  1  0  0  0
 81158  1  0  0  0
 81159  1  0  0  0
 82 83  1  0  0  0
 82 85  1  0  0  0
 82160  1  0  0  0
 82161  1  0  0  0
 83162  1  0  0  0
 84 88  1  0  0  0
 84163  1  0  0  0
 85164  1  0  0  0
 86165  1  0  0  0
 86166  1  0  0  0
 86167  1  0  0  0
 87168  1  0  0  0
 87169  1  0  0  0
 87170  1  0  0  0
M  ISO  4   1 100  68 101  85 101  88 100
M  END
> <chiral flag>
0

> <version>
0

> <s_m_source_file>
/data/baiqing/PycharmProjects/Reinvent-master-3.2/result/LINK_invent/BTK/process_docking_weight1_custom_sum_contain_oxygen_bond_distance_aromatic_linkinvent_7_9_3/rearranged_h_0154.sdf

> <i_m_source_file_index>
53

> <r_mmod_Potential_Energy-OPLS-2005>
924.068603515625

> <r_mmod_Stretch_Energy-OPLS-2005>
253.648345947266

> <r_mmod_Bend_Energy-OPLS-2005>
437.157012939453

> <r_mmod_Torsional_Energy-OPLS-2005>
362.089660644531

> <r_mmod_Improper_Torsional_Energy-OPLS-2005>
9.31130504608154

> <r_mmod_Van_der_Waal_Energy-OPLS-2005>
173.356597900391

> <r_mmod_Electrostatic_Energy-OPLS-2005>
-320.096710205078

> <r_mmod_Solvation_Energy-OPLS-2005>
-179.974517822266

> <b_mmod_Minimization_Converged-OPLS-2005>
0

> <r_mmod_RMS_Derivative-OPLS-2005>
8.93417263031006

$$$$
54
                    3D
 Structure written by MMmdl.
179188  0  0  1  0            999 V2000
  -30.6844  -14.5083   20.5862 C   0  0  0  0  0  0
  -30.4266  -12.3312   19.4343 C   0  0  0  0  0  0
  -29.5005  -12.5148   18.2143 C   0  0  0  0  0  0
  -28.0215  -12.3629   18.6214 C   0  0  0  0  0  0
  -27.6596  -13.2087   19.8716 C   0  0  2  0  0  0
  -28.6987  -13.0036   20.9968 C   0  0  0  0  0  0
  -25.2588  -13.8170   20.5693 C   0  0  0  0  0  0
  -24.1842  -13.0440   20.9168 C   0  0  0  0  0  0
  -24.6399  -11.6910   20.8729 C   0  0  0  0  0  0
  -23.9070  -10.4292   21.0394 C   0  0  0  0  0  0
  -24.3623   -9.4212   21.9173 C   0  0  0  0  0  0
  -23.6301   -8.2246   22.0747 C   0  0  0  0  0  0
  -22.4281   -8.0283   21.3542 C   0  0  0  0  0  0
  -21.9917   -9.0253   20.4637 C   0  0  0  0  0  0
  -22.7242  -10.2132   20.3044 C   0  0  0  0  0  0
  -21.6856   -6.0733   22.5278 C   0  0  0  0  0  0
  -21.4010   -6.5636   23.8207 C   0  0  0  0  0  0
  -21.3666   -5.6791   24.9169 C   0  0  0  0  0  0
  -21.6045   -4.3052   24.7219 C   0  0  0  0  0  0
  -21.8822   -3.8143   23.4341 C   0  0  0  0  0  0
  -21.9192   -4.6960   22.3398 C   0  0  0  0  0  0
  -22.7862  -13.5242   21.1830 C   0  0  0  0  0  0
  -22.1659   -4.2150   21.0974 F   0  0  0  0  0  0
  -21.5635   -3.4533   25.7728 F   0  0  0  0  0  0
  -30.0275  -13.3218   20.4477 N   0  0  0  0  0  0
  -26.3012  -12.9334   20.3331 N   0  0  0  0  0  0
  -25.9322  -11.6496   20.5740 N   0  0  0  0  0  0
  -22.0505  -12.8239   22.0383 N   0  0  0  0  0  0
  -25.4336  -15.1882   20.4190 N   0  0  0  0  0  0
  -31.8100  -14.7020   20.1183 O   0  0  0  0  0  0
  -21.6643   -6.8883   21.4243 O   0  0  0  0  0  0
  -22.3552  -14.5548   20.6677 O   0  0  0  0  0  0
  -24.6182  -31.8650   23.2070 C   0  0  0  0  0  0
  -25.9051  -32.4814   23.8386 C   0  0  1  0  0  0
  -27.2268  -27.3888   20.1098 C   0  0  0  0  0  0
  -25.5872  -33.8612   24.2314 N   0  0  0  0  0  0
  -23.4105  -30.4876   21.5495 C   0  0  2  0  0  0
  -24.8560  -28.9512   20.1132 C   0  0  0  0  0  0
  -22.7439  -29.4642   22.4978 C   0  0  0  0  0  0
  -18.0276  -28.1383   22.8494 C   0  0  0  0  0  0
  -24.1482  -36.7320   23.2644 C   0  0  0  0  0  0
  -25.9436  -30.8178   21.3667 C   0  0  0  0  0  0
  -26.0206  -29.4489   20.7128 C   0  0  0  0  0  0
  -27.2105  -28.6772   20.7051 C   0  0  0  0  0  0
  -26.0478  -26.9301   19.4790 C   0  0  0  0  0  0
  -24.8671  -27.6932   19.4910 C   0  0  0  0  0  0
  -23.6199  -29.8205   20.1642 C   0  0  0  0  0  0
  -25.4105  -36.3115   24.0340 C   0  0  1  0  0  0
  -20.5870  -28.3660   23.1305 C   0  0  2  0  0  0
  -20.6756  -26.9387   22.5416 C   0  0  0  0  0  0
  -19.5733  -26.6381   21.5214 C   0  0  0  0  0  0
  -18.1918  -26.7931   22.1627 C   0  0  0  0  0  0
  -19.1529  -28.8841   23.2894 C   0  0  0  0  0  0
  -18.9455  -30.1452   23.8893 C   0  0  0  0  0  0
  -17.6455  -30.6584   24.0575 C   0  0  0  0  0  0
  -25.9030  -34.9474   23.5135 C   0  0  0  0  0  0
  -16.5347  -29.9086   23.6340 C   0  0  0  0  0  0
  -16.7264  -28.6509   23.0350 C   0  0  0  0  0  0
  -26.4454  -31.6602   25.0732 C   0  0  0  0  0  0
  -25.3695  -31.3715   26.1461 C   0  0  0  0  0  0
  -27.0288  -30.3041   24.6126 C   0  0  0  0  0  0
  -27.6043  -32.4311   25.7477 C   0  0  0  0  0  0
  -27.5585  -37.1814   24.8463 C   0  0  0  0  0  0
  -21.4159  -29.3023   22.3711 N   0  0  0  0  0  0
  -26.4296  -37.3800   23.9408 N   0  0  0  0  0  0
  -24.6764  -31.0704   22.0996 N   0  0  0  0  0  0
  -23.4186  -28.8172   23.3038 O   0  0  0  0  0  0
  -28.3646  -26.5922   20.1419 O   0  0  0  0  0  0
  -26.5617  -34.8926   22.4714 O   0  0  0  0  0  0
  -23.5357  -32.1421   23.7428 O   0  0  0  0  0  0
  -30.0614  -19.3709   20.6580 C   0  0  0  0  0  0
  -28.9399  -17.6187   19.3942 C   0  0  0  0  0  0
  -29.6252  -20.3536   19.7225 C   0  0  0  0  0  0
  -29.7695  -17.9886   20.4725 C   0  0  0  0  0  0
  -28.4818  -18.5745   18.4629 C   0  0  0  0  0  0
  -28.8841  -19.9271   18.5879 C   0  0  0  0  0  0
  -30.1078  -21.8233   19.7687 C   0  0  1  0  0  0
  -30.5525  -22.1597   18.3257 C   0  0  2  0  0  0
  -29.3125  -22.0176   17.4058 C   0  0  1  0  0  0
  -31.7578  -21.3059   17.8657 C   0  0  0  0  0  0
  -29.6236  -22.2451   15.9225 C   0  0  0  0  0  0
  -26.5703  -17.0833   17.6255 C   0  0  0  0  0  0
  -28.5359  -17.6339   16.1227 C   0  0  0  0  0  0
  -28.0490  -25.2444   22.1328 C   0  0  0  0  0  0
  -30.3880  -16.9106   21.3895 C   0  0  0  0  0  0
  -29.3520  -24.2767   20.1454 C   0  0  0  0  0  0
  -27.6390  -18.1285   17.2654 C   0  0  0  0  0  0
  -28.1904  -25.2162   20.6038 C   0  0  2  0  0  0
  -29.9761  -15.5046   21.1614 N   0  0  0  0  0  0
  -29.0861  -22.7943   20.3055 N   0  3  0  0  0  0
  -28.6207  -20.7692   17.5260 O   0  0  0  0  0  0
  -31.4716  -12.4380   19.1382 H   0  0  0  0  0  0
  -30.3344  -11.3221   19.8380 H   0  0  0  0  0  0
  -29.7534  -11.7936   17.4348 H   0  0  0  0  0  0
  -29.6603  -13.5029   17.7805 H   0  0  0  0  0  0
  -27.8441  -11.3068   18.8281 H   0  0  0  0  0  0
  -27.3711  -12.6236   17.7851 H   0  0  0  0  0  0
  -27.6992  -14.2540   19.5660 H   0  0  0  0  0  0
  -28.6835  -11.9682   21.3424 H   0  0  0  0  0  0
  -28.4502  -13.6050   21.8720 H   0  0  0  0  0  0
  -25.2764   -9.5690   22.4748 H   0  0  0  0  0  0
  -24.0001   -7.4646   22.7477 H   0  0  0  0  0  0
  -21.0838   -8.8775   19.8959 H   0  0  0  0  0  0
  -22.3693  -10.9673   19.6150 H   0  0  0  0  0  0
  -21.2000   -7.6140   23.9715 H   0  0  0  0  0  0
  -21.1489   -6.0513   25.9077 H   0  0  0  0  0  0
  -22.0600   -2.7609   23.2835 H   0  0  0  0  0  0
  -22.4099  -11.9893   22.4767 H   0  0  0  0  0  0
  -21.1127  -13.1280   22.2590 H   0  0  0  0  0  0
  -24.6697  -15.8448   20.5327 H   0  0  0  0  0  0
  -26.2899  -15.6301   20.1142 H   0  0  0  0  0  0
  -26.7127  -32.5507   23.1149 H   0  0  0  0  0  0
  -24.9967  -33.9764   25.0418 H   0  0  0  0  0  0
  -22.7028  -31.3066   21.4076 H   0  0  0  0  0  0
  -23.3745  -35.9654   23.3313 H   0  0  0  0  0  0
  -24.3578  -36.8933   22.2056 H   0  0  0  0  0  0
  -23.7221  -37.6525   23.6650 H   0  0  0  0  0  0
  -26.0587  -31.5819   20.5964 H   0  0  0  0  0  0
  -26.8305  -30.8719   21.9861 H   0  0  0  0  0  0
  -28.1070  -29.0528   21.1792 H   0  0  0  0  0  0
  -26.0217  -25.9792   18.9678 H   0  0  0  0  0  0
  -23.9756  -27.3084   19.0147 H   0  0  0  0  0  0
  -23.7277  -30.5941   19.4026 H   0  0  0  0  0  0
  -22.7439  -29.2391   19.8713 H   0  0  0  0  0  0
  -25.1282  -36.2000   25.0834 H   0  0  0  0  0  0
  -20.9969  -28.3214   24.1422 H   0  0  0  0  0  0
  -20.5650  -26.2259   23.3600 H   0  0  0  0  0  0
  -21.6623  -26.7416   22.1207 H   0  0  0  0  0  0
  -19.6885  -25.6297   21.1225 H   0  0  0  0  0  0
  -19.6680  -27.3204   20.6752 H   0  0  0  0  0  0
  -17.4190  -26.6687   21.4033 H   0  0  0  0  0  0
  -18.0315  -26.0079   22.9018 H   0  0  0  0  0  0
  -19.7933  -30.7286   24.2243 H   0  0  0  0  0  0
  -17.5009  -31.6265   24.5176 H   0  0  0  0  0  0
  -15.5343  -30.2984   23.7681 H   0  0  0  0  0  0
  -15.8663  -28.0839   22.7043 H   0  0  0  0  0  0
  -24.5866  -30.7076   25.7773 H   0  0  0  0  0  0
  -24.8875  -32.2868   26.4912 H   0  0  0  0  0  0
  -25.8013  -30.8864   27.0223 H   0  0  0  0  0  0
  -26.2847  -29.6802   24.1159 H   0  0  0  0  0  0
  -27.4033  -29.7280   25.4600 H   0  0  0  0  0  0
  -27.8693  -30.4371   23.9308 H   0  0  0  0  0  0
  -27.2694  -33.3608   26.2088 H   0  0  0  0  0  0
  -28.3818  -32.6875   25.0268 H   0  0  0  0  0  0
  -28.0750  -31.8411   26.5350 H   0  0  0  0  0  0
  -28.2608  -38.0109   24.7521 H   0  0  0  0  0  0
  -28.1074  -36.2641   24.6278 H   0  0  0  0  0  0
  -27.2302  -37.1456   25.8866 H   0  0  0  0  0  0
  -20.9325  -29.8764   21.6944 H   0  0  0  0  0  0
  -26.0193  -38.2886   24.1410 H   0  0  0  0  0  0
  -30.6954  -19.6659   21.4821 H   0  0  0  0  0  0
  -28.6967  -16.5799   19.2426 H   0  0  0  0  0  0
  -30.9786  -21.8811   20.4247 H   0  0  0  0  0  0
  -30.9192  -23.1832   18.2800 H   0  0  0  0  0  0
  -28.5880  -22.7820   17.6835 H   0  0  0  0  0  0
  -31.4991  -20.2562   17.7235 H   0  0  0  0  0  0
  -32.5666  -21.3507   18.5952 H   0  0  0  0  0  0
  -32.1619  -21.6724   16.9223 H   0  0  0  0  0  0
  -30.2416  -21.4443   15.5154 H   0  0  0  0  0  0
  -30.1507  -23.1878   15.7734 H   0  0  0  0  0  0
  -28.7061  -22.2805   15.3357 H   0  0  0  0  0  0
  -25.9516  -17.4243   18.4561 H   0  0  0  0  0  0
  -27.0074  -16.1240   17.8987 H   0  0  0  0  0  0
  -25.9063  -16.8996   16.7806 H   0  0  0  0  0  0
  -29.2119  -18.4226   15.7916 H   0  0  0  0  0  0
  -27.9453  -17.3256   15.2595 H   0  0  0  0  0  0
  -29.1434  -16.7844   16.4361 H   0  0  0  0  0  0
  -27.1989  -25.8541   22.4379 H   0  0  0  0  0  0
  -28.9413  -25.6594   22.5997 H   0  0  0  0  0  0
  -27.8867  -24.2461   22.5375 H   0  0  0  0  0  0
  -30.1403  -17.1608   22.4219 H   0  0  0  0  0  0
  -31.4745  -16.9922   21.3217 H   0  0  0  0  0  0
  -30.2768  -24.5456   20.6570 H   0  0  0  0  0  0
  -29.5021  -24.5128   19.0943 H   0  0  0  0  0  0
  -27.0885  -18.9974   16.9028 H   0  0  0  0  0  0
  -27.2803  -24.7884   20.1913 H   0  0  0  0  0  0
  -29.0595  -15.2531   21.4948 H   0  0  0  0  0  0
  -28.9766  -22.5851   21.2857 H   0  0  0  0  0  0
  -28.2064  -22.5713   19.8679 H   0  0  0  0  0  0
  1 25  1  0  0  0
  1 30  2  0  0  0
  1 89  1  0  0  0
  2  3  1  0  0  0
  2 25  1  0  0  0
  2 92  1  0  0  0
  2 93  1  0  0  0
  3  4  1  0  0  0
  3 94  1  0  0  0
  3 95  1  0  0  0
  4  5  1  0  0  0
  4 96  1  0  0  0
  4 97  1  0  0  0
  5  6  1  0  0  0
  5 26  1  0  0  0
  5 98  1  0  0  0
  6 25  1  0  0  0
  6 99  1  0  0  0
  6100  1  0  0  0
  7  8  2  0  0  0
  7 26  1  0  0  0
  7 29  1  0  0  0
  8  9  1  0  0  0
  8 22  1  0  0  0
  9 10  1  0  0  0
  9 27  2  0  0  0
 10 11  2  0  0  0
 10 15  1  0  0  0
 11 12  1  0  0  0
 11101  1  0  0  0
 12 13  2  0  0  0
 12102  1  0  0  0
 13 14  1  0  0  0
 13 31  1  0  0  0
 14 15  2  0  0  0
 14103  1  0  0  0
 15104  1  0  0  0
 16 17  2  0  0  0
 16 21  1  0  0  0
 16 31  1  0  0  0
 17 18  1  0  0  0
 17105  1  0  0  0
 18 19  2  0  0  0
 18106  1  0  0  0
 19 20  1  0  0  0
 19 24  1  0  0  0
 20 21  2  0  0  0
 20107  1  0  0  0
 21 23  1  0  0  0
 22 28  1  0  0  0
 22 32  2  0  0  0
 26 27  1  0  0  0
 28108  1  0  0  0
 28109  1  0  0  0
 29110  1  0  0  0
 29111  1  0  0  0
 33 34  1  0  0  0
 33 66  1  0  0  0
 33 70  2  0  0  0
 34 36  1  0  0  0
 34 59  1  0  0  0
 34112  1  0  0  0
 35 44  2  0  0  0
 35 45  1  0  0  0
 35 68  1  0  0  0
 36 56  1  0  0  0
 36113  1  0  0  0
 37 39  1  0  0  0
 37 47  1  0  0  0
 37 66  1  0  0  0
 37114  1  0  0  0
 38 43  2  0  0  0
 38 46  1  0  0  0
 38 47  1  0  0  0
 39 64  1  0  0  0
 39 67  2  0  0  0
 40 52  1  0  0  0
 40 53  2  0  0  0
 40 58  1  0  0  0
 41115  1  0  0  0
 41116  1  0  0  0
 41117  1  0  0  0
 41 48  1  0  0  0
 42 43  1  0  0  0
 42 66  1  0  0  0
 42118  1  0  0  0
 42119  1  0  0  0
 43 44  1  0  0  0
 44120  1  0  0  0
 45 46  2  0  0  0
 45121  1  0  0  0
 46122  1  0  0  0
 47123  1  0  0  0
 47124  1  0  0  0
 48 56  1  0  0  0
 48 65  1  0  0  0
 48125  1  0  0  0
 49 50  1  0  0  0
 49 53  1  0  0  0
 49 64  1  0  0  0
 49126  1  0  0  0
 50 51  1  0  0  0
 50127  1  0  0  0
 50128  1  0  0  0
 51 52  1  0  0  0
 51129  1  0  0  0
 51130  1  0  0  0
 52131  1  0  0  0
 52132  1  0  0  0
 53 54  1  0  0  0
 54 55  2  0  0  0
 54133  1  0  0  0
 55 57  1  0  0  0
 55134  1  0  0  0
 56 69  2  0  0  0
 57 58  2  0  0  0
 57135  1  0  0  0
 58136  1  0  0  0
 59 60  1  0  0  0
 59 61  1  0  0  0
 59 62  1  0  0  0
 60137  1  0  0  0
 60138  1  0  0  0
 60139  1  0  0  0
 61140  1  0  0  0
 61141  1  0  0  0
 61142  1  0  0  0
 62143  1  0  0  0
 62144  1  0  0  0
 62145  1  0  0  0
 63 65  1  0  0  0
 63146  1  0  0  0
 63147  1  0  0  0
 63148  1  0  0  0
 64149  1  0  0  0
 65150  1  0  0  0
 68 88  1  0  0  0
 71 73  2  0  0  0
 71 74  1  0  0  0
 71151  1  0  0  0
 72 74  2  0  0  0
 72 75  1  0  0  0
 72152  1  0  0  0
 73 76  1  0  0  0
 73 77  1  0  0  0
 74 85  1  0  0  0
 75 76  2  0  0  0
 75 87  1  0  0  0
 76 91  1  0  0  0
 77 78  1  0  0  0
 77 90  1  0  0  0
 77153  1  0  0  0
 78 79  1  0  0  0
 78 80  1  0  0  0
 78154  1  0  0  0
 79 81  1  0  0  0
 79 91  1  0  0  0
 79155  1  0  0  0
 80156  1  0  0  0
 80157  1  0  0  0
 80158  1  0  0  0
 81159  1  0  0  0
 81160  1  0  0  0
 81161  1  0  0  0
 82162  1  0  0  0
 82163  1  0  0  0
 82164  1  0  0  0
 82 87  1  0  0  0
 83 87  1  0  0  0
 83165  1  0  0  0
 83166  1  0  0  0
 83167  1  0  0  0
 84168  1  0  0  0
 84169  1  0  0  0
 84170  1  0  0  0
 84 88  1  0  0  0
 85 89  1  0  0  0
 85171  1  0  0  0
 85172  1  0  0  0
 86 88  1  0  0  0
 86 90  1  0  0  0
 86173  1  0  0  0
 86174  1  0  0  0
 87175  1  0  0  0
 88176  1  0  0  0
 89177  1  0  0  0
 90178  1  0  0  0
 90179  1  0  0  0
M  CHG  1  90   1
M  ISO  4   1 100  68 101  88 101  89 100
M  END
> <chiral flag>
0

> <version>
0

> <s_m_source_file>
/data/baiqing/PycharmProjects/Reinvent-master-3.2/result/LINK_invent/BTK/process_docking_weight1_custom_sum_contain_oxygen_bond_distance_aromatic_linkinvent_7_9_3/rearranged_h_0154.sdf

> <i_m_source_file_index>
54

> <r_mmod_Potential_Energy-OPLS-2005>
-247.625640869141

> <r_mmod_Stretch_Energy-OPLS-2005>
54.7255363464355

> <r_mmod_Bend_Energy-OPLS-2005>
124.190979003906

> <r_mmod_Torsional_Energy-OPLS-2005>
232.834259033203

> <r_mmod_Improper_Torsional_Energy-OPLS-2005>
4.34556484222412

> <r_mmod_Van_der_Waal_Energy-OPLS-2005>
154.339736938477

> <r_mmod_Electrostatic_Energy-OPLS-2005>
-403.185577392578

> <r_mmod_Solvation_Energy-OPLS-2005>
-434.870208740234

> <b_mmod_Minimization_Converged-OPLS-2005>
0

> <r_mmod_RMS_Derivative-OPLS-2005>
1.86045396327972

$$$$
55
                    3D
 Structure written by MMmdl.
174183  0  0  1  0            999 V2000
  -30.7237  -14.5862   20.4955 C   0  0  0  0  0  0
  -30.4141  -12.3615   19.4383 C   0  0  0  0  0  0
  -29.4942  -12.4892   18.2068 C   0  0  0  0  0  0
  -28.0198  -12.3385   18.6279 C   0  0  0  0  0  0
  -27.6515  -13.2196   19.8522 C   0  0  2  0  0  0
  -28.7005  -13.0991   20.9766 C   0  0  0  0  0  0
  -25.2596  -13.8169   20.5713 C   0  0  0  0  0  0
  -24.1862  -13.0415   20.9174 C   0  0  0  0  0  0
  -24.6429  -11.6898   20.8738 C   0  0  0  0  0  0
  -23.9089  -10.4286   21.0382 C   0  0  0  0  0  0
  -24.3635   -9.4204   21.9177 C   0  0  0  0  0  0
  -23.6297   -8.2256   22.0767 C   0  0  0  0  0  0
  -22.4277   -8.0287   21.3552 C   0  0  0  0  0  0
  -21.9911   -9.0256   20.4659 C   0  0  0  0  0  0
  -22.7258  -10.2126   20.3044 C   0  0  0  0  0  0
  -21.6857   -6.0742   22.5278 C   0  0  0  0  0  0
  -21.4019   -6.5655   23.8215 C   0  0  0  0  0  0
  -21.3650   -5.6805   24.9175 C   0  0  0  0  0  0
  -21.6031   -4.3065   24.7221 C   0  0  0  0  0  0
  -21.8824   -3.8158   23.4350 C   0  0  0  0  0  0
  -21.9207   -4.6974   22.3402 C   0  0  0  0  0  0
  -22.7886  -13.5220   21.1810 C   0  0  0  0  0  0
  -22.1670   -4.2157   21.0981 F   0  0  0  0  0  0
  -21.5623   -3.4550   25.7734 F   0  0  0  0  0  0
  -30.0150  -13.4146   20.3967 N   0  0  0  0  0  0
  -26.3014  -12.9359   20.3319 N   0  0  0  0  0  0
  -25.9367  -11.6506   20.5779 N   0  0  0  0  0  0
  -22.0531  -12.8228   22.0371 N   0  0  0  0  0  0
  -25.4307  -15.1884   20.4187 N   0  0  0  0  0  0
  -31.8910  -14.6403   20.1053 O   0  0  0  0  0  0
  -21.6637   -6.8877   21.4243 O   0  0  0  0  0  0
  -22.3582  -14.5535   20.6659 O   0  0  0  0  0  0
  -24.6258  -31.8607   23.2043 C   0  0  0  0  0  0
  -25.9119  -32.4783   23.8356 C   0  0  1  0  0  0
  -27.2324  -27.3470   20.1027 C   0  0  0  0  0  0
  -25.5956  -33.8580   24.2295 N   0  0  0  0  0  0
  -23.4181  -30.4822   21.5477 C   0  0  2  0  0  0
  -24.8667  -28.9386   20.1132 C   0  0  0  0  0  0
  -22.7470  -29.4630   22.4975 C   0  0  0  0  0  0
  -18.0283  -28.1386   22.8495 C   0  0  0  0  0  0
  -24.1477  -36.7254   23.2630 C   0  0  0  0  0  0
  -25.9577  -30.7958   21.3728 C   0  0  0  0  0  0
  -26.0357  -29.4260   20.7153 C   0  0  0  0  0  0
  -27.2258  -28.6416   20.7012 C   0  0  0  0  0  0
  -26.0447  -26.9023   19.4857 C   0  0  0  0  0  0
  -24.8708  -27.6789   19.4933 C   0  0  0  0  0  0
  -23.6306  -29.8133   20.1652 C   0  0  0  0  0  0
  -25.4097  -36.3068   24.0334 C   0  0  1  0  0  0
  -20.5883  -28.3677   23.1296 C   0  0  2  0  0  0
  -20.6773  -26.9397   22.5421 C   0  0  0  0  0  0
  -19.5751  -26.6378   21.5224 C   0  0  0  0  0  0
  -18.1926  -26.7950   22.1601 C   0  0  0  0  0  0
  -19.1533  -28.8851   23.2891 C   0  0  0  0  0  0
  -18.9457  -30.1458   23.8893 C   0  0  0  0  0  0
  -17.6458  -30.6594   24.0563 C   0  0  0  0  0  0
  -25.9059  -34.9461   23.5112 C   0  0  0  0  0  0
  -16.5344  -29.9084   23.6356 C   0  0  0  0  0  0
  -16.7271  -28.6504   23.0368 C   0  0  0  0  0  0
  -26.4512  -31.6587   25.0719 C   0  0  0  0  0  0
  -25.3753  -31.3704   26.1439 C   0  0  0  0  0  0
  -27.0330  -30.3011   24.6149 C   0  0  0  0  0  0
  -27.6095  -32.4304   25.7481 C   0  0  0  0  0  0
  -27.5608  -37.1722   24.8424 C   0  0  0  0  0  0
  -21.4187  -29.3026   22.3690 N   0  0  0  0  0  0
  -26.4245  -37.3808   23.9496 N   0  0  0  0  0  0
  -24.6861  -31.0622   22.0988 N   0  0  0  0  0  0
  -23.4206  -28.8184   23.3060 O   0  0  0  0  0  0
  -28.3363  -26.4897   20.1052 O   0  0  0  0  0  0
  -26.5618  -34.8930   22.4670 O   0  0  0  0  0  0
  -23.5425  -32.1401   23.7377 O   0  0  0  0  0  0
  -29.9273  -23.3708   21.0310 C   0  0  0  0  0  0
  -28.0779  -22.9905   19.5518 C   0  0  0  0  0  0
  -29.6776  -21.1243   19.9762 C   0  0  0  0  0  0
  -28.7642  -23.8834   20.4095 C   0  0  0  0  0  0
  -30.3782  -22.0328   20.8321 C   0  0  0  0  0  0
  -28.5156  -21.6452   19.3298 C   0  0  0  0  0  0
  -30.4728  -16.9173   18.4929 C   0  0  0  0  0  0
  -31.1943  -18.1162   17.8555 C   0  0  0  0  0  0
  -29.6081  -18.3999   20.3409 C   0  0  0  0  0  0
  -30.2473  -19.6796   19.6528 C   0  0  1  0  0  0
  -30.4204  -17.0604   20.0339 C   0  0  1  0  0  0
  -30.4553  -19.4439   18.1310 C   0  0  1  0  0  0
  -31.6353  -21.6021   21.5732 C   0  0  0  0  0  0
  -29.7601  -16.0102   22.1628 C   0  0  0  0  0  0
  -27.4003  -21.3806   17.2579 C   0  0  0  0  0  0
  -31.2917  -20.6292   16.2113 C   0  0  0  0  0  0
  -28.1308  -25.2452   20.8583 C   0  0  0  0  0  0
  -30.0475  -15.7655   20.7450 N   0  0  0  0  0  0
  -27.7989  -20.8148   18.5016 O   0  0  0  0  0  0
  -31.2074  -20.5478   17.6278 O   0  0  0  0  0  0
  -31.4632  -12.4246   19.1433 H   0  0  0  0  0  0
  -30.3003  -11.3752   19.8919 H   0  0  0  0  0  0
  -29.7464  -11.7295   17.4657 H   0  0  0  0  0  0
  -29.6475  -13.4532   17.7176 H   0  0  0  0  0  0
  -27.8563  -11.2873   18.8685 H   0  0  0  0  0  0
  -27.3560  -12.5589   17.7918 H   0  0  0  0  0  0
  -27.6646  -14.2520   19.5035 H   0  0  0  0  0  0
  -28.7103  -12.0918   21.3938 H   0  0  0  0  0  0
  -28.4394  -13.7592   21.7999 H   0  0  0  0  0  0
  -25.2789   -9.5685   22.4737 H   0  0  0  0  0  0
  -24.0004   -7.4655   22.7503 H   0  0  0  0  0  0
  -21.0831   -8.8776   19.8975 H   0  0  0  0  0  0
  -22.3723  -10.9654   19.6137 H   0  0  0  0  0  0
  -21.2006   -7.6161   23.9717 H   0  0  0  0  0  0
  -21.1462   -6.0536   25.9078 H   0  0  0  0  0  0
  -22.0610   -2.7618   23.2842 H   0  0  0  0  0  0
  -22.4146  -11.9872   22.4744 H   0  0  0  0  0  0
  -21.1161  -13.1267   22.2588 H   0  0  0  0  0  0
  -24.6631  -15.8388   20.5453 H   0  0  0  0  0  0
  -26.2938  -15.6368   20.1377 H   0  0  0  0  0  0
  -26.7196  -32.5456   23.1112 H   0  0  0  0  0  0
  -25.0126  -33.9726   25.0459 H   0  0  0  0  0  0
  -22.7123  -31.3032   21.4040 H   0  0  0  0  0  0
  -23.3816  -35.9496   23.3144 H   0  0  0  0  0  0
  -24.3612  -36.9018   22.2080 H   0  0  0  0  0  0
  -23.7104  -37.6354   23.6738 H   0  0  0  0  0  0
  -26.0848  -31.5587   20.6035 H   0  0  0  0  0  0
  -26.8394  -30.8436   22.0006 H   0  0  0  0  0  0
  -28.1245  -29.0101   21.1756 H   0  0  0  0  0  0
  -26.0200  -25.9325   19.0073 H   0  0  0  0  0  0
  -23.9740  -27.2970   19.0236 H   0  0  0  0  0  0
  -23.7436  -30.5877   19.4064 H   0  0  0  0  0  0
  -22.7509  -29.2380   19.8671 H   0  0  0  0  0  0
  -25.1261  -36.1871   25.0815 H   0  0  0  0  0  0
  -20.9961  -28.3237   24.1419 H   0  0  0  0  0  0
  -20.5662  -26.2290   23.3623 H   0  0  0  0  0  0
  -21.6635  -26.7439   22.1194 H   0  0  0  0  0  0
  -19.6897  -25.6282   21.1258 H   0  0  0  0  0  0
  -19.6715  -27.3195   20.6761 H   0  0  0  0  0  0
  -17.4212  -26.6747   21.3982 H   0  0  0  0  0  0
  -18.0278  -26.0072   22.8968 H   0  0  0  0  0  0
  -19.7927  -30.7281   24.2253 H   0  0  0  0  0  0
  -17.5009  -31.6288   24.5145 H   0  0  0  0  0  0
  -15.5344  -30.2972   23.7702 H   0  0  0  0  0  0
  -15.8669  -28.0823   22.7090 H   0  0  0  0  0  0
  -24.5963  -30.7016   25.7767 H   0  0  0  0  0  0
  -24.8891  -32.2844   26.4860 H   0  0  0  0  0  0
  -25.8072  -30.8898   27.0225 H   0  0  0  0  0  0
  -26.2869  -29.6765   24.1227 H   0  0  0  0  0  0
  -27.4083  -29.7266   25.4627 H   0  0  0  0  0  0
  -27.8724  -30.4287   23.9317 H   0  0  0  0  0  0
  -27.2753  -33.3633   26.2034 H   0  0  0  0  0  0
  -28.3924  -32.6811   25.0313 H   0  0  0  0  0  0
  -28.0746  -31.8432   26.5411 H   0  0  0  0  0  0
  -28.2430  -38.0213   24.7788 H   0  0  0  0  0  0
  -28.1299  -36.2783   24.5830 H   0  0  0  0  0  0
  -27.2394  -37.0824   25.8815 H   0  0  0  0  0  0
  -20.9371  -29.8719   21.6863 H   0  0  0  0  0  0
  -26.0098  -38.2818   24.1712 H   0  0  0  0  0  0
  -30.4650  -24.0110   21.7170 H   0  0  0  0  0  0
  -27.1588  -23.3361   19.1030 H   0  0  0  0  0  0
  -30.9994  -16.0178   18.1778 H   0  0  0  0  0  0
  -29.4629  -16.8323   18.0880 H   0  0  0  0  0  0
  -31.2758  -17.9381   16.7820 H   0  0  0  0  0  0
  -32.2164  -18.1745   18.2334 H   0  0  0  0  0  0
  -28.5718  -18.2858   20.0225 H   0  0  0  0  0  0
  -29.5776  -18.5826   21.4134 H   0  0  0  0  0  0
  -31.2648  -19.6777   20.0316 H   0  0  0  0  0  0
  -31.4422  -17.2555   20.3637 H   0  0  0  0  0  0
  -29.4930  -19.3999   17.6226 H   0  0  0  0  0  0
  -31.9723  -22.3676   22.2726 H   0  0  0  0  0  0
  -32.4510  -21.4190   20.8723 H   0  0  0  0  0  0
  -31.4553  -20.6923   22.1482 H   0  0  0  0  0  0
  -29.8892  -15.1241   22.7879 H   0  0  0  0  0  0
  -28.7386  -16.3653   22.2959 H   0  0  0  0  0  0
  -30.4455  -16.7550   22.5692 H   0  0  0  0  0  0
  -27.0821  -20.5892   16.5799 H   0  0  0  0  0  0
  -28.2332  -21.9015   16.7809 H   0  0  0  0  0  0
  -26.5669  -22.0741   17.3697 H   0  0  0  0  0  0
  -31.6869  -21.6061   15.9297 H   0  0  0  0  0  0
  -30.3166  -20.5134   15.7369 H   0  0  0  0  0  0
  -31.9688  -19.8764   15.8068 H   0  0  0  0  0  0
  -28.4944  -25.4491   21.8661 H   0  0  0  0  0  0
  -27.0676  -25.0429   20.9965 H   0  0  0  0  0  0
  1 25  1  0  0  0
  1 30  2  0  0  0
  1 88  1  0  0  0
  2  3  1  0  0  0
  2 25  1  0  0  0
  2 91  1  0  0  0
  2 92  1  0  0  0
  3  4  1  0  0  0
  3 93  1  0  0  0
  3 94  1  0  0  0
  4  5  1  0  0  0
  4 95  1  0  0  0
  4 96  1  0  0  0
  5  6  1  0  0  0
  5 26  1  0  0  0
  5 97  1  0  0  0
  6 25  1  0  0  0
  6 98  1  0  0  0
  6 99  1  0  0  0
  7  8  2  0  0  0
  7 26  1  0  0  0
  7 29  1  0  0  0
  8  9  1  0  0  0
  8 22  1  0  0  0
  9 10  1  0  0  0
  9 27  2  0  0  0
 10 11  2  0  0  0
 10 15  1  0  0  0
 11 12  1  0  0  0
 11100  1  0  0  0
 12 13  2  0  0  0
 12101  1  0  0  0
 13 14  1  0  0  0
 13 31  1  0  0  0
 14 15  2  0  0  0
 14102  1  0  0  0
 15103  1  0  0  0
 16 17  2  0  0  0
 16 21  1  0  0  0
 16 31  1  0  0  0
 17 18  1  0  0  0
 17104  1  0  0  0
 18 19  2  0  0  0
 18105  1  0  0  0
 19 20  1  0  0  0
 19 24  1  0  0  0
 20 21  2  0  0  0
 20106  1  0  0  0
 21 23  1  0  0  0
 22 28  1  0  0  0
 22 32  2  0  0  0
 26 27  1  0  0  0
 28107  1  0  0  0
 28108  1  0  0  0
 29109  1  0  0  0
 29110  1  0  0  0
 33 34  1  0  0  0
 33 66  1  0  0  0
 33 70  2  0  0  0
 34 36  1  0  0  0
 34 59  1  0  0  0
 34111  1  0  0  0
 35 44  2  0  0  0
 35 45  1  0  0  0
 35 68  1  0  0  0
 36 56  1  0  0  0
 36112  1  0  0  0
 37 39  1  0  0  0
 37 47  1  0  0  0
 37 66  1  0  0  0
 37113  1  0  0  0
 38 43  2  0  0  0
 38 46  1  0  0  0
 38 47  1  0  0  0
 39 64  1  0  0  0
 39 67  2  0  0  0
 40 52  1  0  0  0
 40 53  2  0  0  0
 40 58  1  0  0  0
 41114  1  0  0  0
 41115  1  0  0  0
 41116  1  0  0  0
 41 48  1  0  0  0
 42 43  1  0  0  0
 42 66  1  0  0  0
 42117  1  0  0  0
 42118  1  0  0  0
 43 44  1  0  0  0
 44119  1  0  0  0
 45 46  2  0  0  0
 45120  1  0  0  0
 46121  1  0  0  0
 47122  1  0  0  0
 47123  1  0  0  0
 48 56  1  0  0  0
 48 65  1  0  0  0
 48124  1  0  0  0
 49 50  1  0  0  0
 49 53  1  0  0  0
 49 64  1  0  0  0
 49125  1  0  0  0
 50 51  1  0  0  0
 50126  1  0  0  0
 50127  1  0  0  0
 51 52  1  0  0  0
 51128  1  0  0  0
 51129  1  0  0  0
 52130  1  0  0  0
 52131  1  0  0  0
 53 54  1  0  0  0
 54 55  2  0  0  0
 54132  1  0  0  0
 55 57  1  0  0  0
 55133  1  0  0  0
 56 69  2  0  0  0
 57 58  2  0  0  0
 57134  1  0  0  0
 58135  1  0  0  0
 59 60  1  0  0  0
 59 61  1  0  0  0
 59 62  1  0  0  0
 60136  1  0  0  0
 60137  1  0  0  0
 60138  1  0  0  0
 61139  1  0  0  0
 61140  1  0  0  0
 61141  1  0  0  0
 62142  1  0  0  0
 62143  1  0  0  0
 62144  1  0  0  0
 63 65  1  0  0  0
 63145  1  0  0  0
 63146  1  0  0  0
 63147  1  0  0  0
 64148  1  0  0  0
 65149  1  0  0  0
 68 87  1  0  0  0
 71 74  2  0  0  0
 71 75  1  0  0  0
 71150  1  0  0  0
 72 74  1  0  0  0
 72 76  2  0  0  0
 72151  1  0  0  0
 73 75  2  0  0  0
 73 76  1  0  0  0
 73 80  1  0  0  0
 74 87  1  0  0  0
 75 83  1  0  0  0
 76 89  1  0  0  0
 77 78  1  0  0  0
 77 81  1  0  0  0
 77152  1  0  0  0
 77153  1  0  0  0
 78 82  1  0  0  0
 78154  1  0  0  0
 78155  1  0  0  0
 79 80  1  0  0  0
 79 81  1  0  0  0
 79156  1  0  0  0
 79157  1  0  0  0
 80 82  1  0  0  0
 80158  1  0  0  0
 81 88  1  0  0  0
 81159  1  0  0  0
 82 90  1  0  0  0
 82160  1  0  0  0
 83161  1  0  0  0
 83162  1  0  0  0
 83163  1  0  0  0
 84 88  1  0  0  0
 84164  1  0  0  0
 84165  1  0  0  0
 84166  1  0  0  0
 85 89  1  0  0  0
 85167  1  0  0  0
 85168  1  0  0  0
 85169  1  0  0  0
 86 90  1  0  0  0
 86170  1  0  0  0
 86171  1  0  0  0
 86172  1  0  0  0
 87173  1  0  0  0
 87174  1  0  0  0
M  ISO  4   1 100  68 101  87 101  88 100
M  END
> <chiral flag>
0

> <version>
0

> <s_m_source_file>
/data/baiqing/PycharmProjects/Reinvent-master-3.2/result/LINK_invent/BTK/process_docking_weight1_custom_sum_contain_oxygen_bond_distance_aromatic_linkinvent_7_9_3/rearranged_h_0154.sdf

> <i_m_source_file_index>
55

> <r_mmod_Potential_Energy-OPLS-2005>
308.468444824219

> <r_mmod_Stretch_Energy-OPLS-2005>
84.9376525878906

> <r_mmod_Bend_Energy-OPLS-2005>
153.876525878906

> <r_mmod_Torsional_Energy-OPLS-2005>
340.589050292969

> <r_mmod_Improper_Torsional_Energy-OPLS-2005>
12.6978979110718

> <r_mmod_Van_der_Waal_Energy-OPLS-2005>
159.04475402832

> <r_mmod_Electrostatic_Energy-OPLS-2005>
-283.270111083984

> <r_mmod_Solvation_Energy-OPLS-2005>
-198.721099853516

> <b_mmod_Minimization_Converged-OPLS-2005>
0

> <r_mmod_RMS_Derivative-OPLS-2005>
2.8388032913208

$$$$
56
                    3D
 Structure written by MMmdl.
160168  0  0  1  0            999 V2000
  -30.6088  -14.7356   20.5243 C   0  0  0  0  0  0
  -30.4414  -12.4695   19.4802 C   0  0  0  0  0  0
  -29.5018  -12.4986   18.2532 C   0  0  0  0  0  0
  -28.0306  -12.3177   18.6667 C   0  0  0  0  0  0
  -27.6358  -13.2282   19.8551 C   0  0  2  0  0  0
  -28.6761  -13.1462   20.9930 C   0  0  0  0  0  0
  -25.2441  -13.8234   20.5707 C   0  0  0  0  0  0
  -24.1717  -13.0463   20.9269 C   0  0  0  0  0  0
  -24.6320  -11.6958   20.8800 C   0  0  0  0  0  0
  -23.9007  -10.4319   21.0439 C   0  0  0  0  0  0
  -24.3560   -9.4231   21.9202 C   0  0  0  0  0  0
  -23.6250   -8.2250   22.0739 C   0  0  0  0  0  0
  -22.4229   -8.0280   21.3537 C   0  0  0  0  0  0
  -21.9870   -9.0263   20.4636 C   0  0  0  0  0  0
  -22.7185  -10.2159   20.3075 C   0  0  0  0  0  0
  -21.6849   -6.0719   22.5277 C   0  0  0  0  0  0
  -21.4032   -6.5641   23.8207 C   0  0  0  0  0  0
  -21.3683   -5.6800   24.9177 C   0  0  0  0  0  0
  -21.6048   -4.3060   24.7220 C   0  0  0  0  0  0
  -21.8820   -3.8142   23.4342 C   0  0  0  0  0  0
  -21.9170   -4.6943   22.3394 C   0  0  0  0  0  0
  -22.7751  -13.5233   21.1944 C   0  0  0  0  0  0
  -22.1643   -4.2136   21.0968 F   0  0  0  0  0  0
  -21.5624   -3.4545   25.7730 F   0  0  0  0  0  0
  -29.9825  -13.5116   20.4277 N   0  0  0  0  0  0
  -26.2838  -12.9425   20.3273 N   0  0  0  0  0  0
  -25.9238  -11.6584   20.5803 N   0  0  0  0  0  0
  -22.0387  -12.8199   22.0506 N   0  0  0  0  0  0
  -25.4190  -15.1932   20.4086 N   0  0  0  0  0  0
  -31.7888  -14.8570   20.1862 O   0  0  0  0  0  0
  -21.6626   -6.8852   21.4229 O   0  0  0  0  0  0
  -22.3410  -14.5501   20.6753 O   0  0  0  0  0  0
  -24.6258  -31.8562   23.1931 C   0  0  0  0  0  0
  -25.9105  -32.4757   23.8252 C   0  0  1  0  0  0
  -27.2248  -27.2461   20.1315 C   0  0  0  0  0  0
  -25.5914  -33.8581   24.2121 N   0  0  0  0  0  0
  -23.4223  -30.4722   21.5372 C   0  0  2  0  0  0
  -24.8747  -28.9138   20.0986 C   0  0  0  0  0  0
  -22.7461  -29.4630   22.4914 C   0  0  0  0  0  0
  -18.0307  -28.1332   22.8440 C   0  0  0  0  0  0
  -24.1585  -36.7479   23.2616 C   0  0  0  0  0  0
  -25.9683  -30.7508   21.3870 C   0  0  0  0  0  0
  -26.0352  -29.3711   20.7349 C   0  0  0  0  0  0
  -27.1975  -28.5368   20.7626 C   0  0  0  0  0  0
  -26.0655  -26.8877   19.4134 C   0  0  0  0  0  0
  -24.8959  -27.6776   19.4299 C   0  0  0  0  0  0
  -23.6343  -29.7861   20.1590 C   0  0  0  0  0  0
  -25.4208  -36.3105   24.0204 C   0  0  1  0  0  0
  -20.5879  -28.3704   23.1248 C   0  0  2  0  0  0
  -20.6858  -26.9438   22.5377 C   0  0  0  0  0  0
  -19.5849  -26.6310   21.5200 C   0  0  0  0  0  0
  -18.2002  -26.7872   22.1564 C   0  0  0  0  0  0
  -19.1538  -28.8832   23.2816 C   0  0  0  0  0  0
  -18.9471  -30.1436   23.8802 C   0  0  0  0  0  0
  -17.6471  -30.6541   24.0517 C   0  0  0  0  0  0
  -25.9085  -34.9455   23.4969 C   0  0  0  0  0  0
  -16.5353  -29.9027   23.6305 C   0  0  0  0  0  0
  -16.7292  -28.6446   23.0323 C   0  0  0  0  0  0
  -26.4424  -31.6658   25.0701 C   0  0  0  0  0  0
  -25.3525  -31.3920   26.1327 C   0  0  0  0  0  0
  -27.0340  -30.3040   24.6356 C   0  0  0  0  0  0
  -27.5838  -32.4531   25.7552 C   0  0  0  0  0  0
  -27.5665  -37.1883   24.8377 C   0  0  0  0  0  0
  -21.4168  -29.3085   22.3653 N   0  0  0  0  0  0
  -26.4415  -37.3759   23.9273 N   0  0  0  0  0  0
  -24.6894  -31.0451   22.0952 N   0  0  0  0  0  0
  -23.4179  -28.8168   23.2983 O   0  0  0  0  0  0
  -28.3149  -26.3573   20.2854 O   0  0  0  0  0  0
  -26.5671  -34.8915   22.4547 O   0  0  0  0  0  0
  -23.5409  -32.1457   23.7211 O   0  0  0  0  0  0
  -26.7804  -23.2836   19.6045 C   0  0  0  0  0  0
  -26.2700  -21.9746   19.5980 C   0  0  0  0  0  0
  -28.1195  -23.5883   19.8836 C   0  0  0  0  0  0
  -27.0838  -20.8498   19.9244 C   0  0  0  0  0  0
  -28.9584  -22.4273   20.2040 C   0  0  0  0  0  0
  -28.4835  -21.0302   20.2326 C   0  0  0  0  0  0
  -24.8107  -21.8403   19.1639 C   0  0  0  0  0  0
  -26.3880  -19.4829   19.9319 C   0  0  0  0  0  0
  -30.4279  -22.6931   20.4926 C   0  0  0  0  0  0
  -28.5963  -25.0899   19.5205 C   0  0  0  0  0  0
  -30.2254  -17.3401   20.8833 C   0  0  0  0  0  0
  -29.1477  -18.4630   20.4191 C   0  0  0  0  0  0
  -29.8443  -15.8524   20.8271 N   0  0  0  0  0  0
  -29.3982  -19.9487   20.5383 O   0  0  0  0  0  0
  -31.4657  -12.6467   19.1496 H   0  0  0  0  0  0
  -30.4529  -11.4918   19.9645 H   0  0  0  0  0  0
  -29.7892  -11.7244   17.5410 H   0  0  0  0  0  0
  -29.6109  -13.4520   17.7326 H   0  0  0  0  0  0
  -27.8877  -11.2725   18.9379 H   0  0  0  0  0  0
  -27.3720  -12.4951   17.8172 H   0  0  0  0  0  0
  -27.6358  -14.2484   19.4702 H   0  0  0  0  0  0
  -28.7082  -12.1373   21.4088 H   0  0  0  0  0  0
  -28.3971  -13.8026   21.8187 H   0  0  0  0  0  0
  -25.2678   -9.5712   22.4822 H   0  0  0  0  0  0
  -23.9962   -7.4625   22.7443 H   0  0  0  0  0  0
  -21.0808   -8.8780   19.8921 H   0  0  0  0  0  0
  -22.3615  -10.9705   19.6211 H   0  0  0  0  0  0
  -21.2080   -7.6163   23.9710 H   0  0  0  0  0  0
  -21.1516   -6.0535   25.9078 H   0  0  0  0  0  0
  -22.0582   -2.7599   23.2853 H   0  0  0  0  0  0
  -22.3977  -11.9851   22.4906 H   0  0  0  0  0  0
  -21.1014  -13.1257   22.2724 H   0  0  0  0  0  0
  -24.6721  -15.8651   20.5414 H   0  0  0  0  0  0
  -26.2608  -15.6093   20.0328 H   0  0  0  0  0  0
  -26.7186  -32.5351   23.1003 H   0  0  0  0  0  0
  -24.9931  -33.9701   25.0188 H   0  0  0  0  0  0
  -22.7155  -31.2913   21.3822 H   0  0  0  0  0  0
  -23.3746  -35.9918   23.3221 H   0  0  0  0  0  0
  -24.3678  -36.9299   22.2064 H   0  0  0  0  0  0
  -23.7525  -37.6697   23.6786 H   0  0  0  0  0  0
  -26.1045  -31.4994   20.6058 H   0  0  0  0  0  0
  -26.8508  -30.8067   22.0145 H   0  0  0  0  0  0
  -28.0657  -28.8595   21.3202 H   0  0  0  0  0  0
  -26.0356  -25.9813   18.8401 H   0  0  0  0  0  0
  -24.0115  -27.3273   18.9089 H   0  0  0  0  0  0
  -23.7220  -30.5453   19.3818 H   0  0  0  0  0  0
  -22.7614  -29.1869   19.8902 H   0  0  0  0  0  0
  -25.1470  -36.1896   25.0697 H   0  0  0  0  0  0
  -20.9934  -28.3302   24.1370 H   0  0  0  0  0  0
  -20.5859  -26.2302   23.3558 H   0  0  0  0  0  0
  -21.6735  -26.7552   22.1127 H   0  0  0  0  0  0
  -19.7051  -25.6185   21.1338 H   0  0  0  0  0  0
  -19.6807  -27.2995   20.6626 H   0  0  0  0  0  0
  -17.4308  -26.6575   21.3925 H   0  0  0  0  0  0
  -18.0400  -25.9982   22.8912 H   0  0  0  0  0  0
  -19.7953  -30.7266   24.2125 H   0  0  0  0  0  0
  -17.5046  -31.6213   24.5149 H   0  0  0  0  0  0
  -15.5355  -30.2933   23.7671 H   0  0  0  0  0  0
  -15.8679  -28.0764   22.7089 H   0  0  0  0  0  0
  -24.5526  -30.7515   25.7588 H   0  0  0  0  0  0
  -24.8877  -32.3176   26.4708 H   0  0  0  0  0  0
  -25.7641  -30.8980   27.0120 H   0  0  0  0  0  0
  -26.2989  -29.6718   24.1335 H   0  0  0  0  0  0
  -27.3903  -29.7404   25.4993 H   0  0  0  0  0  0
  -27.8921  -30.4291   23.9745 H   0  0  0  0  0  0
  -27.2261  -33.3798   26.2076 H   0  0  0  0  0  0
  -28.3680  -32.7248   25.0468 H   0  0  0  0  0  0
  -28.0470  -31.8743   26.5560 H   0  0  0  0  0  0
  -28.2525  -38.0314   24.7511 H   0  0  0  0  0  0
  -28.1341  -36.2826   24.6147 H   0  0  0  0  0  0
  -27.2311  -37.1458   25.8750 H   0  0  0  0  0  0
  -20.9292  -29.8858   21.6921 H   0  0  0  0  0  0
  -26.0292  -38.2857   24.1134 H   0  0  0  0  0  0
  -26.1159  -24.0702   19.3065 H   0  0  0  0  0  0
  -24.4086  -22.7912   18.8122 H   0  0  0  0  0  0
  -24.1774  -21.5080   19.9850 H   0  0  0  0  0  0
  -24.6992  -21.1389   18.3359 H   0  0  0  0  0  0
  -25.3354  -19.5038   19.6584 H   0  0  0  0  0  0
  -26.3846  -19.0542   20.9307 H   0  0  0  0  0  0
  -26.8273  -18.7974   19.2140 H   0  0  0  0  0  0
  -30.5372  -23.6262   21.0441 H   0  0  0  0  0  0
  -30.9968  -22.7853   19.5677 H   0  0  0  0  0  0
  -30.8747  -21.9076   21.0998 H   0  0  0  0  0  0
  -29.6845  -25.0584   19.4542 H   0  0  0  0  0  0
  -28.2836  -25.2744   18.4922 H   0  0  0  0  0  0
  -30.4787  -17.5365   21.9259 H   0  0  0  0  0  0
  -31.1504  -17.4895   20.3264 H   0  0  0  0  0  0
  -28.2726  -18.2137   21.0076 H   0  0  0  0  0  0
  -28.9324  -18.2545   19.3716 H   0  0  0  0  0  0
  -28.8964  -15.6401   21.1032 H   0  0  0  0  0  0
  1 25  1  0  0  0
  1 30  2  0  0  0
  1 83  1  0  0  0
  2  3  1  0  0  0
  2 25  1  0  0  0
  2 85  1  0  0  0
  2 86  1  0  0  0
  3  4  1  0  0  0
  3 87  1  0  0  0
  3 88  1  0  0  0
  4  5  1  0  0  0
  4 89  1  0  0  0
  4 90  1  0  0  0
  5  6  1  0  0  0
  5 26  1  0  0  0
  5 91  1  0  0  0
  6 25  1  0  0  0
  6 92  1  0  0  0
  6 93  1  0  0  0
  7  8  2  0  0  0
  7 26  1  0  0  0
  7 29  1  0  0  0
  8  9  1  0  0  0
  8 22  1  0  0  0
  9 10  1  0  0  0
  9 27  2  0  0  0
 10 11  2  0  0  0
 10 15  1  0  0  0
 11 12  1  0  0  0
 11 94  1  0  0  0
 12 13  2  0  0  0
 12 95  1  0  0  0
 13 14  1  0  0  0
 13 31  1  0  0  0
 14 15  2  0  0  0
 14 96  1  0  0  0
 15 97  1  0  0  0
 16 17  2  0  0  0
 16 21  1  0  0  0
 16 31  1  0  0  0
 17 18  1  0  0  0
 17 98  1  0  0  0
 18 19  2  0  0  0
 18 99  1  0  0  0
 19 20  1  0  0  0
 19 24  1  0  0  0
 20 21  2  0  0  0
 20100  1  0  0  0
 21 23  1  0  0  0
 22 28  1  0  0  0
 22 32  2  0  0  0
 26 27  1  0  0  0
 28101  1  0  0  0
 28102  1  0  0  0
 29103  1  0  0  0
 29104  1  0  0  0
 33 34  1  0  0  0
 33 66  1  0  0  0
 33 70  2  0  0  0
 34 36  1  0  0  0
 34 59  1  0  0  0
 34105  1  0  0  0
 35 44  2  0  0  0
 35 45  1  0  0  0
 35 68  1  0  0  0
 36 56  1  0  0  0
 36106  1  0  0  0
 37 39  1  0  0  0
 37 47  1  0  0  0
 37 66  1  0  0  0
 37107  1  0  0  0
 38 43  2  0  0  0
 38 46  1  0  0  0
 38 47  1  0  0  0
 39 64  1  0  0  0
 39 67  2  0  0  0
 40 52  1  0  0  0
 40 53  2  0  0  0
 40 58  1  0  0  0
 41108  1  0  0  0
 41109  1  0  0  0
 41110  1  0  0  0
 41 48  1  0  0  0
 42 43  1  0  0  0
 42 66  1  0  0  0
 42111  1  0  0  0
 42112  1  0  0  0
 43 44  1  0  0  0
 44113  1  0  0  0
 45 46  2  0  0  0
 45114  1  0  0  0
 46115  1  0  0  0
 47116  1  0  0  0
 47117  1  0  0  0
 48 56  1  0  0  0
 48 65  1  0  0  0
 48118  1  0  0  0
 49 50  1  0  0  0
 49 53  1  0  0  0
 49 64  1  0  0  0
 49119  1  0  0  0
 50 51  1  0  0  0
 50120  1  0  0  0
 50121  1  0  0  0
 51 52  1  0  0  0
 51122  1  0  0  0
 51123  1  0  0  0
 52124  1  0  0  0
 52125  1  0  0  0
 53 54  1  0  0  0
 54 55  2  0  0  0
 54126  1  0  0  0
 55 57  1  0  0  0
 55127  1  0  0  0
 56 69  2  0  0  0
 57 58  2  0  0  0
 57128  1  0  0  0
 58129  1  0  0  0
 59 60  1  0  0  0
 59 61  1  0  0  0
 59 62  1  0  0  0
 60130  1  0  0  0
 60131  1  0  0  0
 60132  1  0  0  0
 61133  1  0  0  0
 61134  1  0  0  0
 61135  1  0  0  0
 62136  1  0  0  0
 62137  1  0  0  0
 62138  1  0  0  0
 63 65  1  0  0  0
 63139  1  0  0  0
 63140  1  0  0  0
 63141  1  0  0  0
 64142  1  0  0  0
 65143  1  0  0  0
 68 80  1  0  0  0
 71 72  2  0  0  0
 71 73  1  0  0  0
 71144  1  0  0  0
 72 74  1  0  0  0
 72 77  1  0  0  0
 73 75  2  0  0  0
 73 80  1  0  0  0
 74 76  2  0  0  0
 74 78  1  0  0  0
 75 76  1  0  0  0
 75 79  1  0  0  0
 76 84  1  0  0  0
 77145  1  0  0  0
 77146  1  0  0  0
 77147  1  0  0  0
 78148  1  0  0  0
 78149  1  0  0  0
 78150  1  0  0  0
 79151  1  0  0  0
 79152  1  0  0  0
 79153  1  0  0  0
 80154  1  0  0  0
 80155  1  0  0  0
 81 82  1  0  0  0
 81 83  1  0  0  0
 81156  1  0  0  0
 81157  1  0  0  0
 82 84  1  0  0  0
 82158  1  0  0  0
 82159  1  0  0  0
 83160  1  0  0  0
M  ISO  4   1 100  68 101  80 101  83 100
M  END
> <chiral flag>
0

> <version>
0

> <s_m_source_file>
/data/baiqing/PycharmProjects/Reinvent-master-3.2/result/LINK_invent/BTK/process_docking_weight1_custom_sum_contain_oxygen_bond_distance_aromatic_linkinvent_7_9_3/rearranged_h_0154.sdf

> <i_m_source_file_index>
56

> <r_mmod_Potential_Energy-OPLS-2005>
206.9189453125

> <r_mmod_Stretch_Energy-OPLS-2005>
150.988571166992

> <r_mmod_Bend_Energy-OPLS-2005>
229.481262207031

> <r_mmod_Torsional_Energy-OPLS-2005>
212.533157348633

> <r_mmod_Improper_Torsional_Energy-OPLS-2005>
6.10199594497681

> <r_mmod_Van_der_Waal_Energy-OPLS-2005>
156.325973510742

> <r_mmod_Electrostatic_Energy-OPLS-2005>
-424.9130859375

> <r_mmod_Solvation_Energy-OPLS-2005>
-217.31169128418

> <b_mmod_Minimization_Converged-OPLS-2005>
0

> <r_mmod_RMS_Derivative-OPLS-2005>
5.72980213165283

$$$$
57
                    3D
 Structure written by MMmdl.
164173  0  0  1  0            999 V2000
  -30.6765  -14.5137   20.5301 C   0  0  0  0  0  0
  -30.4276  -12.3233   19.4270 C   0  0  0  0  0  0
  -29.4975  -12.5065   18.2082 C   0  0  0  0  0  0
  -28.0204  -12.3559   18.6227 C   0  0  0  0  0  0
  -27.6591  -13.2078   19.8701 C   0  0  2  0  0  0
  -28.7034  -13.0142   20.9936 C   0  0  0  0  0  0
  -25.2579  -13.8161   20.5660 C   0  0  0  0  0  0
  -24.1826  -13.0436   20.9167 C   0  0  0  0  0  0
  -24.6387  -11.6907   20.8736 C   0  0  0  0  0  0
  -23.9052  -10.4289   21.0401 C   0  0  0  0  0  0
  -24.3611   -9.4212   21.9186 C   0  0  0  0  0  0
  -23.6290   -8.2246   22.0755 C   0  0  0  0  0  0
  -22.4279   -8.0276   21.3538 C   0  0  0  0  0  0
  -21.9902   -9.0246   20.4649 C   0  0  0  0  0  0
  -22.7223  -10.2129   20.3054 C   0  0  0  0  0  0
  -21.6850   -6.0733   22.5281 C   0  0  0  0  0  0
  -21.4010   -6.5637   23.8215 C   0  0  0  0  0  0
  -21.3660   -5.6798   24.9175 C   0  0  0  0  0  0
  -21.6042   -4.3056   24.7227 C   0  0  0  0  0  0
  -21.8824   -3.8143   23.4346 C   0  0  0  0  0  0
  -21.9194   -4.6957   22.3402 C   0  0  0  0  0  0
  -22.7849  -13.5241   21.1837 C   0  0  0  0  0  0
  -22.1664   -4.2142   21.0979 F   0  0  0  0  0  0
  -21.5629   -3.4538   25.7742 F   0  0  0  0  0  0
  -30.0297  -13.3199   20.4328 N   0  0  0  0  0  0
  -26.3006  -12.9326   20.3356 N   0  0  0  0  0  0
  -25.9302  -11.6493   20.5757 N   0  0  0  0  0  0
  -22.0486  -12.8232   22.0396 N   0  0  0  0  0  0
  -25.4297  -15.1874   20.4048 N   0  0  0  0  0  0
  -31.8376  -14.6721   20.1456 O   0  0  0  0  0  0
  -21.6635   -6.8873   21.4239 O   0  0  0  0  0  0
  -22.3541  -14.5548   20.6688 O   0  0  0  0  0  0
  -24.6191  -31.8664   23.2083 C   0  0  0  0  0  0
  -25.9073  -32.4815   23.8386 C   0  0  1  0  0  0
  -27.2285  -27.3933   20.0966 C   0  0  0  0  0  0
  -25.5930  -33.8612   24.2325 N   0  0  0  0  0  0
  -23.4068  -30.4913   21.5491 C   0  0  2  0  0  0
  -24.8501  -28.9519   20.1187 C   0  0  0  0  0  0
  -22.7425  -29.4662   22.4966 C   0  0  0  0  0  0
  -18.0284  -28.1376   22.8479 C   0  0  0  0  0  0
  -24.1506  -36.7314   23.2640 C   0  0  0  0  0  0
  -25.9424  -30.8167   21.3713 C   0  0  0  0  0  0
  -26.0149  -29.4502   20.7134 C   0  0  0  0  0  0
  -27.2042  -28.6806   20.6941 C   0  0  0  0  0  0
  -26.0363  -26.9174   19.5023 C   0  0  0  0  0  0
  -24.8586  -27.6864   19.5124 C   0  0  0  0  0  0
  -23.6179  -29.8266   20.1644 C   0  0  0  0  0  0
  -25.4135  -36.3108   24.0328 C   0  0  1  0  0  0
  -20.5877  -28.3676   23.1293 C   0  0  2  0  0  0
  -20.6780  -26.9407   22.5408 C   0  0  0  0  0  0
  -19.5767  -26.6376   21.5202 C   0  0  0  0  0  0
  -18.1941  -26.7919   22.1604 C   0  0  0  0  0  0
  -19.1533  -28.8843   23.2884 C   0  0  0  0  0  0
  -18.9459  -30.1444   23.8902 C   0  0  0  0  0  0
  -17.6464  -30.6584   24.0558 C   0  0  0  0  0  0
  -25.9057  -34.9464   23.5122 C   0  0  0  0  0  0
  -16.5356  -29.9084   23.6324 C   0  0  0  0  0  0
  -16.7269  -28.6497   23.0345 C   0  0  0  0  0  0
  -26.4488  -31.6609   25.0732 C   0  0  0  0  0  0
  -25.3732  -31.3720   26.1466 C   0  0  0  0  0  0
  -27.0350  -30.3048   24.6167 C   0  0  0  0  0  0
  -27.6052  -32.4337   25.7492 C   0  0  0  0  0  0
  -27.5594  -37.1829   24.8468 C   0  0  0  0  0  0
  -21.4154  -29.3042   22.3686 N   0  0  0  0  0  0
  -26.4323  -37.3789   23.9378 N   0  0  0  0  0  0
  -24.6735  -31.0755   22.0992 N   0  0  0  0  0  0
  -23.4185  -28.8201   23.3016 O   0  0  0  0  0  0
  -28.4155  -26.6714   20.0928 O   0  0  0  0  0  0
  -26.5601  -34.8911   22.4674 O   0  0  0  0  0  0
  -23.5379  -32.1428   23.7451 O   0  0  0  0  0  0
  -30.4390  -21.2712   20.7972 C   0  0  0  0  0  0
  -30.5178  -23.6731   19.9228 C   0  0  0  0  0  0
  -28.3956  -22.9083   21.0870 C   0  0  0  0  0  0
  -29.7905  -24.8525   19.2381 C   0  0  0  0  0  0
  -28.2064  -24.4552   21.2057 C   0  0  0  0  0  0
  -28.8243  -17.8049   20.9462 C   0  0  0  0  0  0
  -30.9791  -17.6246   19.8228 C   0  0  0  0  0  0
  -28.9672  -19.3500   21.0804 C   0  0  0  0  0  0
  -31.3072  -19.1050   20.1181 C   0  0  0  0  0  0
  -29.5996  -22.4489   20.2055 C   0  0  2  0  0  0
  -30.1506  -17.0154   20.9654 C   0  0  0  0  0  0
  -28.4376  -25.2330   19.8832 C   0  0  1  0  0  0
  -30.1616  -19.9767   20.4721 N   0  0  0  0  0  0
  -29.8918  -15.5535   20.8914 N   0  0  0  0  0  0
  -31.4583  -21.5514   21.4385 O   0  0  0  0  0  0
  -31.4704  -12.4293   19.1249 H   0  0  0  0  0  0
  -30.3343  -11.3153   19.8357 H   0  0  0  0  0  0
  -29.7459  -11.7838   17.4309 H   0  0  0  0  0  0
  -29.6560  -13.4920   17.7693 H   0  0  0  0  0  0
  -27.8417  -11.3002   18.8334 H   0  0  0  0  0  0
  -27.3672  -12.6135   17.7894 H   0  0  0  0  0  0
  -27.6947  -14.2495   19.5546 H   0  0  0  0  0  0
  -28.6830  -11.9851   21.3590 H   0  0  0  0  0  0
  -28.4671  -13.6364   21.8580 H   0  0  0  0  0  0
  -25.2762   -9.5685   22.4760 H   0  0  0  0  0  0
  -24.0001   -7.4632   22.7471 H   0  0  0  0  0  0
  -21.0841   -8.8766   19.8947 H   0  0  0  0  0  0
  -22.3693  -10.9668   19.6161 H   0  0  0  0  0  0
  -21.2002   -7.6148   23.9712 H   0  0  0  0  0  0
  -21.1477   -6.0525   25.9080 H   0  0  0  0  0  0
  -22.0601   -2.7605   23.2853 H   0  0  0  0  0  0
  -22.4114  -11.9909   22.4803 H   0  0  0  0  0  0
  -21.1102  -13.1243   22.2583 H   0  0  0  0  0  0
  -24.6567  -15.8390   20.4866 H   0  0  0  0  0  0
  -26.2800  -15.6229   20.0715 H   0  0  0  0  0  0
  -26.7137  -32.5522   23.1134 H   0  0  0  0  0  0
  -25.0118  -33.9772   25.0496 H   0  0  0  0  0  0
  -22.6984  -31.3105   21.4104 H   0  0  0  0  0  0
  -23.3760  -35.9659   23.3323 H   0  0  0  0  0  0
  -24.3599  -36.8911   22.2053 H   0  0  0  0  0  0
  -23.7262  -37.6520   23.6650 H   0  0  0  0  0  0
  -26.0833  -31.5851   20.6102 H   0  0  0  0  0  0
  -26.8179  -30.8527   22.0072 H   0  0  0  0  0  0
  -28.1060  -29.0669   21.1500 H   0  0  0  0  0  0
  -25.9726  -25.9603   19.0114 H   0  0  0  0  0  0
  -23.9616  -27.2974   19.0481 H   0  0  0  0  0  0
  -23.7380  -30.6022   19.4068 H   0  0  0  0  0  0
  -22.7382  -29.2561   19.8605 H   0  0  0  0  0  0
  -25.1321  -36.1973   25.0822 H   0  0  0  0  0  0
  -20.9983  -28.3258   24.1409 H   0  0  0  0  0  0
  -20.5705  -26.2291   23.3600 H   0  0  0  0  0  0
  -21.6650  -26.7469   22.1198 H   0  0  0  0  0  0
  -19.6935  -25.6286   21.1242 H   0  0  0  0  0  0
  -19.6702  -27.3169   20.6720 H   0  0  0  0  0  0
  -17.4215  -26.6653   21.4004 H   0  0  0  0  0  0
  -18.0352  -26.0067   22.9015 H   0  0  0  0  0  0
  -19.7945  -30.7245   24.2283 H   0  0  0  0  0  0
  -17.5028  -31.6267   24.5148 H   0  0  0  0  0  0
  -15.5359  -30.2982   23.7654 H   0  0  0  0  0  0
  -15.8671  -28.0810   22.7068 H   0  0  0  0  0  0
  -24.5875  -30.7130   25.7769 H   0  0  0  0  0  0
  -24.8983  -32.2892   26.4959 H   0  0  0  0  0  0
  -25.8053  -30.8822   27.0201 H   0  0  0  0  0  0
  -26.2926  -29.6763   24.1255 H   0  0  0  0  0  0
  -27.4138  -29.7342   25.4656 H   0  0  0  0  0  0
  -27.8747  -30.4361   23.9337 H   0  0  0  0  0  0
  -27.2658  -33.3605   26.2125 H   0  0  0  0  0  0
  -28.3822  -32.6952   25.0297 H   0  0  0  0  0  0
  -28.0779  -31.8448   26.5363 H   0  0  0  0  0  0
  -28.2637  -38.0103   24.7487 H   0  0  0  0  0  0
  -28.1064  -36.2632   24.6344 H   0  0  0  0  0  0
  -27.2305  -37.1530   25.8871 H   0  0  0  0  0  0
  -20.9320  -29.8761   21.6897 H   0  0  0  0  0  0
  -26.0217  -38.2880   24.1322 H   0  0  0  0  0  0
  -31.3799  -23.3854   19.3179 H   0  0  0  0  0  0
  -30.9365  -24.0308   20.8674 H   0  0  0  0  0  0
  -27.4835  -22.4809   20.6658 H   0  0  0  0  0  0
  -28.4701  -22.4842   22.0903 H   0  0  0  0  0  0
  -29.6248  -24.6043   18.1873 H   0  0  0  0  0  0
  -30.4554  -25.7181   19.2287 H   0  0  0  0  0  0
  -28.9022  -24.8342   21.9544 H   0  0  0  0  0  0
  -27.2094  -24.6707   21.5898 H   0  0  0  0  0  0
  -28.3059  -17.5923   20.0101 H   0  0  0  0  0  0
  -28.1566  -17.4440   21.7295 H   0  0  0  0  0  0
  -31.9243  -17.1045   19.6847 H   0  0  0  0  0  0
  -30.4459  -17.5378   18.8735 H   0  0  0  0  0  0
  -28.9904  -19.5836   22.1475 H   0  0  0  0  0  0
  -28.0686  -19.8303   20.6904 H   0  0  0  0  0  0
  -31.8204  -19.5267   19.2527 H   0  0  0  0  0  0
  -32.0368  -19.1238   20.9303 H   0  0  0  0  0  0
  -29.2131  -22.1073   19.2467 H   0  0  0  0  0  0
  -30.6678  -17.1950   21.9115 H   0  0  0  0  0  0
  -27.6877  -24.9038   19.1698 H   0  0  0  0  0  0
  -28.9627  -15.2769   21.1694 H   0  0  0  0  0  0
  1 25  1  0  0  0
  1 30  2  0  0  0
  1 84  1  0  0  0
  2  3  1  0  0  0
  2 25  1  0  0  0
  2 86  1  0  0  0
  2 87  1  0  0  0
  3  4  1  0  0  0
  3 88  1  0  0  0
  3 89  1  0  0  0
  4  5  1  0  0  0
  4 90  1  0  0  0
  4 91  1  0  0  0
  5  6  1  0  0  0
  5 26  1  0  0  0
  5 92  1  0  0  0
  6 25  1  0  0  0
  6 93  1  0  0  0
  6 94  1  0  0  0
  7  8  2  0  0  0
  7 26  1  0  0  0
  7 29  1  0  0  0
  8  9  1  0  0  0
  8 22  1  0  0  0
  9 10  1  0  0  0
  9 27  2  0  0  0
 10 11  2  0  0  0
 10 15  1  0  0  0
 11 12  1  0  0  0
 11 95  1  0  0  0
 12 13  2  0  0  0
 12 96  1  0  0  0
 13 14  1  0  0  0
 13 31  1  0  0  0
 14 15  2  0  0  0
 14 97  1  0  0  0
 15 98  1  0  0  0
 16 17  2  0  0  0
 16 21  1  0  0  0
 16 31  1  0  0  0
 17 18  1  0  0  0
 17 99  1  0  0  0
 18 19  2  0  0  0
 18100  1  0  0  0
 19 20  1  0  0  0
 19 24  1  0  0  0
 20 21  2  0  0  0
 20101  1  0  0  0
 21 23  1  0  0  0
 22 28  1  0  0  0
 22 32  2  0  0  0
 26 27  1  0  0  0
 28102  1  0  0  0
 28103  1  0  0  0
 29104  1  0  0  0
 29105  1  0  0  0
 33 34  1  0  0  0
 33 66  1  0  0  0
 33 70  2  0  0  0
 34 36  1  0  0  0
 34 59  1  0  0  0
 34106  1  0  0  0
 35 44  2  0  0  0
 35 45  1  0  0  0
 35 68  1  0  0  0
 36 56  1  0  0  0
 36107  1  0  0  0
 37 39  1  0  0  0
 37 47  1  0  0  0
 37 66  1  0  0  0
 37108  1  0  0  0
 38 43  2  0  0  0
 38 46  1  0  0  0
 38 47  1  0  0  0
 39 64  1  0  0  0
 39 67  2  0  0  0
 40 52  1  0  0  0
 40 53  2  0  0  0
 40 58  1  0  0  0
 41109  1  0  0  0
 41110  1  0  0  0
 41111  1  0  0  0
 41 48  1  0  0  0
 42 43  1  0  0  0
 42 66  1  0  0  0
 42112  1  0  0  0
 42113  1  0  0  0
 43 44  1  0  0  0
 44114  1  0  0  0
 45 46  2  0  0  0
 45115  1  0  0  0
 46116  1  0  0  0
 47117  1  0  0  0
 47118  1  0  0  0
 48 56  1  0  0  0
 48 65  1  0  0  0
 48119  1  0  0  0
 49 50  1  0  0  0
 49 53  1  0  0  0
 49 64  1  0  0  0
 49120  1  0  0  0
 50 51  1  0  0  0
 50121  1  0  0  0
 50122  1  0  0  0
 51 52  1  0  0  0
 51123  1  0  0  0
 51124  1  0  0  0
 52125  1  0  0  0
 52126  1  0  0  0
 53 54  1  0  0  0
 54 55  2  0  0  0
 54127  1  0  0  0
 55 57  1  0  0  0
 55128  1  0  0  0
 56 69  2  0  0  0
 57 58  2  0  0  0
 57129  1  0  0  0
 58130  1  0  0  0
 59 60  1  0  0  0
 59 61  1  0  0  0
 59 62  1  0  0  0
 60131  1  0  0  0
 60132  1  0  0  0
 60133  1  0  0  0
 61134  1  0  0  0
 61135  1  0  0  0
 61136  1  0  0  0
 62137  1  0  0  0
 62138  1  0  0  0
 62139  1  0  0  0
 63 65  1  0  0  0
 63140  1  0  0  0
 63141  1  0  0  0
 63142  1  0  0  0
 64143  1  0  0  0
 65144  1  0  0  0
 68 82  1  0  0  0
 71 83  1  0  0  0
 71 85  2  0  0  0
 71 80  1  0  0  0
 72 74  1  0  0  0
 72 80  1  0  0  0
 72145  1  0  0  0
 72146  1  0  0  0
 73 75  1  0  0  0
 73 80  1  0  0  0
 73147  1  0  0  0
 73148  1  0  0  0
 74 82  1  0  0  0
 74149  1  0  0  0
 74150  1  0  0  0
 75 82  1  0  0  0
 75151  1  0  0  0
 75152  1  0  0  0
 76 78  1  0  0  0
 76 81  1  0  0  0
 76153  1  0  0  0
 76154  1  0  0  0
 77 79  1  0  0  0
 77 81  1  0  0  0
 77155  1  0  0  0
 77156  1  0  0  0
 78 83  1  0  0  0
 78157  1  0  0  0
 78158  1  0  0  0
 79 83  1  0  0  0
 79159  1  0  0  0
 79160  1  0  0  0
 80161  1  0  0  0
 81 84  1  0  0  0
 81162  1  0  0  0
 82163  1  0  0  0
 84164  1  0  0  0
M  ISO  4   1 100  68 101  82 101  84 100
M  END
> <chiral flag>
0

> <version>
0

> <s_m_source_file>
/data/baiqing/PycharmProjects/Reinvent-master-3.2/result/LINK_invent/BTK/process_docking_weight1_custom_sum_contain_oxygen_bond_distance_aromatic_linkinvent_7_9_3/rearranged_h_0154.sdf

> <i_m_source_file_index>
57

> <r_mmod_Potential_Energy-OPLS-2005>
144.327331542969

> <r_mmod_Stretch_Energy-OPLS-2005>
49.5029945373535

> <r_mmod_Bend_Energy-OPLS-2005>
133.309875488281

> <r_mmod_Torsional_Energy-OPLS-2005>
353.438262939453

> <r_mmod_Improper_Torsional_Energy-OPLS-2005>
8.27150249481201

> <r_mmod_Van_der_Waal_Energy-OPLS-2005>
149.653671264648

> <r_mmod_Electrostatic_Energy-OPLS-2005>
-341.894500732422

> <r_mmod_Solvation_Energy-OPLS-2005>
-227.240753173828

> <b_mmod_Minimization_Converged-OPLS-2005>
0

> <r_mmod_RMS_Derivative-OPLS-2005>
3.6594705581665

$$$$
58
                    3D
 Structure written by MMmdl.
177187  0  0  1  0            999 V2000
  -30.7571  -14.5119   20.3371 C   0  0  0  0  0  0
  -30.3573  -12.2694   19.4210 C   0  0  0  0  0  0
  -29.4534  -12.4016   18.1861 C   0  0  0  0  0  0
  -27.9734  -12.2587   18.6075 C   0  0  0  0  0  0
  -27.6003  -13.1667   19.8033 C   0  0  2  0  0  0
  -28.6720  -13.1534   20.9186 C   0  0  0  0  0  0
  -25.2292  -13.7909   20.5703 C   0  0  0  0  0  0
  -24.1613  -13.0251   20.9220 C   0  0  0  0  0  0
  -24.6154  -11.6705   20.8775 C   0  0  0  0  0  0
  -23.8765  -10.4130   21.0447 C   0  0  0  0  0  0
  -24.3302   -9.4044   21.9271 C   0  0  0  0  0  0
  -23.5991   -8.2082   22.0833 C   0  0  0  0  0  0
  -22.4012   -8.0102   21.3561 C   0  0  0  0  0  0
  -21.9583   -9.0077   20.4691 C   0  0  0  0  0  0
  -22.6904  -10.1967   20.3083 C   0  0  0  0  0  0
  -21.6785   -6.0554   22.5257 C   0  0  0  0  0  0
  -21.4009   -6.5515   23.8176 C   0  0  0  0  0  0
  -21.3678   -5.6726   24.9175 C   0  0  0  0  0  0
  -21.6025   -4.2977   24.7274 C   0  0  0  0  0  0
  -21.8799   -3.8005   23.4432 C   0  0  0  0  0  0
  -21.9135   -4.6769   22.3430 C   0  0  0  0  0  0
  -22.7690  -13.5123   21.1953 C   0  0  0  0  0  0
  -22.1635   -4.1935   21.1024 F   0  0  0  0  0  0
  -21.5564   -3.4465   25.7794 F   0  0  0  0  0  0
  -29.9804  -13.3899   20.2955 N   0  0  0  0  0  0
  -26.2650  -12.9029   20.3198 N   0  0  0  0  0  0
  -25.9055  -11.6244   20.5735 N   0  0  0  0  0  0
  -22.0300  -12.8207   22.0516 N   0  0  0  0  0  0
  -25.3874  -15.1657   20.4194 N   0  0  0  0  0  0
  -31.9819  -14.4267   20.2910 O   0  0  0  0  0  0
  -21.6482   -6.8653   21.4208 O   0  0  0  0  0  0
  -22.3495  -14.5524   20.6840 O   0  0  0  0  0  0
  -24.6095  -31.8781   23.2182 C   0  0  0  0  0  0
  -25.9057  -32.4851   23.8422 C   0  0  1  0  0  0
  -27.1692  -27.4901   20.0573 C   0  0  0  0  0  0
  -25.5972  -33.8643   24.2376 N   0  0  0  0  0  0
  -23.3810  -30.5164   21.5632 C   0  0  2  0  0  0
  -24.8014  -28.9837   20.1201 C   0  0  0  0  0  0
  -22.7348  -29.4749   22.5038 C   0  0  0  0  0  0
  -18.0230  -28.1386   22.8456 C   0  0  0  0  0  0
  -24.1501  -36.7304   23.2629 C   0  0  0  0  0  0
  -25.9067  -30.8554   21.3588 C   0  0  0  0  0  0
  -25.9659  -29.4962   20.7081 C   0  0  0  0  0  0
  -27.1586  -28.7538   20.6681 C   0  0  0  0  0  0
  -25.9901  -26.9639   19.4909 C   0  0  0  0  0  0
  -24.8025  -27.7131   19.5231 C   0  0  0  0  0  0
  -23.5765  -29.8663   20.1719 C   0  0  0  0  0  0
  -25.4099  -36.3103   24.0355 C   0  0  1  0  0  0
  -20.5808  -28.3655   23.1345 C   0  0  2  0  0  0
  -20.6739  -26.9418   22.5395 C   0  0  0  0  0  0
  -19.5732  -26.6414   21.5173 C   0  0  0  0  0  0
  -18.1898  -26.7951   22.1575 C   0  0  0  0  0  0
  -19.1466  -28.8816   23.2922 C   0  0  0  0  0  0
  -18.9418  -30.1422   23.8936 C   0  0  0  0  0  0
  -17.6431  -30.6601   24.0538 C   0  0  0  0  0  0
  -25.9049  -34.9494   23.5140 C   0  0  0  0  0  0
  -16.5321  -29.9095   23.6340 C   0  0  0  0  0  0
  -16.7220  -28.6519   23.0341 C   0  0  0  0  0  0
  -26.4485  -31.6578   25.0713 C   0  0  0  0  0  0
  -25.3796  -31.3706   26.1520 C   0  0  0  0  0  0
  -27.0243  -30.3005   24.6039 C   0  0  0  0  0  0
  -27.6148  -32.4213   25.7421 C   0  0  0  0  0  0
  -27.5620  -37.1750   24.8415 C   0  0  0  0  0  0
  -21.4062  -29.3053   22.3776 N   0  0  0  0  0  0
  -26.4248  -37.3829   23.9482 N   0  0  0  0  0  0
  -24.6532  -31.0959   22.1067 N   0  0  0  0  0  0
  -23.4165  -28.8262   23.3020 O   0  0  0  0  0  0
  -28.3703  -26.8766   19.9084 O   0  0  0  0  0  0
  -26.5581  -34.8946   22.4687 O   0  0  0  0  0  0
  -23.5323  -32.1516   23.7650 O   0  0  0  0  0  0
  -31.5798  -21.5854   18.4231 C   0  0  0  0  0  0
  -31.6231  -21.5815   20.8534 C   0  0  0  0  0  0
  -31.2392  -22.1901   19.6466 C   0  0  0  0  0  0
  -32.2537  -20.3500   18.3989 C   0  0  0  0  0  0
  -32.2902  -20.3494   20.8522 C   0  0  0  0  0  0
  -32.5189  -19.6812   19.6215 C   0  0  0  0  0  0
  -28.9422  -17.7211   19.5941 C   0  0  0  0  0  0
  -30.7632  -24.3915   20.8469 C   0  0  0  0  0  0
  -28.9449  -23.1891   19.5958 C   0  0  0  0  0  0
  -30.0830  -25.7251   20.6209 C   0  0  0  0  0  0
  -28.1334  -24.4835   19.4417 C   0  0  0  0  0  0
  -30.0748  -17.7006   18.5954 C   0  0  0  0  0  0
  -28.8646  -16.2435   19.9475 C   0  0  0  0  0  0
  -30.4527  -23.4795   19.6441 C   0  0  2  0  0  0
  -28.5670  -25.5912   20.4358 C   0  0  2  0  0  0
  -31.0779  -16.7338   19.2370 C   0  0  1  0  0  0
  -32.6079  -19.7350   17.0517 C   0  0  0  0  0  0
  -32.7281  -19.7810   22.1956 C   0  0  0  0  0  0
  -31.9777  -17.4728   20.2552 C   0  0  0  0  0  0
  -30.2303  -15.7026   19.8877 N   0  0  0  0  0  0
  -32.9038  -18.3607   19.5987 O   0  0  0  0  0  0
  -31.4101  -12.2552   19.1457 H   0  0  0  0  0  0
  -30.1608  -11.3111   19.9088 H   0  0  0  0  0  0
  -29.7003  -11.6247   17.4623 H   0  0  0  0  0  0
  -29.6214  -13.3573   17.6749 H   0  0  0  0  0  0
  -27.8195  -11.2187   18.8924 H   0  0  0  0  0  0
  -27.3093  -12.4321   17.7559 H   0  0  0  0  0  0
  -27.5126  -14.1321   19.3516 H   0  0  0  0  0  0
  -28.6626  -12.1820   21.4177 H   0  0  0  0  0  0
  -28.4620  -13.9125   21.6706 H   0  0  0  0  0  0
  -25.2431   -9.5449   22.4889 H   0  0  0  0  0  0
  -23.9611   -7.4447   22.7593 H   0  0  0  0  0  0
  -21.0480   -8.8494   19.9042 H   0  0  0  0  0  0
  -22.3306  -10.9430   19.6138 H   0  0  0  0  0  0
  -21.2150   -7.6041   23.9595 H   0  0  0  0  0  0
  -21.1514   -6.0529   25.9072 H   0  0  0  0  0  0
  -22.0589   -2.7443   23.3018 H   0  0  0  0  0  0
  -22.3688  -11.9698   22.4763 H   0  0  0  0  0  0
  -21.1055  -13.1528   22.2894 H   0  0  0  0  0  0
  -24.6057  -15.7898   20.5786 H   0  0  0  0  0  0
  -26.2291  -15.6339   20.1182 H   0  0  0  0  0  0
  -26.7102  -32.5547   23.1164 H   0  0  0  0  0  0
  -25.0205  -33.9826   25.0567 H   0  0  0  0  0  0
  -22.6672  -31.3343   21.4471 H   0  0  0  0  0  0
  -23.3800  -35.9587   23.3161 H   0  0  0  0  0  0
  -24.3656  -36.9033   22.2066 H   0  0  0  0  0  0
  -23.7175  -37.6451   23.6694 H   0  0  0  0  0  0
  -26.0203  -31.6228   20.5906 H   0  0  0  0  0  0
  -26.8002  -30.8975   21.9710 H   0  0  0  0  0  0
  -28.0747  -29.1613   21.0717 H   0  0  0  0  0  0
  -25.9797  -26.0179   18.9721 H   0  0  0  0  0  0
  -23.8992  -27.3259   19.0664 H   0  0  0  0  0  0
  -23.7034  -30.6555   19.4310 H   0  0  0  0  0  0
  -22.6860  -29.3147   19.8618 H   0  0  0  0  0  0
  -25.1224  -36.1950   25.0826 H   0  0  0  0  0  0
  -20.9876  -28.3204   24.1481 H   0  0  0  0  0  0
  -20.5658  -26.2249   23.3554 H   0  0  0  0  0  0
  -21.6634  -26.7523   22.1193 H   0  0  0  0  0  0
  -19.6931  -25.6329   21.1195 H   0  0  0  0  0  0
  -19.6711  -27.3231   20.6702 H   0  0  0  0  0  0
  -17.4190  -26.6670   21.3962 H   0  0  0  0  0  0
  -18.0327  -26.0078   22.8954 H   0  0  0  0  0  0
  -19.7894  -30.7188   24.2394 H   0  0  0  0  0  0
  -17.5006  -31.6320   24.5091 H   0  0  0  0  0  0
  -15.5320  -30.3007   23.7704 H   0  0  0  0  0  0
  -15.8609  -28.0874   22.7049 H   0  0  0  0  0  0
  -24.5857  -30.7190   25.7842 H   0  0  0  0  0  0
  -24.9149  -32.2895   26.5111 H   0  0  0  0  0  0
  -25.8183  -30.8712   27.0176 H   0  0  0  0  0  0
  -26.2699  -29.6761   24.1245 H   0  0  0  0  0  0
  -27.4153  -29.7259   25.4444 H   0  0  0  0  0  0
  -27.8499  -30.4272   23.9038 H   0  0  0  0  0  0
  -27.2918  -33.3598   26.1943 H   0  0  0  0  0  0
  -28.4000  -32.6597   25.0226 H   0  0  0  0  0  0
  -28.0759  -31.8321   26.5369 H   0  0  0  0  0  0
  -28.2438  -38.0230   24.7740 H   0  0  0  0  0  0
  -28.1292  -36.2797   24.5830 H   0  0  0  0  0  0
  -27.2425  -37.0921   25.8816 H   0  0  0  0  0  0
  -20.9193  -29.8779   21.7027 H   0  0  0  0  0  0
  -26.0121  -38.2862   24.1634 H   0  0  0  0  0  0
  -31.2711  -22.0473   17.4940 H   0  0  0  0  0  0
  -31.3870  -22.0405   21.8010 H   0  0  0  0  0  0
  -28.0281  -18.1419   19.1831 H   0  0  0  0  0  0
  -29.2035  -18.3253   20.4610 H   0  0  0  0  0  0
  -30.4027  -23.9658   21.7853 H   0  0  0  0  0  0
  -31.8392  -24.5502   20.9562 H   0  0  0  0  0  0
  -28.7100  -22.5269   18.7622 H   0  0  0  0  0  0
  -28.6442  -22.6598   20.5025 H   0  0  0  0  0  0
  -30.5300  -26.1763   19.7321 H   0  0  0  0  0  0
  -30.2901  -26.4073   21.4424 H   0  0  0  0  0  0
  -27.0781  -24.2414   19.5896 H   0  0  0  0  0  0
  -28.2267  -24.8469   18.4183 H   0  0  0  0  0  0
  -30.4212  -18.7062   18.4107 H   0  0  0  0  0  0
  -29.7438  -17.2992   17.6363 H   0  0  0  0  0  0
  -28.3082  -15.8728   19.0966 H   0  0  0  0  0  0
  -28.3336  -16.0450   20.8761 H   0  0  0  0  0  0
  -30.7356  -24.0153   18.7369 H   0  0  0  0  0  0
  -28.0759  -25.4527   21.4025 H   0  0  0  0  0  0
  -31.7100  -16.2797   18.4690 H   0  0  0  0  0  0
  -33.6380  -19.3844   17.0482 H   0  0  0  0  0  0
  -32.5102  -20.4673   16.2457 H   0  0  0  0  0  0
  -31.9715  -18.8861   16.8174 H   0  0  0  0  0  0
  -33.2057  -20.5633   22.7852 H   0  0  0  0  0  0
  -33.4523  -18.9763   22.0770 H   0  0  0  0  0  0
  -31.8742  -19.4036   22.7621 H   0  0  0  0  0  0
  -32.5354  -16.7925   20.8995 H   0  0  0  0  0  0
  -31.3136  -17.9949   20.9344 H   0  0  0  0  0  0
  1 25  1  0  0  0
  1 30  2  0  0  0
  1 90  1  0  0  0
  2  3  1  0  0  0
  2 25  1  0  0  0
  2 92  1  0  0  0
  2 93  1  0  0  0
  3  4  1  0  0  0
  3 94  1  0  0  0
  3 95  1  0  0  0
  4  5  1  0  0  0
  4 96  1  0  0  0
  4 97  1  0  0  0
  5  6  1  0  0  0
  5 26  1  0  0  0
  5 98  1  0  0  0
  6 25  1  0  0  0
  6 99  1  0  0  0
  6100  1  0  0  0
  7  8  2  0  0  0
  7 26  1  0  0  0
  7 29  1  0  0  0
  8  9  1  0  0  0
  8 22  1  0  0  0
  9 10  1  0  0  0
  9 27  2  0  0  0
 10 11  2  0  0  0
 10 15  1  0  0  0
 11 12  1  0  0  0
 11101  1  0  0  0
 12 13  2  0  0  0
 12102  1  0  0  0
 13 14  1  0  0  0
 13 31  1  0  0  0
 14 15  2  0  0  0
 14103  1  0  0  0
 15104  1  0  0  0
 16 17  2  0  0  0
 16 21  1  0  0  0
 16 31  1  0  0  0
 17 18  1  0  0  0
 17105  1  0  0  0
 18 19  2  0  0  0
 18106  1  0  0  0
 19 20  1  0  0  0
 19 24  1  0  0  0
 20 21  2  0  0  0
 20107  1  0  0  0
 21 23  1  0  0  0
 22 28  1  0  0  0
 22 32  2  0  0  0
 26 27  1  0  0  0
 28108  1  0  0  0
 28109  1  0  0  0
 29110  1  0  0  0
 29111  1  0  0  0
 33 34  1  0  0  0
 33 66  1  0  0  0
 33 70  2  0  0  0
 34 36  1  0  0  0
 34 59  1  0  0  0
 34112  1  0  0  0
 35 44  2  0  0  0
 35 45  1  0  0  0
 35 68  1  0  0  0
 36 56  1  0  0  0
 36113  1  0  0  0
 37 39  1  0  0  0
 37 47  1  0  0  0
 37 66  1  0  0  0
 37114  1  0  0  0
 38 43  2  0  0  0
 38 46  1  0  0  0
 38 47  1  0  0  0
 39 64  1  0  0  0
 39 67  2  0  0  0
 40 52  1  0  0  0
 40 53  2  0  0  0
 40 58  1  0  0  0
 41115  1  0  0  0
 41116  1  0  0  0
 41117  1  0  0  0
 41 48  1  0  0  0
 42 43  1  0  0  0
 42 66  1  0  0  0
 42118  1  0  0  0
 42119  1  0  0  0
 43 44  1  0  0  0
 44120  1  0  0  0
 45 46  2  0  0  0
 45121  1  0  0  0
 46122  1  0  0  0
 47123  1  0  0  0
 47124  1  0  0  0
 48 56  1  0  0  0
 48 65  1  0  0  0
 48125  1  0  0  0
 49 50  1  0  0  0
 49 53  1  0  0  0
 49 64  1  0  0  0
 49126  1  0  0  0
 50 51  1  0  0  0
 50127  1  0  0  0
 50128  1  0  0  0
 51 52  1  0  0  0
 51129  1  0  0  0
 51130  1  0  0  0
 52131  1  0  0  0
 52132  1  0  0  0
 53 54  1  0  0  0
 54 55  2  0  0  0
 54133  1  0  0  0
 55 57  1  0  0  0
 55134  1  0  0  0
 56 69  2  0  0  0
 57 58  2  0  0  0
 57135  1  0  0  0
 58136  1  0  0  0
 59 60  1  0  0  0
 59 61  1  0  0  0
 59 62  1  0  0  0
 60137  1  0  0  0
 60138  1  0  0  0
 60139  1  0  0  0
 61140  1  0  0  0
 61141  1  0  0  0
 61142  1  0  0  0
 62143  1  0  0  0
 62144  1  0  0  0
 62145  1  0  0  0
 63 65  1  0  0  0
 63146  1  0  0  0
 63147  1  0  0  0
 63148  1  0  0  0
 64149  1  0  0  0
 65150  1  0  0  0
 68 85  1  0  0  0
 71 73  2  0  0  0
 71 74  1  0  0  0
 71151  1  0  0  0
 72 73  1  0  0  0
 72 75  2  0  0  0
 72152  1  0  0  0
 73 84  1  0  0  0
 74 76  2  0  0  0
 74 87  1  0  0  0
 75 76  1  0  0  0
 75 88  1  0  0  0
 76 91  1  0  0  0
 77 82  1  0  0  0
 77 83  1  0  0  0
 77153  1  0  0  0
 77154  1  0  0  0
 78 80  1  0  0  0
 78 84  1  0  0  0
 78155  1  0  0  0
 78156  1  0  0  0
 79 81  1  0  0  0
 79 84  1  0  0  0
 79157  1  0  0  0
 79158  1  0  0  0
 80 85  1  0  0  0
 80159  1  0  0  0
 80160  1  0  0  0
 81 85  1  0  0  0
 81161  1  0  0  0
 81162  1  0  0  0
 82 86  1  0  0  0
 82163  1  0  0  0
 82164  1  0  0  0
 83 90  1  0  0  0
 83165  1  0  0  0
 83166  1  0  0  0
 84167  1  0  0  0
 85168  1  0  0  0
 86 89  1  0  0  0
 86 90  1  0  0  0
 86169  1  0  0  0
 87170  1  0  0  0
 87171  1  0  0  0
 87172  1  0  0  0
 88173  1  0  0  0
 88174  1  0  0  0
 88175  1  0  0  0
 89 91  1  0  0  0
 89176  1  0  0  0
 89177  1  0  0  0
M  ISO  4   1 100  68 101  85 101  90 100
M  END
> <chiral flag>
0

> <version>
0

> <s_m_source_file>
/data/baiqing/PycharmProjects/Reinvent-master-3.2/result/LINK_invent/BTK/process_docking_weight1_custom_sum_contain_oxygen_bond_distance_aromatic_linkinvent_7_9_3/rearranged_h_0154.sdf

> <i_m_source_file_index>
58

> <r_mmod_Potential_Energy-OPLS-2005>
344.196807861328

> <r_mmod_Stretch_Energy-OPLS-2005>
40.1510887145996

> <r_mmod_Bend_Energy-OPLS-2005>
175.106781005859

> <r_mmod_Torsional_Energy-OPLS-2005>
398.081298828125

> <r_mmod_Improper_Torsional_Energy-OPLS-2005>
18.1242008209229

> <r_mmod_Van_der_Waal_Energy-OPLS-2005>
182.740005493164

> <r_mmod_Electrostatic_Energy-OPLS-2005>
-341.391662597656

> <r_mmod_Solvation_Energy-OPLS-2005>
-189.890106201172

> <b_mmod_Minimization_Converged-OPLS-2005>
0

> <r_mmod_RMS_Derivative-OPLS-2005>
8.81542110443115

$$$$
59
                    3D
 Structure written by MMmdl.
177187  0  0  1  0            999 V2000
  -30.8798  -14.3501   20.5080 C   0  0  0  0  0  0
  -30.3648  -12.2441   19.4057 C   0  0  0  0  0  0
  -29.4508  -12.4301   18.1862 C   0  0  0  0  0  0
  -27.9856  -12.3032   18.6277 C   0  0  0  0  0  0
  -27.6449  -13.2003   19.8476 C   0  0  2  0  0  0
  -28.7021  -13.0991   20.9737 C   0  0  0  0  0  0
  -25.2571  -13.8168   20.5660 C   0  0  0  0  0  0
  -24.1821  -13.0494   20.9171 C   0  0  0  0  0  0
  -24.6354  -11.6929   20.8772 C   0  0  0  0  0  0
  -23.9007  -10.4325   21.0446 C   0  0  0  0  0  0
  -24.3610   -9.4243   21.9211 C   0  0  0  0  0  0
  -23.6314   -8.2254   22.0772 C   0  0  0  0  0  0
  -22.4293   -8.0291   21.3558 C   0  0  0  0  0  0
  -21.9883   -9.0258   20.4649 C   0  0  0  0  0  0
  -22.7185  -10.2166   20.3079 C   0  0  0  0  0  0
  -21.6855   -6.0712   22.5286 C   0  0  0  0  0  0
  -21.3993   -6.5613   23.8206 C   0  0  0  0  0  0
  -21.3669   -5.6795   24.9188 C   0  0  0  0  0  0
  -21.6079   -4.3054   24.7256 C   0  0  0  0  0  0
  -21.8820   -3.8124   23.4381 C   0  0  0  0  0  0
  -21.9203   -4.6925   22.3422 C   0  0  0  0  0  0
  -22.7849  -13.5304   21.1877 C   0  0  0  0  0  0
  -22.1673   -4.2089   21.1007 F   0  0  0  0  0  0
  -21.5655   -3.4555   25.7783 F   0  0  0  0  0  0
  -30.0200  -13.3096   20.3640 N   0  0  0  0  0  0
  -26.2970  -12.9318   20.3345 N   0  0  0  0  0  0
  -25.9289  -11.6491   20.5850 N   0  0  0  0  0  0
  -22.0478  -12.8275   22.0399 N   0  0  0  0  0  0
  -25.4404  -15.1859   20.4000 N   0  0  0  0  0  0
  -32.0665  -14.1982   20.2447 O   0  0  0  0  0  0
  -21.6672   -6.8871   21.4250 O   0  0  0  0  0  0
  -22.3530  -14.5641   20.6767 O   0  0  0  0  0  0
  -24.5973  -31.8765   23.2164 C   0  0  0  0  0  0
  -25.8885  -32.4898   23.8456 C   0  0  1  0  0  0
  -27.2232  -27.5188   20.1164 C   0  0  0  0  0  0
  -25.5780  -33.8706   24.2396 N   0  0  0  0  0  0
  -23.3827  -30.4921   21.5598 C   0  0  2  0  0  0
  -24.8291  -28.9754   20.1087 C   0  0  0  0  0  0
  -22.7342  -29.4646   22.5107 C   0  0  0  0  0  0
  -18.0245  -28.1356   22.8508 C   0  0  0  0  0  0
  -24.1481  -36.7333   23.2651 C   0  0  0  0  0  0
  -25.8946  -30.8787   21.3466 C   0  0  0  0  0  0
  -25.9756  -29.5173   20.6988 C   0  0  0  0  0  0
  -27.1761  -28.7955   20.6990 C   0  0  0  0  0  0
  -26.0829  -26.9839   19.4813 C   0  0  0  0  0  0
  -24.8755  -27.7102   19.4909 C   0  0  0  0  0  0
  -23.5790  -29.8203   20.1710 C   0  0  0  0  0  0
  -25.4120  -36.3200   24.0365 C   0  0  1  0  0  0
  -20.5823  -28.3603   23.1391 C   0  0  2  0  0  0
  -20.6737  -26.9350   22.5458 C   0  0  0  0  0  0
  -19.5726  -26.6359   21.5240 C   0  0  0  0  0  0
  -18.1895  -26.7911   22.1644 C   0  0  0  0  0  0
  -19.1489  -28.8803   23.2942 C   0  0  0  0  0  0
  -18.9427  -30.1429   23.8922 C   0  0  0  0  0  0
  -17.6430  -30.6573   24.0551 C   0  0  0  0  0  0
  -25.9012  -34.9533   23.5204 C   0  0  0  0  0  0
  -16.5323  -29.9076   23.6316 C   0  0  0  0  0  0
  -16.7242  -28.6492   23.0346 C   0  0  0  0  0  0
  -26.4380  -31.6632   25.0717 C   0  0  0  0  0  0
  -25.3664  -31.3658   26.1468 C   0  0  0  0  0  0
  -27.0185  -30.3116   24.5946 C   0  0  0  0  0  0
  -27.6015  -32.4324   25.7434 C   0  0  0  0  0  0
  -27.5599  -37.1833   24.8487 C   0  0  0  0  0  0
  -21.4094  -29.2982   22.3840 N   0  0  0  0  0  0
  -26.4335  -37.3847   23.9397 N   0  0  0  0  0  0
  -24.6434  -31.0953   22.1022 N   0  0  0  0  0  0
  -23.4161  -28.8198   23.3111 O   0  0  0  0  0  0
  -28.3677  -26.7871   20.2218 O   0  0  0  0  0  0
  -26.5612  -34.8952   22.4777 O   0  0  0  0  0  0
  -23.5181  -32.1477   23.7612 O   0  0  0  0  0  0
  -30.9109  -22.3658   19.2332 C   0  0  0  0  0  0
  -28.5428  -21.8149   19.2007 C   0  0  0  0  0  0
  -30.1904  -20.1022   18.7047 C   0  0  0  0  0  0
  -29.5787  -22.7235   19.5185 C   0  0  0  0  0  0
  -31.2253  -21.0533   18.8632 C   0  0  0  0  0  0
  -28.8362  -20.5072   18.7734 C   0  0  0  0  0  0
  -30.4284  -17.8067   19.5863 C   0  0  0  0  0  0
  -30.6233  -18.7206   18.6207 C   0  0  0  0  0  0
  -29.4842  -17.7931   20.7570 C   0  0  0  0  0  0
  -30.3621  -24.5380   21.1798 C   0  0  0  0  0  0
  -27.9035  -24.0493   20.9209 C   0  0  0  0  0  0
  -30.1014  -25.9627   21.7079 C   0  0  0  0  0  0
  -27.7190  -25.2024   21.9300 C   0  0  0  0  0  0
  -29.2883  -16.2873   21.0269 C   0  0  0  0  0  0
  -29.2734  -24.0639   20.1766 C   0  0  2  0  0  0
  -31.2721  -16.6006   19.6951 C   0  0  1  0  0  0
  -28.6327  -26.3848   21.5772 C   0  0  1  0  0  0
  -32.6952  -20.6584   18.7685 C   0  0  0  0  0  0
  -27.6757  -19.5843   18.4357 C   0  0  0  0  0  0
  -32.5466  -16.9777   20.5172 C   0  0  0  0  0  0
  -30.4156  -15.6128   20.3748 N   0  0  0  0  0  0
  -31.4034  -12.2530   19.0682 H   0  0  0  0  0  0
  -30.2144  -11.2654   19.8639 H   0  0  0  0  0  0
  -29.6762  -11.6776   17.4296 H   0  0  0  0  0  0
  -29.6263  -13.3962   17.7128 H   0  0  0  0  0  0
  -27.8141  -11.2541   18.8738 H   0  0  0  0  0  0
  -27.3184  -12.5322   17.7950 H   0  0  0  0  0  0
  -27.6556  -14.2140   19.4558 H   0  0  0  0  0  0
  -28.6621  -12.1173   21.4462 H   0  0  0  0  0  0
  -28.4970  -13.8242   21.7655 H   0  0  0  0  0  0
  -25.2767   -9.5730   22.4772 H   0  0  0  0  0  0
  -24.0027   -7.4637   22.7502 H   0  0  0  0  0  0
  -21.0789   -8.8783   19.8956 H   0  0  0  0  0  0
  -22.3633  -10.9722   19.6190 H   0  0  0  0  0  0
  -21.1941   -7.6118   23.9681 H   0  0  0  0  0  0
  -21.1499   -6.0533   25.9087 H   0  0  0  0  0  0
  -22.0582   -2.7570   23.2918 H   0  0  0  0  0  0
  -22.4093  -11.9879   22.4676 H   0  0  0  0  0  0
  -21.1116  -13.1287   22.2719 H   0  0  0  0  0  0
  -24.6913  -15.8621   20.4872 H   0  0  0  0  0  0
  -26.3101  -15.5961   20.0889 H   0  0  0  0  0  0
  -26.6970  -32.5658   23.1262 H   0  0  0  0  0  0
  -24.9848  -33.9950   25.0485 H   0  0  0  0  0  0
  -22.6629  -31.3010   21.4306 H   0  0  0  0  0  0
  -23.3758  -35.9642   23.3384 H   0  0  0  0  0  0
  -24.3543  -36.8857   22.2042 H   0  0  0  0  0  0
  -23.7196  -37.6559   23.6598 H   0  0  0  0  0  0
  -25.9742  -31.6455   20.5749 H   0  0  0  0  0  0
  -26.7915  -30.9477   21.9462 H   0  0  0  0  0  0
  -28.0609  -29.2006   21.1648 H   0  0  0  0  0  0
  -26.1200  -26.0075   19.0153 H   0  0  0  0  0  0
  -23.9901  -27.2939   19.0369 H   0  0  0  0  0  0
  -23.6559  -30.5916   19.4043 H   0  0  0  0  0  0
  -22.7089  -29.2195   19.8973 H   0  0  0  0  0  0
  -25.1297  -36.2145   25.0862 H   0  0  0  0  0  0
  -20.9911  -28.3138   24.1505 H   0  0  0  0  0  0
  -20.5625  -26.2201   23.3628 H   0  0  0  0  0  0
  -21.6623  -26.7407   22.1250 H   0  0  0  0  0  0
  -19.6884  -25.6278   21.1233 H   0  0  0  0  0  0
  -19.6661  -27.3193   20.6790 H   0  0  0  0  0  0
  -17.4177  -26.6629   21.4044 H   0  0  0  0  0  0
  -18.0301  -26.0056   22.9045 H   0  0  0  0  0  0
  -19.7902  -30.7232   24.2281 H   0  0  0  0  0  0
  -17.4993  -31.6259   24.5141 H   0  0  0  0  0  0
  -15.5335  -30.2984   23.7632 H   0  0  0  0  0  0
  -15.8635  -28.0819   22.7057 H   0  0  0  0  0  0
  -24.5849  -30.7028   25.7748 H   0  0  0  0  0  0
  -24.8805  -32.2763   26.4992 H   0  0  0  0  0  0
  -25.7982  -30.8754   27.0184 H   0  0  0  0  0  0
  -26.2682  -29.6952   24.0976 H   0  0  0  0  0  0
  -27.4020  -29.7295   25.4328 H   0  0  0  0  0  0
  -27.8481  -30.4552   23.9007 H   0  0  0  0  0  0
  -27.2699  -33.3622   26.2068 H   0  0  0  0  0  0
  -28.3717  -32.6861   25.0142 H   0  0  0  0  0  0
  -28.0772  -31.8385   26.5258 H   0  0  0  0  0  0
  -28.2698  -38.0063   24.7506 H   0  0  0  0  0  0
  -28.1008  -36.2596   24.6371 H   0  0  0  0  0  0
  -27.2285  -37.1562   25.8885 H   0  0  0  0  0  0
  -20.9252  -29.8636   21.7023 H   0  0  0  0  0  0
  -26.0266  -38.2948   24.1350 H   0  0  0  0  0  0
  -31.7216  -23.0612   19.3783 H   0  0  0  0  0  0
  -27.5049  -22.0866   19.3184 H   0  0  0  0  0  0
  -31.3419  -18.4996   17.8421 H   0  0  0  0  0  0
  -28.5481  -18.3043   20.5586 H   0  0  0  0  0  0
  -29.9534  -18.2802   21.6133 H   0  0  0  0  0  0
  -30.3774  -23.8380   22.0163 H   0  0  0  0  0  0
  -31.3682  -24.5389   20.7669 H   0  0  0  0  0  0
  -27.0938  -24.0742   20.1893 H   0  0  0  0  0  0
  -27.7897  -23.1180   21.4803 H   0  0  0  0  0  0
  -30.7269  -26.6917   21.1924 H   0  0  0  0  0  0
  -30.3986  -25.9916   22.7570 H   0  0  0  0  0  0
  -27.9528  -24.8611   22.9428 H   0  0  0  0  0  0
  -26.6751  -25.5088   21.9615 H   0  0  0  0  0  0
  -28.3653  -15.9579   20.5555 H   0  0  0  0  0  0
  -29.2304  -16.0578   22.0926 H   0  0  0  0  0  0
  -29.2481  -24.7659   19.3419 H   0  0  0  0  0  0
  -31.5315  -16.2646   18.6893 H   0  0  0  0  0  0
  -28.4573  -27.1993   22.2834 H   0  0  0  0  0  0
  -33.3571  -21.5256   18.7349 H   0  0  0  0  0  0
  -32.8947  -20.0569   17.8820 H   0  0  0  0  0  0
  -32.9695  -20.0769   19.6495 H   0  0  0  0  0  0
  -26.9291  -19.6317   19.2296 H   0  0  0  0  0  0
  -27.9719  -18.5443   18.2959 H   0  0  0  0  0  0
  -27.1975  -19.9001   17.5098 H   0  0  0  0  0  0
  -33.0412  -17.8641   20.1271 H   0  0  0  0  0  0
  -33.3151  -16.2064   20.4836 H   0  0  0  0  0  0
  -32.3220  -17.1684   21.5701 H   0  0  0  0  0  0
  1 25  1  0  0  0
  1 30  2  0  0  0
  1 91  1  0  0  0
  2  3  1  0  0  0
  2 25  1  0  0  0
  2 92  1  0  0  0
  2 93  1  0  0  0
  3  4  1  0  0  0
  3 94  1  0  0  0
  3 95  1  0  0  0
  4  5  1  0  0  0
  4 96  1  0  0  0
  4 97  1  0  0  0
  5  6  1  0  0  0
  5 26  1  0  0  0
  5 98  1  0  0  0
  6 25  1  0  0  0
  6 99  1  0  0  0
  6100  1  0  0  0
  7  8  2  0  0  0
  7 26  1  0  0  0
  7 29  1  0  0  0
  8  9  1  0  0  0
  8 22  1  0  0  0
  9 10  1  0  0  0
  9 27  2  0  0  0
 10 11  2  0  0  0
 10 15  1  0  0  0
 11 12  1  0  0  0
 11101  1  0  0  0
 12 13  2  0  0  0
 12102  1  0  0  0
 13 14  1  0  0  0
 13 31  1  0  0  0
 14 15  2  0  0  0
 14103  1  0  0  0
 15104  1  0  0  0
 16 17  2  0  0  0
 16 21  1  0  0  0
 16 31  1  0  0  0
 17 18  1  0  0  0
 17105  1  0  0  0
 18 19  2  0  0  0
 18106  1  0  0  0
 19 20  1  0  0  0
 19 24  1  0  0  0
 20 21  2  0  0  0
 20107  1  0  0  0
 21 23  1  0  0  0
 22 28  1  0  0  0
 22 32  2  0  0  0
 26 27  1  0  0  0
 28108  1  0  0  0
 28109  1  0  0  0
 29110  1  0  0  0
 29111  1  0  0  0
 33 34  1  0  0  0
 33 66  1  0  0  0
 33 70  2  0  0  0
 34 36  1  0  0  0
 34 59  1  0  0  0
 34112  1  0  0  0
 35 44  2  0  0  0
 35 45  1  0  0  0
 35 68  1  0  0  0
 36 56  1  0  0  0
 36113  1  0  0  0
 37 39  1  0  0  0
 37 47  1  0  0  0
 37 66  1  0  0  0
 37114  1  0  0  0
 38 43  2  0  0  0
 38 46  1  0  0  0
 38 47  1  0  0  0
 39 64  1  0  0  0
 39 67  2  0  0  0
 40 52  1  0  0  0
 40 53  2  0  0  0
 40 58  1  0  0  0
 41115  1  0  0  0
 41116  1  0  0  0
 41117  1  0  0  0
 41 48  1  0  0  0
 42 43  1  0  0  0
 42 66  1  0  0  0
 42118  1  0  0  0
 42119  1  0  0  0
 43 44  1  0  0  0
 44120  1  0  0  0
 45 46  2  0  0  0
 45121  1  0  0  0
 46122  1  0  0  0
 47123  1  0  0  0
 47124  1  0  0  0
 48 56  1  0  0  0
 48 65  1  0  0  0
 48125  1  0  0  0
 49 50  1  0  0  0
 49 53  1  0  0  0
 49 64  1  0  0  0
 49126  1  0  0  0
 50 51  1  0  0  0
 50127  1  0  0  0
 50128  1  0  0  0
 51 52  1  0  0  0
 51129  1  0  0  0
 51130  1  0  0  0
 52131  1  0  0  0
 52132  1  0  0  0
 53 54  1  0  0  0
 54 55  2  0  0  0
 54133  1  0  0  0
 55 57  1  0  0  0
 55134  1  0  0  0
 56 69  2  0  0  0
 57 58  2  0  0  0
 57135  1  0  0  0
 58136  1  0  0  0
 59 60  1  0  0  0
 59 61  1  0  0  0
 59 62  1  0  0  0
 60137  1  0  0  0
 60138  1  0  0  0
 60139  1  0  0  0
 61140  1  0  0  0
 61141  1  0  0  0
 61142  1  0  0  0
 62143  1  0  0  0
 62144  1  0  0  0
 62145  1  0  0  0
 63 65  1  0  0  0
 63146  1  0  0  0
 63147  1  0  0  0
 63148  1  0  0  0
 64149  1  0  0  0
 65150  1  0  0  0
 68 87  1  0  0  0
 71 74  2  0  0  0
 71 75  1  0  0  0
 71151  1  0  0  0
 72 74  1  0  0  0
 72 76  2  0  0  0
 72152  1  0  0  0
 73 75  2  0  0  0
 73 76  1  0  0  0
 73 78  1  0  0  0
 74 85  1  0  0  0
 75 88  1  0  0  0
 76 89  1  0  0  0
 77 78  2  0  0  0
 77 79  1  0  0  0
 77 86  1  0  0  0
 78153  1  0  0  0
 79 84  1  0  0  0
 79154  1  0  0  0
 79155  1  0  0  0
 80 82  1  0  0  0
 80 85  1  0  0  0
 80156  1  0  0  0
 80157  1  0  0  0
 81 83  1  0  0  0
 81 85  1  0  0  0
 81158  1  0  0  0
 81159  1  0  0  0
 82 87  1  0  0  0
 82160  1  0  0  0
 82161  1  0  0  0
 83 87  1  0  0  0
 83162  1  0  0  0
 83163  1  0  0  0
 84 91  1  0  0  0
 84164  1  0  0  0
 84165  1  0  0  0
 85166  1  0  0  0
 86 90  1  0  0  0
 86 91  1  0  0  0
 86167  1  0  0  0
 87168  1  0  0  0
 88169  1  0  0  0
 88170  1  0  0  0
 88171  1  0  0  0
 89172  1  0  0  0
 89173  1  0  0  0
 89174  1  0  0  0
 90175  1  0  0  0
 90176  1  0  0  0
 90177  1  0  0  0
M  ISO  4   1 100  68 101  87 101  91 100
M  END
> <chiral flag>
0

> <version>
0

> <s_m_source_file>
/data/baiqing/PycharmProjects/Reinvent-master-3.2/result/LINK_invent/BTK/process_docking_weight1_custom_sum_contain_oxygen_bond_distance_aromatic_linkinvent_7_9_3/rearranged_h_0154.sdf

> <i_m_source_file_index>
59

> <r_mmod_Potential_Energy-OPLS-2005>
368.197845458984

> <r_mmod_Stretch_Energy-OPLS-2005>
38.0410346984863

> <r_mmod_Bend_Energy-OPLS-2005>
152.069107055664

> <r_mmod_Torsional_Energy-OPLS-2005>
409.037322998047

> <r_mmod_Improper_Torsional_Energy-OPLS-2005>
21.2255573272705

> <r_mmod_Van_der_Waal_Energy-OPLS-2005>
196.520919799805

> <r_mmod_Electrostatic_Energy-OPLS-2005>
-323.558441162109

> <r_mmod_Solvation_Energy-OPLS-2005>
-180.590179443359

> <b_mmod_Minimization_Converged-OPLS-2005>
0

> <r_mmod_RMS_Derivative-OPLS-2005>
6.55973672866821

$$$$
60
                    3D
 Structure written by MMmdl.
165173  0  0  1  0            999 V2000
  -30.6910  -14.4511   20.5062 C   0  0  0  0  0  0
  -30.4170  -12.2693   19.4355 C   0  0  0  0  0  0
  -29.4965  -12.4861   18.2153 C   0  0  0  0  0  0
  -28.0144  -12.3568   18.6210 C   0  0  0  0  0  0
  -27.6603  -13.1989   19.8759 C   0  0  2  0  0  0
  -28.7023  -12.9891   21.0023 C   0  0  0  0  0  0
  -25.2589  -13.8129   20.5668 C   0  0  0  0  0  0
  -24.1834  -13.0419   20.9171 C   0  0  0  0  0  0
  -24.6374  -11.6888   20.8732 C   0  0  0  0  0  0
  -23.9026  -10.4290   21.0389 C   0  0  0  0  0  0
  -24.3584   -9.4221   21.9173 C   0  0  0  0  0  0
  -23.6289   -8.2245   22.0733 C   0  0  0  0  0  0
  -22.4271   -8.0273   21.3527 C   0  0  0  0  0  0
  -21.9891   -9.0240   20.4627 C   0  0  0  0  0  0
  -22.7194  -10.2131   20.3044 C   0  0  0  0  0  0
  -21.6851   -6.0739   22.5286 C   0  0  0  0  0  0
  -21.4011   -6.5642   23.8225 C   0  0  0  0  0  0
  -21.3664   -5.6785   24.9181 C   0  0  0  0  0  0
  -21.6045   -4.3051   24.7226 C   0  0  0  0  0  0
  -21.8819   -3.8144   23.4345 C   0  0  0  0  0  0
  -21.9192   -4.6966   22.3407 C   0  0  0  0  0  0
  -22.7864  -13.5234   21.1850 C   0  0  0  0  0  0
  -22.1652   -4.2149   21.0985 F   0  0  0  0  0  0
  -21.5639   -3.4539   25.7740 F   0  0  0  0  0  0
  -30.0396  -13.2612   20.4515 N   0  0  0  0  0  0
  -26.3012  -12.9278   20.3361 N   0  0  0  0  0  0
  -25.9298  -11.6451   20.5764 N   0  0  0  0  0  0
  -22.0494  -12.8254   22.0420 N   0  0  0  0  0  0
  -25.4294  -15.1849   20.4097 N   0  0  0  0  0  0
  -31.8506  -14.6131   20.1196 O   0  0  0  0  0  0
  -21.6630   -6.8873   21.4248 O   0  0  0  0  0  0
  -22.3558  -14.5546   20.6697 O   0  0  0  0  0  0
  -24.6126  -31.8704   23.2129 C   0  0  0  0  0  0
  -25.9033  -32.4834   23.8414 C   0  0  1  0  0  0
  -27.2350  -27.4575   20.0708 C   0  0  0  0  0  0
  -25.5897  -33.8632   24.2342 N   0  0  0  0  0  0
  -23.3982  -30.4954   21.5544 C   0  0  2  0  0  0
  -24.8413  -28.9651   20.1170 C   0  0  0  0  0  0
  -22.7389  -29.4674   22.5009 C   0  0  0  0  0  0
  -18.0270  -28.1371   22.8496 C   0  0  0  0  0  0
  -24.1485  -36.7322   23.2638 C   0  0  0  0  0  0
  -25.9268  -30.8375   21.3664 C   0  0  0  0  0  0
  -26.0012  -29.4739   20.7138 C   0  0  0  0  0  0
  -27.1959  -28.7211   20.7009 C   0  0  0  0  0  0
  -26.0463  -26.9485   19.4950 C   0  0  0  0  0  0
  -24.8559  -27.6966   19.5137 C   0  0  0  0  0  0
  -23.6042  -29.8313   20.1676 C   0  0  0  0  0  0
  -25.4109  -36.3123   24.0341 C   0  0  1  0  0  0
  -20.5855  -28.3656   23.1324 C   0  0  2  0  0  0
  -20.6763  -26.9398   22.5416 C   0  0  0  0  0  0
  -19.5745  -26.6384   21.5212 C   0  0  0  0  0  0
  -18.1922  -26.7922   22.1621 C   0  0  0  0  0  0
  -19.1518  -28.8832   23.2903 C   0  0  0  0  0  0
  -18.9449  -30.1439   23.8913 C   0  0  0  0  0  0
  -17.6449  -30.6584   24.0568 C   0  0  0  0  0  0
  -25.9032  -34.9486   23.5135 C   0  0  0  0  0  0
  -16.5338  -29.9087   23.6324 C   0  0  0  0  0  0
  -16.7257  -28.6499   23.0350 C   0  0  0  0  0  0
  -26.4467  -31.6608   25.0736 C   0  0  0  0  0  0
  -25.3738  -31.3718   26.1489 C   0  0  0  0  0  0
  -27.0295  -30.3053   24.6103 C   0  0  0  0  0  0
  -27.6046  -32.4328   25.7489 C   0  0  0  0  0  0
  -27.5582  -37.1813   24.8465 C   0  0  0  0  0  0
  -21.4120  -29.3027   22.3737 N   0  0  0  0  0  0
  -26.4297  -37.3803   23.9406 N   0  0  0  0  0  0
  -24.6641  -31.0820   22.1027 N   0  0  0  0  0  0
  -23.4174  -28.8219   23.3046 O   0  0  0  0  0  0
  -28.4176  -26.7492   20.0667 O   0  0  0  0  0  0
  -26.5588  -34.8930   22.4692 O   0  0  0  0  0  0
  -23.5323  -32.1456   23.7528 O   0  0  0  0  0  0
  -29.4670  -21.4476   19.7480 C   0  0  0  0  0  0
  -31.1006  -20.2393   18.3941 C   0  0  0  0  0  0
  -29.9776  -20.2179   19.2755 C   0  0  0  0  0  0
  -31.6944  -21.4960   18.0834 C   0  0  0  0  0  0
  -30.0605  -22.6656   19.3611 C   0  0  0  0  0  0
  -32.9051  -21.6852   17.1781 C   0  0  0  0  0  0
  -32.8848  -18.3869   18.3003 C   0  0  0  0  0  0
  -31.5975  -18.9731   17.6967 C   0  0  0  0  0  0
  -29.9811  -18.0267   20.4400 C   0  0  0  0  0  0
  -29.9136  -16.6476   19.7564 C   0  0  0  0  0  0
  -28.7341  -26.0073   18.8871 C   0  0  0  0  0  0
  -29.9458  -25.0913   19.1178 C   0  0  0  0  0  0
  -31.1590  -22.6314   18.5779 N   0  3  0  0  0  0
  -29.2946  -19.0381   19.6353 N   0  0  0  0  0  0
  -29.8765  -15.5040   20.6700 N   0  0  0  0  0  0
  -29.5145  -23.8783   19.7522 O   0  0  0  0  0  0
  -31.4648  -12.3490   19.1407 H   0  0  0  0  0  0
  -30.2930  -11.2613   19.8328 H   0  0  0  0  0  0
  -29.7350  -11.7662   17.4328 H   0  0  0  0  0  0
  -29.6751  -13.4741   17.7878 H   0  0  0  0  0  0
  -27.8166  -11.3015   18.8129 H   0  0  0  0  0  0
  -27.3663  -12.6359   17.7902 H   0  0  0  0  0  0
  -27.6977  -14.2433   19.5688 H   0  0  0  0  0  0
  -28.6633  -11.9622   21.3695 H   0  0  0  0  0  0
  -28.4808  -13.6217   21.8639 H   0  0  0  0  0  0
  -25.2719   -9.5726   22.4757 H   0  0  0  0  0  0
  -24.0011   -7.4632   22.7454 H   0  0  0  0  0  0
  -21.0812   -8.8742   19.8936 H   0  0  0  0  0  0
  -22.3621  -10.9673   19.6164 H   0  0  0  0  0  0
  -21.1995   -7.6145   23.9730 H   0  0  0  0  0  0
  -21.1483   -6.0509   25.9086 H   0  0  0  0  0  0
  -22.0592   -2.7613   23.2836 H   0  0  0  0  0  0
  -22.4081  -11.9907   22.4808 H   0  0  0  0  0  0
  -21.1107  -13.1282   22.2618 H   0  0  0  0  0  0
  -24.6552  -15.8313   20.5101 H   0  0  0  0  0  0
  -26.2781  -15.6348   20.0900 H   0  0  0  0  0  0
  -26.7098  -32.5545   23.1173 H   0  0  0  0  0  0
  -25.0064  -33.9810   25.0497 H   0  0  0  0  0  0
  -22.6865  -31.3127   21.4190 H   0  0  0  0  0  0
  -23.3740  -35.9660   23.3323 H   0  0  0  0  0  0
  -24.3578  -36.8908   22.2045 H   0  0  0  0  0  0
  -23.7241  -37.6539   23.6632 H   0  0  0  0  0  0
  -26.0399  -31.6032   20.5980 H   0  0  0  0  0  0
  -26.8152  -30.8872   21.9833 H   0  0  0  0  0  0
  -28.0936  -29.1126   21.1587 H   0  0  0  0  0  0
  -26.0042  -25.9686   19.0449 H   0  0  0  0  0  0
  -23.9593  -27.2887   19.0663 H   0  0  0  0  0  0
  -23.7109  -30.6088   19.4101 H   0  0  0  0  0  0
  -22.7271  -29.2531   19.8717 H   0  0  0  0  0  0
  -25.1281  -36.1996   25.0834 H   0  0  0  0  0  0
  -20.9949  -28.3222   24.1443 H   0  0  0  0  0  0
  -20.5673  -26.2267   23.3600 H   0  0  0  0  0  0
  -21.6634  -26.7453   22.1206 H   0  0  0  0  0  0
  -19.6911  -25.6300   21.1234 H   0  0  0  0  0  0
  -19.6691  -27.3200   20.6749 H   0  0  0  0  0  0
  -17.4196  -26.6667   21.4017 H   0  0  0  0  0  0
  -18.0322  -26.0056   22.9009 H   0  0  0  0  0  0
  -19.7925  -30.7244   24.2291 H   0  0  0  0  0  0
  -17.5011  -31.6270   24.5155 H   0  0  0  0  0  0
  -15.5341  -30.2993   23.7647 H   0  0  0  0  0  0
  -15.8655  -28.0827   22.7056 H   0  0  0  0  0  0
  -24.5896  -30.7079   25.7836 H   0  0  0  0  0  0
  -24.8946  -32.2875   26.4962 H   0  0  0  0  0  0
  -25.8091  -30.8873   27.0235 H   0  0  0  0  0  0
  -26.2838  -29.6818   24.1156 H   0  0  0  0  0  0
  -27.4068  -29.7287   25.4558 H   0  0  0  0  0  0
  -27.8673  -30.4383   23.9254 H   0  0  0  0  0  0
  -27.2668  -33.3613   26.2106 H   0  0  0  0  0  0
  -28.3830  -32.6911   25.0297 H   0  0  0  0  0  0
  -28.0744  -31.8430   26.5369 H   0  0  0  0  0  0
  -28.2610  -38.0102   24.7506 H   0  0  0  0  0  0
  -28.1066  -36.2630   24.6296 H   0  0  0  0  0  0
  -27.2301  -37.1476   25.8871 H   0  0  0  0  0  0
  -20.9275  -29.8751   21.6963 H   0  0  0  0  0  0
  -26.0191  -38.2885   24.1399 H   0  0  0  0  0  0
  -28.5969  -21.4765   20.3853 H   0  0  0  0  0  0
  -33.2198  -20.7841   16.6578 H   0  0  0  0  0  0
  -33.7554  -22.0362   17.7633 H   0  0  0  0  0  0
  -32.6930  -22.4348   16.4156 H   0  0  0  0  0  0
  -33.1943  -17.4995   17.7472 H   0  0  0  0  0  0
  -32.7526  -18.0930   19.3398 H   0  0  0  0  0  0
  -33.7099  -19.0982   18.2641 H   0  0  0  0  0  0
  -31.7586  -19.1887   16.6414 H   0  0  0  0  0  0
  -30.8058  -18.2300   17.6704 H   0  0  0  0  0  0
  -31.0112  -18.3085   20.6604 H   0  0  0  0  0  0
  -29.4708  -17.9801   21.4029 H   0  0  0  0  0  0
  -30.7171  -16.5474   19.0266 H   0  0  0  0  0  0
  -28.9906  -16.5764   19.1777 H   0  0  0  0  0  0
  -27.9193  -25.3952   18.5067 H   0  0  0  0  0  0
  -28.9728  -26.7287   18.1044 H   0  0  0  0  0  0
  -30.7091  -25.5896   19.7167 H   0  0  0  0  0  0
  -30.3796  -24.9132   18.1334 H   0  0  0  0  0  0
  -31.5942  -23.5158   18.3192 H   0  0  0  0  0  0
  -28.3527  -19.2125   19.9693 H   0  0  0  0  0  0
  -28.9686  -15.2854   21.0511 H   0  0  0  0  0  0
  1 25  1  0  0  0
  1 30  2  0  0  0
  1 85  1  0  0  0
  2  3  1  0  0  0
  2 25  1  0  0  0
  2 87  1  0  0  0
  2 88  1  0  0  0
  3  4  1  0  0  0
  3 89  1  0  0  0
  3 90  1  0  0  0
  4  5  1  0  0  0
  4 91  1  0  0  0
  4 92  1  0  0  0
  5  6  1  0  0  0
  5 26  1  0  0  0
  5 93  1  0  0  0
  6 25  1  0  0  0
  6 94  1  0  0  0
  6 95  1  0  0  0
  7  8  2  0  0  0
  7 26  1  0  0  0
  7 29  1  0  0  0
  8  9  1  0  0  0
  8 22  1  0  0  0
  9 10  1  0  0  0
  9 27  2  0  0  0
 10 11  2  0  0  0
 10 15  1  0  0  0
 11 12  1  0  0  0
 11 96  1  0  0  0
 12 13  2  0  0  0
 12 97  1  0  0  0
 13 14  1  0  0  0
 13 31  1  0  0  0
 14 15  2  0  0  0
 14 98  1  0  0  0
 15 99  1  0  0  0
 16 17  2  0  0  0
 16 21  1  0  0  0
 16 31  1  0  0  0
 17 18  1  0  0  0
 17100  1  0  0  0
 18 19  2  0  0  0
 18101  1  0  0  0
 19 20  1  0  0  0
 19 24  1  0  0  0
 20 21  2  0  0  0
 20102  1  0  0  0
 21 23  1  0  0  0
 22 28  1  0  0  0
 22 32  2  0  0  0
 26 27  1  0  0  0
 28103  1  0  0  0
 28104  1  0  0  0
 29105  1  0  0  0
 29106  1  0  0  0
 33 34  1  0  0  0
 33 66  1  0  0  0
 33 70  2  0  0  0
 34 36  1  0  0  0
 34 59  1  0  0  0
 34107  1  0  0  0
 35 44  2  0  0  0
 35 45  1  0  0  0
 35 68  1  0  0  0
 36 56  1  0  0  0
 36108  1  0  0  0
 37 39  1  0  0  0
 37 47  1  0  0  0
 37 66  1  0  0  0
 37109  1  0  0  0
 38 43  2  0  0  0
 38 46  1  0  0  0
 38 47  1  0  0  0
 39 64  1  0  0  0
 39 67  2  0  0  0
 40 52  1  0  0  0
 40 53  2  0  0  0
 40 58  1  0  0  0
 41110  1  0  0  0
 41111  1  0  0  0
 41112  1  0  0  0
 41 48  1  0  0  0
 42 43  1  0  0  0
 42 66  1  0  0  0
 42113  1  0  0  0
 42114  1  0  0  0
 43 44  1  0  0  0
 44115  1  0  0  0
 45 46  2  0  0  0
 45116  1  0  0  0
 46117  1  0  0  0
 47118  1  0  0  0
 47119  1  0  0  0
 48 56  1  0  0  0
 48 65  1  0  0  0
 48120  1  0  0  0
 49 50  1  0  0  0
 49 53  1  0  0  0
 49 64  1  0  0  0
 49121  1  0  0  0
 50 51  1  0  0  0
 50122  1  0  0  0
 50123  1  0  0  0
 51 52  1  0  0  0
 51124  1  0  0  0
 51125  1  0  0  0
 52126  1  0  0  0
 52127  1  0  0  0
 53 54  1  0  0  0
 54 55  2  0  0  0
 54128  1  0  0  0
 55 57  1  0  0  0
 55129  1  0  0  0
 56 69  2  0  0  0
 57 58  2  0  0  0
 57130  1  0  0  0
 58131  1  0  0  0
 59 60  1  0  0  0
 59 61  1  0  0  0
 59 62  1  0  0  0
 60132  1  0  0  0
 60133  1  0  0  0
 60134  1  0  0  0
 61135  1  0  0  0
 61136  1  0  0  0
 61137  1  0  0  0
 62138  1  0  0  0
 62139  1  0  0  0
 62140  1  0  0  0
 63 65  1  0  0  0
 63141  1  0  0  0
 63142  1  0  0  0
 63143  1  0  0  0
 64144  1  0  0  0
 65145  1  0  0  0
 68 81  1  0  0  0
 71 73  2  0  0  0
 71 75  1  0  0  0
 71146  1  0  0  0
 72 73  1  0  0  0
 72 74  2  0  0  0
 72 78  1  0  0  0
 73 84  1  0  0  0
 74 76  1  0  0  0
 74 83  1  0  0  0
 75 83  2  0  0  0
 75 86  1  0  0  0
 76147  1  0  0  0
 76148  1  0  0  0
 76149  1  0  0  0
 77 78  1  0  0  0
 77150  1  0  0  0
 77151  1  0  0  0
 77152  1  0  0  0
 78153  1  0  0  0
 78154  1  0  0  0
 79 80  1  0  0  0
 79 84  1  0  0  0
 79155  1  0  0  0
 79156  1  0  0  0
 80 85  1  0  0  0
 80157  1  0  0  0
 80158  1  0  0  0
 81 82  1  0  0  0
 81159  1  0  0  0
 81160  1  0  0  0
 82 86  1  0  0  0
 82161  1  0  0  0
 82162  1  0  0  0
 83163  1  0  0  0
 84164  1  0  0  0
 85165  1  0  0  0
M  CHG  1  83   1
M  ISO  4   1 100  68 101  81 101  85 100
M  END
> <chiral flag>
0

> <version>
0

> <s_m_source_file>
/data/baiqing/PycharmProjects/Reinvent-master-3.2/result/LINK_invent/BTK/process_docking_weight1_custom_sum_contain_oxygen_bond_distance_aromatic_linkinvent_7_9_3/rearranged_h_0154.sdf

> <i_m_source_file_index>
60

> <r_mmod_Potential_Energy-OPLS-2005>
-150.725128173828

> <r_mmod_Stretch_Energy-OPLS-2005>
36.7313537597656

> <r_mmod_Bend_Energy-OPLS-2005>
112.614952087402

> <r_mmod_Torsional_Energy-OPLS-2005>
232.466033935547

> <r_mmod_Improper_Torsional_Energy-OPLS-2005>
16.6889057159424

> <r_mmod_Van_der_Waal_Energy-OPLS-2005>
167.889389038086

> <r_mmod_Electrostatic_Energy-OPLS-2005>
-311.626892089844

> <r_mmod_Solvation_Energy-OPLS-2005>
-418.878265380859

> <b_mmod_Minimization_Converged-OPLS-2005>
0

> <r_mmod_RMS_Derivative-OPLS-2005>
1.94157731533051

$$$$
61
                    3D
 Structure written by MMmdl.
162171  0  0  1  0            999 V2000
  -30.7172  -14.6061   20.4875 C   0  0  0  0  0  0
  -30.4103  -12.3447   19.4785 C   0  0  0  0  0  0
  -29.5057  -12.4889   18.2370 C   0  0  0  0  0  0
  -28.0260  -12.3463   18.6390 C   0  0  0  0  0  0
  -27.6446  -13.2349   19.8548 C   0  0  2  0  0  0
  -28.6760  -13.1400   20.9984 C   0  0  0  0  0  0
  -25.2506  -13.8224   20.5687 C   0  0  0  0  0  0
  -24.1794  -13.0458   20.9181 C   0  0  0  0  0  0
  -24.6388  -11.6937   20.8727 C   0  0  0  0  0  0
  -23.9071  -10.4305   21.0397 C   0  0  0  0  0  0
  -24.3622   -9.4221   21.9177 C   0  0  0  0  0  0
  -23.6299   -8.2254   22.0752 C   0  0  0  0  0  0
  -22.4281   -8.0286   21.3544 C   0  0  0  0  0  0
  -21.9914   -9.0258   20.4645 C   0  0  0  0  0  0
  -22.7241  -10.2139   20.3051 C   0  0  0  0  0  0
  -21.6857   -6.0738   22.5278 C   0  0  0  0  0  0
  -21.4018   -6.5642   23.8211 C   0  0  0  0  0  0
  -21.3660   -5.6794   24.9173 C   0  0  0  0  0  0
  -21.6044   -4.3056   24.7225 C   0  0  0  0  0  0
  -21.8819   -3.8148   23.4346 C   0  0  0  0  0  0
  -21.9194   -4.6965   22.3402 C   0  0  0  0  0  0
  -22.7817  -13.5231   21.1856 C   0  0  0  0  0  0
  -22.1662   -4.2150   21.0979 F   0  0  0  0  0  0
  -21.5628   -3.4540   25.7738 F   0  0  0  0  0  0
  -30.0048  -13.3871   20.4387 N   0  0  0  0  0  0
  -26.2937  -12.9443   20.3274 N   0  0  0  0  0  0
  -25.9317  -11.6576   20.5732 N   0  0  0  0  0  0
  -22.0475  -12.8213   22.0417 N   0  0  0  0  0  0
  -25.4224  -15.1948   20.4149 N   0  0  0  0  0  0
  -31.8801  -14.7091   20.0949 O   0  0  0  0  0  0
  -21.6646   -6.8882   21.4241 O   0  0  0  0  0  0
  -22.3491  -14.5536   20.6712 O   0  0  0  0  0  0
  -24.6243  -31.8628   23.2075 C   0  0  0  0  0  0
  -25.9104  -32.4795   23.8388 C   0  0  1  0  0  0
  -27.2064  -27.3239   20.1282 C   0  0  0  0  0  0
  -25.5930  -33.8597   24.2307 N   0  0  0  0  0  0
  -23.4172  -30.4892   21.5496 C   0  0  2  0  0  0
  -24.8633  -28.9525   20.1112 C   0  0  0  0  0  0
  -22.7467  -29.4638   22.4947 C   0  0  0  0  0  0
  -18.0284  -28.1383   22.8489 C   0  0  0  0  0  0
  -24.1490  -36.7299   23.2637 C   0  0  0  0  0  0
  -25.9591  -30.7922   21.3841 C   0  0  0  0  0  0
  -26.0303  -29.4201   20.7305 C   0  0  0  0  0  0
  -27.2067  -28.6134   20.7400 C   0  0  0  0  0  0
  -26.0392  -26.9401   19.4357 C   0  0  0  0  0  0
  -24.8686  -27.7151   19.4544 C   0  0  0  0  0  0
  -23.6319  -29.8314   20.1624 C   0  0  0  0  0  0
  -25.4113  -36.3093   24.0331 C   0  0  1  0  0  0
  -20.5884  -28.3688   23.1285 C   0  0  2  0  0  0
  -20.6775  -26.9413   22.5408 C   0  0  0  0  0  0
  -19.5749  -26.6384   21.5213 C   0  0  0  0  0  0
  -18.1928  -26.7926   22.1625 C   0  0  0  0  0  0
  -19.1536  -28.8851   23.2882 C   0  0  0  0  0  0
  -18.9460  -30.1454   23.8899 C   0  0  0  0  0  0
  -17.6461  -30.6586   24.0565 C   0  0  0  0  0  0
  -25.9050  -34.9460   23.5115 C   0  0  0  0  0  0
  -16.5351  -29.9086   23.6331 C   0  0  0  0  0  0
  -16.7271  -28.6502   23.0355 C   0  0  0  0  0  0
  -26.4495  -31.6598   25.0750 C   0  0  0  0  0  0
  -25.3728  -31.3729   26.1475 C   0  0  0  0  0  0
  -27.0340  -30.3023   24.6203 C   0  0  0  0  0  0
  -27.6057  -32.4334   25.7512 C   0  0  0  0  0  0
  -27.5582  -37.1802   24.8462 C   0  0  0  0  0  0
  -21.4183  -29.3045   22.3683 N   0  0  0  0  0  0
  -26.4292  -37.3785   23.9410 N   0  0  0  0  0  0
  -24.6852  -31.0648   22.1032 N   0  0  0  0  0  0
  -23.4197  -28.8167   23.3014 O   0  0  0  0  0  0
  -28.2966  -26.4455   20.1431 O   0  0  0  0  0  0
  -26.5613  -34.8919   22.4678 O   0  0  0  0  0  0
  -23.5411  -32.1432   23.7402 O   0  0  0  0  0  0
  -30.2054  -19.1708   21.9713 C   0  0  0  0  0  0
  -29.1864  -19.1066   19.8050 C   0  0  0  0  0  0
  -29.1052  -21.2433   21.1025 C   0  0  0  0  0  0
  -29.9058  -18.4215   20.8134 C   0  0  0  0  0  0
  -29.8291  -20.5379   22.1200 C   0  0  0  0  0  0
  -28.7937  -20.4760   19.9319 C   0  0  0  0  0  0
  -27.0809  -22.9368   21.3012 C   0  0  0  0  0  0
  -26.8438  -24.3366   20.6977 C   0  0  0  0  0  0
  -29.1857  -23.9911   20.5941 C   0  0  0  0  0  0
  -28.6052  -22.7318   21.3466 C   0  0  2  0  0  0
  -28.1494  -25.1493   20.8578 C   0  0  1  0  0  0
  -30.2508  -21.2212   23.4129 C   0  0  0  0  0  0
  -28.0348  -21.0707   18.7562 C   0  0  0  0  0  0
  -30.5983  -17.0428   20.5561 C   0  0  0  0  0  0
  -29.9599  -15.7511   20.8264 O   0  0  0  0  0  0
  -31.4611  -12.4235   19.1944 H   0  0  0  0  0  0
  -30.2937  -11.3571   19.9278 H   0  0  0  0  0  0
  -29.7644  -11.7358   17.4914 H   0  0  0  0  0  0
  -29.6706  -13.4589   17.7647 H   0  0  0  0  0  0
  -27.8529  -11.2965   18.8783 H   0  0  0  0  0  0
  -27.3802  -12.5733   17.7900 H   0  0  0  0  0  0
  -27.6560  -14.2643   19.4953 H   0  0  0  0  0  0
  -28.6506  -12.1525   21.4614 H   0  0  0  0  0  0
  -28.4432  -13.8575   21.7869 H   0  0  0  0  0  0
  -25.2768   -9.5700   22.4750 H   0  0  0  0  0  0
  -24.0010   -7.4649   22.7474 H   0  0  0  0  0  0
  -21.0845   -8.8775   19.8952 H   0  0  0  0  0  0
  -22.3697  -10.9675   19.6158 H   0  0  0  0  0  0
  -21.2013   -7.6150   23.9715 H   0  0  0  0  0  0
  -21.1482   -6.0524   25.9076 H   0  0  0  0  0  0
  -22.0597   -2.7610   23.2846 H   0  0  0  0  0  0
  -22.4106  -11.9874   22.4794 H   0  0  0  0  0  0
  -21.1093  -13.1228   22.2635 H   0  0  0  0  0  0
  -24.6650  -15.8571   20.5416 H   0  0  0  0  0  0
  -26.2918  -15.6340   20.1375 H   0  0  0  0  0  0
  -26.7171  -32.5470   23.1137 H   0  0  0  0  0  0
  -25.0082  -33.9755   25.0454 H   0  0  0  0  0  0
  -22.7102  -31.3097   21.4106 H   0  0  0  0  0  0
  -23.3752  -35.9630   23.3300 H   0  0  0  0  0  0
  -24.3580  -36.8919   22.2051 H   0  0  0  0  0  0
  -23.7242  -37.6501   23.6657 H   0  0  0  0  0  0
  -26.0934  -31.5537   20.6146 H   0  0  0  0  0  0
  -26.8393  -30.8393   22.0136 H   0  0  0  0  0  0
  -28.0985  -28.9611   21.2421 H   0  0  0  0  0  0
  -26.0150  -26.0242   18.8689 H   0  0  0  0  0  0
  -23.9849  -27.3633   18.9403 H   0  0  0  0  0  0
  -23.7508  -30.6114   19.4095 H   0  0  0  0  0  0
  -22.7521  -29.2616   19.8581 H   0  0  0  0  0  0
  -25.1290  -36.1951   25.0823 H   0  0  0  0  0  0
  -20.9976  -28.3262   24.1406 H   0  0  0  0  0  0
  -20.5684  -26.2297   23.3606 H   0  0  0  0  0  0
  -21.6643  -26.7448   22.1196 H   0  0  0  0  0  0
  -19.6912  -25.6295   21.1241 H   0  0  0  0  0  0
  -19.6685  -27.3195   20.6743 H   0  0  0  0  0  0
  -17.4199  -26.6677   21.4026 H   0  0  0  0  0  0
  -18.0325  -26.0066   22.9018 H   0  0  0  0  0  0
  -19.7936  -30.7268   24.2270 H   0  0  0  0  0  0
  -17.5016  -31.6267   24.5165 H   0  0  0  0  0  0
  -15.5352  -30.2990   23.7654 H   0  0  0  0  0  0
  -15.8670  -28.0821   22.7075 H   0  0  0  0  0  0
  -24.5907  -30.7076   25.7800 H   0  0  0  0  0  0
  -24.8913  -32.2891   26.4903 H   0  0  0  0  0  0
  -25.8051  -30.8904   27.0250 H   0  0  0  0  0  0
  -26.2919  -29.6773   24.1222 H   0  0  0  0  0  0
  -27.4033  -29.7278   25.4708 H   0  0  0  0  0  0
  -27.8792  -30.4310   23.9437 H   0  0  0  0  0  0
  -27.2674  -33.3636   26.2088 H   0  0  0  0  0  0
  -28.3864  -32.6893   25.0335 H   0  0  0  0  0  0
  -28.0731  -31.8463   26.5429 H   0  0  0  0  0  0
  -28.2592  -38.0106   24.7526 H   0  0  0  0  0  0
  -28.1086  -36.2640   24.6268 H   0  0  0  0  0  0
  -27.2300  -37.1430   25.8864 H   0  0  0  0  0  0
  -20.9357  -29.8780   21.6907 H   0  0  0  0  0  0
  -26.0176  -38.2860   24.1417 H   0  0  0  0  0  0
  -30.7909  -18.6949   22.7462 H   0  0  0  0  0  0
  -28.9719  -18.5811   18.8843 H   0  0  0  0  0  0
  -26.5682  -22.1832   20.7058 H   0  0  0  0  0  0
  -26.6637  -22.8649   22.3069 H   0  0  0  0  0  0
  -25.9817  -24.8244   21.1538 H   0  0  0  0  0  0
  -26.6322  -24.1870   19.6399 H   0  0  0  0  0  0
  -29.2660  -23.8092   19.5237 H   0  0  0  0  0  0
  -30.1845  -24.2462   20.9487 H   0  0  0  0  0  0
  -28.8356  -22.9670   22.3820 H   0  0  0  0  0  0
  -28.2300  -25.4087   21.9148 H   0  0  0  0  0  0
  -30.9084  -20.5881   24.0094 H   0  0  0  0  0  0
  -29.3807  -21.4568   24.0263 H   0  0  0  0  0  0
  -30.7965  -22.1422   23.2050 H   0  0  0  0  0  0
  -28.4542  -20.7178   17.8135 H   0  0  0  0  0  0
  -28.0661  -22.1563   18.7295 H   0  0  0  0  0  0
  -26.9892  -20.7636   18.7898 H   0  0  0  0  0  0
  -31.5360  -17.0633   21.1136 H   0  0  0  0  0  0
  -30.8903  -17.0465   19.5047 H   0  0  0  0  0  0
  1 25  1  0  0  0
  1 30  2  0  0  0
  1 85  1  0  0  0
  2  3  1  0  0  0
  2 25  1  0  0  0
  2 86  1  0  0  0
  2 87  1  0  0  0
  3  4  1  0  0  0
  3 88  1  0  0  0
  3 89  1  0  0  0
  4  5  1  0  0  0
  4 90  1  0  0  0
  4 91  1  0  0  0
  5  6  1  0  0  0
  5 26  1  0  0  0
  5 92  1  0  0  0
  6 25  1  0  0  0
  6 93  1  0  0  0
  6 94  1  0  0  0
  7  8  2  0  0  0
  7 26  1  0  0  0
  7 29  1  0  0  0
  8  9  1  0  0  0
  8 22  1  0  0  0
  9 10  1  0  0  0
  9 27  2  0  0  0
 10 11  2  0  0  0
 10 15  1  0  0  0
 11 12  1  0  0  0
 11 95  1  0  0  0
 12 13  2  0  0  0
 12 96  1  0  0  0
 13 14  1  0  0  0
 13 31  1  0  0  0
 14 15  2  0  0  0
 14 97  1  0  0  0
 15 98  1  0  0  0
 16 17  2  0  0  0
 16 21  1  0  0  0
 16 31  1  0  0  0
 17 18  1  0  0  0
 17 99  1  0  0  0
 18 19  2  0  0  0
 18100  1  0  0  0
 19 20  1  0  0  0
 19 24  1  0  0  0
 20 21  2  0  0  0
 20101  1  0  0  0
 21 23  1  0  0  0
 22 28  1  0  0  0
 22 32  2  0  0  0
 26 27  1  0  0  0
 28102  1  0  0  0
 28103  1  0  0  0
 29104  1  0  0  0
 29105  1  0  0  0
 33 34  1  0  0  0
 33 66  1  0  0  0
 33 70  2  0  0  0
 34 36  1  0  0  0
 34 59  1  0  0  0
 34106  1  0  0  0
 35 44  2  0  0  0
 35 45  1  0  0  0
 35 68  1  0  0  0
 36 56  1  0  0  0
 36107  1  0  0  0
 37 39  1  0  0  0
 37 47  1  0  0  0
 37 66  1  0  0  0
 37108  1  0  0  0
 38 43  2  0  0  0
 38 46  1  0  0  0
 38 47  1  0  0  0
 39 64  1  0  0  0
 39 67  2  0  0  0
 40 52  1  0  0  0
 40 53  2  0  0  0
 40 58  1  0  0  0
 41109  1  0  0  0
 41110  1  0  0  0
 41111  1  0  0  0
 41 48  1  0  0  0
 42 43  1  0  0  0
 42 66  1  0  0  0
 42112  1  0  0  0
 42113  1  0  0  0
 43 44  1  0  0  0
 44114  1  0  0  0
 45 46  2  0  0  0
 45115  1  0  0  0
 46116  1  0  0  0
 47117  1  0  0  0
 47118  1  0  0  0
 48 56  1  0  0  0
 48 65  1  0  0  0
 48119  1  0  0  0
 49 50  1  0  0  0
 49 53  1  0  0  0
 49 64  1  0  0  0
 49120  1  0  0  0
 50 51  1  0  0  0
 50121  1  0  0  0
 50122  1  0  0  0
 51 52  1  0  0  0
 51123  1  0  0  0
 51124  1  0  0  0
 52125  1  0  0  0
 52126  1  0  0  0
 53 54  1  0  0  0
 54 55  2  0  0  0
 54127  1  0  0  0
 55 57  1  0  0  0
 55128  1  0  0  0
 56 69  2  0  0  0
 57 58  2  0  0  0
 57129  1  0  0  0
 58130  1  0  0  0
 59 60  1  0  0  0
 59 61  1  0  0  0
 59 62  1  0  0  0
 60131  1  0  0  0
 60132  1  0  0  0
 60133  1  0  0  0
 61134  1  0  0  0
 61135  1  0  0  0
 61136  1  0  0  0
 62137  1  0  0  0
 62138  1  0  0  0
 62139  1  0  0  0
 63 65  1  0  0  0
 63140  1  0  0  0
 63141  1  0  0  0
 63142  1  0  0  0
 64143  1  0  0  0
 65144  1  0  0  0
 68 81  1  0  0  0
 71 74  2  0  0  0
 71 75  1  0  0  0
 71145  1  0  0  0
 72 74  1  0  0  0
 72 76  2  0  0  0
 72146  1  0  0  0
 73 75  2  0  0  0
 73 76  1  0  0  0
 73 80  1  0  0  0
 74 84  1  0  0  0
 75 82  1  0  0  0
 76 83  1  0  0  0
 77 78  1  0  0  0
 77 80  1  0  0  0
 77147  1  0  0  0
 77148  1  0  0  0
 78 81  1  0  0  0
 78149  1  0  0  0
 78150  1  0  0  0
 79 80  1  0  0  0
 79 81  1  0  0  0
 79151  1  0  0  0
 79152  1  0  0  0
 80153  1  0  0  0
 81154  1  0  0  0
 82155  1  0  0  0
 82156  1  0  0  0
 82157  1  0  0  0
 83158  1  0  0  0
 83159  1  0  0  0
 83160  1  0  0  0
 84 85  1  0  0  0
 84161  1  0  0  0
 84162  1  0  0  0
M  ISO  4   1 100  68 101  81 101  85 100
M  END
> <chiral flag>
0

> <version>
0

> <s_m_source_file>
/data/baiqing/PycharmProjects/Reinvent-master-3.2/result/LINK_invent/BTK/process_docking_weight1_custom_sum_contain_oxygen_bond_distance_aromatic_linkinvent_7_9_3/rearranged_h_0154.sdf

> <i_m_source_file_index>
61

> <r_mmod_Potential_Energy-OPLS-2005>
167.766174316406

> <r_mmod_Stretch_Energy-OPLS-2005>
80.1329727172852

> <r_mmod_Bend_Energy-OPLS-2005>
187.579864501953

> <r_mmod_Torsional_Energy-OPLS-2005>
243.661117553711

> <r_mmod_Improper_Torsional_Energy-OPLS-2005>
6.11614227294922

> <r_mmod_Van_der_Waal_Energy-OPLS-2005>
152.830215454102

> <r_mmod_Electrostatic_Energy-OPLS-2005>
-368.106048583984

> <r_mmod_Solvation_Energy-OPLS-2005>
-181.161239624023

> <b_mmod_Minimization_Converged-OPLS-2005>
0

> <r_mmod_RMS_Derivative-OPLS-2005>
0.270777195692062

$$$$
62
                    3D
 Structure written by MMmdl.
184194  0  0  1  0            999 V2000
  -30.6373  -14.5436   20.5575 C   0  0  0  0  0  0
  -30.4388  -12.3457   19.4339 C   0  0  0  0  0  0
  -29.5058  -12.5181   18.2155 C   0  0  0  0  0  0
  -28.0252  -12.3678   18.6227 C   0  0  0  0  0  0
  -27.6626  -13.2067   19.8764 C   0  0  2  0  0  0
  -28.7019  -12.9853   20.9978 C   0  0  0  0  0  0
  -25.2594  -13.8159   20.5666 C   0  0  0  0  0  0
  -24.1845  -13.0436   20.9152 C   0  0  0  0  0  0
  -24.6397  -11.6899   20.8718 C   0  0  0  0  0  0
  -23.9063  -10.4288   21.0400 C   0  0  0  0  0  0
  -24.3610   -9.4201   21.9183 C   0  0  0  0  0  0
  -23.6280   -8.2240   22.0762 C   0  0  0  0  0  0
  -22.4266   -8.0275   21.3545 C   0  0  0  0  0  0
  -21.9902   -9.0249   20.4651 C   0  0  0  0  0  0
  -22.7231  -10.2129   20.3053 C   0  0  0  0  0  0
  -21.6850   -6.0730   22.5276 C   0  0  0  0  0  0
  -21.4015   -6.5638   23.8207 C   0  0  0  0  0  0
  -21.3659   -5.6792   24.9171 C   0  0  0  0  0  0
  -21.6047   -4.3054   24.7226 C   0  0  0  0  0  0
  -21.8820   -3.8139   23.4347 C   0  0  0  0  0  0
  -21.9192   -4.6954   22.3400 C   0  0  0  0  0  0
  -22.7870  -13.5234   21.1824 C   0  0  0  0  0  0
  -22.1659   -4.2134   21.0979 F   0  0  0  0  0  0
  -21.5630   -3.4540   25.7744 F   0  0  0  0  0  0
  -30.0281  -13.3268   20.4530 N   0  0  0  0  0  0
  -26.3028  -12.9319   20.3347 N   0  0  0  0  0  0
  -25.9325  -11.6480   20.5749 N   0  0  0  0  0  0
  -22.0511  -12.8235   22.0382 N   0  0  0  0  0  0
  -25.4341  -15.1876   20.4095 N   0  0  0  0  0  0
  -31.7703  -14.7536   20.1128 O   0  0  0  0  0  0
  -21.6636   -6.8868   21.4236 O   0  0  0  0  0  0
  -22.3558  -14.5540   20.6669 O   0  0  0  0  0  0
  -24.6189  -31.8641   23.2087 C   0  0  0  0  0  0
  -25.9070  -32.4800   23.8380 C   0  0  1  0  0  0
  -27.2302  -27.3864   20.0990 C   0  0  0  0  0  0
  -25.5905  -33.8605   24.2306 N   0  0  0  0  0  0
  -23.4091  -30.4865   21.5510 C   0  0  2  0  0  0
  -24.8530  -28.9472   20.1141 C   0  0  0  0  0  0
  -22.7438  -29.4625   22.4994 C   0  0  0  0  0  0
  -18.0276  -28.1377   22.8467 C   0  0  0  0  0  0
  -24.1484  -36.7314   23.2637 C   0  0  0  0  0  0
  -25.9430  -30.8132   21.3714 C   0  0  0  0  0  0
  -26.0156  -29.4451   20.7141 C   0  0  0  0  0  0
  -27.2051  -28.6727   20.7017 C   0  0  0  0  0  0
  -26.0481  -26.9212   19.4792 C   0  0  0  0  0  0
  -24.8671  -27.6886   19.4904 C   0  0  0  0  0  0
  -23.6188  -29.8210   20.1653 C   0  0  0  0  0  0
  -25.4112  -36.3105   24.0328 C   0  0  1  0  0  0
  -20.5864  -28.3664   23.1314 C   0  0  2  0  0  0
  -20.6769  -26.9401   22.5421 C   0  0  0  0  0  0
  -19.5753  -26.6381   21.5204 C   0  0  0  0  0  0
  -18.1923  -26.7923   22.1594 C   0  0  0  0  0  0
  -19.1521  -28.8839   23.2882 C   0  0  0  0  0  0
  -18.9451  -30.1441   23.8889 C   0  0  0  0  0  0
  -17.6457  -30.6575   24.0562 C   0  0  0  0  0  0
  -25.9046  -34.9467   23.5122 C   0  0  0  0  0  0
  -16.5345  -29.9078   23.6328 C   0  0  0  0  0  0
  -16.7263  -28.6504   23.0322 C   0  0  0  0  0  0
  -26.4482  -31.6588   25.0727 C   0  0  0  0  0  0
  -25.3730  -31.3709   26.1465 C   0  0  0  0  0  0
  -27.0344  -30.3026   24.6151 C   0  0  0  0  0  0
  -27.6045  -32.4340   25.7482 C   0  0  0  0  0  0
  -27.5595  -37.1814   24.8462 C   0  0  0  0  0  0
  -21.4165  -29.3015   22.3718 N   0  0  0  0  0  0
  -26.4299  -37.3792   23.9411 N   0  0  0  0  0  0
  -24.6752  -31.0699   22.1017 N   0  0  0  0  0  0
  -23.4191  -28.8192   23.3076 O   0  0  0  0  0  0
  -28.3941  -26.6297   20.1433 O   0  0  0  0  0  0
  -26.5617  -34.8919   22.4695 O   0  0  0  0  0  0
  -23.5372  -32.1427   23.7446 O   0  0  0  0  0  0
  -29.4448  -19.1294   22.0945 C   0  0  0  0  0  0
  -30.0906  -19.0780   19.7713 C   0  0  0  0  0  0
  -32.6401  -18.4907   16.1300 C   0  0  0  0  0  0
  -30.3428  -18.3998   15.3159 C   0  0  0  0  0  0
  -29.7271  -19.8406   20.9065 C   0  0  0  0  0  0
  -29.5105  -17.7144   22.1512 C   0  0  0  0  0  0
  -31.6921  -18.7545   15.1208 C   0  0  0  0  0  0
  -32.2427  -17.8707   17.3329 C   0  0  0  0  0  0
  -29.9384  -17.7783   16.5149 C   0  0  0  0  0  0
  -29.9000  -16.9527   21.0171 C   0  0  0  0  0  0
  -30.1773  -17.6504   19.8067 C   0  0  0  0  0  0
  -30.8868  -17.5211   17.5289 C   0  0  0  0  0  0
  -28.6332  -22.1429   21.6162 C   0  0  0  0  0  0
  -29.0009  -23.6358   21.8061 C   0  0  0  0  0  0
  -30.2232  -23.3397   19.5685 C   0  0  0  0  0  0
  -29.7728  -21.3942   20.8935 C   0  0  2  0  0  0
  -29.5188  -24.3717   20.5290 C   0  0  2  0  0  0
  -29.1641  -17.0214   23.4588 C   0  0  0  0  0  0
  -32.1173  -19.4134   13.8240 C   0  0  0  0  0  0
  -33.2746  -17.5713   18.4038 C   0  0  0  0  0  0
  -28.4871  -17.3852   16.7143 C   0  0  0  0  0  0
  -30.6174  -25.3663   20.9774 C   0  0  0  0  0  0
  -28.3712  -25.2058   19.8308 C   0  0  0  0  0  0
  -29.8704  -15.5103   21.1206 N   0  0  0  0  0  0
  -29.7477  -21.9815   19.5915 O   0  0  0  0  0  0
  -30.4864  -16.9058   18.6878 O   0  0  0  0  0  0
  -31.4800  -12.4729   19.1340 H   0  0  0  0  0  0
  -30.3649  -11.3346   19.8351 H   0  0  0  0  0  0
  -29.7559  -11.7903   17.4425 H   0  0  0  0  0  0
  -29.6641  -13.5024   17.7696 H   0  0  0  0  0  0
  -27.8417  -11.3118   18.8196 H   0  0  0  0  0  0
  -27.3767  -12.6380   17.7882 H   0  0  0  0  0  0
  -27.7051  -14.2552   19.5790 H   0  0  0  0  0  0
  -28.6954  -11.9422   21.3186 H   0  0  0  0  0  0
  -28.4502  -13.5608   21.8890 H   0  0  0  0  0  0
  -25.2756   -9.5676   22.4752 H   0  0  0  0  0  0
  -23.9984   -7.4641   22.7493 H   0  0  0  0  0  0
  -21.0829   -8.8768   19.8960 H   0  0  0  0  0  0
  -22.3687  -10.9664   19.6160 H   0  0  0  0  0  0
  -21.2009   -7.6146   23.9700 H   0  0  0  0  0  0
  -21.1484   -6.0529   25.9072 H   0  0  0  0  0  0
  -22.0601   -2.7600   23.2857 H   0  0  0  0  0  0
  -22.4129  -11.9887   22.4751 H   0  0  0  0  0  0
  -21.1137  -13.1278   22.2604 H   0  0  0  0  0  0
  -24.6712  -15.8457   20.5204 H   0  0  0  0  0  0
  -26.2916  -15.6240   20.0966 H   0  0  0  0  0  0
  -26.7142  -32.5491   23.1133 H   0  0  0  0  0  0
  -25.0009  -33.9746   25.0423 H   0  0  0  0  0  0
  -22.6988  -31.3041   21.4132 H   0  0  0  0  0  0
  -23.3747  -35.9649   23.3291 H   0  0  0  0  0  0
  -24.3559  -36.8958   22.2053 H   0  0  0  0  0  0
  -23.7234  -37.6506   23.6674 H   0  0  0  0  0  0
  -26.0671  -31.5801   20.6053 H   0  0  0  0  0  0
  -26.8259  -30.8592   21.9969 H   0  0  0  0  0  0
  -28.1021  -29.0518   21.1724 H   0  0  0  0  0  0
  -26.0162  -25.9669   18.9761 H   0  0  0  0  0  0
  -23.9762  -27.3036   19.0143 H   0  0  0  0  0  0
  -23.7351  -30.5975   19.4084 H   0  0  0  0  0  0
  -22.7401  -29.2458   19.8675 H   0  0  0  0  0  0
  -25.1294  -36.1960   25.0820 H   0  0  0  0  0  0
  -20.9914  -28.3237   24.1446 H   0  0  0  0  0  0
  -20.5674  -26.2276   23.3611 H   0  0  0  0  0  0
  -21.6654  -26.7450   22.1231 H   0  0  0  0  0  0
  -19.6929  -25.6296   21.1228 H   0  0  0  0  0  0
  -19.6706  -27.3191   20.6737 H   0  0  0  0  0  0
  -17.4213  -26.6668   21.3971 H   0  0  0  0  0  0
  -18.0305  -26.0056   22.8972 H   0  0  0  0  0  0
  -19.7933  -30.7253   24.2246 H   0  0  0  0  0  0
  -17.5017  -31.6243   24.5184 H   0  0  0  0  0  0
  -15.5340  -30.2979   23.7666 H   0  0  0  0  0  0
  -15.8658  -28.0838   22.7016 H   0  0  0  0  0  0
  -24.5902  -30.7061   25.7796 H   0  0  0  0  0  0
  -24.8906  -32.2861   26.4900 H   0  0  0  0  0  0
  -25.8061  -30.8880   27.0229 H   0  0  0  0  0  0
  -26.2911  -29.6747   24.1219 H   0  0  0  0  0  0
  -27.4115  -29.7307   25.4636 H   0  0  0  0  0  0
  -27.8744  -30.4339   23.9330 H   0  0  0  0  0  0
  -27.2648  -33.3641   26.2054 H   0  0  0  0  0  0
  -28.3828  -32.6910   25.0283 H   0  0  0  0  0  0
  -28.0742  -31.8480   26.5388 H   0  0  0  0  0  0
  -28.2613  -38.0118   24.7526 H   0  0  0  0  0  0
  -28.1097  -36.2648   24.6267 H   0  0  0  0  0  0
  -27.2309  -37.1438   25.8865 H   0  0  0  0  0  0
  -20.9351  -29.8728   21.6914 H   0  0  0  0  0  0
  -26.0187  -38.2873   24.1410 H   0  0  0  0  0  0
  -29.1871  -19.6757   22.9899 H   0  0  0  0  0  0
  -30.3149  -19.6144   18.8619 H   0  0  0  0  0  0
  -33.6772  -18.7587   15.9782 H   0  0  0  0  0  0
  -29.6176  -18.6010   14.5390 H   0  0  0  0  0  0
  -27.7036  -22.0425   21.0553 H   0  0  0  0  0  0
  -28.4449  -21.7184   22.6016 H   0  0  0  0  0  0
  -29.7708  -23.6668   22.5777 H   0  0  0  0  0  0
  -28.1550  -24.1732   22.2360 H   0  0  0  0  0  0
  -31.2872  -23.2801   19.8049 H   0  0  0  0  0  0
  -30.1968  -23.6970   18.5383 H   0  0  0  0  0  0
  -30.7207  -21.6381   21.3789 H   0  0  0  0  0  0
  -28.9329  -17.7404   24.2445 H   0  0  0  0  0  0
  -30.0002  -16.4109   23.8016 H   0  0  0  0  0  0
  -28.2929  -16.3774   23.3341 H   0  0  0  0  0  0
  -33.1978  -19.3636   13.6874 H   0  0  0  0  0  0
  -31.8198  -20.4620   13.8168 H   0  0  0  0  0  0
  -31.6492  -18.9196   12.9719 H   0  0  0  0  0  0
  -34.2574  -17.9598   18.1359 H   0  0  0  0  0  0
  -33.3638  -16.4943   18.5469 H   0  0  0  0  0  0
  -32.9868  -18.0177   19.3557 H   0  0  0  0  0  0
  -27.9140  -17.4796   15.7916 H   0  0  0  0  0  0
  -28.0234  -18.0199   17.4700 H   0  0  0  0  0  0
  -28.4159  -16.3495   17.0482 H   0  0  0  0  0  0
  -31.4553  -24.8580   21.4566 H   0  0  0  0  0  0
  -30.2374  -26.0885   21.7011 H   0  0  0  0  0  0
  -31.0173  -25.9253   20.1301 H   0  0  0  0  0  0
  -27.4169  -24.7526   20.1003 H   0  0  0  0  0  0
  -28.4456  -25.1221   18.7464 H   0  0  0  0  0  0
  -29.0718  -15.1454   21.6149 H   0  0  0  0  0  0
  1 25  1  0  0  0
  1 30  2  0  0  0
  1 94  1  0  0  0
  2  3  1  0  0  0
  2 25  1  0  0  0
  2 97  1  0  0  0
  2 98  1  0  0  0
  3  4  1  0  0  0
  3 99  1  0  0  0
  3100  1  0  0  0
  4  5  1  0  0  0
  4101  1  0  0  0
  4102  1  0  0  0
  5  6  1  0  0  0
  5 26  1  0  0  0
  5103  1  0  0  0
  6 25  1  0  0  0
  6104  1  0  0  0
  6105  1  0  0  0
  7  8  2  0  0  0
  7 26  1  0  0  0
  7 29  1  0  0  0
  8  9  1  0  0  0
  8 22  1  0  0  0
  9 10  1  0  0  0
  9 27  2  0  0  0
 10 11  2  0  0  0
 10 15  1  0  0  0
 11 12  1  0  0  0
 11106  1  0  0  0
 12 13  2  0  0  0
 12107  1  0  0  0
 13 14  1  0  0  0
 13 31  1  0  0  0
 14 15  2  0  0  0
 14108  1  0  0  0
 15109  1  0  0  0
 16 17  2  0  0  0
 16 21  1  0  0  0
 16 31  1  0  0  0
 17 18  1  0  0  0
 17110  1  0  0  0
 18 19  2  0  0  0
 18111  1  0  0  0
 19 20  1  0  0  0
 19 24  1  0  0  0
 20 21  2  0  0  0
 20112  1  0  0  0
 21 23  1  0  0  0
 22 28  1  0  0  0
 22 32  2  0  0  0
 26 27  1  0  0  0
 28113  1  0  0  0
 28114  1  0  0  0
 29115  1  0  0  0
 29116  1  0  0  0
 33 34  1  0  0  0
 33 66  1  0  0  0
 33 70  2  0  0  0
 34 36  1  0  0  0
 34 59  1  0  0  0
 34117  1  0  0  0
 35 44  2  0  0  0
 35 45  1  0  0  0
 35 68  1  0  0  0
 36 56  1  0  0  0
 36118  1  0  0  0
 37 39  1  0  0  0
 37 47  1  0  0  0
 37 66  1  0  0  0
 37119  1  0  0  0
 38 43  2  0  0  0
 38 46  1  0  0  0
 38 47  1  0  0  0
 39 64  1  0  0  0
 39 67  2  0  0  0
 40 52  1  0  0  0
 40 53  2  0  0  0
 40 58  1  0  0  0
 41120  1  0  0  0
 41121  1  0  0  0
 41122  1  0  0  0
 41 48  1  0  0  0
 42 43  1  0  0  0
 42 66  1  0  0  0
 42123  1  0  0  0
 42124  1  0  0  0
 43 44  1  0  0  0
 44125  1  0  0  0
 45 46  2  0  0  0
 45126  1  0  0  0
 46127  1  0  0  0
 47128  1  0  0  0
 47129  1  0  0  0
 48 56  1  0  0  0
 48 65  1  0  0  0
 48130  1  0  0  0
 49 50  1  0  0  0
 49 53  1  0  0  0
 49 64  1  0  0  0
 49131  1  0  0  0
 50 51  1  0  0  0
 50132  1  0  0  0
 50133  1  0  0  0
 51 52  1  0  0  0
 51134  1  0  0  0
 51135  1  0  0  0
 52136  1  0  0  0
 52137  1  0  0  0
 53 54  1  0  0  0
 54 55  2  0  0  0
 54138  1  0  0  0
 55 57  1  0  0  0
 55139  1  0  0  0
 56 69  2  0  0  0
 57 58  2  0  0  0
 57140  1  0  0  0
 58141  1  0  0  0
 59 60  1  0  0  0
 59 61  1  0  0  0
 59 62  1  0  0  0
 60142  1  0  0  0
 60143  1  0  0  0
 60144  1  0  0  0
 61145  1  0  0  0
 61146  1  0  0  0
 61147  1  0  0  0
 62148  1  0  0  0
 62149  1  0  0  0
 62150  1  0  0  0
 63 65  1  0  0  0
 63151  1  0  0  0
 63152  1  0  0  0
 63153  1  0  0  0
 64154  1  0  0  0
 65155  1  0  0  0
 68 93  1  0  0  0
 71 75  2  0  0  0
 71 76  1  0  0  0
 71156  1  0  0  0
 72 75  1  0  0  0
 72 81  2  0  0  0
 72157  1  0  0  0
 73 77  2  0  0  0
 73 78  1  0  0  0
 73158  1  0  0  0
 74 77  1  0  0  0
 74 79  2  0  0  0
 74159  1  0  0  0
 75 86  1  0  0  0
 76 80  2  0  0  0
 76 88  1  0  0  0
 77 89  1  0  0  0
 78 82  2  0  0  0
 78 90  1  0  0  0
 79 82  1  0  0  0
 79 91  1  0  0  0
 80 81  1  0  0  0
 80 94  1  0  0  0
 81 96  1  0  0  0
 82 96  1  0  0  0
 83 84  1  0  0  0
 83 86  1  0  0  0
 83160  1  0  0  0
 83161  1  0  0  0
 84 87  1  0  0  0
 84162  1  0  0  0
 84163  1  0  0  0
 85 87  1  0  0  0
 85 95  1  0  0  0
 85164  1  0  0  0
 85165  1  0  0  0
 86 95  1  0  0  0
 86166  1  0  0  0
 87 92  1  0  0  0
 87 93  1  0  0  0
 88167  1  0  0  0
 88168  1  0  0  0
 88169  1  0  0  0
 89170  1  0  0  0
 89171  1  0  0  0
 89172  1  0  0  0
 90173  1  0  0  0
 90174  1  0  0  0
 90175  1  0  0  0
 91176  1  0  0  0
 91177  1  0  0  0
 91178  1  0  0  0
 92179  1  0  0  0
 92180  1  0  0  0
 92181  1  0  0  0
 93182  1  0  0  0
 93183  1  0  0  0
 94184  1  0  0  0
M  ISO  4   1 100  68 101  93 101  94 100
M  END
> <chiral flag>
0

> <version>
0

> <s_m_source_file>
/data/baiqing/PycharmProjects/Reinvent-master-3.2/result/LINK_invent/BTK/process_docking_weight1_custom_sum_contain_oxygen_bond_distance_aromatic_linkinvent_7_9_3/rearranged_h_0154.sdf

> <i_m_source_file_index>
62

> <r_mmod_Potential_Energy-OPLS-2005>
24.1992073059082

> <r_mmod_Stretch_Energy-OPLS-2005>
58.6403617858887

> <r_mmod_Bend_Energy-OPLS-2005>
134.936233520508

> <r_mmod_Torsional_Energy-OPLS-2005>
280.890106201172

> <r_mmod_Improper_Torsional_Energy-OPLS-2005>
3.3678035736084

> <r_mmod_Van_der_Waal_Energy-OPLS-2005>
175.192764282227

> <r_mmod_Electrostatic_Energy-OPLS-2005>
-444.869384765625

> <r_mmod_Solvation_Energy-OPLS-2005>
-206.744338989258

> <b_mmod_Minimization_Converged-OPLS-2005>
0

> <r_mmod_RMS_Derivative-OPLS-2005>
1.82180511951447

$$$$
63
                    3D
 Structure written by MMmdl.
154162  0  0  1  0            999 V2000
  -30.4090  -15.2114   20.3974 C   0  0  0  0  0  0
  -30.4461  -12.7687   19.5315 C   0  0  0  0  0  0
  -29.5346  -12.5616   18.2930 C   0  0  0  0  0  0
  -28.0843  -12.2810   18.7241 C   0  0  0  0  0  0
  -27.6154  -13.2591   19.8293 C   0  0  2  0  0  0
  -28.6445  -13.3956   20.9714 C   0  0  0  0  0  0
  -25.2412  -13.8224   20.5715 C   0  0  0  0  0  0
  -24.1757  -13.0442   20.9236 C   0  0  0  0  0  0
  -24.6389  -11.6920   20.8768 C   0  0  0  0  0  0
  -23.9093  -10.4291   21.0413 C   0  0  0  0  0  0
  -24.3634   -9.4198   21.9194 C   0  0  0  0  0  0
  -23.6292   -8.2241   22.0765 C   0  0  0  0  0  0
  -22.4276   -8.0286   21.3545 C   0  0  0  0  0  0
  -21.9921   -9.0269   20.4651 C   0  0  0  0  0  0
  -22.7264  -10.2136   20.3056 C   0  0  0  0  0  0
  -21.6853   -6.0735   22.5275 C   0  0  0  0  0  0
  -21.4025   -6.5644   23.8213 C   0  0  0  0  0  0
  -21.3651   -5.6791   24.9174 C   0  0  0  0  0  0
  -21.6039   -4.3052   24.7227 C   0  0  0  0  0  0
  -21.8818   -3.8145   23.4346 C   0  0  0  0  0  0
  -21.9197   -4.6962   22.3400 C   0  0  0  0  0  0
  -22.7775  -13.5201   21.1893 C   0  0  0  0  0  0
  -22.1658   -4.2145   21.0977 F   0  0  0  0  0  0
  -21.5621   -3.4534   25.7740 F   0  0  0  0  0  0
  -29.8886  -13.8916   20.3649 N   0  0  0  0  0  0
  -26.2814  -12.9462   20.3200 N   0  0  0  0  0  0
  -25.9315  -11.6587   20.5733 N   0  0  0  0  0  0
  -22.0435  -12.8183   22.0441 N   0  0  0  0  0  0
  -25.4068  -15.1963   20.4140 N   0  0  0  0  0  0
  -31.6179  -15.2807   20.1333 O   0  0  0  0  0  0
  -21.6636   -6.8882   21.4236 O   0  0  0  0  0  0
  -22.3456  -14.5503   20.6728 O   0  0  0  0  0  0
  -24.6605  -31.8255   23.1712 C   0  0  0  0  0  0
  -25.9298  -32.4591   23.8167 C   0  0  1  0  0  0
  -27.2234  -26.9543   20.1923 C   0  0  0  0  0  0
  -25.5966  -33.8401   24.2081 N   0  0  0  0  0  0
  -23.4754  -30.4365   21.5196 C   0  0  2  0  0  0
  -24.9296  -28.8269   20.1121 C   0  0  0  0  0  0
  -22.7666  -29.4442   22.4780 C   0  0  0  0  0  0
  -18.0320  -28.1415   22.8432 C   0  0  0  0  0  0
  -24.1494  -36.7215   23.2643 C   0  0  0  0  0  0
  -26.0397  -30.6441   21.3923 C   0  0  0  0  0  0
  -26.1128  -29.2344   20.7424 C   0  0  0  0  0  0
  -27.2549  -28.3196   20.7569 C   0  0  0  0  0  0
  -26.0113  -26.6899   19.5152 C   0  0  0  0  0  0
  -24.9018  -27.5729   19.4801 C   0  0  0  0  0  0
  -23.7157  -29.7535   20.1446 C   0  0  0  0  0  0
  -25.4120  -36.2959   24.0309 C   0  0  1  0  0  0
  -20.5944  -28.3746   23.1187 C   0  0  2  0  0  0
  -20.6798  -26.9426   22.5399 C   0  0  0  0  0  0
  -19.5767  -26.6383   21.5205 C   0  0  0  0  0  0
  -18.1947  -26.7949   22.1607 C   0  0  0  0  0  0
  -19.1584  -28.8901   23.2784 C   0  0  0  0  0  0
  -18.9503  -30.1487   23.8835 C   0  0  0  0  0  0
  -17.6496  -30.6589   24.0554 C   0  0  0  0  0  0
  -25.9093  -34.9348   23.5011 C   0  0  0  0  0  0
  -16.5379  -29.9080   23.6346 C   0  0  0  0  0  0
  -16.7305  -28.6519   23.0318 C   0  0  0  0  0  0
  -26.4581  -31.6514   25.0670 C   0  0  0  0  0  0
  -25.3733  -31.3748   26.1338 C   0  0  0  0  0  0
  -27.0462  -30.2893   24.6350 C   0  0  0  0  0  0
  -27.6075  -32.4334   25.7470 C   0  0  0  0  0  0
  -27.5561  -37.1741   24.8459 C   0  0  0  0  0  0
  -21.4340  -29.3034   22.3548 N   0  0  0  0  0  0
  -26.4266  -37.3690   23.9423 N   0  0  0  0  0  0
  -24.7472  -30.9941   22.0826 N   0  0  0  0  0  0
  -23.4215  -28.7997   23.3009 O   0  0  0  0  0  0
  -28.2378  -25.8727   20.2741 O   0  0  0  0  0  0
  -26.5691  -34.8881   22.4599 O   0  0  0  0  0  0
  -23.5688  -32.1214   23.6829 O   0  0  0  0  0  0
  -30.5196  -18.9824   20.1604 C   0  0  0  0  0  0
  -28.3170  -18.8205   20.7801 C   0  0  0  0  0  0
  -29.1808  -21.2778   20.3925 C   0  0  0  0  0  0
  -29.5022  -18.0099   20.4916 C   0  0  0  0  0  0
  -30.3965  -20.4750   20.1398 C   0  0  0  0  0  0
  -28.1507  -20.3092   20.7472 C   0  0  0  0  0  0
  -29.1499  -23.0067   20.4256 C   0  0  0  0  0  0
  -32.8138  -20.6431   19.8022 C   0  0  0  0  0  0
  -26.1456  -20.2098   22.0606 C   0  0  0  0  0  0
  -27.9646  -24.2523   20.2193 C   0  0  0  0  0  0
  -29.5475  -16.3959   20.5554 N   0  0  0  0  0  0
  -30.2482  -23.5308   20.6462 O   0  0  0  0  0  0
  -31.5180  -21.2378   19.8666 O   0  0  0  0  0  0
  -26.9518  -20.8898   21.1038 O   0  0  0  0  0  0
  -31.4623  -12.9906   19.2028 H   0  0  0  0  0  0
  -30.5199  -11.8523   20.1188 H   0  0  0  0  0  0
  -29.9090  -11.7415   17.6779 H   0  0  0  0  0  0
  -29.5623  -13.4536   17.6649 H   0  0  0  0  0  0
  -28.0517  -11.2615   19.1113 H   0  0  0  0  0  0
  -27.4116  -12.3019   17.8666 H   0  0  0  0  0  0
  -27.5447  -14.2306   19.3396 H   0  0  0  0  0  0
  -28.7955  -12.4465   21.4888 H   0  0  0  0  0  0
  -28.2881  -14.1022   21.7224 H   0  0  0  0  0  0
  -25.2779   -9.5664   22.4768 H   0  0  0  0  0  0
  -23.9984   -7.4639   22.7505 H   0  0  0  0  0  0
  -21.0839   -8.8810   19.8972 H   0  0  0  0  0  0
  -22.3739  -10.9677   19.6165 H   0  0  0  0  0  0
  -21.2026   -7.6151   23.9714 H   0  0  0  0  0  0
  -21.1467   -6.0521   25.9072 H   0  0  0  0  0  0
  -22.0605   -2.7604   23.2854 H   0  0  0  0  0  0
  -22.4036  -11.9830   22.4815 H   0  0  0  0  0  0
  -21.1070  -13.1229   22.2676 H   0  0  0  0  0  0
  -24.6310  -15.8414   20.5105 H   0  0  0  0  0  0
  -26.2362  -15.6343   20.0356 H   0  0  0  0  0  0
  -26.7348  -32.5168   23.0873 H   0  0  0  0  0  0
  -25.0072  -33.9484   25.0209 H   0  0  0  0  0  0
  -22.7861  -31.2663   21.3487 H   0  0  0  0  0  0
  -23.3762  -35.9542   23.3268 H   0  0  0  0  0  0
  -24.3586  -36.8913   22.2065 H   0  0  0  0  0  0
  -23.7270  -37.6401   23.6742 H   0  0  0  0  0  0
  -26.1989  -31.3851   20.6074 H   0  0  0  0  0  0
  -26.9089  -30.7126   22.0367 H   0  0  0  0  0  0
  -28.1499  -28.6282   21.2794 H   0  0  0  0  0  0
  -25.8841  -25.7322   19.0299 H   0  0  0  0  0  0
  -24.0001  -27.2520   18.9745 H   0  0  0  0  0  0
  -23.8688  -30.5247   19.3869 H   0  0  0  0  0  0
  -22.8272  -29.2052   19.8283 H   0  0  0  0  0  0
  -25.1307  -36.1746   25.0810 H   0  0  0  0  0  0
  -21.0007  -28.3355   24.1318 H   0  0  0  0  0  0
  -20.5680  -26.2357   23.3644 H   0  0  0  0  0  0
  -21.6657  -26.7405   22.1203 H   0  0  0  0  0  0
  -19.6940  -25.6287   21.1246 H   0  0  0  0  0  0
  -19.6732  -27.3185   20.6735 H   0  0  0  0  0  0
  -17.4224  -26.6690   21.4000 H   0  0  0  0  0  0
  -18.0312  -26.0106   22.9027 H   0  0  0  0  0  0
  -19.7978  -30.7292   24.2187 H   0  0  0  0  0  0
  -17.5051  -31.6266   24.5162 H   0  0  0  0  0  0
  -15.5375  -30.2942   23.7728 H   0  0  0  0  0  0
  -15.8712  -28.0841   22.7023 H   0  0  0  0  0  0
  -24.5958  -30.7042   25.7651 H   0  0  0  0  0  0
  -24.8858  -32.2926   26.4624 H   0  0  0  0  0  0
  -25.7966  -30.9019   27.0205 H   0  0  0  0  0  0
  -26.3091  -29.6581   24.1363 H   0  0  0  0  0  0
  -27.4027  -29.7243   25.4972 H   0  0  0  0  0  0
  -27.9025  -30.4079   23.9712 H   0  0  0  0  0  0
  -27.2646  -33.3706   26.1882 H   0  0  0  0  0  0
  -28.3955  -32.6797   25.0330 H   0  0  0  0  0  0
  -28.0673  -31.8576   26.5520 H   0  0  0  0  0  0
  -28.2514  -38.0079   24.7494 H   0  0  0  0  0  0
  -28.1114  -36.2608   24.6283 H   0  0  0  0  0  0
  -27.2286  -37.1363   25.8858 H   0  0  0  0  0  0
  -20.9608  -29.8758   21.6698 H   0  0  0  0  0  0
  -26.0117  -38.2745   24.1469 H   0  0  0  0  0  0
  -31.4657  -18.5309   19.9084 H   0  0  0  0  0  0
  -27.4482  -18.2410   21.0590 H   0  0  0  0  0  0
  -32.9867  -19.8757   20.5571 H   0  0  0  0  0  0
  -33.5646  -21.4165   19.9754 H   0  0  0  0  0  0
  -32.9952  -20.2213   18.8122 H   0  0  0  0  0  0
  -25.4604  -20.9275   22.5119 H   0  0  0  0  0  0
  -26.7441  -19.7746   22.8666 H   0  0  0  0  0  0
  -25.5403  -19.4312   21.5915 H   0  0  0  0  0  0
  -27.2044  -24.0514   20.9739 H   0  0  0  0  0  0
  -27.4780  -24.0427   19.2656 H   0  0  0  0  0  0
  -28.6288  -16.0388   20.7700 H   0  0  0  0  0  0
  1 25  1  0  0  0
  1 30  2  0  0  0
  1 81  1  0  0  0
  2  3  1  0  0  0
  2 25  1  0  0  0
  2 85  1  0  0  0
  2 86  1  0  0  0
  3  4  1  0  0  0
  3 87  1  0  0  0
  3 88  1  0  0  0
  4  5  1  0  0  0
  4 89  1  0  0  0
  4 90  1  0  0  0
  5  6  1  0  0  0
  5 26  1  0  0  0
  5 91  1  0  0  0
  6 25  1  0  0  0
  6 92  1  0  0  0
  6 93  1  0  0  0
  7  8  2  0  0  0
  7 26  1  0  0  0
  7 29  1  0  0  0
  8  9  1  0  0  0
  8 22  1  0  0  0
  9 10  1  0  0  0
  9 27  2  0  0  0
 10 11  2  0  0  0
 10 15  1  0  0  0
 11 12  1  0  0  0
 11 94  1  0  0  0
 12 13  2  0  0  0
 12 95  1  0  0  0
 13 14  1  0  0  0
 13 31  1  0  0  0
 14 15  2  0  0  0
 14 96  1  0  0  0
 15 97  1  0  0  0
 16 17  2  0  0  0
 16 21  1  0  0  0
 16 31  1  0  0  0
 17 18  1  0  0  0
 17 98  1  0  0  0
 18 19  2  0  0  0
 18 99  1  0  0  0
 19 20  1  0  0  0
 19 24  1  0  0  0
 20 21  2  0  0  0
 20100  1  0  0  0
 21 23  1  0  0  0
 22 28  1  0  0  0
 22 32  2  0  0  0
 26 27  1  0  0  0
 28101  1  0  0  0
 28102  1  0  0  0
 29103  1  0  0  0
 29104  1  0  0  0
 33 34  1  0  0  0
 33 66  1  0  0  0
 33 70  2  0  0  0
 34 36  1  0  0  0
 34 59  1  0  0  0
 34105  1  0  0  0
 35 44  2  0  0  0
 35 45  1  0  0  0
 35 68  1  0  0  0
 36 56  1  0  0  0
 36106  1  0  0  0
 37 39  1  0  0  0
 37 47  1  0  0  0
 37 66  1  0  0  0
 37107  1  0  0  0
 38 43  2  0  0  0
 38 46  1  0  0  0
 38 47  1  0  0  0
 39 64  1  0  0  0
 39 67  2  0  0  0
 40 52  1  0  0  0
 40 53  2  0  0  0
 40 58  1  0  0  0
 41108  1  0  0  0
 41109  1  0  0  0
 41110  1  0  0  0
 41 48  1  0  0  0
 42 43  1  0  0  0
 42 66  1  0  0  0
 42111  1  0  0  0
 42112  1  0  0  0
 43 44  1  0  0  0
 44113  1  0  0  0
 45 46  2  0  0  0
 45114  1  0  0  0
 46115  1  0  0  0
 47116  1  0  0  0
 47117  1  0  0  0
 48 56  1  0  0  0
 48 65  1  0  0  0
 48118  1  0  0  0
 49 50  1  0  0  0
 49 53  1  0  0  0
 49 64  1  0  0  0
 49119  1  0  0  0
 50 51  1  0  0  0
 50120  1  0  0  0
 50121  1  0  0  0
 51 52  1  0  0  0
 51122  1  0  0  0
 51123  1  0  0  0
 52124  1  0  0  0
 52125  1  0  0  0
 53 54  1  0  0  0
 54 55  2  0  0  0
 54126  1  0  0  0
 55 57  1  0  0  0
 55127  1  0  0  0
 56 69  2  0  0  0
 57 58  2  0  0  0
 57128  1  0  0  0
 58129  1  0  0  0
 59 60  1  0  0  0
 59 61  1  0  0  0
 59 62  1  0  0  0
 60130  1  0  0  0
 60131  1  0  0  0
 60132  1  0  0  0
 61133  1  0  0  0
 61134  1  0  0  0
 61135  1  0  0  0
 62136  1  0  0  0
 62137  1  0  0  0
 62138  1  0  0  0
 63 65  1  0  0  0
 63139  1  0  0  0
 63140  1  0  0  0
 63141  1  0  0  0
 64142  1  0  0  0
 65143  1  0  0  0
 68 80  1  0  0  0
 71 74  2  0  0  0
 71 75  1  0  0  0
 71144  1  0  0  0
 72 74  1  0  0  0
 72 76  2  0  0  0
 72145  1  0  0  0
 73 75  2  0  0  0
 73 76  1  0  0  0
 73 77  1  0  0  0
 74 81  1  0  0  0
 75 83  1  0  0  0
 76 84  1  0  0  0
 77 80  1  0  0  0
 77 82  2  0  0  0
 78 83  1  0  0  0
 78146  1  0  0  0
 78147  1  0  0  0
 78148  1  0  0  0
 79 84  1  0  0  0
 79149  1  0  0  0
 79150  1  0  0  0
 79151  1  0  0  0
 80152  1  0  0  0
 80153  1  0  0  0
 81154  1  0  0  0
M  ISO  4   1 100  68 101  80 101  81 100
M  END
> <chiral flag>
0

> <version>
0

> <s_m_source_file>
/data/baiqing/PycharmProjects/Reinvent-master-3.2/result/LINK_invent/BTK/process_docking_weight1_custom_sum_contain_oxygen_bond_distance_aromatic_linkinvent_7_9_3/rearranged_h_0154.sdf

> <i_m_source_file_index>
63

> <r_mmod_Potential_Energy-OPLS-2005>
1203.76940917969

> <r_mmod_Stretch_Energy-OPLS-2005>
498.366271972656

> <r_mmod_Bend_Energy-OPLS-2005>
416.349426269531

> <r_mmod_Torsional_Energy-OPLS-2005>
247.532089233398

> <r_mmod_Improper_Torsional_Energy-OPLS-2005>
4.33767318725586

> <r_mmod_Van_der_Waal_Energy-OPLS-2005>
138.826568603516

> <r_mmod_Electrostatic_Energy-OPLS-2005>
-271.658447265625

> <r_mmod_Solvation_Energy-OPLS-2005>
-244.879821777344

> <b_mmod_Minimization_Converged-OPLS-2005>
0

> <r_mmod_RMS_Derivative-OPLS-2005>
3.64247608184814

$$$$
64
                    3D
 Structure written by MMmdl.
180189  0  0  1  0            999 V2000
  -30.8425  -14.2820   20.7387 C   0  0  0  0  0  0
  -30.4006  -12.2718   19.3465 C   0  0  0  0  0  0
  -29.4566  -12.5419   18.1679 C   0  0  0  0  0  0
  -27.9909  -12.3876   18.6077 C   0  0  0  0  0  0
  -27.6651  -13.2006   19.8887 C   0  0  2  0  0  0
  -28.7048  -12.9331   21.0013 C   0  0  0  0  0  0
  -25.2589  -13.8162   20.5709 C   0  0  0  0  0  0
  -24.1827  -13.0445   20.9175 C   0  0  0  0  0  0
  -24.6380  -11.6907   20.8748 C   0  0  0  0  0  0
  -23.9053  -10.4296   21.0417 C   0  0  0  0  0  0
  -24.3606   -9.4211   21.9193 C   0  0  0  0  0  0
  -23.6291   -8.2241   22.0756 C   0  0  0  0  0  0
  -22.4272   -8.0281   21.3543 C   0  0  0  0  0  0
  -21.9907   -9.0254   20.4646 C   0  0  0  0  0  0
  -22.7228  -10.2143   20.3061 C   0  0  0  0  0  0
  -21.6851   -6.0739   22.5284 C   0  0  0  0  0  0
  -21.4014   -6.5643   23.8215 C   0  0  0  0  0  0
  -21.3658   -5.6794   24.9177 C   0  0  0  0  0  0
  -21.6044   -4.3057   24.7229 C   0  0  0  0  0  0
  -21.8817   -3.8150   23.4348 C   0  0  0  0  0  0
  -21.9191   -4.6969   22.3401 C   0  0  0  0  0  0
  -22.7853  -13.5250   21.1839 C   0  0  0  0  0  0
  -22.1657   -4.2153   21.0982 F   0  0  0  0  0  0
  -21.5632   -3.4540   25.7740 F   0  0  0  0  0  0
  -30.0433  -13.1775   20.4397 N   0  0  0  0  0  0
  -26.3038  -12.9327   20.3465 N   0  0  0  0  0  0
  -25.9302  -11.6487   20.5800 N   0  0  0  0  0  0
  -22.0488  -12.8233   22.0395 N   0  0  0  0  0  0
  -25.4339  -15.1871   20.4134 N   0  0  0  0  0  0
  -31.7969  -14.6752   20.0616 O   0  0  0  0  0  0
  -21.6634   -6.8883   21.4241 O   0  0  0  0  0  0
  -22.3538  -14.5550   20.6694 O   0  0  0  0  0  0
  -24.6067  -31.8721   23.2173 C   0  0  0  0  0  0
  -25.8967  -32.4871   23.8456 C   0  0  1  0  0  0
  -27.2358  -27.4864   20.0771 C   0  0  0  0  0  0
  -25.5828  -33.8666   24.2383 N   0  0  0  0  0  0
  -23.3940  -30.4942   21.5586 C   0  0  2  0  0  0
  -24.8416  -28.9751   20.1081 C   0  0  0  0  0  0
  -22.7380  -29.4663   22.5053 C   0  0  0  0  0  0
  -18.0256  -28.1330   22.8515 C   0  0  0  0  0  0
  -24.1468  -36.7334   23.2646 C   0  0  0  0  0  0
  -25.9163  -30.8531   21.3615 C   0  0  0  0  0  0
  -25.9980  -29.4939   20.7042 C   0  0  0  0  0  0
  -27.1985  -28.7552   20.6897 C   0  0  0  0  0  0
  -26.0699  -26.9903   19.4451 C   0  0  0  0  0  0
  -24.8687  -27.7198   19.4781 C   0  0  0  0  0  0
  -23.5962  -29.8275   20.1721 C   0  0  0  0  0  0
  -25.4088  -36.3151   24.0357 C   0  0  1  0  0  0
  -20.5845  -28.3625   23.1335 C   0  0  2  0  0  0
  -20.6742  -26.9365   22.5415 C   0  0  0  0  0  0
  -19.5722  -26.6358   21.5197 C   0  0  0  0  0  0
  -18.1900  -26.7885   22.1620 C   0  0  0  0  0  0
  -19.1505  -28.8792   23.2922 C   0  0  0  0  0  0
  -18.9444  -30.1395   23.8939 C   0  0  0  0  0  0
  -17.6455  -30.6574   24.0542 C   0  0  0  0  0  0
  -25.8997  -34.9514   23.5188 C   0  0  0  0  0  0
  -16.5349  -29.9079   23.6304 C   0  0  0  0  0  0
  -16.7250  -28.6458   23.0386 C   0  0  0  0  0  0
  -26.4414  -31.6628   25.0754 C   0  0  0  0  0  0
  -25.3692  -31.3686   26.1523 C   0  0  0  0  0  0
  -27.0249  -30.3095   24.6046 C   0  0  0  0  0  0
  -27.6022  -32.4328   25.7486 C   0  0  0  0  0  0
  -27.5574  -37.1820   24.8471 C   0  0  0  0  0  0
  -21.4113  -29.3028   22.3778 N   0  0  0  0  0  0
  -26.4299  -37.3813   23.9398 N   0  0  0  0  0  0
  -24.6581  -31.0841   22.1067 N   0  0  0  0  0  0
  -23.4169  -28.8172   23.3049 O   0  0  0  0  0  0
  -28.3903  -26.7456   20.1740 O   0  0  0  0  0  0
  -26.5598  -34.8962   22.4774 O   0  0  0  0  0  0
  -23.5264  -32.1465   23.7576 O   0  0  0  0  0  0
  -27.6077  -18.2473   20.4338 C   0  0  0  0  0  0
  -28.6372  -19.3929   22.2978 C   0  0  0  0  0  0
  -26.7460  -20.4437   21.1271 C   0  0  0  0  0  0
  -26.6810  -19.2979   20.2806 C   0  0  0  0  0  0
  -28.5935  -18.2837   21.4308 C   0  0  0  0  0  0
  -27.7475  -20.4787   22.1421 C   0  0  0  0  0  0
  -26.5870  -22.9112   20.4706 C   0  0  0  0  0  0
  -25.8105  -21.6556   20.8718 C   0  0  2  0  0  0
  -25.4959  -23.5006   22.4627 C   0  0  2  0  0  0
  -24.8782  -22.1300   22.0374 C   0  0  0  0  0  0
  -25.6574  -19.1617   19.1620 C   0  0  0  0  0  0
  -23.4559  -22.3825   21.4864 C   0  0  0  0  0  0
  -24.7119  -21.1184   23.2025 C   0  0  0  0  0  0
  -28.5914  -21.5339   24.1495 C   0  0  0  0  0  0
  -27.3096  -25.0446   21.6433 C   0  0  0  0  0  0
  -28.2172  -25.3442   20.4083 C   0  0  0  0  0  0
  -30.2469  -17.0581   22.6680 C   0  0  0  0  0  0
  -31.2183  -15.9016   22.4608 C   0  0  0  0  0  0
  -26.7697  -23.6583   21.7249 N   0  3  2  0  0  0
  -25.9368  -23.5825   23.8054 O   0  0  0  0  0  0
  -27.8596  -21.6020   22.9298 O   0  0  0  0  0  0
  -29.4927  -17.2437   21.4732 O   0  0  0  0  0  0
  -30.5015  -14.7970   21.9287 O   0  0  0  0  0  0
  -31.4402  -12.3882   19.0346 H   0  0  0  0  0  0
  -30.3018  -11.2391   19.6837 H   0  0  0  0  0  0
  -29.6737  -11.8595   17.3454 H   0  0  0  0  0  0
  -29.6224  -13.5501   17.7847 H   0  0  0  0  0  0
  -27.8036  -11.3274   18.7826 H   0  0  0  0  0  0
  -27.3229  -12.6838   17.7976 H   0  0  0  0  0  0
  -27.7286  -14.2565   19.6252 H   0  0  0  0  0  0
  -28.6430  -11.8992   21.3429 H   0  0  0  0  0  0
  -28.4740  -13.5505   21.8700 H   0  0  0  0  0  0
  -25.2757   -9.5686   22.4762 H   0  0  0  0  0  0
  -24.0006   -7.4631   22.7472 H   0  0  0  0  0  0
  -21.0843   -8.8774   19.8947 H   0  0  0  0  0  0
  -22.3695  -10.9680   19.6170 H   0  0  0  0  0  0
  -21.2004   -7.6151   23.9722 H   0  0  0  0  0  0
  -21.1483   -6.0525   25.9080 H   0  0  0  0  0  0
  -22.0596   -2.7615   23.2847 H   0  0  0  0  0  0
  -22.4100  -11.9898   22.4786 H   0  0  0  0  0  0
  -21.1104  -13.1257   22.2594 H   0  0  0  0  0  0
  -24.6801  -15.8525   20.5416 H   0  0  0  0  0  0
  -26.3135  -15.6218   20.1680 H   0  0  0  0  0  0
  -26.7047  -32.5603   23.1230 H   0  0  0  0  0  0
  -24.9924  -33.9839   25.0494 H   0  0  0  0  0  0
  -22.6813  -31.3102   21.4241 H   0  0  0  0  0  0
  -23.3736  -35.9658   23.3331 H   0  0  0  0  0  0
  -24.3561  -36.8905   22.2054 H   0  0  0  0  0  0
  -23.7213  -37.6543   23.6651 H   0  0  0  0  0  0
  -26.0150  -31.6215   20.5925 H   0  0  0  0  0  0
  -26.8081  -30.9117   21.9745 H   0  0  0  0  0  0
  -28.0861  -29.1396   21.1741 H   0  0  0  0  0  0
  -26.0668  -26.0388   18.9359 H   0  0  0  0  0  0
  -23.9819  -27.3183   19.0067 H   0  0  0  0  0  0
  -23.6837  -30.6014   19.4096 H   0  0  0  0  0  0
  -22.7254  -29.2325   19.8895 H   0  0  0  0  0  0
  -25.1250  -36.2055   25.0848 H   0  0  0  0  0  0
  -20.9913  -28.3180   24.1464 H   0  0  0  0  0  0
  -20.5590  -26.2245   23.3599 H   0  0  0  0  0  0
  -21.6628  -26.7394   22.1237 H   0  0  0  0  0  0
  -19.6893  -25.6268   21.1229 H   0  0  0  0  0  0
  -19.6658  -27.3173   20.6726 H   0  0  0  0  0  0
  -17.4159  -26.6631   21.4025 H   0  0  0  0  0  0
  -18.0313  -26.0015   22.9008 H   0  0  0  0  0  0
  -19.7931  -30.7153   24.2376 H   0  0  0  0  0  0
  -17.5035  -31.6274   24.5114 H   0  0  0  0  0  0
  -15.5352  -30.2999   23.7599 H   0  0  0  0  0  0
  -15.8639  -28.0755   22.7159 H   0  0  0  0  0  0
  -24.5878  -30.7012   25.7847 H   0  0  0  0  0  0
  -24.8852  -32.2817   26.5012 H   0  0  0  0  0  0
  -25.8052  -30.8837   27.0273 H   0  0  0  0  0  0
  -26.2783  -29.6868   24.1093 H   0  0  0  0  0  0
  -27.4068  -29.7298   25.4460 H   0  0  0  0  0  0
  -27.8587  -30.4456   23.9150 H   0  0  0  0  0  0
  -27.2685  -33.3637   26.2088 H   0  0  0  0  0  0
  -28.3798  -32.6860   25.0264 H   0  0  0  0  0  0
  -28.0731  -31.8434   26.5364 H   0  0  0  0  0  0
  -28.2621  -38.0093   24.7522 H   0  0  0  0  0  0
  -28.1050  -36.2640   24.6305 H   0  0  0  0  0  0
  -27.2315  -37.1458   25.8882 H   0  0  0  0  0  0
  -20.9263  -29.8808   21.7054 H   0  0  0  0  0  0
  -26.0214  -38.2900   24.1390 H   0  0  0  0  0  0
  -27.5760  -17.3966   19.7685 H   0  0  0  0  0  0
  -29.3933  -19.4406   23.0605 H   0  0  0  0  0  0
  -25.9856  -23.5099   19.7836 H   0  0  0  0  0  0
  -27.5262  -22.6646   19.9713 H   0  0  0  0  0  0
  -25.1813  -21.4264   20.0165 H   0  0  0  0  0  0
  -24.8204  -24.3280   22.2351 H   0  0  0  0  0  0
  -25.7033  -18.1783   18.6940 H   0  0  0  0  0  0
  -25.8369  -19.9026   18.3817 H   0  0  0  0  0  0
  -24.6427  -19.2848   19.5425 H   0  0  0  0  0  0
  -23.4577  -23.0859   20.6525 H   0  0  0  0  0  0
  -22.7997  -22.7975   22.2521 H   0  0  0  0  0  0
  -23.0008  -21.4580   21.1291 H   0  0  0  0  0  0
  -25.6326  -20.9247   23.7508 H   0  0  0  0  0  0
  -24.3487  -20.1571   22.8369 H   0  0  0  0  0  0
  -23.9895  -21.4783   23.9366 H   0  0  0  0  0  0
  -28.4160  -22.4486   24.7168 H   0  0  0  0  0  0
  -29.6649  -21.4637   23.9695 H   0  0  0  0  0  0
  -28.2687  -20.6971   24.7714 H   0  0  0  0  0  0
  -26.4591  -25.7208   21.6874 H   0  0  0  0  0  0
  -27.8673  -25.2467   22.5577 H   0  0  0  0  0  0
  -27.8474  -24.9076   19.4827 H   0  0  0  0  0  0
  -29.1996  -24.8982   20.5654 H   0  0  0  0  0  0
  -30.8391  -17.9373   22.9197 H   0  0  0  0  0  0
  -29.5743  -16.8448   23.4994 H   0  0  0  0  0  0
  -31.6671  -15.6132   23.4108 H   0  0  0  0  0  0
  -32.0363  -16.2277   21.8182 H   0  0  0  0  0  0
  -27.4276  -23.0885   22.2456 H   0  0  0  0  0  0
  -25.2016  -23.8901   24.3252 H   0  0  0  0  0  0
  1 25  1  0  0  0
  1 30  2  0  0  0
  1 93  1  0  0  0
  2  3  1  0  0  0
  2 25  1  0  0  0
  2 94  1  0  0  0
  2 95  1  0  0  0
  3  4  1  0  0  0
  3 96  1  0  0  0
  3 97  1  0  0  0
  4  5  1  0  0  0
  4 98  1  0  0  0
  4 99  1  0  0  0
  5  6  1  0  0  0
  5 26  1  0  0  0
  5100  1  0  0  0
  6 25  1  0  0  0
  6101  1  0  0  0
  6102  1  0  0  0
  7  8  2  0  0  0
  7 26  1  0  0  0
  7 29  1  0  0  0
  8  9  1  0  0  0
  8 22  1  0  0  0
  9 10  1  0  0  0
  9 27  2  0  0  0
 10 11  2  0  0  0
 10 15  1  0  0  0
 11 12  1  0  0  0
 11103  1  0  0  0
 12 13  2  0  0  0
 12104  1  0  0  0
 13 14  1  0  0  0
 13 31  1  0  0  0
 14 15  2  0  0  0
 14105  1  0  0  0
 15106  1  0  0  0
 16 17  2  0  0  0
 16 21  1  0  0  0
 16 31  1  0  0  0
 17 18  1  0  0  0
 17107  1  0  0  0
 18 19  2  0  0  0
 18108  1  0  0  0
 19 20  1  0  0  0
 19 24  1  0  0  0
 20 21  2  0  0  0
 20109  1  0  0  0
 21 23  1  0  0  0
 22 28  1  0  0  0
 22 32  2  0  0  0
 26 27  1  0  0  0
 28110  1  0  0  0
 28111  1  0  0  0
 29112  1  0  0  0
 29113  1  0  0  0
 33 34  1  0  0  0
 33 66  1  0  0  0
 33 70  2  0  0  0
 34 36  1  0  0  0
 34 59  1  0  0  0
 34114  1  0  0  0
 35 44  2  0  0  0
 35 45  1  0  0  0
 35 68  1  0  0  0
 36 56  1  0  0  0
 36115  1  0  0  0
 37 39  1  0  0  0
 37 47  1  0  0  0
 37 66  1  0  0  0
 37116  1  0  0  0
 38 43  2  0  0  0
 38 46  1  0  0  0
 38 47  1  0  0  0
 39 64  1  0  0  0
 39 67  2  0  0  0
 40 52  1  0  0  0
 40 53  2  0  0  0
 40 58  1  0  0  0
 41117  1  0  0  0
 41118  1  0  0  0
 41119  1  0  0  0
 41 48  1  0  0  0
 42 43  1  0  0  0
 42 66  1  0  0  0
 42120  1  0  0  0
 42121  1  0  0  0
 43 44  1  0  0  0
 44122  1  0  0  0
 45 46  2  0  0  0
 45123  1  0  0  0
 46124  1  0  0  0
 47125  1  0  0  0
 47126  1  0  0  0
 48 56  1  0  0  0
 48 65  1  0  0  0
 48127  1  0  0  0
 49 50  1  0  0  0
 49 53  1  0  0  0
 49 64  1  0  0  0
 49128  1  0  0  0
 50 51  1  0  0  0
 50129  1  0  0  0
 50130  1  0  0  0
 51 52  1  0  0  0
 51131  1  0  0  0
 51132  1  0  0  0
 52133  1  0  0  0
 52134  1  0  0  0
 53 54  1  0  0  0
 54 55  2  0  0  0
 54135  1  0  0  0
 55 57  1  0  0  0
 55136  1  0  0  0
 56 69  2  0  0  0
 57 58  2  0  0  0
 57137  1  0  0  0
 58138  1  0  0  0
 59 60  1  0  0  0
 59 61  1  0  0  0
 59 62  1  0  0  0
 60139  1  0  0  0
 60140  1  0  0  0
 60141  1  0  0  0
 61142  1  0  0  0
 61143  1  0  0  0
 61144  1  0  0  0
 62145  1  0  0  0
 62146  1  0  0  0
 62147  1  0  0  0
 63 65  1  0  0  0
 63148  1  0  0  0
 63149  1  0  0  0
 63150  1  0  0  0
 64151  1  0  0  0
 65152  1  0  0  0
 68 86  1  0  0  0
 71 74  2  0  0  0
 71 75  1  0  0  0
 71153  1  0  0  0
 72 75  2  0  0  0
 72 76  1  0  0  0
 72154  1  0  0  0
 73 74  1  0  0  0
 73 76  2  0  0  0
 73 78  1  0  0  0
 74 81  1  0  0  0
 75 92  1  0  0  0
 76 91  1  0  0  0
 77 78  1  0  0  0
 77 89  1  0  0  0
 77155  1  0  0  0
 77156  1  0  0  0
 78 80  1  0  0  0
 78157  1  0  0  0
 79 80  1  0  0  0
 79 89  1  0  0  0
 79 90  1  0  0  0
 79158  1  0  0  0
 80 82  1  0  0  0
 80 83  1  0  0  0
 81159  1  0  0  0
 81160  1  0  0  0
 81161  1  0  0  0
 82162  1  0  0  0
 82163  1  0  0  0
 82164  1  0  0  0
 83165  1  0  0  0
 83166  1  0  0  0
 83167  1  0  0  0
 84 91  1  0  0  0
 84168  1  0  0  0
 84169  1  0  0  0
 84170  1  0  0  0
 85 86  1  0  0  0
 85171  1  0  0  0
 85172  1  0  0  0
 85 89  1  0  0  0
 86173  1  0  0  0
 86174  1  0  0  0
 87 88  1  0  0  0
 87 92  1  0  0  0
 87175  1  0  0  0
 87176  1  0  0  0
 88 93  1  0  0  0
 88177  1  0  0  0
 88178  1  0  0  0
 89179  1  0  0  0
 90180  1  0  0  0
M  CHG  1  89   1
M  ISO  4   1 100  68 101  86 101  93 100
M  END
> <chiral flag>
0

> <version>
0

> <s_m_source_file>
/data/baiqing/PycharmProjects/Reinvent-master-3.2/result/LINK_invent/BTK/process_docking_weight1_custom_sum_contain_oxygen_bond_distance_aromatic_linkinvent_7_9_3/rearranged_h_0154.sdf

> <i_m_source_file_index>
64

> <r_mmod_Potential_Energy-OPLS-2005>
-88.8883285522461

> <r_mmod_Stretch_Energy-OPLS-2005>
40.6058235168457

> <r_mmod_Bend_Energy-OPLS-2005>
145.823425292969

> <r_mmod_Torsional_Energy-OPLS-2005>
272.508941650391

> <r_mmod_Improper_Torsional_Energy-OPLS-2005>
2.5463399887085

> <r_mmod_Van_der_Waal_Energy-OPLS-2005>
189.919204711914

> <r_mmod_Electrostatic_Energy-OPLS-2005>
-369.455291748047

> <r_mmod_Solvation_Energy-OPLS-2005>
-381.984558105469

> <b_mmod_Minimization_Converged-OPLS-2005>
0

> <r_mmod_RMS_Derivative-OPLS-2005>
2.19720506668091

$$$$
65
                    3D
 Structure written by MMmdl.
164173  0  0  1  0            999 V2000
  -30.6636  -14.5962   20.5012 C   0  0  0  0  0  0
  -30.4186  -12.3674   19.4527 C   0  0  0  0  0  0
  -29.5041  -12.5023   18.2187 C   0  0  0  0  0  0
  -28.0253  -12.3525   18.6249 C   0  0  0  0  0  0
  -27.6467  -13.2244   19.8543 C   0  0  2  0  0  0
  -28.6872  -13.0998   20.9888 C   0  0  0  0  0  0
  -25.2531  -13.8194   20.5705 C   0  0  0  0  0  0
  -24.1810  -13.0449   20.9183 C   0  0  0  0  0  0
  -24.6397  -11.6924   20.8746 C   0  0  0  0  0  0
  -23.9092  -10.4307   21.0431 C   0  0  0  0  0  0
  -24.3652   -9.4206   21.9203 C   0  0  0  0  0  0
  -23.6313   -8.2245   22.0763 C   0  0  0  0  0  0
  -22.4290   -8.0294   21.3558 C   0  0  0  0  0  0
  -21.9954   -9.0253   20.4635 C   0  0  0  0  0  0
  -22.7290  -10.2133   20.3053 C   0  0  0  0  0  0
  -21.6846   -6.0758   22.5299 C   0  0  0  0  0  0
  -21.4001   -6.5663   23.8235 C   0  0  0  0  0  0
  -21.3661   -5.6808   24.9197 C   0  0  0  0  0  0
  -21.6047   -4.3068   24.7236 C   0  0  0  0  0  0
  -21.8830   -3.8165   23.4360 C   0  0  0  0  0  0
  -21.9193   -4.6989   22.3416 C   0  0  0  0  0  0
  -22.7826  -13.5204   21.1838 C   0  0  0  0  0  0
  -22.1656   -4.2179   21.0991 F   0  0  0  0  0  0
  -21.5635   -3.4547   25.7746 F   0  0  0  0  0  0
  -30.0028  -13.4033   20.4145 N   0  0  0  0  0  0
  -26.2957  -12.9389   20.3279 N   0  0  0  0  0  0
  -25.9315  -11.6541   20.5722 N   0  0  0  0  0  0
  -22.0482  -12.8155   22.0359 N   0  0  0  0  0  0
  -25.4275  -15.1917   20.4162 N   0  0  0  0  0  0
  -31.8509  -14.6930   20.1744 O   0  0  0  0  0  0
  -21.6636   -6.8904   21.4270 O   0  0  0  0  0  0
  -22.3498  -14.5524   20.6713 O   0  0  0  0  0  0
  -24.6238  -31.8659   23.2043 C   0  0  0  0  0  0
  -25.9096  -32.4807   23.8362 C   0  0  1  0  0  0
  -27.2002  -27.3521   20.1058 C   0  0  0  0  0  0
  -25.5912  -33.8610   24.2279 N   0  0  0  0  0  0
  -23.4147  -30.4923   21.5493 C   0  0  2  0  0  0
  -24.8558  -28.9610   20.1041 C   0  0  0  0  0  0
  -22.7462  -29.4671   22.4952 C   0  0  0  0  0  0
  -18.0289  -28.1410   22.8498 C   0  0  0  0  0  0
  -24.1504  -36.7312   23.2627 C   0  0  0  0  0  0
  -25.9536  -30.8083   21.3690 C   0  0  0  0  0  0
  -26.0271  -29.4411   20.7066 C   0  0  0  0  0  0
  -27.2109  -28.6477   20.6995 C   0  0  0  0  0  0
  -26.0158  -26.9273   19.4686 C   0  0  0  0  0  0
  -24.8501  -27.7096   19.4757 C   0  0  0  0  0  0
  -23.6210  -29.8351   20.1615 C   0  0  0  0  0  0
  -25.4130  -36.3116   24.0323 C   0  0  1  0  0  0
  -20.5877  -28.3721   23.1306 C   0  0  2  0  0  0
  -20.6790  -26.9449   22.5418 C   0  0  0  0  0  0
  -19.5757  -26.6401   21.5237 C   0  0  0  0  0  0
  -18.1937  -26.7945   22.1648 C   0  0  0  0  0  0
  -19.1533  -28.8882   23.2898 C   0  0  0  0  0  0
  -18.9457  -30.1477   23.8917 C   0  0  0  0  0  0
  -17.6461  -30.6607   24.0576 C   0  0  0  0  0  0
  -25.9068  -34.9476   23.5107 C   0  0  0  0  0  0
  -16.5360  -29.9109   23.6320 C   0  0  0  0  0  0
  -16.7281  -28.6527   23.0352 C   0  0  0  0  0  0
  -26.4432  -31.6590   25.0728 C   0  0  0  0  0  0
  -25.3632  -31.3741   26.1421 C   0  0  0  0  0  0
  -27.0223  -30.2997   24.6155 C   0  0  0  0  0  0
  -27.5968  -32.4285   25.7577 C   0  0  0  0  0  0
  -27.5604  -37.1825   24.8451 C   0  0  0  0  0  0
  -21.4177  -29.3082   22.3696 N   0  0  0  0  0  0
  -26.4307  -37.3812   23.9406 N   0  0  0  0  0  0
  -24.6831  -31.0693   22.0985 N   0  0  0  0  0  0
  -23.4204  -28.8204   23.3011 O   0  0  0  0  0  0
  -28.2538  -26.4423   20.1773 O   0  0  0  0  0  0
  -26.5648  -34.8940   22.4685 O   0  0  0  0  0  0
  -23.5406  -32.1451   23.7387 O   0  0  0  0  0  0
  -29.3358  -23.3012   21.8136 C   0  0  0  0  0  0
  -28.4469  -21.5826   19.7984 C   0  0  0  0  0  0
  -28.5187  -23.8589   20.7965 C   0  0  0  0  0  0
  -29.6890  -21.9249   21.8435 C   0  0  0  0  0  0
  -28.0912  -22.9682   19.7651 C   0  0  0  0  0  0
  -29.2416  -21.0298   20.8386 C   0  0  0  0  0  0
  -28.8839  -17.7933   19.4263 C   0  0  0  0  0  0
  -28.7904  -17.6006   21.9203 C   0  0  0  0  0  0
  -29.9831  -16.6862   19.4541 C   0  0  0  0  0  0
  -29.9300  -16.5369   21.8318 C   0  0  0  0  0  0
  -28.7120  -18.6037   20.7349 C   0  0  0  0  0  0
  -30.4986  -21.3917   23.0165 C   0  0  0  0  0  0
  -27.2126  -23.4537   18.6217 C   0  0  0  0  0  0
  -27.9207  -25.2891   21.0247 C   0  0  0  0  0  0
  -29.8928  -15.7346   20.5904 N   0  0  0  0  0  0
  -29.6574  -19.6913   20.8928 O   0  0  0  0  0  0
  -31.4660  -12.4634   19.1617 H   0  0  0  0  0  0
  -30.3196  -11.3767   19.8982 H   0  0  0  0  0  0
  -29.7638  -11.7574   17.4648 H   0  0  0  0  0  0
  -29.6560  -13.4783   17.7540 H   0  0  0  0  0  0
  -27.8489  -11.2994   18.8481 H   0  0  0  0  0  0
  -27.3822  -12.5945   17.7796 H   0  0  0  0  0  0
  -27.6610  -14.2579   19.5047 H   0  0  0  0  0  0
  -28.6790  -12.0954   21.4152 H   0  0  0  0  0  0
  -28.4441  -13.7815   21.8046 H   0  0  0  0  0  0
  -25.2819   -9.5664   22.4747 H   0  0  0  0  0  0
  -24.0029   -7.4642   22.7487 H   0  0  0  0  0  0
  -21.0903   -8.8772   19.8909 H   0  0  0  0  0  0
  -22.3795  -10.9656   19.6118 H   0  0  0  0  0  0
  -21.1980   -7.6173   23.9747 H   0  0  0  0  0  0
  -21.1464   -6.0542   25.9107 H   0  0  0  0  0  0
  -22.0604   -2.7624   23.2863 H   0  0  0  0  0  0
  -22.4122  -11.9810   22.4720 H   0  0  0  0  0  0
  -21.1084  -13.1144   22.2567 H   0  0  0  0  0  0
  -24.6677  -15.8538   20.5296 H   0  0  0  0  0  0
  -26.2952  -15.6279   20.1351 H   0  0  0  0  0  0
  -26.7192  -32.5496   23.1142 H   0  0  0  0  0  0
  -24.9988  -33.9762   25.0370 H   0  0  0  0  0  0
  -22.7073  -31.3138   21.4134 H   0  0  0  0  0  0
  -23.3785  -35.9623   23.3260 H   0  0  0  0  0  0
  -24.3593  -36.8962   22.2042 H   0  0  0  0  0  0
  -23.7227  -37.6492   23.6672 H   0  0  0  0  0  0
  -26.0766  -31.5759   20.6033 H   0  0  0  0  0  0
  -26.8393  -30.8575   21.9919 H   0  0  0  0  0  0
  -28.1078  -29.0020   21.1862 H   0  0  0  0  0  0
  -25.9639  -25.9586   18.9986 H   0  0  0  0  0  0
  -23.9521  -27.3355   19.0028 H   0  0  0  0  0  0
  -23.7280  -30.6164   19.4068 H   0  0  0  0  0  0
  -22.7410  -29.2605   19.8656 H   0  0  0  0  0  0
  -25.1299  -36.1974   25.0812 H   0  0  0  0  0  0
  -20.9990  -28.3302   24.1422 H   0  0  0  0  0  0
  -20.5746  -26.2331   23.3607 H   0  0  0  0  0  0
  -21.6656  -26.7504   22.1199 H   0  0  0  0  0  0
  -19.6939  -25.6317   21.1262 H   0  0  0  0  0  0
  -19.6684  -27.3216   20.6762 H   0  0  0  0  0  0
  -17.4207  -26.6706   21.4046 H   0  0  0  0  0  0
  -18.0329  -26.0093   22.9047 H   0  0  0  0  0  0
  -19.7928  -30.7292   24.2297 H   0  0  0  0  0  0
  -17.5016  -31.6288   24.5188 H   0  0  0  0  0  0
  -15.5367  -30.3038   23.7611 H   0  0  0  0  0  0
  -15.8683  -28.0859   22.7050 H   0  0  0  0  0  0
  -24.5777  -30.7143   25.7713 H   0  0  0  0  0  0
  -24.8845  -32.2924   26.4838 H   0  0  0  0  0  0
  -25.7897  -30.8879   27.0206 H   0  0  0  0  0  0
  -26.2802  -29.6871   24.1016 H   0  0  0  0  0  0
  -27.3709  -29.7121   25.4658 H   0  0  0  0  0  0
  -27.8768  -30.4226   23.9496 H   0  0  0  0  0  0
  -27.2526  -33.3539   26.2212 H   0  0  0  0  0  0
  -28.3808  -32.6918   25.0470 H   0  0  0  0  0  0
  -28.0609  -31.8363   26.5477 H   0  0  0  0  0  0
  -28.2565  -38.0178   24.7580 H   0  0  0  0  0  0
  -28.1157  -36.2706   24.6192 H   0  0  0  0  0  0
  -27.2321  -37.1370   25.8849 H   0  0  0  0  0  0
  -20.9348  -29.8788   21.6889 H   0  0  0  0  0  0
  -26.0188  -38.2882   24.1429 H   0  0  0  0  0  0
  -29.6451  -23.9351   22.6330 H   0  0  0  0  0  0
  -28.1024  -20.9348   19.0039 H   0  0  0  0  0  0
  -27.9323  -17.3099   19.2039 H   0  0  0  0  0  0
  -29.0594  -18.4764   18.5939 H   0  0  0  0  0  0
  -28.8642  -18.1526   22.8586 H   0  0  0  0  0  0
  -27.8388  -17.0685   21.9800 H   0  0  0  0  0  0
  -30.9660  -17.1624   19.4574 H   0  0  0  0  0  0
  -29.9251  -16.1239   18.5188 H   0  0  0  0  0  0
  -29.8707  -15.8776   22.7019 H   0  0  0  0  0  0
  -30.8948  -17.0447   21.9024 H   0  0  0  0  0  0
  -27.7118  -19.0402   20.7395 H   0  0  0  0  0  0
  -30.7934  -22.1846   23.7030 H   0  0  0  0  0  0
  -31.4062  -20.8913   22.6762 H   0  0  0  0  0  0
  -29.9085  -20.6703   23.5849 H   0  0  0  0  0  0
  -27.3775  -22.8621   17.7191 H   0  0  0  0  0  0
  -27.4405  -24.4867   18.3608 H   0  0  0  0  0  0
  -26.1550  -23.3761   18.8778 H   0  0  0  0  0  0
  -28.1827  -25.5963   22.0382 H   0  0  0  0  0  0
  -26.8443  -25.1237   21.0698 H   0  0  0  0  0  0
  1 25  1  0  0  0
  1 30  2  0  0  0
  1 85  1  0  0  0
  2  3  1  0  0  0
  2 25  1  0  0  0
  2 87  1  0  0  0
  2 88  1  0  0  0
  3  4  1  0  0  0
  3 89  1  0  0  0
  3 90  1  0  0  0
  4  5  1  0  0  0
  4 91  1  0  0  0
  4 92  1  0  0  0
  5  6  1  0  0  0
  5 26  1  0  0  0
  5 93  1  0  0  0
  6 25  1  0  0  0
  6 94  1  0  0  0
  6 95  1  0  0  0
  7  8  2  0  0  0
  7 26  1  0  0  0
  7 29  1  0  0  0
  8  9  1  0  0  0
  8 22  1  0  0  0
  9 10  1  0  0  0
  9 27  2  0  0  0
 10 11  2  0  0  0
 10 15  1  0  0  0
 11 12  1  0  0  0
 11 96  1  0  0  0
 12 13  2  0  0  0
 12 97  1  0  0  0
 13 14  1  0  0  0
 13 31  1  0  0  0
 14 15  2  0  0  0
 14 98  1  0  0  0
 15 99  1  0  0  0
 16 17  2  0  0  0
 16 21  1  0  0  0
 16 31  1  0  0  0
 17 18  1  0  0  0
 17100  1  0  0  0
 18 19  2  0  0  0
 18101  1  0  0  0
 19 20  1  0  0  0
 19 24  1  0  0  0
 20 21  2  0  0  0
 20102  1  0  0  0
 21 23  1  0  0  0
 22 28  1  0  0  0
 22 32  2  0  0  0
 26 27  1  0  0  0
 28103  1  0  0  0
 28104  1  0  0  0
 29105  1  0  0  0
 29106  1  0  0  0
 33 34  1  0  0  0
 33 66  1  0  0  0
 33 70  2  0  0  0
 34 36  1  0  0  0
 34 59  1  0  0  0
 34107  1  0  0  0
 35 44  2  0  0  0
 35 45  1  0  0  0
 35 68  1  0  0  0
 36 56  1  0  0  0
 36108  1  0  0  0
 37 39  1  0  0  0
 37 47  1  0  0  0
 37 66  1  0  0  0
 37109  1  0  0  0
 38 43  2  0  0  0
 38 46  1  0  0  0
 38 47  1  0  0  0
 39 64  1  0  0  0
 39 67  2  0  0  0
 40 52  1  0  0  0
 40 53  2  0  0  0
 40 58  1  0  0  0
 41110  1  0  0  0
 41111  1  0  0  0
 41112  1  0  0  0
 41 48  1  0  0  0
 42 43  1  0  0  0
 42 66  1  0  0  0
 42113  1  0  0  0
 42114  1  0  0  0
 43 44  1  0  0  0
 44115  1  0  0  0
 45 46  2  0  0  0
 45116  1  0  0  0
 46117  1  0  0  0
 47118  1  0  0  0
 47119  1  0  0  0
 48 56  1  0  0  0
 48 65  1  0  0  0
 48120  1  0  0  0
 49 50  1  0  0  0
 49 53  1  0  0  0
 49 64  1  0  0  0
 49121  1  0  0  0
 50 51  1  0  0  0
 50122  1  0  0  0
 50123  1  0  0  0
 51 52  1  0  0  0
 51124  1  0  0  0
 51125  1  0  0  0
 52126  1  0  0  0
 52127  1  0  0  0
 53 54  1  0  0  0
 54 55  2  0  0  0
 54128  1  0  0  0
 55 57  1  0  0  0
 55129  1  0  0  0
 56 69  2  0  0  0
 57 58  2  0  0  0
 57130  1  0  0  0
 58131  1  0  0  0
 59 60  1  0  0  0
 59 61  1  0  0  0
 59 62  1  0  0  0
 60132  1  0  0  0
 60133  1  0  0  0
 60134  1  0  0  0
 61135  1  0  0  0
 61136  1  0  0  0
 61137  1  0  0  0
 62138  1  0  0  0
 62139  1  0  0  0
 62140  1  0  0  0
 63 65  1  0  0  0
 63141  1  0  0  0
 63142  1  0  0  0
 63143  1  0  0  0
 64144  1  0  0  0
 65145  1  0  0  0
 68 84  1  0  0  0
 71 73  2  0  0  0
 71 74  1  0  0  0
 71146  1  0  0  0
 72 75  2  0  0  0
 72 76  1  0  0  0
 72147  1  0  0  0
 73 75  1  0  0  0
 73 84  1  0  0  0
 74 76  2  0  0  0
 74 82  1  0  0  0
 75 83  1  0  0  0
 76 86  1  0  0  0
 77 79  1  0  0  0
 77 81  1  0  0  0
 77148  1  0  0  0
 77149  1  0  0  0
 78 80  1  0  0  0
 78 81  1  0  0  0
 78150  1  0  0  0
 78151  1  0  0  0
 79 85  1  0  0  0
 79152  1  0  0  0
 79153  1  0  0  0
 80 85  1  0  0  0
 80154  1  0  0  0
 80155  1  0  0  0
 81 86  1  0  0  0
 81156  1  0  0  0
 82157  1  0  0  0
 82158  1  0  0  0
 82159  1  0  0  0
 83160  1  0  0  0
 83161  1  0  0  0
 83162  1  0  0  0
 84163  1  0  0  0
 84164  1  0  0  0
M  ISO  4   1 100  68 101  84 101  85 100
M  END
> <chiral flag>
0

> <version>
0

> <s_m_source_file>
/data/baiqing/PycharmProjects/Reinvent-master-3.2/result/LINK_invent/BTK/process_docking_weight1_custom_sum_contain_oxygen_bond_distance_aromatic_linkinvent_7_9_3/rearranged_h_0154.sdf

> <i_m_source_file_index>
65

> <r_mmod_Potential_Energy-OPLS-2005>
305.675048828125

> <r_mmod_Stretch_Energy-OPLS-2005>
64.3945388793945

> <r_mmod_Bend_Energy-OPLS-2005>
139.448257446289

> <r_mmod_Torsional_Energy-OPLS-2005>
382.279602050781

> <r_mmod_Improper_Torsional_Energy-OPLS-2005>
16.7732257843018

> <r_mmod_Van_der_Waal_Energy-OPLS-2005>
140.388320922852

> <r_mmod_Electrostatic_Energy-OPLS-2005>
-289.587463378906

> <r_mmod_Solvation_Energy-OPLS-2005>
-194.138809204102

> <b_mmod_Minimization_Converged-OPLS-2005>
0

> <r_mmod_RMS_Derivative-OPLS-2005>
3.22018051147461

$$$$
66
                    3D
 Structure written by MMmdl.
173182  0  0  1  0            999 V2000
  -30.6889  -14.5392   20.4702 C   0  0  0  0  0  0
  -30.4238  -12.3262   19.4246 C   0  0  0  0  0  0
  -29.4851  -12.4674   18.2055 C   0  0  0  0  0  0
  -28.0100  -12.3275   18.6318 C   0  0  0  0  0  0
  -27.6504  -13.1925   19.8684 C   0  0  2  0  0  0
  -28.7094  -13.0579   20.9876 C   0  0  0  0  0  0
  -25.2610  -13.8148   20.5750 C   0  0  0  0  0  0
  -24.1843  -13.0429   20.9220 C   0  0  0  0  0  0
  -24.6369  -11.6896   20.8780 C   0  0  0  0  0  0
  -23.9032  -10.4275   21.0430 C   0  0  0  0  0  0
  -24.3600   -9.4184   21.9193 C   0  0  0  0  0  0
  -23.6283   -8.2211   22.0755 C   0  0  0  0  0  0
  -22.4280   -8.0239   21.3531 C   0  0  0  0  0  0
  -21.9896   -9.0232   20.4653 C   0  0  0  0  0  0
  -22.7214  -10.2126   20.3066 C   0  0  0  0  0  0
  -21.6844   -6.0683   22.5267 C   0  0  0  0  0  0
  -21.4014   -6.5600   23.8195 C   0  0  0  0  0  0
  -21.3666   -5.6777   24.9181 C   0  0  0  0  0  0
  -21.6056   -4.3032   24.7243 C   0  0  0  0  0  0
  -21.8832   -3.8111   23.4369 C   0  0  0  0  0  0
  -21.9208   -4.6905   22.3413 C   0  0  0  0  0  0
  -22.7883  -13.5240   21.1853 C   0  0  0  0  0  0
  -22.1691   -4.2085   21.0994 F   0  0  0  0  0  0
  -21.5624   -3.4522   25.7766 F   0  0  0  0  0  0
  -30.0230  -13.3525   20.3982 N   0  0  0  0  0  0
  -26.2996  -12.9248   20.3429 N   0  0  0  0  0  0
  -25.9282  -11.6430   20.5826 N   0  0  0  0  0  0
  -22.0527  -12.8218   22.0418 N   0  0  0  0  0  0
  -25.4330  -15.1863   20.4119 N   0  0  0  0  0  0
  -31.8960  -14.6375   20.2280 O   0  0  0  0  0  0
  -21.6660   -6.8818   21.4223 O   0  0  0  0  0  0
  -22.3580  -14.5525   20.6681 O   0  0  0  0  0  0
  -24.6176  -31.8683   23.2085 C   0  0  0  0  0  0
  -25.9066  -32.4822   23.8399 C   0  0  1  0  0  0
  -27.2388  -27.4176   20.0782 C   0  0  0  0  0  0
  -25.5912  -33.8614   24.2334 N   0  0  0  0  0  0
  -23.4061  -30.4923   21.5524 C   0  0  2  0  0  0
  -24.8493  -28.9560   20.1161 C   0  0  0  0  0  0
  -22.7424  -29.4658   22.4994 C   0  0  0  0  0  0
  -18.0278  -28.1381   22.8490 C   0  0  0  0  0  0
  -24.1488  -36.7312   23.2641 C   0  0  0  0  0  0
  -25.9375  -30.8257   21.3650 C   0  0  0  0  0  0
  -26.0119  -29.4590   20.7109 C   0  0  0  0  0  0
  -27.2037  -28.6948   20.6950 C   0  0  0  0  0  0
  -26.0428  -26.9308   19.4960 C   0  0  0  0  0  0
  -24.8601  -27.6912   19.5085 C   0  0  0  0  0  0
  -23.6137  -29.8265   20.1669 C   0  0  0  0  0  0
  -25.4109  -36.3109   24.0345 C   0  0  1  0  0  0
  -20.5867  -28.3667   23.1317 C   0  0  2  0  0  0
  -20.6761  -26.9402   22.5423 C   0  0  0  0  0  0
  -19.5743  -26.6385   21.5213 C   0  0  0  0  0  0
  -18.1918  -26.7933   22.1612 C   0  0  0  0  0  0
  -19.1527  -28.8840   23.2899 C   0  0  0  0  0  0
  -18.9450  -30.1444   23.8910 C   0  0  0  0  0  0
  -17.6448  -30.6580   24.0566 C   0  0  0  0  0  0
  -25.9042  -34.9477   23.5138 C   0  0  0  0  0  0
  -16.5345  -29.9086   23.6325 C   0  0  0  0  0  0
  -16.7266  -28.6508   23.0349 C   0  0  0  0  0  0
  -26.4474  -31.6599   25.0732 C   0  0  0  0  0  0
  -25.3734  -31.3696   26.1475 C   0  0  0  0  0  0
  -27.0302  -30.3045   24.6108 C   0  0  0  0  0  0
  -27.6064  -32.4310   25.7481 C   0  0  0  0  0  0
  -27.5590  -37.1808   24.8463 C   0  0  0  0  0  0
  -21.4155  -29.3037   22.3723 N   0  0  0  0  0  0
  -26.4293  -37.3799   23.9420 N   0  0  0  0  0  0
  -24.6726  -31.0770   22.1001 N   0  0  0  0  0  0
  -23.4184  -28.8188   23.3040 O   0  0  0  0  0  0
  -28.4138  -26.6803   20.1234 O   0  0  0  0  0  0
  -26.5604  -34.8930   22.4695 O   0  0  0  0  0  0
  -23.5367  -32.1414   23.7481 O   0  0  0  0  0  0
  -31.1222  -22.2368   20.3607 C   0  0  0  0  0  0
  -30.8019  -24.6296   20.0273 C   0  0  0  0  0  0
  -31.6363  -23.5470   20.3616 C   0  0  0  0  0  0
  -29.7632  -21.9865   20.0572 C   0  0  0  0  0  0
  -29.4476  -24.4253   19.6983 C   0  0  0  0  0  0
  -28.9098  -23.1005   19.7563 C   0  0  0  0  0  0
  -29.8670  -17.6265   18.9503 C   0  0  0  0  0  0
  -29.6226  -16.1217   19.0168 C   0  0  0  0  0  0
  -29.5782  -18.0708   20.3747 C   0  0  1  0  0  0
  -30.1996  -16.8882   21.1904 C   0  0  1  0  0  0
  -33.1021  -23.7955   20.6530 C   0  0  0  0  0  0
  -27.4310  -22.8836   19.4398 C   0  0  0  0  0  0
  -28.2061  -16.6480   22.8610 C   0  0  0  0  0  0
  -29.2812  -20.5213   19.9185 C   0  0  0  0  0  0
  -28.6673  -25.6395   19.1582 C   0  0  0  0  0  0
  -29.7229  -16.7812   22.6681 C   0  0  1  0  0  0
  -29.9079  -15.6561   20.3957 N   0  0  0  0  0  0
  -30.0291  -19.4695   20.6753 N   0  3  0  0  0  0
  -30.3515  -15.6752   23.2949 O   0  0  0  0  0  0
  -31.4647  -12.4235   19.1106 H   0  0  0  0  0  0
  -30.3354  -11.3337   19.8684 H   0  0  0  0  0  0
  -29.7207  -11.6995   17.4671 H   0  0  0  0  0  0
  -29.6366  -13.4256   17.7090 H   0  0  0  0  0  0
  -27.8332  -11.2740   18.8550 H   0  0  0  0  0  0
  -27.3529  -12.5707   17.7951 H   0  0  0  0  0  0
  -27.6510  -14.2202   19.5292 H   0  0  0  0  0  0
  -28.7053  -12.0527   21.4089 H   0  0  0  0  0  0
  -28.4932  -13.7278   21.8194 H   0  0  0  0  0  0
  -25.2744   -9.5645   22.4780 H   0  0  0  0  0  0
  -23.9976   -7.4605   22.7473 H   0  0  0  0  0  0
  -21.0831   -8.8739   19.8977 H   0  0  0  0  0  0
  -22.3652  -10.9668   19.6170 H   0  0  0  0  0  0
  -21.2025   -7.6121   23.9651 H   0  0  0  0  0  0
  -21.1469   -6.0545   25.9066 H   0  0  0  0  0  0
  -22.0616   -2.7562   23.2923 H   0  0  0  0  0  0
  -22.4148  -11.9903   22.4841 H   0  0  0  0  0  0
  -21.1119  -13.1184   22.2575 H   0  0  0  0  0  0
  -24.6560  -15.8327   20.4976 H   0  0  0  0  0  0
  -26.2810  -15.6225   20.0752 H   0  0  0  0  0  0
  -26.7137  -32.5529   23.1166 H   0  0  0  0  0  0
  -25.0063  -33.9767   25.0484 H   0  0  0  0  0  0
  -22.6952  -31.3088   21.4150 H   0  0  0  0  0  0
  -23.3747  -35.9645   23.3295 H   0  0  0  0  0  0
  -24.3582  -36.8930   22.2053 H   0  0  0  0  0  0
  -23.7226  -37.6516   23.6652 H   0  0  0  0  0  0
  -26.0555  -31.5891   20.5950 H   0  0  0  0  0  0
  -26.8244  -30.8781   21.9839 H   0  0  0  0  0  0
  -28.0983  -29.0827   21.1615 H   0  0  0  0  0  0
  -25.9689  -25.9527   19.0511 H   0  0  0  0  0  0
  -23.9610  -27.2900   19.0595 H   0  0  0  0  0  0
  -23.7272  -30.6031   19.4095 H   0  0  0  0  0  0
  -22.7356  -29.2503   19.8676 H   0  0  0  0  0  0
  -25.1270  -36.1989   25.0837 H   0  0  0  0  0  0
  -20.9958  -28.3244   24.1437 H   0  0  0  0  0  0
  -20.5656  -26.2282   23.3612 H   0  0  0  0  0  0
  -21.6637  -26.7437   22.1231 H   0  0  0  0  0  0
  -19.6903  -25.6301   21.1231 H   0  0  0  0  0  0
  -19.6682  -27.3202   20.6745 H   0  0  0  0  0  0
  -17.4193  -26.6705   21.4002 H   0  0  0  0  0  0
  -18.0292  -26.0069   22.8996 H   0  0  0  0  0  0
  -19.7922  -30.7264   24.2296 H   0  0  0  0  0  0
  -17.5003  -31.6255   24.5172 H   0  0  0  0  0  0
  -15.5352  -30.2996   23.7629 H   0  0  0  0  0  0
  -15.8670  -28.0831   22.7054 H   0  0  0  0  0  0
  -24.5948  -30.6990   25.7812 H   0  0  0  0  0  0
  -24.8867  -32.2837   26.4892 H   0  0  0  0  0  0
  -25.8099  -30.8907   27.0251 H   0  0  0  0  0  0
  -26.2839  -29.6806   24.1171 H   0  0  0  0  0  0
  -27.4078  -29.7285   25.4569 H   0  0  0  0  0  0
  -27.8677  -30.4364   23.9249 H   0  0  0  0  0  0
  -27.2707  -33.3608   26.2084 H   0  0  0  0  0  0
  -28.3853  -32.6870   25.0285 H   0  0  0  0  0  0
  -28.0756  -31.8413   26.5366 H   0  0  0  0  0  0
  -28.2610  -38.0106   24.7528 H   0  0  0  0  0  0
  -28.1084  -36.2642   24.6263 H   0  0  0  0  0  0
  -27.2316  -37.1436   25.8868 H   0  0  0  0  0  0
  -20.9322  -29.8776   21.6952 H   0  0  0  0  0  0
  -26.0187  -38.2882   24.1413 H   0  0  0  0  0  0
  -31.8047  -21.4223   20.5599 H   0  0  0  0  0  0
  -31.2142  -25.6295   19.9756 H   0  0  0  0  0  0
  -29.2354  -18.1039   18.2010 H   0  0  0  0  0  0
  -30.9067  -17.8264   18.6849 H   0  0  0  0  0  0
  -28.5802  -15.9331   18.7716 H   0  0  0  0  0  0
  -30.2183  -15.6219   18.2481 H   0  0  0  0  0  0
  -28.4949  -18.0456   20.5070 H   0  0  0  0  0  0
  -31.2838  -17.0192   21.2076 H   0  0  0  0  0  0
  -33.6093  -22.8914   20.9904 H   0  0  0  0  0  0
  -33.2110  -24.5530   21.4287 H   0  0  0  0  0  0
  -33.6067  -24.1491   19.7528 H   0  0  0  0  0  0
  -26.9742  -22.0832   20.0179 H   0  0  0  0  0  0
  -27.2934  -22.6708   18.3792 H   0  0  0  0  0  0
  -26.8329  -23.7581   19.6904 H   0  0  0  0  0  0
  -27.7818  -15.8107   22.3104 H   0  0  0  0  0  0
  -27.6808  -17.5495   22.5424 H   0  0  0  0  0  0
  -27.9633  -16.5093   23.9149 H   0  0  0  0  0  0
  -29.3267  -20.2982   18.8520 H   0  0  0  0  0  0
  -28.2371  -20.4276   20.2092 H   0  0  0  0  0  0
  -27.8227  -25.3174   18.5619 H   0  0  0  0  0  0
  -29.3099  -26.0998   18.4087 H   0  0  0  0  0  0
  -30.0519  -17.6731   23.2030 H   0  0  0  0  0  0
  -31.0086  -19.5582   20.4618 H   0  0  0  0  0  0
  -29.9091  -19.6737   21.6537 H   0  0  0  0  0  0
  -30.1209  -15.6782   24.2214 H   0  0  0  0  0  0
  1 25  1  0  0  0
  1 30  2  0  0  0
  1 87  1  0  0  0
  2  3  1  0  0  0
  2 25  1  0  0  0
  2 90  1  0  0  0
  2 91  1  0  0  0
  3  4  1  0  0  0
  3 92  1  0  0  0
  3 93  1  0  0  0
  4  5  1  0  0  0
  4 94  1  0  0  0
  4 95  1  0  0  0
  5  6  1  0  0  0
  5 26  1  0  0  0
  5 96  1  0  0  0
  6 25  1  0  0  0
  6 97  1  0  0  0
  6 98  1  0  0  0
  7  8  2  0  0  0
  7 26  1  0  0  0
  7 29  1  0  0  0
  8  9  1  0  0  0
  8 22  1  0  0  0
  9 10  1  0  0  0
  9 27  2  0  0  0
 10 11  2  0  0  0
 10 15  1  0  0  0
 11 12  1  0  0  0
 11 99  1  0  0  0
 12 13  2  0  0  0
 12100  1  0  0  0
 13 14  1  0  0  0
 13 31  1  0  0  0
 14 15  2  0  0  0
 14101  1  0  0  0
 15102  1  0  0  0
 16 17  2  0  0  0
 16 21  1  0  0  0
 16 31  1  0  0  0
 17 18  1  0  0  0
 17103  1  0  0  0
 18 19  2  0  0  0
 18104  1  0  0  0
 19 20  1  0  0  0
 19 24  1  0  0  0
 20 21  2  0  0  0
 20105  1  0  0  0
 21 23  1  0  0  0
 22 28  1  0  0  0
 22 32  2  0  0  0
 26 27  1  0  0  0
 28106  1  0  0  0
 28107  1  0  0  0
 29108  1  0  0  0
 29109  1  0  0  0
 33 34  1  0  0  0
 33 66  1  0  0  0
 33 70  2  0  0  0
 34 36  1  0  0  0
 34 59  1  0  0  0
 34110  1  0  0  0
 35 44  2  0  0  0
 35 45  1  0  0  0
 35 68  1  0  0  0
 36 56  1  0  0  0
 36111  1  0  0  0
 37 39  1  0  0  0
 37 47  1  0  0  0
 37 66  1  0  0  0
 37112  1  0  0  0
 38 43  2  0  0  0
 38 46  1  0  0  0
 38 47  1  0  0  0
 39 64  1  0  0  0
 39 67  2  0  0  0
 40 52  1  0  0  0
 40 53  2  0  0  0
 40 58  1  0  0  0
 41113  1  0  0  0
 41114  1  0  0  0
 41115  1  0  0  0
 41 48  1  0  0  0
 42 43  1  0  0  0
 42 66  1  0  0  0
 42116  1  0  0  0
 42117  1  0  0  0
 43 44  1  0  0  0
 44118  1  0  0  0
 45 46  2  0  0  0
 45119  1  0  0  0
 46120  1  0  0  0
 47121  1  0  0  0
 47122  1  0  0  0
 48 56  1  0  0  0
 48 65  1  0  0  0
 48123  1  0  0  0
 49 50  1  0  0  0
 49 53  1  0  0  0
 49 64  1  0  0  0
 49124  1  0  0  0
 50 51  1  0  0  0
 50125  1  0  0  0
 50126  1  0  0  0
 51 52  1  0  0  0
 51127  1  0  0  0
 51128  1  0  0  0
 52129  1  0  0  0
 52130  1  0  0  0
 53 54  1  0  0  0
 54 55  2  0  0  0
 54131  1  0  0  0
 55 57  1  0  0  0
 55132  1  0  0  0
 56 69  2  0  0  0
 57 58  2  0  0  0
 57133  1  0  0  0
 58134  1  0  0  0
 59 60  1  0  0  0
 59 61  1  0  0  0
 59 62  1  0  0  0
 60135  1  0  0  0
 60136  1  0  0  0
 60137  1  0  0  0
 61138  1  0  0  0
 61139  1  0  0  0
 61140  1  0  0  0
 62141  1  0  0  0
 62142  1  0  0  0
 62143  1  0  0  0
 63 65  1  0  0  0
 63144  1  0  0  0
 63145  1  0  0  0
 63146  1  0  0  0
 64147  1  0  0  0
 65148  1  0  0  0
 68 85  1  0  0  0
 71 73  2  0  0  0
 71 74  1  0  0  0
 71149  1  0  0  0
 72 73  1  0  0  0
 72 75  2  0  0  0
 72150  1  0  0  0
 73 81  1  0  0  0
 74 76  2  0  0  0
 74 84  1  0  0  0
 75 76  1  0  0  0
 75 85  1  0  0  0
 76 82  1  0  0  0
 77 78  1  0  0  0
 77 79  1  0  0  0
 77151  1  0  0  0
 77152  1  0  0  0
 78 87  1  0  0  0
 78153  1  0  0  0
 78154  1  0  0  0
 79 80  1  0  0  0
 79 88  1  0  0  0
 79155  1  0  0  0
 80 86  1  0  0  0
 80 87  1  0  0  0
 80156  1  0  0  0
 81157  1  0  0  0
 81158  1  0  0  0
 81159  1  0  0  0
 82160  1  0  0  0
 82161  1  0  0  0
 82162  1  0  0  0
 83163  1  0  0  0
 83164  1  0  0  0
 83165  1  0  0  0
 83 86  1  0  0  0
 84 88  1  0  0  0
 84166  1  0  0  0
 84167  1  0  0  0
 85168  1  0  0  0
 85169  1  0  0  0
 86 89  1  0  0  0
 86170  1  0  0  0
 88171  1  0  0  0
 88172  1  0  0  0
 89173  1  0  0  0
M  CHG  1  88   1
M  ISO  4   1 100  68 101  85 101  87 100
M  END
> <chiral flag>
0

> <version>
0

> <s_m_source_file>
/data/baiqing/PycharmProjects/Reinvent-master-3.2/result/LINK_invent/BTK/process_docking_weight1_custom_sum_contain_oxygen_bond_distance_aromatic_linkinvent_7_9_3/rearranged_h_0154.sdf

> <i_m_source_file_index>
66

> <r_mmod_Potential_Energy-OPLS-2005>
36.7548980712891

> <r_mmod_Stretch_Energy-OPLS-2005>
52.5542831420898

> <r_mmod_Bend_Energy-OPLS-2005>
153.451766967773

> <r_mmod_Torsional_Energy-OPLS-2005>
382.475555419922

> <r_mmod_Improper_Torsional_Energy-OPLS-2005>
17.716516494751

> <r_mmod_Van_der_Waal_Energy-OPLS-2005>
150.930923461914

> <r_mmod_Electrostatic_Energy-OPLS-2005>
-275.119903564453

> <r_mmod_Solvation_Energy-OPLS-2005>
-472.390228271484

> <b_mmod_Minimization_Converged-OPLS-2005>
0

> <r_mmod_RMS_Derivative-OPLS-2005>
3.29901599884033

$$$$
67
                    3D
 Structure written by MMmdl.
166175  0  0  1  0            999 V2000
  -30.6647  -14.6271   20.4887 C   0  0  0  0  0  0
  -30.4189  -12.3819   19.4637 C   0  0  0  0  0  0
  -29.5012  -12.4825   18.2283 C   0  0  0  0  0  0
  -28.0254  -12.3291   18.6430 C   0  0  0  0  0  0
  -27.6441  -13.2234   19.8542 C   0  0  2  0  0  0
  -28.6854  -13.1242   20.9887 C   0  0  0  0  0  0
  -25.2529  -13.8185   20.5694 C   0  0  0  0  0  0
  -24.1804  -13.0446   20.9204 C   0  0  0  0  0  0
  -24.6378  -11.6920   20.8754 C   0  0  0  0  0  0
  -23.9058  -10.4295   21.0410 C   0  0  0  0  0  0
  -24.3609   -9.4206   21.9185 C   0  0  0  0  0  0
  -23.6296   -8.2236   22.0748 C   0  0  0  0  0  0
  -22.4279   -8.0272   21.3536 C   0  0  0  0  0  0
  -21.9899   -9.0250   20.4651 C   0  0  0  0  0  0
  -22.7221  -10.2137   20.3068 C   0  0  0  0  0  0
  -21.6854   -6.0732   22.5281 C   0  0  0  0  0  0
  -21.4010   -6.5637   23.8214 C   0  0  0  0  0  0
  -21.3664   -5.6791   24.9177 C   0  0  0  0  0  0
  -21.6055   -4.3056   24.7231 C   0  0  0  0  0  0
  -21.8814   -3.8147   23.4351 C   0  0  0  0  0  0
  -21.9189   -4.6960   22.3405 C   0  0  0  0  0  0
  -22.7834  -13.5240   21.1872 C   0  0  0  0  0  0
  -22.1659   -4.2148   21.0982 F   0  0  0  0  0  0
  -21.5637   -3.4541   25.7743 F   0  0  0  0  0  0
  -29.9951  -13.4356   20.4073 N   0  0  0  0  0  0
  -26.2947  -12.9380   20.3310 N   0  0  0  0  0  0
  -25.9308  -11.6527   20.5779 N   0  0  0  0  0  0
  -22.0482  -12.8243   22.0439 N   0  0  0  0  0  0
  -25.4270  -15.1898   20.4097 N   0  0  0  0  0  0
  -31.8564  -14.6927   20.1683 O   0  0  0  0  0  0
  -21.6642   -6.8871   21.4239 O   0  0  0  0  0  0
  -22.3522  -14.5545   20.6716 O   0  0  0  0  0  0
  -24.6262  -31.8599   23.2032 C   0  0  0  0  0  0
  -25.9116  -32.4776   23.8354 C   0  0  1  0  0  0
  -27.2202  -27.3304   20.1008 C   0  0  0  0  0  0
  -25.5932  -33.8581   24.2274 N   0  0  0  0  0  0
  -23.4173  -30.4860   21.5453 C   0  0  2  0  0  0
  -24.8595  -28.9408   20.1106 C   0  0  0  0  0  0
  -22.7461  -29.4641   22.4934 C   0  0  0  0  0  0
  -18.0287  -28.1398   22.8479 C   0  0  0  0  0  0
  -24.1491  -36.7302   23.2635 C   0  0  0  0  0  0
  -25.9581  -30.7928   21.3721 C   0  0  0  0  0  0
  -26.0279  -29.4214   20.7130 C   0  0  0  0  0  0
  -27.2082  -28.6252   20.7030 C   0  0  0  0  0  0
  -26.0181  -26.8853   19.5038 C   0  0  0  0  0  0
  -24.8547  -27.6762   19.5022 C   0  0  0  0  0  0
  -23.6295  -29.8229   20.1593 C   0  0  0  0  0  0
  -25.4115  -36.3084   24.0324 C   0  0  1  0  0  0
  -20.5882  -28.3702   23.1285 C   0  0  2  0  0  0
  -20.6774  -26.9417   22.5435 C   0  0  0  0  0  0
  -19.5766  -26.6389   21.5221 C   0  0  0  0  0  0
  -18.1931  -26.7950   22.1603 C   0  0  0  0  0  0
  -19.1536  -28.8865   23.2883 C   0  0  0  0  0  0
  -18.9460  -30.1462   23.8912 C   0  0  0  0  0  0
  -17.6459  -30.6590   24.0579 C   0  0  0  0  0  0
  -25.9055  -34.9454   23.5098 C   0  0  0  0  0  0
  -16.5349  -29.9096   23.6329 C   0  0  0  0  0  0
  -16.7273  -28.6518   23.0341 C   0  0  0  0  0  0
  -26.4502  -31.6594   25.0727 C   0  0  0  0  0  0
  -25.3740  -31.3771   26.1465 C   0  0  0  0  0  0
  -27.0315  -30.2997   24.6202 C   0  0  0  0  0  0
  -27.6078  -32.4325   25.7477 C   0  0  0  0  0  0
  -27.5595  -37.1787   24.8445 C   0  0  0  0  0  0
  -21.4179  -29.3047   22.3670 N   0  0  0  0  0  0
  -26.4289  -37.3781   23.9413 N   0  0  0  0  0  0
  -24.6861  -31.0628   22.0972 N   0  0  0  0  0  0
  -23.4187  -28.8182   23.3017 O   0  0  0  0  0  0
  -28.3604  -26.5202   20.1543 O   0  0  0  0  0  0
  -26.5622  -34.8917   22.4664 O   0  0  0  0  0  0
  -23.5431  -32.1394   23.7377 O   0  0  0  0  0  0
  -29.4137  -23.5908   21.0978 C   0  0  0  0  0  0
  -28.6240  -23.8713   19.9498 C   0  0  0  0  0  0
  -29.6558  -22.2297   21.4801 C   0  0  0  0  0  0
  -28.0971  -22.7212   19.2828 C   0  0  0  0  0  0
  -29.1222  -21.1599   20.7143 C   0  0  0  0  0  0
  -29.1402  -17.9353   19.3317 C   0  0  0  0  0  0
  -28.5682  -17.5896   21.7445 C   0  0  0  0  0  0
  -30.2407  -16.8442   19.5250 C   0  0  0  0  0  0
  -29.6946  -16.4998   21.8049 C   0  0  0  0  0  0
  -28.6704  -18.6648   20.6166 C   0  0  0  0  0  0
  -30.0144  -24.7525   21.8817 C   0  0  0  0  0  0
  -30.4999  -21.9061   22.7076 C   0  0  0  0  0  0
  -27.2371  -22.8544   18.0398 C   0  0  0  0  0  0
  -28.5057  -25.3181   19.3182 C   0  0  0  0  0  0
  -28.3320  -21.4259   19.6515 N   0  0  0  0  0  0
  -29.9174  -15.7912   20.5256 N   0  0  0  0  0  0
  -29.4582  -19.8244   21.0243 O   0  0  0  0  0  0
  -31.4636  -12.4781   19.1651 H   0  0  0  0  0  0
  -30.3344  -11.4003   19.9320 H   0  0  0  0  0  0
  -29.7652  -11.7141   17.5003 H   0  0  0  0  0  0
  -29.6503  -13.4416   17.7292 H   0  0  0  0  0  0
  -27.8691  -11.2800   18.8973 H   0  0  0  0  0  0
  -27.3693  -12.5356   17.7963 H   0  0  0  0  0  0
  -27.6514  -14.2513   19.4901 H   0  0  0  0  0  0
  -28.6927  -12.1259   21.4284 H   0  0  0  0  0  0
  -28.4375  -13.8147   21.7954 H   0  0  0  0  0  0
  -25.2744   -9.5694   22.4769 H   0  0  0  0  0  0
  -24.0017   -7.4625   22.7453 H   0  0  0  0  0  0
  -21.0830   -8.8760   19.8966 H   0  0  0  0  0  0
  -22.3655  -10.9680   19.6195 H   0  0  0  0  0  0
  -21.1993   -7.6143   23.9717 H   0  0  0  0  0  0
  -21.1502   -6.0524   25.9082 H   0  0  0  0  0  0
  -22.0594   -2.7611   23.2849 H   0  0  0  0  0  0
  -22.4103  -11.9918   22.4843 H   0  0  0  0  0  0
  -21.1113  -13.1296   22.2667 H   0  0  0  0  0  0
  -24.6630  -15.8491   20.5097 H   0  0  0  0  0  0
  -26.2874  -15.6205   20.0975 H   0  0  0  0  0  0
  -26.7188  -32.5435   23.1109 H   0  0  0  0  0  0
  -25.0073  -33.9730   25.0417 H   0  0  0  0  0  0
  -22.7122  -31.3073   21.4032 H   0  0  0  0  0  0
  -23.3756  -35.9631   23.3277 H   0  0  0  0  0  0
  -24.3591  -36.8950   22.2055 H   0  0  0  0  0  0
  -23.7237  -37.6492   23.6678 H   0  0  0  0  0  0
  -26.0899  -31.5576   20.6055 H   0  0  0  0  0  0
  -26.8392  -30.8387   22.0010 H   0  0  0  0  0  0
  -28.1088  -28.9910   21.1764 H   0  0  0  0  0  0
  -25.9322  -25.9050   19.0629 H   0  0  0  0  0  0
  -23.9526  -27.2942   19.0446 H   0  0  0  0  0  0
  -23.7507  -30.6007   19.4038 H   0  0  0  0  0  0
  -22.7490  -29.2545   19.8549 H   0  0  0  0  0  0
  -25.1301  -36.1929   25.0815 H   0  0  0  0  0  0
  -20.9979  -28.3294   24.1405 H   0  0  0  0  0  0
  -20.5643  -26.2327   23.3649 H   0  0  0  0  0  0
  -21.6649  -26.7432   22.1247 H   0  0  0  0  0  0
  -19.6923  -25.6294   21.1266 H   0  0  0  0  0  0
  -19.6728  -27.3196   20.6752 H   0  0  0  0  0  0
  -17.4220  -26.6729   21.3978 H   0  0  0  0  0  0
  -18.0292  -26.0078   22.8975 H   0  0  0  0  0  0
  -19.7937  -30.7277   24.2290 H   0  0  0  0  0  0
  -17.5011  -31.6266   24.5188 H   0  0  0  0  0  0
  -15.5351  -30.3004   23.7646 H   0  0  0  0  0  0
  -15.8671  -28.0845   22.7045 H   0  0  0  0  0  0
  -24.5928  -30.7092   25.7829 H   0  0  0  0  0  0
  -24.8925  -32.2953   26.4834 H   0  0  0  0  0  0
  -25.8070  -30.9011   27.0270 H   0  0  0  0  0  0
  -26.2874  -29.6757   24.1236 H   0  0  0  0  0  0
  -27.3987  -29.7260   25.4724 H   0  0  0  0  0  0
  -27.8772  -30.4252   23.9434 H   0  0  0  0  0  0
  -27.2690  -33.3599   26.2110 H   0  0  0  0  0  0
  -28.3849  -32.6928   25.0276 H   0  0  0  0  0  0
  -28.0798  -31.8420   26.5341 H   0  0  0  0  0  0
  -28.2594  -38.0105   24.7519 H   0  0  0  0  0  0
  -28.1109  -36.2637   24.6217 H   0  0  0  0  0  0
  -27.2331  -37.1384   25.8853 H   0  0  0  0  0  0
  -20.9353  -29.8773   21.6884 H   0  0  0  0  0  0
  -26.0170  -38.2849   24.1452 H   0  0  0  0  0  0
  -28.2706  -17.4418   18.8948 H   0  0  0  0  0  0
  -29.4571  -18.6683   18.5902 H   0  0  0  0  0  0
  -28.4874  -18.0896   22.7103 H   0  0  0  0  0  0
  -27.6205  -17.0652   21.6171 H   0  0  0  0  0  0
  -31.1808  -17.3271   19.7984 H   0  0  0  0  0  0
  -30.4204  -16.3730   18.5560 H   0  0  0  0  0  0
  -29.4533  -15.7791   22.5877 H   0  0  0  0  0  0
  -30.6309  -16.9683   22.1148 H   0  0  0  0  0  0
  -27.6562  -19.0280   20.4441 H   0  0  0  0  0  0
  -30.5545  -25.4244   21.2146 H   0  0  0  0  0  0
  -30.7173  -24.4544   22.6560 H   0  0  0  0  0  0
  -29.2181  -25.3200   22.3642 H   0  0  0  0  0  0
  -30.1160  -22.4295   23.5835 H   0  0  0  0  0  0
  -31.5358  -22.2059   22.5488 H   0  0  0  0  0  0
  -30.4986  -20.8435   22.9516 H   0  0  0  0  0  0
  -26.3850  -23.5060   18.2315 H   0  0  0  0  0  0
  -26.8423  -21.8899   17.7181 H   0  0  0  0  0  0
  -27.8175  -23.2684   17.2154 H   0  0  0  0  0  0
  -27.8311  -25.3325   18.4673 H   0  0  0  0  0  0
  -29.4716  -25.4622   18.8330 H   0  0  0  0  0  0
  1 25  1  0  0  0
  1 30  2  0  0  0
  1 86  1  0  0  0
  2  3  1  0  0  0
  2 25  1  0  0  0
  2 88  1  0  0  0
  2 89  1  0  0  0
  3  4  1  0  0  0
  3 90  1  0  0  0
  3 91  1  0  0  0
  4  5  1  0  0  0
  4 92  1  0  0  0
  4 93  1  0  0  0
  5  6  1  0  0  0
  5 26  1  0  0  0
  5 94  1  0  0  0
  6 25  1  0  0  0
  6 95  1  0  0  0
  6 96  1  0  0  0
  7  8  2  0  0  0
  7 26  1  0  0  0
  7 29  1  0  0  0
  8  9  1  0  0  0
  8 22  1  0  0  0
  9 10  1  0  0  0
  9 27  2  0  0  0
 10 11  2  0  0  0
 10 15  1  0  0  0
 11 12  1  0  0  0
 11 97  1  0  0  0
 12 13  2  0  0  0
 12 98  1  0  0  0
 13 14  1  0  0  0
 13 31  1  0  0  0
 14 15  2  0  0  0
 14 99  1  0  0  0
 15100  1  0  0  0
 16 17  2  0  0  0
 16 21  1  0  0  0
 16 31  1  0  0  0
 17 18  1  0  0  0
 17101  1  0  0  0
 18 19  2  0  0  0
 18102  1  0  0  0
 19 20  1  0  0  0
 19 24  1  0  0  0
 20 21  2  0  0  0
 20103  1  0  0  0
 21 23  1  0  0  0
 22 28  1  0  0  0
 22 32  2  0  0  0
 26 27  1  0  0  0
 28104  1  0  0  0
 28105  1  0  0  0
 29106  1  0  0  0
 29107  1  0  0  0
 33 34  1  0  0  0
 33 66  1  0  0  0
 33 70  2  0  0  0
 34 36  1  0  0  0
 34 59  1  0  0  0
 34108  1  0  0  0
 35 44  2  0  0  0
 35 45  1  0  0  0
 35 68  1  0  0  0
 36 56  1  0  0  0
 36109  1  0  0  0
 37 39  1  0  0  0
 37 47  1  0  0  0
 37 66  1  0  0  0
 37110  1  0  0  0
 38 43  2  0  0  0
 38 46  1  0  0  0
 38 47  1  0  0  0
 39 64  1  0  0  0
 39 67  2  0  0  0
 40 52  1  0  0  0
 40 53  2  0  0  0
 40 58  1  0  0  0
 41111  1  0  0  0
 41112  1  0  0  0
 41113  1  0  0  0
 41 48  1  0  0  0
 42 43  1  0  0  0
 42 66  1  0  0  0
 42114  1  0  0  0
 42115  1  0  0  0
 43 44  1  0  0  0
 44116  1  0  0  0
 45 46  2  0  0  0
 45117  1  0  0  0
 46118  1  0  0  0
 47119  1  0  0  0
 47120  1  0  0  0
 48 56  1  0  0  0
 48 65  1  0  0  0
 48121  1  0  0  0
 49 50  1  0  0  0
 49 53  1  0  0  0
 49 64  1  0  0  0
 49122  1  0  0  0
 50 51  1  0  0  0
 50123  1  0  0  0
 50124  1  0  0  0
 51 52  1  0  0  0
 51125  1  0  0  0
 51126  1  0  0  0
 52127  1  0  0  0
 52128  1  0  0  0
 53 54  1  0  0  0
 54 55  2  0  0  0
 54129  1  0  0  0
 55 57  1  0  0  0
 55130  1  0  0  0
 56 69  2  0  0  0
 57 58  2  0  0  0
 57131  1  0  0  0
 58132  1  0  0  0
 59 60  1  0  0  0
 59 61  1  0  0  0
 59 62  1  0  0  0
 60133  1  0  0  0
 60134  1  0  0  0
 60135  1  0  0  0
 61136  1  0  0  0
 61137  1  0  0  0
 61138  1  0  0  0
 62139  1  0  0  0
 62140  1  0  0  0
 62141  1  0  0  0
 63 65  1  0  0  0
 63142  1  0  0  0
 63143  1  0  0  0
 63144  1  0  0  0
 64145  1  0  0  0
 65146  1  0  0  0
 68 84  1  0  0  0
 71 72  2  0  0  0
 71 73  1  0  0  0
 71 81  1  0  0  0
 72 74  1  0  0  0
 72 84  1  0  0  0
 73 75  2  0  0  0
 73 82  1  0  0  0
 74 83  1  0  0  0
 74 85  2  0  0  0
 75 85  1  0  0  0
 75 87  1  0  0  0
 76 78  1  0  0  0
 76 80  1  0  0  0
 76147  1  0  0  0
 76148  1  0  0  0
 77 79  1  0  0  0
 77 80  1  0  0  0
 77149  1  0  0  0
 77150  1  0  0  0
 78 86  1  0  0  0
 78151  1  0  0  0
 78152  1  0  0  0
 79 86  1  0  0  0
 79153  1  0  0  0
 79154  1  0  0  0
 80 87  1  0  0  0
 80155  1  0  0  0
 81156  1  0  0  0
 81157  1  0  0  0
 81158  1  0  0  0
 82159  1  0  0  0
 82160  1  0  0  0
 82161  1  0  0  0
 83162  1  0  0  0
 83163  1  0  0  0
 83164  1  0  0  0
 84165  1  0  0  0
 84166  1  0  0  0
M  ISO  4   1 100  68 101  84 101  86 100
M  END
> <chiral flag>
0

> <version>
0

> <s_m_source_file>
/data/baiqing/PycharmProjects/Reinvent-master-3.2/result/LINK_invent/BTK/process_docking_weight1_custom_sum_contain_oxygen_bond_distance_aromatic_linkinvent_7_9_3/rearranged_h_0154.sdf

> <i_m_source_file_index>
67

> <r_mmod_Potential_Energy-OPLS-2005>
144.886627197266

> <r_mmod_Stretch_Energy-OPLS-2005>
76.5641021728516

> <r_mmod_Bend_Energy-OPLS-2005>
167.223861694336

> <r_mmod_Torsional_Energy-OPLS-2005>
322.410827636719

> <r_mmod_Improper_Torsional_Energy-OPLS-2005>
17.0767002105713

> <r_mmod_Van_der_Waal_Energy-OPLS-2005>
155.533584594727

> <r_mmod_Electrostatic_Energy-OPLS-2005>
-437.656219482422

> <r_mmod_Solvation_Energy-OPLS-2005>
-203.200454711914

> <b_mmod_Minimization_Converged-OPLS-2005>
0

> <r_mmod_RMS_Derivative-OPLS-2005>
1.37677800655365

$$$$
68
                    3D
 Structure written by MMmdl.
174184  0  0  1  0            999 V2000
  -30.7764  -14.4976   20.3946 C   0  0  0  0  0  0
  -30.4006  -12.2745   19.4591 C   0  0  0  0  0  0
  -29.4694  -12.2968   18.2149 C   0  0  0  0  0  0
  -28.0331  -12.7969   18.5053 C   0  0  0  0  0  0
  -27.7115  -12.7484   19.9990 C   0  0  2  0  0  0
  -28.7234  -13.2713   21.0161 C   0  0  0  0  0  0
  -25.3119  -13.7526   20.5572 C   0  0  0  0  0  0
  -24.1876  -13.0405   20.9104 C   0  0  0  0  0  0
  -24.5741  -11.6702   20.8906 C   0  0  0  0  0  0
  -23.8432  -10.4245   21.0630 C   0  0  0  0  0  0
  -24.3211   -9.4184   21.9314 C   0  0  0  0  0  0
  -23.6086   -8.2134   22.0764 C   0  0  0  0  0  0
  -22.4086   -8.0145   21.3544 C   0  0  0  0  0  0
  -21.9588   -9.0088   20.4684 C   0  0  0  0  0  0
  -22.6733  -10.2064   20.3176 C   0  0  0  0  0  0
  -21.6786   -6.0636   22.5286 C   0  0  0  0  0  0
  -21.3941   -6.5588   23.8202 C   0  0  0  0  0  0
  -21.3643   -5.6774   24.9186 C   0  0  0  0  0  0
  -21.6049   -4.3036   24.7259 C   0  0  0  0  0  0
  -21.8809   -3.8097   23.4388 C   0  0  0  0  0  0
  -21.9159   -4.6878   22.3424 C   0  0  0  0  0  0
  -22.8010  -13.5553   21.1742 C   0  0  0  0  0  0
  -22.1635   -4.2064   21.1005 F   0  0  0  0  0  0
  -21.5669   -3.4550   25.7795 F   0  0  0  0  0  0
  -30.0399  -13.3688   20.3756 N   0  0  0  0  0  0
  -26.3075  -12.7864   20.3801 N   0  0  0  0  0  0
  -25.8381  -11.5525   20.6064 N   0  0  0  0  0  0
  -22.0471  -12.8641   22.0252 N   0  0  0  0  0  0
  -25.5577  -15.1105   20.3719 N   0  0  0  0  0  0
  -32.0022  -14.5187   20.2942 O   0  0  0  0  0  0
  -21.6539   -6.8716   21.4222 O   0  0  0  0  0  0
  -22.3868  -14.5907   20.6575 O   0  0  0  0  0  0
  -24.6098  -31.8725   23.2164 C   0  0  0  0  0  0
  -25.9008  -32.4847   23.8441 C   0  0  1  0  0  0
  -27.2350  -27.4760   20.0855 C   0  0  0  0  0  0
  -25.5877  -33.8641   24.2367 N   0  0  0  0  0  0
  -23.3962  -30.4961   21.5558 C   0  0  2  0  0  0
  -24.8406  -28.9755   20.1141 C   0  0  0  0  0  0
  -22.7394  -29.4648   22.5022 C   0  0  0  0  0  0
  -18.0266  -28.1351   22.8494 C   0  0  0  0  0  0
  -24.1487  -36.7318   23.2638 C   0  0  0  0  0  0
  -25.9209  -30.8500   21.3651 C   0  0  0  0  0  0
  -25.9974  -29.4896   20.7106 C   0  0  0  0  0  0
  -27.1943  -28.7442   20.6982 C   0  0  0  0  0  0
  -26.0599  -26.9798   19.4739 C   0  0  0  0  0  0
  -24.8639  -27.7157   19.4964 C   0  0  0  0  0  0
  -23.6010  -29.8348   20.1679 C   0  0  0  0  0  0
  -25.4103  -36.3126   24.0355 C   0  0  1  0  0  0
  -20.5850  -28.3627   23.1332 C   0  0  2  0  0  0
  -20.6745  -26.9366   22.5421 C   0  0  0  0  0  0
  -19.5727  -26.6369   21.5208 C   0  0  0  0  0  0
  -18.1907  -26.7903   22.1624 C   0  0  0  0  0  0
  -19.1514  -28.8804   23.2912 C   0  0  0  0  0  0
  -18.9449  -30.1411   23.8924 C   0  0  0  0  0  0
  -17.6454  -30.6568   24.0550 C   0  0  0  0  0  0
  -25.9025  -34.9490   23.5163 C   0  0  0  0  0  0
  -16.5341  -29.9072   23.6308 C   0  0  0  0  0  0
  -16.7254  -28.6476   23.0348 C   0  0  0  0  0  0
  -26.4457  -31.6610   25.0743 C   0  0  0  0  0  0
  -25.3746  -31.3712   26.1515 C   0  0  0  0  0  0
  -27.0270  -30.3059   24.6068 C   0  0  0  0  0  0
  -27.6050  -32.4320   25.7489 C   0  0  0  0  0  0
  -27.5586  -37.1816   24.8470 C   0  0  0  0  0  0
  -21.4127  -29.3017   22.3767 N   0  0  0  0  0  0
  -26.4298  -37.3799   23.9414 N   0  0  0  0  0  0
  -24.6601  -31.0860   22.1048 N   0  0  0  0  0  0
  -23.4184  -28.8182   23.3044 O   0  0  0  0  0  0
  -28.4365  -26.8035   20.1215 O   0  0  0  0  0  0
  -26.5574  -34.8926   22.4716 O   0  0  0  0  0  0
  -23.5300  -32.1447   23.7583 O   0  0  0  0  0  0
  -27.0108  -20.6847   20.1488 C   0  0  0  0  0  0
  -27.1779  -23.0987   19.7714 C   0  0  0  0  0  0
  -27.0630  -21.9931   20.6554 C   0  0  0  0  0  0
  -27.0483  -22.8785   18.3648 C   0  0  0  0  0  0
  -26.9478  -21.5549   17.8717 C   0  0  0  0  0  0
  -27.0310  -20.4678   18.7668 C   0  0  0  0  0  0
  -29.2610  -16.6986   17.8854 C   0  0  0  0  0  0
  -29.2474  -17.9253   20.0626 C   0  0  0  0  0  0
  -28.7832  -24.6715   21.1015 C   0  0  0  0  0  0
  -30.3075  -15.7659   18.4756 C   0  0  0  0  0  0
  -30.1560  -16.8280   20.6734 C   0  0  0  0  0  0
  -27.4705  -24.4443   20.3855 C   0  0  1  0  0  0
  -29.4608  -18.0565   18.5396 C   0  0  0  0  0  0
  -28.5036  -25.4129   19.8208 C   0  0  1  0  0  0
  -27.0504  -22.1736   22.1663 C   0  0  0  0  0  0
  -27.0427  -24.0081   17.3339 C   0  0  0  0  0  0
  -26.8238  -21.2843   16.3747 C   0  0  0  0  0  0
  -28.6467  -19.1435   17.8349 C   0  0  0  0  0  0
  -30.0987  -15.5622   19.9200 N   0  0  0  0  0  0
  -27.3017  -19.2101   18.3087 O   0  0  0  0  0  0
  -31.4446  -12.3147   19.1399 H   0  0  0  0  0  0
  -30.2931  -11.3310   19.9948 H   0  0  0  0  0  0
  -29.4081  -11.2729   17.8455 H   0  0  0  0  0  0
  -29.9059  -12.8480   17.3850 H   0  0  0  0  0  0
  -27.3112  -12.2165   17.9294 H   0  0  0  0  0  0
  -27.9280  -13.8290   18.1662 H   0  0  0  0  0  0
  -27.9720  -11.6931   20.1266 H   0  0  0  0  0  0
  -28.7849  -12.6100   21.8832 H   0  0  0  0  0  0
  -28.3916  -14.2368   21.3989 H   0  0  0  0  0  0
  -25.2362   -9.5702   22.4865 H   0  0  0  0  0  0
  -23.9906   -7.4506   22.7389 H   0  0  0  0  0  0
  -21.0557   -8.8491   19.8967 H   0  0  0  0  0  0
  -22.3123  -10.9602   19.6319 H   0  0  0  0  0  0
  -21.1878   -7.6089   23.9660 H   0  0  0  0  0  0
  -21.1492   -6.0540   25.9083 H   0  0  0  0  0  0
  -22.0599   -2.7559   23.2925 H   0  0  0  0  0  0
  -22.3923  -12.0265   22.4717 H   0  0  0  0  0  0
  -21.1128  -13.1823   22.2352 H   0  0  0  0  0  0
  -24.8311  -15.8141   20.4321 H   0  0  0  0  0  0
  -26.4463  -15.4761   20.0511 H   0  0  0  0  0  0
  -26.7081  -32.5579   23.1215 H   0  0  0  0  0  0
  -25.0046  -33.9821   25.0520 H   0  0  0  0  0  0
  -22.6827  -31.3115   21.4228 H   0  0  0  0  0  0
  -23.3750  -35.9649   23.3317 H   0  0  0  0  0  0
  -24.3593  -36.8899   22.2048 H   0  0  0  0  0  0
  -23.7237  -37.6533   23.6624 H   0  0  0  0  0  0
  -26.0284  -31.6187   20.5993 H   0  0  0  0  0  0
  -26.8110  -30.9042   21.9802 H   0  0  0  0  0  0
  -28.0874  -29.1367   21.1639 H   0  0  0  0  0  0
  -26.0255  -26.0247   18.9810 H   0  0  0  0  0  0
  -23.9765  -27.3121   19.0295 H   0  0  0  0  0  0
  -23.7062  -30.6113   19.4099 H   0  0  0  0  0  0
  -22.7276  -29.2502   19.8740 H   0  0  0  0  0  0
  -25.1273  -36.2016   25.0849 H   0  0  0  0  0  0
  -20.9938  -28.3181   24.1453 H   0  0  0  0  0  0
  -20.5618  -26.2230   23.3601 H   0  0  0  0  0  0
  -21.6619  -26.7396   22.1227 H   0  0  0  0  0  0
  -19.6884  -25.6288   21.1213 H   0  0  0  0  0  0
  -19.6670  -27.3197   20.6754 H   0  0  0  0  0  0
  -17.4174  -26.6643   21.4030 H   0  0  0  0  0  0
  -18.0310  -26.0044   22.9019 H   0  0  0  0  0  0
  -19.7928  -30.7203   24.2322 H   0  0  0  0  0  0
  -17.5014  -31.6262   24.5131 H   0  0  0  0  0  0
  -15.5338  -30.2981   23.7617 H   0  0  0  0  0  0
  -15.8652  -28.0797   22.7061 H   0  0  0  0  0  0
  -24.5908  -30.7055   25.7882 H   0  0  0  0  0  0
  -24.8942  -32.2864   26.4990 H   0  0  0  0  0  0
  -25.8128  -30.8885   27.0261 H   0  0  0  0  0  0
  -26.2798  -29.6855   24.1096 H   0  0  0  0  0  0
  -27.4037  -29.7256   25.4504 H   0  0  0  0  0  0
  -27.8637  -30.4399   23.9205 H   0  0  0  0  0  0
  -27.2672  -33.3597   26.2129 H   0  0  0  0  0  0
  -28.3816  -32.6921   25.0283 H   0  0  0  0  0  0
  -28.0760  -31.8405   26.5354 H   0  0  0  0  0  0
  -28.2612  -38.0101   24.7504 H   0  0  0  0  0  0
  -28.1070  -36.2637   24.6308 H   0  0  0  0  0  0
  -27.2306  -37.1484   25.8872 H   0  0  0  0  0  0
  -20.9276  -29.8782   21.7033 H   0  0  0  0  0  0
  -26.0202  -38.2884   24.1405 H   0  0  0  0  0  0
  -27.0335  -19.8384   20.8219 H   0  0  0  0  0  0
  -28.2500  -16.3233   18.0554 H   0  0  0  0  0  0
  -29.3993  -16.7657   16.8053 H   0  0  0  0  0  0
  -29.4468  -18.8799   20.5519 H   0  0  0  0  0  0
  -28.2028  -17.6887   20.2688 H   0  0  0  0  0  0
  -29.5283  -23.8797   21.0643 H   0  0  0  0  0  0
  -28.7516  -25.2359   22.0312 H   0  0  0  0  0  0
  -31.3114  -16.1596   18.3001 H   0  0  0  0  0  0
  -30.2688  -14.8328   17.9249 H   0  0  0  0  0  0
  -29.8660  -16.6572   21.7118 H   0  0  0  0  0  0
  -31.1890  -17.1809   20.6991 H   0  0  0  0  0  0
  -26.5891  -24.8241   20.8974 H   0  0  0  0  0  0
  -30.5051  -18.3359   18.3823 H   0  0  0  0  0  0
  -29.1441  -25.1636   18.9761 H   0  0  0  0  0  0
  -26.6916  -21.2753   22.6666 H   0  0  0  0  0  0
  -26.3860  -22.9880   22.4584 H   0  0  0  0  0  0
  -28.0505  -22.3846   22.5455 H   0  0  0  0  0  0
  -27.3126  -24.9867   17.7026 H   0  0  0  0  0  0
  -26.0513  -24.1016   16.8918 H   0  0  0  0  0  0
  -27.7478  -23.7933   16.5306 H   0  0  0  0  0  0
  -26.0792  -21.9330   15.9147 H   0  0  0  0  0  0
  -26.5068  -20.2592   16.1749 H   0  0  0  0  0  0
  -27.7800  -21.4463   15.8755 H   0  0  0  0  0  0
  -28.6322  -18.9753   16.7575 H   0  0  0  0  0  0
  -29.1891  -20.0830   17.9713 H   0  0  0  0  0  0
  1 25  1  0  0  0
  1 30  2  0  0  0
  1 89  1  0  0  0
  2  3  1  0  0  0
  2 25  1  0  0  0
  2 91  1  0  0  0
  2 92  1  0  0  0
  3  4  1  0  0  0
  3 93  1  0  0  0
  3 94  1  0  0  0
  4  5  1  0  0  0
  4 95  1  0  0  0
  4 96  1  0  0  0
  5  6  1  0  0  0
  5 26  1  0  0  0
  5 97  1  0  0  0
  6 25  1  0  0  0
  6 98  1  0  0  0
  6 99  1  0  0  0
  7  8  2  0  0  0
  7 26  1  0  0  0
  7 29  1  0  0  0
  8  9  1  0  0  0
  8 22  1  0  0  0
  9 10  1  0  0  0
  9 27  2  0  0  0
 10 11  2  0  0  0
 10 15  1  0  0  0
 11 12  1  0  0  0
 11100  1  0  0  0
 12 13  2  0  0  0
 12101  1  0  0  0
 13 14  1  0  0  0
 13 31  1  0  0  0
 14 15  2  0  0  0
 14102  1  0  0  0
 15103  1  0  0  0
 16 17  2  0  0  0
 16 21  1  0  0  0
 16 31  1  0  0  0
 17 18  1  0  0  0
 17104  1  0  0  0
 18 19  2  0  0  0
 18105  1  0  0  0
 19 20  1  0  0  0
 19 24  1  0  0  0
 20 21  2  0  0  0
 20106  1  0  0  0
 21 23  1  0  0  0
 22 28  1  0  0  0
 22 32  2  0  0  0
 26 27  1  0  0  0
 28107  1  0  0  0
 28108  1  0  0  0
 29109  1  0  0  0
 29110  1  0  0  0
 33 34  1  0  0  0
 33 66  1  0  0  0
 33 70  2  0  0  0
 34 36  1  0  0  0
 34 59  1  0  0  0
 34111  1  0  0  0
 35 44  2  0  0  0
 35 45  1  0  0  0
 35 68  1  0  0  0
 36 56  1  0  0  0
 36112  1  0  0  0
 37 39  1  0  0  0
 37 47  1  0  0  0
 37 66  1  0  0  0
 37113  1  0  0  0
 38 43  2  0  0  0
 38 46  1  0  0  0
 38 47  1  0  0  0
 39 64  1  0  0  0
 39 67  2  0  0  0
 40 52  1  0  0  0
 40 53  2  0  0  0
 40 58  1  0  0  0
 41114  1  0  0  0
 41115  1  0  0  0
 41116  1  0  0  0
 41 48  1  0  0  0
 42 43  1  0  0  0
 42 66  1  0  0  0
 42117  1  0  0  0
 42118  1  0  0  0
 43 44  1  0  0  0
 44119  1  0  0  0
 45 46  2  0  0  0
 45120  1  0  0  0
 46121  1  0  0  0
 47122  1  0  0  0
 47123  1  0  0  0
 48 56  1  0  0  0
 48 65  1  0  0  0
 48124  1  0  0  0
 49 50  1  0  0  0
 49 53  1  0  0  0
 49 64  1  0  0  0
 49125  1  0  0  0
 50 51  1  0  0  0
 50126  1  0  0  0
 50127  1  0  0  0
 51 52  1  0  0  0
 51128  1  0  0  0
 51129  1  0  0  0
 52130  1  0  0  0
 52131  1  0  0  0
 53 54  1  0  0  0
 54 55  2  0  0  0
 54132  1  0  0  0
 55 57  1  0  0  0
 55133  1  0  0  0
 56 69  2  0  0  0
 57 58  2  0  0  0
 57134  1  0  0  0
 58135  1  0  0  0
 59 60  1  0  0  0
 59 61  1  0  0  0
 59 62  1  0  0  0
 60136  1  0  0  0
 60137  1  0  0  0
 60138  1  0  0  0
 61139  1  0  0  0
 61140  1  0  0  0
 61141  1  0  0  0
 62142  1  0  0  0
 62143  1  0  0  0
 62144  1  0  0  0
 63 65  1  0  0  0
 63145  1  0  0  0
 63146  1  0  0  0
 63147  1  0  0  0
 64148  1  0  0  0
 65149  1  0  0  0
 68 84  1  0  0  0
 71 73  2  0  0  0
 71 76  1  0  0  0
 71150  1  0  0  0
 72 73  1  0  0  0
 72 74  2  0  0  0
 72 82  1  0  0  0
 73 85  1  0  0  0
 74 75  1  0  0  0
 74 86  1  0  0  0
 75 76  2  0  0  0
 75 87  1  0  0  0
 76 90  1  0  0  0
 77 80  1  0  0  0
 77 83  1  0  0  0
 77151  1  0  0  0
 77152  1  0  0  0
 78 81  1  0  0  0
 78 83  1  0  0  0
 78153  1  0  0  0
 78154  1  0  0  0
 79 82  1  0  0  0
 79 84  1  0  0  0
 79155  1  0  0  0
 79156  1  0  0  0
 80 89  1  0  0  0
 80157  1  0  0  0
 80158  1  0  0  0
 81 89  1  0  0  0
 81159  1  0  0  0
 81160  1  0  0  0
 82 84  1  0  0  0
 82161  1  0  0  0
 83 88  1  0  0  0
 83162  1  0  0  0
 84163  1  0  0  0
 85164  1  0  0  0
 85165  1  0  0  0
 85166  1  0  0  0
 86167  1  0  0  0
 86168  1  0  0  0
 86169  1  0  0  0
 87170  1  0  0  0
 87171  1  0  0  0
 87172  1  0  0  0
 88 90  1  0  0  0
 88173  1  0  0  0
 88174  1  0  0  0
M  ISO  4   1 100  68 101  84 101  89 100
M  END
> <chiral flag>
0

> <version>
0

> <s_m_source_file>
/data/baiqing/PycharmProjects/Reinvent-master-3.2/result/LINK_invent/BTK/process_docking_weight1_custom_sum_contain_oxygen_bond_distance_aromatic_linkinvent_7_9_3/rearranged_h_0154.sdf

> <i_m_source_file_index>
68

> <r_mmod_Potential_Energy-OPLS-2005>
453.327423095703

> <r_mmod_Stretch_Energy-OPLS-2005>
36.0380210876465

> <r_mmod_Bend_Energy-OPLS-2005>
178.353729248047

> <r_mmod_Torsional_Energy-OPLS-2005>
430.668609619141

> <r_mmod_Improper_Torsional_Energy-OPLS-2005>
24.82155418396

> <r_mmod_Van_der_Waal_Energy-OPLS-2005>
190.880294799805

> <r_mmod_Electrostatic_Energy-OPLS-2005>
-318.250030517578

> <r_mmod_Solvation_Energy-OPLS-2005>
-189.605346679688

> <b_mmod_Minimization_Converged-OPLS-2005>
0

> <r_mmod_RMS_Derivative-OPLS-2005>
2.68328714370728

$$$$
69
                    3D
 Structure written by MMmdl.
161169  0  0  1  0            999 V2000
  -30.7061  -14.4985   20.5078 C   0  0  0  0  0  0
  -30.4143  -12.3099   19.4285 C   0  0  0  0  0  0
  -29.4958  -12.4954   18.2047 C   0  0  0  0  0  0
  -28.0142  -12.3686   18.6169 C   0  0  0  0  0  0
  -27.6587  -13.2150   19.8703 C   0  0  2  0  0  0
  -28.7074  -13.0481   20.9945 C   0  0  0  0  0  0
  -25.2617  -13.8166   20.5784 C   0  0  0  0  0  0
  -24.1866  -13.0452   20.9217 C   0  0  0  0  0  0
  -24.6419  -11.6899   20.8778 C   0  0  0  0  0  0
  -23.9077  -10.4278   21.0418 C   0  0  0  0  0  0
  -24.3617   -9.4216   21.9206 C   0  0  0  0  0  0
  -23.6317   -8.2234   22.0757 C   0  0  0  0  0  0
  -22.4292   -8.0262   21.3540 C   0  0  0  0  0  0
  -21.9919   -9.0243   20.4647 C   0  0  0  0  0  0
  -22.7247  -10.2125   20.3079 C   0  0  0  0  0  0
  -21.6865   -6.0755   22.5299 C   0  0  0  0  0  0
  -21.4019   -6.5662   23.8242 C   0  0  0  0  0  0
  -21.3671   -5.6804   24.9195 C   0  0  0  0  0  0
  -21.6052   -4.3072   24.7226 C   0  0  0  0  0  0
  -21.8830   -3.8162   23.4350 C   0  0  0  0  0  0
  -21.9210   -4.6981   22.3413 C   0  0  0  0  0  0
  -22.7889  -13.5246   21.1853 C   0  0  0  0  0  0
  -22.1675   -4.2183   21.0991 F   0  0  0  0  0  0
  -21.5627   -3.4547   25.7731 F   0  0  0  0  0  0
  -30.0252  -13.3260   20.4142 N   0  0  0  0  0  0
  -26.3041  -12.9352   20.3415 N   0  0  0  0  0  0
  -25.9365  -11.6510   20.5831 N   0  0  0  0  0  0
  -22.0490  -12.8277   22.0383 N   0  0  0  0  0  0
  -25.4385  -15.1903   20.4276 N   0  0  0  0  0  0
  -31.8827  -14.6199   20.1752 O   0  0  0  0  0  0
  -21.6661   -6.8871   21.4242 O   0  0  0  0  0  0
  -22.3602  -14.5552   20.6677 O   0  0  0  0  0  0
  -24.6158  -31.8709   23.2157 C   0  0  0  0  0  0
  -25.9051  -32.4836   23.8423 C   0  0  1  0  0  0
  -27.2030  -27.4173   20.0833 C   0  0  0  0  0  0
  -25.5936  -33.8631   24.2383 N   0  0  0  0  0  0
  -23.4001  -30.4982   21.5579 C   0  0  2  0  0  0
  -24.8389  -28.9707   20.1180 C   0  0  0  0  0  0
  -22.7424  -29.4650   22.5022 C   0  0  0  0  0  0
  -18.0286  -28.1372   22.8509 C   0  0  0  0  0  0
  -24.1492  -36.7317   23.2635 C   0  0  0  0  0  0
  -25.9347  -30.8259   21.3756 C   0  0  0  0  0  0
  -26.0045  -29.4605   20.7235 C   0  0  0  0  0  0
  -27.1910  -28.6873   20.7109 C   0  0  0  0  0  0
  -26.0331  -26.9744   19.4366 C   0  0  0  0  0  0
  -24.8502  -27.7269   19.4712 C   0  0  0  0  0  0
  -23.6040  -29.8383   20.1715 C   0  0  0  0  0  0
  -25.4115  -36.3137   24.0350 C   0  0  1  0  0  0
  -20.5885  -28.3622   23.1372 C   0  0  2  0  0  0
  -20.6775  -26.9374   22.5389 C   0  0  0  0  0  0
  -19.5763  -26.6500   21.5150 C   0  0  0  0  0  0
  -18.1951  -26.7964   22.1588 C   0  0  0  0  0  0
  -19.1538  -28.8804   23.2966 C   0  0  0  0  0  0
  -18.9463  -30.1407   23.9000 C   0  0  0  0  0  0
  -17.6464  -30.6550   24.0628 C   0  0  0  0  0  0
  -25.9049  -34.9490   23.5177 C   0  0  0  0  0  0
  -16.5360  -29.9080   23.6348 C   0  0  0  0  0  0
  -16.7277  -28.6511   23.0346 C   0  0  0  0  0  0
  -26.4478  -31.6584   25.0726 C   0  0  0  0  0  0
  -25.3738  -31.3633   26.1457 C   0  0  0  0  0  0
  -27.0303  -30.3043   24.6084 C   0  0  0  0  0  0
  -27.6102  -32.4244   25.7478 C   0  0  0  0  0  0
  -27.5590  -37.1818   24.8464 C   0  0  0  0  0  0
  -21.4148  -29.3022   22.3803 N   0  0  0  0  0  0
  -26.4311  -37.3823   23.9402 N   0  0  0  0  0  0
  -24.6693  -31.0791   22.1075 N   0  0  0  0  0  0
  -23.4237  -28.8123   23.2978 O   0  0  0  0  0  0
  -28.3412  -26.6384   20.0715 O   0  0  0  0  0  0
  -26.5571  -34.8945   22.4717 O   0  0  0  0  0  0
  -23.5353  -32.1436   23.7574 O   0  0  0  0  0  0
  -29.1927  -22.2051   20.5973 C   0  0  0  0  0  0
  -29.3682  -20.8701   21.0130 C   0  0  0  0  0  0
  -27.9126  -22.7288   20.3225 C   0  0  0  0  0  0
  -26.7819  -21.8766   20.5077 C   0  0  0  0  0  0
  -28.2595  -20.0070   21.1777 C   0  0  0  0  0  0
  -26.9624  -20.5312   20.9379 C   0  0  0  0  0  0
  -25.3693  -22.3705   20.2084 C   0  0  0  0  0  0
  -25.5040  -19.3266   22.3447 C   0  0  0  0  0  0
  -27.8196  -24.1547   19.7311 C   0  0  0  0  0  0
  -29.4161  -16.4366   21.4684 C   0  0  0  0  0  0
  -28.2263  -25.3307   20.6825 C   0  0  0  0  0  0
  -29.4977  -17.9354   21.0575 C   0  0  0  0  0  0
  -29.9460  -15.5955   20.3910 N   0  0  0  0  0  0
  -25.8684  -19.7056   21.0231 O   0  0  0  0  0  0
  -28.3878  -18.6805   21.5644 O   0  0  0  0  0  0
  -31.4632  -12.3891   19.1318 H   0  0  0  0  0  0
  -30.2865  -11.3127   19.8518 H   0  0  0  0  0  0
  -29.7360  -11.7637   17.4327 H   0  0  0  0  0  0
  -29.6716  -13.4739   17.7571 H   0  0  0  0  0  0
  -27.8158  -11.3146   18.8132 H   0  0  0  0  0  0
  -27.3654  -12.6535   17.7869 H   0  0  0  0  0  0
  -27.6827  -14.2602   19.5587 H   0  0  0  0  0  0
  -28.6862  -12.0390   21.4093 H   0  0  0  0  0  0
  -28.4947  -13.7216   21.8253 H   0  0  0  0  0  0
  -25.2739   -9.5768   22.4809 H   0  0  0  0  0  0
  -24.0095   -7.4643   22.7457 H   0  0  0  0  0  0
  -21.0866   -8.8733   19.8941 H   0  0  0  0  0  0
  -22.3671  -10.9672   19.6217 H   0  0  0  0  0  0
  -21.1995   -7.6164   23.9755 H   0  0  0  0  0  0
  -21.1492   -6.0525   25.9114 H   0  0  0  0  0  0
  -22.0594   -2.7620   23.2837 H   0  0  0  0  0  0
  -22.4070  -11.9973   22.4858 H   0  0  0  0  0  0
  -21.1096  -13.1324   22.2484 H   0  0  0  0  0  0
  -24.6743  -15.8455   20.5472 H   0  0  0  0  0  0
  -26.3092  -15.6340   20.1644 H   0  0  0  0  0  0
  -26.7087  -32.5551   23.1159 H   0  0  0  0  0  0
  -25.0098  -33.9799   25.0532 H   0  0  0  0  0  0
  -22.6859  -31.3132   21.4258 H   0  0  0  0  0  0
  -23.3785  -35.9616   23.3301 H   0  0  0  0  0  0
  -24.3579  -36.8944   22.2046 H   0  0  0  0  0  0
  -23.7203  -37.6517   23.6623 H   0  0  0  0  0  0
  -26.0447  -31.5838   20.5990 H   0  0  0  0  0  0
  -26.8275  -30.8841   21.9871 H   0  0  0  0  0  0
  -28.0892  -29.0494   21.1882 H   0  0  0  0  0  0
  -26.0109  -26.0757   18.8481 H   0  0  0  0  0  0
  -23.9628  -27.3633   18.9707 H   0  0  0  0  0  0
  -23.7065  -30.6129   19.4118 H   0  0  0  0  0  0
  -22.7260  -29.2578   19.8808 H   0  0  0  0  0  0
  -25.1275  -36.2038   25.0839 H   0  0  0  0  0  0
  -20.9974  -28.3114   24.1493 H   0  0  0  0  0  0
  -20.5680  -26.2150   23.3492 H   0  0  0  0  0  0
  -21.6652  -26.7413   22.1173 H   0  0  0  0  0  0
  -19.6937  -25.6494   21.1002 H   0  0  0  0  0  0
  -19.6711  -27.3447   20.6798 H   0  0  0  0  0  0
  -17.4205  -26.6744   21.3988 H   0  0  0  0  0  0
  -18.0367  -26.0052   22.8936 H   0  0  0  0  0  0
  -19.7928  -30.7211   24.2445 H   0  0  0  0  0  0
  -17.5018  -31.6214   24.5250 H   0  0  0  0  0  0
  -15.5378  -30.2997   23.7677 H   0  0  0  0  0  0
  -15.8680  -28.0879   22.6998 H   0  0  0  0  0  0
  -24.5977  -30.6913   25.7760 H   0  0  0  0  0  0
  -24.8815  -32.2743   26.4878 H   0  0  0  0  0  0
  -25.8102  -30.8812   27.0221 H   0  0  0  0  0  0
  -26.2834  -29.6816   24.1152 H   0  0  0  0  0  0
  -27.4101  -29.7267   25.4525 H   0  0  0  0  0  0
  -27.8657  -30.4375   23.9206 H   0  0  0  0  0  0
  -27.2815  -33.3586   26.2048 H   0  0  0  0  0  0
  -28.3936  -32.6740   25.0291 H   0  0  0  0  0  0
  -28.0726  -31.8317   26.5393 H   0  0  0  0  0  0
  -28.2616  -38.0116   24.7549 H   0  0  0  0  0  0
  -28.1102  -36.2661   24.6262 H   0  0  0  0  0  0
  -27.2291  -37.1420   25.8867 H   0  0  0  0  0  0
  -20.9258  -29.8790   21.7111 H   0  0  0  0  0  0
  -26.0236  -38.2922   24.1407 H   0  0  0  0  0  0
  -30.0633  -22.8300   20.4604 H   0  0  0  0  0  0
  -30.3766  -20.5334   21.2027 H   0  0  0  0  0  0
  -25.2018  -23.3604   20.6381 H   0  0  0  0  0  0
  -24.5980  -21.7101   20.6143 H   0  0  0  0  0  0
  -25.2174  -22.4266   19.1275 H   0  0  0  0  0  0
  -26.2871  -18.7605   22.8461 H   0  0  0  0  0  0
  -24.6127  -18.7004   22.3057 H   0  0  0  0  0  0
  -25.2637  -20.2004   22.9510 H   0  0  0  0  0  0
  -26.8249  -24.2978   19.3259 H   0  0  0  0  0  0
  -28.4739  -24.1746   18.8576 H   0  0  0  0  0  0
  -28.3818  -16.1484   21.6592 H   0  0  0  0  0  0
  -29.9600  -16.2766   22.4024 H   0  0  0  0  0  0
  -29.2200  -25.1168   21.0800 H   0  0  0  0  0  0
  -27.5661  -25.3864   21.5495 H   0  0  0  0  0  0
  -29.4793  -18.0226   19.9685 H   0  0  0  0  0  0
  -30.4510  -18.3472   21.3995 H   0  0  0  0  0  0
  -30.3549  -16.1954   19.6895 H   0  0  0  0  0  0
  1 25  1  0  0  0
  1 30  2  0  0  0
  1 83  1  0  0  0
  2  3  1  0  0  0
  2 25  1  0  0  0
  2 86  1  0  0  0
  2 87  1  0  0  0
  3  4  1  0  0  0
  3 88  1  0  0  0
  3 89  1  0  0  0
  4  5  1  0  0  0
  4 90  1  0  0  0
  4 91  1  0  0  0
  5  6  1  0  0  0
  5 26  1  0  0  0
  5 92  1  0  0  0
  6 25  1  0  0  0
  6 93  1  0  0  0
  6 94  1  0  0  0
  7  8  2  0  0  0
  7 26  1  0  0  0
  7 29  1  0  0  0
  8  9  1  0  0  0
  8 22  1  0  0  0
  9 10  1  0  0  0
  9 27  2  0  0  0
 10 11  2  0  0  0
 10 15  1  0  0  0
 11 12  1  0  0  0
 11 95  1  0  0  0
 12 13  2  0  0  0
 12 96  1  0  0  0
 13 14  1  0  0  0
 13 31  1  0  0  0
 14 15  2  0  0  0
 14 97  1  0  0  0
 15 98  1  0  0  0
 16 17  2  0  0  0
 16 21  1  0  0  0
 16 31  1  0  0  0
 17 18  1  0  0  0
 17 99  1  0  0  0
 18 19  2  0  0  0
 18100  1  0  0  0
 19 20  1  0  0  0
 19 24  1  0  0  0
 20 21  2  0  0  0
 20101  1  0  0  0
 21 23  1  0  0  0
 22 28  1  0  0  0
 22 32  2  0  0  0
 26 27  1  0  0  0
 28102  1  0  0  0
 28103  1  0  0  0
 29104  1  0  0  0
 29105  1  0  0  0
 33 34  1  0  0  0
 33 66  1  0  0  0
 33 70  2  0  0  0
 34 36  1  0  0  0
 34 59  1  0  0  0
 34106  1  0  0  0
 35 44  2  0  0  0
 35 45  1  0  0  0
 35 68  1  0  0  0
 36 56  1  0  0  0
 36107  1  0  0  0
 37 39  1  0  0  0
 37 47  1  0  0  0
 37 66  1  0  0  0
 37108  1  0  0  0
 38 43  2  0  0  0
 38 46  1  0  0  0
 38 47  1  0  0  0
 39 64  1  0  0  0
 39 67  2  0  0  0
 40 52  1  0  0  0
 40 53  2  0  0  0
 40 58  1  0  0  0
 41109  1  0  0  0
 41110  1  0  0  0
 41111  1  0  0  0
 41 48  1  0  0  0
 42 43  1  0  0  0
 42 66  1  0  0  0
 42112  1  0  0  0
 42113  1  0  0  0
 43 44  1  0  0  0
 44114  1  0  0  0
 45 46  2  0  0  0
 45115  1  0  0  0
 46116  1  0  0  0
 47117  1  0  0  0
 47118  1  0  0  0
 48 56  1  0  0  0
 48 65  1  0  0  0
 48119  1  0  0  0
 49 50  1  0  0  0
 49 53  1  0  0  0
 49 64  1  0  0  0
 49120  1  0  0  0
 50 51  1  0  0  0
 50121  1  0  0  0
 50122  1  0  0  0
 51 52  1  0  0  0
 51123  1  0  0  0
 51124  1  0  0  0
 52125  1  0  0  0
 52126  1  0  0  0
 53 54  1  0  0  0
 54 55  2  0  0  0
 54127  1  0  0  0
 55 57  1  0  0  0
 55128  1  0  0  0
 56 69  2  0  0  0
 57 58  2  0  0  0
 57129  1  0  0  0
 58130  1  0  0  0
 59 60  1  0  0  0
 59 61  1  0  0  0
 59 62  1  0  0  0
 60131  1  0  0  0
 60132  1  0  0  0
 60133  1  0  0  0
 61134  1  0  0  0
 61135  1  0  0  0
 61136  1  0  0  0
 62137  1  0  0  0
 62138  1  0  0  0
 62139  1  0  0  0
 63 65  1  0  0  0
 63140  1  0  0  0
 63141  1  0  0  0
 63142  1  0  0  0
 64143  1  0  0  0
 65144  1  0  0  0
 68 81  1  0  0  0
 71 72  2  0  0  0
 71 73  1  0  0  0
 71145  1  0  0  0
 72 75  1  0  0  0
 72146  1  0  0  0
 73 74  2  0  0  0
 73 79  1  0  0  0
 74 76  1  0  0  0
 74 77  1  0  0  0
 75 76  2  0  0  0
 75 85  1  0  0  0
 76 84  1  0  0  0
 77147  1  0  0  0
 77148  1  0  0  0
 77149  1  0  0  0
 78 84  1  0  0  0
 78150  1  0  0  0
 78151  1  0  0  0
 78152  1  0  0  0
 79 81  1  0  0  0
 79153  1  0  0  0
 79154  1  0  0  0
 80 82  1  0  0  0
 80 83  1  0  0  0
 80155  1  0  0  0
 80156  1  0  0  0
 81157  1  0  0  0
 81158  1  0  0  0
 82 85  1  0  0  0
 82159  1  0  0  0
 82160  1  0  0  0
 83161  1  0  0  0
M  ISO  4   1 100  68 101  81 101  83 100
M  END
> <chiral flag>
0

> <version>
0

> <s_m_source_file>
/data/baiqing/PycharmProjects/Reinvent-master-3.2/result/LINK_invent/BTK/process_docking_weight1_custom_sum_contain_oxygen_bond_distance_aromatic_linkinvent_7_9_3/rearranged_h_0154.sdf

> <i_m_source_file_index>
69

> <r_mmod_Potential_Energy-OPLS-2005>
42.1419792175293

> <r_mmod_Stretch_Energy-OPLS-2005>
42.277229309082

> <r_mmod_Bend_Energy-OPLS-2005>
115.311538696289

> <r_mmod_Torsional_Energy-OPLS-2005>
325.207336425781

> <r_mmod_Improper_Torsional_Energy-OPLS-2005>
24.7111110687256

> <r_mmod_Van_der_Waal_Energy-OPLS-2005>
149.619750976562

> <r_mmod_Electrostatic_Energy-OPLS-2005>
-430.5859375

> <r_mmod_Solvation_Energy-OPLS-2005>
-206.059768676758

> <b_mmod_Minimization_Converged-OPLS-2005>
0

> <r_mmod_RMS_Derivative-OPLS-2005>
5.0923056602478

$$$$
70
                    3D
 Structure written by MMmdl.
171180  0  0  1  0            999 V2000
  -30.7424  -14.4137   20.4882 C   0  0  0  0  0  0
  -30.3949  -12.2477   19.4201 C   0  0  0  0  0  0
  -29.4789  -12.4893   18.2005 C   0  0  0  0  0  0
  -27.9986  -12.3675   18.6127 C   0  0  0  0  0  0
  -27.6531  -13.1944   19.8825 C   0  0  2  0  0  0
  -28.7049  -13.0085   21.0009 C   0  0  0  0  0  0
  -25.2525  -13.8034   20.5738 C   0  0  0  0  0  0
  -24.1773  -13.0300   20.9158 C   0  0  0  0  0  0
  -24.6348  -11.6793   20.8699 C   0  0  0  0  0  0
  -23.9005  -10.4205   21.0400 C   0  0  0  0  0  0
  -24.3564   -9.4145   21.9195 C   0  0  0  0  0  0
  -23.6248   -8.2178   22.0718 C   0  0  0  0  0  0
  -22.4251   -8.0206   21.3494 C   0  0  0  0  0  0
  -21.9870   -9.0171   20.4611 C   0  0  0  0  0  0
  -22.7143  -10.2081   20.3068 C   0  0  0  0  0  0
  -21.6841   -6.0681   22.5264 C   0  0  0  0  0  0
  -21.3994   -6.5603   23.8194 C   0  0  0  0  0  0
  -21.3688   -5.6760   24.9167 C   0  0  0  0  0  0
  -21.6077   -4.3002   24.7243 C   0  0  0  0  0  0
  -21.8821   -3.8116   23.4352 C   0  0  0  0  0  0
  -21.9178   -4.6914   22.3387 C   0  0  0  0  0  0
  -22.7828  -13.5177   21.1838 C   0  0  0  0  0  0
  -22.1646   -4.2080   21.0949 F   0  0  0  0  0  0
  -21.5672   -3.4486   25.7774 F   0  0  0  0  0  0
  -30.0379  -13.2575   20.4224 N   0  0  0  0  0  0
  -26.2970  -12.9198   20.3451 N   0  0  0  0  0  0
  -25.9277  -11.6350   20.5808 N   0  0  0  0  0  0
  -22.0459  -12.8162   22.0413 N   0  0  0  0  0  0
  -25.4197  -15.1759   20.4392 N   0  0  0  0  0  0
  -31.9111  -14.5292   20.1114 O   0  0  0  0  0  0
  -21.6626   -6.8794   21.4201 O   0  0  0  0  0  0
  -22.3568  -14.5499   20.6715 O   0  0  0  0  0  0
  -24.6069  -31.8693   23.2156 C   0  0  0  0  0  0
  -25.8956  -32.4856   23.8444 C   0  0  1  0  0  0
  -27.2448  -27.4773   20.1180 C   0  0  0  0  0  0
  -25.5859  -33.8655   24.2399 N   0  0  0  0  0  0
  -23.3969  -30.4911   21.5566 C   0  0  2  0  0  0
  -24.8492  -28.9584   20.1258 C   0  0  0  0  0  0
  -22.7380  -29.4638   22.5044 C   0  0  0  0  0  0
  -18.0229  -28.1368   22.8459 C   0  0  0  0  0  0
  -24.1489  -36.7315   23.2650 C   0  0  0  0  0  0
  -25.9192  -30.8544   21.3616 C   0  0  0  0  0  0
  -26.0024  -29.4865   20.7210 C   0  0  0  0  0  0
  -27.2043  -28.7521   20.7193 C   0  0  0  0  0  0
  -26.0866  -26.9555   19.5073 C   0  0  0  0  0  0
  -24.8839  -27.6899   19.5163 C   0  0  0  0  0  0
  -23.6065  -29.8199   20.1729 C   0  0  0  0  0  0
  -25.4116  -36.3158   24.0367 C   0  0  1  0  0  0
  -20.5822  -28.3643   23.1324 C   0  0  2  0  0  0
  -20.6747  -26.9401   22.5416 C   0  0  0  0  0  0
  -19.5741  -26.6390   21.5187 C   0  0  0  0  0  0
  -18.1906  -26.7907   22.1601 C   0  0  0  0  0  0
  -19.1486  -28.8815   23.2877 C   0  0  0  0  0  0
  -18.9439  -30.1410   23.8908 C   0  0  0  0  0  0
  -17.6461  -30.6585   24.0549 C   0  0  0  0  0  0
  -25.9031  -34.9502   23.5193 C   0  0  0  0  0  0
  -16.5333  -29.9111   23.6312 C   0  0  0  0  0  0
  -16.7218  -28.6518   23.0325 C   0  0  0  0  0  0
  -26.4438  -31.6602   25.0734 C   0  0  0  0  0  0
  -25.3760  -31.3656   26.1518 C   0  0  0  0  0  0
  -27.0284  -30.3080   24.5996 C   0  0  0  0  0  0
  -27.6071  -32.4283   25.7438 C   0  0  0  0  0  0
  -27.5592  -37.1831   24.8473 C   0  0  0  0  0  0
  -21.4114  -29.3010   22.3759 N   0  0  0  0  0  0
  -26.4290  -37.3830   23.9427 N   0  0  0  0  0  0
  -24.6604  -31.0839   22.1045 N   0  0  0  0  0  0
  -23.4148  -28.8193   23.3089 O   0  0  0  0  0  0
  -28.4084  -26.7599   20.0933 O   0  0  0  0  0  0
  -26.5605  -34.8945   22.4755 O   0  0  0  0  0  0
  -23.5270  -32.1402   23.7570 O   0  0  0  0  0  0
  -26.9606  -18.3497   20.2429 C   0  0  0  0  0  0
  -28.4198  -19.8640   21.5168 C   0  0  0  0  0  0
  -28.0793  -17.6092   19.8198 C   0  0  0  0  0  0
  -29.5345  -19.0480   21.1726 C   0  0  0  0  0  0
  -29.3377  -17.8580   20.4192 C   0  0  0  0  0  0
  -27.1228  -19.4567   21.1011 C   0  0  0  0  0  0
  -27.6983  -21.6194   23.4478 C   0  0  0  0  0  0
  -27.2214  -22.8373   22.6465 C   0  0  0  0  0  0
  -28.5984  -21.1953   22.2793 C   0  0  2  0  0  0
  -28.2087  -22.4899   21.5299 C   0  0  2  0  0  0
  -27.9388  -16.6498   18.6370 C   0  0  0  0  0  0
  -30.9460  -19.4728   21.5585 C   0  0  0  0  0  0
  -25.0429  -19.4601   22.1818 C   0  0  0  0  0  0
  -30.4523  -16.8281   20.2555 C   0  0  0  0  0  0
  -28.5190  -25.7740   21.1181 C   0  0  0  0  0  0
  -29.0102  -24.4750   20.4609 C   0  0  0  0  0  0
  -30.0180  -15.5062   20.7047 N   0  0  0  0  0  0
  -26.0245  -20.1926   21.4597 O   0  0  0  0  0  0
  -29.2807  -23.4248   21.3924 O   0  0  0  0  0  0
  -31.4481  -12.2888   19.1363 H   0  0  0  0  0  0
  -30.2404  -11.2477   19.8224 H   0  0  0  0  0  0
  -29.7116  -11.7742   17.4108 H   0  0  0  0  0  0
  -29.6647  -13.4791   17.7790 H   0  0  0  0  0  0
  -27.7884  -11.3118   18.7908 H   0  0  0  0  0  0
  -27.3522  -12.6748   17.7908 H   0  0  0  0  0  0
  -27.6784  -14.2353   19.5886 H   0  0  0  0  0  0
  -28.6654  -11.9945   21.4028 H   0  0  0  0  0  0
  -28.5043  -13.6662   21.8483 H   0  0  0  0  0  0
  -25.2698   -9.5632   22.4791 H   0  0  0  0  0  0
  -23.9933   -7.4567   22.7436 H   0  0  0  0  0  0
  -21.0769   -8.8642   19.8956 H   0  0  0  0  0  0
  -22.3545  -10.9619   19.6188 H   0  0  0  0  0  0
  -21.1936   -7.6116   23.9640 H   0  0  0  0  0  0
  -21.1547   -6.0524   25.9061 H   0  0  0  0  0  0
  -22.0578   -2.7567   23.2868 H   0  0  0  0  0  0
  -22.4103  -11.9879   22.4857 H   0  0  0  0  0  0
  -21.1135  -13.1260   22.2706 H   0  0  0  0  0  0
  -24.6527  -15.8310   20.5435 H   0  0  0  0  0  0
  -26.2964  -15.6220   20.2050 H   0  0  0  0  0  0
  -26.7040  -32.5601   23.1246 H   0  0  0  0  0  0
  -25.0041  -33.9858   25.0566 H   0  0  0  0  0  0
  -22.6808  -31.3037   21.4171 H   0  0  0  0  0  0
  -23.3774  -35.9633   23.3329 H   0  0  0  0  0  0
  -24.3596  -36.8887   22.2059 H   0  0  0  0  0  0
  -23.7220  -37.6535   23.6618 H   0  0  0  0  0  0
  -26.0143  -31.6142   20.5840 H   0  0  0  0  0  0
  -26.8129  -30.9199   21.9705 H   0  0  0  0  0  0
  -28.0982  -29.1621   21.1739 H   0  0  0  0  0  0
  -26.1225  -25.9866   19.0290 H   0  0  0  0  0  0
  -24.0007  -27.2742   19.0514 H   0  0  0  0  0  0
  -23.7189  -30.5967   19.4141 H   0  0  0  0  0  0
  -22.7332  -29.2351   19.8734 H   0  0  0  0  0  0
  -25.1284  -36.2065   25.0866 H   0  0  0  0  0  0
  -20.9845  -28.3193   24.1463 H   0  0  0  0  0  0
  -20.5605  -26.2270   23.3604 H   0  0  0  0  0  0
  -21.6640  -26.7450   22.1245 H   0  0  0  0  0  0
  -19.6943  -25.6300   21.1216 H   0  0  0  0  0  0
  -19.6698  -27.3186   20.6705 H   0  0  0  0  0  0
  -17.4185  -26.6555   21.4006 H   0  0  0  0  0  0
  -18.0359  -26.0053   22.9016 H   0  0  0  0  0  0
  -19.7913  -30.7169   24.2348 H   0  0  0  0  0  0
  -17.5029  -31.6263   24.5138 H   0  0  0  0  0  0
  -15.5334  -30.3038   23.7631 H   0  0  0  0  0  0
  -15.8601  -28.0838   22.7083 H   0  0  0  0  0  0
  -24.5872  -30.7076   25.7827 H   0  0  0  0  0  0
  -24.9032  -32.2809   26.5082 H   0  0  0  0  0  0
  -25.8112  -30.8718   27.0223 H   0  0  0  0  0  0
  -26.2806  -29.6833   24.1072 H   0  0  0  0  0  0
  -27.4187  -29.7254   25.4360 H   0  0  0  0  0  0
  -27.8577  -30.4483   23.9055 H   0  0  0  0  0  0
  -27.2742  -33.3539   26.2132 H   0  0  0  0  0  0
  -28.3779  -32.6879   25.0172 H   0  0  0  0  0  0
  -28.0859  -31.8353   26.5250 H   0  0  0  0  0  0
  -28.2653  -38.0087   24.7528 H   0  0  0  0  0  0
  -28.1054  -36.2632   24.6301 H   0  0  0  0  0  0
  -27.2318  -37.1476   25.8876 H   0  0  0  0  0  0
  -20.9295  -29.8752   21.7000 H   0  0  0  0  0  0
  -26.0205  -38.2948   24.1373 H   0  0  0  0  0  0
  -25.9763  -18.1076   19.8661 H   0  0  0  0  0  0
  -26.9258  -20.9051   23.7230 H   0  0  0  0  0  0
  -28.2708  -21.9138   24.3313 H   0  0  0  0  0  0
  -27.4119  -23.7872   23.1432 H   0  0  0  0  0  0
  -26.1891  -22.7642   22.2991 H   0  0  0  0  0  0
  -29.6060  -21.2861   22.6837 H   0  0  0  0  0  0
  -27.7047  -22.2509   20.5931 H   0  0  0  0  0  0
  -28.7349  -15.9101   18.5578 H   0  0  0  0  0  0
  -28.0076  -17.2291   17.7204 H   0  0  0  0  0  0
  -26.9826  -16.1321   18.6049 H   0  0  0  0  0  0
  -31.1812  -19.1632   22.5763 H   0  0  0  0  0  0
  -31.0839  -20.5497   21.4577 H   0  0  0  0  0  0
  -31.7038  -19.0832   20.8845 H   0  0  0  0  0  0
  -24.4281  -20.1664   22.7394 H   0  0  0  0  0  0
  -25.4967  -18.7862   22.9093 H   0  0  0  0  0  0
  -24.3959  -18.8748   21.5253 H   0  0  0  0  0  0
  -31.3459  -17.0561   20.8230 H   0  0  0  0  0  0
  -30.7456  -16.8069   19.2020 H   0  0  0  0  0  0
  -29.2406  -26.1223   21.8570 H   0  0  0  0  0  0
  -27.5747  -25.6192   21.6442 H   0  0  0  0  0  0
  -29.9368  -24.6924   19.9322 H   0  0  0  0  0  0
  -28.3100  -24.1672   19.6839 H   0  0  0  0  0  0
  -29.0524  -15.3905   20.9654 H   0  0  0  0  0  0
  1 25  1  0  0  0
  1 30  2  0  0  0
  1 87  1  0  0  0
  2  3  1  0  0  0
  2 25  1  0  0  0
  2 90  1  0  0  0
  2 91  1  0  0  0
  3  4  1  0  0  0
  3 92  1  0  0  0
  3 93  1  0  0  0
  4  5  1  0  0  0
  4 94  1  0  0  0
  4 95  1  0  0  0
  5  6  1  0  0  0
  5 26  1  0  0  0
  5 96  1  0  0  0
  6 25  1  0  0  0
  6 97  1  0  0  0
  6 98  1  0  0  0
  7  8  2  0  0  0
  7 26  1  0  0  0
  7 29  1  0  0  0
  8  9  1  0  0  0
  8 22  1  0  0  0
  9 10  1  0  0  0
  9 27  2  0  0  0
 10 11  2  0  0  0
 10 15  1  0  0  0
 11 12  1  0  0  0
 11 99  1  0  0  0
 12 13  2  0  0  0
 12100  1  0  0  0
 13 14  1  0  0  0
 13 31  1  0  0  0
 14 15  2  0  0  0
 14101  1  0  0  0
 15102  1  0  0  0
 16 17  2  0  0  0
 16 21  1  0  0  0
 16 31  1  0  0  0
 17 18  1  0  0  0
 17103  1  0  0  0
 18 19  2  0  0  0
 18104  1  0  0  0
 19 20  1  0  0  0
 19 24  1  0  0  0
 20 21  2  0  0  0
 20105  1  0  0  0
 21 23  1  0  0  0
 22 28  1  0  0  0
 22 32  2  0  0  0
 26 27  1  0  0  0
 28106  1  0  0  0
 28107  1  0  0  0
 29108  1  0  0  0
 29109  1  0  0  0
 33 34  1  0  0  0
 33 66  1  0  0  0
 33 70  2  0  0  0
 34 36  1  0  0  0
 34 59  1  0  0  0
 34110  1  0  0  0
 35 44  2  0  0  0
 35 45  1  0  0  0
 35 68  1  0  0  0
 36 56  1  0  0  0
 36111  1  0  0  0
 37 39  1  0  0  0
 37 47  1  0  0  0
 37 66  1  0  0  0
 37112  1  0  0  0
 38 43  2  0  0  0
 38 46  1  0  0  0
 38 47  1  0  0  0
 39 64  1  0  0  0
 39 67  2  0  0  0
 40 52  1  0  0  0
 40 53  2  0  0  0
 40 58  1  0  0  0
 41113  1  0  0  0
 41114  1  0  0  0
 41115  1  0  0  0
 41 48  1  0  0  0
 42 43  1  0  0  0
 42 66  1  0  0  0
 42116  1  0  0  0
 42117  1  0  0  0
 43 44  1  0  0  0
 44118  1  0  0  0
 45 46  2  0  0  0
 45119  1  0  0  0
 46120  1  0  0  0
 47121  1  0  0  0
 47122  1  0  0  0
 48 56  1  0  0  0
 48 65  1  0  0  0
 48123  1  0  0  0
 49 50  1  0  0  0
 49 53  1  0  0  0
 49 64  1  0  0  0
 49124  1  0  0  0
 50 51  1  0  0  0
 50125  1  0  0  0
 50126  1  0  0  0
 51 52  1  0  0  0
 51127  1  0  0  0
 51128  1  0  0  0
 52129  1  0  0  0
 52130  1  0  0  0
 53 54  1  0  0  0
 54 55  2  0  0  0
 54131  1  0  0  0
 55 57  1  0  0  0
 55132  1  0  0  0
 56 69  2  0  0  0
 57 58  2  0  0  0
 57133  1  0  0  0
 58134  1  0  0  0
 59 60  1  0  0  0
 59 61  1  0  0  0
 59 62  1  0  0  0
 60135  1  0  0  0
 60136  1  0  0  0
 60137  1  0  0  0
 61138  1  0  0  0
 61139  1  0  0  0
 61140  1  0  0  0
 62141  1  0  0  0
 62142  1  0  0  0
 62143  1  0  0  0
 63 65  1  0  0  0
 63144  1  0  0  0
 63145  1  0  0  0
 63146  1  0  0  0
 64147  1  0  0  0
 65148  1  0  0  0
 68 85  1  0  0  0
 71 73  2  0  0  0
 71 76  1  0  0  0
 71149  1  0  0  0
 72 74  1  0  0  0
 72 76  2  0  0  0
 72 79  1  0  0  0
 73 75  1  0  0  0
 73 81  1  0  0  0
 74 75  2  0  0  0
 74 82  1  0  0  0
 75 84  1  0  0  0
 76 88  1  0  0  0
 77 78  1  0  0  0
 77 79  1  0  0  0
 77150  1  0  0  0
 77151  1  0  0  0
 78 80  1  0  0  0
 78152  1  0  0  0
 78153  1  0  0  0
 79 80  1  0  0  0
 79154  1  0  0  0
 80 89  1  0  0  0
 80155  1  0  0  0
 81156  1  0  0  0
 81157  1  0  0  0
 81158  1  0  0  0
 82159  1  0  0  0
 82160  1  0  0  0
 82161  1  0  0  0
 83 88  1  0  0  0
 83162  1  0  0  0
 83163  1  0  0  0
 83164  1  0  0  0
 84 87  1  0  0  0
 84165  1  0  0  0
 84166  1  0  0  0
 85 86  1  0  0  0
 85167  1  0  0  0
 85168  1  0  0  0
 86 89  1  0  0  0
 86169  1  0  0  0
 86170  1  0  0  0
 87171  1  0  0  0
M  ISO  4   1 100  68 101  85 101  87 100
M  END
> <chiral flag>
0

> <version>
0

> <s_m_source_file>
/data/baiqing/PycharmProjects/Reinvent-master-3.2/result/LINK_invent/BTK/process_docking_weight1_custom_sum_contain_oxygen_bond_distance_aromatic_linkinvent_7_9_3/rearranged_h_0154.sdf

> <i_m_source_file_index>
70

> <r_mmod_Potential_Energy-OPLS-2005>
35.7193908691406

> <r_mmod_Stretch_Energy-OPLS-2005>
36.5817527770996

> <r_mmod_Bend_Energy-OPLS-2005>
106.78678894043

> <r_mmod_Torsional_Energy-OPLS-2005>
331.122406005859

> <r_mmod_Improper_Torsional_Energy-OPLS-2005>
8.17696666717529

> <r_mmod_Van_der_Waal_Energy-OPLS-2005>
165.448211669922

> <r_mmod_Electrostatic_Energy-OPLS-2005>
-424.779235839844

> <r_mmod_Solvation_Energy-OPLS-2005>
-202.403427124023

> <b_mmod_Minimization_Converged-OPLS-2005>
0

> <r_mmod_RMS_Derivative-OPLS-2005>
7.42937564849854

$$$$
71
                    3D
 Structure written by MMmdl.
164173  0  0  1  0            999 V2000
  -30.5139  -14.9102   20.4304 C   0  0  0  0  0  0
  -30.4521  -12.5613   19.4916 C   0  0  0  0  0  0
  -29.5244  -12.5319   18.2531 C   0  0  0  0  0  0
  -28.0554  -12.3212   18.6694 C   0  0  0  0  0  0
  -27.6386  -13.2393   19.8477 C   0  0  2  0  0  0
  -28.6809  -13.2187   20.9862 C   0  0  0  0  0  0
  -25.2505  -13.8208   20.5695 C   0  0  0  0  0  0
  -24.1808  -13.0446   20.9223 C   0  0  0  0  0  0
  -24.6407  -11.6924   20.8758 C   0  0  0  0  0  0
  -23.9085  -10.4300   21.0416 C   0  0  0  0  0  0
  -24.3632   -9.4211   21.9193 C   0  0  0  0  0  0
  -23.6302   -8.2247   22.0758 C   0  0  0  0  0  0
  -22.4283   -8.0288   21.3544 C   0  0  0  0  0  0
  -21.9923   -9.0268   20.4648 C   0  0  0  0  0  0
  -22.7257  -10.2145   20.3063 C   0  0  0  0  0  0
  -21.6851   -6.0748   22.5282 C   0  0  0  0  0  0
  -21.4013   -6.5649   23.8217 C   0  0  0  0  0  0
  -21.3660   -5.6795   24.9177 C   0  0  0  0  0  0
  -21.6040   -4.3059   24.7222 C   0  0  0  0  0  0
  -21.8820   -3.8157   23.4342 C   0  0  0  0  0  0
  -21.9192   -4.6975   22.3401 C   0  0  0  0  0  0
  -22.7826  -13.5225   21.1881 C   0  0  0  0  0  0
  -22.1661   -4.2166   21.0976 F   0  0  0  0  0  0
  -21.5630   -3.4538   25.7732 F   0  0  0  0  0  0
  -29.9660  -13.6322   20.4033 N   0  0  0  0  0  0
  -26.2929  -12.9417   20.3263 N   0  0  0  0  0  0
  -25.9339  -11.6557   20.5750 N   0  0  0  0  0  0
  -22.0464  -12.8214   22.0429 N   0  0  0  0  0  0
  -25.4190  -15.1932   20.4099 N   0  0  0  0  0  0
  -31.7025  -15.0395   20.1150 O   0  0  0  0  0  0
  -21.6639   -6.8890   21.4242 O   0  0  0  0  0  0
  -22.3511  -14.5529   20.6725 O   0  0  0  0  0  0
  -24.6410  -31.8446   23.1888 C   0  0  0  0  0  0
  -25.9189  -32.4702   23.8276 C   0  0  1  0  0  0
  -27.2201  -27.1565   20.1536 C   0  0  0  0  0  0
  -25.5947  -33.8504   24.2201 N   0  0  0  0  0  0
  -23.4441  -30.4637   21.5338 C   0  0  2  0  0  0
  -24.8933  -28.8910   20.1129 C   0  0  0  0  0  0
  -22.7568  -29.4540   22.4873 C   0  0  0  0  0  0
  -18.0309  -28.1374   22.8463 C   0  0  0  0  0  0
  -24.1498  -36.7249   23.2647 C   0  0  0  0  0  0
  -25.9981  -30.7258   21.3829 C   0  0  0  0  0  0
  -26.0702  -29.3373   20.7281 C   0  0  0  0  0  0
  -27.2364  -28.4870   20.7288 C   0  0  0  0  0  0
  -26.0195  -26.8051   19.5003 C   0  0  0  0  0  0
  -24.8798  -27.6367   19.4841 C   0  0  0  0  0  0
  -23.6683  -29.7896   20.1539 C   0  0  0  0  0  0
  -25.4122  -36.3030   24.0329 C   0  0  1  0  0  0
  -20.5921  -28.3688   23.1241 C   0  0  2  0  0  0
  -20.6794  -26.9397   22.5395 C   0  0  0  0  0  0
  -19.5771  -26.6357   21.5199 C   0  0  0  0  0  0
  -18.1948  -26.7916   22.1604 C   0  0  0  0  0  0
  -19.1566  -28.8849   23.2848 C   0  0  0  0  0  0
  -18.9483  -30.1451   23.8856 C   0  0  0  0  0  0
  -17.6481  -30.6571   24.0550 C   0  0  0  0  0  0
  -25.9060  -34.9413   23.5071 C   0  0  0  0  0  0
  -16.5372  -29.9057   23.6334 C   0  0  0  0  0  0
  -16.7293  -28.6485   23.0342 C   0  0  0  0  0  0
  -26.4520  -31.6561   25.0706 C   0  0  0  0  0  0
  -25.3714  -31.3739   26.1406 C   0  0  0  0  0  0
  -27.0394  -30.2975   24.6250 C   0  0  0  0  0  0
  -27.6064  -32.4313   25.7477 C   0  0  0  0  0  0
  -27.5583  -37.1775   24.8471 C   0  0  0  0  0  0
  -21.4260  -29.3028   22.3623 N   0  0  0  0  0  0
  -26.4287  -37.3743   23.9420 N   0  0  0  0  0  0
  -24.7145  -31.0327   22.0904 N   0  0  0  0  0  0
  -23.4225  -28.8094   23.3015 O   0  0  0  0  0  0
  -28.2859  -26.1929   20.1710 O   0  0  0  0  0  0
  -26.5643  -34.8911   22.4645 O   0  0  0  0  0  0
  -23.5533  -32.1306   23.7120 O   0  0  0  0  0  0
  -28.5842  -19.6546   21.5502 C   0  0  0  0  0  0
  -30.0420  -18.4266   19.5290 C   0  0  0  0  0  0
  -28.8481  -18.2377   21.5840 C   0  0  0  0  0  0
  -29.8125  -19.8944   19.5447 C   0  0  0  0  0  0
  -29.5919  -17.5330   20.5837 C   0  0  0  0  0  0
  -29.0262  -20.5774   20.5568 C   0  0  0  0  0  0
  -30.2337  -17.8929   16.9321 C   0  0  0  0  0  0
  -30.2004  -16.5720   17.6348 C   0  0  0  0  0  0
  -30.7571  -17.7905   18.3555 C   0  0  0  0  0  0
  -28.2806  -17.4528   22.7560 C   0  0  0  0  0  0
  -31.9026  -21.1401   18.8173 C   0  0  0  0  0  0
  -30.4582  -20.7641   18.4685 C   0  0  0  0  0  0
  -28.0307  -24.7067   20.5402 C   0  0  0  0  0  0
  -28.8198  -23.3109   20.0297 C   0  0  0  0  0  0
  -29.6439  -15.9999   20.6710 N   0  0  0  0  0  0
  -28.6081  -21.9739   20.7584 O   0  0  0  0  0  0
  -31.4831  -12.7350   19.1795 H   0  0  0  0  0  0
  -30.4530  -11.5964   20.0008 H   0  0  0  0  0  0
  -29.8358  -11.7439   17.5662 H   0  0  0  0  0  0
  -29.6174  -13.4697   17.7033 H   0  0  0  0  0  0
  -27.9445  -11.2764   18.9619 H   0  0  0  0  0  0
  -27.3924  -12.4703   17.8168 H   0  0  0  0  0  0
  -27.6158  -14.2507   19.4409 H   0  0  0  0  0  0
  -28.7566  -12.2253   21.4310 H   0  0  0  0  0  0
  -28.3834  -13.8902   21.7932 H   0  0  0  0  0  0
  -25.2778   -9.5684   22.4770 H   0  0  0  0  0  0
  -24.0013   -7.4635   22.7472 H   0  0  0  0  0  0
  -21.0859   -8.8792   19.8948 H   0  0  0  0  0  0
  -22.3723  -10.9689   19.6175 H   0  0  0  0  0  0
  -21.2004   -7.6156   23.9727 H   0  0  0  0  0  0
  -21.1478   -6.0523   25.9080 H   0  0  0  0  0  0
  -22.0596   -2.7619   23.2833 H   0  0  0  0  0  0
  -22.4075  -11.9873   22.4815 H   0  0  0  0  0  0
  -21.1084  -13.1246   22.2635 H   0  0  0  0  0  0
  -24.6423  -15.8385   20.5034 H   0  0  0  0  0  0
  -26.2508  -15.6301   20.0349 H   0  0  0  0  0  0
  -26.7254  -32.5309   23.0997 H   0  0  0  0  0  0
  -25.0121  -33.9620   25.0372 H   0  0  0  0  0  0
  -22.7463  -31.2886   21.3799 H   0  0  0  0  0  0
  -23.3768  -35.9569   23.3277 H   0  0  0  0  0  0
  -24.3592  -36.8892   22.2068 H   0  0  0  0  0  0
  -23.7246  -37.6439   23.6686 H   0  0  0  0  0  0
  -26.1517  -31.4806   20.6101 H   0  0  0  0  0  0
  -26.8698  -30.7748   22.0236 H   0  0  0  0  0  0
  -28.1369  -28.8282   21.2199 H   0  0  0  0  0  0
  -25.9459  -25.8493   19.0026 H   0  0  0  0  0  0
  -23.9832  -27.2890   18.9891 H   0  0  0  0  0  0
  -23.8026  -30.5625   19.3963 H   0  0  0  0  0  0
  -22.7840  -29.2284   19.8460 H   0  0  0  0  0  0
  -25.1313  -36.1851   25.0822 H   0  0  0  0  0  0
  -21.0013  -28.3247   24.1362 H   0  0  0  0  0  0
  -20.5667  -26.2298   23.3609 H   0  0  0  0  0  0
  -21.6664  -26.7385   22.1208 H   0  0  0  0  0  0
  -19.6942  -25.6263   21.1232 H   0  0  0  0  0  0
  -19.6715  -27.3161   20.6732 H   0  0  0  0  0  0
  -17.4229  -26.6651   21.4002 H   0  0  0  0  0  0
  -18.0346  -26.0066   22.9006 H   0  0  0  0  0  0
  -19.7965  -30.7280   24.2193 H   0  0  0  0  0  0
  -17.5037  -31.6251   24.5147 H   0  0  0  0  0  0
  -15.5369  -30.2945   23.7688 H   0  0  0  0  0  0
  -15.8698  -28.0799   22.7059 H   0  0  0  0  0  0
  -24.5915  -30.7060   25.7735 H   0  0  0  0  0  0
  -24.8876  -32.2918   26.4758 H   0  0  0  0  0  0
  -25.8000  -30.8975   27.0232 H   0  0  0  0  0  0
  -26.3016  -29.6680   24.1263 H   0  0  0  0  0  0
  -27.4069  -29.7274   25.4792 H   0  0  0  0  0  0
  -27.8886  -30.4253   23.9532 H   0  0  0  0  0  0
  -27.2688  -33.3648   26.1982 H   0  0  0  0  0  0
  -28.3901  -32.6788   25.0310 H   0  0  0  0  0  0
  -28.0695  -31.8477   26.5441 H   0  0  0  0  0  0
  -28.2577  -38.0093   24.7522 H   0  0  0  0  0  0
  -28.1095  -36.2616   24.6274 H   0  0  0  0  0  0
  -27.2304  -37.1403   25.8876 H   0  0  0  0  0  0
  -20.9460  -29.8749   21.6815 H   0  0  0  0  0  0
  -26.0147  -38.2808   24.1414 H   0  0  0  0  0  0
  -27.9925  -20.0697   22.3542 H   0  0  0  0  0  0
  -29.2732  -18.3768   16.7650 H   0  0  0  0  0  0
  -30.9617  -18.0080   16.1317 H   0  0  0  0  0  0
  -30.9079  -15.8170   17.2983 H   0  0  0  0  0  0
  -29.2176  -16.1987   17.9177 H   0  0  0  0  0  0
  -31.8349  -17.8237   18.5050 H   0  0  0  0  0  0
  -27.8365  -18.1088   23.5057 H   0  0  0  0  0  0
  -29.0681  -16.8799   23.2476 H   0  0  0  0  0  0
  -27.5073  -16.7625   22.4186 H   0  0  0  0  0  0
  -32.3334  -21.7776   18.0444 H   0  0  0  0  0  0
  -32.5323  -20.2541   18.9039 H   0  0  0  0  0  0
  -31.9542  -21.6819   19.7625 H   0  0  0  0  0  0
  -29.8794  -21.6663   18.3176 H   0  0  0  0  0  0
  -30.4322  -20.2970   17.4906 H   0  0  0  0  0  0
  -28.1556  -24.7099   21.6232 H   0  0  0  0  0  0
  -26.9692  -24.5007   20.4134 H   0  0  0  0  0  0
  -29.8922  -23.5068   20.0373 H   0  0  0  0  0  0
  -28.5396  -23.1737   18.9861 H   0  0  0  0  0  0
  -28.7799  -15.6320   21.0363 H   0  0  0  0  0  0
  1 25  1  0  0  0
  1 30  2  0  0  0
  1 85  1  0  0  0
  2  3  1  0  0  0
  2 25  1  0  0  0
  2 87  1  0  0  0
  2 88  1  0  0  0
  3  4  1  0  0  0
  3 89  1  0  0  0
  3 90  1  0  0  0
  4  5  1  0  0  0
  4 91  1  0  0  0
  4 92  1  0  0  0
  5  6  1  0  0  0
  5 26  1  0  0  0
  5 93  1  0  0  0
  6 25  1  0  0  0
  6 94  1  0  0  0
  6 95  1  0  0  0
  7  8  2  0  0  0
  7 26  1  0  0  0
  7 29  1  0  0  0
  8  9  1  0  0  0
  8 22  1  0  0  0
  9 10  1  0  0  0
  9 27  2  0  0  0
 10 11  2  0  0  0
 10 15  1  0  0  0
 11 12  1  0  0  0
 11 96  1  0  0  0
 12 13  2  0  0  0
 12 97  1  0  0  0
 13 14  1  0  0  0
 13 31  1  0  0  0
 14 15  2  0  0  0
 14 98  1  0  0  0
 15 99  1  0  0  0
 16 17  2  0  0  0
 16 21  1  0  0  0
 16 31  1  0  0  0
 17 18  1  0  0  0
 17100  1  0  0  0
 18 19  2  0  0  0
 18101  1  0  0  0
 19 20  1  0  0  0
 19 24  1  0  0  0
 20 21  2  0  0  0
 20102  1  0  0  0
 21 23  1  0  0  0
 22 28  1  0  0  0
 22 32  2  0  0  0
 26 27  1  0  0  0
 28103  1  0  0  0
 28104  1  0  0  0
 29105  1  0  0  0
 29106  1  0  0  0
 33 34  1  0  0  0
 33 66  1  0  0  0
 33 70  2  0  0  0
 34 36  1  0  0  0
 34 59  1  0  0  0
 34107  1  0  0  0
 35 44  2  0  0  0
 35 45  1  0  0  0
 35 68  1  0  0  0
 36 56  1  0  0  0
 36108  1  0  0  0
 37 39  1  0  0  0
 37 47  1  0  0  0
 37 66  1  0  0  0
 37109  1  0  0  0
 38 43  2  0  0  0
 38 46  1  0  0  0
 38 47  1  0  0  0
 39 64  1  0  0  0
 39 67  2  0  0  0
 40 52  1  0  0  0
 40 53  2  0  0  0
 40 58  1  0  0  0
 41110  1  0  0  0
 41111  1  0  0  0
 41112  1  0  0  0
 41 48  1  0  0  0
 42 43  1  0  0  0
 42 66  1  0  0  0
 42113  1  0  0  0
 42114  1  0  0  0
 43 44  1  0  0  0
 44115  1  0  0  0
 45 46  2  0  0  0
 45116  1  0  0  0
 46117  1  0  0  0
 47118  1  0  0  0
 47119  1  0  0  0
 48 56  1  0  0  0
 48 65  1  0  0  0
 48120  1  0  0  0
 49 50  1  0  0  0
 49 53  1  0  0  0
 49 64  1  0  0  0
 49121  1  0  0  0
 50 51  1  0  0  0
 50122  1  0  0  0
 50123  1  0  0  0
 51 52  1  0  0  0
 51124  1  0  0  0
 51125  1  0  0  0
 52126  1  0  0  0
 52127  1  0  0  0
 53 54  1  0  0  0
 54 55  2  0  0  0
 54128  1  0  0  0
 55 57  1  0  0  0
 55129  1  0  0  0
 56 69  2  0  0  0
 57 58  2  0  0  0
 57130  1  0  0  0
 58131  1  0  0  0
 59 60  1  0  0  0
 59 61  1  0  0  0
 59 62  1  0  0  0
 60132  1  0  0  0
 60133  1  0  0  0
 60134  1  0  0  0
 61135  1  0  0  0
 61136  1  0  0  0
 61137  1  0  0  0
 62138  1  0  0  0
 62139  1  0  0  0
 62140  1  0  0  0
 63 65  1  0  0  0
 63141  1  0  0  0
 63142  1  0  0  0
 63143  1  0  0  0
 64144  1  0  0  0
 65145  1  0  0  0
 68 83  1  0  0  0
 71 73  2  0  0  0
 71 76  1  0  0  0
 71146  1  0  0  0
 72 74  1  0  0  0
 72 75  2  0  0  0
 72 79  1  0  0  0
 73 75  1  0  0  0
 73 80  1  0  0  0
 74 76  2  0  0  0
 74 82  1  0  0  0
 75 85  1  0  0  0
 76 86  1  0  0  0
 77 78  1  0  0  0
 77 79  1  0  0  0
 77147  1  0  0  0
 77148  1  0  0  0
 78 79  1  0  0  0
 78149  1  0  0  0
 78150  1  0  0  0
 79151  1  0  0  0
 80152  1  0  0  0
 80153  1  0  0  0
 80154  1  0  0  0
 81 82  1  0  0  0
 81155  1  0  0  0
 81156  1  0  0  0
 81157  1  0  0  0
 82158  1  0  0  0
 82159  1  0  0  0
 83 84  1  0  0  0
 83160  1  0  0  0
 83161  1  0  0  0
 84 86  1  0  0  0
 84162  1  0  0  0
 84163  1  0  0  0
 85164  1  0  0  0
M  ISO  4   1 100  68 101  83 101  85 100
M  END
> <chiral flag>
0

> <version>
0

> <s_m_source_file>
/data/baiqing/PycharmProjects/Reinvent-master-3.2/result/LINK_invent/BTK/process_docking_weight1_custom_sum_contain_oxygen_bond_distance_aromatic_linkinvent_7_9_3/rearranged_h_0154.sdf

> <i_m_source_file_index>
71

> <r_mmod_Potential_Energy-OPLS-2005>
501.445526123047

> <r_mmod_Stretch_Energy-OPLS-2005>
228.10173034668

> <r_mmod_Bend_Energy-OPLS-2005>
307.868469238281

> <r_mmod_Torsional_Energy-OPLS-2005>
268.35791015625

> <r_mmod_Improper_Torsional_Energy-OPLS-2005>
4.34997606277466

> <r_mmod_Van_der_Waal_Energy-OPLS-2005>
129.386779785156

> <r_mmod_Electrostatic_Energy-OPLS-2005>
-398.811553955078

> <r_mmod_Solvation_Energy-OPLS-2005>
-206.44889831543

> <b_mmod_Minimization_Converged-OPLS-2005>
0

> <r_mmod_RMS_Derivative-OPLS-2005>
1.30825138092041

$$$$
72
                    3D
 Structure written by MMmdl.
168176  0  0  1  0            999 V2000
  -30.6785  -14.4916   20.5358 C   0  0  0  0  0  0
  -30.4109  -12.3089   19.4101 C   0  0  0  0  0  0
  -29.4849  -12.5074   18.1940 C   0  0  0  0  0  0
  -28.0010  -12.3970   18.5972 C   0  0  0  0  0  0
  -27.6541  -13.2150   19.8711 C   0  0  2  0  0  0
  -28.6975  -12.9945   20.9857 C   0  0  0  0  0  0
  -25.2545  -13.8159   20.5669 C   0  0  0  0  0  0
  -24.1827  -13.0445   20.9175 C   0  0  0  0  0  0
  -24.6387  -11.6900   20.8740 C   0  0  0  0  0  0
  -23.9066  -10.4287   21.0419 C   0  0  0  0  0  0
  -24.3621   -9.4201   21.9195 C   0  0  0  0  0  0
  -23.6298   -8.2236   22.0753 C   0  0  0  0  0  0
  -22.4283   -8.0276   21.3543 C   0  0  0  0  0  0
  -21.9920   -9.0248   20.4641 C   0  0  0  0  0  0
  -22.7243  -10.2131   20.3056 C   0  0  0  0  0  0
  -21.6851   -6.0738   22.5279 C   0  0  0  0  0  0
  -21.4006   -6.5636   23.8205 C   0  0  0  0  0  0
  -21.3652   -5.6795   24.9172 C   0  0  0  0  0  0
  -21.6047   -4.3058   24.7228 C   0  0  0  0  0  0
  -21.8823   -3.8148   23.4342 C   0  0  0  0  0  0
  -21.9186   -4.6966   22.3404 C   0  0  0  0  0  0
  -22.7847  -13.5220   21.1845 C   0  0  0  0  0  0
  -22.1656   -4.2156   21.0980 F   0  0  0  0  0  0
  -21.5632   -3.4540   25.7731 F   0  0  0  0  0  0
  -30.0161  -13.3064   20.4179 N   0  0  0  0  0  0
  -26.2996  -12.9348   20.3343 N   0  0  0  0  0  0
  -25.9323  -11.6504   20.5754 N   0  0  0  0  0  0
  -22.0477  -12.8223   22.0377 N   0  0  0  0  0  0
  -25.4310  -15.1899   20.4092 N   0  0  0  0  0  0
  -31.8398  -14.6352   20.1423 O   0  0  0  0  0  0
  -21.6634   -6.8893   21.4238 O   0  0  0  0  0  0
  -22.3531  -14.5541   20.6695 O   0  0  0  0  0  0
  -24.6235  -31.8670   23.2078 C   0  0  0  0  0  0
  -25.9108  -32.4815   23.8383 C   0  0  1  0  0  0
  -27.2143  -27.3770   20.0695 C   0  0  0  0  0  0
  -25.5946  -33.8609   24.2290 N   0  0  0  0  0  0
  -23.4106  -30.4982   21.5579 C   0  0  2  0  0  0
  -24.8421  -28.9601   20.1215 C   0  0  0  0  0  0
  -22.7449  -29.4709   22.5050 C   0  0  0  0  0  0
  -18.0294  -28.1385   22.8497 C   0  0  0  0  0  0
  -24.1431  -36.7221   23.2640 C   0  0  0  0  0  0
  -25.9486  -30.8115   21.3742 C   0  0  0  0  0  0
  -26.0166  -29.4434   20.7134 C   0  0  0  0  0  0
  -27.1981  -28.6558   20.6969 C   0  0  0  0  0  0
  -26.0048  -26.9288   19.4806 C   0  0  0  0  0  0
  -24.8300  -27.6968   19.5179 C   0  0  0  0  0  0
  -23.6123  -29.8366   20.1740 C   0  0  0  0  0  0
  -25.4084  -36.3090   24.0307 C   0  0  1  0  0  0
  -20.5875  -28.3689   23.1305 C   0  0  2  0  0  0
  -20.6795  -26.9419   22.5446 C   0  0  0  0  0  0
  -19.5736  -26.6385   21.5287 C   0  0  0  0  0  0
  -18.1915  -26.7910   22.1694 C   0  0  0  0  0  0
  -19.1554  -28.8863   23.2851 C   0  0  0  0  0  0
  -18.9480  -30.1480   23.8786 C   0  0  0  0  0  0
  -17.6477  -30.6560   24.0610 C   0  0  0  0  0  0
  -25.9065  -34.9473   23.5126 C   0  0  0  0  0  0
  -16.5356  -29.9065   23.6367 C   0  0  0  0  0  0
  -16.7288  -28.6529   23.0307 C   0  0  0  0  0  0
  -26.4473  -31.6602   25.0734 C   0  0  0  0  0  0
  -25.3711  -31.3712   26.1496 C   0  0  0  0  0  0
  -27.0380  -30.3021   24.6205 C   0  0  0  0  0  0
  -27.6035  -32.4350   25.7482 C   0  0  0  0  0  0
  -27.5539  -37.1753   24.8477 C   0  0  0  0  0  0
  -21.4188  -29.3029   22.3711 N   0  0  0  0  0  0
  -26.4235  -37.3799   23.9448 N   0  0  0  0  0  0
  -24.6820  -31.0740   22.1033 N   0  0  0  0  0  0
  -23.4208  -28.8216   23.3077 O   0  0  0  0  0  0
  -28.3681  -26.5916   20.0442 O   0  0  0  0  0  0
  -26.5616  -34.8925   22.4693 O   0  0  0  0  0  0
  -23.5392  -32.1502   23.7408 O   0  0  0  0  0  0
  -28.4505  -22.5910   21.2123 C   0  0  0  0  0  0
  -28.5400  -21.1755   21.4529 C   0  0  0  0  0  0
  -29.3309  -22.9469   20.2031 C   0  0  0  0  0  0
  -29.5554  -20.7004   20.6691 C   0  0  0  0  0  0
  -27.5571  -23.5059   22.0321 C   0  0  0  0  0  0
  -27.7175  -20.4158   22.4665 C   0  0  0  0  0  0
  -30.3313  -24.3459   18.1995 C   0  0  0  0  0  0
  -31.1657  -16.9867   22.5342 C   0  0  0  0  0  0
  -31.3175  -21.6786   19.1589 C   0  0  0  0  0  0
  -29.4348  -18.0931   20.9580 C   0  0  0  0  0  0
  -28.3131  -25.2905   19.3740 C   0  0  0  0  0  0
  -29.5735  -24.3524   19.5507 C   0  0  1  0  0  0
  -30.4757  -16.9269   21.1573 C   0  0  2  0  0  0
  -30.1041  -21.7816   19.9655 N   0  0  0  0  0  0
  -30.1038  -19.3816   20.6459 N   0  0  0  0  0  0
  -29.9497  -15.5548   20.9597 N   0  0  0  0  0  0
  -31.4567  -12.4023   19.1138 H   0  0  0  0  0  0
  -30.3031  -11.2986   19.8075 H   0  0  0  0  0  0
  -29.7117  -11.7785   17.4162 H   0  0  0  0  0  0
  -29.6682  -13.4881   17.7496 H   0  0  0  0  0  0
  -27.7702  -11.3436   18.7503 H   0  0  0  0  0  0
  -27.3698  -12.7232   17.7689 H   0  0  0  0  0  0
  -27.6948  -14.2657   19.5842 H   0  0  0  0  0  0
  -28.6751  -11.9567   21.3238 H   0  0  0  0  0  0
  -28.4754  -13.5987   21.8670 H   0  0  0  0  0  0
  -25.2782   -9.5661   22.4770 H   0  0  0  0  0  0
  -24.0001   -7.4623   22.7482 H   0  0  0  0  0  0
  -21.0855   -8.8786   19.8951 H   0  0  0  0  0  0
  -22.3731  -10.9676   19.6162 H   0  0  0  0  0  0
  -21.1994   -7.6142   23.9717 H   0  0  0  0  0  0
  -21.1466   -6.0519   25.9080 H   0  0  0  0  0  0
  -22.0606   -2.7607   23.2839 H   0  0  0  0  0  0
  -22.4091  -11.9864   22.4749 H   0  0  0  0  0  0
  -21.1093  -13.1229   22.2586 H   0  0  0  0  0  0
  -24.6698  -15.8514   20.5197 H   0  0  0  0  0  0
  -26.2895  -15.6212   20.0935 H   0  0  0  0  0  0
  -26.7210  -32.5419   23.1158 H   0  0  0  0  0  0
  -25.0289  -33.9777   25.0559 H   0  0  0  0  0  0
  -22.7014  -31.3174   21.4211 H   0  0  0  0  0  0
  -23.3755  -35.9500   23.3383 H   0  0  0  0  0  0
  -24.3506  -36.8812   22.2052 H   0  0  0  0  0  0
  -23.7120  -37.6398   23.6640 H   0  0  0  0  0  0
  -26.0867  -31.5804   20.6122 H   0  0  0  0  0  0
  -26.8305  -30.8453   22.0053 H   0  0  0  0  0  0
  -28.0989  -29.0327   21.1610 H   0  0  0  0  0  0
  -25.9134  -25.9794   18.9812 H   0  0  0  0  0  0
  -23.9192  -27.3033   19.0872 H   0  0  0  0  0  0
  -23.7114  -30.6135   19.4160 H   0  0  0  0  0  0
  -22.7314  -29.2611   19.8834 H   0  0  0  0  0  0
  -25.1257  -36.1990   25.0775 H   0  0  0  0  0  0
  -20.9964  -28.3264   24.1439 H   0  0  0  0  0  0
  -20.5858  -26.2269   23.3647 H   0  0  0  0  0  0
  -21.6618  -26.7511   22.1132 H   0  0  0  0  0  0
  -19.6903  -25.6319   21.1261 H   0  0  0  0  0  0
  -19.6625  -27.3272   20.6873 H   0  0  0  0  0  0
  -17.4214  -26.6714   21.4073 H   0  0  0  0  0  0
  -18.0191  -26.0042   22.9055 H   0  0  0  0  0  0
  -19.7955  -30.7373   24.2009 H   0  0  0  0  0  0
  -17.5030  -31.6221   24.5264 H   0  0  0  0  0  0
  -15.5345  -30.2958   23.7738 H   0  0  0  0  0  0
  -15.8692  -28.0915   22.6898 H   0  0  0  0  0  0
  -24.5930  -30.6968   25.7895 H   0  0  0  0  0  0
  -24.8791  -32.2825   26.4850 H   0  0  0  0  0  0
  -25.8056  -30.9017   27.0338 H   0  0  0  0  0  0
  -26.3045  -29.6703   24.1166 H   0  0  0  0  0  0
  -27.4085  -29.7287   25.4734 H   0  0  0  0  0  0
  -27.8849  -30.4362   23.9483 H   0  0  0  0  0  0
  -27.2710  -33.3734   26.1919 H   0  0  0  0  0  0
  -28.3851  -32.6806   25.0278 H   0  0  0  0  0  0
  -28.0667  -31.8562   26.5481 H   0  0  0  0  0  0
  -28.2589  -38.0038   24.7608 H   0  0  0  0  0  0
  -28.1022  -36.2579   24.6253 H   0  0  0  0  0  0
  -27.2235  -37.1349   25.8874 H   0  0  0  0  0  0
  -20.9373  -29.8797   21.6938 H   0  0  0  0  0  0
  -26.0130  -38.2842   24.1592 H   0  0  0  0  0  0
  -27.4988  -24.5394   21.6978 H   0  0  0  0  0  0
  -27.9543  -23.5510   23.0471 H   0  0  0  0  0  0
  -26.5440  -23.1063   22.0815 H   0  0  0  0  0  0
  -27.2234  -21.0902   23.1669 H   0  0  0  0  0  0
  -28.3661  -19.7677   23.0533 H   0  0  0  0  0  0
  -26.9522  -19.8179   21.9724 H   0  0  0  0  0  0
  -31.4004  -24.2083   18.3444 H   0  0  0  0  0  0
  -30.2354  -25.2946   17.6651 H   0  0  0  0  0  0
  -29.9628  -23.5681   17.5324 H   0  0  0  0  0  0
  -31.6791  -17.9379   22.6794 H   0  0  0  0  0  0
  -31.9150  -16.1967   22.6368 H   0  0  0  0  0  0
  -30.4485  -16.8650   23.3465 H   0  0  0  0  0  0
  -32.0325  -22.4370   19.4801 H   0  0  0  0  0  0
  -31.0924  -21.7867   18.1007 H   0  0  0  0  0  0
  -31.8093  -20.7170   19.2912 H   0  0  0  0  0  0
  -28.7956  -18.1380   21.8337 H   0  0  0  0  0  0
  -28.7714  -17.8427   20.1288 H   0  0  0  0  0  0
  -27.4270  -24.7187   19.6384 H   0  0  0  0  0  0
  -28.1538  -25.5070   18.3147 H   0  0  0  0  0  0
  -30.2281  -24.8976   20.2302 H   0  0  0  0  0  0
  -31.2496  -17.0680   20.4004 H   0  0  0  0  0  0
  -30.9780  -19.2506   20.1485 H   0  0  0  0  0  0
  -28.9767  -15.3855   21.1705 H   0  0  0  0  0  0
  1 25  1  0  0  0
  1 30  2  0  0  0
  1 86  1  0  0  0
  2  3  1  0  0  0
  2 25  1  0  0  0
  2 87  1  0  0  0
  2 88  1  0  0  0
  3  4  1  0  0  0
  3 89  1  0  0  0
  3 90  1  0  0  0
  4  5  1  0  0  0
  4 91  1  0  0  0
  4 92  1  0  0  0
  5  6  1  0  0  0
  5 26  1  0  0  0
  5 93  1  0  0  0
  6 25  1  0  0  0
  6 94  1  0  0  0
  6 95  1  0  0  0
  7  8  2  0  0  0
  7 26  1  0  0  0
  7 29  1  0  0  0
  8  9  1  0  0  0
  8 22  1  0  0  0
  9 10  1  0  0  0
  9 27  2  0  0  0
 10 11  2  0  0  0
 10 15  1  0  0  0
 11 12  1  0  0  0
 11 96  1  0  0  0
 12 13  2  0  0  0
 12 97  1  0  0  0
 13 14  1  0  0  0
 13 31  1  0  0  0
 14 15  2  0  0  0
 14 98  1  0  0  0
 15 99  1  0  0  0
 16 17  2  0  0  0
 16 21  1  0  0  0
 16 31  1  0  0  0
 17 18  1  0  0  0
 17100  1  0  0  0
 18 19  2  0  0  0
 18101  1  0  0  0
 19 20  1  0  0  0
 19 24  1  0  0  0
 20 21  2  0  0  0
 20102  1  0  0  0
 21 23  1  0  0  0
 22 28  1  0  0  0
 22 32  2  0  0  0
 26 27  1  0  0  0
 28103  1  0  0  0
 28104  1  0  0  0
 29105  1  0  0  0
 29106  1  0  0  0
 33 34  1  0  0  0
 33 66  1  0  0  0
 33 70  2  0  0  0
 34 36  1  0  0  0
 34 59  1  0  0  0
 34107  1  0  0  0
 35 44  2  0  0  0
 35 45  1  0  0  0
 35 68  1  0  0  0
 36 56  1  0  0  0
 36108  1  0  0  0
 37 39  1  0  0  0
 37 47  1  0  0  0
 37 66  1  0  0  0
 37109  1  0  0  0
 38 43  2  0  0  0
 38 46  1  0  0  0
 38 47  1  0  0  0
 39 64  1  0  0  0
 39 67  2  0  0  0
 40 52  1  0  0  0
 40 53  2  0  0  0
 40 58  1  0  0  0
 41110  1  0  0  0
 41111  1  0  0  0
 41112  1  0  0  0
 41 48  1  0  0  0
 42 43  1  0  0  0
 42 66  1  0  0  0
 42113  1  0  0  0
 42114  1  0  0  0
 43 44  1  0  0  0
 44115  1  0  0  0
 45 46  2  0  0  0
 45116  1  0  0  0
 46117  1  0  0  0
 47118  1  0  0  0
 47119  1  0  0  0
 48 56  1  0  0  0
 48 65  1  0  0  0
 48120  1  0  0  0
 49 50  1  0  0  0
 49 53  1  0  0  0
 49 64  1  0  0  0
 49121  1  0  0  0
 50 51  1  0  0  0
 50122  1  0  0  0
 50123  1  0  0  0
 51 52  1  0  0  0
 51124  1  0  0  0
 51125  1  0  0  0
 52126  1  0  0  0
 52127  1  0  0  0
 53 54  1  0  0  0
 54 55  2  0  0  0
 54128  1  0  0  0
 55 57  1  0  0  0
 55129  1  0  0  0
 56 69  2  0  0  0
 57 58  2  0  0  0
 57130  1  0  0  0
 58131  1  0  0  0
 59 60  1  0  0  0
 59 61  1  0  0  0
 59 62  1  0  0  0
 60132  1  0  0  0
 60133  1  0  0  0
 60134  1  0  0  0
 61135  1  0  0  0
 61136  1  0  0  0
 61137  1  0  0  0
 62138  1  0  0  0
 62139  1  0  0  0
 62140  1  0  0  0
 63 65  1  0  0  0
 63141  1  0  0  0
 63142  1  0  0  0
 63143  1  0  0  0
 64144  1  0  0  0
 65145  1  0  0  0
 68 81  1  0  0  0
 71 72  1  0  0  0
 71 73  2  0  0  0
 71 75  1  0  0  0
 72 74  2  0  0  0
 72 76  1  0  0  0
 73 82  1  0  0  0
 73 84  1  0  0  0
 74 84  1  0  0  0
 74 85  1  0  0  0
 75146  1  0  0  0
 75147  1  0  0  0
 75148  1  0  0  0
 76149  1  0  0  0
 76150  1  0  0  0
 76151  1  0  0  0
 77152  1  0  0  0
 77153  1  0  0  0
 77154  1  0  0  0
 77 82  1  0  0  0
 78155  1  0  0  0
 78156  1  0  0  0
 78157  1  0  0  0
 78 83  1  0  0  0
 79 84  1  0  0  0
 79158  1  0  0  0
 79159  1  0  0  0
 79160  1  0  0  0
 80 83  1  0  0  0
 80 85  1  0  0  0
 80161  1  0  0  0
 80162  1  0  0  0
 81 82  1  0  0  0
 81163  1  0  0  0
 81164  1  0  0  0
 82165  1  0  0  0
 83 86  1  0  0  0
 83166  1  0  0  0
 85167  1  0  0  0
 86168  1  0  0  0
M  ISO  4   1 100  68 101  81 101  86 100
M  END
> <chiral flag>
0

> <version>
0

> <s_m_source_file>
/data/baiqing/PycharmProjects/Reinvent-master-3.2/result/LINK_invent/BTK/process_docking_weight1_custom_sum_contain_oxygen_bond_distance_aromatic_linkinvent_7_9_3/rearranged_h_0154.sdf

> <i_m_source_file_index>
72

> <r_mmod_Potential_Energy-OPLS-2005>
-98.7631072998047

> <r_mmod_Stretch_Energy-OPLS-2005>
63.2602233886719

> <r_mmod_Bend_Energy-OPLS-2005>
148.431457519531

> <r_mmod_Torsional_Energy-OPLS-2005>
230.877334594727

> <r_mmod_Improper_Torsional_Energy-OPLS-2005>
5.45537233352661

> <r_mmod_Van_der_Waal_Energy-OPLS-2005>
155.183578491211

> <r_mmod_Electrostatic_Energy-OPLS-2005>
-509.437835693359

> <r_mmod_Solvation_Energy-OPLS-2005>
-213.924224853516

> <b_mmod_Minimization_Converged-OPLS-2005>
0

> <r_mmod_RMS_Derivative-OPLS-2005>
6.65423011779785

$$$$
73
                    3D
 Structure written by MMmdl.
172180  0  0  1  0            999 V2000
  -30.6061  -14.6058   20.5301 C   0  0  0  0  0  0
  -30.4455  -12.3784   19.4409 C   0  0  0  0  0  0
  -29.5089  -12.5138   18.2183 C   0  0  0  0  0  0
  -28.0297  -12.3498   18.6274 C   0  0  0  0  0  0
  -27.6561  -13.2065   19.8657 C   0  0  2  0  0  0
  -28.6978  -13.0185   20.9915 C   0  0  0  0  0  0
  -25.2570  -13.8149   20.5663 C   0  0  0  0  0  0
  -24.1828  -13.0434   20.9192 C   0  0  0  0  0  0
  -24.6378  -11.6898   20.8732 C   0  0  0  0  0  0
  -23.9044  -10.4291   21.0410 C   0  0  0  0  0  0
  -24.3601   -9.4205   21.9185 C   0  0  0  0  0  0
  -23.6282   -8.2235   22.0749 C   0  0  0  0  0  0
  -22.4264   -8.0274   21.3542 C   0  0  0  0  0  0
  -21.9895   -9.0249   20.4647 C   0  0  0  0  0  0
  -22.7217  -10.2130   20.3057 C   0  0  0  0  0  0
  -21.6848   -6.0729   22.5281 C   0  0  0  0  0  0
  -21.4011   -6.5633   23.8215 C   0  0  0  0  0  0
  -21.3661   -5.6780   24.9177 C   0  0  0  0  0  0
  -21.6046   -4.3046   24.7221 C   0  0  0  0  0  0
  -21.8821   -3.8139   23.4343 C   0  0  0  0  0  0
  -21.9193   -4.6957   22.3403 C   0  0  0  0  0  0
  -22.7851  -13.5241   21.1859 C   0  0  0  0  0  0
  -22.1662   -4.2147   21.0979 F   0  0  0  0  0  0
  -21.5633   -3.4527   25.7731 F   0  0  0  0  0  0
  -30.0175  -13.3734   20.4411 N   0  0  0  0  0  0
  -26.2984  -12.9312   20.3292 N   0  0  0  0  0  0
  -25.9299  -11.6476   20.5714 N   0  0  0  0  0  0
  -22.0480  -12.8234   22.0413 N   0  0  0  0  0  0
  -25.4296  -15.1868   20.4057 N   0  0  0  0  0  0
  -31.7590  -14.8070   20.1342 O   0  0  0  0  0  0
  -21.6630   -6.8869   21.4241 O   0  0  0  0  0  0
  -22.3537  -14.5548   20.6704 O   0  0  0  0  0  0
  -24.6226  -31.8635   23.2047 C   0  0  0  0  0  0
  -25.9081  -32.4798   23.8366 C   0  0  1  0  0  0
  -27.2203  -27.3487   20.1030 C   0  0  0  0  0  0
  -25.5915  -33.8598   24.2292 N   0  0  0  0  0  0
  -23.4141  -30.4872   21.5484 C   0  0  2  0  0  0
  -24.8597  -28.9519   20.1059 C   0  0  0  0  0  0
  -22.7459  -29.4627   22.4965 C   0  0  0  0  0  0
  -18.0290  -28.1382   22.8499 C   0  0  0  0  0  0
  -24.1488  -36.7294   23.2634 C   0  0  0  0  0  0
  -25.9526  -30.8027   21.3719 C   0  0  0  0  0  0
  -26.0255  -29.4319   20.7140 C   0  0  0  0  0  0
  -27.2077  -28.6399   20.7075 C   0  0  0  0  0  0
  -26.0359  -26.9248   19.4548 C   0  0  0  0  0  0
  -24.8654  -27.7046   19.4664 C   0  0  0  0  0  0
  -23.6253  -29.8258   20.1617 C   0  0  0  0  0  0
  -25.4105  -36.3086   24.0332 C   0  0  1  0  0  0
  -20.5883  -28.3661   23.1317 C   0  0  2  0  0  0
  -20.6770  -26.9390   22.5424 C   0  0  0  0  0  0
  -19.5739  -26.6386   21.5224 C   0  0  0  0  0  0
  -18.1923  -26.7930   22.1639 C   0  0  0  0  0  0
  -19.1542  -28.8844   23.2903 C   0  0  0  0  0  0
  -18.9457  -30.1456   23.8901 C   0  0  0  0  0  0
  -17.6452  -30.6580   24.0573 C   0  0  0  0  0  0
  -25.9040  -34.9457   23.5105 C   0  0  0  0  0  0
  -16.5347  -29.9074   23.6339 C   0  0  0  0  0  0
  -16.7276  -28.6503   23.0346 C   0  0  0  0  0  0
  -26.4476  -31.6602   25.0724 C   0  0  0  0  0  0
  -25.3706  -31.3756   26.1461 C   0  0  0  0  0  0
  -27.0294  -30.3028   24.6143 C   0  0  0  0  0  0
  -27.6063  -32.4310   25.7475 C   0  0  0  0  0  0
  -27.5586  -37.1783   24.8453 C   0  0  0  0  0  0
  -21.4178  -29.3016   22.3706 N   0  0  0  0  0  0
  -26.4280  -37.3784   23.9423 N   0  0  0  0  0  0
  -24.6820  -31.0666   22.0989 N   0  0  0  0  0  0
  -23.4203  -28.8167   23.3028 O   0  0  0  0  0  0
  -28.3470  -26.5226   20.1699 O   0  0  0  0  0  0
  -26.5612  -34.8916   22.4671 O   0  0  0  0  0  0
  -23.5392  -32.1428   23.7383 O   0  0  0  0  0  0
  -28.5866  -17.7500   21.1491 C   0  0  0  0  0  0
  -30.9181  -17.8580   20.5831 C   0  0  0  0  0  0
  -28.5110  -19.1696   21.1999 C   0  0  0  0  0  0
  -29.6641  -19.9840   20.9971 C   0  0  0  0  0  0
  -29.7881  -17.0556   20.8742 C   0  0  0  0  0  0
  -30.8681  -19.2936   20.6344 C   0  0  0  0  0  0
  -27.1544  -19.7874   21.5106 C   0  0  0  0  0  0
  -29.9185  -23.1569   17.6821 C   0  0  0  0  0  0
  -33.1854  -19.4355   19.9668 C   0  0  0  0  0  0
  -30.2295  -22.3425   18.9430 C   0  0  0  0  0  0
  -29.2152  -24.1116   20.5867 C   0  0  0  0  0  0
  -30.8304  -22.0083   22.1774 C   0  0  0  0  0  0
  -28.1958  -25.0880   19.8814 C   0  0  0  0  0  0
  -29.6182  -21.5428   21.3179 C   0  0  1  0  0  0
  -29.2795  -22.5730   20.1459 C   0  0  2  0  0  0
  -29.7602  -15.6001   20.9341 N   0  0  0  0  0  0
  -31.0643  -21.1408   23.3465 N   0  3  0  0  0  0
  -31.9785  -20.0684   20.3741 O   0  0  0  0  0  0
  -31.4847  -12.5220   19.1390 H   0  0  0  0  0  0
  -30.3907  -11.3719   19.8604 H   0  0  0  0  0  0
  -29.7726  -11.7747   17.4606 H   0  0  0  0  0  0
  -29.6529  -13.4898   17.7536 H   0  0  0  0  0  0
  -27.8608  -11.2948   18.8456 H   0  0  0  0  0  0
  -27.3778  -12.5957   17.7879 H   0  0  0  0  0  0
  -27.6859  -14.2469   19.5418 H   0  0  0  0  0  0
  -28.7023  -11.9819   21.3325 H   0  0  0  0  0  0
  -28.4394  -13.6127   21.8694 H   0  0  0  0  0  0
  -25.2756   -9.5679   22.4747 H   0  0  0  0  0  0
  -24.0004   -7.4622   22.7454 H   0  0  0  0  0  0
  -21.0835   -8.8765   19.8950 H   0  0  0  0  0  0
  -22.3687  -10.9664   19.6155 H   0  0  0  0  0  0
  -21.1998   -7.6137   23.9715 H   0  0  0  0  0  0
  -21.1483   -6.0508   25.9076 H   0  0  0  0  0  0
  -22.0600   -2.7600   23.2837 H   0  0  0  0  0  0
  -22.4076  -11.9898   22.4820 H   0  0  0  0  0  0
  -21.1096  -13.1271   22.2611 H   0  0  0  0  0  0
  -24.6557  -15.8354   20.4982 H   0  0  0  0  0  0
  -26.2591  -15.6146   20.0155 H   0  0  0  0  0  0
  -26.7150  -32.5485   23.1120 H   0  0  0  0  0  0
  -25.0072  -33.9756   25.0442 H   0  0  0  0  0  0
  -22.7064  -31.3073   21.4098 H   0  0  0  0  0  0
  -23.3760  -35.9614   23.3263 H   0  0  0  0  0  0
  -24.3602  -36.8944   22.2057 H   0  0  0  0  0  0
  -23.7217  -37.6474   23.6679 H   0  0  0  0  0  0
  -26.0762  -31.5678   20.6044 H   0  0  0  0  0  0
  -26.8366  -30.8540   21.9962 H   0  0  0  0  0  0
  -28.1019  -29.0012   21.1954 H   0  0  0  0  0  0
  -25.9848  -25.9833   18.9302 H   0  0  0  0  0  0
  -23.9766  -27.3404   18.9705 H   0  0  0  0  0  0
  -23.7360  -30.6027   19.4045 H   0  0  0  0  0  0
  -22.7474  -29.2491   19.8651 H   0  0  0  0  0  0
  -25.1275  -36.1934   25.0824 H   0  0  0  0  0  0
  -20.9991  -28.3215   24.1433 H   0  0  0  0  0  0
  -20.5679  -26.2250   23.3604 H   0  0  0  0  0  0
  -21.6634  -26.7426   22.1214 H   0  0  0  0  0  0
  -19.6883  -25.6301   21.1243 H   0  0  0  0  0  0
  -19.6680  -27.3208   20.6762 H   0  0  0  0  0  0
  -17.4196  -26.6703   21.4038 H   0  0  0  0  0  0
  -18.0304  -26.0071   22.9033 H   0  0  0  0  0  0
  -19.7925  -30.7296   24.2252 H   0  0  0  0  0  0
  -17.4995  -31.6260   24.5174 H   0  0  0  0  0  0
  -15.5339  -30.2967   23.7659 H   0  0  0  0  0  0
  -15.8686  -28.0832   22.7023 H   0  0  0  0  0  0
  -24.5854  -30.7137   25.7794 H   0  0  0  0  0  0
  -24.8926  -32.2932   26.4899 H   0  0  0  0  0  0
  -25.8023  -30.8918   27.0232 H   0  0  0  0  0  0
  -26.2851  -29.6795   24.1176 H   0  0  0  0  0  0
  -27.4014  -29.7270   25.4628 H   0  0  0  0  0  0
  -27.8716  -30.4329   23.9341 H   0  0  0  0  0  0
  -27.2724  -33.3628   26.2053 H   0  0  0  0  0  0
  -28.3871  -32.6834   25.0285 H   0  0  0  0  0  0
  -28.0734  -31.8419   26.5379 H   0  0  0  0  0  0
  -28.2564  -38.0121   24.7562 H   0  0  0  0  0  0
  -28.1121  -36.2653   24.6192 H   0  0  0  0  0  0
  -27.2327  -37.1329   25.8860 H   0  0  0  0  0  0
  -20.9331  -29.8739   21.6941 H   0  0  0  0  0  0
  -26.0158  -38.2849   24.1461 H   0  0  0  0  0  0
  -27.6893  -17.1795   21.3506 H   0  0  0  0  0  0
  -31.8399  -17.3500   20.3477 H   0  0  0  0  0  0
  -26.3451  -19.0793   21.3308 H   0  0  0  0  0  0
  -26.9592  -20.6543   20.8789 H   0  0  0  0  0  0
  -27.1009  -20.0977   22.5549 H   0  0  0  0  0  0
  -30.5459  -22.8303   16.8512 H   0  0  0  0  0  0
  -30.1204  -24.2172   17.8309 H   0  0  0  0  0  0
  -28.8789  -23.0397   17.3761 H   0  0  0  0  0  0
  -33.9394  -20.1965   19.7657 H   0  0  0  0  0  0
  -33.0478  -18.8603   19.0504 H   0  0  0  0  0  0
  -33.5781  -18.7851   20.7495 H   0  0  0  0  0  0
  -31.2601  -22.5365   19.2407 H   0  0  0  0  0  0
  -30.1958  -21.2899   18.6610 H   0  0  0  0  0  0
  -28.9602  -24.1564   21.6462 H   0  0  0  0  0  0
  -30.2147  -24.5411   20.5129 H   0  0  0  0  0  0
  -30.6710  -23.0159   22.5582 H   0  0  0  0  0  0
  -31.7419  -22.0757   21.5871 H   0  0  0  0  0  0
  -27.2094  -24.7388   20.1883 H   0  0  0  0  0  0
  -28.2325  -24.9689   18.8005 H   0  0  0  0  0  0
  -28.7866  -21.6677   22.0097 H   0  0  0  0  0  0
  -28.2769  -22.3093   19.8065 H   0  0  0  0  0  0
  -28.8744  -15.2233   21.2323 H   0  0  0  0  0  0
  -30.2804  -21.1590   23.9747 H   0  0  0  0  0  0
  -31.8763  -21.4524   23.8484 H   0  0  0  0  0  0
  -31.2187  -20.1949   23.0454 H   0  0  0  0  0  0
  1 25  1  0  0  0
  1 30  2  0  0  0
  1 86  1  0  0  0
  2  3  1  0  0  0
  2 25  1  0  0  0
  2 89  1  0  0  0
  2 90  1  0  0  0
  3  4  1  0  0  0
  3 91  1  0  0  0
  3 92  1  0  0  0
  4  5  1  0  0  0
  4 93  1  0  0  0
  4 94  1  0  0  0
  5  6  1  0  0  0
  5 26  1  0  0  0
  5 95  1  0  0  0
  6 25  1  0  0  0
  6 96  1  0  0  0
  6 97  1  0  0  0
  7  8  2  0  0  0
  7 26  1  0  0  0
  7 29  1  0  0  0
  8  9  1  0  0  0
  8 22  1  0  0  0
  9 10  1  0  0  0
  9 27  2  0  0  0
 10 11  2  0  0  0
 10 15  1  0  0  0
 11 12  1  0  0  0
 11 98  1  0  0  0
 12 13  2  0  0  0
 12 99  1  0  0  0
 13 14  1  0  0  0
 13 31  1  0  0  0
 14 15  2  0  0  0
 14100  1  0  0  0
 15101  1  0  0  0
 16 17  2  0  0  0
 16 21  1  0  0  0
 16 31  1  0  0  0
 17 18  1  0  0  0
 17102  1  0  0  0
 18 19  2  0  0  0
 18103  1  0  0  0
 19 20  1  0  0  0
 19 24  1  0  0  0
 20 21  2  0  0  0
 20104  1  0  0  0
 21 23  1  0  0  0
 22 28  1  0  0  0
 22 32  2  0  0  0
 26 27  1  0  0  0
 28105  1  0  0  0
 28106  1  0  0  0
 29107  1  0  0  0
 29108  1  0  0  0
 33 34  1  0  0  0
 33 66  1  0  0  0
 33 70  2  0  0  0
 34 36  1  0  0  0
 34 59  1  0  0  0
 34109  1  0  0  0
 35 44  2  0  0  0
 35 45  1  0  0  0
 35 68  1  0  0  0
 36 56  1  0  0  0
 36110  1  0  0  0
 37 39  1  0  0  0
 37 47  1  0  0  0
 37 66  1  0  0  0
 37111  1  0  0  0
 38 43  2  0  0  0
 38 46  1  0  0  0
 38 47  1  0  0  0
 39 64  1  0  0  0
 39 67  2  0  0  0
 40 52  1  0  0  0
 40 53  2  0  0  0
 40 58  1  0  0  0
 41112  1  0  0  0
 41113  1  0  0  0
 41114  1  0  0  0
 41 48  1  0  0  0
 42 43  1  0  0  0
 42 66  1  0  0  0
 42115  1  0  0  0
 42116  1  0  0  0
 43 44  1  0  0  0
 44117  1  0  0  0
 45 46  2  0  0  0
 45118  1  0  0  0
 46119  1  0  0  0
 47120  1  0  0  0
 47121  1  0  0  0
 48 56  1  0  0  0
 48 65  1  0  0  0
 48122  1  0  0  0
 49 50  1  0  0  0
 49 53  1  0  0  0
 49 64  1  0  0  0
 49123  1  0  0  0
 50 51  1  0  0  0
 50124  1  0  0  0
 50125  1  0  0  0
 51 52  1  0  0  0
 51126  1  0  0  0
 51127  1  0  0  0
 52128  1  0  0  0
 52129  1  0  0  0
 53 54  1  0  0  0
 54 55  2  0  0  0
 54130  1  0  0  0
 55 57  1  0  0  0
 55131  1  0  0  0
 56 69  2  0  0  0
 57 58  2  0  0  0
 57132  1  0  0  0
 58133  1  0  0  0
 59 60  1  0  0  0
 59 61  1  0  0  0
 59 62  1  0  0  0
 60134  1  0  0  0
 60135  1  0  0  0
 60136  1  0  0  0
 61137  1  0  0  0
 61138  1  0  0  0
 61139  1  0  0  0
 62140  1  0  0  0
 62141  1  0  0  0
 62142  1  0  0  0
 63 65  1  0  0  0
 63143  1  0  0  0
 63144  1  0  0  0
 63145  1  0  0  0
 64146  1  0  0  0
 65147  1  0  0  0
 68 83  1  0  0  0
 71 73  2  0  0  0
 71 75  1  0  0  0
 71148  1  0  0  0
 72 75  2  0  0  0
 72 76  1  0  0  0
 72149  1  0  0  0
 73 74  1  0  0  0
 73 77  1  0  0  0
 74 76  2  0  0  0
 74 84  1  0  0  0
 75 86  1  0  0  0
 76 88  1  0  0  0
 77150  1  0  0  0
 77151  1  0  0  0
 77152  1  0  0  0
 78 80  1  0  0  0
 78153  1  0  0  0
 78154  1  0  0  0
 78155  1  0  0  0
 79 88  1  0  0  0
 79156  1  0  0  0
 79157  1  0  0  0
 79158  1  0  0  0
 80159  1  0  0  0
 80160  1  0  0  0
 80 85  1  0  0  0
 81 83  1  0  0  0
 81 85  1  0  0  0
 81161  1  0  0  0
 81162  1  0  0  0
 82 87  1  0  0  0
 82163  1  0  0  0
 82164  1  0  0  0
 82 84  1  0  0  0
 83165  1  0  0  0
 83166  1  0  0  0
 84 85  1  0  0  0
 84167  1  0  0  0
 85168  1  0  0  0
 86169  1  0  0  0
 87170  1  0  0  0
 87171  1  0  0  0
 87172  1  0  0  0
M  CHG  1  87   1
M  ISO  4   1 100  68 101  83 101  86 100
M  END
> <chiral flag>
0

> <version>
0

> <s_m_source_file>
/data/baiqing/PycharmProjects/Reinvent-master-3.2/result/LINK_invent/BTK/process_docking_weight1_custom_sum_contain_oxygen_bond_distance_aromatic_linkinvent_7_9_3/rearranged_h_0154.sdf

> <i_m_source_file_index>
73

> <r_mmod_Potential_Energy-OPLS-2005>
-145.110900878906

> <r_mmod_Stretch_Energy-OPLS-2005>
79.9577865600586

> <r_mmod_Bend_Energy-OPLS-2005>
149.535552978516

> <r_mmod_Torsional_Energy-OPLS-2005>
244.352783203125

> <r_mmod_Improper_Torsional_Energy-OPLS-2005>
4.73717403411865

> <r_mmod_Van_der_Waal_Energy-OPLS-2005>
159.54133605957

> <r_mmod_Electrostatic_Energy-OPLS-2005>
-361.830169677734

> <r_mmod_Solvation_Energy-OPLS-2005>
-460.447601318359

> <b_mmod_Minimization_Converged-OPLS-2005>
0

> <r_mmod_RMS_Derivative-OPLS-2005>
1.56530475616455

$$$$
74
                    3D
 Structure written by MMmdl.
158167  0  0  1  0            999 V2000
  -30.5327  -14.8527   20.4146 C   0  0  0  0  0  0
  -30.4391  -12.5153   19.4915 C   0  0  0  0  0  0
  -29.5135  -12.4974   18.2525 C   0  0  0  0  0  0
  -28.0446  -12.3076   18.6696 C   0  0  0  0  0  0
  -27.6383  -13.2334   19.8465 C   0  0  2  0  0  0
  -28.6781  -13.2012   20.9872 C   0  0  0  0  0  0
  -25.2517  -13.8242   20.5624 C   0  0  0  0  0  0
  -24.1815  -13.0518   20.9197 C   0  0  0  0  0  0
  -24.6389  -11.6973   20.8748 C   0  0  0  0  0  0
  -23.9075  -10.4347   21.0424 C   0  0  0  0  0  0
  -24.3627   -9.4260   21.9195 C   0  0  0  0  0  0
  -23.6310   -8.2286   22.0758 C   0  0  0  0  0  0
  -22.4291   -8.0318   21.3548 C   0  0  0  0  0  0
  -21.9915   -9.0316   20.4665 C   0  0  0  0  0  0
  -22.7242  -10.2187   20.3095 C   0  0  0  0  0  0
  -21.6878   -6.0736   22.5268 C   0  0  0  0  0  0
  -21.4016   -6.5634   23.8196 C   0  0  0  0  0  0
  -21.3645   -5.6779   24.9149 C   0  0  0  0  0  0
  -21.6050   -4.3055   24.7204 C   0  0  0  0  0  0
  -21.8820   -3.8158   23.4333 C   0  0  0  0  0  0
  -21.9205   -4.6967   22.3381 C   0  0  0  0  0  0
  -22.7819  -13.5303   21.1866 C   0  0  0  0  0  0
  -22.1687   -4.2162   21.0965 F   0  0  0  0  0  0
  -21.5612   -3.4518   25.7714 F   0  0  0  0  0  0
  -29.9696  -13.5867   20.4076 N   0  0  0  0  0  0
  -26.2930  -12.9425   20.3246 N   0  0  0  0  0  0
  -25.9319  -11.6585   20.5760 N   0  0  0  0  0  0
  -22.0488  -12.8330   22.0441 N   0  0  0  0  0  0
  -25.4267  -15.1925   20.3812 N   0  0  0  0  0  0
  -31.7117  -14.9709   20.0569 O   0  0  0  0  0  0
  -21.6702   -6.8881   21.4229 O   0  0  0  0  0  0
  -22.3504  -14.5617   20.6697 O   0  0  0  0  0  0
  -24.6416  -31.8437   23.1897 C   0  0  0  0  0  0
  -25.9194  -32.4693   23.8273 C   0  0  1  0  0  0
  -27.2052  -27.1441   20.1538 C   0  0  0  0  0  0
  -25.5964  -33.8496   24.2208 N   0  0  0  0  0  0
  -23.4443  -30.4647   21.5343 C   0  0  2  0  0  0
  -24.8919  -28.8906   20.1095 C   0  0  0  0  0  0
  -22.7544  -29.4549   22.4856 C   0  0  0  0  0  0
  -18.0309  -28.1385   22.8470 C   0  0  0  0  0  0
  -24.1491  -36.7232   23.2631 C   0  0  0  0  0  0
  -25.9990  -30.7177   21.3877 C   0  0  0  0  0  0
  -26.0680  -29.3319   20.7280 C   0  0  0  0  0  0
  -27.2280  -28.4741   20.7285 C   0  0  0  0  0  0
  -26.0066  -26.7963   19.4976 C   0  0  0  0  0  0
  -24.8729  -27.6363   19.4783 C   0  0  0  0  0  0
  -23.6702  -29.7928   20.1532 C   0  0  0  0  0  0
  -25.4122  -36.3022   24.0319 C   0  0  1  0  0  0
  -20.5916  -28.3710   23.1233 C   0  0  2  0  0  0
  -20.6785  -26.9407   22.5409 C   0  0  0  0  0  0
  -19.5771  -26.6374   21.5197 C   0  0  0  0  0  0
  -18.1951  -26.7933   22.1598 C   0  0  0  0  0  0
  -19.1560  -28.8863   23.2850 C   0  0  0  0  0  0
  -18.9478  -30.1459   23.8883 C   0  0  0  0  0  0
  -17.6478  -30.6587   24.0549 C   0  0  0  0  0  0
  -25.9073  -34.9404   23.5081 C   0  0  0  0  0  0
  -16.5371  -29.9079   23.6335 C   0  0  0  0  0  0
  -16.7294  -28.6488   23.0373 C   0  0  0  0  0  0
  -26.4550  -31.6556   25.0705 C   0  0  0  0  0  0
  -25.3763  -31.3768   26.1433 C   0  0  0  0  0  0
  -27.0374  -30.2927   24.6284 C   0  0  0  0  0  0
  -27.6113  -32.4314   25.7442 C   0  0  0  0  0  0
  -27.5583  -37.1756   24.8468 C   0  0  0  0  0  0
  -21.4235  -29.3036   22.3592 N   0  0  0  0  0  0
  -26.4286  -37.3732   23.9423 N   0  0  0  0  0  0
  -24.7142  -31.0297   22.0929 N   0  0  0  0  0  0
  -23.4190  -28.8098   23.2999 O   0  0  0  0  0  0
  -28.2657  -26.1765   20.2192 O   0  0  0  0  0  0
  -26.5639  -34.8902   22.4650 O   0  0  0  0  0  0
  -23.5535  -32.1319   23.7115 O   0  0  0  0  0  0
  -29.3161  -18.6597   20.8628 C   0  0  0  0  0  0
  -29.5722  -17.6877   18.8766 C   0  0  0  0  0  0
  -29.6348  -17.3771   20.2009 C   0  0  0  0  0  0
  -29.0643  -19.7193   19.9514 C   0  0  0  0  0  0
  -28.9473  -22.3824   18.9595 C   0  0  0  0  0  0
  -28.6843  -22.1374   21.3762 C   0  0  0  0  0  0
  -28.1578  -23.7862   18.9548 C   0  0  0  0  0  0
  -28.8513  -23.7592   21.3240 C   0  0  0  0  0  0
  -28.5540  -21.2897   20.0410 C   0  0  2  0  0  0
  -28.0301  -24.6397   20.2801 C   0  0  1  0  0  0
  -28.8688  -19.5515   17.3984 C   0  0  0  0  0  0
  -29.1780  -19.0288   18.7196 N   0  0  0  0  0  0
  -29.7315  -15.9650   20.7292 N   0  0  0  0  0  0
  -31.4741  -12.6620   19.1799 H   0  0  0  0  0  0
  -30.4166  -11.5525   20.0030 H   0  0  0  0  0  0
  -29.8110  -11.6939   17.5759 H   0  0  0  0  0  0
  -29.6157  -13.4255   17.6888 H   0  0  0  0  0  0
  -27.9162  -11.2633   18.9609 H   0  0  0  0  0  0
  -27.3921  -12.4657   17.8128 H   0  0  0  0  0  0
  -27.6274  -14.2464   19.4404 H   0  0  0  0  0  0
  -28.7320  -12.2078   21.4342 H   0  0  0  0  0  0
  -28.3922  -13.8770   21.7953 H   0  0  0  0  0  0
  -25.2761   -9.5741   22.4780 H   0  0  0  0  0  0
  -24.0002   -7.4674   22.7472 H   0  0  0  0  0  0
  -21.0837   -8.8873   19.8977 H   0  0  0  0  0  0
  -22.3705  -10.9753   19.6221 H   0  0  0  0  0  0
  -21.2024   -7.6147   23.9708 H   0  0  0  0  0  0
  -21.1460   -6.0503   25.9040 H   0  0  0  0  0  0
  -22.0622   -2.7631   23.2843 H   0  0  0  0  0  0
  -22.4078  -11.9960   22.4812 H   0  0  0  0  0  0
  -21.1132  -13.1391   22.2714 H   0  0  0  0  0  0
  -24.6510  -15.8463   20.4285 H   0  0  0  0  0  0
  -26.2530  -15.5873   19.9492 H   0  0  0  0  0  0
  -26.7238  -32.5297   23.0973 H   0  0  0  0  0  0
  -25.0150  -33.9610   25.0380 H   0  0  0  0  0  0
  -22.7450  -31.2892   21.3797 H   0  0  0  0  0  0
  -23.3775  -35.9538   23.3278 H   0  0  0  0  0  0
  -24.3582  -36.8866   22.2046 H   0  0  0  0  0  0
  -23.7214  -37.6416   23.6670 H   0  0  0  0  0  0
  -26.1580  -31.4714   20.6153 H   0  0  0  0  0  0
  -26.8685  -30.7626   22.0329 H   0  0  0  0  0  0
  -28.1299  -28.8045   21.2254 H   0  0  0  0  0  0
  -25.9226  -25.8354   19.0131 H   0  0  0  0  0  0
  -23.9733  -27.2948   18.9855 H   0  0  0  0  0  0
  -23.8097  -30.5674   19.3983 H   0  0  0  0  0  0
  -22.7846  -29.2378   19.8413 H   0  0  0  0  0  0
  -25.1293  -36.1861   25.0803 H   0  0  0  0  0  0
  -21.0004  -28.3304   24.1356 H   0  0  0  0  0  0
  -20.5643  -26.2311   23.3620 H   0  0  0  0  0  0
  -21.6661  -26.7398   22.1223 H   0  0  0  0  0  0
  -19.6933  -25.6277   21.1253 H   0  0  0  0  0  0
  -19.6724  -27.3156   20.6708 H   0  0  0  0  0  0
  -17.4210  -26.6673   21.4014 H   0  0  0  0  0  0
  -18.0354  -26.0079   22.8995 H   0  0  0  0  0  0
  -19.7956  -30.7283   24.2231 H   0  0  0  0  0  0
  -17.5040  -31.6278   24.5139 H   0  0  0  0  0  0
  -15.5375  -30.2980   23.7672 H   0  0  0  0  0  0
  -15.8687  -28.0801   22.7117 H   0  0  0  0  0  0
  -24.5952  -30.7077   25.7799 H   0  0  0  0  0  0
  -24.8948  -32.2957   26.4783 H   0  0  0  0  0  0
  -25.8087  -30.9023   27.0246 H   0  0  0  0  0  0
  -26.2961  -29.6663   24.1305 H   0  0  0  0  0  0
  -27.3968  -29.7220   25.4854 H   0  0  0  0  0  0
  -27.8899  -30.4113   23.9591 H   0  0  0  0  0  0
  -27.2730  -33.3608   26.2025 H   0  0  0  0  0  0
  -28.3897  -32.6881   25.0247 H   0  0  0  0  0  0
  -28.0827  -31.8452   26.5336 H   0  0  0  0  0  0
  -28.2604  -38.0050   24.7522 H   0  0  0  0  0  0
  -28.1075  -36.2587   24.6284 H   0  0  0  0  0  0
  -27.2310  -37.1394   25.8872 H   0  0  0  0  0  0
  -20.9428  -29.8733   21.6763 H   0  0  0  0  0  0
  -26.0167  -38.2796   24.1454 H   0  0  0  0  0  0
  -29.2158  -18.7790   21.9320 H   0  0  0  0  0  0
  -29.6796  -17.0457   18.0117 H   0  0  0  0  0  0
  -30.0201  -22.5670   19.0327 H   0  0  0  0  0  0
  -28.7882  -22.0002   17.9613 H   0  0  0  0  0  0
  -27.8410  -21.8837   22.0210 H   0  0  0  0  0  0
  -29.5568  -21.7568   21.9074 H   0  0  0  0  0  0
  -27.1419  -23.5802   18.6090 H   0  0  0  0  0  0
  -28.5920  -24.4128   18.1751 H   0  0  0  0  0  0
  -29.9092  -23.9673   21.1589 H   0  0  0  0  0  0
  -28.6529  -24.1451   22.3233 H   0  0  0  0  0  0
  -27.4754  -21.1931   19.9052 H   0  0  0  0  0  0
  -26.9959  -24.5287   20.6085 H   0  0  0  0  0  0
  -28.8697  -18.7532   16.6542 H   0  0  0  0  0  0
  -29.6195  -20.2817   17.0951 H   0  0  0  0  0  0
  -27.8689  -19.9905   17.3971 H   0  0  0  0  0  0
  -28.8967  -15.6773   21.2210 H   0  0  0  0  0  0
  1 25  1  0  0  0
  1 30  2  0  0  0
  1 83  1  0  0  0
  2  3  1  0  0  0
  2 25  1  0  0  0
  2 84  1  0  0  0
  2 85  1  0  0  0
  3  4  1  0  0  0
  3 86  1  0  0  0
  3 87  1  0  0  0
  4  5  1  0  0  0
  4 88  1  0  0  0
  4 89  1  0  0  0
  5  6  1  0  0  0
  5 26  1  0  0  0
  5 90  1  0  0  0
  6 25  1  0  0  0
  6 91  1  0  0  0
  6 92  1  0  0  0
  7  8  2  0  0  0
  7 26  1  0  0  0
  7 29  1  0  0  0
  8  9  1  0  0  0
  8 22  1  0  0  0
  9 10  1  0  0  0
  9 27  2  0  0  0
 10 11  2  0  0  0
 10 15  1  0  0  0
 11 12  1  0  0  0
 11 93  1  0  0  0
 12 13  2  0  0  0
 12 94  1  0  0  0
 13 14  1  0  0  0
 13 31  1  0  0  0
 14 15  2  0  0  0
 14 95  1  0  0  0
 15 96  1  0  0  0
 16 17  2  0  0  0
 16 21  1  0  0  0
 16 31  1  0  0  0
 17 18  1  0  0  0
 17 97  1  0  0  0
 18 19  2  0  0  0
 18 98  1  0  0  0
 19 20  1  0  0  0
 19 24  1  0  0  0
 20 21  2  0  0  0
 20 99  1  0  0  0
 21 23  1  0  0  0
 22 28  1  0  0  0
 22 32  2  0  0  0
 26 27  1  0  0  0
 28100  1  0  0  0
 28101  1  0  0  0
 29102  1  0  0  0
 29103  1  0  0  0
 33 34  1  0  0  0
 33 66  1  0  0  0
 33 70  2  0  0  0
 34 36  1  0  0  0
 34 59  1  0  0  0
 34104  1  0  0  0
 35 44  2  0  0  0
 35 45  1  0  0  0
 35 68  1  0  0  0
 36 56  1  0  0  0
 36105  1  0  0  0
 37 39  1  0  0  0
 37 47  1  0  0  0
 37 66  1  0  0  0
 37106  1  0  0  0
 38 43  2  0  0  0
 38 46  1  0  0  0
 38 47  1  0  0  0
 39 64  1  0  0  0
 39 67  2  0  0  0
 40 52  1  0  0  0
 40 53  2  0  0  0
 40 58  1  0  0  0
 41107  1  0  0  0
 41108  1  0  0  0
 41109  1  0  0  0
 41 48  1  0  0  0
 42 43  1  0  0  0
 42 66  1  0  0  0
 42110  1  0  0  0
 42111  1  0  0  0
 43 44  1  0  0  0
 44112  1  0  0  0
 45 46  2  0  0  0
 45113  1  0  0  0
 46114  1  0  0  0
 47115  1  0  0  0
 47116  1  0  0  0
 48 56  1  0  0  0
 48 65  1  0  0  0
 48117  1  0  0  0
 49 50  1  0  0  0
 49 53  1  0  0  0
 49 64  1  0  0  0
 49118  1  0  0  0
 50 51  1  0  0  0
 50119  1  0  0  0
 50120  1  0  0  0
 51 52  1  0  0  0
 51121  1  0  0  0
 51122  1  0  0  0
 52123  1  0  0  0
 52124  1  0  0  0
 53 54  1  0  0  0
 54 55  2  0  0  0
 54125  1  0  0  0
 55 57  1  0  0  0
 55126  1  0  0  0
 56 69  2  0  0  0
 57 58  2  0  0  0
 57127  1  0  0  0
 58128  1  0  0  0
 59 60  1  0  0  0
 59 61  1  0  0  0
 59 62  1  0  0  0
 60129  1  0  0  0
 60130  1  0  0  0
 60131  1  0  0  0
 61132  1  0  0  0
 61133  1  0  0  0
 61134  1  0  0  0
 62135  1  0  0  0
 62136  1  0  0  0
 62137  1  0  0  0
 63 65  1  0  0  0
 63138  1  0  0  0
 63139  1  0  0  0
 63140  1  0  0  0
 64141  1  0  0  0
 65142  1  0  0  0
 68 80  1  0  0  0
 71 73  1  0  0  0
 71 74  2  0  0  0
 71143  1  0  0  0
 72 73  2  0  0  0
 72 82  1  0  0  0
 72144  1  0  0  0
 73 83  1  0  0  0
 74 82  1  0  0  0
 74 79  1  0  0  0
 75 77  1  0  0  0
 75 79  1  0  0  0
 75145  1  0  0  0
 75146  1  0  0  0
 76 78  1  0  0  0
 76 79  1  0  0  0
 76147  1  0  0  0
 76148  1  0  0  0
 77 80  1  0  0  0
 77149  1  0  0  0
 77150  1  0  0  0
 78 80  1  0  0  0
 78151  1  0  0  0
 78152  1  0  0  0
 79153  1  0  0  0
 80154  1  0  0  0
 81 82  1  0  0  0
 81155  1  0  0  0
 81156  1  0  0  0
 81157  1  0  0  0
 83158  1  0  0  0
M  ISO  4   1 100  68 101  80 101  83 100
M  END
> <chiral flag>
0

> <version>
0

> <s_m_source_file>
/data/baiqing/PycharmProjects/Reinvent-master-3.2/result/LINK_invent/BTK/process_docking_weight1_custom_sum_contain_oxygen_bond_distance_aromatic_linkinvent_7_9_3/rearranged_h_0154.sdf

> <i_m_source_file_index>
74

> <r_mmod_Potential_Energy-OPLS-2005>
440.274627685547

> <r_mmod_Stretch_Energy-OPLS-2005>
195.60791015625

> <r_mmod_Bend_Energy-OPLS-2005>
249.156509399414

> <r_mmod_Torsional_Energy-OPLS-2005>
296.822723388672

> <r_mmod_Improper_Torsional_Energy-OPLS-2005>
7.63375759124756

> <r_mmod_Van_der_Waal_Energy-OPLS-2005>
122.248344421387

> <r_mmod_Electrostatic_Energy-OPLS-2005>
-375.520446777344

> <r_mmod_Solvation_Energy-OPLS-2005>
-213.067306518555

> <b_mmod_Minimization_Converged-OPLS-2005>
0

> <r_mmod_RMS_Derivative-OPLS-2005>
4.63143253326416

$$$$
75
                    3D
 Structure written by MMmdl.
167177  0  0  1  0            999 V2000
  -30.7075  -14.6146   20.4545 C   0  0  0  0  0  0
  -30.4125  -12.3738   19.4481 C   0  0  0  0  0  0
  -29.4977  -12.4935   18.2132 C   0  0  0  0  0  0
  -28.0208  -12.3480   18.6286 C   0  0  0  0  0  0
  -27.6456  -13.2341   19.8497 C   0  0  2  0  0  0
  -28.6983  -13.1479   20.9776 C   0  0  0  0  0  0
  -25.2538  -13.8221   20.5702 C   0  0  0  0  0  0
  -24.1820  -13.0457   20.9194 C   0  0  0  0  0  0
  -24.6409  -11.6937   20.8753 C   0  0  0  0  0  0
  -23.9081  -10.4308   21.0417 C   0  0  0  0  0  0
  -24.3639   -9.4220   21.9187 C   0  0  0  0  0  0
  -23.6320   -8.2240   22.0756 C   0  0  0  0  0  0
  -22.4300   -8.0278   21.3535 C   0  0  0  0  0  0
  -21.9925   -9.0256   20.4638 C   0  0  0  0  0  0
  -22.7254  -10.2142   20.3052 C   0  0  0  0  0  0
  -21.6842   -6.0742   22.5286 C   0  0  0  0  0  0
  -21.4011   -6.5644   23.8220 C   0  0  0  0  0  0
  -21.3668   -5.6798   24.9184 C   0  0  0  0  0  0
  -21.6056   -4.3057   24.7226 C   0  0  0  0  0  0
  -21.8819   -3.8147   23.4339 C   0  0  0  0  0  0
  -21.9187   -4.6969   22.3404 C   0  0  0  0  0  0
  -22.7849  -13.5243   21.1854 C   0  0  0  0  0  0
  -22.1660   -4.2160   21.0980 F   0  0  0  0  0  0
  -21.5631   -3.4539   25.7729 F   0  0  0  0  0  0
  -30.0060  -13.4415   20.3815 N   0  0  0  0  0  0
  -26.2975  -12.9436   20.3313 N   0  0  0  0  0  0
  -25.9351  -11.6566   20.5778 N   0  0  0  0  0  0
  -22.0471  -12.8255   22.0406 N   0  0  0  0  0  0
  -25.4242  -15.1945   20.4134 N   0  0  0  0  0  0
  -31.9099  -14.6356   20.1748 O   0  0  0  0  0  0
  -21.6646   -6.8889   21.4241 O   0  0  0  0  0  0
  -22.3546  -14.5545   20.6686 O   0  0  0  0  0  0
  -24.6212  -31.8618   23.2037 C   0  0  0  0  0  0
  -25.9069  -32.4794   23.8360 C   0  0  1  0  0  0
  -27.2264  -27.3596   20.1078 C   0  0  0  0  0  0
  -25.5877  -33.8592   24.2270 N   0  0  0  0  0  0
  -23.4139  -30.4847   21.5455 C   0  0  2  0  0  0
  -24.8632  -28.9417   20.1117 C   0  0  0  0  0  0
  -22.7444  -29.4633   22.4948 C   0  0  0  0  0  0
  -18.0275  -28.1388   22.8489 C   0  0  0  0  0  0
  -24.1480  -36.7316   23.2642 C   0  0  0  0  0  0
  -25.9507  -30.8059   21.3687 C   0  0  0  0  0  0
  -26.0294  -29.4346   20.7131 C   0  0  0  0  0  0
  -27.2198  -28.6532   20.7049 C   0  0  0  0  0  0
  -26.0457  -26.9052   19.4909 C   0  0  0  0  0  0
  -24.8695  -27.6796   19.4941 C   0  0  0  0  0  0
  -23.6268  -29.8146   20.1625 C   0  0  0  0  0  0
  -25.4109  -36.3098   24.0325 C   0  0  1  0  0  0
  -20.5875  -28.3678   23.1295 C   0  0  2  0  0  0
  -20.6767  -26.9407   22.5418 C   0  0  0  0  0  0
  -19.5740  -26.6383   21.5219 C   0  0  0  0  0  0
  -18.1920  -26.7933   22.1627 C   0  0  0  0  0  0
  -19.1531  -28.8847   23.2891 C   0  0  0  0  0  0
  -18.9458  -30.1452   23.8906 C   0  0  0  0  0  0
  -17.6462  -30.6595   24.0566 C   0  0  0  0  0  0
  -25.9036  -34.9464   23.5107 C   0  0  0  0  0  0
  -16.5350  -29.9098   23.6332 C   0  0  0  0  0  0
  -16.7264  -28.6514   23.0352 C   0  0  0  0  0  0
  -26.4461  -31.6600   25.0722 C   0  0  0  0  0  0
  -25.3692  -31.3765   26.1452 C   0  0  0  0  0  0
  -27.0287  -30.3014   24.6173 C   0  0  0  0  0  0
  -27.6012  -32.4341   25.7497 C   0  0  0  0  0  0
  -27.5576  -37.1818   24.8459 C   0  0  0  0  0  0
  -21.4165  -29.3033   22.3686 N   0  0  0  0  0  0
  -26.4292  -37.3787   23.9395 N   0  0  0  0  0  0
  -24.6802  -31.0660   22.0973 N   0  0  0  0  0  0
  -23.4189  -28.8176   23.3016 O   0  0  0  0  0  0
  -28.3155  -26.4901   20.1197 O   0  0  0  0  0  0
  -26.5633  -34.8926   22.4689 O   0  0  0  0  0  0
  -23.5382  -32.1397   23.7384 O   0  0  0  0  0  0
  -28.4332  -23.0540   21.9673 C   0  0  0  0  0  0
  -29.4868  -22.2093   19.6169 C   0  0  0  0  0  0
  -28.8295  -21.6984   21.8618 C   0  0  0  0  0  0
  -29.3565  -21.2198   20.6363 C   0  0  0  0  0  0
  -28.6156  -23.9752   20.9118 C   0  0  0  0  0  0
  -29.2804  -21.3146   24.4168 C   0  0  0  0  0  0
  -30.0116  -20.2289   23.6703 C   0  0  0  0  0  0
  -29.3991  -17.9186   19.0579 C   0  0  0  0  0  0
  -28.7669  -17.7677   21.4599 C   0  0  0  0  0  0
  -30.4229  -16.7769   19.3488 C   0  0  0  0  0  0
  -29.7993  -16.6006   21.6230 C   0  0  0  0  0  0
  -28.7563  -20.8343   23.0808 C   0  0  0  0  0  0
  -28.9779  -18.7738   20.2811 C   0  0  0  0  0  0
  -29.1578  -26.0563   22.3029 C   0  0  0  0  0  0
  -28.2661  -25.4881   21.1876 C   0  0  1  0  0  0
  -29.1507  -23.5372   19.7408 N   0  0  0  0  0  0
  -30.0058  -15.8038   20.3954 N   0  0  0  0  0  0
  -29.8688  -19.9119   20.4994 O   0  0  0  0  0  0
  -31.4598  -12.4444   19.1480 H   0  0  0  0  0  0
  -30.3013  -11.3954   19.9183 H   0  0  0  0  0  0
  -29.7570  -11.7336   17.4754 H   0  0  0  0  0  0
  -29.6526  -13.4578   17.7257 H   0  0  0  0  0  0
  -27.8517  -11.2977   18.8653 H   0  0  0  0  0  0
  -27.3682  -12.5780   17.7843 H   0  0  0  0  0  0
  -27.6458  -14.2630   19.4871 H   0  0  0  0  0  0
  -28.7069  -12.1553   21.4304 H   0  0  0  0  0  0
  -28.4634  -13.8553   21.7750 H   0  0  0  0  0  0
  -25.2774   -9.5705   22.4778 H   0  0  0  0  0  0
  -24.0020   -7.4637   22.7484 H   0  0  0  0  0  0
  -21.0839   -8.8772   19.8963 H   0  0  0  0  0  0
  -22.3692  -10.9684   19.6166 H   0  0  0  0  0  0
  -21.2005   -7.6154   23.9734 H   0  0  0  0  0  0
  -21.1495   -6.0521   25.9096 H   0  0  0  0  0  0
  -22.0592   -2.7607   23.2828 H   0  0  0  0  0  0
  -22.4060  -11.9915   22.4818 H   0  0  0  0  0  0
  -21.1084  -13.1296   22.2574 H   0  0  0  0  0  0
  -24.6604  -15.8517   20.5286 H   0  0  0  0  0  0
  -26.2877  -15.6327   20.1189 H   0  0  0  0  0  0
  -26.7138  -32.5481   23.1119 H   0  0  0  0  0  0
  -24.9948  -33.9735   25.0359 H   0  0  0  0  0  0
  -22.7063  -31.3042   21.4023 H   0  0  0  0  0  0
  -23.3725  -35.9670   23.3336 H   0  0  0  0  0  0
  -24.3554  -36.8908   22.2050 H   0  0  0  0  0  0
  -23.7256  -37.6536   23.6649 H   0  0  0  0  0  0
  -26.0741  -31.5702   20.5994 H   0  0  0  0  0  0
  -26.8342  -30.8566   21.9939 H   0  0  0  0  0  0
  -28.1167  -29.0268   21.1793 H   0  0  0  0  0  0
  -26.0302  -25.9308   19.0224 H   0  0  0  0  0  0
  -23.9736  -27.2945   19.0257 H   0  0  0  0  0  0
  -23.7352  -30.5870   19.4006 H   0  0  0  0  0  0
  -22.7497  -29.2356   19.8677 H   0  0  0  0  0  0
  -25.1298  -36.1960   25.0820 H   0  0  0  0  0  0
  -20.9971  -28.3256   24.1414 H   0  0  0  0  0  0
  -20.5650  -26.2294   23.3618 H   0  0  0  0  0  0
  -21.6633  -26.7436   22.1216 H   0  0  0  0  0  0
  -19.6898  -25.6296   21.1238 H   0  0  0  0  0  0
  -19.6684  -27.3197   20.6753 H   0  0  0  0  0  0
  -17.4193  -26.6681   21.4027 H   0  0  0  0  0  0
  -18.0321  -26.0076   22.9021 H   0  0  0  0  0  0
  -19.7940  -30.7260   24.2276 H   0  0  0  0  0  0
  -17.5025  -31.6275   24.5172 H   0  0  0  0  0  0
  -15.5355  -30.3008   23.7656 H   0  0  0  0  0  0
  -15.8661  -28.0839   22.7063 H   0  0  0  0  0  0
  -24.5824  -30.7167   25.7784 H   0  0  0  0  0  0
  -24.8935  -32.2948   26.4903 H   0  0  0  0  0  0
  -25.7991  -30.8907   27.0218 H   0  0  0  0  0  0
  -26.2864  -29.6794   24.1154 H   0  0  0  0  0  0
  -27.3919  -29.7249   25.4693 H   0  0  0  0  0  0
  -27.8760  -30.4291   23.9432 H   0  0  0  0  0  0
  -27.2593  -33.3612   26.2119 H   0  0  0  0  0  0
  -28.3798  -32.6962   25.0319 H   0  0  0  0  0  0
  -28.0710  -31.8449   26.5383 H   0  0  0  0  0  0
  -28.2618  -38.0092   24.7473 H   0  0  0  0  0  0
  -28.1045  -36.2622   24.6325 H   0  0  0  0  0  0
  -27.2287  -37.1514   25.8861 H   0  0  0  0  0  0
  -20.9336  -29.8749   21.6895 H   0  0  0  0  0  0
  -26.0178  -38.2867   24.1384 H   0  0  0  0  0  0
  -28.0309  -23.4078   22.9068 H   0  0  0  0  0  0
  -29.9200  -21.9335   18.6665 H   0  0  0  0  0  0
  -29.7580  -22.2914   24.4654 H   0  0  0  0  0  0
  -28.7462  -21.0101   25.3144 H   0  0  0  0  0  0
  -29.9498  -19.2209   24.0743 H   0  0  0  0  0  0
  -30.9606  -20.4878   23.2033 H   0  0  0  0  0  0
  -28.5035  -17.4549   18.6399 H   0  0  0  0  0  0
  -29.7865  -18.5679   18.2706 H   0  0  0  0  0  0
  -28.6666  -18.2881   22.4044 H   0  0  0  0  0  0
  -27.7941  -17.3019   21.3057 H   0  0  0  0  0  0
  -31.3802  -17.2205   19.6306 H   0  0  0  0  0  0
  -30.6087  -16.2413   18.4152 H   0  0  0  0  0  0
  -29.4689  -15.9442   22.4289 H   0  0  0  0  0  0
  -30.7578  -17.0097   21.9505 H   0  0  0  0  0  0
  -27.8341  -20.2567   23.0915 H   0  0  0  0  0  0
  -28.0032  -19.2053   20.0463 H   0  0  0  0  0  0
  -29.0861  -25.4637   23.2143 H   0  0  0  0  0  0
  -28.8631  -27.0720   22.5634 H   0  0  0  0  0  0
  -30.2044  -26.0746   21.9989 H   0  0  0  0  0  0
  -27.2482  -25.4553   21.5829 H   0  0  0  0  0  0
  1 25  1  0  0  0
  1 30  2  0  0  0
  1 87  1  0  0  0
  2  3  1  0  0  0
  2 25  1  0  0  0
  2 89  1  0  0  0
  2 90  1  0  0  0
  3  4  1  0  0  0
  3 91  1  0  0  0
  3 92  1  0  0  0
  4  5  1  0  0  0
  4 93  1  0  0  0
  4 94  1  0  0  0
  5  6  1  0  0  0
  5 26  1  0  0  0
  5 95  1  0  0  0
  6 25  1  0  0  0
  6 96  1  0  0  0
  6 97  1  0  0  0
  7  8  2  0  0  0
  7 26  1  0  0  0
  7 29  1  0  0  0
  8  9  1  0  0  0
  8 22  1  0  0  0
  9 10  1  0  0  0
  9 27  2  0  0  0
 10 11  2  0  0  0
 10 15  1  0  0  0
 11 12  1  0  0  0
 11 98  1  0  0  0
 12 13  2  0  0  0
 12 99  1  0  0  0
 13 14  1  0  0  0
 13 31  1  0  0  0
 14 15  2  0  0  0
 14100  1  0  0  0
 15101  1  0  0  0
 16 17  2  0  0  0
 16 21  1  0  0  0
 16 31  1  0  0  0
 17 18  1  0  0  0
 17102  1  0  0  0
 18 19  2  0  0  0
 18103  1  0  0  0
 19 20  1  0  0  0
 19 24  1  0  0  0
 20 21  2  0  0  0
 20104  1  0  0  0
 21 23  1  0  0  0
 22 28  1  0  0  0
 22 32  2  0  0  0
 26 27  1  0  0  0
 28105  1  0  0  0
 28106  1  0  0  0
 29107  1  0  0  0
 29108  1  0  0  0
 33 34  1  0  0  0
 33 66  1  0  0  0
 33 70  2  0  0  0
 34 36  1  0  0  0
 34 59  1  0  0  0
 34109  1  0  0  0
 35 44  2  0  0  0
 35 45  1  0  0  0
 35 68  1  0  0  0
 36 56  1  0  0  0
 36110  1  0  0  0
 37 39  1  0  0  0
 37 47  1  0  0  0
 37 66  1  0  0  0
 37111  1  0  0  0
 38 43  2  0  0  0
 38 46  1  0  0  0
 38 47  1  0  0  0
 39 64  1  0  0  0
 39 67  2  0  0  0
 40 52  1  0  0  0
 40 53  2  0  0  0
 40 58  1  0  0  0
 41112  1  0  0  0
 41113  1  0  0  0
 41114  1  0  0  0
 41 48  1  0  0  0
 42 43  1  0  0  0
 42 66  1  0  0  0
 42115  1  0  0  0
 42116  1  0  0  0
 43 44  1  0  0  0
 44117  1  0  0  0
 45 46  2  0  0  0
 45118  1  0  0  0
 46119  1  0  0  0
 47120  1  0  0  0
 47121  1  0  0  0
 48 56  1  0  0  0
 48 65  1  0  0  0
 48122  1  0  0  0
 49 50  1  0  0  0
 49 53  1  0  0  0
 49 64  1  0  0  0
 49123  1  0  0  0
 50 51  1  0  0  0
 50124  1  0  0  0
 50125  1  0  0  0
 51 52  1  0  0  0
 51126  1  0  0  0
 51127  1  0  0  0
 52128  1  0  0  0
 52129  1  0  0  0
 53 54  1  0  0  0
 54 55  2  0  0  0
 54130  1  0  0  0
 55 57  1  0  0  0
 55131  1  0  0  0
 56 69  2  0  0  0
 57 58  2  0  0  0
 57132  1  0  0  0
 58133  1  0  0  0
 59 60  1  0  0  0
 59 61  1  0  0  0
 59 62  1  0  0  0
 60134  1  0  0  0
 60135  1  0  0  0
 60136  1  0  0  0
 61137  1  0  0  0
 61138  1  0  0  0
 61139  1  0  0  0
 62140  1  0  0  0
 62141  1  0  0  0
 62142  1  0  0  0
 63 65  1  0  0  0
 63143  1  0  0  0
 63144  1  0  0  0
 63145  1  0  0  0
 64146  1  0  0  0
 65147  1  0  0  0
 68 85  1  0  0  0
 71 73  2  0  0  0
 71 75  1  0  0  0
 71148  1  0  0  0
 72 74  2  0  0  0
 72 86  1  0  0  0
 72149  1  0  0  0
 73 74  1  0  0  0
 73 82  1  0  0  0
 74 88  1  0  0  0
 75 85  1  0  0  0
 75 86  2  0  0  0
 76 77  1  0  0  0
 76 82  1  0  0  0
 76150  1  0  0  0
 76151  1  0  0  0
 77 82  1  0  0  0
 77152  1  0  0  0
 77153  1  0  0  0
 78 80  1  0  0  0
 78 83  1  0  0  0
 78154  1  0  0  0
 78155  1  0  0  0
 79 81  1  0  0  0
 79 83  1  0  0  0
 79156  1  0  0  0
 79157  1  0  0  0
 80 87  1  0  0  0
 80158  1  0  0  0
 80159  1  0  0  0
 81 87  1  0  0  0
 81160  1  0  0  0
 81161  1  0  0  0
 82162  1  0  0  0
 83 88  1  0  0  0
 83163  1  0  0  0
 84164  1  0  0  0
 84165  1  0  0  0
 84166  1  0  0  0
 84 85  1  0  0  0
 85167  1  0  0  0
M  ISO  4   1 100  68 101  85 101  87 100
M  END
> <chiral flag>
0

> <version>
0

> <s_m_source_file>
/data/baiqing/PycharmProjects/Reinvent-master-3.2/result/LINK_invent/BTK/process_docking_weight1_custom_sum_contain_oxygen_bond_distance_aromatic_linkinvent_7_9_3/rearranged_h_0154.sdf

> <i_m_source_file_index>
75

> <r_mmod_Potential_Energy-OPLS-2005>
229.551177978516

> <r_mmod_Stretch_Energy-OPLS-2005>
71.3046112060547

> <r_mmod_Bend_Energy-OPLS-2005>
157.275405883789

> <r_mmod_Torsional_Energy-OPLS-2005>
408.917724609375

> <r_mmod_Improper_Torsional_Energy-OPLS-2005>
18.8121013641357

> <r_mmod_Van_der_Waal_Energy-OPLS-2005>
138.638565063477

> <r_mmod_Electrostatic_Energy-OPLS-2005>
-400.08056640625

> <r_mmod_Solvation_Energy-OPLS-2005>
-211.948623657227

> <b_mmod_Minimization_Converged-OPLS-2005>
0

> <r_mmod_RMS_Derivative-OPLS-2005>
2.19750046730042

$$$$
76
                    3D
 Structure written by MMmdl.
173182  0  0  1  0            999 V2000
  -30.6551  -14.5880   20.5717 C   0  0  0  0  0  0
  -30.4349  -12.3856   19.4536 C   0  0  0  0  0  0
  -29.5046  -12.5352   18.2305 C   0  0  0  0  0  0
  -28.0236  -12.3836   18.6314 C   0  0  0  0  0  0
  -27.6538  -13.2185   19.8880 C   0  0  2  0  0  0
  -28.6999  -13.0264   21.0135 C   0  0  0  0  0  0
  -25.2302  -13.8030   20.5526 C   0  0  0  0  0  0
  -24.1691  -13.0269   20.9263 C   0  0  0  0  0  0
  -24.6385  -11.6836   20.8834 C   0  0  0  0  0  0
  -23.9062  -10.4206   21.0461 C   0  0  0  0  0  0
  -24.3584   -9.4133   21.9258 C   0  0  0  0  0  0
  -23.6256   -8.2157   22.0800 C   0  0  0  0  0  0
  -22.4238   -8.0223   21.3564 C   0  0  0  0  0  0
  -21.9882   -9.0214   20.4674 C   0  0  0  0  0  0
  -22.7225  -10.2090   20.3114 C   0  0  0  0  0  0
  -21.6796   -6.0721   22.5303 C   0  0  0  0  0  0
  -21.3980   -6.5642   23.8244 C   0  0  0  0  0  0
  -21.3651   -5.6784   24.9202 C   0  0  0  0  0  0
  -21.6052   -4.3053   24.7233 C   0  0  0  0  0  0
  -21.8805   -3.8146   23.4349 C   0  0  0  0  0  0
  -21.9176   -4.6962   22.3408 C   0  0  0  0  0  0
  -22.7734  -13.5125   21.1912 C   0  0  0  0  0  0
  -22.1668   -4.2171   21.0981 F   0  0  0  0  0  0
  -21.5586   -3.4540   25.7739 F   0  0  0  0  0  0
  -30.0215  -13.3776   20.4696 N   0  0  0  0  0  0
  -26.2915  -12.9363   20.3378 N   0  0  0  0  0  0
  -25.9333  -11.6508   20.5867 N   0  0  0  0  0  0
  -22.0327  -12.8182   22.0471 N   0  0  0  0  0  0
  -25.3310  -15.1682   20.3475 N   0  0  0  0  0  0
  -31.7682  -14.7687   20.0726 O   0  0  0  0  0  0
  -21.6584   -6.8843   21.4252 O   0  0  0  0  0  0
  -22.3475  -14.5440   20.6774 O   0  0  0  0  0  0
  -24.6170  -31.8714   23.2117 C   0  0  0  0  0  0
  -25.9056  -32.4856   23.8353 C   0  0  1  0  0  0
  -27.2042  -27.3975   20.1022 C   0  0  0  0  0  0
  -25.5914  -33.8634   24.2281 N   0  0  0  0  0  0
  -23.4009  -30.5072   21.5519 C   0  0  2  0  0  0
  -24.8350  -28.9750   20.1063 C   0  0  0  0  0  0
  -22.7424  -29.4771   22.4936 C   0  0  0  0  0  0
  -18.0347  -28.1318   22.8698 C   0  0  0  0  0  0
  -24.1491  -36.7299   23.2643 C   0  0  0  0  0  0
  -25.9266  -30.8340   21.3590 C   0  0  0  0  0  0
  -25.9974  -29.4612   20.7110 C   0  0  0  0  0  0
  -27.1813  -28.6829   20.7064 C   0  0  0  0  0  0
  -26.0164  -26.9376   19.4871 C   0  0  0  0  0  0
  -24.8446  -27.7163   19.4868 C   0  0  0  0  0  0
  -23.6031  -29.8519   20.1589 C   0  0  0  0  0  0
  -25.4126  -36.3122   24.0330 C   0  0  1  0  0  0
  -20.5922  -28.3811   23.1266 C   0  0  2  0  0  0
  -20.6959  -26.9604   22.5270 C   0  0  0  0  0  0
  -19.5732  -26.6437   21.5334 C   0  0  0  0  0  0
  -18.2132  -26.7711   22.2199 C   0  0  0  0  0  0
  -19.1565  -28.8931   23.2884 C   0  0  0  0  0  0
  -18.9450  -30.1634   23.8669 C   0  0  0  0  0  0
  -17.6432  -30.6700   24.0351 C   0  0  0  0  0  0
  -25.9056  -34.9502   23.5110 C   0  0  0  0  0  0
  -16.5346  -29.9065   23.6340 C   0  0  0  0  0  0
  -16.7302  -28.6414   23.0481 C   0  0  0  0  0  0
  -26.4474  -31.6605   25.0659 C   0  0  0  0  0  0
  -25.3742  -31.3639   26.1386 C   0  0  0  0  0  0
  -27.0254  -30.3071   24.5953 C   0  0  0  0  0  0
  -27.6089  -32.4253   25.7410 C   0  0  0  0  0  0
  -27.5569  -37.1823   24.8458 C   0  0  0  0  0  0
  -21.4145  -29.3210   22.3713 N   0  0  0  0  0  0
  -26.4285  -37.3829   23.9411 N   0  0  0  0  0  0
  -24.6685  -31.0865   22.0982 N   0  0  0  0  0  0
  -23.4191  -28.8265   23.2951 O   0  0  0  0  0  0
  -28.3784  -26.6594   20.1267 O   0  0  0  0  0  0
  -26.5627  -34.8979   22.4677 O   0  0  0  0  0  0
  -23.5377  -32.1377   23.7586 O   0  0  0  0  0  0
  -28.0633  -22.7866   20.0664 C   0  0  0  0  0  0
  -28.6623  -23.0327   22.7658 C   0  0  0  0  0  0
  -28.3730  -24.0890   20.5742 C   0  0  0  0  0  0
  -28.0441  -21.6008   20.8812 C   0  0  0  0  0  0
  -28.6937  -24.1833   21.9547 C   0  0  0  0  0  0
  -28.3266  -21.7622   22.2536 C   0  0  0  0  0  0
  -27.4551  -17.3101   20.6396 C   0  0  0  0  0  0
  -27.7130  -17.9637   19.2858 C   0  0  0  0  0  0
  -28.7611  -17.9660   21.0244 C   0  0  1  0  0  0
  -29.0669  -25.4912   22.6298 C   0  0  0  0  0  0
  -26.3840  -20.5220   19.3220 C   0  0  0  0  0  0
  -31.2909  -17.7038   21.4602 C   0  0  0  0  0  0
  -27.5588  -20.9074   24.3146 C   0  0  0  0  0  0
  -28.4498  -25.3060   19.5966 C   0  0  0  0  0  0
  -27.4587  -20.2274   20.4006 C   0  0  1  0  0  0
  -30.0735  -17.1014   20.7420 C   0  0  1  0  0  0
  -29.9311  -15.6353   21.0750 N   0  0  0  0  0  0
  -28.3936  -19.0621   20.0232 N   0  3  2  0  0  0
  -28.2137  -20.6723   23.0765 O   0  0  0  0  0  0
  -31.4723  -12.5224   19.1428 H   0  0  0  0  0  0
  -30.3754  -11.3737   19.8564 H   0  0  0  0  0  0
  -29.7667  -11.8026   17.4655 H   0  0  0  0  0  0
  -29.6526  -13.5176   17.7805 H   0  0  0  0  0  0
  -27.8325  -11.3239   18.8103 H   0  0  0  0  0  0
  -27.3857  -12.6721   17.7949 H   0  0  0  0  0  0
  -27.6860  -14.2636   19.5904 H   0  0  0  0  0  0
  -28.7144  -11.9905   21.3597 H   0  0  0  0  0  0
  -28.4475  -13.6229   21.8902 H   0  0  0  0  0  0
  -25.2696   -9.5595   22.4912 H   0  0  0  0  0  0
  -23.9934   -7.4528   22.7536 H   0  0  0  0  0  0
  -21.0796   -8.8749   19.8993 H   0  0  0  0  0  0
  -22.3672  -10.9660   19.6252 H   0  0  0  0  0  0
  -21.1983   -7.6157   23.9756 H   0  0  0  0  0  0
  -21.1494   -6.0522   25.9111 H   0  0  0  0  0  0
  -22.0593   -2.7623   23.2845 H   0  0  0  0  0  0
  -22.3790  -11.9818   22.4892 H   0  0  0  0  0  0
  -21.0990  -13.1366   22.2642 H   0  0  0  0  0  0
  -24.4980  -15.7424   20.4296 H   0  0  0  0  0  0
  -26.0520  -15.5918   19.7804 H   0  0  0  0  0  0
  -26.7111  -32.5587   23.1090 H   0  0  0  0  0  0
  -25.0040  -33.9746   25.0401 H   0  0  0  0  0  0
  -22.6940  -31.3299   21.4258 H   0  0  0  0  0  0
  -23.3782  -35.9598   23.3321 H   0  0  0  0  0  0
  -24.3545  -36.8908   22.2047 H   0  0  0  0  0  0
  -23.7202  -37.6496   23.6648 H   0  0  0  0  0  0
  -26.0189  -31.6000   20.5878 H   0  0  0  0  0  0
  -26.8194  -30.8944   21.9673 H   0  0  0  0  0  0
  -28.0756  -29.0634   21.1811 H   0  0  0  0  0  0
  -25.9437  -25.9846   18.9924 H   0  0  0  0  0  0
  -23.9546  -27.3450   18.9988 H   0  0  0  0  0  0
  -23.7158  -30.6339   19.4040 H   0  0  0  0  0  0
  -22.7180  -29.2848   19.8654 H   0  0  0  0  0  0
  -25.1306  -36.1971   25.0819 H   0  0  0  0  0  0
  -20.9981  -28.3386   24.1381 H   0  0  0  0  0  0
  -20.6346  -26.2394   23.3417 H   0  0  0  0  0  0
  -21.6750  -26.7958   22.0724 H   0  0  0  0  0  0
  -19.7063  -25.6398   21.1294 H   0  0  0  0  0  0
  -19.6283  -27.3303   20.6873 H   0  0  0  0  0  0
  -17.4094  -26.5757   21.5122 H   0  0  0  0  0  0
  -18.1328  -26.0082   22.9973 H   0  0  0  0  0  0
  -19.7882  -30.7666   24.1757 H   0  0  0  0  0  0
  -17.4945  -31.6497   24.4740 H   0  0  0  0  0  0
  -15.5328  -30.2938   23.7668 H   0  0  0  0  0  0
  -15.8744  -28.0631   22.7337 H   0  0  0  0  0  0
  -24.6045  -30.6847   25.7685 H   0  0  0  0  0  0
  -24.8768  -32.2743   26.4752 H   0  0  0  0  0  0
  -25.8111  -30.8889   27.0177 H   0  0  0  0  0  0
  -26.2725  -29.6882   24.1075 H   0  0  0  0  0  0
  -27.4107  -29.7268   25.4336 H   0  0  0  0  0  0
  -27.8530  -30.4390   23.8983 H   0  0  0  0  0  0
  -27.2806  -33.3603   26.1949 H   0  0  0  0  0  0
  -28.3940  -32.6702   25.0236 H   0  0  0  0  0  0
  -28.0692  -31.8348   26.5344 H   0  0  0  0  0  0
  -28.2621  -38.0097   24.7525 H   0  0  0  0  0  0
  -28.1047  -36.2643   24.6284 H   0  0  0  0  0  0
  -27.2275  -37.1449   25.8857 H   0  0  0  0  0  0
  -20.9266  -29.8942   21.6953 H   0  0  0  0  0  0
  -26.0191  -38.2900   24.1473 H   0  0  0  0  0  0
  -27.7821  -22.7286   19.0240 H   0  0  0  0  0  0
  -28.8870  -23.1418   23.8174 H   0  0  0  0  0  0
  -27.5033  -16.2284   20.6898 H   0  0  0  0  0  0
  -26.5785  -17.6928   21.1667 H   0  0  0  0  0  0
  -26.8119  -18.1441   18.7059 H   0  0  0  0  0  0
  -28.4007  -17.4027   18.6505 H   0  0  0  0  0  0
  -28.7241  -18.3267   22.0561 H   0  0  0  0  0  0
  -29.4186  -25.3317   23.6540 H   0  0  0  0  0  0
  -28.1967  -26.1417   22.6905 H   0  0  0  0  0  0
  -29.8560  -26.0062   22.0855 H   0  0  0  0  0  0
  -26.8441  -20.6713   18.3457 H   0  0  0  0  0  0
  -25.8195  -21.4214   19.5615 H   0  0  0  0  0  0
  -25.6263  -19.7426   19.2522 H   0  0  0  0  0  0
  -31.4114  -18.7575   21.2062 H   0  0  0  0  0  0
  -32.2142  -17.2027   21.1634 H   0  0  0  0  0  0
  -31.1880  -17.6279   22.5430 H   0  0  0  0  0  0
  -27.0731  -19.9826   24.6143 H   0  0  0  0  0  0
  -26.7702  -21.6611   24.2385 H   0  0  0  0  0  0
  -28.2649  -21.1921   25.0961 H   0  0  0  0  0  0
  -27.7979  -25.1658   18.7397 H   0  0  0  0  0  0
  -29.4394  -25.2533   19.1486 H   0  0  0  0  0  0
  -26.8791  -19.8748   21.2540 H   0  0  0  0  0  0
  -30.3091  -17.1360   19.6788 H   0  0  0  0  0  0
  -29.0851  -15.3778   21.5569 H   0  0  0  0  0  0
  -29.1686  -19.4018   19.4755 H   0  0  0  0  0  0
  1 25  1  0  0  0
  1 30  2  0  0  0
  1 87  1  0  0  0
  2  3  1  0  0  0
  2 25  1  0  0  0
  2 90  1  0  0  0
  2 91  1  0  0  0
  3  4  1  0  0  0
  3 92  1  0  0  0
  3 93  1  0  0  0
  4  5  1  0  0  0
  4 94  1  0  0  0
  4 95  1  0  0  0
  5  6  1  0  0  0
  5 26  1  0  0  0
  5 96  1  0  0  0
  6 25  1  0  0  0
  6 97  1  0  0  0
  6 98  1  0  0  0
  7  8  2  0  0  0
  7 26  1  0  0  0
  7 29  1  0  0  0
  8  9  1  0  0  0
  8 22  1  0  0  0
  9 10  1  0  0  0
  9 27  2  0  0  0
 10 11  2  0  0  0
 10 15  1  0  0  0
 11 12  1  0  0  0
 11 99  1  0  0  0
 12 13  2  0  0  0
 12100  1  0  0  0
 13 14  1  0  0  0
 13 31  1  0  0  0
 14 15  2  0  0  0
 14101  1  0  0  0
 15102  1  0  0  0
 16 17  2  0  0  0
 16 21  1  0  0  0
 16 31  1  0  0  0
 17 18  1  0  0  0
 17103  1  0  0  0
 18 19  2  0  0  0
 18104  1  0  0  0
 19 20  1  0  0  0
 19 24  1  0  0  0
 20 21  2  0  0  0
 20105  1  0  0  0
 21 23  1  0  0  0
 22 28  1  0  0  0
 22 32  2  0  0  0
 26 27  1  0  0  0
 28106  1  0  0  0
 28107  1  0  0  0
 29108  1  0  0  0
 29109  1  0  0  0
 33 34  1  0  0  0
 33 66  1  0  0  0
 33 70  2  0  0  0
 34 36  1  0  0  0
 34 59  1  0  0  0
 34110  1  0  0  0
 35 44  2  0  0  0
 35 45  1  0  0  0
 35 68  1  0  0  0
 36 56  1  0  0  0
 36111  1  0  0  0
 37 39  1  0  0  0
 37 47  1  0  0  0
 37 66  1  0  0  0
 37112  1  0  0  0
 38 43  2  0  0  0
 38 46  1  0  0  0
 38 47  1  0  0  0
 39 64  1  0  0  0
 39 67  2  0  0  0
 40 52  1  0  0  0
 40 53  2  0  0  0
 40 58  1  0  0  0
 41113  1  0  0  0
 41114  1  0  0  0
 41115  1  0  0  0
 41 48  1  0  0  0
 42 43  1  0  0  0
 42 66  1  0  0  0
 42116  1  0  0  0
 42117  1  0  0  0
 43 44  1  0  0  0
 44118  1  0  0  0
 45 46  2  0  0  0
 45119  1  0  0  0
 46120  1  0  0  0
 47121  1  0  0  0
 47122  1  0  0  0
 48 56  1  0  0  0
 48 65  1  0  0  0
 48123  1  0  0  0
 49 50  1  0  0  0
 49 53  1  0  0  0
 49 64  1  0  0  0
 49124  1  0  0  0
 50 51  1  0  0  0
 50125  1  0  0  0
 50126  1  0  0  0
 51 52  1  0  0  0
 51127  1  0  0  0
 51128  1  0  0  0
 52129  1  0  0  0
 52130  1  0  0  0
 53 54  1  0  0  0
 54 55  2  0  0  0
 54131  1  0  0  0
 55 57  1  0  0  0
 55132  1  0  0  0
 56 69  2  0  0  0
 57 58  2  0  0  0
 57133  1  0  0  0
 58134  1  0  0  0
 59 60  1  0  0  0
 59 61  1  0  0  0
 59 62  1  0  0  0
 60135  1  0  0  0
 60136  1  0  0  0
 60137  1  0  0  0
 61138  1  0  0  0
 61139  1  0  0  0
 61140  1  0  0  0
 62141  1  0  0  0
 62142  1  0  0  0
 62143  1  0  0  0
 63 65  1  0  0  0
 63144  1  0  0  0
 63145  1  0  0  0
 63146  1  0  0  0
 64147  1  0  0  0
 65148  1  0  0  0
 68 84  1  0  0  0
 71 73  2  0  0  0
 71 74  1  0  0  0
 71149  1  0  0  0
 72 75  2  0  0  0
 72 76  1  0  0  0
 72150  1  0  0  0
 73 75  1  0  0  0
 73 84  1  0  0  0
 74 76  2  0  0  0
 74 85  1  0  0  0
 75 80  1  0  0  0
 76 89  1  0  0  0
 77 78  1  0  0  0
 77151  1  0  0  0
 77152  1  0  0  0
 77 79  1  0  0  0
 78153  1  0  0  0
 78154  1  0  0  0
 78 88  1  0  0  0
 79 86  1  0  0  0
 79 88  1  0  0  0
 79155  1  0  0  0
 80156  1  0  0  0
 80157  1  0  0  0
 80158  1  0  0  0
 81159  1  0  0  0
 81160  1  0  0  0
 81161  1  0  0  0
 81 85  1  0  0  0
 82162  1  0  0  0
 82163  1  0  0  0
 82164  1  0  0  0
 82 86  1  0  0  0
 83 89  1  0  0  0
 83165  1  0  0  0
 83166  1  0  0  0
 83167  1  0  0  0
 84168  1  0  0  0
 84169  1  0  0  0
 85 88  1  0  0  0
 85170  1  0  0  0
 86 87  1  0  0  0
 86171  1  0  0  0
 87172  1  0  0  0
 88173  1  0  0  0
M  CHG  1  88   1
M  ISO  4   1 100  68 101  84 101  87 100
M  END
> <chiral flag>
0

> <version>
0

> <s_m_source_file>
/data/baiqing/PycharmProjects/Reinvent-master-3.2/result/LINK_invent/BTK/process_docking_weight1_custom_sum_contain_oxygen_bond_distance_aromatic_linkinvent_7_9_3/rearranged_h_0154.sdf

> <i_m_source_file_index>
76

> <r_mmod_Potential_Energy-OPLS-2005>
22.969554901123

> <r_mmod_Stretch_Energy-OPLS-2005>
82.7949600219727

> <r_mmod_Bend_Energy-OPLS-2005>
174.094619750977

> <r_mmod_Torsional_Energy-OPLS-2005>
280.678985595703

> <r_mmod_Improper_Torsional_Energy-OPLS-2005>
8.33135414123535

> <r_mmod_Van_der_Waal_Energy-OPLS-2005>
183.294799804688

> <r_mmod_Electrostatic_Energy-OPLS-2005>
-302.893371582031

> <r_mmod_Solvation_Energy-OPLS-2005>
-431.155670166016

> <b_mmod_Minimization_Converged-OPLS-2005>
0

> <r_mmod_RMS_Derivative-OPLS-2005>
7.29430723190308

$$$$
77
                    3D
 Structure written by MMmdl.
175184  0  0  1  0            999 V2000
  -30.8143  -14.2338   20.7993 C   0  0  0  0  0  0
  -30.4051  -12.2928   19.3315 C   0  0  0  0  0  0
  -29.4546  -12.5552   18.1524 C   0  0  0  0  0  0
  -27.9877  -12.3887   18.5842 C   0  0  0  0  0  0
  -27.6597  -13.1948   19.8660 C   0  0  2  0  0  0
  -28.6952  -12.9001   20.9676 C   0  0  0  0  0  0
  -25.2577  -13.8140   20.5642 C   0  0  0  0  0  0
  -24.1828  -13.0439   20.9135 C   0  0  0  0  0  0
  -24.6371  -11.6896   20.8727 C   0  0  0  0  0  0
  -23.9046  -10.4293   21.0409 C   0  0  0  0  0  0
  -24.3605   -9.4206   21.9187 C   0  0  0  0  0  0
  -23.6285   -8.2235   22.0756 C   0  0  0  0  0  0
  -22.4261   -8.0271   21.3551 C   0  0  0  0  0  0
  -21.9899   -9.0240   20.4647 C   0  0  0  0  0  0
  -22.7226  -10.2126   20.3059 C   0  0  0  0  0  0
  -21.6847   -6.0732   22.5282 C   0  0  0  0  0  0
  -21.4000   -6.5638   23.8217 C   0  0  0  0  0  0
  -21.3658   -5.6802   24.9180 C   0  0  0  0  0  0
  -21.6041   -4.3060   24.7232 C   0  0  0  0  0  0
  -21.8824   -3.8147   23.4363 C   0  0  0  0  0  0
  -21.9189   -4.6963   22.3411 C   0  0  0  0  0  0
  -22.7859  -13.5232   21.1842 C   0  0  0  0  0  0
  -22.1661   -4.2144   21.0991 F   0  0  0  0  0  0
  -21.5633   -3.4546   25.7747 F   0  0  0  0  0  0
  -30.0443  -13.1824   20.4400 N   0  0  0  0  0  0
  -26.2993  -12.9291   20.3299 N   0  0  0  0  0  0
  -25.9274  -11.6465   20.5702 N   0  0  0  0  0  0
  -22.0513  -12.8236   22.0403 N   0  0  0  0  0  0
  -25.4346  -15.1857   20.4055 N   0  0  0  0  0  0
  -31.7445  -14.6808   20.1172 O   0  0  0  0  0  0
  -21.6633   -6.8872   21.4245 O   0  0  0  0  0  0
  -22.3562  -14.5554   20.6701 O   0  0  0  0  0  0
  -24.6169  -31.8712   23.2154 C   0  0  0  0  0  0
  -25.9080  -32.4832   23.8415 C   0  0  1  0  0  0
  -27.2159  -27.4296   20.1079 C   0  0  0  0  0  0
  -25.5961  -33.8628   24.2364 N   0  0  0  0  0  0
  -23.4008  -30.4988   21.5544 C   0  0  2  0  0  0
  -24.8428  -28.9601   20.1205 C   0  0  0  0  0  0
  -22.7407  -29.4700   22.5013 C   0  0  0  0  0  0
  -18.0279  -28.1381   22.8511 C   0  0  0  0  0  0
  -24.1479  -36.7256   23.2643 C   0  0  0  0  0  0
  -25.9315  -30.8328   21.3707 C   0  0  0  0  0  0
  -26.0048  -29.4649   20.7213 C   0  0  0  0  0  0
  -27.1970  -28.7052   20.7174 C   0  0  0  0  0  0
  -26.0451  -26.9400   19.4941 C   0  0  0  0  0  0
  -24.8561  -27.6946   19.5078 C   0  0  0  0  0  0
  -23.6085  -29.8324   20.1677 C   0  0  0  0  0  0
  -25.4115  -36.3106   24.0333 C   0  0  1  0  0  0
  -20.5868  -28.3674   23.1314 C   0  0  2  0  0  0
  -20.6772  -26.9414   22.5406 C   0  0  0  0  0  0
  -19.5748  -26.6396   21.5207 C   0  0  0  0  0  0
  -18.1915  -26.7928   22.1614 C   0  0  0  0  0  0
  -19.1531  -28.8850   23.2902 C   0  0  0  0  0  0
  -18.9461  -30.1446   23.8917 C   0  0  0  0  0  0
  -17.6466  -30.6603   24.0560 C   0  0  0  0  0  0
  -25.9056  -34.9473   23.5137 C   0  0  0  0  0  0
  -16.5362  -29.9100   23.6339 C   0  0  0  0  0  0
  -16.7266  -28.6502   23.0388 C   0  0  0  0  0  0
  -26.4535  -31.6599   25.0723 C   0  0  0  0  0  0
  -25.3807  -31.3635   26.1469 C   0  0  0  0  0  0
  -27.0394  -30.3060   24.6063 C   0  0  0  0  0  0
  -27.6100  -32.4334   25.7485 C   0  0  0  0  0  0
  -27.5576  -37.1787   24.8490 C   0  0  0  0  0  0
  -21.4143  -29.3045   22.3726 N   0  0  0  0  0  0
  -26.4302  -37.3791   23.9417 N   0  0  0  0  0  0
  -24.6677  -31.0829   22.1044 N   0  0  0  0  0  0
  -23.4199  -28.8251   23.3042 O   0  0  0  0  0  0
  -28.3717  -26.6927   20.0191 O   0  0  0  0  0  0
  -26.5595  -34.8908   22.4686 O   0  0  0  0  0  0
  -23.5363  -32.1503   23.7543 O   0  0  0  0  0  0
  -31.0531  -17.7683   21.9738 C   0  0  0  0  0  0
  -29.9889  -17.2073   24.0732 C   0  0  0  0  0  0
  -29.5705  -19.4117   23.0526 C   0  0  0  0  0  0
  -30.8044  -16.8437   22.9915 C   0  0  0  0  0  0
  -30.4710  -19.0474   21.9971 C   0  0  0  0  0  0
  -29.3854  -18.4810   24.1212 C   0  0  0  0  0  0
  -27.8691  -20.8087   21.7614 C   0  0  0  0  0  0
  -27.1801  -22.1695   21.5847 C   0  0  0  0  0  0
  -28.8264  -23.3119   22.9700 C   0  0  0  0  0  0
  -28.7570  -20.7281   23.0278 C   0  0  2  0  0  0
  -29.6053  -22.0080   23.2875 C   0  0  2  0  0  0
  -30.8908  -19.9332   20.8321 C   0  0  0  0  0  0
  -28.5511  -18.7905   25.3567 C   0  0  0  0  0  0
  -30.1481  -22.0524   24.7287 C   0  0  0  0  0  0
  -31.4138  -15.4660   22.8965 C   0  0  0  0  0  0
  -27.5984  -24.5764   21.1751 C   0  0  0  0  0  0
  -28.6304  -25.7333   21.0529 C   0  0  0  0  0  0
  -30.6029  -14.5930   22.0688 N   0  0  0  0  0  0
  -28.1733  -23.2729   21.6338 N   0  3  2  0  0  0
  -31.4406  -12.4235   19.0133 H   0  0  0  0  0  0
  -30.3219  -11.2544   19.6578 H   0  0  0  0  0  0
  -29.6765  -11.8794   17.3252 H   0  0  0  0  0  0
  -29.6079  -13.5664   17.7695 H   0  0  0  0  0  0
  -27.8044  -11.3267   18.7526 H   0  0  0  0  0  0
  -27.3209  -12.6868   17.7737 H   0  0  0  0  0  0
  -27.7288  -14.2533   19.6141 H   0  0  0  0  0  0
  -28.6452  -11.8492   21.2586 H   0  0  0  0  0  0
  -28.4306  -13.4663   21.8603 H   0  0  0  0  0  0
  -25.2760   -9.5675   22.4754 H   0  0  0  0  0  0
  -24.0000   -7.4625   22.7482 H   0  0  0  0  0  0
  -21.0834   -8.8763   19.8950 H   0  0  0  0  0  0
  -22.3697  -10.9662   19.6157 H   0  0  0  0  0  0
  -21.1989   -7.6145   23.9719 H   0  0  0  0  0  0
  -21.1470   -6.0527   25.9086 H   0  0  0  0  0  0
  -22.0603   -2.7602   23.2868 H   0  0  0  0  0  0
  -22.4147  -11.9884   22.4769 H   0  0  0  0  0  0
  -21.1126  -13.1255   22.2625 H   0  0  0  0  0  0
  -24.6780  -15.8504   20.5234 H   0  0  0  0  0  0
  -26.3048  -15.6187   20.1219 H   0  0  0  0  0  0
  -26.7141  -32.5557   23.1156 H   0  0  0  0  0  0
  -25.0191  -33.9785   25.0571 H   0  0  0  0  0  0
  -22.6885  -31.3154   21.4170 H   0  0  0  0  0  0
  -23.3767  -35.9567   23.3354 H   0  0  0  0  0  0
  -24.3571  -36.8833   22.2055 H   0  0  0  0  0  0
  -23.7195  -37.6440   23.6655 H   0  0  0  0  0  0
  -26.0499  -31.6007   20.6058 H   0  0  0  0  0  0
  -26.8168  -30.8828   21.9921 H   0  0  0  0  0  0
  -28.1017  -29.0902   21.1693 H   0  0  0  0  0  0
  -26.0516  -25.9824   18.9940 H   0  0  0  0  0  0
  -23.9633  -27.3046   19.0394 H   0  0  0  0  0  0
  -23.7223  -30.6124   19.4135 H   0  0  0  0  0  0
  -22.7301  -29.2564   19.8685 H   0  0  0  0  0  0
  -25.1292  -36.1956   25.0822 H   0  0  0  0  0  0
  -20.9955  -28.3284   24.1439 H   0  0  0  0  0  0
  -20.5690  -26.2298   23.3610 H   0  0  0  0  0  0
  -21.6642  -26.7489   22.1183 H   0  0  0  0  0  0
  -19.6918  -25.6310   21.1248 H   0  0  0  0  0  0
  -19.6683  -27.3206   20.6736 H   0  0  0  0  0  0
  -17.4179  -26.6713   21.4011 H   0  0  0  0  0  0
  -18.0277  -26.0054   22.8990 H   0  0  0  0  0  0
  -19.7945  -30.7221   24.2329 H   0  0  0  0  0  0
  -17.5040  -31.6286   24.5151 H   0  0  0  0  0  0
  -15.5362  -30.3001   23.7665 H   0  0  0  0  0  0
  -15.8657  -28.0807   22.7147 H   0  0  0  0  0  0
  -24.6017  -30.6960   25.7774 H   0  0  0  0  0  0
  -24.8954  -32.2745   26.4983 H   0  0  0  0  0  0
  -25.8190  -30.8770   27.0191 H   0  0  0  0  0  0
  -26.2905  -29.6735   24.1283 H   0  0  0  0  0  0
  -27.4370  -29.7395   25.4493 H   0  0  0  0  0  0
  -27.8661  -30.4397   23.9074 H   0  0  0  0  0  0
  -27.2738  -33.3648   26.2060 H   0  0  0  0  0  0
  -28.3926  -32.6877   25.0321 H   0  0  0  0  0  0
  -28.0753  -31.8450   26.5409 H   0  0  0  0  0  0
  -28.2626  -38.0058   24.7554 H   0  0  0  0  0  0
  -28.1040  -36.2591   24.6331 H   0  0  0  0  0  0
  -27.2291  -37.1448   25.8894 H   0  0  0  0  0  0
  -20.9321  -29.8703   21.6886 H   0  0  0  0  0  0
  -26.0191  -38.2863   24.1434 H   0  0  0  0  0  0
  -31.6940  -17.4813   21.1510 H   0  0  0  0  0  0
  -29.8156  -16.4929   24.8685 H   0  0  0  0  0  0
  -28.4261  -20.6055   20.8529 H   0  0  0  0  0  0
  -27.1151  -20.0209   21.8069 H   0  0  0  0  0  0
  -26.4182  -22.3094   22.3551 H   0  0  0  0  0  0
  -26.6563  -22.1748   20.6271 H   0  0  0  0  0  0
  -29.5261  -24.1450   23.0165 H   0  0  0  0  0  0
  -28.0723  -23.4986   23.7365 H   0  0  0  0  0  0
  -28.0266  -20.7054   23.8366 H   0  0  0  0  0  0
  -30.4833  -22.0064   22.6497 H   0  0  0  0  0  0
  -31.9803  -19.9454   20.7663 H   0  0  0  0  0  0
  -30.5697  -20.9665   20.8789 H   0  0  0  0  0  0
  -30.5175  -19.5137   19.8987 H   0  0  0  0  0  0
  -28.7093  -18.0422   26.1337 H   0  0  0  0  0  0
  -27.4869  -18.8003   25.1248 H   0  0  0  0  0  0
  -28.8346  -19.7481   25.7914 H   0  0  0  0  0  0
  -29.3392  -22.0676   25.4611 H   0  0  0  0  0  0
  -30.7530  -22.9450   24.8899 H   0  0  0  0  0  0
  -30.7789  -21.1897   24.9491 H   0  0  0  0  0  0
  -31.4833  -15.0253   23.8917 H   0  0  0  0  0  0
  -32.4346  -15.5386   22.5171 H   0  0  0  0  0  0
  -27.1673  -24.3886   20.1923 H   0  0  0  0  0  0
  -26.7753  -24.8794   21.8259 H   0  0  0  0  0  0
  -29.6023  -25.3082   20.8010 H   0  0  0  0  0  0
  -28.7598  -26.2373   22.0109 H   0  0  0  0  0  0
  -29.8405  -14.1204   22.5300 H   0  0  0  0  0  0
  -28.8850  -23.0317   20.9589 H   0  0  0  0  0  0
  1 25  1  0  0  0
  1 30  2  0  0  0
  1 88  1  0  0  0
  2  3  1  0  0  0
  2 25  1  0  0  0
  2 90  1  0  0  0
  2 91  1  0  0  0
  3  4  1  0  0  0
  3 92  1  0  0  0
  3 93  1  0  0  0
  4  5  1  0  0  0
  4 94  1  0  0  0
  4 95  1  0  0  0
  5  6  1  0  0  0
  5 26  1  0  0  0
  5 96  1  0  0  0
  6 25  1  0  0  0
  6 97  1  0  0  0
  6 98  1  0  0  0
  7  8  2  0  0  0
  7 26  1  0  0  0
  7 29  1  0  0  0
  8  9  1  0  0  0
  8 22  1  0  0  0
  9 10  1  0  0  0
  9 27  2  0  0  0
 10 11  2  0  0  0
 10 15  1  0  0  0
 11 12  1  0  0  0
 11 99  1  0  0  0
 12 13  2  0  0  0
 12100  1  0  0  0
 13 14  1  0  0  0
 13 31  1  0  0  0
 14 15  2  0  0  0
 14101  1  0  0  0
 15102  1  0  0  0
 16 17  2  0  0  0
 16 21  1  0  0  0
 16 31  1  0  0  0
 17 18  1  0  0  0
 17103  1  0  0  0
 18 19  2  0  0  0
 18104  1  0  0  0
 19 20  1  0  0  0
 19 24  1  0  0  0
 20 21  2  0  0  0
 20105  1  0  0  0
 21 23  1  0  0  0
 22 28  1  0  0  0
 22 32  2  0  0  0
 26 27  1  0  0  0
 28106  1  0  0  0
 28107  1  0  0  0
 29108  1  0  0  0
 29109  1  0  0  0
 33 34  1  0  0  0
 33 66  1  0  0  0
 33 70  2  0  0  0
 34 36  1  0  0  0
 34 59  1  0  0  0
 34110  1  0  0  0
 35 44  2  0  0  0
 35 45  1  0  0  0
 35 68  1  0  0  0
 36 56  1  0  0  0
 36111  1  0  0  0
 37 39  1  0  0  0
 37 47  1  0  0  0
 37 66  1  0  0  0
 37112  1  0  0  0
 38 43  2  0  0  0
 38 46  1  0  0  0
 38 47  1  0  0  0
 39 64  1  0  0  0
 39 67  2  0  0  0
 40 52  1  0  0  0
 40 53  2  0  0  0
 40 58  1  0  0  0
 41113  1  0  0  0
 41114  1  0  0  0
 41115  1  0  0  0
 41 48  1  0  0  0
 42 43  1  0  0  0
 42 66  1  0  0  0
 42116  1  0  0  0
 42117  1  0  0  0
 43 44  1  0  0  0
 44118  1  0  0  0
 45 46  2  0  0  0
 45119  1  0  0  0
 46120  1  0  0  0
 47121  1  0  0  0
 47122  1  0  0  0
 48 56  1  0  0  0
 48 65  1  0  0  0
 48123  1  0  0  0
 49 50  1  0  0  0
 49 53  1  0  0  0
 49 64  1  0  0  0
 49124  1  0  0  0
 50 51  1  0  0  0
 50125  1  0  0  0
 50126  1  0  0  0
 51 52  1  0  0  0
 51127  1  0  0  0
 51128  1  0  0  0
 52129  1  0  0  0
 52130  1  0  0  0
 53 54  1  0  0  0
 54 55  2  0  0  0
 54131  1  0  0  0
 55 57  1  0  0  0
 55132  1  0  0  0
 56 69  2  0  0  0
 57 58  2  0  0  0
 57133  1  0  0  0
 58134  1  0  0  0
 59 60  1  0  0  0
 59 61  1  0  0  0
 59 62  1  0  0  0
 60135  1  0  0  0
 60136  1  0  0  0
 60137  1  0  0  0
 61138  1  0  0  0
 61139  1  0  0  0
 61140  1  0  0  0
 62141  1  0  0  0
 62142  1  0  0  0
 62143  1  0  0  0
 63 65  1  0  0  0
 63144  1  0  0  0
 63145  1  0  0  0
 63146  1  0  0  0
 64147  1  0  0  0
 65148  1  0  0  0
 68 87  1  0  0  0
 71 74  2  0  0  0
 71 75  1  0  0  0
 71149  1  0  0  0
 72 74  1  0  0  0
 72 76  2  0  0  0
 72150  1  0  0  0
 73 75  2  0  0  0
 73 76  1  0  0  0
 73 80  1  0  0  0
 74 85  1  0  0  0
 75 82  1  0  0  0
 76 83  1  0  0  0
 77 78  1  0  0  0
 77 80  1  0  0  0
 77151  1  0  0  0
 77152  1  0  0  0
 78 89  1  0  0  0
 78153  1  0  0  0
 78154  1  0  0  0
 79 81  1  0  0  0
 79 89  1  0  0  0
 79155  1  0  0  0
 79156  1  0  0  0
 80 81  1  0  0  0
 80157  1  0  0  0
 81 84  1  0  0  0
 81158  1  0  0  0
 82159  1  0  0  0
 82160  1  0  0  0
 82161  1  0  0  0
 83162  1  0  0  0
 83163  1  0  0  0
 83164  1  0  0  0
 84165  1  0  0  0
 84166  1  0  0  0
 84167  1  0  0  0
 85 88  1  0  0  0
 85168  1  0  0  0
 85169  1  0  0  0
 86 87  1  0  0  0
 86170  1  0  0  0
 86171  1  0  0  0
 86 89  1  0  0  0
 87172  1  0  0  0
 87173  1  0  0  0
 88174  1  0  0  0
 89175  1  0  0  0
M  CHG  1  89   1
M  ISO  4   1 100  68 101  87 101  88 100
M  END
> <chiral flag>
0

> <version>
0

> <s_m_source_file>
/data/baiqing/PycharmProjects/Reinvent-master-3.2/result/LINK_invent/BTK/process_docking_weight1_custom_sum_contain_oxygen_bond_distance_aromatic_linkinvent_7_9_3/rearranged_h_0154.sdf

> <i_m_source_file_index>
77

> <r_mmod_Potential_Energy-OPLS-2005>
-132.503463745117

> <r_mmod_Stretch_Energy-OPLS-2005>
40.1312637329102

> <r_mmod_Bend_Energy-OPLS-2005>
112.016960144043

> <r_mmod_Torsional_Energy-OPLS-2005>
269.686981201172

> <r_mmod_Improper_Torsional_Energy-OPLS-2005>
4.52026605606079

> <r_mmod_Van_der_Waal_Energy-OPLS-2005>
159.854675292969

> <r_mmod_Electrostatic_Energy-OPLS-2005>
-316.59716796875

> <r_mmod_Solvation_Energy-OPLS-2005>
-415.168609619141

> <b_mmod_Minimization_Converged-OPLS-2005>
0

> <r_mmod_RMS_Derivative-OPLS-2005>
3.88001012802124

$$$$
78
                    3D
 Structure written by MMmdl.
162170  0  0  1  0            999 V2000
  -30.7551  -14.3928   20.6571 C   0  0  0  0  0  0
  -30.4149  -12.2953   19.4007 C   0  0  0  0  0  0
  -29.4830  -12.5150   18.1946 C   0  0  0  0  0  0
  -28.0074  -12.3740   18.6124 C   0  0  0  0  0  0
  -27.6636  -13.2045   19.8766 C   0  0  2  0  0  0
  -28.7023  -12.9611   20.9931 C   0  0  0  0  0  0
  -25.2597  -13.8167   20.5676 C   0  0  0  0  0  0
  -24.1844  -13.0443   20.9175 C   0  0  0  0  0  0
  -24.6395  -11.6912   20.8742 C   0  0  0  0  0  0
  -23.9065  -10.4294   21.0410 C   0  0  0  0  0  0
  -24.3620   -9.4210   21.9189 C   0  0  0  0  0  0
  -23.6295   -8.2249   22.0757 C   0  0  0  0  0  0
  -22.4277   -8.0287   21.3543 C   0  0  0  0  0  0
  -21.9916   -9.0262   20.4641 C   0  0  0  0  0  0
  -22.7243  -10.2142   20.3053 C   0  0  0  0  0  0
  -21.6853   -6.0744   22.5278 C   0  0  0  0  0  0
  -21.4014   -6.5650   23.8217 C   0  0  0  0  0  0
  -21.3657   -5.6797   24.9178 C   0  0  0  0  0  0
  -21.6046   -4.3059   24.7225 C   0  0  0  0  0  0
  -21.8819   -3.8154   23.4346 C   0  0  0  0  0  0
  -21.9191   -4.6970   22.3401 C   0  0  0  0  0  0
  -22.7866  -13.5243   21.1847 C   0  0  0  0  0  0
  -22.1662   -4.2157   21.0973 F   0  0  0  0  0  0
  -21.5627   -3.4541   25.7736 F   0  0  0  0  0  0
  -30.0400  -13.2563   20.4487 N   0  0  0  0  0  0
  -26.3031  -12.9329   20.3371 N   0  0  0  0  0  0
  -25.9317  -11.6487   20.5763 N   0  0  0  0  0  0
  -22.0515  -12.8230   22.0407 N   0  0  0  0  0  0
  -25.4335  -15.1881   20.4090 N   0  0  0  0  0  0
  -31.8072  -14.6467   20.0630 O   0  0  0  0  0  0
  -21.6635   -6.8886   21.4234 O   0  0  0  0  0  0
  -22.3548  -14.5548   20.6699 O   0  0  0  0  0  0
  -24.6119  -31.8692   23.2137 C   0  0  0  0  0  0
  -25.9022  -32.4818   23.8413 C   0  0  1  0  0  0
  -27.2344  -27.4523   20.0744 C   0  0  0  0  0  0
  -25.5862  -33.8618   24.2336 N   0  0  0  0  0  0
  -23.3988  -30.4957   21.5533 C   0  0  2  0  0  0
  -24.8409  -28.9601   20.1176 C   0  0  0  0  0  0
  -22.7378  -29.4681   22.4999 C   0  0  0  0  0  0
  -18.0264  -28.1378   22.8511 C   0  0  0  0  0  0
  -24.1480  -36.7350   23.2642 C   0  0  0  0  0  0
  -25.9266  -30.8342   21.3678 C   0  0  0  0  0  0
  -25.9992  -29.4678   20.7186 C   0  0  0  0  0  0
  -27.1918  -28.7143   20.7073 C   0  0  0  0  0  0
  -26.0548  -26.9533   19.4739 C   0  0  0  0  0  0
  -24.8612  -27.6989   19.4993 C   0  0  0  0  0  0
  -23.6053  -29.8285   20.1671 C   0  0  0  0  0  0
  -25.4098  -36.3124   24.0345 C   0  0  1  0  0  0
  -20.5851  -28.3669   23.1332 C   0  0  2  0  0  0
  -20.6742  -26.9406   22.5428 C   0  0  0  0  0  0
  -19.5728  -26.6391   21.5214 C   0  0  0  0  0  0
  -18.1908  -26.7931   22.1633 C   0  0  0  0  0  0
  -19.1513  -28.8836   23.2919 C   0  0  0  0  0  0
  -18.9441  -30.1440   23.8928 C   0  0  0  0  0  0
  -17.6443  -30.6586   24.0572 C   0  0  0  0  0  0
  -25.9026  -34.9476   23.5147 C   0  0  0  0  0  0
  -16.5334  -29.9101   23.6310 C   0  0  0  0  0  0
  -16.7254  -28.6508   23.0349 C   0  0  0  0  0  0
  -26.4464  -31.6578   25.0730 C   0  0  0  0  0  0
  -25.3731  -31.3623   26.1461 C   0  0  0  0  0  0
  -27.0329  -30.3030   24.6111 C   0  0  0  0  0  0
  -27.6034  -32.4292   25.7491 C   0  0  0  0  0  0
  -27.5589  -37.1816   24.8463 C   0  0  0  0  0  0
  -21.4112  -29.3047   22.3734 N   0  0  0  0  0  0
  -26.4292  -37.3803   23.9422 N   0  0  0  0  0  0
  -24.6645  -31.0797   22.1037 N   0  0  0  0  0  0
  -23.4157  -28.8224   23.3037 O   0  0  0  0  0  0
  -28.4315  -26.7679   20.0742 O   0  0  0  0  0  0
  -26.5615  -34.8916   22.4725 O   0  0  0  0  0  0
  -23.5317  -32.1453   23.7531 O   0  0  0  0  0  0
  -29.5911  -22.1595   22.1343 C   0  0  0  0  0  0
  -29.6531  -20.7902   22.4520 C   0  0  0  0  0  0
  -29.2076  -19.8501   21.4880 C   0  0  0  0  0  0
  -28.7156  -20.3486   20.2565 C   0  0  0  0  0  0
  -29.0721  -22.5584   20.8963 C   0  0  0  0  0  0
  -30.1979  -20.3718   23.8081 C   0  0  0  0  0  0
  -28.2483  -19.4305   19.1408 C   0  0  0  0  0  0
  -29.2665  -18.3441   21.7714 C   0  0  0  0  0  0
  -30.6260  -17.7257   21.3934 C   0  0  0  0  0  0
  -30.9523  -16.4018   22.1165 C   0  0  0  0  0  0
  -28.6644  -25.7640   19.0839 C   0  0  0  0  0  0
  -28.2265  -24.3502   19.5104 C   0  0  0  0  0  0
  -28.6360  -21.6681   19.9789 N   0  0  0  0  0  0
  -30.2545  -15.2331   21.5750 N   0  0  0  0  0  0
  -29.0355  -23.9043   20.5982 O   0  0  0  0  0  0
  -31.4578  -12.3951   19.0926 H   0  0  0  0  0  0
  -30.3154  -11.2779   19.7814 H   0  0  0  0  0  0
  -29.7156  -11.8005   17.4030 H   0  0  0  0  0  0
  -29.6536  -13.5060   17.7720 H   0  0  0  0  0  0
  -27.8137  -11.3174   18.8003 H   0  0  0  0  0  0
  -27.3528  -12.6581   17.7870 H   0  0  0  0  0  0
  -27.7185  -14.2562   19.5932 H   0  0  0  0  0  0
  -28.6694  -11.9205   21.3199 H   0  0  0  0  0  0
  -28.4516  -13.5463   21.8782 H   0  0  0  0  0  0
  -25.2760   -9.5688   22.4768 H   0  0  0  0  0  0
  -23.9999   -7.4643   22.7477 H   0  0  0  0  0  0
  -21.0852   -8.8784   19.8944 H   0  0  0  0  0  0
  -22.3701  -10.9687   19.6163 H   0  0  0  0  0  0
  -21.2011   -7.6162   23.9719 H   0  0  0  0  0  0
  -21.1480   -6.0528   25.9080 H   0  0  0  0  0  0
  -22.0606   -2.7617   23.2839 H   0  0  0  0  0  0
  -22.4135  -11.9876   22.4758 H   0  0  0  0  0  0
  -21.1135  -13.1244   22.2627 H   0  0  0  0  0  0
  -24.6709  -15.8476   20.5195 H   0  0  0  0  0  0
  -26.2938  -15.6238   20.1015 H   0  0  0  0  0  0
  -26.7103  -32.5548   23.1185 H   0  0  0  0  0  0
  -24.9879  -33.9766   25.0385 H   0  0  0  0  0  0
  -22.6883  -31.3141   21.4167 H   0  0  0  0  0  0
  -23.3728  -35.9696   23.3294 H   0  0  0  0  0  0
  -24.3560  -36.8992   22.2055 H   0  0  0  0  0  0
  -23.7237  -37.6551   23.6677 H   0  0  0  0  0  0
  -26.0374  -31.5970   20.5961 H   0  0  0  0  0  0
  -26.8166  -30.8885   21.9836 H   0  0  0  0  0  0
  -28.0884  -29.1061   21.1690 H   0  0  0  0  0  0
  -26.0302  -25.9959   18.9769 H   0  0  0  0  0  0
  -23.9694  -27.3029   19.0330 H   0  0  0  0  0  0
  -23.7182  -30.6032   19.4072 H   0  0  0  0  0  0
  -22.7275  -29.2508   19.8710 H   0  0  0  0  0  0
  -25.1263  -36.2004   25.0838 H   0  0  0  0  0  0
  -20.9949  -28.3247   24.1454 H   0  0  0  0  0  0
  -20.5630  -26.2282   23.3625 H   0  0  0  0  0  0
  -21.6619  -26.7456   22.1237 H   0  0  0  0  0  0
  -19.6879  -25.6316   21.1223 H   0  0  0  0  0  0
  -19.6642  -27.3206   20.6740 H   0  0  0  0  0  0
  -17.4181  -26.6703   21.4026 H   0  0  0  0  0  0
  -18.0289  -26.0060   22.9011 H   0  0  0  0  0  0
  -19.7917  -30.7241   24.2317 H   0  0  0  0  0  0
  -17.5008  -31.6262   24.5183 H   0  0  0  0  0  0
  -15.5330  -30.3017   23.7607 H   0  0  0  0  0  0
  -15.8658  -28.0827   22.7063 H   0  0  0  0  0  0
  -24.5966  -30.6910   25.7779 H   0  0  0  0  0  0
  -24.8834  -32.2736   26.4896 H   0  0  0  0  0  0
  -25.8096  -30.8810   27.0221 H   0  0  0  0  0  0
  -26.2882  -29.6734   24.1226 H   0  0  0  0  0  0
  -27.4176  -29.7309   25.4563 H   0  0  0  0  0  0
  -27.8678  -30.4365   23.9229 H   0  0  0  0  0  0
  -27.2669  -33.3591   26.2079 H   0  0  0  0  0  0
  -28.3825  -32.6832   25.0297 H   0  0  0  0  0  0
  -28.0725  -31.8407   26.5387 H   0  0  0  0  0  0
  -28.2586  -38.0137   24.7546 H   0  0  0  0  0  0
  -28.1110  -36.2665   24.6247 H   0  0  0  0  0  0
  -27.2307  -37.1413   25.8864 H   0  0  0  0  0  0
  -20.9251  -29.8800   21.6995 H   0  0  0  0  0  0
  -26.0199  -38.2888   24.1420 H   0  0  0  0  0  0
  -29.9320  -22.9093   22.8356 H   0  0  0  0  0  0
  -30.4873  -21.2393   24.4015 H   0  0  0  0  0  0
  -31.0785  -19.7392   23.6988 H   0  0  0  0  0  0
  -29.4461  -19.8252   24.3777 H   0  0  0  0  0  0
  -29.0061  -18.6822   18.9119 H   0  0  0  0  0  0
  -28.0526  -19.9839   18.2211 H   0  0  0  0  0  0
  -27.3301  -18.9194   19.4266 H   0  0  0  0  0  0
  -28.4622  -17.8174   21.2569 H   0  0  0  0  0  0
  -29.0638  -18.1795   22.8294 H   0  0  0  0  0  0
  -31.4083  -18.4321   21.6718 H   0  0  0  0  0  0
  -30.7131  -17.6149   20.3116 H   0  0  0  0  0  0
  -30.7142  -16.4888   23.1779 H   0  0  0  0  0  0
  -32.0304  -16.2345   22.0742 H   0  0  0  0  0  0
  -28.1994  -26.0418   18.1358 H   0  0  0  0  0  0
  -29.7346  -25.7490   18.8769 H   0  0  0  0  0  0
  -28.3299  -23.7113   18.6336 H   0  0  0  0  0  0
  -27.1797  -24.3158   19.8093 H   0  0  0  0  0  0
  -29.3836  -14.9637   22.0089 H   0  0  0  0  0  0
  1 25  1  0  0  0
  1 30  2  0  0  0
  1 84  1  0  0  0
  2  3  1  0  0  0
  2 25  1  0  0  0
  2 86  1  0  0  0
  2 87  1  0  0  0
  3  4  1  0  0  0
  3 88  1  0  0  0
  3 89  1  0  0  0
  4  5  1  0  0  0
  4 90  1  0  0  0
  4 91  1  0  0  0
  5  6  1  0  0  0
  5 26  1  0  0  0
  5 92  1  0  0  0
  6 25  1  0  0  0
  6 93  1  0  0  0
  6 94  1  0  0  0
  7  8  2  0  0  0
  7 26  1  0  0  0
  7 29  1  0  0  0
  8  9  1  0  0  0
  8 22  1  0  0  0
  9 10  1  0  0  0
  9 27  2  0  0  0
 10 11  2  0  0  0
 10 15  1  0  0  0
 11 12  1  0  0  0
 11 95  1  0  0  0
 12 13  2  0  0  0
 12 96  1  0  0  0
 13 14  1  0  0  0
 13 31  1  0  0  0
 14 15  2  0  0  0
 14 97  1  0  0  0
 15 98  1  0  0  0
 16 17  2  0  0  0
 16 21  1  0  0  0
 16 31  1  0  0  0
 17 18  1  0  0  0
 17 99  1  0  0  0
 18 19  2  0  0  0
 18100  1  0  0  0
 19 20  1  0  0  0
 19 24  1  0  0  0
 20 21  2  0  0  0
 20101  1  0  0  0
 21 23  1  0  0  0
 22 28  1  0  0  0
 22 32  2  0  0  0
 26 27  1  0  0  0
 28102  1  0  0  0
 28103  1  0  0  0
 29104  1  0  0  0
 29105  1  0  0  0
 33 34  1  0  0  0
 33 66  1  0  0  0
 33 70  2  0  0  0
 34 36  1  0  0  0
 34 59  1  0  0  0
 34106  1  0  0  0
 35 44  2  0  0  0
 35 45  1  0  0  0
 35 68  1  0  0  0
 36 56  1  0  0  0
 36107  1  0  0  0
 37 39  1  0  0  0
 37 47  1  0  0  0
 37 66  1  0  0  0
 37108  1  0  0  0
 38 43  2  0  0  0
 38 46  1  0  0  0
 38 47  1  0  0  0
 39 64  1  0  0  0
 39 67  2  0  0  0
 40 52  1  0  0  0
 40 53  2  0  0  0
 40 58  1  0  0  0
 41109  1  0  0  0
 41110  1  0  0  0
 41111  1  0  0  0
 41 48  1  0  0  0
 42 43  1  0  0  0
 42 66  1  0  0  0
 42112  1  0  0  0
 42113  1  0  0  0
 43 44  1  0  0  0
 44114  1  0  0  0
 45 46  2  0  0  0
 45115  1  0  0  0
 46116  1  0  0  0
 47117  1  0  0  0
 47118  1  0  0  0
 48 56  1  0  0  0
 48 65  1  0  0  0
 48119  1  0  0  0
 49 50  1  0  0  0
 49 53  1  0  0  0
 49 64  1  0  0  0
 49120  1  0  0  0
 50 51  1  0  0  0
 50121  1  0  0  0
 50122  1  0  0  0
 51 52  1  0  0  0
 51123  1  0  0  0
 51124  1  0  0  0
 52125  1  0  0  0
 52126  1  0  0  0
 53 54  1  0  0  0
 54 55  2  0  0  0
 54127  1  0  0  0
 55 57  1  0  0  0
 55128  1  0  0  0
 56 69  2  0  0  0
 57 58  2  0  0  0
 57129  1  0  0  0
 58130  1  0  0  0
 59 60  1  0  0  0
 59 61  1  0  0  0
 59 62  1  0  0  0
 60131  1  0  0  0
 60132  1  0  0  0
 60133  1  0  0  0
 61134  1  0  0  0
 61135  1  0  0  0
 61136  1  0  0  0
 62137  1  0  0  0
 62138  1  0  0  0
 62139  1  0  0  0
 63 65  1  0  0  0
 63140  1  0  0  0
 63141  1  0  0  0
 63142  1  0  0  0
 64143  1  0  0  0
 65144  1  0  0  0
 68 81  1  0  0  0
 71 72  2  0  0  0
 71 75  1  0  0  0
 71145  1  0  0  0
 72 73  1  0  0  0
 72 76  1  0  0  0
 73 74  2  0  0  0
 73 78  1  0  0  0
 74 77  1  0  0  0
 74 83  1  0  0  0
 75 83  2  0  0  0
 75 85  1  0  0  0
 76146  1  0  0  0
 76147  1  0  0  0
 76148  1  0  0  0
 77149  1  0  0  0
 77150  1  0  0  0
 77151  1  0  0  0
 78 79  1  0  0  0
 78152  1  0  0  0
 78153  1  0  0  0
 79 80  1  0  0  0
 79154  1  0  0  0
 79155  1  0  0  0
 80 84  1  0  0  0
 80156  1  0  0  0
 80157  1  0  0  0
 81 82  1  0  0  0
 81158  1  0  0  0
 81159  1  0  0  0
 82 85  1  0  0  0
 82160  1  0  0  0
 82161  1  0  0  0
 84162  1  0  0  0
M  ISO  4   1 100  68 101  81 101  84 100
M  END
> <chiral flag>
0

> <version>
0

> <s_m_source_file>
/data/baiqing/PycharmProjects/Reinvent-master-3.2/result/LINK_invent/BTK/process_docking_weight1_custom_sum_contain_oxygen_bond_distance_aromatic_linkinvent_7_9_3/rearranged_h_0154.sdf

> <i_m_source_file_index>
78

> <r_mmod_Potential_Energy-OPLS-2005>
-284.897369384766

> <r_mmod_Stretch_Energy-OPLS-2005>
34.0454750061035

> <r_mmod_Bend_Energy-OPLS-2005>
104.632362365723

> <r_mmod_Torsional_Energy-OPLS-2005>
184.176406860352

> <r_mmod_Improper_Torsional_Energy-OPLS-2005>
1.86103785037994

> <r_mmod_Van_der_Waal_Energy-OPLS-2005>
166.857315063477

> <r_mmod_Electrostatic_Energy-OPLS-2005>
-560.881713867188

> <r_mmod_Solvation_Energy-OPLS-2005>
-223.722442626953

> <b_mmod_Minimization_Converged-OPLS-2005>
0

> <r_mmod_RMS_Derivative-OPLS-2005>
1.77626943588257

$$$$
79
                    3D
 Structure written by MMmdl.
159168  0  0  1  0            999 V2000
  -30.5575  -14.9103   20.4378 C   0  0  0  0  0  0
  -30.4454  -12.5352   19.5140 C   0  0  0  0  0  0
  -29.5303  -12.5376   18.2660 C   0  0  0  0  0  0
  -28.0552  -12.3406   18.6669 C   0  0  0  0  0  0
  -27.6345  -13.2521   19.8493 C   0  0  2  0  0  0
  -28.6628  -13.2392   20.9976 C   0  0  0  0  0  0
  -25.2468  -13.8236   20.5714 C   0  0  0  0  0  0
  -24.1783  -13.0453   20.9204 C   0  0  0  0  0  0
  -24.6397  -11.6937   20.8720 C   0  0  0  0  0  0
  -23.9083  -10.4303   21.0391 C   0  0  0  0  0  0
  -24.3631   -9.4217   21.9172 C   0  0  0  0  0  0
  -23.6307   -8.2250   22.0749 C   0  0  0  0  0  0
  -22.4288   -8.0287   21.3540 C   0  0  0  0  0  0
  -21.9922   -9.0259   20.4641 C   0  0  0  0  0  0
  -22.7254  -10.2136   20.3044 C   0  0  0  0  0  0
  -21.6860   -6.0741   22.5278 C   0  0  0  0  0  0
  -21.4017   -6.5643   23.8211 C   0  0  0  0  0  0
  -21.3664   -5.6797   24.9174 C   0  0  0  0  0  0
  -21.6038   -4.3057   24.7223 C   0  0  0  0  0  0
  -21.8824   -3.8150   23.4343 C   0  0  0  0  0  0
  -21.9195   -4.6968   22.3398 C   0  0  0  0  0  0
  -22.7803  -13.5209   21.1881 C   0  0  0  0  0  0
  -22.1668   -4.2154   21.0978 F   0  0  0  0  0  0
  -21.5626   -3.4541   25.7732 F   0  0  0  0  0  0
  -29.9654  -13.5994   20.4319 N   0  0  0  0  0  0
  -26.2892  -12.9475   20.3242 N   0  0  0  0  0  0
  -25.9327  -11.6598   20.5712 N   0  0  0  0  0  0
  -22.0458  -12.8172   22.0427 N   0  0  0  0  0  0
  -25.4162  -15.1965   20.4199 N   0  0  0  0  0  0
  -31.7223  -15.0639   20.0579 O   0  0  0  0  0  0
  -21.6649   -6.8885   21.4241 O   0  0  0  0  0  0
  -22.3471  -14.5516   20.6745 O   0  0  0  0  0  0
  -24.6393  -31.8447   23.1868 C   0  0  0  0  0  0
  -25.9177  -32.4699   23.8246 C   0  0  1  0  0  0
  -27.2266  -27.1555   20.1464 C   0  0  0  0  0  0
  -25.5941  -33.8502   24.2172 N   0  0  0  0  0  0
  -23.4419  -30.4623   21.5302 C   0  0  2  0  0  0
  -24.8918  -28.8877   20.1052 C   0  0  0  0  0  0
  -22.7543  -29.4555   22.4851 C   0  0  0  0  0  0
  -18.0298  -28.1409   22.8476 C   0  0  0  0  0  0
  -24.1487  -36.7235   23.2640 C   0  0  0  0  0  0
  -25.9950  -30.7223   21.3842 C   0  0  0  0  0  0
  -26.0648  -29.3358   20.7235 C   0  0  0  0  0  0
  -27.2274  -28.4838   20.7298 C   0  0  0  0  0  0
  -26.0242  -26.7947   19.5000 C   0  0  0  0  0  0
  -24.8828  -27.6295   19.4807 C   0  0  0  0  0  0
  -23.6653  -29.7864   20.1489 C   0  0  0  0  0  0
  -25.4119  -36.3030   24.0318 C   0  0  1  0  0  0
  -20.5912  -28.3719   23.1250 C   0  0  2  0  0  0
  -20.6777  -26.9421   22.5419 C   0  0  0  0  0  0
  -19.5753  -26.6398   21.5214 C   0  0  0  0  0  0
  -18.1936  -26.7951   22.1621 C   0  0  0  0  0  0
  -19.1557  -28.8877   23.2857 C   0  0  0  0  0  0
  -18.9485  -30.1468   23.8888 C   0  0  0  0  0  0
  -17.6485  -30.6605   24.0561 C   0  0  0  0  0  0
  -25.9081  -34.9410   23.5062 C   0  0  0  0  0  0
  -16.5366  -29.9105   23.6356 C   0  0  0  0  0  0
  -16.7283  -28.6522   23.0379 C   0  0  0  0  0  0
  -26.4484  -31.6579   25.0702 C   0  0  0  0  0  0
  -25.3685  -31.3796   26.1418 C   0  0  0  0  0  0
  -27.0321  -30.2964   24.6291 C   0  0  0  0  0  0
  -27.6009  -32.4352   25.7500 C   0  0  0  0  0  0
  -27.5572  -37.1773   24.8457 C   0  0  0  0  0  0
  -21.4239  -29.3040   22.3600 N   0  0  0  0  0  0
  -26.4265  -37.3759   23.9425 N   0  0  0  0  0  0
  -24.7115  -31.0322   22.0885 N   0  0  0  0  0  0
  -23.4205  -28.8131   23.3005 O   0  0  0  0  0  0
  -28.3222  -26.2286   20.2473 O   0  0  0  0  0  0
  -26.5681  -34.8916   22.4645 O   0  0  0  0  0  0
  -23.5525  -32.1309   23.7128 O   0  0  0  0  0  0
  -29.3556  -18.0718   19.2606 C   0  0  0  0  0  0
  -29.7627  -18.5290   21.5226 C   0  0  0  0  0  0
  -29.1963  -20.5295   20.0206 C   0  0  0  0  0  0
  -29.1218  -19.4839   19.0099 C   0  0  0  0  0  0
  -29.6820  -17.4936   20.5230 C   0  0  0  0  0  0
  -29.5512  -19.9553   21.2918 C   0  0  0  0  0  0
  -28.2631  -23.3386   20.5672 C   0  0  0  0  0  0
  -29.7784  -24.4854   19.1074 C   0  0  0  0  0  0
  -28.9557  -22.1477   19.6907 C   0  0  1  0  0  0
  -30.2017  -22.9723   19.2807 C   0  0  1  0  0  0
  -28.3895  -24.7592   19.7486 C   0  0  2  0  0  0
  -28.7707  -19.7950   17.5585 C   0  0  0  0  0  0
  -30.9085  -22.4369   18.1004 N   0  3  0  0  0  0
  -29.6312  -16.0551   20.7915 O   0  0  0  0  0  0
  -29.6817  -20.7944   22.3463 F   0  0  0  0  0  0
  -31.4847  -12.6933   19.2198 H   0  0  0  0  0  0
  -30.4179  -11.5654   20.0123 H   0  0  0  0  0  0
  -29.8370  -11.7567   17.5681 H   0  0  0  0  0  0
  -29.6427  -13.4844   17.7350 H   0  0  0  0  0  0
  -27.9250  -11.2937   18.9415 H   0  0  0  0  0  0
  -27.4039  -12.5133   17.8096 H   0  0  0  0  0  0
  -27.6143  -14.2674   19.4514 H   0  0  0  0  0  0
  -28.7089  -12.2578   21.4724 H   0  0  0  0  0  0
  -28.3750  -13.9470   21.7764 H   0  0  0  0  0  0
  -25.2777   -9.5700   22.4746 H   0  0  0  0  0  0
  -24.0023   -7.4641   22.7467 H   0  0  0  0  0  0
  -21.0854   -8.8775   19.8941 H   0  0  0  0  0  0
  -22.3711  -10.9673   19.6153 H   0  0  0  0  0  0
  -21.2018   -7.6155   23.9717 H   0  0  0  0  0  0
  -21.1478   -6.0526   25.9077 H   0  0  0  0  0  0
  -22.0597   -2.7613   23.2838 H   0  0  0  0  0  0
  -22.4103  -11.9833   22.4805 H   0  0  0  0  0  0
  -21.1070  -13.1175   22.2649 H   0  0  0  0  0  0
  -24.6556  -15.8559   20.5423 H   0  0  0  0  0  0
  -26.2822  -15.6382   20.1366 H   0  0  0  0  0  0
  -26.7244  -32.5276   23.0980 H   0  0  0  0  0  0
  -25.0068  -33.9610   25.0310 H   0  0  0  0  0  0
  -22.7430  -31.2879   21.3780 H   0  0  0  0  0  0
  -23.3757  -35.9558   23.3304 H   0  0  0  0  0  0
  -24.3564  -36.8855   22.2053 H   0  0  0  0  0  0
  -23.7244  -37.6434   23.6667 H   0  0  0  0  0  0
  -26.1546  -31.4821   20.6176 H   0  0  0  0  0  0
  -26.8636  -30.7647   22.0294 H   0  0  0  0  0  0
  -28.1186  -28.8239   21.2374 H   0  0  0  0  0  0
  -25.9230  -25.8279   19.0324 H   0  0  0  0  0  0
  -23.9839  -27.2776   18.9927 H   0  0  0  0  0  0
  -23.7924  -30.5575   19.3881 H   0  0  0  0  0  0
  -22.7821  -29.2212   19.8467 H   0  0  0  0  0  0
  -25.1314  -36.1839   25.0813 H   0  0  0  0  0  0
  -21.0001  -28.3297   24.1371 H   0  0  0  0  0  0
  -20.5672  -26.2314   23.3627 H   0  0  0  0  0  0
  -21.6644  -26.7436   22.1206 H   0  0  0  0  0  0
  -19.6904  -25.6316   21.1227 H   0  0  0  0  0  0
  -19.6692  -27.3221   20.6754 H   0  0  0  0  0  0
  -17.4201  -26.6703   21.4019 H   0  0  0  0  0  0
  -18.0315  -26.0108   22.9037 H   0  0  0  0  0  0
  -19.7964  -30.7274   24.2259 H   0  0  0  0  0  0
  -17.5053  -31.6289   24.5161 H   0  0  0  0  0  0
  -15.5371  -30.3005   23.7707 H   0  0  0  0  0  0
  -15.8678  -28.0831   22.7134 H   0  0  0  0  0  0
  -24.5865  -30.7127   25.7767 H   0  0  0  0  0  0
  -24.8873  -32.2988   26.4770 H   0  0  0  0  0  0
  -25.7990  -30.9052   27.0245 H   0  0  0  0  0  0
  -26.2932  -29.6730   24.1244 H   0  0  0  0  0  0
  -27.3841  -29.7235   25.4875 H   0  0  0  0  0  0
  -27.8888  -30.4172   23.9660 H   0  0  0  0  0  0
  -27.2575  -33.3648   26.2055 H   0  0  0  0  0  0
  -28.3840  -32.6926   25.0358 H   0  0  0  0  0  0
  -28.0636  -31.8500   26.5455 H   0  0  0  0  0  0
  -28.2585  -38.0078   24.7550 H   0  0  0  0  0  0
  -28.1089  -36.2622   24.6243 H   0  0  0  0  0  0
  -27.2305  -37.1374   25.8862 H   0  0  0  0  0  0
  -20.9439  -29.8735   21.6778 H   0  0  0  0  0  0
  -26.0124  -38.2817   24.1446 H   0  0  0  0  0  0
  -29.2318  -17.3807   18.4378 H   0  0  0  0  0  0
  -29.9656  -18.2222   22.5386 H   0  0  0  0  0  0
  -28.7760  -23.4267   21.5258 H   0  0  0  0  0  0
  -27.2218  -23.1091   20.7917 H   0  0  0  0  0  0
  -29.7515  -24.7786   18.0574 H   0  0  0  0  0  0
  -30.5344  -25.1162   19.5784 H   0  0  0  0  0  0
  -28.2979  -22.1408   18.8285 H   0  0  0  0  0  0
  -30.9027  -22.9228   20.1158 H   0  0  0  0  0  0
  -27.6828  -24.6762   18.9256 H   0  0  0  0  0  0
  -28.2131  -18.9605   17.1279 H   0  0  0  0  0  0
  -29.6811  -19.9102   16.9675 H   0  0  0  0  0  0
  -28.1383  -20.6665   17.4116 H   0  0  0  0  0  0
  -30.3303  -22.4618   17.2787 H   0  0  0  0  0  0
  -31.1965  -21.4880   18.2675 H   0  0  0  0  0  0
  -31.7373  -22.9738   17.9154 H   0  0  0  0  0  0
  1 25  1  0  0  0
  1 30  2  0  0  0
  1 84  1  0  0  0
  2  3  1  0  0  0
  2 25  1  0  0  0
  2 86  1  0  0  0
  2 87  1  0  0  0
  3  4  1  0  0  0
  3 88  1  0  0  0
  3 89  1  0  0  0
  4  5  1  0  0  0
  4 90  1  0  0  0
  4 91  1  0  0  0
  5  6  1  0  0  0
  5 26  1  0  0  0
  5 92  1  0  0  0
  6 25  1  0  0  0
  6 93  1  0  0  0
  6 94  1  0  0  0
  7  8  2  0  0  0
  7 26  1  0  0  0
  7 29  1  0  0  0
  8  9  1  0  0  0
  8 22  1  0  0  0
  9 10  1  0  0  0
  9 27  2  0  0  0
 10 11  2  0  0  0
 10 15  1  0  0  0
 11 12  1  0  0  0
 11 95  1  0  0  0
 12 13  2  0  0  0
 12 96  1  0  0  0
 13 14  1  0  0  0
 13 31  1  0  0  0
 14 15  2  0  0  0
 14 97  1  0  0  0
 15 98  1  0  0  0
 16 17  2  0  0  0
 16 21  1  0  0  0
 16 31  1  0  0  0
 17 18  1  0  0  0
 17 99  1  0  0  0
 18 19  2  0  0  0
 18100  1  0  0  0
 19 20  1  0  0  0
 19 24  1  0  0  0
 20 21  2  0  0  0
 20101  1  0  0  0
 21 23  1  0  0  0
 22 28  1  0  0  0
 22 32  2  0  0  0
 26 27  1  0  0  0
 28102  1  0  0  0
 28103  1  0  0  0
 29104  1  0  0  0
 29105  1  0  0  0
 33 34  1  0  0  0
 33 66  1  0  0  0
 33 70  2  0  0  0
 34 36  1  0  0  0
 34 59  1  0  0  0
 34106  1  0  0  0
 35 44  2  0  0  0
 35 45  1  0  0  0
 35 68  1  0  0  0
 36 56  1  0  0  0
 36107  1  0  0  0
 37 39  1  0  0  0
 37 47  1  0  0  0
 37 66  1  0  0  0
 37108  1  0  0  0
 38 43  2  0  0  0
 38 46  1  0  0  0
 38 47  1  0  0  0
 39 64  1  0  0  0
 39 67  2  0  0  0
 40 52  1  0  0  0
 40 53  2  0  0  0
 40 58  1  0  0  0
 41109  1  0  0  0
 41110  1  0  0  0
 41111  1  0  0  0
 41 48  1  0  0  0
 42 43  1  0  0  0
 42 66  1  0  0  0
 42112  1  0  0  0
 42113  1  0  0  0
 43 44  1  0  0  0
 44114  1  0  0  0
 45 46  2  0  0  0
 45115  1  0  0  0
 46116  1  0  0  0
 47117  1  0  0  0
 47118  1  0  0  0
 48 56  1  0  0  0
 48 65  1  0  0  0
 48119  1  0  0  0
 49 50  1  0  0  0
 49 53  1  0  0  0
 49 64  1  0  0  0
 49120  1  0  0  0
 50 51  1  0  0  0
 50121  1  0  0  0
 50122  1  0  0  0
 51 52  1  0  0  0
 51123  1  0  0  0
 51124  1  0  0  0
 52125  1  0  0  0
 52126  1  0  0  0
 53 54  1  0  0  0
 54 55  2  0  0  0
 54127  1  0  0  0
 55 57  1  0  0  0
 55128  1  0  0  0
 56 69  2  0  0  0
 57 58  2  0  0  0
 57129  1  0  0  0
 58130  1  0  0  0
 59 60  1  0  0  0
 59 61  1  0  0  0
 59 62  1  0  0  0
 60131  1  0  0  0
 60132  1  0  0  0
 60133  1  0  0  0
 61134  1  0  0  0
 61135  1  0  0  0
 61136  1  0  0  0
 62137  1  0  0  0
 62138  1  0  0  0
 62139  1  0  0  0
 63 65  1  0  0  0
 63140  1  0  0  0
 63141  1  0  0  0
 63142  1  0  0  0
 64143  1  0  0  0
 65144  1  0  0  0
 68 81  1  0  0  0
 71 74  2  0  0  0
 71 75  1  0  0  0
 71145  1  0  0  0
 72 75  2  0  0  0
 72 76  1  0  0  0
 72146  1  0  0  0
 73 74  1  0  0  0
 73 76  2  0  0  0
 73 79  1  0  0  0
 74 82  1  0  0  0
 75 84  1  0  0  0
 76 85  1  0  0  0
 77 79  1  0  0  0
 77 81  1  0  0  0
 77147  1  0  0  0
 77148  1  0  0  0
 78 80  1  0  0  0
 78 81  1  0  0  0
 78149  1  0  0  0
 78150  1  0  0  0
 79 80  1  0  0  0
 79151  1  0  0  0
 80 83  1  0  0  0
 80152  1  0  0  0
 81153  1  0  0  0
 82154  1  0  0  0
 82155  1  0  0  0
 82156  1  0  0  0
 83157  1  0  0  0
 83158  1  0  0  0
 83159  1  0  0  0
M  CHG  1  83   1
M  ISO  4   1 100  68 101  81 101  84 100
M  END
> <chiral flag>
0

> <version>
0

> <s_m_source_file>
/data/baiqing/PycharmProjects/Reinvent-master-3.2/result/LINK_invent/BTK/process_docking_weight1_custom_sum_contain_oxygen_bond_distance_aromatic_linkinvent_7_9_3/rearranged_h_0154.sdf

> <i_m_source_file_index>
79

> <r_mmod_Potential_Energy-OPLS-2005>
319.805419921875

> <r_mmod_Stretch_Energy-OPLS-2005>
226.871597290039

> <r_mmod_Bend_Energy-OPLS-2005>
318.921691894531

> <r_mmod_Torsional_Energy-OPLS-2005>
231.668548583984

> <r_mmod_Improper_Torsional_Energy-OPLS-2005>
5.29767560958862

> <r_mmod_Van_der_Waal_Energy-OPLS-2005>
126.428085327148

> <r_mmod_Electrostatic_Energy-OPLS-2005>
-263.420104980469

> <r_mmod_Solvation_Energy-OPLS-2005>
-489.915924072266

> <b_mmod_Minimization_Converged-OPLS-2005>
0

> <r_mmod_RMS_Derivative-OPLS-2005>
2.14082026481628

$$$$
80
                    3D
 Structure written by MMmdl.
166174  0  0  1  0            999 V2000
  -30.7522  -14.4085   20.6200 C   0  0  0  0  0  0
  -30.4218  -12.2885   19.4117 C   0  0  0  0  0  0
  -29.4928  -12.5093   18.2007 C   0  0  0  0  0  0
  -28.0151  -12.3638   18.6146 C   0  0  0  0  0  0
  -27.6662  -13.2007   19.8731 C   0  0  2  0  0  0
  -28.7064  -12.9728   20.9936 C   0  0  0  0  0  0
  -25.2610  -13.8147   20.5652 C   0  0  0  0  0  0
  -24.1835  -13.0434   20.9126 C   0  0  0  0  0  0
  -24.6372  -11.6912   20.8691 C   0  0  0  0  0  0
  -23.9035  -10.4311   21.0381 C   0  0  0  0  0  0
  -24.3605   -9.4233   21.9162 C   0  0  0  0  0  0
  -23.6286   -8.2268   22.0739 C   0  0  0  0  0  0
  -22.4269   -8.0302   21.3550 C   0  0  0  0  0  0
  -21.9896   -9.0255   20.4642 C   0  0  0  0  0  0
  -22.7205  -10.2139   20.3039 C   0  0  0  0  0  0
  -21.6862   -6.0744   22.5271 C   0  0  0  0  0  0
  -21.4026   -6.5643   23.8205 C   0  0  0  0  0  0
  -21.3651   -5.6788   24.9159 C   0  0  0  0  0  0
  -21.6037   -4.3054   24.7205 C   0  0  0  0  0  0
  -21.8823   -3.8156   23.4328 C   0  0  0  0  0  0
  -21.9190   -4.6972   22.3387 C   0  0  0  0  0  0
  -22.7870  -13.5255   21.1787 C   0  0  0  0  0  0
  -22.1667   -4.2166   21.0967 F   0  0  0  0  0  0
  -21.5609   -3.4529   25.7714 F   0  0  0  0  0  0
  -30.0479  -13.2586   20.4511 N   0  0  0  0  0  0
  -26.3044  -12.9312   20.3356 N   0  0  0  0  0  0
  -25.9303  -11.6482   20.5742 N   0  0  0  0  0  0
  -22.0509  -12.8270   22.0372 N   0  0  0  0  0  0
  -25.4336  -15.1861   20.4074 N   0  0  0  0  0  0
  -31.8268  -14.6303   20.0589 O   0  0  0  0  0  0
  -21.6654   -6.8888   21.4245 O   0  0  0  0  0  0
  -22.3573  -14.5557   20.6621 O   0  0  0  0  0  0
  -24.6109  -31.8738   23.2117 C   0  0  0  0  0  0
  -25.9008  -32.4862   23.8397 C   0  0  1  0  0  0
  -27.2350  -27.4645   20.0802 C   0  0  0  0  0  0
  -25.5882  -33.8663   24.2343 N   0  0  0  0  0  0
  -23.3957  -30.4922   21.5584 C   0  0  2  0  0  0
  -24.8372  -28.9618   20.1167 C   0  0  0  0  0  0
  -22.7381  -29.4655   22.5078 C   0  0  0  0  0  0
  -18.0261  -28.1382   22.8496 C   0  0  0  0  0  0
  -24.1484  -36.7313   23.2634 C   0  0  0  0  0  0
  -25.9195  -30.8433   21.3597 C   0  0  0  0  0  0
  -25.9958  -29.4790   20.7080 C   0  0  0  0  0  0
  -27.1933  -28.7371   20.6899 C   0  0  0  0  0  0
  -26.0554  -26.9497   19.4916 C   0  0  0  0  0  0
  -24.8608  -27.6944   19.5066 C   0  0  0  0  0  0
  -23.5976  -29.8238   20.1726 C   0  0  0  0  0  0
  -25.4111  -36.3143   24.0343 C   0  0  1  0  0  0
  -20.5841  -28.3639   23.1376 C   0  0  2  0  0  0
  -20.6759  -26.9394   22.5432 C   0  0  0  0  0  0
  -19.5738  -26.6389   21.5224 C   0  0  0  0  0  0
  -18.1920  -26.7935   22.1632 C   0  0  0  0  0  0
  -19.1506  -28.8831   23.2927 C   0  0  0  0  0  0
  -18.9431  -30.1452   23.8917 C   0  0  0  0  0  0
  -17.6429  -30.6591   24.0566 C   0  0  0  0  0  0
  -25.9035  -34.9511   23.5139 C   0  0  0  0  0  0
  -16.5323  -29.9086   23.6330 C   0  0  0  0  0  0
  -16.7251  -28.6508   23.0343 C   0  0  0  0  0  0
  -26.4432  -31.6648   25.0729 C   0  0  0  0  0  0
  -25.3687  -31.3757   26.1468 C   0  0  0  0  0  0
  -27.0247  -30.3099   24.6084 C   0  0  0  0  0  0
  -27.6035  -32.4352   25.7472 C   0  0  0  0  0  0
  -27.5593  -37.1811   24.8469 C   0  0  0  0  0  0
  -21.4123  -29.3007   22.3802 N   0  0  0  0  0  0
  -26.4309  -37.3817   23.9413 N   0  0  0  0  0  0
  -24.6609  -31.0825   22.1021 N   0  0  0  0  0  0
  -23.4174  -28.8223   23.3125 O   0  0  0  0  0  0
  -28.4379  -26.7938   20.0945 O   0  0  0  0  0  0
  -26.5598  -34.8943   22.4705 O   0  0  0  0  0  0
  -23.5306  -32.1503   23.7499 O   0  0  0  0  0  0
  -32.0264  -22.0604   20.7701 C   0  0  0  0  0  0
  -31.8889  -19.6555   22.0726 C   0  0  0  0  0  0
  -31.1497  -21.0795   20.2567 C   0  0  0  0  0  0
  -31.1046  -19.8171   20.9043 C   0  0  0  0  0  0
  -32.7869  -21.7773   21.9158 C   0  0  0  0  0  0
  -33.7639  -22.7924   22.4655 C   0  0  0  0  0  0
  -31.0866  -21.2794   17.7208 C   0  0  0  0  0  0
  -30.7078  -16.6787   21.6501 C   0  0  0  0  0  0
  -29.7544  -17.8048   21.1812 C   0  0  0  0  0  0
  -28.5332  -25.5198   19.4700 C   0  0  0  0  0  0
  -29.9207  -24.9439   19.7979 C   0  0  0  0  0  0
  -29.4722  -22.6872   19.1318 C   0  0  0  0  0  0
  -30.2815  -21.3741   19.0262 C   0  0  2  0  0  0
  -32.7058  -20.6048   22.5728 N   0  0  0  0  0  0
  -30.1788  -15.3348   21.3978 N   0  0  0  0  0  0
  -30.3576  -18.7963   20.3439 O   0  0  0  0  0  0
  -30.2844  -23.8483   18.9636 O   0  0  0  0  0  0
  -31.4661  -12.3830   19.1097 H   0  0  0  0  0  0
  -30.3218  -11.2728   19.7994 H   0  0  0  0  0  0
  -29.7336  -11.8019   17.4048 H   0  0  0  0  0  0
  -29.6563  -13.5039   17.7811 H   0  0  0  0  0  0
  -27.8173  -11.3067   18.8030 H   0  0  0  0  0  0
  -27.3675  -12.6498   17.7856 H   0  0  0  0  0  0
  -27.7188  -14.2481   19.5776 H   0  0  0  0  0  0
  -28.6702  -11.9382   21.3363 H   0  0  0  0  0  0
  -28.4621  -13.5695   21.8715 H   0  0  0  0  0  0
  -25.2752   -9.5711   22.4731 H   0  0  0  0  0  0
  -23.9983   -7.4673   22.7465 H   0  0  0  0  0  0
  -21.0821   -8.8769   19.8968 H   0  0  0  0  0  0
  -22.3653  -10.9668   19.6149 H   0  0  0  0  0  0
  -21.2060   -7.6160   23.9707 H   0  0  0  0  0  0
  -21.1448   -6.0524   25.9055 H   0  0  0  0  0  0
  -22.0612   -2.7622   23.2813 H   0  0  0  0  0  0
  -22.4135  -11.9957   22.4801 H   0  0  0  0  0  0
  -21.1120  -13.1317   22.2543 H   0  0  0  0  0  0
  -24.6663  -15.8412   20.5164 H   0  0  0  0  0  0
  -26.2898  -15.6281   20.0959 H   0  0  0  0  0  0
  -26.7087  -32.5577   23.1161 H   0  0  0  0  0  0
  -25.0041  -33.9863   25.0486 H   0  0  0  0  0  0
  -22.6817  -31.3074   21.4239 H   0  0  0  0  0  0
  -23.3769  -35.9625   23.3320 H   0  0  0  0  0  0
  -24.3563  -36.8900   22.2039 H   0  0  0  0  0  0
  -23.7200  -37.6511   23.6627 H   0  0  0  0  0  0
  -26.0257  -31.6081   20.5879 H   0  0  0  0  0  0
  -26.8094  -30.8970   21.9746 H   0  0  0  0  0  0
  -28.0889  -29.1405   21.1422 H   0  0  0  0  0  0
  -26.0331  -25.9814   19.0133 H   0  0  0  0  0  0
  -23.9689  -27.2911   19.0473 H   0  0  0  0  0  0
  -23.6968  -30.6005   19.4131 H   0  0  0  0  0  0
  -22.7227  -29.2401   19.8834 H   0  0  0  0  0  0
  -25.1279  -36.2026   25.0837 H   0  0  0  0  0  0
  -20.9905  -28.3173   24.1505 H   0  0  0  0  0  0
  -20.5692  -26.2221   23.3591 H   0  0  0  0  0  0
  -21.6632  -26.7477   22.1200 H   0  0  0  0  0  0
  -19.6899  -25.6301   21.1251 H   0  0  0  0  0  0
  -19.6703  -27.3208   20.6765 H   0  0  0  0  0  0
  -17.4189  -26.6686   21.4034 H   0  0  0  0  0  0
  -18.0316  -26.0089   22.9035 H   0  0  0  0  0  0
  -19.7903  -30.7278   24.2294 H   0  0  0  0  0  0
  -17.4980  -31.6287   24.5149 H   0  0  0  0  0  0
  -15.5324  -30.2983   23.7664 H   0  0  0  0  0  0
  -15.8657  -28.0847   22.7025 H   0  0  0  0  0  0
  -24.5836  -30.7145   25.7763 H   0  0  0  0  0  0
  -24.8886  -32.2913   26.4937 H   0  0  0  0  0  0
  -25.7995  -30.8877   27.0215 H   0  0  0  0  0  0
  -26.2784  -29.6900   24.1094 H   0  0  0  0  0  0
  -27.3973  -29.7303   25.4536 H   0  0  0  0  0  0
  -27.8637  -30.4433   23.9254 H   0  0  0  0  0  0
  -27.2689  -33.3636   26.2112 H   0  0  0  0  0  0
  -28.3790  -32.6948   25.0256 H   0  0  0  0  0  0
  -28.0770  -31.8445   26.5324 H   0  0  0  0  0  0
  -28.2627  -38.0096   24.7535 H   0  0  0  0  0  0
  -28.1082  -36.2631   24.6289 H   0  0  0  0  0  0
  -27.2317  -37.1451   25.8876 H   0  0  0  0  0  0
  -20.9284  -29.8691   21.6995 H   0  0  0  0  0  0
  -26.0219  -38.2907   24.1402 H   0  0  0  0  0  0
  -32.1250  -23.0216   20.2845 H   0  0  0  0  0  0
  -31.9154  -18.7274   22.6161 H   0  0  0  0  0  0
  -34.6861  -22.7754   21.8840 H   0  0  0  0  0  0
  -34.0119  -22.5862   23.5074 H   0  0  0  0  0  0
  -33.3364  -23.7937   22.4153 H   0  0  0  0  0  0
  -31.8698  -22.0388   17.6658 H   0  0  0  0  0  0
  -30.4359  -21.4166   16.8583 H   0  0  0  0  0  0
  -31.5584  -20.3009   17.6265 H   0  0  0  0  0  0
  -30.8578  -16.7654   22.7273 H   0  0  0  0  0  0
  -31.6884  -16.8124   21.1901 H   0  0  0  0  0  0
  -28.9544  -17.3732   20.5768 H   0  0  0  0  0  0
  -29.2585  -18.2767   22.0316 H   0  0  0  0  0  0
  -27.7631  -24.8367   19.8340 H   0  0  0  0  0  0
  -28.4151  -25.6418   18.3925 H   0  0  0  0  0  0
  -29.9787  -24.6588   20.8507 H   0  0  0  0  0  0
  -30.6761  -25.7164   19.6573 H   0  0  0  0  0  0
  -28.9528  -22.6950   20.0903 H   0  0  0  0  0  0
  -28.6944  -22.7185   18.3667 H   0  0  0  0  0  0
  -29.5209  -20.5951   18.9857 H   0  0  0  0  0  0
  -29.2916  -15.0987   21.8161 H   0  0  0  0  0  0
  1 25  1  0  0  0
  1 30  2  0  0  0
  1 85  1  0  0  0
  2  3  1  0  0  0
  2 25  1  0  0  0
  2 88  1  0  0  0
  2 89  1  0  0  0
  3  4  1  0  0  0
  3 90  1  0  0  0
  3 91  1  0  0  0
  4  5  1  0  0  0
  4 92  1  0  0  0
  4 93  1  0  0  0
  5  6  1  0  0  0
  5 26  1  0  0  0
  5 94  1  0  0  0
  6 25  1  0  0  0
  6 95  1  0  0  0
  6 96  1  0  0  0
  7  8  2  0  0  0
  7 26  1  0  0  0
  7 29  1  0  0  0
  8  9  1  0  0  0
  8 22  1  0  0  0
  9 10  1  0  0  0
  9 27  2  0  0  0
 10 11  2  0  0  0
 10 15  1  0  0  0
 11 12  1  0  0  0
 11 97  1  0  0  0
 12 13  2  0  0  0
 12 98  1  0  0  0
 13 14  1  0  0  0
 13 31  1  0  0  0
 14 15  2  0  0  0
 14 99  1  0  0  0
 15100  1  0  0  0
 16 17  2  0  0  0
 16 21  1  0  0  0
 16 31  1  0  0  0
 17 18  1  0  0  0
 17101  1  0  0  0
 18 19  2  0  0  0
 18102  1  0  0  0
 19 20  1  0  0  0
 19 24  1  0  0  0
 20 21  2  0  0  0
 20103  1  0  0  0
 21 23  1  0  0  0
 22 28  1  0  0  0
 22 32  2  0  0  0
 26 27  1  0  0  0
 28104  1  0  0  0
 28105  1  0  0  0
 29106  1  0  0  0
 29107  1  0  0  0
 33 34  1  0  0  0
 33 66  1  0  0  0
 33 70  2  0  0  0
 34 36  1  0  0  0
 34 59  1  0  0  0
 34108  1  0  0  0
 35 44  2  0  0  0
 35 45  1  0  0  0
 35 68  1  0  0  0
 36 56  1  0  0  0
 36109  1  0  0  0
 37 39  1  0  0  0
 37 47  1  0  0  0
 37 66  1  0  0  0
 37110  1  0  0  0
 38 43  2  0  0  0
 38 46  1  0  0  0
 38 47  1  0  0  0
 39 64  1  0  0  0
 39 67  2  0  0  0
 40 52  1  0  0  0
 40 53  2  0  0  0
 40 58  1  0  0  0
 41111  1  0  0  0
 41112  1  0  0  0
 41113  1  0  0  0
 41 48  1  0  0  0
 42 43  1  0  0  0
 42 66  1  0  0  0
 42114  1  0  0  0
 42115  1  0  0  0
 43 44  1  0  0  0
 44116  1  0  0  0
 45 46  2  0  0  0
 45117  1  0  0  0
 46118  1  0  0  0
 47119  1  0  0  0
 47120  1  0  0  0
 48 56  1  0  0  0
 48 65  1  0  0  0
 48121  1  0  0  0
 49 50  1  0  0  0
 49 53  1  0  0  0
 49 64  1  0  0  0
 49122  1  0  0  0
 50 51  1  0  0  0
 50123  1  0  0  0
 50124  1  0  0  0
 51 52  1  0  0  0
 51125  1  0  0  0
 51126  1  0  0  0
 52127  1  0  0  0
 52128  1  0  0  0
 53 54  1  0  0  0
 54 55  2  0  0  0
 54129  1  0  0  0
 55 57  1  0  0  0
 55130  1  0  0  0
 56 69  2  0  0  0
 57 58  2  0  0  0
 57131  1  0  0  0
 58132  1  0  0  0
 59 60  1  0  0  0
 59 61  1  0  0  0
 59 62  1  0  0  0
 60133  1  0  0  0
 60134  1  0  0  0
 60135  1  0  0  0
 61136  1  0  0  0
 61137  1  0  0  0
 61138  1  0  0  0
 62139  1  0  0  0
 62140  1  0  0  0
 62141  1  0  0  0
 63 65  1  0  0  0
 63142  1  0  0  0
 63143  1  0  0  0
 63144  1  0  0  0
 64145  1  0  0  0
 65146  1  0  0  0
 68 80  1  0  0  0
 71 73  2  0  0  0
 71 75  1  0  0  0
 71147  1  0  0  0
 72 74  2  0  0  0
 72 84  1  0  0  0
 72148  1  0  0  0
 73 74  1  0  0  0
 73 83  1  0  0  0
 74 86  1  0  0  0
 75 76  1  0  0  0
 75 84  2  0  0  0
 76149  1  0  0  0
 76150  1  0  0  0
 76151  1  0  0  0
 77152  1  0  0  0
 77153  1  0  0  0
 77154  1  0  0  0
 77 83  1  0  0  0
 78 79  1  0  0  0
 78 85  1  0  0  0
 78155  1  0  0  0
 78156  1  0  0  0
 79 86  1  0  0  0
 79157  1  0  0  0
 79158  1  0  0  0
 80 81  1  0  0  0
 80159  1  0  0  0
 80160  1  0  0  0
 81 87  1  0  0  0
 81161  1  0  0  0
 81162  1  0  0  0
 82 83  1  0  0  0
 82 87  1  0  0  0
 82163  1  0  0  0
 82164  1  0  0  0
 83165  1  0  0  0
 85166  1  0  0  0
M  ISO  4   1 100  68 101  80 101  85 100
M  END
> <chiral flag>
0

> <version>
0

> <s_m_source_file>
/data/baiqing/PycharmProjects/Reinvent-master-3.2/result/LINK_invent/BTK/process_docking_weight1_custom_sum_contain_oxygen_bond_distance_aromatic_linkinvent_7_9_3/rearranged_h_0154.sdf

> <i_m_source_file_index>
80

> <r_mmod_Potential_Energy-OPLS-2005>
-191.435775756836

> <r_mmod_Stretch_Energy-OPLS-2005>
34.6572685241699

> <r_mmod_Bend_Energy-OPLS-2005>
110.213600158691

> <r_mmod_Torsional_Energy-OPLS-2005>
207.853134155273

> <r_mmod_Improper_Torsional_Energy-OPLS-2005>
2.12120699882507

> <r_mmod_Van_der_Waal_Energy-OPLS-2005>
166.806198120117

> <r_mmod_Electrostatic_Energy-OPLS-2005>
-493.748168945312

> <r_mmod_Solvation_Energy-OPLS-2005>
-228.59391784668

> <b_mmod_Minimization_Converged-OPLS-2005>
0

> <r_mmod_RMS_Derivative-OPLS-2005>
3.43176198005676

$$$$
81
                    3D
 Structure written by MMmdl.
173183  0  0  1  0            999 V2000
  -30.6666  -14.4350   20.5944 C   0  0  0  0  0  0
  -30.4321  -12.2913   19.4091 C   0  0  0  0  0  0
  -29.5003  -12.5184   18.1999 C   0  0  0  0  0  0
  -28.0140  -12.3902   18.6012 C   0  0  0  0  0  0
  -27.6647  -13.1894   19.8865 C   0  0  2  0  0  0
  -28.7056  -12.8910   20.9887 C   0  0  0  0  0  0
  -25.2618  -13.8133   20.5686 C   0  0  0  0  0  0
  -24.1852  -13.0444   20.9170 C   0  0  0  0  0  0
  -24.6367  -11.6902   20.8725 C   0  0  0  0  0  0
  -23.9033  -10.4299   21.0398 C   0  0  0  0  0  0
  -24.3602   -9.4227   21.9178 C   0  0  0  0  0  0
  -23.6297   -8.2259   22.0764 C   0  0  0  0  0  0
  -22.4277   -8.0281   21.3551 C   0  0  0  0  0  0
  -21.9907   -9.0250   20.4642 C   0  0  0  0  0  0
  -22.7214  -10.2130   20.3048 C   0  0  0  0  0  0
  -21.6842   -6.0755   22.5297 C   0  0  0  0  0  0
  -21.4004   -6.5661   23.8228 C   0  0  0  0  0  0
  -21.3653   -5.6795   24.9184 C   0  0  0  0  0  0
  -21.6043   -4.3067   24.7215 C   0  0  0  0  0  0
  -21.8826   -3.8158   23.4341 C   0  0  0  0  0  0
  -21.9193   -4.6988   22.3410 C   0  0  0  0  0  0
  -22.7865  -13.5254   21.1822 C   0  0  0  0  0  0
  -22.1660   -4.2191   21.0981 F   0  0  0  0  0  0
  -21.5633   -3.4538   25.7716 F   0  0  0  0  0  0
  -30.0281  -13.2426   20.4529 N   0  0  0  0  0  0
  -26.3030  -12.9259   20.3404 N   0  0  0  0  0  0
  -25.9282  -11.6433   20.5747 N   0  0  0  0  0  0
  -22.0487  -12.8264   22.0361 N   0  0  0  0  0  0
  -25.4385  -15.1857   20.4127 N   0  0  0  0  0  0
  -31.8194  -14.6141   20.1797 O   0  0  0  0  0  0
  -21.6639   -6.8887   21.4250 O   0  0  0  0  0  0
  -22.3555  -14.5553   20.6636 O   0  0  0  0  0  0
  -24.6061  -31.8723   23.2137 C   0  0  0  0  0  0
  -25.8973  -32.4860   23.8431 C   0  0  1  0  0  0
  -27.2651  -27.4913   20.0988 C   0  0  0  0  0  0
  -25.5848  -33.8660   24.2375 N   0  0  0  0  0  0
  -23.3927  -30.4897   21.5541 C   0  0  2  0  0  0
  -24.8457  -28.9580   20.1201 C   0  0  0  0  0  0
  -22.7367  -29.4655   22.5044 C   0  0  0  0  0  0
  -18.0255  -28.1385   22.8500 C   0  0  0  0  0  0
  -24.1470  -36.7330   23.2647 C   0  0  0  0  0  0
  -25.9113  -30.8554   21.3572 C   0  0  0  0  0  0
  -25.9945  -29.4882   20.7174 C   0  0  0  0  0  0
  -27.1978  -28.7615   20.7177 C   0  0  0  0  0  0
  -26.1016  -26.9688   19.4958 C   0  0  0  0  0  0
  -24.8894  -27.6896   19.5115 C   0  0  0  0  0  0
  -23.6000  -29.8133   20.1704 C   0  0  0  0  0  0
  -25.4096  -36.3147   24.0354 C   0  0  1  0  0  0
  -20.5840  -28.3654   23.1364 C   0  0  2  0  0  0
  -20.6736  -26.9392   22.5462 C   0  0  0  0  0  0
  -19.5727  -26.6389   21.5238 C   0  0  0  0  0  0
  -18.1902  -26.7938   22.1628 C   0  0  0  0  0  0
  -19.1507  -28.8833   23.2932 C   0  0  0  0  0  0
  -18.9436  -30.1436   23.8954 C   0  0  0  0  0  0
  -17.6438  -30.6591   24.0583 C   0  0  0  0  0  0
  -25.9016  -34.9506   23.5172 C   0  0  0  0  0  0
  -16.5330  -29.9112   23.6307 C   0  0  0  0  0  0
  -16.7249  -28.6521   23.0341 C   0  0  0  0  0  0
  -26.4437  -31.6610   25.0741 C   0  0  0  0  0  0
  -25.3699  -31.3644   26.1471 C   0  0  0  0  0  0
  -27.0287  -30.3074   24.6056 C   0  0  0  0  0  0
  -27.6025  -32.4308   25.7527 C   0  0  0  0  0  0
  -27.5582  -37.1834   24.8462 C   0  0  0  0  0  0
  -21.4107  -29.3008   22.3772 N   0  0  0  0  0  0
  -26.4291  -37.3828   23.9400 N   0  0  0  0  0  0
  -24.6546  -31.0859   22.1015 N   0  0  0  0  0  0
  -23.4163  -28.8215   23.3080 O   0  0  0  0  0  0
  -28.4157  -26.7316   20.0271 O   0  0  0  0  0  0
  -26.5617  -34.8946   22.4757 O   0  0  0  0  0  0
  -23.5272  -32.1471   23.7550 O   0  0  0  0  0  0
  -28.9784  -21.9884   20.9736 C   0  0  0  0  0  0
  -28.9210  -20.5852   20.9027 C   0  0  0  0  0  0
  -30.7618  -21.8183   22.6150 C   0  0  0  0  0  0
  -29.9122  -22.6128   21.8217 C   0  0  0  0  0  0
  -29.8274  -19.7782   21.6351 C   0  0  0  0  0  0
  -30.7442  -20.4128   22.5166 C   0  0  0  0  0  0
  -28.7527  -24.8299   22.2883 C   0  0  0  0  0  0
  -30.5617  -24.6806   20.5058 C   0  0  0  0  0  0
  -28.9704  -26.3512   22.3688 C   0  0  0  0  0  0
  -30.7205  -26.2101   20.5473 C   0  0  0  0  0  0
  -29.1903  -17.3907   22.4148 C   0  0  0  0  0  0
  -29.3070  -17.8610   20.0212 C   0  0  0  0  0  0
  -29.2965  -15.8718   22.1004 C   0  0  0  0  0  0
  -29.7664  -16.4569   19.6413 C   0  0  0  0  0  0
  -30.0491  -24.1254   21.8517 C   0  0  2  0  0  0
  -29.8938  -18.2695   21.3730 C   0  0  0  0  0  0
  -29.4362  -26.9210   21.0127 C   0  0  1  0  0  0
  -31.7918  -19.6500   23.3146 C   0  0  0  0  0  0
  -29.8344  -15.4959   20.7636 N   0  0  0  0  0  0
  -31.4753  -12.4131   19.1085 H   0  0  0  0  0  0
  -30.3454  -11.2679   19.7781 H   0  0  0  0  0  0
  -29.7359  -11.8083   17.4070 H   0  0  0  0  0  0
  -29.6807  -13.5099   17.7812 H   0  0  0  0  0  0
  -27.7984  -11.3318   18.7550 H   0  0  0  0  0  0
  -27.3753  -12.7105   17.7773 H   0  0  0  0  0  0
  -27.7203  -14.2471   19.6338 H   0  0  0  0  0  0
  -28.6879  -11.8285   21.2328 H   0  0  0  0  0  0
  -28.4778  -13.3833   21.9292 H   0  0  0  0  0  0
  -25.2753   -9.5743   22.4747 H   0  0  0  0  0  0
  -24.0036   -7.4662   22.7482 H   0  0  0  0  0  0
  -21.0854   -8.8738   19.8927 H   0  0  0  0  0  0
  -22.3661  -10.9672   19.6164 H   0  0  0  0  0  0
  -21.1988   -7.6160   23.9745 H   0  0  0  0  0  0
  -21.1460   -6.0516   25.9088 H   0  0  0  0  0  0
  -22.0604   -2.7630   23.2812 H   0  0  0  0  0  0
  -22.4084  -11.9950   22.4825 H   0  0  0  0  0  0
  -21.1065  -13.1254   22.2458 H   0  0  0  0  0  0
  -24.6786  -15.8476   20.5260 H   0  0  0  0  0  0
  -26.3057  -15.6215   20.1270 H   0  0  0  0  0  0
  -26.7071  -32.5610   23.1232 H   0  0  0  0  0  0
  -24.9910  -33.9833   25.0456 H   0  0  0  0  0  0
  -22.6772  -31.3030   21.4139 H   0  0  0  0  0  0
  -23.3752  -35.9642   23.3300 H   0  0  0  0  0  0
  -24.3549  -36.8959   22.2052 H   0  0  0  0  0  0
  -23.7191  -37.6519   23.6676 H   0  0  0  0  0  0
  -26.0057  -31.6148   20.5796 H   0  0  0  0  0  0
  -26.8046  -30.9251   21.9664 H   0  0  0  0  0  0
  -28.0571  -29.2100   21.1882 H   0  0  0  0  0  0
  -26.1359  -25.9988   19.0186 H   0  0  0  0  0  0
  -24.0063  -27.2707   19.0488 H   0  0  0  0  0  0
  -23.6990  -30.5866   19.4084 H   0  0  0  0  0  0
  -22.7275  -29.2234   19.8839 H   0  0  0  0  0  0
  -25.1262  -36.2050   25.0848 H   0  0  0  0  0  0
  -20.9930  -28.3248   24.1487 H   0  0  0  0  0  0
  -20.5619  -26.2268   23.3652 H   0  0  0  0  0  0
  -21.6620  -26.7427   22.1291 H   0  0  0  0  0  0
  -19.6888  -25.6312   21.1244 H   0  0  0  0  0  0
  -19.6676  -27.3212   20.6778 H   0  0  0  0  0  0
  -17.4182  -26.6711   21.4016 H   0  0  0  0  0  0
  -18.0258  -26.0087   22.9018 H   0  0  0  0  0  0
  -19.7907  -30.7223   24.2382 H   0  0  0  0  0  0
  -17.4997  -31.6271   24.5193 H   0  0  0  0  0  0
  -15.5336  -30.3027   23.7581 H   0  0  0  0  0  0
  -15.8662  -28.0846   22.7033 H   0  0  0  0  0  0
  -24.5911  -30.6967   25.7773 H   0  0  0  0  0  0
  -24.8832  -32.2751   26.4968 H   0  0  0  0  0  0
  -25.8048  -30.8783   27.0205 H   0  0  0  0  0  0
  -26.2862  -29.6869   24.1028 H   0  0  0  0  0  0
  -27.3991  -29.7271   25.4513 H   0  0  0  0  0  0
  -27.8710  -30.4441   23.9272 H   0  0  0  0  0  0
  -27.2662  -33.3567   26.2205 H   0  0  0  0  0  0
  -28.3799  -32.6908   25.0337 H   0  0  0  0  0  0
  -28.0732  -31.8355   26.5356 H   0  0  0  0  0  0
  -28.2626  -38.0111   24.7533 H   0  0  0  0  0  0
  -28.1053  -36.2654   24.6276 H   0  0  0  0  0  0
  -27.2298  -37.1475   25.8864 H   0  0  0  0  0  0
  -20.9273  -29.8724   21.6989 H   0  0  0  0  0  0
  -26.0197  -38.2917   24.1404 H   0  0  0  0  0  0
  -28.3272  -22.5822   20.3456 H   0  0  0  0  0  0
  -28.2054  -20.1505   20.2194 H   0  0  0  0  0  0
  -31.4786  -22.2899   23.2730 H   0  0  0  0  0  0
  -27.9415  -24.6159   21.5898 H   0  0  0  0  0  0
  -28.4308  -24.4511   23.2597 H   0  0  0  0  0  0
  -31.5217  -24.2227   20.2617 H   0  0  0  0  0  0
  -29.8833  -24.4141   19.6953 H   0  0  0  0  0  0
  -29.7266  -26.5643   23.1253 H   0  0  0  0  0  0
  -28.0598  -26.8438   22.7086 H   0  0  0  0  0  0
  -31.0261  -26.5880   19.5707 H   0  0  0  0  0  0
  -31.5317  -26.4599   21.2337 H   0  0  0  0  0  0
  -29.5593  -17.5853   23.4227 H   0  0  0  0  0  0
  -28.1335  -17.6623   22.4474 H   0  0  0  0  0  0
  -28.2166  -17.8986   20.0564 H   0  0  0  0  0  0
  -29.6227  -18.5484   19.2348 H   0  0  0  0  0  0
  -28.2866  -15.4723   22.1944 H   0  0  0  0  0  0
  -29.8805  -15.3823   22.8845 H   0  0  0  0  0  0
  -30.7404  -16.5629   19.1602 H   0  0  0  0  0  0
  -29.1024  -16.0607   18.8720 H   0  0  0  0  0  0
  -30.8041  -24.3585   22.6016 H   0  0  0  0  0  0
  -30.9542  -18.0133   21.3523 H   0  0  0  0  0  0
  -29.6993  -27.9715   21.1157 H   0  0  0  0  0  0
  -31.9219  -20.0918   24.3033 H   0  0  0  0  0  0
  -32.7514  -19.6990   22.7996 H   0  0  0  0  0  0
  -31.5491  -18.6020   23.4649 H   0  0  0  0  0  0
  1 25  1  0  0  0
  1 30  2  0  0  0
  1 89  1  0  0  0
  2  3  1  0  0  0
  2 25  1  0  0  0
  2 90  1  0  0  0
  2 91  1  0  0  0
  3  4  1  0  0  0
  3 92  1  0  0  0
  3 93  1  0  0  0
  4  5  1  0  0  0
  4 94  1  0  0  0
  4 95  1  0  0  0
  5  6  1  0  0  0
  5 26  1  0  0  0
  5 96  1  0  0  0
  6 25  1  0  0  0
  6 97  1  0  0  0
  6 98  1  0  0  0
  7  8  2  0  0  0
  7 26  1  0  0  0
  7 29  1  0  0  0
  8  9  1  0  0  0
  8 22  1  0  0  0
  9 10  1  0  0  0
  9 27  2  0  0  0
 10 11  2  0  0  0
 10 15  1  0  0  0
 11 12  1  0  0  0
 11 99  1  0  0  0
 12 13  2  0  0  0
 12100  1  0  0  0
 13 14  1  0  0  0
 13 31  1  0  0  0
 14 15  2  0  0  0
 14101  1  0  0  0
 15102  1  0  0  0
 16 17  2  0  0  0
 16 21  1  0  0  0
 16 31  1  0  0  0
 17 18  1  0  0  0
 17103  1  0  0  0
 18 19  2  0  0  0
 18104  1  0  0  0
 19 20  1  0  0  0
 19 24  1  0  0  0
 20 21  2  0  0  0
 20105  1  0  0  0
 21 23  1  0  0  0
 22 28  1  0  0  0
 22 32  2  0  0  0
 26 27  1  0  0  0
 28106  1  0  0  0
 28107  1  0  0  0
 29108  1  0  0  0
 29109  1  0  0  0
 33 34  1  0  0  0
 33 66  1  0  0  0
 33 70  2  0  0  0
 34 36  1  0  0  0
 34 59  1  0  0  0
 34110  1  0  0  0
 35 44  2  0  0  0
 35 45  1  0  0  0
 35 68  1  0  0  0
 36 56  1  0  0  0
 36111  1  0  0  0
 37 39  1  0  0  0
 37 47  1  0  0  0
 37 66  1  0  0  0
 37112  1  0  0  0
 38 43  2  0  0  0
 38 46  1  0  0  0
 38 47  1  0  0  0
 39 64  1  0  0  0
 39 67  2  0  0  0
 40 52  1  0  0  0
 40 53  2  0  0  0
 40 58  1  0  0  0
 41113  1  0  0  0
 41114  1  0  0  0
 41115  1  0  0  0
 41 48  1  0  0  0
 42 43  1  0  0  0
 42 66  1  0  0  0
 42116  1  0  0  0
 42117  1  0  0  0
 43 44  1  0  0  0
 44118  1  0  0  0
 45 46  2  0  0  0
 45119  1  0  0  0
 46120  1  0  0  0
 47121  1  0  0  0
 47122  1  0  0  0
 48 56  1  0  0  0
 48 65  1  0  0  0
 48123  1  0  0  0
 49 50  1  0  0  0
 49 53  1  0  0  0
 49 64  1  0  0  0
 49124  1  0  0  0
 50 51  1  0  0  0
 50125  1  0  0  0
 50126  1  0  0  0
 51 52  1  0  0  0
 51127  1  0  0  0
 51128  1  0  0  0
 52129  1  0  0  0
 52130  1  0  0  0
 53 54  1  0  0  0
 54 55  2  0  0  0
 54131  1  0  0  0
 55 57  1  0  0  0
 55132  1  0  0  0
 56 69  2  0  0  0
 57 58  2  0  0  0
 57133  1  0  0  0
 58134  1  0  0  0
 59 60  1  0  0  0
 59 61  1  0  0  0
 59 62  1  0  0  0
 60135  1  0  0  0
 60136  1  0  0  0
 60137  1  0  0  0
 61138  1  0  0  0
 61139  1  0  0  0
 61140  1  0  0  0
 62141  1  0  0  0
 62142  1  0  0  0
 62143  1  0  0  0
 63 65  1  0  0  0
 63144  1  0  0  0
 63145  1  0  0  0
 63146  1  0  0  0
 64147  1  0  0  0
 65148  1  0  0  0
 68 87  1  0  0  0
 71 72  2  0  0  0
 71 74  1  0  0  0
 71149  1  0  0  0
 72 75  1  0  0  0
 72150  1  0  0  0
 73 74  2  0  0  0
 73 76  1  0  0  0
 73151  1  0  0  0
 74 85  1  0  0  0
 75 76  2  0  0  0
 75 86  1  0  0  0
 76 88  1  0  0  0
 77 79  1  0  0  0
 77 85  1  0  0  0
 77152  1  0  0  0
 77153  1  0  0  0
 78 80  1  0  0  0
 78 85  1  0  0  0
 78154  1  0  0  0
 78155  1  0  0  0
 79 87  1  0  0  0
 79156  1  0  0  0
 79157  1  0  0  0
 80 87  1  0  0  0
 80158  1  0  0  0
 80159  1  0  0  0
 81 83  1  0  0  0
 81 86  1  0  0  0
 81160  1  0  0  0
 81161  1  0  0  0
 82 84  1  0  0  0
 82 86  1  0  0  0
 82162  1  0  0  0
 82163  1  0  0  0
 83 89  1  0  0  0
 83164  1  0  0  0
 83165  1  0  0  0
 84 89  1  0  0  0
 84166  1  0  0  0
 84167  1  0  0  0
 85168  1  0  0  0
 86169  1  0  0  0
 87170  1  0  0  0
 88171  1  0  0  0
 88172  1  0  0  0
 88173  1  0  0  0
M  ISO  4   1 100  68 101  87 101  89 100
M  END
> <chiral flag>
0

> <version>
0

> <s_m_source_file>
/data/baiqing/PycharmProjects/Reinvent-master-3.2/result/LINK_invent/BTK/process_docking_weight1_custom_sum_contain_oxygen_bond_distance_aromatic_linkinvent_7_9_3/rearranged_h_0154.sdf

> <i_m_source_file_index>
81

> <r_mmod_Potential_Energy-OPLS-2005>
214.448959350586

> <r_mmod_Stretch_Energy-OPLS-2005>
39.0662651062012

> <r_mmod_Bend_Energy-OPLS-2005>
114.077392578125

> <r_mmod_Torsional_Energy-OPLS-2005>
357.050170898438

> <r_mmod_Improper_Torsional_Energy-OPLS-2005>
15.3529491424561

> <r_mmod_Van_der_Waal_Energy-OPLS-2005>
174.438735961914

> <r_mmod_Electrostatic_Energy-OPLS-2005>
-311.000366210938

> <r_mmod_Solvation_Energy-OPLS-2005>
-184.503799438477

> <b_mmod_Minimization_Converged-OPLS-2005>
0

> <r_mmod_RMS_Derivative-OPLS-2005>
3.16368627548218

$$$$
82
                    3D
 Structure written by MMmdl.
167176  0  0  1  0            999 V2000
  -30.6653  -14.5434   20.5186 C   0  0  0  0  0  0
  -30.4275  -12.3354   19.4316 C   0  0  0  0  0  0
  -29.5031  -12.5152   18.2091 C   0  0  0  0  0  0
  -28.0200  -12.3703   18.6120 C   0  0  0  0  0  0
  -27.6558  -13.2157   19.8630 C   0  0  2  0  0  0
  -28.7004  -13.0274   20.9866 C   0  0  0  0  0  0
  -25.2555  -13.8166   20.5657 C   0  0  0  0  0  0
  -24.1816  -13.0426   20.9166 C   0  0  0  0  0  0
  -24.6373  -11.6888   20.8686 C   0  0  0  0  0  0
  -23.9036  -10.4275   21.0377 C   0  0  0  0  0  0
  -24.3593   -9.4197   21.9165 C   0  0  0  0  0  0
  -23.6285   -8.2231   22.0756 C   0  0  0  0  0  0
  -22.4270   -8.0252   21.3554 C   0  0  0  0  0  0
  -21.9887   -9.0213   20.4665 C   0  0  0  0  0  0
  -22.7199  -10.2102   20.3049 C   0  0  0  0  0  0
  -21.6858   -6.0722   22.5294 C   0  0  0  0  0  0
  -21.4010   -6.5634   23.8222 C   0  0  0  0  0  0
  -21.3654   -5.6786   24.9186 C   0  0  0  0  0  0
  -21.6035   -4.3043   24.7230 C   0  0  0  0  0  0
  -21.8815   -3.8145   23.4349 C   0  0  0  0  0  0
  -21.9186   -4.6958   22.3410 C   0  0  0  0  0  0
  -22.7832  -13.5221   21.1833 C   0  0  0  0  0  0
  -22.1661   -4.2146   21.0983 F   0  0  0  0  0  0
  -21.5621   -3.4522   25.7741 F   0  0  0  0  0  0
  -30.0266  -13.3411   20.4300 N   0  0  0  0  0  0
  -26.2996  -12.9348   20.3304 N   0  0  0  0  0  0
  -25.9303  -11.6501   20.5694 N   0  0  0  0  0  0
  -22.0464  -12.8231   22.0397 N   0  0  0  0  0  0
  -25.4249  -15.1900   20.4105 N   0  0  0  0  0  0
  -31.8260  -14.6920   20.1189 O   0  0  0  0  0  0
  -21.6644   -6.8850   21.4252 O   0  0  0  0  0  0
  -22.3503  -14.5501   20.6641 O   0  0  0  0  0  0
  -24.6179  -31.8659   23.2053 C   0  0  0  0  0  0
  -25.9063  -32.4813   23.8341 C   0  0  1  0  0  0
  -27.2386  -27.4096   20.1150 C   0  0  0  0  0  0
  -25.5923  -33.8598   24.2309 N   0  0  0  0  0  0
  -23.4066  -30.4850   21.5482 C   0  0  2  0  0  0
  -24.8564  -28.9368   20.1258 C   0  0  0  0  0  0
  -22.7429  -29.4621   22.4991 C   0  0  0  0  0  0
  -18.0278  -28.1385   22.8476 C   0  0  0  0  0  0
  -24.1503  -36.7280   23.2616 C   0  0  0  0  0  0
  -25.9337  -30.8275   21.3492 C   0  0  0  0  0  0
  -26.0157  -29.4490   20.7209 C   0  0  0  0  0  0
  -27.2124  -28.6912   20.7148 C   0  0  0  0  0  0
  -26.0646  -26.9129   19.5121 C   0  0  0  0  0  0
  -24.8747  -27.6667   19.5190 C   0  0  0  0  0  0
  -23.6188  -29.8089   20.1660 C   0  0  0  0  0  0
  -25.4115  -36.3078   24.0336 C   0  0  1  0  0  0
  -20.5871  -28.3630   23.1360 C   0  0  2  0  0  0
  -20.6765  -26.9361   22.5447 C   0  0  0  0  0  0
  -19.5752  -26.6394   21.5224 C   0  0  0  0  0  0
  -18.1930  -26.7940   22.1621 C   0  0  0  0  0  0
  -19.1539  -28.8825   23.2919 C   0  0  0  0  0  0
  -18.9458  -30.1445   23.8897 C   0  0  0  0  0  0
  -17.6454  -30.6572   24.0570 C   0  0  0  0  0  0
  -25.9049  -34.9450   23.5119 C   0  0  0  0  0  0
  -16.5334  -29.9076   23.6330 C   0  0  0  0  0  0
  -16.7276  -28.6519   23.0312 C   0  0  0  0  0  0
  -26.4511  -31.6533   25.0618 C   0  0  0  0  0  0
  -25.3819  -31.3596   26.1394 C   0  0  0  0  0  0
  -27.0239  -30.2976   24.5836 C   0  0  0  0  0  0
  -27.6150  -32.4144   25.7386 C   0  0  0  0  0  0
  -27.5596  -37.1782   24.8463 C   0  0  0  0  0  0
  -21.4146  -29.3009   22.3776 N   0  0  0  0  0  0
  -26.4272  -37.3789   23.9446 N   0  0  0  0  0  0
  -24.6734  -31.0740   22.0957 N   0  0  0  0  0  0
  -23.4212  -28.8156   23.3020 O   0  0  0  0  0  0
  -28.3954  -26.6584   20.0633 O   0  0  0  0  0  0
  -26.5594  -34.8927   22.4664 O   0  0  0  0  0  0
  -23.5372  -32.1405   23.7458 O   0  0  0  0  0  0
  -31.1668  -17.6731   20.1149 C   0  0  0  0  0  0
  -29.3424  -17.9737   21.4013 C   0  0  0  0  0  0
  -30.1244  -17.0088   20.8173 C   0  0  0  0  0  0
  -31.0310  -19.0211   20.3438 C   0  0  0  0  0  0
  -28.4893  -21.8825   23.5727 C   0  0  0  0  0  0
  -28.0689  -22.9951   22.5896 C   0  0  0  0  0  0
  -29.0489  -21.6832   20.7043 C   0  0  0  0  0  0
  -28.4815  -20.4918   22.9095 C   0  0  2  0  0  0
  -29.4839  -20.5575   21.7173 C   0  0  1  0  0  0
  -31.9474  -20.1231   19.8979 C   0  0  0  0  0  0
  -27.0303  -20.0280   22.5816 C   0  0  0  0  0  0
  -28.4864  -24.1360   20.4029 C   0  0  0  0  0  0
  -28.5071  -25.5788   21.0162 C   0  0  0  0  0  0
  -29.9006  -19.2377   21.1457 N   0  0  0  0  0  0
  -29.8953  -15.5858   20.9204 N   0  0  0  0  0  0
  -28.9053  -23.0385   21.3540 N   0  3  1  0  0  0
  -31.4723  -12.4368   19.1312 H   0  0  0  0  0  0
  -30.3313  -11.3293   19.8441 H   0  0  0  0  0  0
  -29.7563  -11.7917   17.4334 H   0  0  0  0  0  0
  -29.6692  -13.5011   17.7677 H   0  0  0  0  0  0
  -27.8252  -11.3142   18.8043 H   0  0  0  0  0  0
  -27.3780  -12.6471   17.7751 H   0  0  0  0  0  0
  -27.6883  -14.2591   19.5460 H   0  0  0  0  0  0
  -28.6866  -11.9979   21.3467 H   0  0  0  0  0  0
  -28.4582  -13.6491   21.8496 H   0  0  0  0  0  0
  -25.2748   -9.5678   22.4708 H   0  0  0  0  0  0
  -24.0013   -7.4622   22.7455 H   0  0  0  0  0  0
  -21.0820   -8.8687   19.8983 H   0  0  0  0  0  0
  -22.3629  -10.9602   19.6132 H   0  0  0  0  0  0
  -21.2013   -7.6145   23.9719 H   0  0  0  0  0  0
  -21.1487   -6.0524   25.9090 H   0  0  0  0  0  0
  -22.0600   -2.7603   23.2848 H   0  0  0  0  0  0
  -22.4071  -11.9914   22.4821 H   0  0  0  0  0  0
  -21.1082  -13.1275   22.2586 H   0  0  0  0  0  0
  -24.6541  -15.8390   20.5200 H   0  0  0  0  0  0
  -26.2740  -15.6350   20.0865 H   0  0  0  0  0  0
  -26.7111  -32.5579   23.1089 H   0  0  0  0  0  0
  -25.0196  -33.9744   25.0537 H   0  0  0  0  0  0
  -22.6948  -31.3011   21.4041 H   0  0  0  0  0  0
  -23.3788  -35.9588   23.3228 H   0  0  0  0  0  0
  -24.3647  -36.8934   22.2045 H   0  0  0  0  0  0
  -23.7222  -37.6455   23.6662 H   0  0  0  0  0  0
  -26.0133  -31.5634   20.5491 H   0  0  0  0  0  0
  -26.8375  -30.9229   21.9371 H   0  0  0  0  0  0
  -28.1123  -29.0820   21.1706 H   0  0  0  0  0  0
  -26.0695  -25.9439   19.0337 H   0  0  0  0  0  0
  -23.9838  -27.2674   19.0530 H   0  0  0  0  0  0
  -23.7343  -30.5790   19.4018 H   0  0  0  0  0  0
  -22.7444  -29.2274   19.8701 H   0  0  0  0  0  0
  -25.1279  -36.1918   25.0821 H   0  0  0  0  0  0
  -20.9994  -28.3169   24.1474 H   0  0  0  0  0  0
  -20.5685  -26.2189   23.3610 H   0  0  0  0  0  0
  -21.6644  -26.7424   22.1246 H   0  0  0  0  0  0
  -19.6901  -25.6324   21.1212 H   0  0  0  0  0  0
  -19.6741  -27.3252   20.6803 H   0  0  0  0  0  0
  -17.4231  -26.6705   21.3991 H   0  0  0  0  0  0
  -18.0303  -26.0073   22.9005 H   0  0  0  0  0  0
  -19.7920  -30.7289   24.2241 H   0  0  0  0  0  0
  -17.5001  -31.6252   24.5173 H   0  0  0  0  0  0
  -15.5336  -30.2979   23.7681 H   0  0  0  0  0  0
  -15.8679  -28.0897   22.6952 H   0  0  0  0  0  0
  -24.6106  -30.6780   25.7782 H   0  0  0  0  0  0
  -24.8867  -32.2710   26.4739 H   0  0  0  0  0  0
  -25.8239  -30.8918   27.0198 H   0  0  0  0  0  0
  -26.2640  -29.6785   24.1033 H   0  0  0  0  0  0
  -27.4218  -29.7137   25.4144 H   0  0  0  0  0  0
  -27.8419  -30.4295   23.8744 H   0  0  0  0  0  0
  -27.2873  -33.3497   26.1923 H   0  0  0  0  0  0
  -28.4022  -32.6551   25.0226 H   0  0  0  0  0  0
  -28.0728  -31.8224   26.5328 H   0  0  0  0  0  0
  -28.2559  -38.0131   24.7596 H   0  0  0  0  0  0
  -28.1134  -36.2671   24.6159 H   0  0  0  0  0  0
  -27.2341  -37.1268   25.8864 H   0  0  0  0  0  0
  -20.9275  -29.8724   21.7006 H   0  0  0  0  0  0
  -26.0146  -38.2834   24.1535 H   0  0  0  0  0  0
  -31.9669  -17.2284   19.5380 H   0  0  0  0  0  0
  -28.4675  -17.8629   22.0217 H   0  0  0  0  0  0
  -27.8330  -21.8903   24.4448 H   0  0  0  0  0  0
  -29.4850  -22.0996   23.9692 H   0  0  0  0  0  0
  -28.1443  -23.9398   23.1271 H   0  0  0  0  0  0
  -27.0213  -22.8711   22.3123 H   0  0  0  0  0  0
  -28.1160  -21.4099   20.2139 H   0  0  0  0  0  0
  -29.7851  -21.7755   19.9068 H   0  0  0  0  0  0
  -28.8798  -19.7954   23.6518 H   0  0  0  0  0  0
  -30.4091  -20.9301   22.1619 H   0  0  0  0  0  0
  -32.9026  -19.7194   19.5602 H   0  0  0  0  0  0
  -32.1670  -20.8197   20.7090 H   0  0  0  0  0  0
  -31.5306  -20.6804   19.0585 H   0  0  0  0  0  0
  -26.8001  -20.0776   21.5175 H   0  0  0  0  0  0
  -26.2790  -20.6297   23.1006 H   0  0  0  0  0  0
  -26.8489  -19.0047   22.9102 H   0  0  0  0  0  0
  -29.1592  -24.1193   19.5453 H   0  0  0  0  0  0
  -27.4931  -23.9134   20.0104 H   0  0  0  0  0  0
  -29.4630  -25.7260   21.5195 H   0  0  0  0  0  0
  -27.7430  -25.6801   21.7895 H   0  0  0  0  0  0
  -28.9913  -15.3143   21.2739 H   0  0  0  0  0  0
  -29.8372  -23.2796   21.6582 H   0  0  0  0  0  0
  1 25  1  0  0  0
  1 30  2  0  0  0
  1 85  1  0  0  0
  2  3  1  0  0  0
  2 25  1  0  0  0
  2 87  1  0  0  0
  2 88  1  0  0  0
  3  4  1  0  0  0
  3 89  1  0  0  0
  3 90  1  0  0  0
  4  5  1  0  0  0
  4 91  1  0  0  0
  4 92  1  0  0  0
  5  6  1  0  0  0
  5 26  1  0  0  0
  5 93  1  0  0  0
  6 25  1  0  0  0
  6 94  1  0  0  0
  6 95  1  0  0  0
  7  8  2  0  0  0
  7 26  1  0  0  0
  7 29  1  0  0  0
  8  9  1  0  0  0
  8 22  1  0  0  0
  9 10  1  0  0  0
  9 27  2  0  0  0
 10 11  2  0  0  0
 10 15  1  0  0  0
 11 12  1  0  0  0
 11 96  1  0  0  0
 12 13  2  0  0  0
 12 97  1  0  0  0
 13 14  1  0  0  0
 13 31  1  0  0  0
 14 15  2  0  0  0
 14 98  1  0  0  0
 15 99  1  0  0  0
 16 17  2  0  0  0
 16 21  1  0  0  0
 16 31  1  0  0  0
 17 18  1  0  0  0
 17100  1  0  0  0
 18 19  2  0  0  0
 18101  1  0  0  0
 19 20  1  0  0  0
 19 24  1  0  0  0
 20 21  2  0  0  0
 20102  1  0  0  0
 21 23  1  0  0  0
 22 28  1  0  0  0
 22 32  2  0  0  0
 26 27  1  0  0  0
 28103  1  0  0  0
 28104  1  0  0  0
 29105  1  0  0  0
 29106  1  0  0  0
 33 34  1  0  0  0
 33 66  1  0  0  0
 33 70  2  0  0  0
 34 36  1  0  0  0
 34 59  1  0  0  0
 34107  1  0  0  0
 35 44  2  0  0  0
 35 45  1  0  0  0
 35 68  1  0  0  0
 36 56  1  0  0  0
 36108  1  0  0  0
 37 39  1  0  0  0
 37 47  1  0  0  0
 37 66  1  0  0  0
 37109  1  0  0  0
 38 43  2  0  0  0
 38 46  1  0  0  0
 38 47  1  0  0  0
 39 64  1  0  0  0
 39 67  2  0  0  0
 40 52  1  0  0  0
 40 53  2  0  0  0
 40 58  1  0  0  0
 41110  1  0  0  0
 41111  1  0  0  0
 41112  1  0  0  0
 41 48  1  0  0  0
 42 43  1  0  0  0
 42 66  1  0  0  0
 42113  1  0  0  0
 42114  1  0  0  0
 43 44  1  0  0  0
 44115  1  0  0  0
 45 46  2  0  0  0
 45116  1  0  0  0
 46117  1  0  0  0
 47118  1  0  0  0
 47119  1  0  0  0
 48 56  1  0  0  0
 48 65  1  0  0  0
 48120  1  0  0  0
 49 50  1  0  0  0
 49 53  1  0  0  0
 49 64  1  0  0  0
 49121  1  0  0  0
 50 51  1  0  0  0
 50122  1  0  0  0
 50123  1  0  0  0
 51 52  1  0  0  0
 51124  1  0  0  0
 51125  1  0  0  0
 52126  1  0  0  0
 52127  1  0  0  0
 53 54  1  0  0  0
 54 55  2  0  0  0
 54128  1  0  0  0
 55 57  1  0  0  0
 55129  1  0  0  0
 56 69  2  0  0  0
 57 58  2  0  0  0
 57130  1  0  0  0
 58131  1  0  0  0
 59 60  1  0  0  0
 59 61  1  0  0  0
 59 62  1  0  0  0
 60132  1  0  0  0
 60133  1  0  0  0
 60134  1  0  0  0
 61135  1  0  0  0
 61136  1  0  0  0
 61137  1  0  0  0
 62138  1  0  0  0
 62139  1  0  0  0
 62140  1  0  0  0
 63 65  1  0  0  0
 63141  1  0  0  0
 63142  1  0  0  0
 63143  1  0  0  0
 64144  1  0  0  0
 65145  1  0  0  0
 68 83  1  0  0  0
 71 73  1  0  0  0
 71 74  2  0  0  0
 71146  1  0  0  0
 72 73  2  0  0  0
 72 84  1  0  0  0
 72147  1  0  0  0
 73 85  1  0  0  0
 74 80  1  0  0  0
 74 84  1  0  0  0
 75 76  1  0  0  0
 75 78  1  0  0  0
 75148  1  0  0  0
 75149  1  0  0  0
 76 86  1  0  0  0
 76150  1  0  0  0
 76151  1  0  0  0
 77 79  1  0  0  0
 77 86  1  0  0  0
 77152  1  0  0  0
 77153  1  0  0  0
 78 79  1  0  0  0
 78 81  1  0  0  0
 78154  1  0  0  0
 79 84  1  0  0  0
 79155  1  0  0  0
 80156  1  0  0  0
 80157  1  0  0  0
 80158  1  0  0  0
 81159  1  0  0  0
 81160  1  0  0  0
 81161  1  0  0  0
 82 83  1  0  0  0
 82162  1  0  0  0
 82163  1  0  0  0
 82 86  1  0  0  0
 83164  1  0  0  0
 83165  1  0  0  0
 85166  1  0  0  0
 86167  1  0  0  0
M  CHG  1  86   1
M  ISO  4   1 100  68 101  83 101  85 100
M  END
> <chiral flag>
0

> <version>
0

> <s_m_source_file>
/data/baiqing/PycharmProjects/Reinvent-master-3.2/result/LINK_invent/BTK/process_docking_weight1_custom_sum_contain_oxygen_bond_distance_aromatic_linkinvent_7_9_3/rearranged_h_0154.sdf

> <i_m_source_file_index>
82

> <r_mmod_Potential_Energy-OPLS-2005>
-1.59972679615021

> <r_mmod_Stretch_Energy-OPLS-2005>
54.6883201599121

> <r_mmod_Bend_Energy-OPLS-2005>
130.402114868164

> <r_mmod_Torsional_Energy-OPLS-2005>
309.189361572266

> <r_mmod_Improper_Torsional_Energy-OPLS-2005>
4.31249856948853

> <r_mmod_Van_der_Waal_Energy-OPLS-2005>
130.881072998047

> <r_mmod_Electrostatic_Energy-OPLS-2005>
-205.307388305664

> <r_mmod_Solvation_Energy-OPLS-2005>
-445.579132080078

> <b_mmod_Minimization_Converged-OPLS-2005>
0

> <r_mmod_RMS_Derivative-OPLS-2005>
4.19300937652588

$$$$
83
                    3D
 Structure written by MMmdl.
174184  0  0  1  0            999 V2000
  -30.7377  -14.4423   20.6538 C   0  0  0  0  0  0
  -30.4224  -12.3241   19.4084 C   0  0  0  0  0  0
  -29.4871  -12.5211   18.1986 C   0  0  0  0  0  0
  -28.0125  -12.3546   18.6139 C   0  0  0  0  0  0
  -27.6625  -13.1839   19.8744 C   0  0  2  0  0  0
  -28.7071  -12.9310   20.9910 C   0  0  0  0  0  0
  -25.2611  -13.8106   20.5658 C   0  0  0  0  0  0
  -24.1842  -13.0418   20.9175 C   0  0  0  0  0  0
  -24.6368  -11.6873   20.8744 C   0  0  0  0  0  0
  -23.9030  -10.4276   21.0416 C   0  0  0  0  0  0
  -24.3595   -9.4195   21.9190 C   0  0  0  0  0  0
  -23.6275   -8.2229   22.0757 C   0  0  0  0  0  0
  -22.4258   -8.0270   21.3546 C   0  0  0  0  0  0
  -21.9887   -9.0242   20.4651 C   0  0  0  0  0  0
  -22.7210  -10.2122   20.3061 C   0  0  0  0  0  0
  -21.6843   -6.0730   22.5280 C   0  0  0  0  0  0
  -21.4006   -6.5637   23.8213 C   0  0  0  0  0  0
  -21.3657   -5.6789   24.9174 C   0  0  0  0  0  0
  -21.6044   -4.3051   24.7224 C   0  0  0  0  0  0
  -21.8818   -3.8142   23.4345 C   0  0  0  0  0  0
  -21.9189   -4.6958   22.3402 C   0  0  0  0  0  0
  -22.7873  -13.5246   21.1839 C   0  0  0  0  0  0
  -22.1656   -4.2146   21.0980 F   0  0  0  0  0  0
  -21.5632   -3.4534   25.7736 F   0  0  0  0  0  0
  -30.0340  -13.2848   20.4601 N   0  0  0  0  0  0
  -26.3019  -12.9227   20.3356 N   0  0  0  0  0  0
  -25.9282  -11.6413   20.5768 N   0  0  0  0  0  0
  -22.0500  -12.8252   22.0397 N   0  0  0  0  0  0
  -25.4334  -15.1820   20.4041 N   0  0  0  0  0  0
  -31.7979  -14.6501   20.0513 O   0  0  0  0  0  0
  -21.6625   -6.8869   21.4241 O   0  0  0  0  0  0
  -22.3572  -14.5558   20.6688 O   0  0  0  0  0  0
  -24.6106  -31.8703   23.2126 C   0  0  0  0  0  0
  -25.9011  -32.4836   23.8412 C   0  0  1  0  0  0
  -27.2448  -27.4640   20.0959 C   0  0  0  0  0  0
  -25.5881  -33.8636   24.2340 N   0  0  0  0  0  0
  -23.3990  -30.4915   21.5514 C   0  0  2  0  0  0
  -24.8501  -28.9550   20.1224 C   0  0  0  0  0  0
  -22.7390  -29.4665   22.5006 C   0  0  0  0  0  0
  -18.0264  -28.1375   22.8496 C   0  0  0  0  0  0
  -24.1484  -36.7324   23.2637 C   0  0  0  0  0  0
  -25.9244  -30.8405   21.3659 C   0  0  0  0  0  0
  -26.0049  -29.4731   20.7231 C   0  0  0  0  0  0
  -27.2056  -28.7310   20.7171 C   0  0  0  0  0  0
  -26.0803  -26.9534   19.4899 C   0  0  0  0  0  0
  -24.8793  -27.6895   19.5082 C   0  0  0  0  0  0
  -23.6095  -29.8184   20.1679 C   0  0  0  0  0  0
  -25.4105  -36.3124   24.0342 C   0  0  1  0  0  0
  -20.5853  -28.3656   23.1330 C   0  0  2  0  0  0
  -20.6753  -26.9394   22.5429 C   0  0  0  0  0  0
  -19.5738  -26.6382   21.5218 C   0  0  0  0  0  0
  -18.1913  -26.7926   22.1616 C   0  0  0  0  0  0
  -19.1514  -28.8830   23.2913 C   0  0  0  0  0  0
  -18.9445  -30.1438   23.8920 C   0  0  0  0  0  0
  -17.6449  -30.6587   24.0564 C   0  0  0  0  0  0
  -25.9029  -34.9486   23.5138 C   0  0  0  0  0  0
  -16.5340  -29.9089   23.6326 C   0  0  0  0  0  0
  -16.7256  -28.6505   23.0349 C   0  0  0  0  0  0
  -26.4457  -31.6607   25.0726 C   0  0  0  0  0  0
  -25.3737  -31.3733   26.1491 C   0  0  0  0  0  0
  -27.0260  -30.3038   24.6091 C   0  0  0  0  0  0
  -27.6058  -32.4312   25.7463 C   0  0  0  0  0  0
  -27.5586  -37.1811   24.8460 C   0  0  0  0  0  0
  -21.4122  -29.3029   22.3739 N   0  0  0  0  0  0
  -26.4295  -37.3803   23.9409 N   0  0  0  0  0  0
  -24.6621  -31.0817   22.1020 N   0  0  0  0  0  0
  -23.4173  -28.8215   23.3044 O   0  0  0  0  0  0
  -28.4076  -26.7398   20.0094 O   0  0  0  0  0  0
  -26.5594  -34.8933   22.4700 O   0  0  0  0  0  0
  -23.5303  -32.1445   23.7529 O   0  0  0  0  0  0
  -30.2895  -20.1331   20.4826 C   0  0  0  0  0  0
  -29.9703  -20.6433   22.8286 C   0  0  0  0  0  0
  -30.1435  -19.6880   21.8091 C   0  0  0  0  0  0
  -29.9995  -22.4744   21.1912 C   0  0  0  0  0  0
  -30.2168  -21.5070   20.1665 C   0  0  0  0  0  0
  -29.9033  -22.0312   22.5412 C   0  0  0  0  0  0
  -30.9808  -24.8758   21.3997 C   0  0  0  0  0  0
  -30.4269  -26.2990   21.2475 C   0  0  0  0  0  0
  -29.0788  -17.4161   21.3445 C   0  0  0  0  0  0
  -31.4876  -17.4960   22.0190 C   0  0  0  0  0  0
  -28.5733  -24.6763   21.2635 C   0  0  0  0  0  0
  -29.0370  -15.9384   21.7752 C   0  0  0  0  0  0
  -31.3736  -16.0111   22.4465 C   0  0  0  0  0  0
  -30.1251  -18.1974   22.1525 C   0  0  0  0  0  0
  -29.8761  -23.9754   20.8397 C   0  0  2  0  0  0
  -28.8893  -26.1844   21.2311 C   0  0  2  0  0  0
  -30.3733  -21.8985   18.7044 C   0  0  0  0  0  0
  -29.6759  -22.5578   24.8884 C   0  0  0  0  0  0
  -30.3575  -15.2839   21.6584 N   0  0  0  0  0  0
  -29.7414  -22.9786   23.5315 O   0  0  0  0  0  0
  -31.4633  -12.4322   19.0982 H   0  0  0  0  0  0
  -30.3420  -11.3040   19.7872 H   0  0  0  0  0  0
  -29.7353  -11.8084   17.4108 H   0  0  0  0  0  0
  -29.6399  -13.5139   17.7726 H   0  0  0  0  0  0
  -27.8341  -11.2958   18.8059 H   0  0  0  0  0  0
  -27.3549  -12.6279   17.7877 H   0  0  0  0  0  0
  -27.7082  -14.2244   19.5591 H   0  0  0  0  0  0
  -28.7010  -11.8749   21.2650 H   0  0  0  0  0  0
  -28.4592  -13.4399   21.9201 H   0  0  0  0  0  0
  -25.2741   -9.5671   22.4760 H   0  0  0  0  0  0
  -23.9984   -7.4619   22.7472 H   0  0  0  0  0  0
  -21.0817   -8.8758   19.8960 H   0  0  0  0  0  0
  -22.3671  -10.9659   19.6168 H   0  0  0  0  0  0
  -21.1992   -7.6146   23.9716 H   0  0  0  0  0  0
  -21.1482   -6.0518   25.9079 H   0  0  0  0  0  0
  -22.0598   -2.7603   23.2842 H   0  0  0  0  0  0
  -22.4096  -11.9915   22.4799 H   0  0  0  0  0  0
  -21.1122  -13.1300   22.2596 H   0  0  0  0  0  0
  -24.6659  -15.8354   20.5148 H   0  0  0  0  0  0
  -26.2842  -15.6228   20.0787 H   0  0  0  0  0  0
  -26.7085  -32.5564   23.1185 H   0  0  0  0  0  0
  -25.0026  -33.9805   25.0480 H   0  0  0  0  0  0
  -22.6869  -31.3073   21.4099 H   0  0  0  0  0  0
  -23.3752  -35.9651   23.3302 H   0  0  0  0  0  0
  -24.3583  -36.8935   22.2053 H   0  0  0  0  0  0
  -23.7227  -37.6526   23.6649 H   0  0  0  0  0  0
  -26.0318  -31.6033   20.5937 H   0  0  0  0  0  0
  -26.8137  -30.8993   21.9812 H   0  0  0  0  0  0
  -28.1018  -29.1336   21.1687 H   0  0  0  0  0  0
  -26.1080  -25.9892   19.0016 H   0  0  0  0  0  0
  -23.9926  -27.2848   19.0396 H   0  0  0  0  0  0
  -23.7146  -30.5898   19.4043 H   0  0  0  0  0  0
  -22.7364  -29.2328   19.8747 H   0  0  0  0  0  0
  -25.1285  -36.1993   25.0836 H   0  0  0  0  0  0
  -20.9947  -28.3219   24.1450 H   0  0  0  0  0  0
  -20.5648  -26.2267   23.3617 H   0  0  0  0  0  0
  -21.6626  -26.7440   22.1220 H   0  0  0  0  0  0
  -19.6898  -25.6297   21.1234 H   0  0  0  0  0  0
  -19.6691  -27.3207   20.6762 H   0  0  0  0  0  0
  -17.4195  -26.6701   21.4001 H   0  0  0  0  0  0
  -18.0297  -26.0056   22.8995 H   0  0  0  0  0  0
  -19.7923  -30.7240   24.2303 H   0  0  0  0  0  0
  -17.5011  -31.6272   24.5157 H   0  0  0  0  0  0
  -15.5343  -30.2999   23.7641 H   0  0  0  0  0  0
  -15.8654  -28.0834   22.7050 H   0  0  0  0  0  0
  -24.5878  -30.7111   25.7836 H   0  0  0  0  0  0
  -24.8964  -32.2901   26.4964 H   0  0  0  0  0  0
  -25.8090  -30.8876   27.0233 H   0  0  0  0  0  0
  -26.2782  -29.6819   24.1152 H   0  0  0  0  0  0
  -27.4023  -29.7260   25.4543 H   0  0  0  0  0  0
  -27.8632  -30.4338   23.9229 H   0  0  0  0  0  0
  -27.2704  -33.3613   26.2066 H   0  0  0  0  0  0
  -28.3844  -32.6868   25.0262 H   0  0  0  0  0  0
  -28.0750  -31.8415   26.5349 H   0  0  0  0  0  0
  -28.2615  -38.0097   24.7503 H   0  0  0  0  0  0
  -28.1070  -36.2634   24.6284 H   0  0  0  0  0  0
  -27.2315  -37.1455   25.8865 H   0  0  0  0  0  0
  -20.9279  -29.8751   21.6965 H   0  0  0  0  0  0
  -26.0194  -38.2885   24.1415 H   0  0  0  0  0  0
  -30.4394  -19.4079   19.6944 H   0  0  0  0  0  0
  -29.8736  -20.2808   23.8406 H   0  0  0  0  0  0
  -31.1538  -24.6764   22.4562 H   0  0  0  0  0  0
  -31.9318  -24.7365   20.8840 H   0  0  0  0  0  0
  -30.7812  -26.7269   20.3080 H   0  0  0  0  0  0
  -30.7788  -26.9532   22.0460 H   0  0  0  0  0  0
  -28.0942  -17.8650   21.4848 H   0  0  0  0  0  0
  -29.2947  -17.4750   20.2772 H   0  0  0  0  0  0
  -31.8475  -17.5611   20.9911 H   0  0  0  0  0  0
  -32.2287  -18.0020   22.6393 H   0  0  0  0  0  0
  -28.2923  -24.4125   22.2810 H   0  0  0  0  0  0
  -27.7299  -24.4039   20.6282 H   0  0  0  0  0  0
  -28.2721  -15.4707   21.1713 H   0  0  0  0  0  0
  -28.6951  -15.8575   22.8080 H   0  0  0  0  0  0
  -31.0972  -15.9521   23.5001 H   0  0  0  0  0  0
  -32.3515  -15.5302   22.3790 H   0  0  0  0  0  0
  -29.8308  -18.1204   23.2007 H   0  0  0  0  0  0
  -29.9176  -24.1061   19.7607 H   0  0  0  0  0  0
  -28.4591  -26.6787   22.1051 H   0  0  0  0  0  0
  -30.5705  -21.0313   18.0733 H   0  0  0  0  0  0
  -31.2083  -22.5884   18.5768 H   0  0  0  0  0  0
  -29.4649  -22.3723   18.3313 H   0  0  0  0  0  0
  -29.5717  -23.4311   25.5317 H   0  0  0  0  0  0
  -30.5850  -22.0361   25.1906 H   0  0  0  0  0  0
  -28.8123  -21.9155   25.0668 H   0  0  0  0  0  0
  1 25  1  0  0  0
  1 30  2  0  0  0
  1 89  1  0  0  0
  2  3  1  0  0  0
  2 25  1  0  0  0
  2 91  1  0  0  0
  2 92  1  0  0  0
  3  4  1  0  0  0
  3 93  1  0  0  0
  3 94  1  0  0  0
  4  5  1  0  0  0
  4 95  1  0  0  0
  4 96  1  0  0  0
  5  6  1  0  0  0
  5 26  1  0  0  0
  5 97  1  0  0  0
  6 25  1  0  0  0
  6 98  1  0  0  0
  6 99  1  0  0  0
  7  8  2  0  0  0
  7 26  1  0  0  0
  7 29  1  0  0  0
  8  9  1  0  0  0
  8 22  1  0  0  0
  9 10  1  0  0  0
  9 27  2  0  0  0
 10 11  2  0  0  0
 10 15  1  0  0  0
 11 12  1  0  0  0
 11100  1  0  0  0
 12 13  2  0  0  0
 12101  1  0  0  0
 13 14  1  0  0  0
 13 31  1  0  0  0
 14 15  2  0  0  0
 14102  1  0  0  0
 15103  1  0  0  0
 16 17  2  0  0  0
 16 21  1  0  0  0
 16 31  1  0  0  0
 17 18  1  0  0  0
 17104  1  0  0  0
 18 19  2  0  0  0
 18105  1  0  0  0
 19 20  1  0  0  0
 19 24  1  0  0  0
 20 21  2  0  0  0
 20106  1  0  0  0
 21 23  1  0  0  0
 22 28  1  0  0  0
 22 32  2  0  0  0
 26 27  1  0  0  0
 28107  1  0  0  0
 28108  1  0  0  0
 29109  1  0  0  0
 29110  1  0  0  0
 33 34  1  0  0  0
 33 66  1  0  0  0
 33 70  2  0  0  0
 34 36  1  0  0  0
 34 59  1  0  0  0
 34111  1  0  0  0
 35 44  2  0  0  0
 35 45  1  0  0  0
 35 68  1  0  0  0
 36 56  1  0  0  0
 36112  1  0  0  0
 37 39  1  0  0  0
 37 47  1  0  0  0
 37 66  1  0  0  0
 37113  1  0  0  0
 38 43  2  0  0  0
 38 46  1  0  0  0
 38 47  1  0  0  0
 39 64  1  0  0  0
 39 67  2  0  0  0
 40 52  1  0  0  0
 40 53  2  0  0  0
 40 58  1  0  0  0
 41114  1  0  0  0
 41115  1  0  0  0
 41116  1  0  0  0
 41 48  1  0  0  0
 42 43  1  0  0  0
 42 66  1  0  0  0
 42117  1  0  0  0
 42118  1  0  0  0
 43 44  1  0  0  0
 44119  1  0  0  0
 45 46  2  0  0  0
 45120  1  0  0  0
 46121  1  0  0  0
 47122  1  0  0  0
 47123  1  0  0  0
 48 56  1  0  0  0
 48 65  1  0  0  0
 48124  1  0  0  0
 49 50  1  0  0  0
 49 53  1  0  0  0
 49 64  1  0  0  0
 49125  1  0  0  0
 50 51  1  0  0  0
 50126  1  0  0  0
 50127  1  0  0  0
 51 52  1  0  0  0
 51128  1  0  0  0
 51129  1  0  0  0
 52130  1  0  0  0
 52131  1  0  0  0
 53 54  1  0  0  0
 54 55  2  0  0  0
 54132  1  0  0  0
 55 57  1  0  0  0
 55133  1  0  0  0
 56 69  2  0  0  0
 57 58  2  0  0  0
 57134  1  0  0  0
 58135  1  0  0  0
 59 60  1  0  0  0
 59 61  1  0  0  0
 59 62  1  0  0  0
 60136  1  0  0  0
 60137  1  0  0  0
 60138  1  0  0  0
 61139  1  0  0  0
 61140  1  0  0  0
 61141  1  0  0  0
 62142  1  0  0  0
 62143  1  0  0  0
 62144  1  0  0  0
 63 65  1  0  0  0
 63145  1  0  0  0
 63146  1  0  0  0
 63147  1  0  0  0
 64148  1  0  0  0
 65149  1  0  0  0
 68 86  1  0  0  0
 71 73  2  0  0  0
 71 75  1  0  0  0
 71150  1  0  0  0
 72 73  1  0  0  0
 72 76  2  0  0  0
 72151  1  0  0  0
 73 84  1  0  0  0
 74 75  2  0  0  0
 74 76  1  0  0  0
 74 85  1  0  0  0
 75 87  1  0  0  0
 76 90  1  0  0  0
 77 78  1  0  0  0
 77 85  1  0  0  0
 77152  1  0  0  0
 77153  1  0  0  0
 78 86  1  0  0  0
 78154  1  0  0  0
 78155  1  0  0  0
 79 82  1  0  0  0
 79 84  1  0  0  0
 79156  1  0  0  0
 79157  1  0  0  0
 80 83  1  0  0  0
 80 84  1  0  0  0
 80158  1  0  0  0
 80159  1  0  0  0
 81 85  1  0  0  0
 81 86  1  0  0  0
 81160  1  0  0  0
 81161  1  0  0  0
 82 89  1  0  0  0
 82162  1  0  0  0
 82163  1  0  0  0
 83 89  1  0  0  0
 83164  1  0  0  0
 83165  1  0  0  0
 84166  1  0  0  0
 85167  1  0  0  0
 86168  1  0  0  0
 87169  1  0  0  0
 87170  1  0  0  0
 87171  1  0  0  0
 88 90  1  0  0  0
 88172  1  0  0  0
 88173  1  0  0  0
 88174  1  0  0  0
M  ISO  4   1 100  68 101  86 101  89 100
M  END
> <chiral flag>
0

> <version>
0

> <s_m_source_file>
/data/baiqing/PycharmProjects/Reinvent-master-3.2/result/LINK_invent/BTK/process_docking_weight1_custom_sum_contain_oxygen_bond_distance_aromatic_linkinvent_7_9_3/rearranged_h_0154.sdf

> <i_m_source_file_index>
83

> <r_mmod_Potential_Energy-OPLS-2005>
240.472366333008

> <r_mmod_Stretch_Energy-OPLS-2005>
42.4922637939453

> <r_mmod_Bend_Energy-OPLS-2005>
137.666427612305

> <r_mmod_Torsional_Energy-OPLS-2005>
371.422546386719

> <r_mmod_Improper_Torsional_Energy-OPLS-2005>
5.27409839630127

> <r_mmod_Van_der_Waal_Energy-OPLS-2005>
170.320175170898

> <r_mmod_Electrostatic_Energy-OPLS-2005>
-300.967803955078

> <r_mmod_Solvation_Energy-OPLS-2005>
-194.133102416992

> <b_mmod_Minimization_Converged-OPLS-2005>
0

> <r_mmod_RMS_Derivative-OPLS-2005>
0.688094615936279

$$$$
84
                    3D
 Structure written by MMmdl.
163172  0  0  1  0            999 V2000
  -30.6360  -14.6234   20.4922 C   0  0  0  0  0  0
  -30.4299  -12.3801   19.4544 C   0  0  0  0  0  0
  -29.5068  -12.5023   18.2226 C   0  0  0  0  0  0
  -28.0285  -12.3462   18.6319 C   0  0  0  0  0  0
  -27.6508  -13.2180   19.8592 C   0  0  2  0  0  0
  -28.6935  -13.0837   20.9919 C   0  0  0  0  0  0
  -25.2555  -13.8178   20.5685 C   0  0  0  0  0  0
  -24.1823  -13.0441   20.9188 C   0  0  0  0  0  0
  -24.6387  -11.6909   20.8725 C   0  0  0  0  0  0
  -23.9052  -10.4289   21.0396 C   0  0  0  0  0  0
  -24.3605   -9.4211   21.9180 C   0  0  0  0  0  0
  -23.6282   -8.2247   22.0752 C   0  0  0  0  0  0
  -22.4264   -8.0281   21.3545 C   0  0  0  0  0  0
  -21.9894   -9.0254   20.4649 C   0  0  0  0  0  0
  -22.7220  -10.2135   20.3049 C   0  0  0  0  0  0
  -21.6861   -6.0726   22.5276 C   0  0  0  0  0  0
  -21.4019   -6.5628   23.8207 C   0  0  0  0  0  0
  -21.3659   -5.6784   24.9171 C   0  0  0  0  0  0
  -21.6046   -4.3046   24.7221 C   0  0  0  0  0  0
  -21.8820   -3.8136   23.4342 C   0  0  0  0  0  0
  -21.9196   -4.6954   22.3400 C   0  0  0  0  0  0
  -22.7846  -13.5240   21.1849 C   0  0  0  0  0  0
  -22.1664   -4.2137   21.0978 F   0  0  0  0  0  0
  -21.5630   -3.4530   25.7734 F   0  0  0  0  0  0
  -30.0080  -13.4094   20.4243 N   0  0  0  0  0  0
  -26.2974  -12.9359   20.3290 N   0  0  0  0  0  0
  -25.9312  -11.6513   20.5728 N   0  0  0  0  0  0
  -22.0478  -12.8238   22.0400 N   0  0  0  0  0  0
  -25.4261  -15.1902   20.4114 N   0  0  0  0  0  0
  -31.8085  -14.7602   20.1339 O   0  0  0  0  0  0
  -21.6642   -6.8871   21.4239 O   0  0  0  0  0  0
  -22.3529  -14.5543   20.6693 O   0  0  0  0  0  0
  -24.6234  -31.8605   23.2037 C   0  0  0  0  0  0
  -25.9091  -32.4778   23.8357 C   0  0  1  0  0  0
  -27.2286  -27.3354   20.1128 C   0  0  0  0  0  0
  -25.5915  -33.8580   24.2271 N   0  0  0  0  0  0
  -23.4157  -30.4831   21.5471 C   0  0  2  0  0  0
  -24.8611  -28.9335   20.1190 C   0  0  0  0  0  0
  -22.7454  -29.4625   22.4958 C   0  0  0  0  0  0
  -18.0274  -28.1379   22.8477 C   0  0  0  0  0  0
  -24.1498  -36.7295   23.2641 C   0  0  0  0  0  0
  -25.9546  -30.7939   21.3728 C   0  0  0  0  0  0
  -26.0282  -29.4207   20.7199 C   0  0  0  0  0  0
  -27.2130  -28.6324   20.7092 C   0  0  0  0  0  0
  -26.0362  -26.8884   19.5027 C   0  0  0  0  0  0
  -24.8641  -27.6700   19.5068 C   0  0  0  0  0  0
  -23.6294  -29.8133   20.1651 C   0  0  0  0  0  0
  -25.4122  -36.3083   24.0325 C   0  0  1  0  0  0
  -20.5867  -28.3676   23.1292 C   0  0  2  0  0  0
  -20.6765  -26.9405   22.5414 C   0  0  0  0  0  0
  -19.5746  -26.6383   21.5206 C   0  0  0  0  0  0
  -18.1921  -26.7919   22.1613 C   0  0  0  0  0  0
  -19.1522  -28.8844   23.2878 C   0  0  0  0  0  0
  -18.9451  -30.1445   23.8898 C   0  0  0  0  0  0
  -17.6455  -30.6591   24.0556 C   0  0  0  0  0  0
  -25.9054  -34.9453   23.5094 C   0  0  0  0  0  0
  -16.5345  -29.9084   23.6336 C   0  0  0  0  0  0
  -16.7261  -28.6500   23.0355 C   0  0  0  0  0  0
  -26.4492  -31.6585   25.0719 C   0  0  0  0  0  0
  -25.3738  -31.3708   26.1455 C   0  0  0  0  0  0
  -27.0333  -30.3008   24.6165 C   0  0  0  0  0  0
  -27.6058  -32.4320   25.7484 C   0  0  0  0  0  0
  -27.5579  -37.1805   24.8469 C   0  0  0  0  0  0
  -21.4170  -29.3034   22.3695 N   0  0  0  0  0  0
  -26.4299  -37.3777   23.9401 N   0  0  0  0  0  0
  -24.6832  -31.0627   22.0981 N   0  0  0  0  0  0
  -23.4177  -28.8169   23.3042 O   0  0  0  0  0  0
  -28.3859  -26.5510   20.0856 O   0  0  0  0  0  0
  -26.5633  -34.8917   22.4667 O   0  0  0  0  0  0
  -23.5407  -32.1403   23.7379 O   0  0  0  0  0  0
  -28.8337  -24.5010   21.3783 C   0  0  0  0  0  0
  -28.0456  -24.2827   19.1265 C   0  0  0  0  0  0
  -28.8964  -23.0785   21.5057 C   0  0  0  0  0  0
  -28.0788  -22.8591   19.2414 C   0  0  0  0  0  0
  -28.4864  -22.2122   20.4480 C   0  0  0  0  0  0
  -28.3777  -25.1447   20.2021 C   0  0  0  0  0  0
  -29.6784  -19.0846   19.0631 C   0  0  0  0  0  0
  -30.2385  -17.6377   19.1301 C   0  0  0  0  0  0
  -29.2570  -18.2214   21.2486 C   0  0  0  0  0  0
  -29.4562  -19.5908   20.4997 C   0  0  2  0  0  0
  -30.2150  -17.1657   20.5991 C   0  0  1  0  0  0
  -29.3820  -22.5015   22.8247 C   0  0  0  0  0  0
  -27.6245  -22.0461   18.0411 C   0  0  0  0  0  0
  -28.2909  -20.6595   20.6755 C   0  0  0  0  0  0
  -29.8510  -15.7135   20.7575 N   0  0  0  0  0  0
  -31.4739  -12.4928   19.1562 H   0  0  0  0  0  0
  -30.3513  -11.3867   19.8990 H   0  0  0  0  0  0
  -29.7702  -11.7517   17.4762 H   0  0  0  0  0  0
  -29.6555  -13.4726   17.7453 H   0  0  0  0  0  0
  -27.8582  -11.2939   18.8625 H   0  0  0  0  0  0
  -27.3778  -12.5821   17.7889 H   0  0  0  0  0  0
  -27.6673  -14.2512   19.5129 H   0  0  0  0  0  0
  -28.6999  -12.0693   21.3942 H   0  0  0  0  0  0
  -28.4461  -13.7386   21.8290 H   0  0  0  0  0  0
  -25.2755   -9.5700   22.4751 H   0  0  0  0  0  0
  -24.0000   -7.4643   22.7471 H   0  0  0  0  0  0
  -21.0827   -8.8772   19.8955 H   0  0  0  0  0  0
  -22.3679  -10.9671   19.6153 H   0  0  0  0  0  0
  -21.2015   -7.6134   23.9706 H   0  0  0  0  0  0
  -21.1480   -6.0512   25.9075 H   0  0  0  0  0  0
  -22.0600   -2.7597   23.2847 H   0  0  0  0  0  0
  -22.4083  -11.9904   22.4806 H   0  0  0  0  0  0
  -21.1099  -13.1280   22.2596 H   0  0  0  0  0  0
  -24.6573  -15.8419   20.5236 H   0  0  0  0  0  0
  -26.2699  -15.6302   20.0666 H   0  0  0  0  0  0
  -26.7143  -32.5450   23.1097 H   0  0  0  0  0  0
  -25.0053  -33.9733   25.0407 H   0  0  0  0  0  0
  -22.7084  -31.3028   21.4029 H   0  0  0  0  0  0
  -23.3751  -35.9643   23.3336 H   0  0  0  0  0  0
  -24.3574  -36.8887   22.2051 H   0  0  0  0  0  0
  -23.7276  -37.6512   23.6648 H   0  0  0  0  0  0
  -26.0842  -31.5575   20.6049 H   0  0  0  0  0  0
  -26.8364  -30.8424   22.0010 H   0  0  0  0  0  0
  -28.1169  -29.0084   21.1669 H   0  0  0  0  0  0
  -25.9928  -25.9254   19.0192 H   0  0  0  0  0  0
  -23.9667  -27.2890   19.0385 H   0  0  0  0  0  0
  -23.7477  -30.5867   19.4058 H   0  0  0  0  0  0
  -22.7508  -29.2399   19.8648 H   0  0  0  0  0  0
  -25.1306  -36.1932   25.0818 H   0  0  0  0  0  0
  -20.9945  -28.3253   24.1416 H   0  0  0  0  0  0
  -20.5662  -26.2284   23.3607 H   0  0  0  0  0  0
  -21.6634  -26.7446   22.1207 H   0  0  0  0  0  0
  -19.6919  -25.6297   21.1233 H   0  0  0  0  0  0
  -19.6688  -27.3197   20.6736 H   0  0  0  0  0  0
  -17.4190  -26.6658   21.4018 H   0  0  0  0  0  0
  -18.0332  -26.0056   22.9009 H   0  0  0  0  0  0
  -19.7930  -30.7250   24.2275 H   0  0  0  0  0  0
  -17.5018  -31.6272   24.5153 H   0  0  0  0  0  0
  -15.5344  -30.2989   23.7674 H   0  0  0  0  0  0
  -15.8653  -28.0830   22.7072 H   0  0  0  0  0  0
  -24.5905  -30.7067   25.7784 H   0  0  0  0  0  0
  -24.8941  -32.2863   26.4920 H   0  0  0  0  0  0
  -25.8077  -30.8856   27.0206 H   0  0  0  0  0  0
  -26.2892  -29.6751   24.1223 H   0  0  0  0  0  0
  -27.4060  -29.7274   25.4666 H   0  0  0  0  0  0
  -27.8756  -30.4293   23.9363 H   0  0  0  0  0  0
  -27.2673  -33.3615   26.2073 H   0  0  0  0  0  0
  -28.3860  -32.6883   25.0308 H   0  0  0  0  0  0
  -28.0736  -31.8439   26.5388 H   0  0  0  0  0  0
  -28.2613  -38.0085   24.7480 H   0  0  0  0  0  0
  -28.1046  -36.2604   24.6332 H   0  0  0  0  0  0
  -27.2279  -37.1515   25.8869 H   0  0  0  0  0  0
  -20.9348  -29.8733   21.6884 H   0  0  0  0  0  0
  -26.0175  -38.2856   24.1381 H   0  0  0  0  0  0
  -29.1444  -25.1204   22.2082 H   0  0  0  0  0  0
  -27.7400  -24.7295   18.1909 H   0  0  0  0  0  0
  -28.7278  -19.0598   18.5291 H   0  0  0  0  0  0
  -30.3393  -19.7505   18.5061 H   0  0  0  0  0  0
  -31.2506  -17.5865   18.7265 H   0  0  0  0  0  0
  -29.6200  -16.9911   18.5049 H   0  0  0  0  0  0
  -28.2229  -17.8959   21.1260 H   0  0  0  0  0  0
  -29.4332  -18.3190   22.3208 H   0  0  0  0  0  0
  -30.3857  -20.0229   20.8728 H   0  0  0  0  0  0
  -31.2093  -17.3163   21.0233 H   0  0  0  0  0  0
  -29.9266  -23.2453   23.4065 H   0  0  0  0  0  0
  -30.0562  -21.6609   22.6615 H   0  0  0  0  0  0
  -28.5398  -22.1583   23.4258 H   0  0  0  0  0  0
  -27.5432  -22.6646   17.1473 H   0  0  0  0  0  0
  -26.6453  -21.6045   18.2265 H   0  0  0  0  0  0
  -28.3306  -21.2491   17.8163 H   0  0  0  0  0  0
  -27.4328  -20.3303   20.0901 H   0  0  0  0  0  0
  -27.9303  -20.5587   21.6988 H   0  0  0  0  0  0
  -28.8970  -15.5107   21.0154 H   0  0  0  0  0  0
  1 25  1  0  0  0
  1 30  2  0  0  0
  1 85  1  0  0  0
  2  3  1  0  0  0
  2 25  1  0  0  0
  2 86  1  0  0  0
  2 87  1  0  0  0
  3  4  1  0  0  0
  3 88  1  0  0  0
  3 89  1  0  0  0
  4  5  1  0  0  0
  4 90  1  0  0  0
  4 91  1  0  0  0
  5  6  1  0  0  0
  5 26  1  0  0  0
  5 92  1  0  0  0
  6 25  1  0  0  0
  6 93  1  0  0  0
  6 94  1  0  0  0
  7  8  2  0  0  0
  7 26  1  0  0  0
  7 29  1  0  0  0
  8  9  1  0  0  0
  8 22  1  0  0  0
  9 10  1  0  0  0
  9 27  2  0  0  0
 10 11  2  0  0  0
 10 15  1  0  0  0
 11 12  1  0  0  0
 11 95  1  0  0  0
 12 13  2  0  0  0
 12 96  1  0  0  0
 13 14  1  0  0  0
 13 31  1  0  0  0
 14 15  2  0  0  0
 14 97  1  0  0  0
 15 98  1  0  0  0
 16 17  2  0  0  0
 16 21  1  0  0  0
 16 31  1  0  0  0
 17 18  1  0  0  0
 17 99  1  0  0  0
 18 19  2  0  0  0
 18100  1  0  0  0
 19 20  1  0  0  0
 19 24  1  0  0  0
 20 21  2  0  0  0
 20101  1  0  0  0
 21 23  1  0  0  0
 22 28  1  0  0  0
 22 32  2  0  0  0
 26 27  1  0  0  0
 28102  1  0  0  0
 28103  1  0  0  0
 29104  1  0  0  0
 29105  1  0  0  0
 33 34  1  0  0  0
 33 66  1  0  0  0
 33 70  2  0  0  0
 34 36  1  0  0  0
 34 59  1  0  0  0
 34106  1  0  0  0
 35 44  2  0  0  0
 35 45  1  0  0  0
 35 68  1  0  0  0
 36 56  1  0  0  0
 36107  1  0  0  0
 37 39  1  0  0  0
 37 47  1  0  0  0
 37 66  1  0  0  0
 37108  1  0  0  0
 38 43  2  0  0  0
 38 46  1  0  0  0
 38 47  1  0  0  0
 39 64  1  0  0  0
 39 67  2  0  0  0
 40 52  1  0  0  0
 40 53  2  0  0  0
 40 58  1  0  0  0
 41109  1  0  0  0
 41110  1  0  0  0
 41111  1  0  0  0
 41 48  1  0  0  0
 42 43  1  0  0  0
 42 66  1  0  0  0
 42112  1  0  0  0
 42113  1  0  0  0
 43 44  1  0  0  0
 44114  1  0  0  0
 45 46  2  0  0  0
 45115  1  0  0  0
 46116  1  0  0  0
 47117  1  0  0  0
 47118  1  0  0  0
 48 56  1  0  0  0
 48 65  1  0  0  0
 48119  1  0  0  0
 49 50  1  0  0  0
 49 53  1  0  0  0
 49 64  1  0  0  0
 49120  1  0  0  0
 50 51  1  0  0  0
 50121  1  0  0  0
 50122  1  0  0  0
 51 52  1  0  0  0
 51123  1  0  0  0
 51124  1  0  0  0
 52125  1  0  0  0
 52126  1  0  0  0
 53 54  1  0  0  0
 54 55  2  0  0  0
 54127  1  0  0  0
 55 57  1  0  0  0
 55128  1  0  0  0
 56 69  2  0  0  0
 57 58  2  0  0  0
 57129  1  0  0  0
 58130  1  0  0  0
 59 60  1  0  0  0
 59 61  1  0  0  0
 59 62  1  0  0  0
 60131  1  0  0  0
 60132  1  0  0  0
 60133  1  0  0  0
 61134  1  0  0  0
 61135  1  0  0  0
 61136  1  0  0  0
 62137  1  0  0  0
 62138  1  0  0  0
 62139  1  0  0  0
 63 65  1  0  0  0
 63140  1  0  0  0
 63141  1  0  0  0
 63142  1  0  0  0
 64143  1  0  0  0
 65144  1  0  0  0
 68 76  1  0  0  0
 71 73  2  0  0  0
 71 76  1  0  0  0
 71145  1  0  0  0
 72 74  1  0  0  0
 72 76  2  0  0  0
 72146  1  0  0  0
 73 75  1  0  0  0
 73 82  1  0  0  0
 74 75  2  0  0  0
 74 83  1  0  0  0
 75 84  1  0  0  0
 77 78  1  0  0  0
 77 80  1  0  0  0
 77147  1  0  0  0
 77148  1  0  0  0
 78 81  1  0  0  0
 78149  1  0  0  0
 78150  1  0  0  0
 79 80  1  0  0  0
 79 81  1  0  0  0
 79151  1  0  0  0
 79152  1  0  0  0
 80 84  1  0  0  0
 80153  1  0  0  0
 81 85  1  0  0  0
 81154  1  0  0  0
 82155  1  0  0  0
 82156  1  0  0  0
 82157  1  0  0  0
 83158  1  0  0  0
 83159  1  0  0  0
 83160  1  0  0  0
 84161  1  0  0  0
 84162  1  0  0  0
 85163  1  0  0  0
M  ISO  4   1 100  68 101  76 101  85 100
M  END
> <chiral flag>
0

> <version>
0

> <s_m_source_file>
/data/baiqing/PycharmProjects/Reinvent-master-3.2/result/LINK_invent/BTK/process_docking_weight1_custom_sum_contain_oxygen_bond_distance_aromatic_linkinvent_7_9_3/rearranged_h_0154.sdf

> <i_m_source_file_index>
84

> <r_mmod_Potential_Energy-OPLS-2005>
84.7955093383789

> <r_mmod_Stretch_Energy-OPLS-2005>
69.7505340576172

> <r_mmod_Bend_Energy-OPLS-2005>
148.2958984375

> <r_mmod_Torsional_Energy-OPLS-2005>
254.954956054688

> <r_mmod_Improper_Torsional_Energy-OPLS-2005>
6.36252641677856

> <r_mmod_Van_der_Waal_Energy-OPLS-2005>
134.850860595703

> <r_mmod_Electrostatic_Energy-OPLS-2005>
-367.526397705078

> <r_mmod_Solvation_Energy-OPLS-2005>
-201.442687988281

> <b_mmod_Minimization_Converged-OPLS-2005>
0

> <r_mmod_RMS_Derivative-OPLS-2005>
1.4744793176651

$$$$
85
                    3D
 Structure written by MMmdl.
161170  0  0  1  0            999 V2000
  -30.6755  -14.6307   20.5861 C   0  0  0  0  0  0
  -30.4144  -12.4146   19.4708 C   0  0  0  0  0  0
  -29.5034  -12.5162   18.2281 C   0  0  0  0  0  0
  -28.0250  -12.3276   18.6228 C   0  0  0  0  0  0
  -27.6354  -13.2028   19.8386 C   0  0  2  0  0  0
  -28.6704  -13.0757   20.9730 C   0  0  0  0  0  0
  -25.2474  -13.8117   20.5540 C   0  0  0  0  0  0
  -24.1771  -13.0398   20.9137 C   0  0  0  0  0  0
  -24.6341  -11.6867   20.8719 C   0  0  0  0  0  0
  -23.9018  -10.4270   21.0420 C   0  0  0  0  0  0
  -24.3595   -9.4210   21.9195 C   0  0  0  0  0  0
  -23.6283   -8.2249   22.0759 C   0  0  0  0  0  0
  -22.4257   -8.0287   21.3559 C   0  0  0  0  0  0
  -21.9881   -9.0248   20.4646 C   0  0  0  0  0  0
  -22.7200  -10.2132   20.3060 C   0  0  0  0  0  0
  -21.6872   -6.0728   22.5259 C   0  0  0  0  0  0
  -21.4032   -6.5638   23.8189 C   0  0  0  0  0  0
  -21.3663   -5.6800   24.9157 C   0  0  0  0  0  0
  -21.6039   -4.3058   24.7220 C   0  0  0  0  0  0
  -21.8827   -3.8142   23.4345 C   0  0  0  0  0  0
  -21.9191   -4.6952   22.3392 C   0  0  0  0  0  0
  -22.7807  -13.5205   21.1841 C   0  0  0  0  0  0
  -22.1659   -4.2153   21.0970 F   0  0  0  0  0  0
  -21.5625   -3.4524   25.7725 F   0  0  0  0  0  0
  -29.9787  -13.4543   20.4379 N   0  0  0  0  0  0
  -26.2858  -12.9264   20.3111 N   0  0  0  0  0  0
  -25.9261  -11.6449   20.5720 N   0  0  0  0  0  0
  -22.0479  -12.8193   22.0426 N   0  0  0  0  0  0
  -25.4108  -15.1824   20.3826 N   0  0  0  0  0  0
  -31.8327  -14.7049   20.1615 O   0  0  0  0  0  0
  -21.6645   -6.8879   21.4231 O   0  0  0  0  0  0
  -22.3503  -14.5545   20.6740 O   0  0  0  0  0  0
  -24.6180  -31.8646   23.2101 C   0  0  0  0  0  0
  -25.9038  -32.4839   23.8401 C   0  0  1  0  0  0
  -27.2250  -27.3637   20.1226 C   0  0  0  0  0  0
  -25.5902  -33.8636   24.2332 N   0  0  0  0  0  0
  -23.4107  -30.4870   21.5526 C   0  0  2  0  0  0
  -24.8545  -28.9427   20.1167 C   0  0  0  0  0  0
  -22.7450  -29.4637   22.5050 C   0  0  0  0  0  0
  -18.0328  -28.1346   22.8615 C   0  0  0  0  0  0
  -24.1484  -36.7298   23.2639 C   0  0  0  0  0  0
  -25.9449  -30.8114   21.3689 C   0  0  0  0  0  0
  -26.0229  -29.4424   20.7088 C   0  0  0  0  0  0
  -27.2159  -28.6685   20.6904 C   0  0  0  0  0  0
  -26.0355  -26.8873   19.5325 C   0  0  0  0  0  0
  -24.8629  -27.6722   19.5137 C   0  0  0  0  0  0
  -23.6211  -29.8206   20.1652 C   0  0  0  0  0  0
  -25.4122  -36.3126   24.0336 C   0  0  1  0  0  0
  -20.5896  -28.3706   23.1448 C   0  0  2  0  0  0
  -20.6898  -26.9500   22.5416 C   0  0  0  0  0  0
  -19.5827  -26.6536   21.5247 C   0  0  0  0  0  0
  -18.2068  -26.7848   22.1840 C   0  0  0  0  0  0
  -19.1547  -28.8834   23.3053 C   0  0  0  0  0  0
  -18.9431  -30.1429   23.9068 C   0  0  0  0  0  0
  -17.6419  -30.6562   24.0708 C   0  0  0  0  0  0
  -25.9034  -34.9487   23.5131 C   0  0  0  0  0  0
  -16.5354  -29.8992   23.6497 C   0  0  0  0  0  0
  -16.7316  -28.6425   23.0523 C   0  0  0  0  0  0
  -26.4488  -31.6648   25.0753 C   0  0  0  0  0  0
  -25.3753  -31.3700   26.1483 C   0  0  0  0  0  0
  -27.0287  -30.3073   24.6166 C   0  0  0  0  0  0
  -27.6085  -32.4379   25.7503 C   0  0  0  0  0  0
  -27.5581  -37.1818   24.8473 C   0  0  0  0  0  0
  -21.4149  -29.3123   22.3908 N   0  0  0  0  0  0
  -26.4301  -37.3824   23.9408 N   0  0  0  0  0  0
  -24.6775  -31.0685   22.1027 N   0  0  0  0  0  0
  -23.4225  -28.8132   23.3021 O   0  0  0  0  0  0
  -28.3682  -26.5708   20.1081 O   0  0  0  0  0  0
  -26.5607  -34.8948   22.4697 O   0  0  0  0  0  0
  -23.5370  -32.1403   23.7465 O   0  0  0  0  0  0
  -26.5925  -19.3121   21.9354 C   0  0  0  0  0  0
  -28.9569  -18.9479   20.4156 C   0  0  0  0  0  0
  -27.3446  -18.1322   22.0298 C   0  0  0  0  0  0
  -28.4367  -17.8639   21.2051 C   0  0  0  0  0  0
  -27.0151  -20.3278   21.0568 C   0  0  0  0  0  0
  -28.2816  -20.2321   20.4085 C   0  0  0  0  0  0
  -27.0806  -17.0264   23.0117 C   0  0  0  0  0  0
  -28.3242  -16.1357   22.8594 C   0  0  0  0  0  0
  -28.8055  -16.3477   21.3967 C   0  0  2  0  0  0
  -26.0453  -21.4746   20.7974 C   0  0  0  0  0  0
  -28.4979  -23.9683   19.7552 C   0  0  0  0  0  0
  -28.2954  -25.2259   20.6869 C   0  0  0  0  0  0
  -28.9027  -22.6160   20.4824 C   0  0  0  0  0  0
  -30.1587  -15.7844   21.1359 N   0  0  0  0  0  0
  -28.7982  -21.3504   19.7407 O   0  0  0  0  0  0
  -31.4591  -12.5214   19.1786 H   0  0  0  0  0  0
  -30.3432  -11.4235   19.9180 H   0  0  0  0  0  0
  -29.7935  -11.7757   17.4823 H   0  0  0  0  0  0
  -29.6403  -13.4942   17.7676 H   0  0  0  0  0  0
  -27.8693  -11.2736   18.8515 H   0  0  0  0  0  0
  -27.3785  -12.5518   17.7768 H   0  0  0  0  0  0
  -27.6455  -14.2194   19.4594 H   0  0  0  0  0  0
  -28.6983  -12.0540   21.3526 H   0  0  0  0  0  0
  -28.3875  -13.6766   21.8188 H   0  0  0  0  0  0
  -25.2762   -9.5688   22.4738 H   0  0  0  0  0  0
  -24.0011   -7.4643   22.7452 H   0  0  0  0  0  0
  -21.0830   -8.8735   19.8945 H   0  0  0  0  0  0
  -22.3660  -10.9656   19.6154 H   0  0  0  0  0  0
  -21.2049   -7.6147   23.9710 H   0  0  0  0  0  0
  -21.1468   -6.0515   25.9069 H   0  0  0  0  0  0
  -22.0607   -2.7601   23.2820 H   0  0  0  0  0  0
  -22.4124  -11.9859   22.4791 H   0  0  0  0  0  0
  -21.1108  -13.1215   22.2697 H   0  0  0  0  0  0
  -24.6350  -15.8249   20.4872 H   0  0  0  0  0  0
  -26.2448  -15.6224   20.0167 H   0  0  0  0  0  0
  -26.7062  -32.5529   23.1097 H   0  0  0  0  0  0
  -25.0094  -33.9808   25.0497 H   0  0  0  0  0  0
  -22.7011  -31.3051   21.4146 H   0  0  0  0  0  0
  -23.3777  -35.9599   23.3312 H   0  0  0  0  0  0
  -24.3554  -36.8893   22.2048 H   0  0  0  0  0  0
  -23.7187  -37.6487   23.6634 H   0  0  0  0  0  0
  -26.0641  -31.5842   20.6090 H   0  0  0  0  0  0
  -26.8296  -30.8612   21.9936 H   0  0  0  0  0  0
  -28.1203  -29.0561   21.1364 H   0  0  0  0  0  0
  -26.0095  -25.8995   19.0935 H   0  0  0  0  0  0
  -23.9672  -27.2831   19.0499 H   0  0  0  0  0  0
  -23.7328  -30.6015   19.4116 H   0  0  0  0  0  0
  -22.7395  -29.2468   19.8694 H   0  0  0  0  0  0
  -25.1299  -36.1998   25.0836 H   0  0  0  0  0  0
  -20.9937  -28.3248   24.1589 H   0  0  0  0  0  0
  -21.6750  -26.7530   22.1103 H   0  0  0  0  0  0
  -20.5897  -26.2353   23.3602 H   0  0  0  0  0  0
  -19.6601  -27.3602   20.6958 H   0  0  0  0  0  0
  -19.7071  -25.6542   21.1053 H   0  0  0  0  0  0
  -17.4249  -26.6255   21.4407 H   0  0  0  0  0  0
  -18.0823  -26.0063   22.9364 H   0  0  0  0  0  0
  -19.7918  -30.7213   24.2473 H   0  0  0  0  0  0
  -17.4916  -31.6249   24.5323 H   0  0  0  0  0  0
  -15.5315  -30.2720   23.7955 H   0  0  0  0  0  0
  -15.8731  -28.0682   22.7326 H   0  0  0  0  0  0
  -24.5971  -30.7013   25.7764 H   0  0  0  0  0  0
  -24.8892  -32.2822   26.4966 H   0  0  0  0  0  0
  -25.8146  -30.8833   27.0204 H   0  0  0  0  0  0
  -26.2807  -29.6848   24.1255 H   0  0  0  0  0  0
  -27.3982  -29.7341   25.4674 H   0  0  0  0  0  0
  -27.8694  -30.4310   23.9344 H   0  0  0  0  0  0
  -27.2733  -33.3679   26.2111 H   0  0  0  0  0  0
  -28.3899  -32.6958   25.0337 H   0  0  0  0  0  0
  -28.0763  -31.8485   26.5390 H   0  0  0  0  0  0
  -28.2641  -38.0084   24.7551 H   0  0  0  0  0  0
  -28.1051  -36.2632   24.6288 H   0  0  0  0  0  0
  -27.2301  -37.1455   25.8877 H   0  0  0  0  0  0
  -20.9246  -29.8936   21.7237 H   0  0  0  0  0  0
  -26.0193  -38.2904   24.1422 H   0  0  0  0  0  0
  -25.6869  -19.4314   22.5099 H   0  0  0  0  0  0
  -29.8579  -18.8088   19.8363 H   0  0  0  0  0  0
  -26.9685  -17.3981   24.0328 H   0  0  0  0  0  0
  -26.1696  -16.5007   22.7256 H   0  0  0  0  0  0
  -28.1420  -15.1227   23.2050 H   0  0  0  0  0  0
  -29.0939  -16.5372   23.5231 H   0  0  0  0  0  0
  -28.1195  -15.8373   20.7315 H   0  0  0  0  0  0
  -26.1958  -22.3073   21.4852 H   0  0  0  0  0  0
  -25.0138  -21.1350   20.9118 H   0  0  0  0  0  0
  -26.1342  -21.8331   19.7705 H   0  0  0  0  0  0
  -29.2745  -24.2012   19.0293 H   0  0  0  0  0  0
  -27.5848  -23.8194   19.1773 H   0  0  0  0  0  0
  -29.0797  -25.1989   21.4429 H   0  0  0  0  0  0
  -27.3782  -25.1017   21.2625 H   0  0  0  0  0  0
  -28.4020  -22.5549   21.4483 H   0  0  0  0  0  0
  -29.9531  -22.6962   20.7549 H   0  0  0  0  0  0
  -30.8728  -16.4927   21.2182 H   0  0  0  0  0  0
  1 25  1  0  0  0
  1 30  2  0  0  0
  1 84  1  0  0  0
  2  3  1  0  0  0
  2 25  1  0  0  0
  2 86  1  0  0  0
  2 87  1  0  0  0
  3  4  1  0  0  0
  3 88  1  0  0  0
  3 89  1  0  0  0
  4  5  1  0  0  0
  4 90  1  0  0  0
  4 91  1  0  0  0
  5  6  1  0  0  0
  5 26  1  0  0  0
  5 92  1  0  0  0
  6 25  1  0  0  0
  6 93  1  0  0  0
  6 94  1  0  0  0
  7  8  2  0  0  0
  7 26  1  0  0  0
  7 29  1  0  0  0
  8  9  1  0  0  0
  8 22  1  0  0  0
  9 10  1  0  0  0
  9 27  2  0  0  0
 10 11  2  0  0  0
 10 15  1  0  0  0
 11 12  1  0  0  0
 11 95  1  0  0  0
 12 13  2  0  0  0
 12 96  1  0  0  0
 13 14  1  0  0  0
 13 31  1  0  0  0
 14 15  2  0  0  0
 14 97  1  0  0  0
 15 98  1  0  0  0
 16 17  2  0  0  0
 16 21  1  0  0  0
 16 31  1  0  0  0
 17 18  1  0  0  0
 17 99  1  0  0  0
 18 19  2  0  0  0
 18100  1  0  0  0
 19 20  1  0  0  0
 19 24  1  0  0  0
 20 21  2  0  0  0
 20101  1  0  0  0
 21 23  1  0  0  0
 22 28  1  0  0  0
 22 32  2  0  0  0
 26 27  1  0  0  0
 28102  1  0  0  0
 28103  1  0  0  0
 29104  1  0  0  0
 29105  1  0  0  0
 33 34  1  0  0  0
 33 66  1  0  0  0
 33 70  2  0  0  0
 34 36  1  0  0  0
 34 59  1  0  0  0
 34106  1  0  0  0
 35 44  2  0  0  0
 35 45  1  0  0  0
 35 68  1  0  0  0
 36 56  1  0  0  0
 36107  1  0  0  0
 37 39  1  0  0  0
 37 47  1  0  0  0
 37 66  1  0  0  0
 37108  1  0  0  0
 38 43  2  0  0  0
 38 46  1  0  0  0
 38 47  1  0  0  0
 39 64  1  0  0  0
 39 67  2  0  0  0
 40 52  1  0  0  0
 40 53  2  0  0  0
 40 58  1  0  0  0
 41109  1  0  0  0
 41110  1  0  0  0
 41111  1  0  0  0
 41 48  1  0  0  0
 42 43  1  0  0  0
 42 66  1  0  0  0
 42112  1  0  0  0
 42113  1  0  0  0
 43 44  1  0  0  0
 44114  1  0  0  0
 45 46  2  0  0  0
 45115  1  0  0  0
 46116  1  0  0  0
 47117  1  0  0  0
 47118  1  0  0  0
 48 56  1  0  0  0
 48 65  1  0  0  0
 48119  1  0  0  0
 49 50  1  0  0  0
 49 53  1  0  0  0
 49 64  1  0  0  0
 49120  1  0  0  0
 50 51  1  0  0  0
 50121  1  0  0  0
 50122  1  0  0  0
 51 52  1  0  0  0
 51123  1  0  0  0
 51124  1  0  0  0
 52125  1  0  0  0
 52126  1  0  0  0
 53 54  1  0  0  0
 54 55  2  0  0  0
 54127  1  0  0  0
 55 57  1  0  0  0
 55128  1  0  0  0
 56 69  2  0  0  0
 57 58  2  0  0  0
 57129  1  0  0  0
 58130  1  0  0  0
 59 60  1  0  0  0
 59 61  1  0  0  0
 59 62  1  0  0  0
 60131  1  0  0  0
 60132  1  0  0  0
 60133  1  0  0  0
 61134  1  0  0  0
 61135  1  0  0  0
 61136  1  0  0  0
 62137  1  0  0  0
 62138  1  0  0  0
 62139  1  0  0  0
 63 65  1  0  0  0
 63140  1  0  0  0
 63141  1  0  0  0
 63142  1  0  0  0
 64143  1  0  0  0
 65144  1  0  0  0
 68 82  1  0  0  0
 71 73  2  0  0  0
 71 75  1  0  0  0
 71145  1  0  0  0
 72 74  2  0  0  0
 72 76  1  0  0  0
 72146  1  0  0  0
 73 74  1  0  0  0
 73 77  1  0  0  0
 74 79  1  0  0  0
 75 76  2  0  0  0
 75 80  1  0  0  0
 76 85  1  0  0  0
 77 78  1  0  0  0
 77147  1  0  0  0
 77148  1  0  0  0
 78 79  1  0  0  0
 78149  1  0  0  0
 78150  1  0  0  0
 79 84  1  0  0  0
 79151  1  0  0  0
 80152  1  0  0  0
 80153  1  0  0  0
 80154  1  0  0  0
 81 82  1  0  0  0
 81 83  1  0  0  0
 81155  1  0  0  0
 81156  1  0  0  0
 82157  1  0  0  0
 82158  1  0  0  0
 83 85  1  0  0  0
 83159  1  0  0  0
 83160  1  0  0  0
 84161  1  0  0  0
M  ISO  4   1 100  68 101  82 101  84 100
M  END
> <chiral flag>
0

> <version>
0

> <s_m_source_file>
/data/baiqing/PycharmProjects/Reinvent-master-3.2/result/LINK_invent/BTK/process_docking_weight1_custom_sum_contain_oxygen_bond_distance_aromatic_linkinvent_7_9_3/rearranged_h_0154.sdf

> <i_m_source_file_index>
85

> <r_mmod_Potential_Energy-OPLS-2005>
144.698471069336

> <r_mmod_Stretch_Energy-OPLS-2005>
75.2786178588867

> <r_mmod_Bend_Energy-OPLS-2005>
247.16389465332

> <r_mmod_Torsional_Energy-OPLS-2005>
297.887420654297

> <r_mmod_Improper_Torsional_Energy-OPLS-2005>
2.58663654327393

> <r_mmod_Van_der_Waal_Energy-OPLS-2005>
136.128723144531

> <r_mmod_Electrostatic_Energy-OPLS-2005>
-449.297546386719

> <r_mmod_Solvation_Energy-OPLS-2005>
-203.686431884766

> <b_mmod_Minimization_Converged-OPLS-2005>
0

> <r_mmod_RMS_Derivative-OPLS-2005>
6.177734375

$$$$
86
                    3D
 Structure written by MMmdl.
155164  0  0  1  0            999 V2000
  -30.4746  -15.0792   20.4446 C   0  0  0  0  0  0
  -30.4503  -12.6898   19.5060 C   0  0  0  0  0  0
  -29.5293  -12.5495   18.2705 C   0  0  0  0  0  0
  -28.0604  -12.3235   18.6840 C   0  0  0  0  0  0
  -27.6238  -13.2570   19.8411 C   0  0  2  0  0  0
  -28.6645  -13.3200   20.9752 C   0  0  0  0  0  0
  -25.2429  -13.8215   20.5752 C   0  0  0  0  0  0
  -24.1759  -13.0421   20.9204 C   0  0  0  0  0  0
  -24.6389  -11.6908   20.8738 C   0  0  0  0  0  0
  -23.9066  -10.4274   21.0400 C   0  0  0  0  0  0
  -24.3610   -9.4203   21.9180 C   0  0  0  0  0  0
  -23.6289   -8.2245   22.0746 C   0  0  0  0  0  0
  -22.4273   -8.0275   21.3542 C   0  0  0  0  0  0
  -21.9916   -9.0244   20.4643 C   0  0  0  0  0  0
  -22.7240  -10.2122   20.3056 C   0  0  0  0  0  0
  -21.6847   -6.0735   22.5265 C   0  0  0  0  0  0
  -21.4029   -6.5640   23.8203 C   0  0  0  0  0  0
  -21.3673   -5.6782   24.9162 C   0  0  0  0  0  0
  -21.6028   -4.3039   24.7205 C   0  0  0  0  0  0
  -21.8832   -3.8152   23.4321 C   0  0  0  0  0  0
  -21.9200   -4.6970   22.3384 C   0  0  0  0  0  0
  -22.7781  -13.5204   21.1857 C   0  0  0  0  0  0
  -22.1663   -4.2140   21.0963 F   0  0  0  0  0  0
  -21.5628   -3.4532   25.7733 F   0  0  0  0  0  0
  -29.9147  -13.7912   20.3662 N   0  0  0  0  0  0
  -26.2864  -12.9469   20.3311 N   0  0  0  0  0  0
  -25.9330  -11.6582   20.5756 N   0  0  0  0  0  0
  -22.0460  -12.8191   22.0436 N   0  0  0  0  0  0
  -25.4080  -15.1938   20.4252 N   0  0  0  0  0  0
  -31.6905  -15.1497   20.2314 O   0  0  0  0  0  0
  -21.6645   -6.8863   21.4220 O   0  0  0  0  0  0
  -22.3472  -14.5513   20.6703 O   0  0  0  0  0  0
  -24.6476  -31.8358   23.1823 C   0  0  0  0  0  0
  -25.9234  -32.4649   23.8171 C   0  0  1  0  0  0
  -27.2174  -27.0674   20.1915 C   0  0  0  0  0  0
  -25.5981  -33.8441   24.2194 N   0  0  0  0  0  0
  -23.4554  -30.4548   21.5251 C   0  0  2  0  0  0
  -24.9123  -28.8701   20.1117 C   0  0  0  0  0  0
  -22.7558  -29.4488   22.4778 C   0  0  0  0  0  0
  -18.0303  -28.1399   22.8405 C   0  0  0  0  0  0
  -24.1497  -36.7219   23.2644 C   0  0  0  0  0  0
  -26.0062  -30.7038   21.3728 C   0  0  0  0  0  0
  -26.0881  -29.2959   20.7418 C   0  0  0  0  0  0
  -27.2427  -28.4149   20.7639 C   0  0  0  0  0  0
  -26.0155  -26.7658   19.5119 C   0  0  0  0  0  0
  -24.8899  -27.6197   19.4759 C   0  0  0  0  0  0
  -23.6920  -29.7843   20.1432 C   0  0  0  0  0  0
  -25.4101  -36.2958   24.0355 C   0  0  1  0  0  0
  -20.5899  -28.3729   23.1169 C   0  0  2  0  0  0
  -20.6806  -26.9438   22.5350 C   0  0  0  0  0  0
  -19.5838  -26.6411   21.5108 C   0  0  0  0  0  0
  -18.1978  -26.7938   22.1518 C   0  0  0  0  0  0
  -19.1550  -28.8868   23.2781 C   0  0  0  0  0  0
  -18.9523  -30.1449   23.8850 C   0  0  0  0  0  0
  -17.6528  -30.6597   24.0538 C   0  0  0  0  0  0
  -25.9058  -34.9338   23.5082 C   0  0  0  0  0  0
  -16.5396  -29.9136   23.6307 C   0  0  0  0  0  0
  -16.7285  -28.6549   23.0317 C   0  0  0  0  0  0
  -26.4634  -31.6461   25.0560 C   0  0  0  0  0  0
  -25.3876  -31.3543   26.1300 C   0  0  0  0  0  0
  -27.0501  -30.2900   24.5972 C   0  0  0  0  0  0
  -27.6269  -32.4141   25.7281 C   0  0  0  0  0  0
  -27.5562  -37.1722   24.8496 C   0  0  0  0  0  0
  -21.4249  -29.3061   22.3550 N   0  0  0  0  0  0
  -26.4248  -37.3699   23.9465 N   0  0  0  0  0  0
  -24.7236  -31.0204   22.0840 N   0  0  0  0  0  0
  -23.4130  -28.8005   23.2947 O   0  0  0  0  0  0
  -28.2550  -26.0392   20.2598 O   0  0  0  0  0  0
  -26.5623  -34.8879   22.4636 O   0  0  0  0  0  0
  -23.5604  -32.1226   23.7025 O   0  0  0  0  0  0
  -28.9228  -18.8511   20.0082 C   0  0  0  0  0  0
  -30.6300  -18.4140   21.6373 C   0  0  0  0  0  0
  -28.9822  -20.3103   20.2843 C   0  0  0  0  0  0
  -29.8412  -20.7882   21.2582 C   0  0  0  0  0  0
  -29.7629  -17.8108   20.6616 C   0  0  0  0  0  0
  -30.6598  -19.8388   21.9620 C   0  0  0  0  0  0
  -28.2020  -21.5937   19.7308 C   0  0  0  0  0  0
  -29.7064  -22.3601   21.4436 C   0  0  0  0  0  0
  -28.8643  -23.0169   20.2367 C   0  0  2  0  0  0
  -32.0726  -19.5170   23.9253 C   0  0  0  0  0  0
  -27.9334  -24.4795   20.3308 C   0  0  0  0  0  0
  -29.6338  -16.2566   20.4756 N   0  0  0  0  0  0
  -31.4559  -20.3739   22.9590 O   0  0  0  0  0  0
  -31.4652  -12.9058   19.1732 H   0  0  0  0  0  0
  -30.5091  -11.7545   20.0645 H   0  0  0  0  0  0
  -29.8675  -11.7244   17.6418 H   0  0  0  0  0  0
  -29.5971  -13.4521   17.6589 H   0  0  0  0  0  0
  -27.9617  -11.2823   18.9975 H   0  0  0  0  0  0
  -27.3975  -12.4542   17.8260 H   0  0  0  0  0  0
  -27.5697  -14.2545   19.4040 H   0  0  0  0  0  0
  -28.7920  -12.3491   21.4561 H   0  0  0  0  0  0
  -28.3431  -14.0077   21.7594 H   0  0  0  0  0  0
  -25.2736   -9.5689   22.4761 H   0  0  0  0  0  0
  -23.9984   -7.4654   22.7484 H   0  0  0  0  0  0
  -21.0835   -8.8753   19.8957 H   0  0  0  0  0  0
  -22.3668  -10.9656   19.6177 H   0  0  0  0  0  0
  -21.2024   -7.6148   23.9687 H   0  0  0  0  0  0
  -21.1484   -6.0527   25.9053 H   0  0  0  0  0  0
  -22.0602   -2.7611   23.2826 H   0  0  0  0  0  0
  -22.4100  -11.9831   22.4744 H   0  0  0  0  0  0
  -21.1105  -13.1243   22.2704 H   0  0  0  0  0  0
  -24.6299  -15.8368   20.5207 H   0  0  0  0  0  0
  -26.2630  -15.6501   20.1369 H   0  0  0  0  0  0
  -26.7263  -32.5338   23.0859 H   0  0  0  0  0  0
  -25.0173  -33.9484   25.0395 H   0  0  0  0  0  0
  -22.7610  -31.2813   21.3662 H   0  0  0  0  0  0
  -23.3765  -35.9541   23.3260 H   0  0  0  0  0  0
  -24.3585  -36.8899   22.2059 H   0  0  0  0  0  0
  -23.7283  -37.6395   23.6738 H   0  0  0  0  0  0
  -26.1204  -31.4338   20.5671 H   0  0  0  0  0  0
  -26.8923  -30.7940   21.9907 H   0  0  0  0  0  0
  -28.1359  -28.7375   21.2866 H   0  0  0  0  0  0
  -25.8993  -25.8181   19.0054 H   0  0  0  0  0  0
  -23.9971  -27.2945   18.9531 H   0  0  0  0  0  0
  -23.8447  -30.5636   19.3955 H   0  0  0  0  0  0
  -22.8042  -29.2366   19.8215 H   0  0  0  0  0  0
  -25.1278  -36.1718   25.0853 H   0  0  0  0  0  0
  -20.9999  -28.3383   24.1285 H   0  0  0  0  0  0
  -20.5691  -26.2340   23.3566 H   0  0  0  0  0  0
  -21.6684  -26.7453   22.1168 H   0  0  0  0  0  0
  -19.7039  -25.6325   21.1158 H   0  0  0  0  0  0
  -19.6836  -27.3207   20.6616 H   0  0  0  0  0  0
  -17.4247  -26.6607   21.3917 H   0  0  0  0  0  0
  -18.0438  -26.0069   22.8912 H   0  0  0  0  0  0
  -19.8018  -30.7179   24.2288 H   0  0  0  0  0  0
  -17.5143  -31.6291   24.5150 H   0  0  0  0  0  0
  -15.5428  -30.3066   23.7713 H   0  0  0  0  0  0
  -15.8638  -28.0912   22.7078 H   0  0  0  0  0  0
  -24.6288  -30.6585   25.7728 H   0  0  0  0  0  0
  -24.8769  -32.2605   26.4503 H   0  0  0  0  0  0
  -25.8264  -30.9000   27.0200 H   0  0  0  0  0  0
  -26.3062  -29.6581   24.1100 H   0  0  0  0  0  0
  -27.4406  -29.7157   25.4382 H   0  0  0  0  0  0
  -27.8820  -30.4240   23.9074 H   0  0  0  0  0  0
  -27.3121  -33.3682   26.1482 H   0  0  0  0  0  0
  -28.4241  -32.6210   25.0146 H   0  0  0  0  0  0
  -28.0698  -31.8383   26.5421 H   0  0  0  0  0  0
  -28.2558  -38.0025   24.7501 H   0  0  0  0  0  0
  -28.1067  -36.2542   24.6356 H   0  0  0  0  0  0
  -27.2258  -37.1388   25.8890 H   0  0  0  0  0  0
  -20.9468  -29.8771   21.6720 H   0  0  0  0  0  0
  -26.0090  -38.2733   24.1570 H   0  0  0  0  0  0
  -28.1904  -18.5316   19.2780 H   0  0  0  0  0  0
  -31.2708  -17.7400   22.1830 H   0  0  0  0  0  0
  -27.1802  -21.5453   20.1097 H   0  0  0  0  0  0
  -28.1202  -21.5522   18.6433 H   0  0  0  0  0  0
  -30.6894  -22.8175   21.5320 H   0  0  0  0  0  0
  -29.2007  -22.5347   22.3933 H   0  0  0  0  0  0
  -29.6167  -23.2406   19.4780 H   0  0  0  0  0  0
  -32.4347  -20.1267   24.7576 H   0  0  0  0  0  0
  -32.9310  -18.9816   23.5167 H   0  0  0  0  0  0
  -31.3781  -18.7991   24.3649 H   0  0  0  0  0  0
  -27.2883  -24.3791   21.2060 H   0  0  0  0  0  0
  -27.2611  -24.3285   19.4903 H   0  0  0  0  0  0
  -28.6741  -15.9695   20.3584 H   0  0  0  0  0  0
  1 25  1  0  0  0
  1 30  2  0  0  0
  1 82  1  0  0  0
  2  3  1  0  0  0
  2 25  1  0  0  0
  2 84  1  0  0  0
  2 85  1  0  0  0
  3  4  1  0  0  0
  3 86  1  0  0  0
  3 87  1  0  0  0
  4  5  1  0  0  0
  4 88  1  0  0  0
  4 89  1  0  0  0
  5  6  1  0  0  0
  5 26  1  0  0  0
  5 90  1  0  0  0
  6 25  1  0  0  0
  6 91  1  0  0  0
  6 92  1  0  0  0
  7  8  2  0  0  0
  7 26  1  0  0  0
  7 29  1  0  0  0
  8  9  1  0  0  0
  8 22  1  0  0  0
  9 10  1  0  0  0
  9 27  2  0  0  0
 10 11  2  0  0  0
 10 15  1  0  0  0
 11 12  1  0  0  0
 11 93  1  0  0  0
 12 13  2  0  0  0
 12 94  1  0  0  0
 13 14  1  0  0  0
 13 31  1  0  0  0
 14 15  2  0  0  0
 14 95  1  0  0  0
 15 96  1  0  0  0
 16 17  2  0  0  0
 16 21  1  0  0  0
 16 31  1  0  0  0
 17 18  1  0  0  0
 17 97  1  0  0  0
 18 19  2  0  0  0
 18 98  1  0  0  0
 19 20  1  0  0  0
 19 24  1  0  0  0
 20 21  2  0  0  0
 20 99  1  0  0  0
 21 23  1  0  0  0
 22 28  1  0  0  0
 22 32  2  0  0  0
 26 27  1  0  0  0
 28100  1  0  0  0
 28101  1  0  0  0
 29102  1  0  0  0
 29103  1  0  0  0
 33 34  1  0  0  0
 33 66  1  0  0  0
 33 70  2  0  0  0
 34 36  1  0  0  0
 34 59  1  0  0  0
 34104  1  0  0  0
 35 44  2  0  0  0
 35 45  1  0  0  0
 35 68  1  0  0  0
 36 56  1  0  0  0
 36105  1  0  0  0
 37 39  1  0  0  0
 37 47  1  0  0  0
 37 66  1  0  0  0
 37106  1  0  0  0
 38 43  2  0  0  0
 38 46  1  0  0  0
 38 47  1  0  0  0
 39 64  1  0  0  0
 39 67  2  0  0  0
 40 52  1  0  0  0
 40 53  2  0  0  0
 40 58  1  0  0  0
 41107  1  0  0  0
 41108  1  0  0  0
 41109  1  0  0  0
 41 48  1  0  0  0
 42 43  1  0  0  0
 42 66  1  0  0  0
 42110  1  0  0  0
 42111  1  0  0  0
 43 44  1  0  0  0
 44112  1  0  0  0
 45 46  2  0  0  0
 45113  1  0  0  0
 46114  1  0  0  0
 47115  1  0  0  0
 47116  1  0  0  0
 48 56  1  0  0  0
 48 65  1  0  0  0
 48117  1  0  0  0
 49 50  1  0  0  0
 49 53  1  0  0  0
 49 64  1  0  0  0
 49118  1  0  0  0
 50 51  1  0  0  0
 50119  1  0  0  0
 50120  1  0  0  0
 51 52  1  0  0  0
 51121  1  0  0  0
 51122  1  0  0  0
 52123  1  0  0  0
 52124  1  0  0  0
 53 54  1  0  0  0
 54 55  2  0  0  0
 54125  1  0  0  0
 55 57  1  0  0  0
 55126  1  0  0  0
 56 69  2  0  0  0
 57 58  2  0  0  0
 57127  1  0  0  0
 58128  1  0  0  0
 59 60  1  0  0  0
 59 61  1  0  0  0
 59 62  1  0  0  0
 60129  1  0  0  0
 60130  1  0  0  0
 60131  1  0  0  0
 61132  1  0  0  0
 61133  1  0  0  0
 61134  1  0  0  0
 62135  1  0  0  0
 62136  1  0  0  0
 62137  1  0  0  0
 63 65  1  0  0  0
 63138  1  0  0  0
 63139  1  0  0  0
 63140  1  0  0  0
 64141  1  0  0  0
 65142  1  0  0  0
 68 81  1  0  0  0
 71 73  2  0  0  0
 71 75  1  0  0  0
 71143  1  0  0  0
 72 75  2  0  0  0
 72 76  1  0  0  0
 72144  1  0  0  0
 73 74  1  0  0  0
 73 77  1  0  0  0
 74 76  2  0  0  0
 74 78  1  0  0  0
 75 82  1  0  0  0
 76 83  1  0  0  0
 77 79  1  0  0  0
 77145  1  0  0  0
 77146  1  0  0  0
 78 79  1  0  0  0
 78147  1  0  0  0
 78148  1  0  0  0
 79 81  1  0  0  0
 79149  1  0  0  0
 80 83  1  0  0  0
 80150  1  0  0  0
 80151  1  0  0  0
 80152  1  0  0  0
 81153  1  0  0  0
 81154  1  0  0  0
 82155  1  0  0  0
M  ISO  4   1 100  68 101  81 101  82 100
M  END
> <chiral flag>
0

> <version>
0

> <s_m_source_file>
/data/baiqing/PycharmProjects/Reinvent-master-3.2/result/LINK_invent/BTK/process_docking_weight1_custom_sum_contain_oxygen_bond_distance_aromatic_linkinvent_7_9_3/rearranged_h_0154.sdf

> <i_m_source_file_index>
86

> <r_mmod_Potential_Energy-OPLS-2005>
747.1953125

> <r_mmod_Stretch_Energy-OPLS-2005>
326.222961425781

> <r_mmod_Bend_Energy-OPLS-2005>
348.04541015625

> <r_mmod_Torsional_Energy-OPLS-2005>
238.218841552734

> <r_mmod_Improper_Torsional_Energy-OPLS-2005>
7.18623971939087

> <r_mmod_Van_der_Waal_Energy-OPLS-2005>
125.564727783203

> <r_mmod_Electrostatic_Energy-OPLS-2005>
-359.55029296875

> <r_mmod_Solvation_Energy-OPLS-2005>
-219.760665893555

> <b_mmod_Minimization_Converged-OPLS-2005>
0

> <r_mmod_RMS_Derivative-OPLS-2005>
6.4327244758606

$$$$
87
                    3D
 Structure written by MMmdl.
161170  0  0  1  0            999 V2000
  -30.6637  -14.6502   20.4863 C   0  0  0  0  0  0
  -30.4226  -12.3997   19.4624 C   0  0  0  0  0  0
  -29.5014  -12.4976   18.2281 C   0  0  0  0  0  0
  -28.0272  -12.3358   18.6445 C   0  0  0  0  0  0
  -27.6459  -13.2273   19.8565 C   0  0  2  0  0  0
  -28.6912  -13.1327   20.9901 C   0  0  0  0  0  0
  -25.2520  -13.8202   20.5703 C   0  0  0  0  0  0
  -24.1805  -13.0449   20.9216 C   0  0  0  0  0  0
  -24.6391  -11.6925   20.8759 C   0  0  0  0  0  0
  -23.9070  -10.4300   21.0414 C   0  0  0  0  0  0
  -24.3617   -9.4208   21.9187 C   0  0  0  0  0  0
  -23.6292   -8.2243   22.0752 C   0  0  0  0  0  0
  -22.4274   -8.0285   21.3544 C   0  0  0  0  0  0
  -21.9915   -9.0260   20.4644 C   0  0  0  0  0  0
  -22.7246  -10.2139   20.3058 C   0  0  0  0  0  0
  -21.6850   -6.0737   22.5279 C   0  0  0  0  0  0
  -21.4014   -6.5639   23.8215 C   0  0  0  0  0  0
  -21.3660   -5.6791   24.9177 C   0  0  0  0  0  0
  -21.6047   -4.3055   24.7226 C   0  0  0  0  0  0
  -21.8818   -3.8147   23.4347 C   0  0  0  0  0  0
  -21.9191   -4.6965   22.3404 C   0  0  0  0  0  0
  -22.7825  -13.5230   21.1878 C   0  0  0  0  0  0
  -22.1658   -4.2153   21.0981 F   0  0  0  0  0  0
  -21.5629   -3.4538   25.7736 F   0  0  0  0  0  0
  -30.0022  -13.4520   20.4111 N   0  0  0  0  0  0
  -26.2953  -12.9404   20.3318 N   0  0  0  0  0  0
  -25.9323  -11.6551   20.5777 N   0  0  0  0  0  0
  -22.0471  -12.8210   22.0428 N   0  0  0  0  0  0
  -25.4220  -15.1922   20.4105 N   0  0  0  0  0  0
  -31.8428  -14.7433   20.1413 O   0  0  0  0  0  0
  -21.6638   -6.8881   21.4240 O   0  0  0  0  0  0
  -22.3509  -14.5539   20.6729 O   0  0  0  0  0  0
  -24.6258  -31.8591   23.2030 C   0  0  0  0  0  0
  -25.9103  -32.4777   23.8356 C   0  0  1  0  0  0
  -27.2189  -27.3201   20.1249 C   0  0  0  0  0  0
  -25.5922  -33.8580   24.2280 N   0  0  0  0  0  0
  -23.4207  -30.4830   21.5446 C   0  0  2  0  0  0
  -24.8702  -28.9436   20.1055 C   0  0  0  0  0  0
  -22.7479  -29.4612   22.4924 C   0  0  0  0  0  0
  -18.0285  -28.1379   22.8485 C   0  0  0  0  0  0
  -24.1491  -36.7299   23.2640 C   0  0  0  0  0  0
  -25.9623  -30.7902   21.3760 C   0  0  0  0  0  0
  -26.0386  -29.4192   20.7170 C   0  0  0  0  0  0
  -27.2203  -28.6183   20.7199 C   0  0  0  0  0  0
  -26.0386  -26.9066   19.4705 C   0  0  0  0  0  0
  -24.8724  -27.6926   19.4704 C   0  0  0  0  0  0
  -23.6366  -29.8211   20.1585 C   0  0  0  0  0  0
  -25.4116  -36.3085   24.0329 C   0  0  1  0  0  0
  -20.5887  -28.3686   23.1279 C   0  0  2  0  0  0
  -20.6779  -26.9410   22.5408 C   0  0  0  0  0  0
  -19.5758  -26.6381   21.5208 C   0  0  0  0  0  0
  -18.1931  -26.7921   22.1616 C   0  0  0  0  0  0
  -19.1539  -28.8849   23.2874 C   0  0  0  0  0  0
  -18.9464  -30.1449   23.8892 C   0  0  0  0  0  0
  -17.6469  -30.6585   24.0561 C   0  0  0  0  0  0
  -25.9052  -34.9452   23.5104 C   0  0  0  0  0  0
  -16.5358  -29.9084   23.6331 C   0  0  0  0  0  0
  -16.7273  -28.6501   23.0353 C   0  0  0  0  0  0
  -26.4496  -31.6592   25.0723 C   0  0  0  0  0  0
  -25.3732  -31.3721   26.1450 C   0  0  0  0  0  0
  -27.0345  -30.3016   24.6173 C   0  0  0  0  0  0
  -27.6050  -32.4333   25.7494 C   0  0  0  0  0  0
  -27.5580  -37.1800   24.8464 C   0  0  0  0  0  0
  -21.4190  -29.3038   22.3670 N   0  0  0  0  0  0
  -26.4293  -37.3776   23.9407 N   0  0  0  0  0  0
  -24.6883  -31.0605   22.0984 N   0  0  0  0  0  0
  -23.4199  -28.8148   23.3004 O   0  0  0  0  0  0
  -28.2835  -26.4100   20.1877 O   0  0  0  0  0  0
  -26.5621  -34.8918   22.4669 O   0  0  0  0  0  0
  -23.5420  -32.1391   23.7356 O   0  0  0  0  0  0
  -29.3808  -23.1864   21.7870 C   0  0  0  0  0  0
  -28.4418  -22.9577   19.5929 C   0  0  0  0  0  0
  -29.8352  -21.8326   21.7544 C   0  0  0  0  0  0
  -28.6667  -23.7907   20.7209 C   0  0  0  0  0  0
  -28.9059  -21.6015   19.5343 C   0  0  0  0  0  0
  -29.6004  -20.9982   20.6251 C   0  0  0  0  0  0
  -29.9974  -20.1933   23.7942 C   0  0  0  0  0  0
  -30.1540  -21.5847   24.3572 C   0  0  0  0  0  0
  -30.5853  -21.2899   22.9364 C   0  0  0  0  0  0
  -28.6640  -20.8067   18.2648 C   0  0  0  0  0  0
  -27.9459  -25.1762   20.9346 C   0  0  0  0  0  0
  -30.4777  -17.2005   20.6553 C   0  0  0  0  0  0
  -29.4880  -18.4556   20.6353 C   0  0  0  0  0  0
  -29.9417  -15.7885   20.7417 N   0  0  0  0  0  0
  -30.2146  -19.7283   20.5592 O   0  0  0  0  0  0
  -31.4671  -12.5011   19.1625 H   0  0  0  0  0  0
  -30.3403  -11.4164   19.9288 H   0  0  0  0  0  0
  -29.7685  -11.7344   17.4962 H   0  0  0  0  0  0
  -29.6424  -13.4602   17.7336 H   0  0  0  0  0  0
  -27.8732  -11.2862   18.8979 H   0  0  0  0  0  0
  -27.3694  -12.5433   17.8000 H   0  0  0  0  0  0
  -27.6515  -14.2542   19.4909 H   0  0  0  0  0  0
  -28.7037  -12.1324   21.4246 H   0  0  0  0  0  0
  -28.4425  -13.8154   21.8041 H   0  0  0  0  0  0
  -25.2759   -9.5683   22.4768 H   0  0  0  0  0  0
  -24.0003   -7.4631   22.7466 H   0  0  0  0  0  0
  -21.0852   -8.8783   19.8944 H   0  0  0  0  0  0
  -22.3709  -10.9681   19.6172 H   0  0  0  0  0  0
  -21.2006   -7.6145   23.9722 H   0  0  0  0  0  0
  -21.1485   -6.0518   25.9080 H   0  0  0  0  0  0
  -22.0595   -2.7610   23.2845 H   0  0  0  0  0  0
  -22.4084  -11.9862   22.4805 H   0  0  0  0  0  0
  -21.1092  -13.1235   22.2646 H   0  0  0  0  0  0
  -24.6541  -15.8465   20.5145 H   0  0  0  0  0  0
  -26.2690  -15.6300   20.0718 H   0  0  0  0  0  0
  -26.7171  -32.5446   23.1107 H   0  0  0  0  0  0
  -25.0071  -33.9733   25.0427 H   0  0  0  0  0  0
  -22.7141  -31.3032   21.4020 H   0  0  0  0  0  0
  -23.3750  -35.9633   23.3304 H   0  0  0  0  0  0
  -24.3581  -36.8918   22.2053 H   0  0  0  0  0  0
  -23.7248  -37.6503   23.6665 H   0  0  0  0  0  0
  -26.0931  -31.5537   20.6083 H   0  0  0  0  0  0
  -26.8431  -30.8390   22.0047 H   0  0  0  0  0  0
  -28.1116  -28.9706   21.2201 H   0  0  0  0  0  0
  -26.0071  -25.9431   18.9810 H   0  0  0  0  0  0
  -23.9797  -27.3246   18.9829 H   0  0  0  0  0  0
  -23.7522  -30.5995   19.4034 H   0  0  0  0  0  0
  -22.7577  -29.2482   19.8565 H   0  0  0  0  0  0
  -25.1293  -36.1939   25.0821 H   0  0  0  0  0  0
  -20.9974  -28.3266   24.1402 H   0  0  0  0  0  0
  -20.5684  -26.2297   23.3607 H   0  0  0  0  0  0
  -21.6647  -26.7441   22.1200 H   0  0  0  0  0  0
  -19.6928  -25.6291   21.1239 H   0  0  0  0  0  0
  -19.6703  -27.3190   20.6739 H   0  0  0  0  0  0
  -17.4204  -26.6670   21.4010 H   0  0  0  0  0  0
  -18.0333  -26.0056   22.9010 H   0  0  0  0  0  0
  -19.7944  -30.7259   24.2264 H   0  0  0  0  0  0
  -17.5028  -31.6264   24.5163 H   0  0  0  0  0  0
  -15.5362  -30.2988   23.7660 H   0  0  0  0  0  0
  -15.8670  -28.0822   22.7074 H   0  0  0  0  0  0
  -24.5923  -30.7051   25.7787 H   0  0  0  0  0  0
  -24.8906  -32.2881   26.4865 H   0  0  0  0  0  0
  -25.8061  -30.8918   27.0232 H   0  0  0  0  0  0
  -26.2918  -29.6758   24.1209 H   0  0  0  0  0  0
  -27.4067  -29.7276   25.4672 H   0  0  0  0  0  0
  -27.8777  -30.4313   23.9382 H   0  0  0  0  0  0
  -27.2658  -33.3640   26.2058 H   0  0  0  0  0  0
  -28.3865  -32.6884   25.0324 H   0  0  0  0  0  0
  -28.0714  -31.8468   26.5420 H   0  0  0  0  0  0
  -28.2593  -38.0100   24.7513 H   0  0  0  0  0  0
  -28.1079  -36.2629   24.6290 H   0  0  0  0  0  0
  -27.2297  -37.1453   25.8866 H   0  0  0  0  0  0
  -20.9369  -29.8773   21.6892 H   0  0  0  0  0  0
  -26.0176  -38.2850   24.1409 H   0  0  0  0  0  0
  -29.5523  -23.7682   22.6820 H   0  0  0  0  0  0
  -27.8743  -23.3599   18.7652 H   0  0  0  0  0  0
  -28.9851  -19.8584   23.5752 H   0  0  0  0  0  0
  -30.6730  -19.4279   24.1712 H   0  0  0  0  0  0
  -30.9310  -21.7260   25.1062 H   0  0  0  0  0  0
  -29.2412  -22.1563   24.5175 H   0  0  0  0  0  0
  -31.6536  -21.2496   22.7317 H   0  0  0  0  0  0
  -28.5122  -21.4647   17.4089 H   0  0  0  0  0  0
  -27.7783  -20.1810   18.3728 H   0  0  0  0  0  0
  -29.5146  -20.1637   18.0373 H   0  0  0  0  0  0
  -28.0591  -25.4366   21.9874 H   0  0  0  0  0  0
  -26.8872  -24.9376   20.8390 H   0  0  0  0  0  0
  -31.1683  -17.3301   21.4899 H   0  0  0  0  0  0
  -31.0959  -17.2643   19.7582 H   0  0  0  0  0  0
  -28.8716  -18.4543   21.5342 H   0  0  0  0  0  0
  -28.8087  -18.3776   19.7870 H   0  0  0  0  0  0
  -28.9663  -15.6732   20.9719 H   0  0  0  0  0  0
  1 25  1  0  0  0
  1 30  2  0  0  0
  1 84  1  0  0  0
  2  3  1  0  0  0
  2 25  1  0  0  0
  2 86  1  0  0  0
  2 87  1  0  0  0
  3  4  1  0  0  0
  3 88  1  0  0  0
  3 89  1  0  0  0
  4  5  1  0  0  0
  4 90  1  0  0  0
  4 91  1  0  0  0
  5  6  1  0  0  0
  5 26  1  0  0  0
  5 92  1  0  0  0
  6 25  1  0  0  0
  6 93  1  0  0  0
  6 94  1  0  0  0
  7  8  2  0  0  0
  7 26  1  0  0  0
  7 29  1  0  0  0
  8  9  1  0  0  0
  8 22  1  0  0  0
  9 10  1  0  0  0
  9 27  2  0  0  0
 10 11  2  0  0  0
 10 15  1  0  0  0
 11 12  1  0  0  0
 11 95  1  0  0  0
 12 13  2  0  0  0
 12 96  1  0  0  0
 13 14  1  0  0  0
 13 31  1  0  0  0
 14 15  2  0  0  0
 14 97  1  0  0  0
 15 98  1  0  0  0
 16 17  2  0  0  0
 16 21  1  0  0  0
 16 31  1  0  0  0
 17 18  1  0  0  0
 17 99  1  0  0  0
 18 19  2  0  0  0
 18100  1  0  0  0
 19 20  1  0  0  0
 19 24  1  0  0  0
 20 21  2  0  0  0
 20101  1  0  0  0
 21 23  1  0  0  0
 22 28  1  0  0  0
 22 32  2  0  0  0
 26 27  1  0  0  0
 28102  1  0  0  0
 28103  1  0  0  0
 29104  1  0  0  0
 29105  1  0  0  0
 33 34  1  0  0  0
 33 66  1  0  0  0
 33 70  2  0  0  0
 34 36  1  0  0  0
 34 59  1  0  0  0
 34106  1  0  0  0
 35 44  2  0  0  0
 35 45  1  0  0  0
 35 68  1  0  0  0
 36 56  1  0  0  0
 36107  1  0  0  0
 37 39  1  0  0  0
 37 47  1  0  0  0
 37 66  1  0  0  0
 37108  1  0  0  0
 38 43  2  0  0  0
 38 46  1  0  0  0
 38 47  1  0  0  0
 39 64  1  0  0  0
 39 67  2  0  0  0
 40 52  1  0  0  0
 40 53  2  0  0  0
 40 58  1  0  0  0
 41109  1  0  0  0
 41110  1  0  0  0
 41111  1  0  0  0
 41 48  1  0  0  0
 42 43  1  0  0  0
 42 66  1  0  0  0
 42112  1  0  0  0
 42113  1  0  0  0
 43 44  1  0  0  0
 44114  1  0  0  0
 45 46  2  0  0  0
 45115  1  0  0  0
 46116  1  0  0  0
 47117  1  0  0  0
 47118  1  0  0  0
 48 56  1  0  0  0
 48 65  1  0  0  0
 48119  1  0  0  0
 49 50  1  0  0  0
 49 53  1  0  0  0
 49 64  1  0  0  0
 49120  1  0  0  0
 50 51  1  0  0  0
 50121  1  0  0  0
 50122  1  0  0  0
 51 52  1  0  0  0
 51123  1  0  0  0
 51124  1  0  0  0
 52125  1  0  0  0
 52126  1  0  0  0
 53 54  1  0  0  0
 54 55  2  0  0  0
 54127  1  0  0  0
 55 57  1  0  0  0
 55128  1  0  0  0
 56 69  2  0  0  0
 57 58  2  0  0  0
 57129  1  0  0  0
 58130  1  0  0  0
 59 60  1  0  0  0
 59 61  1  0  0  0
 59 62  1  0  0  0
 60131  1  0  0  0
 60132  1  0  0  0
 60133  1  0  0  0
 61134  1  0  0  0
 61135  1  0  0  0
 61136  1  0  0  0
 62137  1  0  0  0
 62138  1  0  0  0
 62139  1  0  0  0
 63 65  1  0  0  0
 63140  1  0  0  0
 63141  1  0  0  0
 63142  1  0  0  0
 64143  1  0  0  0
 65144  1  0  0  0
 68 81  1  0  0  0
 71 73  2  0  0  0
 71 74  1  0  0  0
 71145  1  0  0  0
 72 74  2  0  0  0
 72 75  1  0  0  0
 72146  1  0  0  0
 73 76  1  0  0  0
 73 79  1  0  0  0
 74 81  1  0  0  0
 75 76  2  0  0  0
 75 80  1  0  0  0
 76 85  1  0  0  0
 77 78  1  0  0  0
 77 79  1  0  0  0
 77147  1  0  0  0
 77148  1  0  0  0
 78 79  1  0  0  0
 78149  1  0  0  0
 78150  1  0  0  0
 79151  1  0  0  0
 80152  1  0  0  0
 80153  1  0  0  0
 80154  1  0  0  0
 81155  1  0  0  0
 81156  1  0  0  0
 82 83  1  0  0  0
 82 84  1  0  0  0
 82157  1  0  0  0
 82158  1  0  0  0
 83 85  1  0  0  0
 83159  1  0  0  0
 83160  1  0  0  0
 84161  1  0  0  0
M  ISO  4   1 100  68 101  81 101  84 100
M  END
> <chiral flag>
0

> <version>
0

> <s_m_source_file>
/data/baiqing/PycharmProjects/Reinvent-master-3.2/result/LINK_invent/BTK/process_docking_weight1_custom_sum_contain_oxygen_bond_distance_aromatic_linkinvent_7_9_3/rearranged_h_0154.sdf

> <i_m_source_file_index>
87

> <r_mmod_Potential_Energy-OPLS-2005>
92.3586273193359

> <r_mmod_Stretch_Energy-OPLS-2005>
80.065673828125

> <r_mmod_Bend_Energy-OPLS-2005>
144.42985534668

> <r_mmod_Torsional_Energy-OPLS-2005>
295.703521728516

> <r_mmod_Improper_Torsional_Energy-OPLS-2005>
7.33049869537354

> <r_mmod_Van_der_Waal_Energy-OPLS-2005>
135.593444824219

> <r_mmod_Electrostatic_Energy-OPLS-2005>
-417.981475830078

> <r_mmod_Solvation_Energy-OPLS-2005>
-210.684707641602

> <b_mmod_Minimization_Converged-OPLS-2005>
0

> <r_mmod_RMS_Derivative-OPLS-2005>
0.875149130821228

$$$$
88
                    3D
 Structure written by MMmdl.
157166  0  0  1  0            999 V2000
  -30.6012  -14.7609   20.4615 C   0  0  0  0  0  0
  -30.4387  -12.4657   19.4746 C   0  0  0  0  0  0
  -29.5107  -12.5047   18.2378 C   0  0  0  0  0  0
  -28.0344  -12.3418   18.6540 C   0  0  0  0  0  0
  -27.6503  -13.2236   19.8712 C   0  0  2  0  0  0
  -28.7009  -13.1633   21.0082 C   0  0  0  0  0  0
  -25.2589  -13.8197   20.5805 C   0  0  0  0  0  0
  -24.1839  -13.0464   20.9279 C   0  0  0  0  0  0
  -24.6376  -11.6923   20.8763 C   0  0  0  0  0  0
  -23.9022  -10.4304   21.0370 C   0  0  0  0  0  0
  -24.3583   -9.4226   21.9155 C   0  0  0  0  0  0
  -23.6268   -8.2242   22.0732 C   0  0  0  0  0  0
  -22.4263   -8.0264   21.3508 C   0  0  0  0  0  0
  -21.9879   -9.0234   20.4628 C   0  0  0  0  0  0
  -22.7181  -10.2124   20.3035 C   0  0  0  0  0  0
  -21.6875   -6.0717   22.5228 C   0  0  0  0  0  0
  -21.4025   -6.5636   23.8155 C   0  0  0  0  0  0
  -21.3646   -5.6807   24.9135 C   0  0  0  0  0  0
  -21.6038   -4.3066   24.7203 C   0  0  0  0  0  0
  -21.8814   -3.8143   23.4324 C   0  0  0  0  0  0
  -21.9185   -4.6941   22.3372 C   0  0  0  0  0  0
  -22.7858  -13.5269   21.1869 C   0  0  0  0  0  0
  -22.1649   -4.2101   21.0956 F   0  0  0  0  0  0
  -21.5640   -3.4576   25.7724 F   0  0  0  0  0  0
  -29.9993  -13.5194   20.4230 N   0  0  0  0  0  0
  -26.2985  -12.9357   20.3420 N   0  0  0  0  0  0
  -25.9325  -11.6499   20.5856 N   0  0  0  0  0  0
  -22.0463  -12.8274   22.0394 N   0  0  0  0  0  0
  -25.4397  -15.1907   20.4179 N   0  0  0  0  0  0
  -31.7724  -14.8768   20.0784 O   0  0  0  0  0  0
  -21.6651   -6.8836   21.4180 O   0  0  0  0  0  0
  -22.3564  -14.5560   20.6674 O   0  0  0  0  0  0
  -24.6348  -31.8582   23.1991 C   0  0  0  0  0  0
  -25.9175  -32.4753   23.8353 C   0  0  1  0  0  0
  -27.2032  -27.2387   20.1175 C   0  0  0  0  0  0
  -25.5960  -33.8559   24.2259 N   0  0  0  0  0  0
  -23.4293  -30.4830   21.5478 C   0  0  2  0  0  0
  -24.8710  -28.9350   20.1121 C   0  0  0  0  0  0
  -22.7504  -29.4631   22.4946 C   0  0  0  0  0  0
  -18.0282  -28.1413   22.8506 C   0  0  0  0  0  0
  -24.1475  -36.7248   23.2649 C   0  0  0  0  0  0
  -25.9801  -30.7649   21.3832 C   0  0  0  0  0  0
  -26.0495  -29.3881   20.7169 C   0  0  0  0  0  0
  -27.2211  -28.5572   20.7023 C   0  0  0  0  0  0
  -25.9991  -26.8760   19.4711 C   0  0  0  0  0  0
  -24.8529  -27.6874   19.4779 C   0  0  0  0  0  0
  -23.6436  -29.8220   20.1640 C   0  0  0  0  0  0
  -25.4118  -36.3070   24.0330 C   0  0  1  0  0  0
  -20.5902  -28.3728   23.1264 C   0  0  2  0  0  0
  -20.6776  -26.9441   22.5405 C   0  0  0  0  0  0
  -19.5732  -26.6397   21.5232 C   0  0  0  0  0  0
  -18.1917  -26.7962   22.1641 C   0  0  0  0  0  0
  -19.1550  -28.8893   23.2876 C   0  0  0  0  0  0
  -18.9455  -30.1500   23.8886 C   0  0  0  0  0  0
  -17.6452  -30.6609   24.0580 C   0  0  0  0  0  0
  -25.9063  -34.9440   23.5086 C   0  0  0  0  0  0
  -16.5343  -29.9100   23.6345 C   0  0  0  0  0  0
  -16.7274  -28.6518   23.0372 C   0  0  0  0  0  0
  -26.4519  -31.6595   25.0756 C   0  0  0  0  0  0
  -25.3691  -31.3755   26.1426 C   0  0  0  0  0  0
  -27.0400  -30.3005   24.6313 C   0  0  0  0  0  0
  -27.6068  -32.4355   25.7521 C   0  0  0  0  0  0
  -27.5572  -37.1777   24.8480 C   0  0  0  0  0  0
  -21.4226  -29.3057   22.3642 N   0  0  0  0  0  0
  -26.4295  -37.3769   23.9413 N   0  0  0  0  0  0
  -24.7011  -31.0537   22.0994 N   0  0  0  0  0  0
  -23.4196  -28.8171   23.3054 O   0  0  0  0  0  0
  -28.2728  -26.3018   20.1650 O   0  0  0  0  0  0
  -26.5595  -34.8924   22.4627 O   0  0  0  0  0  0
  -23.5481  -32.1434   23.7274 O   0  0  0  0  0  0
  -28.7479  -18.0991   18.0495 C   0  0  0  0  0  0
  -28.7619  -19.4090   18.5807 C   0  0  0  0  0  0
  -29.1833  -16.9889   18.7929 C   0  0  0  0  0  0
  -29.6174  -17.1475   20.1212 C   0  0  0  0  0  0
  -29.2193  -19.5757   19.9166 C   0  0  0  0  0  0
  -27.0264  -21.1542   17.5620 C   0  0  0  0  0  0
  -27.5901  -20.4006   16.3921 C   0  0  0  0  0  0
  -28.4195  -20.5595   17.6610 C   0  0  0  0  0  0
  -29.0165  -23.5938   20.2214 C   0  0  0  0  0  0
  -27.9408  -24.8190   20.2534 C   0  0  0  0  0  0
  -28.5130  -22.0498   20.4472 C   0  0  0  0  0  0
  -29.6203  -18.4486   20.6520 N   0  0  0  0  0  0
  -29.8544  -15.8684   20.8421 N   0  0  0  0  0  0
  -29.4521  -20.8697   20.4911 O   0  0  0  0  0  0
  -29.1440  -15.7676   18.2122 F   0  0  0  0  0  0
  -31.4758  -12.6058   19.1636 H   0  0  0  0  0  0
  -30.4011  -11.4860   19.9546 H   0  0  0  0  0  0
  -29.7865  -11.7139   17.5401 H   0  0  0  0  0  0
  -29.6503  -13.4381   17.6940 H   0  0  0  0  0  0
  -27.8815  -11.2917   18.9025 H   0  0  0  0  0  0
  -27.3752  -12.5550   17.8105 H   0  0  0  0  0  0
  -27.6466  -14.2459   19.4981 H   0  0  0  0  0  0
  -28.7528  -12.1750   21.4723 H   0  0  0  0  0  0
  -28.4369  -13.8578   21.8078 H   0  0  0  0  0  0
  -25.2704   -9.5738   22.4761 H   0  0  0  0  0  0
  -23.9967   -7.4648   22.7464 H   0  0  0  0  0  0
  -21.0798   -8.8731   19.8949 H   0  0  0  0  0  0
  -22.3578  -10.9673   19.6177 H   0  0  0  0  0  0
  -21.2035   -7.6158   23.9629 H   0  0  0  0  0  0
  -21.1499   -6.0577   25.9023 H   0  0  0  0  0  0
  -22.0615   -2.7612   23.2858 H   0  0  0  0  0  0
  -22.4091  -11.9996   22.4894 H   0  0  0  0  0  0
  -21.1030  -13.1258   22.2433 H   0  0  0  0  0  0
  -24.6968  -15.8669   20.5592 H   0  0  0  0  0  0
  -26.2745  -15.6018   20.0222 H   0  0  0  0  0  0
  -26.7254  -32.5407   23.1112 H   0  0  0  0  0  0
  -25.0112  -33.9719   25.0412 H   0  0  0  0  0  0
  -22.7264  -31.3084   21.4053 H   0  0  0  0  0  0
  -23.3785  -35.9530   23.3319 H   0  0  0  0  0  0
  -24.3569  -36.8856   22.2062 H   0  0  0  0  0  0
  -23.7173  -37.6427   23.6670 H   0  0  0  0  0  0
  -26.1297  -31.5337   20.6235 H   0  0  0  0  0  0
  -26.8521  -30.8028   22.0247 H   0  0  0  0  0  0
  -28.1270  -28.9029   21.1817 H   0  0  0  0  0  0
  -25.8940  -25.9431   18.9433 H   0  0  0  0  0  0
  -23.9503  -27.3436   18.9906 H   0  0  0  0  0  0
  -23.7602  -30.5998   19.4084 H   0  0  0  0  0  0
  -22.7604  -29.2563   19.8624 H   0  0  0  0  0  0
  -25.1311  -36.1907   25.0829 H   0  0  0  0  0  0
  -20.9999  -28.3308   24.1390 H   0  0  0  0  0  0
  -20.5697  -26.2345   23.3625 H   0  0  0  0  0  0
  -21.6627  -26.7480   22.1167 H   0  0  0  0  0  0
  -19.6871  -25.6300   21.1273 H   0  0  0  0  0  0
  -19.6654  -27.3208   20.6760 H   0  0  0  0  0  0
  -17.4186  -26.6767   21.4032 H   0  0  0  0  0  0
  -18.0277  -26.0100   22.9026 H   0  0  0  0  0  0
  -19.7929  -30.7341   24.2230 H   0  0  0  0  0  0
  -17.4990  -31.6286   24.5189 H   0  0  0  0  0  0
  -15.5343  -30.2989   23.7674 H   0  0  0  0  0  0
  -15.8679  -28.0818   22.7112 H   0  0  0  0  0  0
  -24.5897  -30.7094   25.7696 H   0  0  0  0  0  0
  -24.8853  -32.2927   26.4797 H   0  0  0  0  0  0
  -25.7933  -30.8938   27.0243 H   0  0  0  0  0  0
  -26.3032  -29.6701   24.1316 H   0  0  0  0  0  0
  -27.4028  -29.7313   25.4887 H   0  0  0  0  0  0
  -27.8923  -30.4264   23.9628 H   0  0  0  0  0  0
  -27.2697  -33.3689   26.2052 H   0  0  0  0  0  0
  -28.3893  -32.6865   25.0340 H   0  0  0  0  0  0
  -28.0739  -31.8518   26.5471 H   0  0  0  0  0  0
  -28.2596  -38.0071   24.7545 H   0  0  0  0  0  0
  -28.1063  -36.2600   24.6305 H   0  0  0  0  0  0
  -27.2283  -37.1417   25.8883 H   0  0  0  0  0  0
  -20.9426  -29.8748   21.6814 H   0  0  0  0  0  0
  -26.0172  -38.2831   24.1457 H   0  0  0  0  0  0
  -28.4194  -17.9106   17.0411 H   0  0  0  0  0  0
  -26.2198  -20.6733   18.1115 H   0  0  0  0  0  0
  -26.9375  -22.2370   17.4654 H   0  0  0  0  0  0
  -27.8705  -20.9970   15.5256 H   0  0  0  0  0  0
  -27.0673  -19.4705   16.1717 H   0  0  0  0  0  0
  -29.2735  -21.2324   17.5976 H   0  0  0  0  0  0
  -29.7853  -23.8005   20.9660 H   0  0  0  0  0  0
  -29.5312  -23.6427   19.2605 H   0  0  0  0  0  0
  -27.3589  -24.7019   21.1688 H   0  0  0  0  0  0
  -27.2669  -24.5609   19.4427 H   0  0  0  0  0  0
  -27.6690  -21.8525   19.8019 H   0  0  0  0  0  0
  -28.0458  -22.0367   21.4315 H   0  0  0  0  0  0
  -29.0550  -15.6075   21.3963 H   0  0  0  0  0  0
  1 25  1  0  0  0
  1 30  2  0  0  0
  1 83  1  0  0  0
  2  3  1  0  0  0
  2 25  1  0  0  0
  2 86  1  0  0  0
  2 87  1  0  0  0
  3  4  1  0  0  0
  3 88  1  0  0  0
  3 89  1  0  0  0
  4  5  1  0  0  0
  4 90  1  0  0  0
  4 91  1  0  0  0
  5  6  1  0  0  0
  5 26  1  0  0  0
  5 92  1  0  0  0
  6 25  1  0  0  0
  6 93  1  0  0  0
  6 94  1  0  0  0
  7  8  2  0  0  0
  7 26  1  0  0  0
  7 29  1  0  0  0
  8  9  1  0  0  0
  8 22  1  0  0  0
  9 10  1  0  0  0
  9 27  2  0  0  0
 10 11  2  0  0  0
 10 15  1  0  0  0
 11 12  1  0  0  0
 11 95  1  0  0  0
 12 13  2  0  0  0
 12 96  1  0  0  0
 13 14  1  0  0  0
 13 31  1  0  0  0
 14 15  2  0  0  0
 14 97  1  0  0  0
 15 98  1  0  0  0
 16 17  2  0  0  0
 16 21  1  0  0  0
 16 31  1  0  0  0
 17 18  1  0  0  0
 17 99  1  0  0  0
 18 19  2  0  0  0
 18100  1  0  0  0
 19 20  1  0  0  0
 19 24  1  0  0  0
 20 21  2  0  0  0
 20101  1  0  0  0
 21 23  1  0  0  0
 22 28  1  0  0  0
 22 32  2  0  0  0
 26 27  1  0  0  0
 28102  1  0  0  0
 28103  1  0  0  0
 29104  1  0  0  0
 29105  1  0  0  0
 33 34  1  0  0  0
 33 66  1  0  0  0
 33 70  2  0  0  0
 34 36  1  0  0  0
 34 59  1  0  0  0
 34106  1  0  0  0
 35 44  2  0  0  0
 35 45  1  0  0  0
 35 68  1  0  0  0
 36 56  1  0  0  0
 36107  1  0  0  0
 37 39  1  0  0  0
 37 47  1  0  0  0
 37 66  1  0  0  0
 37108  1  0  0  0
 38 43  2  0  0  0
 38 46  1  0  0  0
 38 47  1  0  0  0
 39 64  1  0  0  0
 39 67  2  0  0  0
 40 52  1  0  0  0
 40 53  2  0  0  0
 40 58  1  0  0  0
 41109  1  0  0  0
 41110  1  0  0  0
 41111  1  0  0  0
 41 48  1  0  0  0
 42 43  1  0  0  0
 42 66  1  0  0  0
 42112  1  0  0  0
 42113  1  0  0  0
 43 44  1  0  0  0
 44114  1  0  0  0
 45 46  2  0  0  0
 45115  1  0  0  0
 46116  1  0  0  0
 47117  1  0  0  0
 47118  1  0  0  0
 48 56  1  0  0  0
 48 65  1  0  0  0
 48119  1  0  0  0
 49 50  1  0  0  0
 49 53  1  0  0  0
 49 64  1  0  0  0
 49120  1  0  0  0
 50 51  1  0  0  0
 50121  1  0  0  0
 50122  1  0  0  0
 51 52  1  0  0  0
 51123  1  0  0  0
 51124  1  0  0  0
 52125  1  0  0  0
 52126  1  0  0  0
 53 54  1  0  0  0
 54 55  2  0  0  0
 54127  1  0  0  0
 55 57  1  0  0  0
 55128  1  0  0  0
 56 69  2  0  0  0
 57 58  2  0  0  0
 57129  1  0  0  0
 58130  1  0  0  0
 59 60  1  0  0  0
 59 61  1  0  0  0
 59 62  1  0  0  0
 60131  1  0  0  0
 60132  1  0  0  0
 60133  1  0  0  0
 61134  1  0  0  0
 61135  1  0  0  0
 61136  1  0  0  0
 62137  1  0  0  0
 62138  1  0  0  0
 62139  1  0  0  0
 63 65  1  0  0  0
 63140  1  0  0  0
 63141  1  0  0  0
 63142  1  0  0  0
 64143  1  0  0  0
 65144  1  0  0  0
 68 80  1  0  0  0
 71 72  2  0  0  0
 71 73  1  0  0  0
 71145  1  0  0  0
 72 75  1  0  0  0
 72 78  1  0  0  0
 73 74  2  0  0  0
 73 85  1  0  0  0
 74 82  1  0  0  0
 74 83  1  0  0  0
 75 82  2  0  0  0
 75 84  1  0  0  0
 76 77  1  0  0  0
 76 78  1  0  0  0
 76146  1  0  0  0
 76147  1  0  0  0
 77 78  1  0  0  0
 77148  1  0  0  0
 77149  1  0  0  0
 78150  1  0  0  0
 79 80  1  0  0  0
 79 81  1  0  0  0
 79151  1  0  0  0
 79152  1  0  0  0
 80153  1  0  0  0
 80154  1  0  0  0
 81 84  1  0  0  0
 81155  1  0  0  0
 81156  1  0  0  0
 83157  1  0  0  0
M  ISO  4   1 100  68 101  80 101  83 100
M  END
> <chiral flag>
0

> <version>
0

> <s_m_source_file>
/data/baiqing/PycharmProjects/Reinvent-master-3.2/result/LINK_invent/BTK/process_docking_weight1_custom_sum_contain_oxygen_bond_distance_aromatic_linkinvent_7_9_3/rearranged_h_0154.sdf

> <i_m_source_file_index>
88

> <r_mmod_Potential_Energy-OPLS-2005>
167.943588256836

> <r_mmod_Stretch_Energy-OPLS-2005>
148.484161376953

> <r_mmod_Bend_Energy-OPLS-2005>
195.437194824219

> <r_mmod_Torsional_Energy-OPLS-2005>
301.268371582031

> <r_mmod_Improper_Torsional_Energy-OPLS-2005>
6.80678510665894

> <r_mmod_Van_der_Waal_Energy-OPLS-2005>
146.024200439453

> <r_mmod_Electrostatic_Energy-OPLS-2005>
-503.953033447266

> <r_mmod_Solvation_Energy-OPLS-2005>
-221.921234130859

> <b_mmod_Minimization_Converged-OPLS-2005>
0

> <r_mmod_RMS_Derivative-OPLS-2005>
4.84694385528564

$$$$
89
                    3D
 Structure written by MMmdl.
181191  0  0  1  0            999 V2000
  -30.7013  -14.4167   20.5680 C   0  0  0  0  0  0
  -30.4238  -12.2728   19.4095 C   0  0  0  0  0  0
  -29.4922  -12.5058   18.2004 C   0  0  0  0  0  0
  -28.0117  -12.3657   18.6121 C   0  0  0  0  0  0
  -27.6633  -13.1856   19.8825 C   0  0  2  0  0  0
  -28.7072  -12.9325   20.9951 C   0  0  0  0  0  0
  -25.2617  -13.8104   20.5688 C   0  0  0  0  0  0
  -24.1842  -13.0414   20.9174 C   0  0  0  0  0  0
  -24.6357  -11.6868   20.8741 C   0  0  0  0  0  0
  -23.9018  -10.4270   21.0400 C   0  0  0  0  0  0
  -24.3584   -9.4187   21.9176 C   0  0  0  0  0  0
  -23.6270   -8.2218   22.0738 C   0  0  0  0  0  0
  -22.4255   -8.0261   21.3529 C   0  0  0  0  0  0
  -21.9881   -9.0232   20.4641 C   0  0  0  0  0  0
  -22.7195  -10.2112   20.3050 C   0  0  0  0  0  0
  -21.6841   -6.0725   22.5281 C   0  0  0  0  0  0
  -21.4000   -6.5630   23.8215 C   0  0  0  0  0  0
  -21.3660   -5.6781   24.9175 C   0  0  0  0  0  0
  -21.6044   -4.3045   24.7224 C   0  0  0  0  0  0
  -21.8822   -3.8140   23.4344 C   0  0  0  0  0  0
  -21.9185   -4.6955   22.3397 C   0  0  0  0  0  0
  -22.7876  -13.5240   21.1835 C   0  0  0  0  0  0
  -22.1664   -4.2138   21.0982 F   0  0  0  0  0  0
  -21.5627   -3.4532   25.7739 F   0  0  0  0  0  0
  -30.0398  -13.2372   20.4460 N   0  0  0  0  0  0
  -26.3026  -12.9226   20.3404 N   0  0  0  0  0  0
  -25.9277  -11.6404   20.5776 N   0  0  0  0  0  0
  -22.0497  -12.8246   22.0396 N   0  0  0  0  0  0
  -25.4376  -15.1821   20.4124 N   0  0  0  0  0  0
  -31.8510  -14.5925   20.1494 O   0  0  0  0  0  0
  -21.6625   -6.8858   21.4238 O   0  0  0  0  0  0
  -22.3580  -14.5555   20.6688 O   0  0  0  0  0  0
  -24.6072  -31.8738   23.2140 C   0  0  0  0  0  0
  -25.8997  -32.4853   23.8418 C   0  0  1  0  0  0
  -27.2525  -27.4956   20.1040 C   0  0  0  0  0  0
  -25.5899  -33.8649   24.2358 N   0  0  0  0  0  0
  -23.3897  -30.4966   21.5514 C   0  0  2  0  0  0
  -24.8410  -28.9646   20.1181 C   0  0  0  0  0  0
  -22.7362  -29.4696   22.5021 C   0  0  0  0  0  0
  -18.0263  -28.1367   22.8492 C   0  0  0  0  0  0
  -24.1485  -36.7340   23.2633 C   0  0  0  0  0  0
  -25.9079  -30.8608   21.3543 C   0  0  0  0  0  0
  -25.9898  -29.4930   20.7180 C   0  0  0  0  0  0
  -27.1922  -28.7648   20.7214 C   0  0  0  0  0  0
  -26.0917  -26.9753   19.4973 C   0  0  0  0  0  0
  -24.8826  -27.6984   19.5067 C   0  0  0  0  0  0
  -23.5974  -29.8219   20.1664 C   0  0  0  0  0  0
  -25.4100  -36.3135   24.0341 C   0  0  1  0  0  0
  -20.5845  -28.3656   23.1344 C   0  0  2  0  0  0
  -20.6744  -26.9402   22.5429 C   0  0  0  0  0  0
  -19.5742  -26.6388   21.5210 C   0  0  0  0  0  0
  -18.1916  -26.7920   22.1606 C   0  0  0  0  0  0
  -19.1506  -28.8818   23.2920 C   0  0  0  0  0  0
  -18.9434  -30.1424   23.8938 C   0  0  0  0  0  0
  -17.6441  -30.6578   24.0562 C   0  0  0  0  0  0
  -25.9031  -34.9504   23.5146 C   0  0  0  0  0  0
  -16.5338  -29.9083   23.6302 C   0  0  0  0  0  0
  -16.7257  -28.6493   23.0339 C   0  0  0  0  0  0
  -26.4463  -31.6596   25.0713 C   0  0  0  0  0  0
  -25.3771  -31.3689   26.1506 C   0  0  0  0  0  0
  -27.0252  -30.3037   24.6021 C   0  0  0  0  0  0
  -27.6091  -32.4272   25.7442 C   0  0  0  0  0  0
  -27.5591  -37.1805   24.8449 C   0  0  0  0  0  0
  -21.4104  -29.3032   22.3759 N   0  0  0  0  0  0
  -26.4282  -37.3825   23.9432 N   0  0  0  0  0  0
  -24.6527  -31.0916   22.0995 N   0  0  0  0  0  0
  -23.4172  -28.8265   23.3047 O   0  0  0  0  0  0
  -28.3930  -26.7305   20.0289 O   0  0  0  0  0  0
  -26.5599  -34.8949   22.4707 O   0  0  0  0  0  0
  -23.5293  -32.1437   23.7611 O   0  0  0  0  0  0
  -28.9562  -20.5702   20.6883 C   0  0  0  0  0  0
  -30.6722  -20.4042   22.3957 C   0  0  0  0  0  0
  -29.8631  -19.7843   21.4259 C   0  0  0  0  0  0
  -29.8245  -22.6039   21.7337 C   0  0  0  0  0  0
  -28.9487  -21.9758   20.8015 C   0  0  0  0  0  0
  -30.6458  -21.8076   22.5794 C   0  0  0  0  0  0
  -30.3733  -24.6903   20.3700 C   0  0  0  0  0  0
  -30.6701  -26.1906   20.4123 C   0  0  0  0  0  0
  -29.9262  -17.3869   22.3639 C   0  0  0  0  0  0
  -29.2055  -17.7649   19.9597 C   0  0  0  0  0  0
  -29.1072  -26.4699   22.3774 C   0  0  0  0  0  0
  -29.4321  -15.9574   22.0365 C   0  0  0  0  0  0
  -29.6877  -16.3710   19.5638 C   0  0  0  0  0  0
  -30.0541  -18.2998   21.1254 C   0  0  0  0  0  0
  -29.9885  -24.1365   21.7616 C   0  0  1  0  0  0
  -28.8663  -24.9419   22.4887 C   0  0  2  0  0  0
  -29.4602  -26.9571   20.9510 C   0  0  2  0  0  0
  -27.4089  -24.5612   22.1649 C   0  0  0  0  0  0
  -27.3896  -22.1634   18.9496 C   0  0  0  0  0  0
  -32.2498  -21.6679   24.3834 C   0  0  0  0  0  0
  -29.8785  -15.4758   20.7177 N   0  0  0  0  0  0
  -28.1348  -22.7569   20.0064 O   0  0  0  0  0  0
  -31.4281  -22.4459   23.5224 O   0  0  0  0  0  0
  -31.4689  -12.3719   19.1093 H   0  0  0  0  0  0
  -30.3173  -11.2550   19.7874 H   0  0  0  0  0  0
  -29.7244  -11.7994   17.4023 H   0  0  0  0  0  0
  -29.6647  -13.5014   17.7876 H   0  0  0  0  0  0
  -27.8157  -11.3080   18.7908 H   0  0  0  0  0  0
  -27.3611  -12.6600   17.7873 H   0  0  0  0  0  0
  -27.7059  -14.2355   19.6040 H   0  0  0  0  0  0
  -28.6774  -11.8882   21.3103 H   0  0  0  0  0  0
  -28.4746  -13.5096   21.8887 H   0  0  0  0  0  0
  -25.2719   -9.5675   22.4748 H   0  0  0  0  0  0
  -23.9978   -7.4609   22.7453 H   0  0  0  0  0  0
  -21.0793   -8.8748   19.8960 H   0  0  0  0  0  0
  -22.3635  -10.9652   19.6167 H   0  0  0  0  0  0
  -21.1996   -7.6137   23.9710 H   0  0  0  0  0  0
  -21.1480   -6.0514   25.9078 H   0  0  0  0  0  0
  -22.0602   -2.7603   23.2844 H   0  0  0  0  0  0
  -22.4085  -11.9905   22.4797 H   0  0  0  0  0  0
  -21.1131  -13.1306   22.2599 H   0  0  0  0  0  0
  -24.6747  -15.8404   20.5276 H   0  0  0  0  0  0
  -26.3008  -15.6224   20.1213 H   0  0  0  0  0  0
  -26.7077  -32.5609   23.1209 H   0  0  0  0  0  0
  -25.0072  -33.9816   25.0513 H   0  0  0  0  0  0
  -22.6747  -31.3104   21.4137 H   0  0  0  0  0  0
  -23.3762  -35.9655   23.3258 H   0  0  0  0  0  0
  -24.3600  -36.8997   22.2057 H   0  0  0  0  0  0
  -23.7199  -37.6526   23.6655 H   0  0  0  0  0  0
  -25.9999  -31.6204   20.5760 H   0  0  0  0  0  0
  -26.8035  -30.9313   21.9594 H   0  0  0  0  0  0
  -28.0569  -29.2085   21.1904 H   0  0  0  0  0  0
  -26.1276  -26.0062   19.0197 H   0  0  0  0  0  0
  -24.0028  -27.2822   19.0364 H   0  0  0  0  0  0
  -23.6980  -30.5925   19.4016 H   0  0  0  0  0  0
  -22.7238  -29.2352   19.8751 H   0  0  0  0  0  0
  -25.1261  -36.2008   25.0830 H   0  0  0  0  0  0
  -20.9938  -28.3221   24.1465 H   0  0  0  0  0  0
  -20.5639  -26.2280   23.3612 H   0  0  0  0  0  0
  -21.6622  -26.7457   22.1233 H   0  0  0  0  0  0
  -19.6916  -25.6304   21.1229 H   0  0  0  0  0  0
  -19.6695  -27.3197   20.6740 H   0  0  0  0  0  0
  -17.4209  -26.6701   21.3988 H   0  0  0  0  0  0
  -18.0312  -26.0032   22.8966 H   0  0  0  0  0  0
  -19.7923  -30.7193   24.2346 H   0  0  0  0  0  0
  -17.5014  -31.6259   24.5167 H   0  0  0  0  0  0
  -15.5334  -30.2998   23.7584 H   0  0  0  0  0  0
  -15.8664  -28.0808   22.7032 H   0  0  0  0  0  0
  -24.5910  -30.7066   25.7865 H   0  0  0  0  0  0
  -24.8996  -32.2842   26.5009 H   0  0  0  0  0  0
  -25.8155  -30.8821   27.0227 H   0  0  0  0  0  0
  -26.2733  -29.6824   24.1136 H   0  0  0  0  0  0
  -27.4101  -29.7249   25.4430 H   0  0  0  0  0  0
  -27.8547  -30.4352   23.9070 H   0  0  0  0  0  0
  -27.2767  -33.3591   26.2020 H   0  0  0  0  0  0
  -28.3889  -32.6780   25.0238 H   0  0  0  0  0  0
  -28.0762  -31.8372   26.5345 H   0  0  0  0  0  0
  -28.2578  -38.0134   24.7560 H   0  0  0  0  0  0
  -28.1106  -36.2674   24.6153 H   0  0  0  0  0  0
  -27.2348  -37.1334   25.8861 H   0  0  0  0  0  0
  -20.9267  -29.8747   21.6978 H   0  0  0  0  0  0
  -26.0186  -38.2905   24.1463 H   0  0  0  0  0  0
  -28.2961  -20.0940   19.9832 H   0  0  0  0  0  0
  -31.3430  -19.7781   22.9652 H   0  0  0  0  0  0
  -31.2486  -24.1575   19.9973 H   0  0  0  0  0  0
  -29.5892  -24.5276   19.6354 H   0  0  0  0  0  0
  -30.9224  -26.5484   19.4139 H   0  0  0  0  0  0
  -31.5424  -26.3782   21.0391 H   0  0  0  0  0  0
  -30.8902  -17.3407   22.8738 H   0  0  0  0  0  0
  -29.2330  -17.8257   23.0840 H   0  0  0  0  0  0
  -28.1474  -17.7460   20.2277 H   0  0  0  0  0  0
  -29.3041  -18.3977   19.0767 H   0  0  0  0  0  0
  -29.9414  -26.7298   23.0307 H   0  0  0  0  0  0
  -28.2540  -27.0204   22.7763 H   0  0  0  0  0  0
  -28.3410  -15.9500   22.0339 H   0  0  0  0  0  0
  -29.7348  -15.2753   22.8343 H   0  0  0  0  0  0
  -30.6231  -16.4828   19.0113 H   0  0  0  0  0  0
  -28.9832  -15.9262   18.8608 H   0  0  0  0  0  0
  -31.0901  -18.2261   20.7905 H   0  0  0  0  0  0
  -30.8799  -24.3526   22.3487 H   0  0  0  0  0  0
  -28.9661  -24.6957   23.5467 H   0  0  0  0  0  0
  -29.7471  -28.0076   20.9700 H   0  0  0  0  0  0
  -27.1615  -24.7354   21.1196 H   0  0  0  0  0  0
  -26.7073  -25.1447   22.7608 H   0  0  0  0  0  0
  -27.2147  -23.5115   22.3861 H   0  0  0  0  0  0
  -26.9290  -22.9493   18.3505 H   0  0  0  0  0  0
  -26.5885  -21.5302   19.3334 H   0  0  0  0  0  0
  -28.0244  -21.5805   18.2806 H   0  0  0  0  0  0
  -32.7485  -22.3268   25.0948 H   0  0  0  0  0  0
  -33.0278  -21.1433   23.8262 H   0  0  0  0  0  0
  -31.6638  -20.9489   24.9591 H   0  0  0  0  0  0
  1 25  1  0  0  0
  1 30  2  0  0  0
  1 91  1  0  0  0
  2  3  1  0  0  0
  2 25  1  0  0  0
  2 94  1  0  0  0
  2 95  1  0  0  0
  3  4  1  0  0  0
  3 96  1  0  0  0
  3 97  1  0  0  0
  4  5  1  0  0  0
  4 98  1  0  0  0
  4 99  1  0  0  0
  5  6  1  0  0  0
  5 26  1  0  0  0
  5100  1  0  0  0
  6 25  1  0  0  0
  6101  1  0  0  0
  6102  1  0  0  0
  7  8  2  0  0  0
  7 26  1  0  0  0
  7 29  1  0  0  0
  8  9  1  0  0  0
  8 22  1  0  0  0
  9 10  1  0  0  0
  9 27  2  0  0  0
 10 11  2  0  0  0
 10 15  1  0  0  0
 11 12  1  0  0  0
 11103  1  0  0  0
 12 13  2  0  0  0
 12104  1  0  0  0
 13 14  1  0  0  0
 13 31  1  0  0  0
 14 15  2  0  0  0
 14105  1  0  0  0
 15106  1  0  0  0
 16 17  2  0  0  0
 16 21  1  0  0  0
 16 31  1  0  0  0
 17 18  1  0  0  0
 17107  1  0  0  0
 18 19  2  0  0  0
 18108  1  0  0  0
 19 20  1  0  0  0
 19 24  1  0  0  0
 20 21  2  0  0  0
 20109  1  0  0  0
 21 23  1  0  0  0
 22 28  1  0  0  0
 22 32  2  0  0  0
 26 27  1  0  0  0
 28110  1  0  0  0
 28111  1  0  0  0
 29112  1  0  0  0
 29113  1  0  0  0
 33 34  1  0  0  0
 33 66  1  0  0  0
 33 70  2  0  0  0
 34 36  1  0  0  0
 34 59  1  0  0  0
 34114  1  0  0  0
 35 44  2  0  0  0
 35 45  1  0  0  0
 35 68  1  0  0  0
 36 56  1  0  0  0
 36115  1  0  0  0
 37 39  1  0  0  0
 37 47  1  0  0  0
 37 66  1  0  0  0
 37116  1  0  0  0
 38 43  2  0  0  0
 38 46  1  0  0  0
 38 47  1  0  0  0
 39 64  1  0  0  0
 39 67  2  0  0  0
 40 52  1  0  0  0
 40 53  2  0  0  0
 40 58  1  0  0  0
 41117  1  0  0  0
 41118  1  0  0  0
 41119  1  0  0  0
 41 48  1  0  0  0
 42 43  1  0  0  0
 42 66  1  0  0  0
 42120  1  0  0  0
 42121  1  0  0  0
 43 44  1  0  0  0
 44122  1  0  0  0
 45 46  2  0  0  0
 45123  1  0  0  0
 46124  1  0  0  0
 47125  1  0  0  0
 47126  1  0  0  0
 48 56  1  0  0  0
 48 65  1  0  0  0
 48127  1  0  0  0
 49 50  1  0  0  0
 49 53  1  0  0  0
 49 64  1  0  0  0
 49128  1  0  0  0
 50 51  1  0  0  0
 50129  1  0  0  0
 50130  1  0  0  0
 51 52  1  0  0  0
 51131  1  0  0  0
 51132  1  0  0  0
 52133  1  0  0  0
 52134  1  0  0  0
 53 54  1  0  0  0
 54 55  2  0  0  0
 54135  1  0  0  0
 55 57  1  0  0  0
 55136  1  0  0  0
 56 69  2  0  0  0
 57 58  2  0  0  0
 57137  1  0  0  0
 58138  1  0  0  0
 59 60  1  0  0  0
 59 61  1  0  0  0
 59 62  1  0  0  0
 60139  1  0  0  0
 60140  1  0  0  0
 60141  1  0  0  0
 61142  1  0  0  0
 61143  1  0  0  0
 61144  1  0  0  0
 62145  1  0  0  0
 62146  1  0  0  0
 62147  1  0  0  0
 63 65  1  0  0  0
 63148  1  0  0  0
 63149  1  0  0  0
 63150  1  0  0  0
 64151  1  0  0  0
 65152  1  0  0  0
 68 87  1  0  0  0
 71 73  2  0  0  0
 71 75  1  0  0  0
 71153  1  0  0  0
 72 73  1  0  0  0
 72 76  2  0  0  0
 72154  1  0  0  0
 73 84  1  0  0  0
 74 75  2  0  0  0
 74 76  1  0  0  0
 74 85  1  0  0  0
 75 92  1  0  0  0
 76 93  1  0  0  0
 77 78  1  0  0  0
 77 85  1  0  0  0
 77155  1  0  0  0
 77156  1  0  0  0
 78 87  1  0  0  0
 78157  1  0  0  0
 78158  1  0  0  0
 79 82  1  0  0  0
 79 84  1  0  0  0
 79159  1  0  0  0
 79160  1  0  0  0
 80 83  1  0  0  0
 80 84  1  0  0  0
 80161  1  0  0  0
 80162  1  0  0  0
 81 86  1  0  0  0
 81 87  1  0  0  0
 81163  1  0  0  0
 81164  1  0  0  0
 82 91  1  0  0  0
 82165  1  0  0  0
 82166  1  0  0  0
 83 91  1  0  0  0
 83167  1  0  0  0
 83168  1  0  0  0
 84169  1  0  0  0
 85 86  1  0  0  0
 85170  1  0  0  0
 86 88  1  0  0  0
 86171  1  0  0  0
 87172  1  0  0  0
 88173  1  0  0  0
 88174  1  0  0  0
 88175  1  0  0  0
 89 92  1  0  0  0
 89176  1  0  0  0
 89177  1  0  0  0
 89178  1  0  0  0
 90 93  1  0  0  0
 90179  1  0  0  0
 90180  1  0  0  0
 90181  1  0  0  0
M  ISO  4   1 100  68 101  87 101  91 100
M  END
> <chiral flag>
0

> <version>
0

> <s_m_source_file>
/data/baiqing/PycharmProjects/Reinvent-master-3.2/result/LINK_invent/BTK/process_docking_weight1_custom_sum_contain_oxygen_bond_distance_aromatic_linkinvent_7_9_3/rearranged_h_0154.sdf

> <i_m_source_file_index>
89

> <r_mmod_Potential_Energy-OPLS-2005>
274.480926513672

> <r_mmod_Stretch_Energy-OPLS-2005>
40.0830230712891

> <r_mmod_Bend_Energy-OPLS-2005>
133.511505126953

> <r_mmod_Torsional_Energy-OPLS-2005>
372.781646728516

> <r_mmod_Improper_Torsional_Energy-OPLS-2005>
15.5598888397217

> <r_mmod_Van_der_Waal_Energy-OPLS-2005>
188.811630249023

> <r_mmod_Electrostatic_Energy-OPLS-2005>
-289.277069091797

> <r_mmod_Solvation_Energy-OPLS-2005>
-196.166610717773

> <b_mmod_Minimization_Converged-OPLS-2005>
0

> <r_mmod_RMS_Derivative-OPLS-2005>
2.21822452545166

$$$$
90
                    3D
 Structure written by MMmdl.
173182  0  0  1  0            999 V2000
  -30.5641  -14.7456   20.4396 C   0  0  0  0  0  0
  -30.4477  -12.4510   19.4563 C   0  0  0  0  0  0
  -29.5121  -12.5102   18.2271 C   0  0  0  0  0  0
  -28.0369  -12.3329   18.6427 C   0  0  0  0  0  0
  -27.6449  -13.2226   19.8514 C   0  0  2  0  0  0
  -28.6943  -13.1247   20.9802 C   0  0  0  0  0  0
  -25.2541  -13.8149   20.5767 C   0  0  0  0  0  0
  -24.1816  -13.0399   20.9221 C   0  0  0  0  0  0
  -24.6399  -11.6881   20.8739 C   0  0  0  0  0  0
  -23.9073  -10.4262   21.0402 C   0  0  0  0  0  0
  -24.3618   -9.4179   21.9183 C   0  0  0  0  0  0
  -23.6283   -8.2222   22.0757 C   0  0  0  0  0  0
  -22.4266   -8.0262   21.3552 C   0  0  0  0  0  0
  -21.9901   -9.0240   20.4657 C   0  0  0  0  0  0
  -22.7240  -10.2110   20.3061 C   0  0  0  0  0  0
  -21.6847   -6.0723   22.5284 C   0  0  0  0  0  0
  -21.4007   -6.5632   23.8216 C   0  0  0  0  0  0
  -21.3659   -5.6786   24.9180 C   0  0  0  0  0  0
  -21.6040   -4.3051   24.7234 C   0  0  0  0  0  0
  -21.8823   -3.8141   23.4358 C   0  0  0  0  0  0
  -21.9197   -4.6951   22.3410 C   0  0  0  0  0  0
  -22.7839  -13.5202   21.1858 C   0  0  0  0  0  0
  -22.1670   -4.2139   21.0989 F   0  0  0  0  0  0
  -21.5624   -3.4538   25.7752 F   0  0  0  0  0  0
  -29.9958  -13.4927   20.4019 N   0  0  0  0  0  0
  -26.2955  -12.9359   20.3292 N   0  0  0  0  0  0
  -25.9321  -11.6500   20.5712 N   0  0  0  0  0  0
  -22.0463  -12.8209   22.0410 N   0  0  0  0  0  0
  -25.4180  -15.1887   20.4330 N   0  0  0  0  0  0
  -31.7549  -14.9039   20.1519 O   0  0  0  0  0  0
  -21.6630   -6.8863   21.4246 O   0  0  0  0  0  0
  -22.3542  -14.5513   20.6701 O   0  0  0  0  0  0
  -24.6319  -31.8531   23.1954 C   0  0  0  0  0  0
  -25.9142  -32.4738   23.8310 C   0  0  1  0  0  0
  -27.2262  -27.2595   20.1302 C   0  0  0  0  0  0
  -25.5935  -33.8538   24.2245 N   0  0  0  0  0  0
  -23.4293  -30.4746   21.5378 C   0  0  2  0  0  0
  -24.8771  -28.9149   20.1103 C   0  0  0  0  0  0
  -22.7503  -29.4598   22.4898 C   0  0  0  0  0  0
  -18.0297  -28.1391   22.8473 C   0  0  0  0  0  0
  -24.1494  -36.7277   23.2638 C   0  0  0  0  0  0
  -25.9744  -30.7653   21.3747 C   0  0  0  0  0  0
  -26.0478  -29.3870   20.7172 C   0  0  0  0  0  0
  -27.2254  -28.5732   20.7104 C   0  0  0  0  0  0
  -26.0321  -26.8489   19.5002 C   0  0  0  0  0  0
  -24.8746  -27.6546   19.4900 C   0  0  0  0  0  0
  -23.6475  -29.8022   20.1559 C   0  0  0  0  0  0
  -25.4116  -36.3057   24.0328 C   0  0  1  0  0  0
  -20.5897  -28.3705   23.1256 C   0  0  2  0  0  0
  -20.6784  -26.9421   22.5403 C   0  0  0  0  0  0
  -19.5763  -26.6385   21.5201 C   0  0  0  0  0  0
  -18.1942  -26.7932   22.1610 C   0  0  0  0  0  0
  -19.1548  -28.8863   23.2862 C   0  0  0  0  0  0
  -18.9469  -30.1461   23.8889 C   0  0  0  0  0  0
  -17.6469  -30.6588   24.0561 C   0  0  0  0  0  0
  -25.9055  -34.9428   23.5091 C   0  0  0  0  0  0
  -16.5360  -29.9087   23.6330 C   0  0  0  0  0  0
  -16.7281  -28.6503   23.0348 C   0  0  0  0  0  0
  -26.4507  -31.6566   25.0706 C   0  0  0  0  0  0
  -25.3729  -31.3738   26.1433 C   0  0  0  0  0  0
  -27.0341  -30.2973   24.6205 C   0  0  0  0  0  0
  -27.6063  -32.4309   25.7473 C   0  0  0  0  0  0
  -27.5586  -37.1786   24.8457 C   0  0  0  0  0  0
  -21.4207  -29.3048   22.3638 N   0  0  0  0  0  0
  -26.4290  -37.3759   23.9413 N   0  0  0  0  0  0
  -24.6975  -31.0494   22.0925 N   0  0  0  0  0  0
  -23.4196  -28.8145   23.3009 O   0  0  0  0  0  0
  -28.3410  -26.3906   20.1683 O   0  0  0  0  0  0
  -26.5626  -34.8910   22.4659 O   0  0  0  0  0  0
  -23.5466  -32.1359   23.7247 O   0  0  0  0  0  0
  -28.4662  -19.3682   19.8392 C   0  0  0  0  0  0
  -30.7546  -18.1344   20.8433 C   0  0  0  0  0  0
  -29.4924  -20.2527   20.2821 C   0  0  0  0  0  0
  -30.6638  -19.5740   20.7832 C   0  0  0  0  0  0
  -29.7119  -17.2681   20.4207 C   0  0  0  0  0  0
  -28.5711  -17.9310   19.8830 C   0  0  0  0  0  0
  -29.0798  -22.6632   21.4639 C   0  0  0  0  0  0
  -28.3560  -22.4726   19.1225 C   0  0  0  0  0  0
  -29.1495  -24.2414   21.3191 C   0  0  0  0  0  0
  -28.4114  -24.0573   18.9707 C   0  0  0  0  0  0
  -29.3667  -21.8578   20.1532 C   0  0  2  0  0  0
  -28.1782  -24.8941   20.2773 C   0  0  2  0  0  0
  -26.5708  -16.3732   17.3336 C   0  0  0  0  0  0
  -33.0242  -20.2676   20.2228 C   0  0  0  0  0  0
  -32.3636  -19.9547   22.6548 C   0  0  0  0  0  0
  -26.8804  -17.5720   18.2350 C   0  0  0  0  0  0
  -31.8885  -20.3666   21.2508 C   0  0  0  0  0  0
  -29.6740  -15.7939   20.5793 N   0  0  0  0  0  0
  -27.5747  -17.1129   19.3931 O   0  0  0  0  0  0
  -31.4844  -12.6004   19.1484 H   0  0  0  0  0  0
  -30.4110  -11.4675   19.9269 H   0  0  0  0  0  0
  -29.7901  -11.7428   17.5037 H   0  0  0  0  0  0
  -29.6354  -13.4678   17.7199 H   0  0  0  0  0  0
  -27.8925  -11.2824   18.8970 H   0  0  0  0  0  0
  -27.3789  -12.5342   17.7967 H   0  0  0  0  0  0
  -27.6392  -14.2479   19.4811 H   0  0  0  0  0  0
  -28.7303  -12.1126   21.3863 H   0  0  0  0  0  0
  -28.4323  -13.7769   21.8156 H   0  0  0  0  0  0
  -25.2758   -9.5650   22.4761 H   0  0  0  0  0  0
  -23.9981   -7.4611   22.7482 H   0  0  0  0  0  0
  -21.0826   -8.8768   19.8971 H   0  0  0  0  0  0
  -22.3694  -10.9654   19.6178 H   0  0  0  0  0  0
  -21.1991   -7.6137   23.9720 H   0  0  0  0  0  0
  -21.1477   -6.0517   25.9085 H   0  0  0  0  0  0
  -22.0602   -2.7602   23.2870 H   0  0  0  0  0  0
  -22.4046  -11.9878   22.4831 H   0  0  0  0  0  0
  -21.1098  -13.1290   22.2611 H   0  0  0  0  0  0
  -24.6338  -15.8228   20.5351 H   0  0  0  0  0  0
  -26.2497  -15.6510   20.0825 H   0  0  0  0  0  0
  -26.7205  -32.5388   23.1047 H   0  0  0  0  0  0
  -25.0099  -33.9667   25.0403 H   0  0  0  0  0  0
  -22.7267  -31.2971   21.3880 H   0  0  0  0  0  0
  -23.3764  -35.9599   23.3269 H   0  0  0  0  0  0
  -24.3596  -36.8930   22.2059 H   0  0  0  0  0  0
  -23.7236  -37.6464   23.6685 H   0  0  0  0  0  0
  -26.1153  -31.5253   20.6051 H   0  0  0  0  0  0
  -26.8506  -30.8133   22.0095 H   0  0  0  0  0  0
  -28.1244  -28.9302   21.1929 H   0  0  0  0  0  0
  -25.9783  -25.8828   19.0197 H   0  0  0  0  0  0
  -23.9786  -27.2883   19.0082 H   0  0  0  0  0  0
  -23.7705  -30.5743   19.3956 H   0  0  0  0  0  0
  -22.7659  -29.2331   19.8547 H   0  0  0  0  0  0
  -25.1294  -36.1898   25.0820 H   0  0  0  0  0  0
  -20.9994  -28.3296   24.1373 H   0  0  0  0  0  0
  -20.5673  -26.2318   23.3612 H   0  0  0  0  0  0
  -21.6657  -26.7440   22.1207 H   0  0  0  0  0  0
  -19.6929  -25.6291   21.1243 H   0  0  0  0  0  0
  -19.6704  -27.3181   20.6719 H   0  0  0  0  0  0
  -17.4212  -26.6674   21.4015 H   0  0  0  0  0  0
  -18.0344  -26.0079   22.9009 H   0  0  0  0  0  0
  -19.7946  -30.7276   24.2260 H   0  0  0  0  0  0
  -17.5023  -31.6268   24.5167 H   0  0  0  0  0  0
  -15.5360  -30.2986   23.7656 H   0  0  0  0  0  0
  -15.8680  -28.0817   22.7071 H   0  0  0  0  0  0
  -24.5876  -30.7118   25.7768 H   0  0  0  0  0  0
  -24.8957  -32.2919   26.4868 H   0  0  0  0  0  0
  -25.8040  -30.8900   27.0206 H   0  0  0  0  0  0
  -26.2915  -29.6715   24.1240 H   0  0  0  0  0  0
  -27.4017  -29.7248   25.4732 H   0  0  0  0  0  0
  -27.8800  -30.4230   23.9443 H   0  0  0  0  0  0
  -27.2675  -33.3621   26.2028 H   0  0  0  0  0  0
  -28.3876  -32.6850   25.0298 H   0  0  0  0  0  0
  -28.0722  -31.8447   26.5405 H   0  0  0  0  0  0
  -28.2577  -38.0109   24.7533 H   0  0  0  0  0  0
  -28.1111  -36.2642   24.6240 H   0  0  0  0  0  0
  -27.2316  -37.1383   25.8862 H   0  0  0  0  0  0
  -20.9400  -29.8761   21.6828 H   0  0  0  0  0  0
  -26.0166  -38.2828   24.1425 H   0  0  0  0  0  0
  -27.5647  -19.8110   19.4427 H   0  0  0  0  0  0
  -31.6503  -17.6772   21.2359 H   0  0  0  0  0  0
  -28.0962  -22.3836   21.8437 H   0  0  0  0  0  0
  -29.7831  -22.3577   22.2380 H   0  0  0  0  0  0
  -28.5400  -22.0266   18.1445 H   0  0  0  0  0  0
  -27.3400  -22.1853   19.3963 H   0  0  0  0  0  0
  -30.1728  -24.5138   21.0586 H   0  0  0  0  0  0
  -28.9674  -24.6904   22.2957 H   0  0  0  0  0  0
  -27.6840  -24.3653   18.2200 H   0  0  0  0  0  0
  -29.3857  -24.3253   18.5600 H   0  0  0  0  0  0
  -30.3415  -22.1761   19.7828 H   0  0  0  0  0  0
  -27.1677  -24.6862   20.6317 H   0  0  0  0  0  0
  -25.9218  -15.6505   17.8255 H   0  0  0  0  0  0
  -27.4861  -15.8576   17.0414 H   0  0  0  0  0  0
  -26.0686  -16.6971   16.4219 H   0  0  0  0  0  0
  -32.7016  -20.6371   19.2489 H   0  0  0  0  0  0
  -33.3591  -19.2378   20.0921 H   0  0  0  0  0  0
  -33.8852  -20.8626   20.5297 H   0  0  0  0  0  0
  -31.5569  -20.0439   23.3826 H   0  0  0  0  0  0
  -33.1767  -20.5990   22.9907 H   0  0  0  0  0  0
  -32.7342  -18.9304   22.6891 H   0  0  0  0  0  0
  -25.9602  -18.0767   18.5303 H   0  0  0  0  0  0
  -27.4736  -18.2803   17.6545 H   0  0  0  0  0  0
  -31.6371  -21.4198   21.3378 H   0  0  0  0  0  0
  -28.7307  -15.4486   20.6627 H   0  0  0  0  0  0
  1 25  1  0  0  0
  1 30  2  0  0  0
  1 88  1  0  0  0
  2  3  1  0  0  0
  2 25  1  0  0  0
  2 90  1  0  0  0
  2 91  1  0  0  0
  3  4  1  0  0  0
  3 92  1  0  0  0
  3 93  1  0  0  0
  4  5  1  0  0  0
  4 94  1  0  0  0
  4 95  1  0  0  0
  5  6  1  0  0  0
  5 26  1  0  0  0
  5 96  1  0  0  0
  6 25  1  0  0  0
  6 97  1  0  0  0
  6 98  1  0  0  0
  7  8  2  0  0  0
  7 26  1  0  0  0
  7 29  1  0  0  0
  8  9  1  0  0  0
  8 22  1  0  0  0
  9 10  1  0  0  0
  9 27  2  0  0  0
 10 11  2  0  0  0
 10 15  1  0  0  0
 11 12  1  0  0  0
 11 99  1  0  0  0
 12 13  2  0  0  0
 12100  1  0  0  0
 13 14  1  0  0  0
 13 31  1  0  0  0
 14 15  2  0  0  0
 14101  1  0  0  0
 15102  1  0  0  0
 16 17  2  0  0  0
 16 21  1  0  0  0
 16 31  1  0  0  0
 17 18  1  0  0  0
 17103  1  0  0  0
 18 19  2  0  0  0
 18104  1  0  0  0
 19 20  1  0  0  0
 19 24  1  0  0  0
 20 21  2  0  0  0
 20105  1  0  0  0
 21 23  1  0  0  0
 22 28  1  0  0  0
 22 32  2  0  0  0
 26 27  1  0  0  0
 28106  1  0  0  0
 28107  1  0  0  0
 29108  1  0  0  0
 29109  1  0  0  0
 33 34  1  0  0  0
 33 66  1  0  0  0
 33 70  2  0  0  0
 34 36  1  0  0  0
 34 59  1  0  0  0
 34110  1  0  0  0
 35 44  2  0  0  0
 35 45  1  0  0  0
 35 68  1  0  0  0
 36 56  1  0  0  0
 36111  1  0  0  0
 37 39  1  0  0  0
 37 47  1  0  0  0
 37 66  1  0  0  0
 37112  1  0  0  0
 38 43  2  0  0  0
 38 46  1  0  0  0
 38 47  1  0  0  0
 39 64  1  0  0  0
 39 67  2  0  0  0
 40 52  1  0  0  0
 40 53  2  0  0  0
 40 58  1  0  0  0
 41113  1  0  0  0
 41114  1  0  0  0
 41115  1  0  0  0
 41 48  1  0  0  0
 42 43  1  0  0  0
 42 66  1  0  0  0
 42116  1  0  0  0
 42117  1  0  0  0
 43 44  1  0  0  0
 44118  1  0  0  0
 45 46  2  0  0  0
 45119  1  0  0  0
 46120  1  0  0  0
 47121  1  0  0  0
 47122  1  0  0  0
 48 56  1  0  0  0
 48 65  1  0  0  0
 48123  1  0  0  0
 49 50  1  0  0  0
 49 53  1  0  0  0
 49 64  1  0  0  0
 49124  1  0  0  0
 50 51  1  0  0  0
 50125  1  0  0  0
 50126  1  0  0  0
 51 52  1  0  0  0
 51127  1  0  0  0
 51128  1  0  0  0
 52129  1  0  0  0
 52130  1  0  0  0
 53 54  1  0  0  0
 54 55  2  0  0  0
 54131  1  0  0  0
 55 57  1  0  0  0
 55132  1  0  0  0
 56 69  2  0  0  0
 57 58  2  0  0  0
 57133  1  0  0  0
 58134  1  0  0  0
 59 60  1  0  0  0
 59 61  1  0  0  0
 59 62  1  0  0  0
 60135  1  0  0  0
 60136  1  0  0  0
 60137  1  0  0  0
 61138  1  0  0  0
 61139  1  0  0  0
 61140  1  0  0  0
 62141  1  0  0  0
 62142  1  0  0  0
 62143  1  0  0  0
 63 65  1  0  0  0
 63144  1  0  0  0
 63145  1  0  0  0
 63146  1  0  0  0
 64147  1  0  0  0
 65148  1  0  0  0
 68 82  1  0  0  0
 71 73  2  0  0  0
 71 76  1  0  0  0
 71149  1  0  0  0
 72 74  2  0  0  0
 72 75  1  0  0  0
 72150  1  0  0  0
 73 74  1  0  0  0
 73 81  1  0  0  0
 74 87  1  0  0  0
 75 76  2  0  0  0
 75 88  1  0  0  0
 76 89  1  0  0  0
 77 79  1  0  0  0
 77 81  1  0  0  0
 77151  1  0  0  0
 77152  1  0  0  0
 78 80  1  0  0  0
 78 81  1  0  0  0
 78153  1  0  0  0
 78154  1  0  0  0
 79 82  1  0  0  0
 79155  1  0  0  0
 79156  1  0  0  0
 80 82  1  0  0  0
 80157  1  0  0  0
 80158  1  0  0  0
 81159  1  0  0  0
 82160  1  0  0  0
 83 86  1  0  0  0
 83161  1  0  0  0
 83162  1  0  0  0
 83163  1  0  0  0
 84164  1  0  0  0
 84165  1  0  0  0
 84166  1  0  0  0
 84 87  1  0  0  0
 85 87  1  0  0  0
 85167  1  0  0  0
 85168  1  0  0  0
 85169  1  0  0  0
 86 89  1  0  0  0
 86170  1  0  0  0
 86171  1  0  0  0
 87172  1  0  0  0
 88173  1  0  0  0
M  ISO  4   1 100  68 101  82 101  88 100
M  END
> <chiral flag>
0

> <version>
0

> <s_m_source_file>
/data/baiqing/PycharmProjects/Reinvent-master-3.2/result/LINK_invent/BTK/process_docking_weight1_custom_sum_contain_oxygen_bond_distance_aromatic_linkinvent_7_9_3/rearranged_h_0154.sdf

> <i_m_source_file_index>
90

> <r_mmod_Potential_Energy-OPLS-2005>
125.114227294922

> <r_mmod_Stretch_Energy-OPLS-2005>
114.878036499023

> <r_mmod_Bend_Energy-OPLS-2005>
177.516967773438

> <r_mmod_Torsional_Energy-OPLS-2005>
260.923095703125

> <r_mmod_Improper_Torsional_Energy-OPLS-2005>
6.25549173355103

> <r_mmod_Van_der_Waal_Energy-OPLS-2005>
132.062957763672

> <r_mmod_Electrostatic_Energy-OPLS-2005>
-464.221130371094

> <r_mmod_Solvation_Energy-OPLS-2005>
-187.492752075195

> <b_mmod_Minimization_Converged-OPLS-2005>
0

> <r_mmod_RMS_Derivative-OPLS-2005>
1.16364228725433

$$$$
91
                    3D
 Structure written by MMmdl.
169178  0  0  1  0            999 V2000
  -30.7487  -14.7022   20.4843 C   0  0  0  0  0  0
  -30.4013  -12.4565   19.4558 C   0  0  0  0  0  0
  -29.4850  -12.5042   18.2199 C   0  0  0  0  0  0
  -28.0187  -12.3252   18.6480 C   0  0  0  0  0  0
  -27.6342  -13.2349   19.8456 C   0  0  2  0  0  0
  -28.6934  -13.2039   20.9730 C   0  0  0  0  0  0
  -25.2467  -13.8189   20.5729 C   0  0  0  0  0  0
  -24.1772  -13.0421   20.9222 C   0  0  0  0  0  0
  -24.6381  -11.6905   20.8776 C   0  0  0  0  0  0
  -23.9068  -10.4276   21.0410 C   0  0  0  0  0  0
  -24.3622   -9.4188   21.9186 C   0  0  0  0  0  0
  -23.6289   -8.2219   22.0747 C   0  0  0  0  0  0
  -22.4264   -8.0270   21.3547 C   0  0  0  0  0  0
  -21.9908   -9.0243   20.4650 C   0  0  0  0  0  0
  -22.7242  -10.2118   20.3055 C   0  0  0  0  0  0
  -21.6841   -6.0729   22.5278 C   0  0  0  0  0  0
  -21.4006   -6.5635   23.8216 C   0  0  0  0  0  0
  -21.3654   -5.6793   24.9179 C   0  0  0  0  0  0
  -21.6040   -4.3054   24.7228 C   0  0  0  0  0  0
  -21.8816   -3.8146   23.4354 C   0  0  0  0  0  0
  -21.9181   -4.6959   22.3405 C   0  0  0  0  0  0
  -22.7797  -13.5201   21.1858 C   0  0  0  0  0  0
  -22.1653   -4.2141   21.0985 F   0  0  0  0  0  0
  -21.5633   -3.4540   25.7744 F   0  0  0  0  0  0
  -29.9799  -13.5593   20.3604 N   0  0  0  0  0  0
  -26.2910  -12.9424   20.3337 N   0  0  0  0  0  0
  -25.9321  -11.6555   20.5806 N   0  0  0  0  0  0
  -22.0432  -12.8204   22.0423 N   0  0  0  0  0  0
  -25.4088  -15.1915   20.4141 N   0  0  0  0  0  0
  -31.9435  -14.5885   20.2004 O   0  0  0  0  0  0
  -21.6624   -6.8870   21.4237 O   0  0  0  0  0  0
  -22.3497  -14.5512   20.6706 O   0  0  0  0  0  0
  -24.6324  -31.8616   23.2067 C   0  0  0  0  0  0
  -25.9149  -32.4788   23.8396 C   0  0  1  0  0  0
  -27.1906  -27.2652   20.1013 C   0  0  0  0  0  0
  -25.5968  -33.8592   24.2316 N   0  0  0  0  0  0
  -23.4271  -30.4921   21.5537 C   0  0  2  0  0  0
  -24.8661  -28.9619   20.1083 C   0  0  0  0  0  0
  -22.7512  -29.4629   22.4935 C   0  0  0  0  0  0
  -18.0294  -28.1393   22.8474 C   0  0  0  0  0  0
  -24.1493  -36.7278   23.2630 C   0  0  0  0  0  0
  -25.9781  -30.7730   21.3913 C   0  0  0  0  0  0
  -26.0453  -29.4008   20.7249 C   0  0  0  0  0  0
  -27.2111  -28.5632   20.7204 C   0  0  0  0  0  0
  -25.9877  -26.9314   19.4245 C   0  0  0  0  0  0
  -24.8415  -27.7326   19.4508 C   0  0  0  0  0  0
  -23.6421  -29.8484   20.1641 C   0  0  0  0  0  0
  -25.4115  -36.3088   24.0340 C   0  0  1  0  0  0
  -20.5899  -28.3705   23.1269 C   0  0  2  0  0  0
  -20.6787  -26.9431   22.5400 C   0  0  0  0  0  0
  -19.5764  -26.6396   21.5210 C   0  0  0  0  0  0
  -18.1941  -26.7936   22.1614 C   0  0  0  0  0  0
  -19.1546  -28.8868   23.2865 C   0  0  0  0  0  0
  -18.9459  -30.1463   23.8895 C   0  0  0  0  0  0
  -17.6455  -30.6586   24.0561 C   0  0  0  0  0  0
  -25.9067  -34.9460   23.5123 C   0  0  0  0  0  0
  -16.5348  -29.9077   23.6333 C   0  0  0  0  0  0
  -16.7277  -28.6501   23.0345 C   0  0  0  0  0  0
  -26.4508  -31.6583   25.0766 C   0  0  0  0  0  0
  -25.3709  -31.3748   26.1471 C   0  0  0  0  0  0
  -27.0321  -30.2988   24.6251 C   0  0  0  0  0  0
  -27.6103  -32.4282   25.7520 C   0  0  0  0  0  0
  -27.5589  -37.1796   24.8457 C   0  0  0  0  0  0
  -21.4223  -29.3059   22.3665 N   0  0  0  0  0  0
  -26.4290  -37.3784   23.9418 N   0  0  0  0  0  0
  -24.6991  -31.0578   22.1065 N   0  0  0  0  0  0
  -23.4218  -28.8151   23.3010 O   0  0  0  0  0  0
  -28.2339  -26.2993   20.1787 O   0  0  0  0  0  0
  -26.5612  -34.8920   22.4673 O   0  0  0  0  0  0
  -23.5466  -32.1453   23.7341 O   0  0  0  0  0  0
  -28.9889  -23.0581   21.3107 C   0  0  0  0  0  0
  -28.4688  -22.5162   19.0537 C   0  0  0  0  0  0
  -29.2099  -20.6490   20.5432 C   0  0  0  0  0  0
  -28.5422  -23.5238   20.0535 C   0  0  0  0  0  0
  -29.3215  -21.6789   21.5496 C   0  0  0  0  0  0
  -28.7828  -21.1326   19.2580 C   0  0  0  0  0  0
  -28.4933  -17.9863   20.7426 C   0  0  0  0  0  0
  -30.8304  -18.5487   20.1676 C   0  0  0  0  0  0
  -28.9424  -16.5115   21.1517 C   0  0  0  0  0  0
  -31.2618  -17.1351   20.6800 C   0  0  0  0  0  0
  -29.5774  -19.1130   20.8678 C   0  0  0  0  0  0
  -29.7903  -21.3404   22.9562 C   0  0  0  0  0  0
  -29.5723  -20.6303   16.8943 C   0  0  0  0  0  0
  -27.1669  -20.1233   17.5585 C   0  0  0  0  0  0
  -27.8267  -24.9111   19.7750 C   0  0  0  0  0  0
  -28.6274  -20.2174   18.0361 C   0  0  0  0  0  0
  -30.2561  -16.0131   20.6427 N   0  0  0  0  0  0
  -31.4426  -12.5216   19.1336 H   0  0  0  0  0  0
  -30.3192  -11.4931   19.9612 H   0  0  0  0  0  0
  -29.7684  -11.7298   17.5053 H   0  0  0  0  0  0
  -29.6039  -13.4584   17.7046 H   0  0  0  0  0  0
  -27.8831  -11.2785   18.9219 H   0  0  0  0  0  0
  -27.3529  -12.5077   17.8039 H   0  0  0  0  0  0
  -27.6121  -14.2436   19.4360 H   0  0  0  0  0  0
  -28.7473  -12.2106   21.4212 H   0  0  0  0  0  0
  -28.4382  -13.8781   21.7903 H   0  0  0  0  0  0
  -25.2754   -9.5665   22.4778 H   0  0  0  0  0  0
  -23.9991   -7.4602   22.7464 H   0  0  0  0  0  0
  -21.0826   -8.8779   19.8965 H   0  0  0  0  0  0
  -22.3703  -10.9667   19.6175 H   0  0  0  0  0  0
  -21.2000   -7.6145   23.9731 H   0  0  0  0  0  0
  -21.1481   -6.0517   25.9092 H   0  0  0  0  0  0
  -22.0600   -2.7603   23.2855 H   0  0  0  0  0  0
  -22.4050  -11.9887   22.4837 H   0  0  0  0  0  0
  -21.1045  -13.1241   22.2586 H   0  0  0  0  0  0
  -24.6369  -15.8381   20.5381 H   0  0  0  0  0  0
  -26.2557  -15.6435   20.0969 H   0  0  0  0  0  0
  -26.7219  -32.5436   23.1144 H   0  0  0  0  0  0
  -25.0142  -33.9765   25.0476 H   0  0  0  0  0  0
  -22.7239  -31.3162   21.4194 H   0  0  0  0  0  0
  -23.3780  -35.9583   23.3280 H   0  0  0  0  0  0
  -24.3601  -36.8897   22.2048 H   0  0  0  0  0  0
  -23.7214  -37.6471   23.6637 H   0  0  0  0  0  0
  -26.1194  -31.5372   20.6252 H   0  0  0  0  0  0
  -26.8554  -30.8157   22.0246 H   0  0  0  0  0  0
  -28.1062  -28.8868   21.2341 H   0  0  0  0  0  0
  -25.8543  -26.0190   18.8658 H   0  0  0  0  0  0
  -23.9425  -27.3985   18.9503 H   0  0  0  0  0  0
  -23.7698  -30.6347   19.4196 H   0  0  0  0  0  0
  -22.7593  -29.2882   19.8526 H   0  0  0  0  0  0
  -25.1282  -36.1954   25.0833 H   0  0  0  0  0  0
  -20.9978  -28.3270   24.1394 H   0  0  0  0  0  0
  -20.5694  -26.2324   23.3602 H   0  0  0  0  0  0
  -21.6654  -26.7465   22.1194 H   0  0  0  0  0  0
  -19.6930  -25.6306   21.1250 H   0  0  0  0  0  0
  -19.6710  -27.3202   20.6737 H   0  0  0  0  0  0
  -17.4220  -26.6687   21.4005 H   0  0  0  0  0  0
  -18.0330  -26.0076   22.9005 H   0  0  0  0  0  0
  -19.7933  -30.7273   24.2278 H   0  0  0  0  0  0
  -17.5008  -31.6273   24.5151 H   0  0  0  0  0  0
  -15.5345  -30.2971   23.7677 H   0  0  0  0  0  0
  -15.8679  -28.0822   22.7052 H   0  0  0  0  0  0
  -24.5927  -30.7056   25.7779 H   0  0  0  0  0  0
  -24.8846  -32.2914   26.4818 H   0  0  0  0  0  0
  -25.7997  -30.8982   27.0295 H   0  0  0  0  0  0
  -26.2901  -29.6758   24.1246 H   0  0  0  0  0  0
  -27.3952  -29.7230   25.4770 H   0  0  0  0  0  0
  -27.8809  -30.4241   23.9528 H   0  0  0  0  0  0
  -27.2786  -33.3614   26.2075 H   0  0  0  0  0  0
  -28.3923  -32.6768   25.0332 H   0  0  0  0  0  0
  -28.0753  -31.8396   26.5440 H   0  0  0  0  0  0
  -28.2579  -38.0119   24.7538 H   0  0  0  0  0  0
  -28.1115  -36.2657   24.6226 H   0  0  0  0  0  0
  -27.2326  -37.1362   25.8863 H   0  0  0  0  0  0
  -20.9410  -29.8811   21.6895 H   0  0  0  0  0  0
  -26.0177  -38.2858   24.1428 H   0  0  0  0  0  0
  -29.0248  -23.7679   22.1260 H   0  0  0  0  0  0
  -28.0935  -22.8086   18.0829 H   0  0  0  0  0  0
  -27.6385  -18.2623   21.3631 H   0  0  0  0  0  0
  -28.0938  -17.9399   19.7321 H   0  0  0  0  0  0
  -30.7119  -18.5070   19.0877 H   0  0  0  0  0  0
  -31.6599  -19.2401   20.3325 H   0  0  0  0  0  0
  -28.1467  -15.8452   20.8394 H   0  0  0  0  0  0
  -28.9783  -16.4427   22.2405 H   0  0  0  0  0  0
  -31.6127  -17.2246   21.7102 H   0  0  0  0  0  0
  -32.1540  -16.9062   20.0936 H   0  0  0  0  0  0
  -29.8342  -19.0774   21.9238 H   0  0  0  0  0  0
  -29.8420  -22.2271   23.5890 H   0  0  0  0  0  0
  -30.7891  -20.9042   22.9269 H   0  0  0  0  0  0
  -29.1088  -20.6366   23.4359 H   0  0  0  0  0  0
  -30.6099  -20.6341   17.2297 H   0  0  0  0  0  0
  -29.3427  -21.6228   16.5071 H   0  0  0  0  0  0
  -29.5059  -19.9308   16.0603 H   0  0  0  0  0  0
  -26.5174  -19.7357   18.3447 H   0  0  0  0  0  0
  -27.0793  -19.4462   16.7075 H   0  0  0  0  0  0
  -26.7711  -21.0892   17.2457 H   0  0  0  0  0  0
  -26.8539  -24.7124   20.2273 H   0  0  0  0  0  0
  -27.6866  -24.9458   18.6933 H   0  0  0  0  0  0
  -28.9131  -19.2058   18.2844 H   0  0  0  0  0  0
  1 25  1  0  0  0
  1 30  2  0  0  0
  1 87  1  0  0  0
  2  3  1  0  0  0
  2 25  1  0  0  0
  2 88  1  0  0  0
  2 89  1  0  0  0
  3  4  1  0  0  0
  3 90  1  0  0  0
  3 91  1  0  0  0
  4  5  1  0  0  0
  4 92  1  0  0  0
  4 93  1  0  0  0
  5  6  1  0  0  0
  5 26  1  0  0  0
  5 94  1  0  0  0
  6 25  1  0  0  0
  6 95  1  0  0  0
  6 96  1  0  0  0
  7  8  2  0  0  0
  7 26  1  0  0  0
  7 29  1  0  0  0
  8  9  1  0  0  0
  8 22  1  0  0  0
  9 10  1  0  0  0
  9 27  2  0  0  0
 10 11  2  0  0  0
 10 15  1  0  0  0
 11 12  1  0  0  0
 11 97  1  0  0  0
 12 13  2  0  0  0
 12 98  1  0  0  0
 13 14  1  0  0  0
 13 31  1  0  0  0
 14 15  2  0  0  0
 14 99  1  0  0  0
 15100  1  0  0  0
 16 17  2  0  0  0
 16 21  1  0  0  0
 16 31  1  0  0  0
 17 18  1  0  0  0
 17101  1  0  0  0
 18 19  2  0  0  0
 18102  1  0  0  0
 19 20  1  0  0  0
 19 24  1  0  0  0
 20 21  2  0  0  0
 20103  1  0  0  0
 21 23  1  0  0  0
 22 28  1  0  0  0
 22 32  2  0  0  0
 26 27  1  0  0  0
 28104  1  0  0  0
 28105  1  0  0  0
 29106  1  0  0  0
 29107  1  0  0  0
 33 34  1  0  0  0
 33 66  1  0  0  0
 33 70  2  0  0  0
 34 36  1  0  0  0
 34 59  1  0  0  0
 34108  1  0  0  0
 35 44  2  0  0  0
 35 45  1  0  0  0
 35 68  1  0  0  0
 36 56  1  0  0  0
 36109  1  0  0  0
 37 39  1  0  0  0
 37 47  1  0  0  0
 37 66  1  0  0  0
 37110  1  0  0  0
 38 43  2  0  0  0
 38 46  1  0  0  0
 38 47  1  0  0  0
 39 64  1  0  0  0
 39 67  2  0  0  0
 40 52  1  0  0  0
 40 53  2  0  0  0
 40 58  1  0  0  0
 41111  1  0  0  0
 41112  1  0  0  0
 41113  1  0  0  0
 41 48  1  0  0  0
 42 43  1  0  0  0
 42 66  1  0  0  0
 42114  1  0  0  0
 42115  1  0  0  0
 43 44  1  0  0  0
 44116  1  0  0  0
 45 46  2  0  0  0
 45117  1  0  0  0
 46118  1  0  0  0
 47119  1  0  0  0
 47120  1  0  0  0
 48 56  1  0  0  0
 48 65  1  0  0  0
 48121  1  0  0  0
 49 50  1  0  0  0
 49 53  1  0  0  0
 49 64  1  0  0  0
 49122  1  0  0  0
 50 51  1  0  0  0
 50123  1  0  0  0
 50124  1  0  0  0
 51 52  1  0  0  0
 51125  1  0  0  0
 51126  1  0  0  0
 52127  1  0  0  0
 52128  1  0  0  0
 53 54  1  0  0  0
 54 55  2  0  0  0
 54129  1  0  0  0
 55 57  1  0  0  0
 55130  1  0  0  0
 56 69  2  0  0  0
 57 58  2  0  0  0
 57131  1  0  0  0
 58132  1  0  0  0
 59 60  1  0  0  0
 59 61  1  0  0  0
 59 62  1  0  0  0
 60133  1  0  0  0
 60134  1  0  0  0
 60135  1  0  0  0
 61136  1  0  0  0
 61137  1  0  0  0
 61138  1  0  0  0
 62139  1  0  0  0
 62140  1  0  0  0
 62141  1  0  0  0
 63 65  1  0  0  0
 63142  1  0  0  0
 63143  1  0  0  0
 63144  1  0  0  0
 64145  1  0  0  0
 65146  1  0  0  0
 68 85  1  0  0  0
 71 74  2  0  0  0
 71 75  1  0  0  0
 71147  1  0  0  0
 72 74  1  0  0  0
 72 76  2  0  0  0
 72148  1  0  0  0
 73 75  2  0  0  0
 73 76  1  0  0  0
 73 81  1  0  0  0
 74 85  1  0  0  0
 75 82  1  0  0  0
 76 86  1  0  0  0
 77 79  1  0  0  0
 77 81  1  0  0  0
 77149  1  0  0  0
 77150  1  0  0  0
 78 80  1  0  0  0
 78 81  1  0  0  0
 78151  1  0  0  0
 78152  1  0  0  0
 79 87  1  0  0  0
 79153  1  0  0  0
 79154  1  0  0  0
 80 87  1  0  0  0
 80155  1  0  0  0
 80156  1  0  0  0
 81157  1  0  0  0
 82158  1  0  0  0
 82159  1  0  0  0
 82160  1  0  0  0
 83161  1  0  0  0
 83162  1  0  0  0
 83163  1  0  0  0
 83 86  1  0  0  0
 84 86  1  0  0  0
 84164  1  0  0  0
 84165  1  0  0  0
 84166  1  0  0  0
 85167  1  0  0  0
 85168  1  0  0  0
 86169  1  0  0  0
M  ISO  4   1 100  68 101  85 101  87 100
M  END
> <chiral flag>
0

> <version>
0

> <s_m_source_file>
/data/baiqing/PycharmProjects/Reinvent-master-3.2/result/LINK_invent/BTK/process_docking_weight1_custom_sum_contain_oxygen_bond_distance_aromatic_linkinvent_7_9_3/rearranged_h_0154.sdf

> <i_m_source_file_index>
91

> <r_mmod_Potential_Energy-OPLS-2005>
450.473724365234

> <r_mmod_Stretch_Energy-OPLS-2005>
120.954879760742

> <r_mmod_Bend_Energy-OPLS-2005>
234.386840820312

> <r_mmod_Torsional_Energy-OPLS-2005>
307.750213623047

> <r_mmod_Improper_Torsional_Energy-OPLS-2005>
9.4916524887085

> <r_mmod_Van_der_Waal_Energy-OPLS-2005>
177.670532226562

> <r_mmod_Electrostatic_Energy-OPLS-2005>
-300.647796630859

> <r_mmod_Solvation_Energy-OPLS-2005>
-193.515106201172

> <b_mmod_Minimization_Converged-OPLS-2005>
0

> <r_mmod_RMS_Derivative-OPLS-2005>
2.04693841934204

$$$$
92
                    3D
 Structure written by MMmdl.
163172  0  0  1  0            999 V2000
  -30.6451  -14.7386   20.4528 C   0  0  0  0  0  0
  -30.4224  -12.4521   19.4739 C   0  0  0  0  0  0
  -29.5058  -12.4960   18.2337 C   0  0  0  0  0  0
  -28.0322  -12.3300   18.6500 C   0  0  0  0  0  0
  -27.6377  -13.2393   19.8457 C   0  0  2  0  0  0
  -28.6834  -13.1995   20.9799 C   0  0  0  0  0  0
  -25.2502  -13.8222   20.5719 C   0  0  0  0  0  0
  -24.1795  -13.0453   20.9207 C   0  0  0  0  0  0
  -24.6396  -11.6934   20.8748 C   0  0  0  0  0  0
  -23.9078  -10.4302   21.0405 C   0  0  0  0  0  0
  -24.3628   -9.4214   21.9180 C   0  0  0  0  0  0
  -23.6299   -8.2251   22.0754 C   0  0  0  0  0  0
  -22.4279   -8.0290   21.3547 C   0  0  0  0  0  0
  -21.9914   -9.0265   20.4650 C   0  0  0  0  0  0
  -22.7248  -10.2142   20.3056 C   0  0  0  0  0  0
  -21.6858   -6.0738   22.5279 C   0  0  0  0  0  0
  -21.4022   -6.5642   23.8214 C   0  0  0  0  0  0
  -21.3659   -5.6793   24.9175 C   0  0  0  0  0  0
  -21.6043   -4.3056   24.7223 C   0  0  0  0  0  0
  -21.8820   -3.8149   23.4344 C   0  0  0  0  0  0
  -21.9195   -4.6965   22.3399 C   0  0  0  0  0  0
  -22.7814  -13.5225   21.1863 C   0  0  0  0  0  0
  -22.1661   -4.2152   21.0976 F   0  0  0  0  0  0
  -21.5623   -3.4538   25.7736 F   0  0  0  0  0  0
  -29.9786  -13.5352   20.3823 N   0  0  0  0  0  0
  -26.2929  -12.9442   20.3289 N   0  0  0  0  0  0
  -25.9332  -11.6576   20.5763 N   0  0  0  0  0  0
  -22.0463  -12.8216   22.0421 N   0  0  0  0  0  0
  -25.4208  -15.1949   20.4181 N   0  0  0  0  0  0
  -31.8496  -14.7681   20.1803 O   0  0  0  0  0  0
  -21.6644   -6.8885   21.4242 O   0  0  0  0  0  0
  -22.3491  -14.5523   20.6704 O   0  0  0  0  0  0
  -24.6327  -31.8549   23.1982 C   0  0  0  0  0  0
  -25.9151  -32.4750   23.8327 C   0  0  1  0  0  0
  -27.2148  -27.2515   20.1132 C   0  0  0  0  0  0
  -25.5943  -33.8553   24.2250 N   0  0  0  0  0  0
  -23.4284  -30.4799   21.5425 C   0  0  2  0  0  0
  -24.8723  -28.9288   20.1072 C   0  0  0  0  0  0
  -22.7507  -29.4605   22.4905 C   0  0  0  0  0  0
  -18.0296  -28.1390   22.8476 C   0  0  0  0  0  0
  -24.1492  -36.7282   23.2637 C   0  0  0  0  0  0
  -25.9765  -30.7636   21.3798 C   0  0  0  0  0  0
  -26.0458  -29.3870   20.7178 C   0  0  0  0  0  0
  -27.2156  -28.5588   20.7143 C   0  0  0  0  0  0
  -26.0066  -26.8604   19.4898 C   0  0  0  0  0  0
  -24.8582  -27.6733   19.4857 C   0  0  0  0  0  0
  -23.6453  -29.8180   20.1570 C   0  0  0  0  0  0
  -25.4118  -36.3068   24.0324 C   0  0  1  0  0  0
  -20.5899  -28.3702   23.1263 C   0  0  2  0  0  0
  -20.6783  -26.9417   22.5409 C   0  0  0  0  0  0
  -19.5763  -26.6384   21.5207 C   0  0  0  0  0  0
  -18.1942  -26.7931   22.1617 C   0  0  0  0  0  0
  -19.1549  -28.8863   23.2866 C   0  0  0  0  0  0
  -18.9470  -30.1460   23.8891 C   0  0  0  0  0  0
  -17.6468  -30.6585   24.0565 C   0  0  0  0  0  0
  -25.9060  -34.9438   23.5091 C   0  0  0  0  0  0
  -16.5360  -29.9083   23.6330 C   0  0  0  0  0  0
  -16.7282  -28.6503   23.0347 C   0  0  0  0  0  0
  -26.4505  -31.6577   25.0723 C   0  0  0  0  0  0
  -25.3717  -31.3741   26.1437 C   0  0  0  0  0  0
  -27.0349  -30.2988   24.6226 C   0  0  0  0  0  0
  -27.6060  -32.4317   25.7497 C   0  0  0  0  0  0
  -27.5582  -37.1799   24.8458 C   0  0  0  0  0  0
  -21.4213  -29.3046   22.3647 N   0  0  0  0  0  0
  -26.4290  -37.3769   23.9406 N   0  0  0  0  0  0
  -24.6987  -31.0506   22.0962 N   0  0  0  0  0  0
  -23.4204  -28.8144   23.3005 O   0  0  0  0  0  0
  -28.3122  -26.3567   20.2026 O   0  0  0  0  0  0
  -26.5634  -34.8915   22.4661 O   0  0  0  0  0  0
  -23.5477  -32.1379   23.7272 O   0  0  0  0  0  0
  -28.0024  -21.1716   20.0469 C   0  0  0  0  0  0
  -30.2599  -21.7501   20.5236 C   0  0  0  0  0  0
  -29.3110  -20.7009   20.3459 C   0  0  0  0  0  0
  -27.6865  -22.5675   19.8633 C   0  0  0  0  0  0
  -29.9647  -23.1461   20.3397 C   0  0  0  0  0  0
  -28.6675  -23.6136   19.9606 C   0  0  0  0  0  0
  -29.3467  -18.2790   21.6338 C   0  0  0  0  0  0
  -29.3586  -18.2322   19.2285 C   0  0  0  0  0  0
  -30.0019  -16.8244   21.6826 C   0  0  0  0  0  0
  -30.0485  -16.8060   19.2483 C   0  0  0  0  0  0
  -29.7509  -19.1549   20.4117 C   0  0  0  0  0  0
  -26.2556  -22.9177   19.4954 C   0  0  0  0  0  0
  -31.1036  -24.1394   20.4880 C   0  0  0  0  0  0
  -28.4114  -25.0990   19.3875 C   0  0  0  0  0  0
  -29.9278  -15.9438   20.4714 N   0  0  0  0  0  0
  -31.4653  -12.5590   19.1704 H   0  0  0  0  0  0
  -30.3560  -11.4843   19.9731 H   0  0  0  0  0  0
  -29.7852  -11.7114   17.5291 H   0  0  0  0  0  0
  -29.6384  -13.4428   17.7076 H   0  0  0  0  0  0
  -27.8867  -11.2834   18.9192 H   0  0  0  0  0  0
  -27.3755  -12.5185   17.7998 H   0  0  0  0  0  0
  -27.6256  -14.2574   19.4555 H   0  0  0  0  0  0
  -28.7184  -12.2159   21.4500 H   0  0  0  0  0  0
  -28.4246  -13.9133   21.7641 H   0  0  0  0  0  0
  -25.2776   -9.5685   22.4750 H   0  0  0  0  0  0
  -24.0011   -7.4639   22.7470 H   0  0  0  0  0  0
  -21.0844   -8.8788   19.8954 H   0  0  0  0  0  0
  -22.3711  -10.9681   19.6162 H   0  0  0  0  0  0
  -21.2023   -7.6151   23.9720 H   0  0  0  0  0  0
  -21.1477   -6.0522   25.9078 H   0  0  0  0  0  0
  -22.0597   -2.7610   23.2845 H   0  0  0  0  0  0
  -22.4089  -11.9888   22.4823 H   0  0  0  0  0  0
  -21.1074  -13.1232   22.2615 H   0  0  0  0  0  0
  -24.6606  -15.8539   20.5454 H   0  0  0  0  0  0
  -26.2867  -15.6378   20.1367 H   0  0  0  0  0  0
  -26.7213  -32.5391   23.1061 H   0  0  0  0  0  0
  -25.0075  -33.9685   25.0388 H   0  0  0  0  0  0
  -22.7253  -31.3031   21.3990 H   0  0  0  0  0  0
  -23.3758  -35.9609   23.3287 H   0  0  0  0  0  0
  -24.3586  -36.8919   22.2054 H   0  0  0  0  0  0
  -23.7239  -37.6476   23.6671 H   0  0  0  0  0  0
  -26.1192  -31.5255   20.6122 H   0  0  0  0  0  0
  -26.8528  -30.8090   22.0149 H   0  0  0  0  0  0
  -28.1122  -28.9030   21.2106 H   0  0  0  0  0  0
  -25.8824  -25.8932   19.0341 H   0  0  0  0  0  0
  -23.9541  -27.3111   19.0159 H   0  0  0  0  0  0
  -23.7725  -30.5966   19.4039 H   0  0  0  0  0  0
  -22.7617  -29.2555   19.8495 H   0  0  0  0  0  0
  -25.1299  -36.1914   25.0816 H   0  0  0  0  0  0
  -20.9994  -28.3287   24.1382 H   0  0  0  0  0  0
  -20.5674  -26.2313   23.3614 H   0  0  0  0  0  0
  -21.6656  -26.7435   22.1214 H   0  0  0  0  0  0
  -19.6926  -25.6293   21.1240 H   0  0  0  0  0  0
  -19.6700  -27.3189   20.6733 H   0  0  0  0  0  0
  -17.4211  -26.6676   21.4020 H   0  0  0  0  0  0
  -18.0341  -26.0074   22.9014 H   0  0  0  0  0  0
  -19.7946  -30.7277   24.2258 H   0  0  0  0  0  0
  -17.5022  -31.6262   24.5172 H   0  0  0  0  0  0
  -15.5361  -30.2982   23.7657 H   0  0  0  0  0  0
  -15.8683  -28.0819   22.7063 H   0  0  0  0  0  0
  -24.5905  -30.7071   25.7771 H   0  0  0  0  0  0
  -24.8890  -32.2913   26.4821 H   0  0  0  0  0  0
  -25.8024  -30.8953   27.0239 H   0  0  0  0  0  0
  -26.2938  -29.6735   24.1231 H   0  0  0  0  0  0
  -27.3996  -29.7253   25.4757 H   0  0  0  0  0  0
  -27.8831  -30.4249   23.9494 H   0  0  0  0  0  0
  -27.2671  -33.3623   26.2060 H   0  0  0  0  0  0
  -28.3877  -32.6863   25.0329 H   0  0  0  0  0  0
  -28.0717  -31.8448   26.5423 H   0  0  0  0  0  0
  -28.2592  -38.0104   24.7513 H   0  0  0  0  0  0
  -28.1089  -36.2636   24.6270 H   0  0  0  0  0  0
  -27.2307  -37.1433   25.8863 H   0  0  0  0  0  0
  -20.9398  -29.8767   21.6851 H   0  0  0  0  0  0
  -26.0168  -38.2843   24.1409 H   0  0  0  0  0  0
  -27.2221  -20.4354   19.9100 H   0  0  0  0  0  0
  -31.2772  -21.4725   20.7635 H   0  0  0  0  0  0
  -29.6158  -18.8087   22.5481 H   0  0  0  0  0  0
  -28.2603  -18.1847   21.6621 H   0  0  0  0  0  0
  -28.2747  -18.1138   19.1990 H   0  0  0  0  0  0
  -29.6253  -18.7291   18.2950 H   0  0  0  0  0  0
  -29.5670  -16.2768   22.5203 H   0  0  0  0  0  0
  -31.0579  -16.9447   21.9329 H   0  0  0  0  0  0
  -31.1100  -16.9620   19.0456 H   0  0  0  0  0  0
  -29.6752  -16.2326   18.3978 H   0  0  0  0  0  0
  -30.8413  -19.1902   20.4150 H   0  0  0  0  0  0
  -25.5784  -22.0857   19.6900 H   0  0  0  0  0  0
  -26.1795  -23.1707   18.4378 H   0  0  0  0  0  0
  -25.9047  -23.7654   20.0840 H   0  0  0  0  0  0
  -31.9131  -23.7283   21.0919 H   0  0  0  0  0  0
  -30.7639  -25.0537   20.9757 H   0  0  0  0  0  0
  -31.5106  -24.4009   19.5109 H   0  0  0  0  0  0
  -27.6553  -25.0364   18.6124 H   0  0  0  0  0  0
  -29.2931  -25.2918   18.7767 H   0  0  0  0  0  0
  1 25  1  0  0  0
  1 30  2  0  0  0
  1 85  1  0  0  0
  2  3  1  0  0  0
  2 25  1  0  0  0
  2 86  1  0  0  0
  2 87  1  0  0  0
  3  4  1  0  0  0
  3 88  1  0  0  0
  3 89  1  0  0  0
  4  5  1  0  0  0
  4 90  1  0  0  0
  4 91  1  0  0  0
  5  6  1  0  0  0
  5 26  1  0  0  0
  5 92  1  0  0  0
  6 25  1  0  0  0
  6 93  1  0  0  0
  6 94  1  0  0  0
  7  8  2  0  0  0
  7 26  1  0  0  0
  7 29  1  0  0  0
  8  9  1  0  0  0
  8 22  1  0  0  0
  9 10  1  0  0  0
  9 27  2  0  0  0
 10 11  2  0  0  0
 10 15  1  0  0  0
 11 12  1  0  0  0
 11 95  1  0  0  0
 12 13  2  0  0  0
 12 96  1  0  0  0
 13 14  1  0  0  0
 13 31  1  0  0  0
 14 15  2  0  0  0
 14 97  1  0  0  0
 15 98  1  0  0  0
 16 17  2  0  0  0
 16 21  1  0  0  0
 16 31  1  0  0  0
 17 18  1  0  0  0
 17 99  1  0  0  0
 18 19  2  0  0  0
 18100  1  0  0  0
 19 20  1  0  0  0
 19 24  1  0  0  0
 20 21  2  0  0  0
 20101  1  0  0  0
 21 23  1  0  0  0
 22 28  1  0  0  0
 22 32  2  0  0  0
 26 27  1  0  0  0
 28102  1  0  0  0
 28103  1  0  0  0
 29104  1  0  0  0
 29105  1  0  0  0
 33 34  1  0  0  0
 33 66  1  0  0  0
 33 70  2  0  0  0
 34 36  1  0  0  0
 34 59  1  0  0  0
 34106  1  0  0  0
 35 44  2  0  0  0
 35 45  1  0  0  0
 35 68  1  0  0  0
 36 56  1  0  0  0
 36107  1  0  0  0
 37 39  1  0  0  0
 37 47  1  0  0  0
 37 66  1  0  0  0
 37108  1  0  0  0
 38 43  2  0  0  0
 38 46  1  0  0  0
 38 47  1  0  0  0
 39 64  1  0  0  0
 39 67  2  0  0  0
 40 52  1  0  0  0
 40 53  2  0  0  0
 40 58  1  0  0  0
 41109  1  0  0  0
 41110  1  0  0  0
 41111  1  0  0  0
 41 48  1  0  0  0
 42 43  1  0  0  0
 42 66  1  0  0  0
 42112  1  0  0  0
 42113  1  0  0  0
 43 44  1  0  0  0
 44114  1  0  0  0
 45 46  2  0  0  0
 45115  1  0  0  0
 46116  1  0  0  0
 47117  1  0  0  0
 47118  1  0  0  0
 48 56  1  0  0  0
 48 65  1  0  0  0
 48119  1  0  0  0
 49 50  1  0  0  0
 49 53  1  0  0  0
 49 64  1  0  0  0
 49120  1  0  0  0
 50 51  1  0  0  0
 50121  1  0  0  0
 50122  1  0  0  0
 51 52  1  0  0  0
 51123  1  0  0  0
 51124  1  0  0  0
 52125  1  0  0  0
 52126  1  0  0  0
 53 54  1  0  0  0
 54 55  2  0  0  0
 54127  1  0  0  0
 55 57  1  0  0  0
 55128  1  0  0  0
 56 69  2  0  0  0
 57 58  2  0  0  0
 57129  1  0  0  0
 58130  1  0  0  0
 59 60  1  0  0  0
 59 61  1  0  0  0
 59 62  1  0  0  0
 60131  1  0  0  0
 60132  1  0  0  0
 60133  1  0  0  0
 61134  1  0  0  0
 61135  1  0  0  0
 61136  1  0  0  0
 62137  1  0  0  0
 62138  1  0  0  0
 62139  1  0  0  0
 63 65  1  0  0  0
 63140  1  0  0  0
 63141  1  0  0  0
 63142  1  0  0  0
 64143  1  0  0  0
 65144  1  0  0  0
 68 84  1  0  0  0
 71 73  2  0  0  0
 71 74  1  0  0  0
 71145  1  0  0  0
 72 73  1  0  0  0
 72 75  2  0  0  0
 72146  1  0  0  0
 73 81  1  0  0  0
 74 76  2  0  0  0
 74 82  1  0  0  0
 75 76  1  0  0  0
 75 83  1  0  0  0
 76 84  1  0  0  0
 77 79  1  0  0  0
 77 81  1  0  0  0
 77147  1  0  0  0
 77148  1  0  0  0
 78 80  1  0  0  0
 78 81  1  0  0  0
 78149  1  0  0  0
 78150  1  0  0  0
 79 85  1  0  0  0
 79151  1  0  0  0
 79152  1  0  0  0
 80 85  1  0  0  0
 80153  1  0  0  0
 80154  1  0  0  0
 81155  1  0  0  0
 82156  1  0  0  0
 82157  1  0  0  0
 82158  1  0  0  0
 83159  1  0  0  0
 83160  1  0  0  0
 83161  1  0  0  0
 84162  1  0  0  0
 84163  1  0  0  0
M  ISO  4   1 100  68 101  84 101  85 100
M  END
> <chiral flag>
0

> <version>
0

> <s_m_source_file>
/data/baiqing/PycharmProjects/Reinvent-master-3.2/result/LINK_invent/BTK/process_docking_weight1_custom_sum_contain_oxygen_bond_distance_aromatic_linkinvent_7_9_3/rearranged_h_0154.sdf

> <i_m_source_file_index>
92

> <r_mmod_Potential_Energy-OPLS-2005>
451.501251220703

> <r_mmod_Stretch_Energy-OPLS-2005>
122.568725585938

> <r_mmod_Bend_Energy-OPLS-2005>
201.707717895508

> <r_mmod_Torsional_Energy-OPLS-2005>
343.076843261719

> <r_mmod_Improper_Torsional_Energy-OPLS-2005>
15.8860492706299

> <r_mmod_Van_der_Waal_Energy-OPLS-2005>
141.461639404297

> <r_mmod_Electrostatic_Energy-OPLS-2005>
-275.074920654297

> <r_mmod_Solvation_Energy-OPLS-2005>
-187.976272583008

> <b_mmod_Minimization_Converged-OPLS-2005>
0

> <r_mmod_RMS_Derivative-OPLS-2005>
0.564791142940521

$$$$
93
                    3D
 Structure written by MMmdl.
168178  0  0  1  0            999 V2000
  -30.7235  -14.4595   20.5556 C   0  0  0  0  0  0
  -30.4136  -12.2919   19.4286 C   0  0  0  0  0  0
  -29.4921  -12.4844   18.2076 C   0  0  0  0  0  0
  -28.0112  -12.3643   18.6170 C   0  0  0  0  0  0
  -27.6581  -13.2089   19.8703 C   0  0  2  0  0  0
  -28.7001  -13.0132   20.9933 C   0  0  0  0  0  0
  -25.2579  -13.8167   20.5693 C   0  0  0  0  0  0
  -24.1825  -13.0441   20.9162 C   0  0  0  0  0  0
  -24.6382  -11.6907   20.8738 C   0  0  0  0  0  0
  -23.9053  -10.4289   21.0410 C   0  0  0  0  0  0
  -24.3615   -9.4201   21.9181 C   0  0  0  0  0  0
  -23.6285   -8.2238   22.0757 C   0  0  0  0  0  0
  -22.4264   -8.0280   21.3550 C   0  0  0  0  0  0
  -21.9890   -9.0256   20.4653 C   0  0  0  0  0  0
  -22.7225  -10.2130   20.3059 C   0  0  0  0  0  0
  -21.6847   -6.0734   22.5276 C   0  0  0  0  0  0
  -21.4021   -6.5638   23.8212 C   0  0  0  0  0  0
  -21.3663   -5.6789   24.9172 C   0  0  0  0  0  0
  -21.6037   -4.3051   24.7219 C   0  0  0  0  0  0
  -21.8822   -3.8143   23.4341 C   0  0  0  0  0  0
  -21.9189   -4.6961   22.3398 C   0  0  0  0  0  0
  -22.7844  -13.5243   21.1817 C   0  0  0  0  0  0
  -22.1659   -4.2148   21.0976 F   0  0  0  0  0  0
  -21.5622   -3.4533   25.7734 F   0  0  0  0  0  0
  -30.0281  -13.2978   20.4309 N   0  0  0  0  0  0
  -26.3009  -12.9340   20.3350 N   0  0  0  0  0  0
  -25.9310  -11.6495   20.5753 N   0  0  0  0  0  0
  -22.0492  -12.8261   22.0396 N   0  0  0  0  0  0
  -25.4303  -15.1883   20.4167 N   0  0  0  0  0  0
  -31.8753  -14.5914   20.1284 O   0  0  0  0  0  0
  -21.6630   -6.8878   21.4240 O   0  0  0  0  0  0
  -22.3527  -14.5546   20.6653 O   0  0  0  0  0  0
  -24.6142  -31.8712   23.2153 C   0  0  0  0  0  0
  -25.9051  -32.4836   23.8438 C   0  0  1  0  0  0
  -27.2196  -27.4419   20.0844 C   0  0  0  0  0  0
  -25.5915  -33.8636   24.2359 N   0  0  0  0  0  0
  -23.3992  -30.4997   21.5572 C   0  0  2  0  0  0
  -24.8400  -28.9732   20.1127 C   0  0  0  0  0  0
  -22.7412  -29.4677   22.5015 C   0  0  0  0  0  0
  -18.0271  -28.1385   22.8500 C   0  0  0  0  0  0
  -24.1482  -36.7326   23.2644 C   0  0  0  0  0  0
  -25.9302  -30.8367   21.3708 C   0  0  0  0  0  0
  -26.0026  -29.4752   20.7115 C   0  0  0  0  0  0
  -27.1942  -28.7156   20.6961 C   0  0  0  0  0  0
  -26.0401  -26.9666   19.4630 C   0  0  0  0  0  0
  -24.8535  -27.7177   19.4868 C   0  0  0  0  0  0
  -23.6047  -29.8414   20.1688 C   0  0  0  0  0  0
  -25.4108  -36.3129   24.0341 C   0  0  1  0  0  0
  -20.5866  -28.3663   23.1332 C   0  0  2  0  0  0
  -20.6758  -26.9401   22.5427 C   0  0  0  0  0  0
  -19.5732  -26.6393   21.5226 C   0  0  0  0  0  0
  -18.1911  -26.7940   22.1629 C   0  0  0  0  0  0
  -19.1528  -28.8845   23.2910 C   0  0  0  0  0  0
  -18.9453  -30.1454   23.8908 C   0  0  0  0  0  0
  -17.6457  -30.6586   24.0586 C   0  0  0  0  0  0
  -25.9035  -34.9484   23.5146 C   0  0  0  0  0  0
  -16.5346  -29.9091   23.6341 C   0  0  0  0  0  0
  -16.7266  -28.6519   23.0349 C   0  0  0  0  0  0
  -26.4487  -31.6611   25.0757 C   0  0  0  0  0  0
  -25.3755  -31.3696   26.1512 C   0  0  0  0  0  0
  -27.0349  -30.3065   24.6141 C   0  0  0  0  0  0
  -27.6080  -32.4337   25.7482 C   0  0  0  0  0  0
  -27.5585  -37.1821   24.8462 C   0  0  0  0  0  0
  -21.4149  -29.3033   22.3739 N   0  0  0  0  0  0
  -26.4303  -37.3811   23.9407 N   0  0  0  0  0  0
  -24.6658  -31.0832   22.1052 N   0  0  0  0  0  0
  -23.4196  -28.8223   23.3049 O   0  0  0  0  0  0
  -28.3851  -26.7022   20.1180 O   0  0  0  0  0  0
  -26.5594  -34.8925   22.4703 O   0  0  0  0  0  0
  -23.5337  -32.1472   23.7545 O   0  0  0  0  0  0
  -30.8899  -22.6770   22.2261 C   0  0  0  0  0  0
  -29.7220  -20.8616   21.1105 C   0  0  0  0  0  0
  -31.7382  -21.7579   22.8743 C   0  0  0  0  0  0
  -30.5722  -19.9082   21.7262 C   0  0  0  0  0  0
  -29.8889  -22.2463   21.3281 C   0  0  0  0  0  0
  -31.5893  -20.3750   22.6026 C   0  0  0  0  0  0
  -33.1979  -23.6979   24.0107 C   0  0  0  0  0  0
  -34.1318  -22.7214   23.3382 C   0  0  0  0  0  0
  -29.8867  -17.5453   22.5401 C   0  0  0  0  0  0
  -29.6209  -18.0315   20.1814 C   0  0  0  0  0  0
  -30.1486  -16.0416   22.2914 C   0  0  0  0  0  0
  -29.8012  -16.5474   19.7924 C   0  0  0  0  0  0
  -32.7898  -22.2447   23.8423 C   0  0  0  0  0  0
  -30.4618  -18.4042   21.4064 C   0  0  0  0  0  0
  -28.2594  -25.2839   19.9401 C   0  0  0  0  0  0
  -29.3287  -24.5192   20.7272 C   0  0  0  0  0  0
  -30.0066  -15.5637   20.8939 N   0  0  0  0  0  0
  -29.0636  -23.1144   20.6419 O   0  0  0  0  0  0
  -32.6890  -19.2557   23.3413 Cl  0  0  0  0  0  0
  -31.4598  -12.3695   19.1282 H   0  0  0  0  0  0
  -30.2981  -11.2895   19.8436 H   0  0  0  0  0  0
  -29.7270  -11.7448   17.4409 H   0  0  0  0  0  0
  -29.6713  -13.4614   17.7548 H   0  0  0  0  0  0
  -27.8089  -11.3115   18.8134 H   0  0  0  0  0  0
  -27.3661  -12.6468   17.7834 H   0  0  0  0  0  0
  -27.6952  -14.2531   19.5636 H   0  0  0  0  0  0
  -28.6720  -11.9905   21.3710 H   0  0  0  0  0  0
  -28.4690  -13.6560   21.8434 H   0  0  0  0  0  0
  -25.2772   -9.5659   22.4741 H   0  0  0  0  0  0
  -23.9995   -7.4622   22.7478 H   0  0  0  0  0  0
  -21.0811   -8.8785   19.8961 H   0  0  0  0  0  0
  -22.3698  -10.9674   19.6163 H   0  0  0  0  0  0
  -21.2036   -7.6149   23.9716 H   0  0  0  0  0  0
  -21.1475   -6.0518   25.9075 H   0  0  0  0  0  0
  -22.0598   -2.7602   23.2834 H   0  0  0  0  0  0
  -22.4119  -11.9947   22.4820 H   0  0  0  0  0  0
  -21.1113  -13.1293   22.2614 H   0  0  0  0  0  0
  -24.6685  -15.8470   20.5426 H   0  0  0  0  0  0
  -26.2970  -15.6311   20.1397 H   0  0  0  0  0  0
  -26.7117  -32.5539   23.1194 H   0  0  0  0  0  0
  -25.0066  -33.9797   25.0509 H   0  0  0  0  0  0
  -22.6872  -31.3168   21.4251 H   0  0  0  0  0  0
  -23.3739  -35.9668   23.3327 H   0  0  0  0  0  0
  -24.3565  -36.8926   22.2055 H   0  0  0  0  0  0
  -23.7241  -37.6536   23.6653 H   0  0  0  0  0  0
  -26.0498  -31.6062   20.6069 H   0  0  0  0  0  0
  -26.8156  -30.8801   21.9926 H   0  0  0  0  0  0
  -28.0910  -29.0957   21.1654 H   0  0  0  0  0  0
  -26.0112  -26.0179   18.9478 H   0  0  0  0  0  0
  -23.9628  -27.3291   19.0124 H   0  0  0  0  0  0
  -23.7148  -30.6216   19.4152 H   0  0  0  0  0  0
  -22.7247  -29.2677   19.8698 H   0  0  0  0  0  0
  -25.1281  -36.2005   25.0838 H   0  0  0  0  0  0
  -20.9962  -28.3239   24.1454 H   0  0  0  0  0  0
  -20.5677  -26.2272   23.3614 H   0  0  0  0  0  0
  -21.6628  -26.7458   22.1211 H   0  0  0  0  0  0
  -19.6888  -25.6312   21.1233 H   0  0  0  0  0  0
  -19.6666  -27.3220   20.6770 H   0  0  0  0  0  0
  -17.4187  -26.6720   21.4017 H   0  0  0  0  0  0
  -18.0284  -26.0067   22.9004 H   0  0  0  0  0  0
  -19.7930  -30.7280   24.2265 H   0  0  0  0  0  0
  -17.5009  -31.6261   24.5197 H   0  0  0  0  0  0
  -15.5346  -30.2991   23.7662 H   0  0  0  0  0  0
  -15.8669  -28.0844   22.7042 H   0  0  0  0  0  0
  -24.5881  -30.7106   25.7836 H   0  0  0  0  0  0
  -24.8989  -32.2834   26.5065 H   0  0  0  0  0  0
  -25.8101  -30.8771   27.0219 H   0  0  0  0  0  0
  -26.2893  -29.6749   24.1297 H   0  0  0  0  0  0
  -27.4242  -29.7380   25.4601 H   0  0  0  0  0  0
  -27.8671  -30.4400   23.9227 H   0  0  0  0  0  0
  -27.2728  -33.3620   26.2118 H   0  0  0  0  0  0
  -28.3835  -32.6934   25.0261 H   0  0  0  0  0  0
  -28.0826  -31.8441   26.5334 H   0  0  0  0  0  0
  -28.2629  -38.0096   24.7510 H   0  0  0  0  0  0
  -28.1053  -36.2632   24.6287 H   0  0  0  0  0  0
  -27.2302  -37.1482   25.8866 H   0  0  0  0  0  0
  -20.9308  -29.8749   21.6955 H   0  0  0  0  0  0
  -26.0191  -38.2900   24.1385 H   0  0  0  0  0  0
  -31.0232  -23.7261   22.4281 H   0  0  0  0  0  0
  -28.9435  -20.5466   20.4316 H   0  0  0  0  0  0
  -32.7777  -24.4720   23.3735 H   0  0  0  0  0  0
  -33.4766  -24.0280   25.0102 H   0  0  0  0  0  0
  -35.0179  -22.4189   23.8923 H   0  0  0  0  0  0
  -34.2642  -22.8312   22.2632 H   0  0  0  0  0  0
  -30.3238  -17.8132   23.5027 H   0  0  0  0  0  0
  -28.8173  -17.7337   22.6473 H   0  0  0  0  0  0
  -28.5662  -18.2364   20.3717 H   0  0  0  0  0  0
  -29.8980  -18.6495   19.3262 H   0  0  0  0  0  0
  -29.4975  -15.4534   22.9382 H   0  0  0  0  0  0
  -31.1650  -15.8338   22.6336 H   0  0  0  0  0  0
  -30.6492  -16.5134   19.1048 H   0  0  0  0  0  0
  -28.9478  -16.2292   19.1939 H   0  0  0  0  0  0
  -32.7713  -21.6517   24.7538 H   0  0  0  0  0  0
  -31.4836  -18.0784   21.2029 H   0  0  0  0  0  0
  -27.3043  -24.9182   20.3199 H   0  0  0  0  0  0
  -28.3120  -25.0393   18.8781 H   0  0  0  0  0  0
  -29.2785  -24.8470   21.7663 H   0  0  0  0  0  0
  -30.3235  -24.7508   20.3426 H   0  0  0  0  0  0
  1 25  1  0  0  0
  1 30  2  0  0  0
  1 87  1  0  0  0
  2  3  1  0  0  0
  2 25  1  0  0  0
  2 90  1  0  0  0
  2 91  1  0  0  0
  3  4  1  0  0  0
  3 92  1  0  0  0
  3 93  1  0  0  0
  4  5  1  0  0  0
  4 94  1  0  0  0
  4 95  1  0  0  0
  5  6  1  0  0  0
  5 26  1  0  0  0
  5 96  1  0  0  0
  6 25  1  0  0  0
  6 97  1  0  0  0
  6 98  1  0  0  0
  7  8  2  0  0  0
  7 26  1  0  0  0
  7 29  1  0  0  0
  8  9  1  0  0  0
  8 22  1  0  0  0
  9 10  1  0  0  0
  9 27  2  0  0  0
 10 11  2  0  0  0
 10 15  1  0  0  0
 11 12  1  0  0  0
 11 99  1  0  0  0
 12 13  2  0  0  0
 12100  1  0  0  0
 13 14  1  0  0  0
 13 31  1  0  0  0
 14 15  2  0  0  0
 14101  1  0  0  0
 15102  1  0  0  0
 16 17  2  0  0  0
 16 21  1  0  0  0
 16 31  1  0  0  0
 17 18  1  0  0  0
 17103  1  0  0  0
 18 19  2  0  0  0
 18104  1  0  0  0
 19 20  1  0  0  0
 19 24  1  0  0  0
 20 21  2  0  0  0
 20105  1  0  0  0
 21 23  1  0  0  0
 22 28  1  0  0  0
 22 32  2  0  0  0
 26 27  1  0  0  0
 28106  1  0  0  0
 28107  1  0  0  0
 29108  1  0  0  0
 29109  1  0  0  0
 33 34  1  0  0  0
 33 66  1  0  0  0
 33 70  2  0  0  0
 34 36  1  0  0  0
 34 59  1  0  0  0
 34110  1  0  0  0
 35 44  2  0  0  0
 35 45  1  0  0  0
 35 68  1  0  0  0
 36 56  1  0  0  0
 36111  1  0  0  0
 37 39  1  0  0  0
 37 47  1  0  0  0
 37 66  1  0  0  0
 37112  1  0  0  0
 38 43  2  0  0  0
 38 46  1  0  0  0
 38 47  1  0  0  0
 39 64  1  0  0  0
 39 67  2  0  0  0
 40 52  1  0  0  0
 40 53  2  0  0  0
 40 58  1  0  0  0
 41113  1  0  0  0
 41114  1  0  0  0
 41115  1  0  0  0
 41 48  1  0  0  0
 42 43  1  0  0  0
 42 66  1  0  0  0
 42116  1  0  0  0
 42117  1  0  0  0
 43 44  1  0  0  0
 44118  1  0  0  0
 45 46  2  0  0  0
 45119  1  0  0  0
 46120  1  0  0  0
 47121  1  0  0  0
 47122  1  0  0  0
 48 56  1  0  0  0
 48 65  1  0  0  0
 48123  1  0  0  0
 49 50  1  0  0  0
 49 53  1  0  0  0
 49 64  1  0  0  0
 49124  1  0  0  0
 50 51  1  0  0  0
 50125  1  0  0  0
 50126  1  0  0  0
 51 52  1  0  0  0
 51127  1  0  0  0
 51128  1  0  0  0
 52129  1  0  0  0
 52130  1  0  0  0
 53 54  1  0  0  0
 54 55  2  0  0  0
 54131  1  0  0  0
 55 57  1  0  0  0
 55132  1  0  0  0
 56 69  2  0  0  0
 57 58  2  0  0  0
 57133  1  0  0  0
 58134  1  0  0  0
 59 60  1  0  0  0
 59 61  1  0  0  0
 59 62  1  0  0  0
 60135  1  0  0  0
 60136  1  0  0  0
 60137  1  0  0  0
 61138  1  0  0  0
 61139  1  0  0  0
 61140  1  0  0  0
 62141  1  0  0  0
 62142  1  0  0  0
 62143  1  0  0  0
 63 65  1  0  0  0
 63144  1  0  0  0
 63145  1  0  0  0
 63146  1  0  0  0
 64147  1  0  0  0
 65148  1  0  0  0
 68 85  1  0  0  0
 71 73  2  0  0  0
 71 75  1  0  0  0
 71149  1  0  0  0
 72 74  1  0  0  0
 72 75  2  0  0  0
 72150  1  0  0  0
 73 76  1  0  0  0
 73 83  1  0  0  0
 74 76  2  0  0  0
 74 84  1  0  0  0
 75 88  1  0  0  0
 76 89  1  0  0  0
 77 78  1  0  0  0
 77 83  1  0  0  0
 77151  1  0  0  0
 77152  1  0  0  0
 78 83  1  0  0  0
 78153  1  0  0  0
 78154  1  0  0  0
 79 81  1  0  0  0
 79 84  1  0  0  0
 79155  1  0  0  0
 79156  1  0  0  0
 80 82  1  0  0  0
 80 84  1  0  0  0
 80157  1  0  0  0
 80158  1  0  0  0
 81 87  1  0  0  0
 81159  1  0  0  0
 81160  1  0  0  0
 82 87  1  0  0  0
 82161  1  0  0  0
 82162  1  0  0  0
 83163  1  0  0  0
 84164  1  0  0  0
 85 86  1  0  0  0
 85165  1  0  0  0
 85166  1  0  0  0
 86 88  1  0  0  0
 86167  1  0  0  0
 86168  1  0  0  0
M  ISO  4   1 100  68 101  85 101  87 100
M  END
> <chiral flag>
0

> <version>
0

> <s_m_source_file>
/data/baiqing/PycharmProjects/Reinvent-master-3.2/result/LINK_invent/BTK/process_docking_weight1_custom_sum_contain_oxygen_bond_distance_aromatic_linkinvent_7_9_3/rearranged_h_0154.sdf

> <i_m_source_file_index>
93

> <r_mmod_Potential_Energy-OPLS-2005>
249.145690917969

> <r_mmod_Stretch_Energy-OPLS-2005>
41.9668312072754

> <r_mmod_Bend_Energy-OPLS-2005>
121.133377075195

> <r_mmod_Torsional_Energy-OPLS-2005>
359.135345458984

> <r_mmod_Improper_Torsional_Energy-OPLS-2005>
9.34123516082764

> <r_mmod_Van_der_Waal_Energy-OPLS-2005>
175.653518676758

> <r_mmod_Electrostatic_Energy-OPLS-2005>
-282.23193359375

> <r_mmod_Solvation_Energy-OPLS-2005>
-191.165771484375

> <b_mmod_Minimization_Converged-OPLS-2005>
0

> <r_mmod_RMS_Derivative-OPLS-2005>
2.04265141487122

$$$$
94
                    3D
 Structure written by MMmdl.
161170  0  0  1  0            999 V2000
  -30.5873  -14.8503   20.4217 C   0  0  0  0  0  0
  -30.4279  -12.5206   19.4887 C   0  0  0  0  0  0
  -29.5100  -12.5053   18.2463 C   0  0  0  0  0  0
  -28.0414  -12.3136   18.6656 C   0  0  0  0  0  0
  -27.6309  -13.2421   19.8397 C   0  0  2  0  0  0
  -28.6741  -13.2421   20.9767 C   0  0  0  0  0  0
  -25.2472  -13.8226   20.5708 C   0  0  0  0  0  0
  -24.1784  -13.0449   20.9236 C   0  0  0  0  0  0
  -24.6396  -11.6933   20.8778 C   0  0  0  0  0  0
  -23.9078  -10.4296   21.0422 C   0  0  0  0  0  0
  -24.3625   -9.4205   21.9195 C   0  0  0  0  0  0
  -23.6288   -8.2242   22.0759 C   0  0  0  0  0  0
  -22.4270   -8.0287   21.3546 C   0  0  0  0  0  0
  -21.9919   -9.0268   20.4648 C   0  0  0  0  0  0
  -22.7256  -10.2145   20.3063 C   0  0  0  0  0  0
  -21.6853   -6.0735   22.5287 C   0  0  0  0  0  0
  -21.4002   -6.5637   23.8218 C   0  0  0  0  0  0
  -21.3657   -5.6796   24.9182 C   0  0  0  0  0  0
  -21.6048   -4.3060   24.7239 C   0  0  0  0  0  0
  -21.8815   -3.8147   23.4362 C   0  0  0  0  0  0
  -21.9180   -4.6958   22.3413 C   0  0  0  0  0  0
  -22.7800  -13.5212   21.1892 C   0  0  0  0  0  0
  -22.1659   -4.2141   21.0990 F   0  0  0  0  0  0
  -21.5626   -3.4543   25.7749 F   0  0  0  0  0  0
  -29.9593  -13.6153   20.3797 N   0  0  0  0  0  0
  -26.2891  -12.9443   20.3256 N   0  0  0  0  0  0
  -25.9319  -11.6580   20.5767 N   0  0  0  0  0  0
  -22.0443  -12.8197   22.0447 N   0  0  0  0  0  0
  -25.4164  -15.1947   20.4122 N   0  0  0  0  0  0
  -31.7907  -14.8939   20.1489 O   0  0  0  0  0  0
  -21.6641   -6.8882   21.4243 O   0  0  0  0  0  0
  -22.3483  -14.5520   20.6743 O   0  0  0  0  0  0
  -24.6381  -31.8464   23.1915 C   0  0  0  0  0  0
  -25.9182  -32.4695   23.8285 C   0  0  1  0  0  0
  -27.2190  -27.1936   20.1431 C   0  0  0  0  0  0
  -25.5930  -33.8497   24.2200 N   0  0  0  0  0  0
  -23.4396  -30.4680   21.5343 C   0  0  2  0  0  0
  -24.8880  -28.9030   20.1051 C   0  0  0  0  0  0
  -22.7548  -29.4562   22.4864 C   0  0  0  0  0  0
  -18.0298  -28.1402   22.8478 C   0  0  0  0  0  0
  -24.1495  -36.7249   23.2631 C   0  0  0  0  0  0
  -25.9895  -30.7414   21.3785 C   0  0  0  0  0  0
  -26.0605  -29.3578   20.7199 C   0  0  0  0  0  0
  -27.2276  -28.5166   20.7233 C   0  0  0  0  0  0
  -26.0246  -26.8225   19.4892 C   0  0  0  0  0  0
  -24.8794  -27.6473   19.4759 C   0  0  0  0  0  0
  -23.6606  -29.7966   20.1530 C   0  0  0  0  0  0
  -25.4117  -36.3018   24.0310 C   0  0  1  0  0  0
  -20.5910  -28.3718   23.1235 C   0  0  2  0  0  0
  -20.6783  -26.9423   22.5395 C   0  0  0  0  0  0
  -19.5752  -26.6390   21.5202 C   0  0  0  0  0  0
  -18.1938  -26.7945   22.1621 C   0  0  0  0  0  0
  -19.1559  -28.8876   23.2855 C   0  0  0  0  0  0
  -18.9477  -30.1470   23.8895 C   0  0  0  0  0  0
  -17.6475  -30.6598   24.0556 C   0  0  0  0  0  0
  -25.9062  -34.9401   23.5072 C   0  0  0  0  0  0
  -16.5360  -29.9095   23.6335 C   0  0  0  0  0  0
  -16.7288  -28.6506   23.0369 C   0  0  0  0  0  0
  -26.4540  -31.6518   25.0685 C   0  0  0  0  0  0
  -25.3743  -31.3643   26.1376 C   0  0  0  0  0  0
  -27.0385  -30.2928   24.6193 C   0  0  0  0  0  0
  -27.6089  -32.4282   25.7456 C   0  0  0  0  0  0
  -27.5563  -37.1790   24.8451 C   0  0  0  0  0  0
  -21.4247  -29.3049   22.3624 N   0  0  0  0  0  0
  -26.4278  -37.3736   23.9386 N   0  0  0  0  0  0
  -24.7085  -31.0401   22.0901 N   0  0  0  0  0  0
  -23.4205  -28.8104   23.3002 O   0  0  0  0  0  0
  -28.2982  -26.2539   20.2407 O   0  0  0  0  0  0
  -26.5655  -34.8896   22.4660 O   0  0  0  0  0  0
  -23.5519  -32.1294   23.7194 O   0  0  0  0  0  0
  -30.2738  -21.4721   20.7076 C   0  0  0  0  0  0
  -28.4518  -19.4319   20.2605 C   0  0  0  0  0  0
  -28.9304  -21.9334   20.5915 C   0  0  0  0  0  0
  -28.0323  -20.8289   20.3448 C   0  0  0  0  0  0
  -29.8023  -18.9853   20.4400 C   0  0  0  0  0  0
  -30.6919  -20.0906   20.6620 C   0  0  0  0  0  0
  -29.2346  -23.9015   22.3395 C   0  0  0  0  0  0
  -27.8219  -23.4340   22.4219 C   0  0  0  0  0  0
  -28.5275  -23.4471   21.0612 C   0  0  0  0  0  0
  -26.5496  -21.1271   20.2160 C   0  0  0  0  0  0
  -32.5912  -20.2634   22.0534 C   0  0  0  0  0  0
  -30.4357  -17.4764   20.3095 C   0  0  0  0  0  0
  -28.1917  -24.7156   20.0560 C   0  0  0  0  0  0
  -29.8591  -16.0511   20.5391 N   0  0  0  0  0  0
  -32.0237  -19.8021   20.8309 O   0  0  0  0  0  0
  -31.4660  -12.6502   19.1790 H   0  0  0  0  0  0
  -30.3934  -11.5612   20.0079 H   0  0  0  0  0  0
  -29.8110  -11.7081   17.5645 H   0  0  0  0  0  0
  -29.6175  -13.4407   17.6944 H   0  0  0  0  0  0
  -27.9235  -11.2714   18.9656 H   0  0  0  0  0  0
  -27.3774  -12.4616   17.8135 H   0  0  0  0  0  0
  -27.6050  -14.2501   19.4226 H   0  0  0  0  0  0
  -28.7361  -12.2632   21.4549 H   0  0  0  0  0  0
  -28.3945  -13.9503   21.7571 H   0  0  0  0  0  0
  -25.2766   -9.5669   22.4777 H   0  0  0  0  0  0
  -23.9993   -7.4625   22.7482 H   0  0  0  0  0  0
  -21.0844   -8.8793   19.8955 H   0  0  0  0  0  0
  -22.3724  -10.9680   19.6174 H   0  0  0  0  0  0
  -21.2004   -7.6146   23.9717 H   0  0  0  0  0  0
  -21.1478   -6.0532   25.9084 H   0  0  0  0  0  0
  -22.0596   -2.7606   23.2873 H   0  0  0  0  0  0
  -22.4051  -11.9847   22.4814 H   0  0  0  0  0  0
  -21.1065  -13.1218   22.2654 H   0  0  0  0  0  0
  -24.6514  -15.8497   20.5306 H   0  0  0  0  0  0
  -26.2599  -15.6327   20.0667 H   0  0  0  0  0  0
  -26.7234  -32.5316   23.1001 H   0  0  0  0  0  0
  -25.0013  -33.9617   25.0300 H   0  0  0  0  0  0
  -22.7390  -31.2916   21.3816 H   0  0  0  0  0  0
  -23.3736  -35.9600   23.3265 H   0  0  0  0  0  0
  -24.3593  -36.8897   22.2048 H   0  0  0  0  0  0
  -23.7295  -37.6468   23.6668 H   0  0  0  0  0  0
  -26.1384  -31.4993   20.6068 H   0  0  0  0  0  0
  -26.8622  -30.7877   22.0176 H   0  0  0  0  0  0
  -28.1228  -28.8561   21.2246 H   0  0  0  0  0  0
  -25.9549  -25.8544   19.0138 H   0  0  0  0  0  0
  -23.9821  -27.2956   18.9861 H   0  0  0  0  0  0
  -23.7845  -30.5691   19.3935 H   0  0  0  0  0  0
  -22.7793  -29.2291   19.8516 H   0  0  0  0  0  0
  -25.1314  -36.1830   25.0801 H   0  0  0  0  0  0
  -21.0007  -28.3311   24.1350 H   0  0  0  0  0  0
  -20.5667  -26.2330   23.3609 H   0  0  0  0  0  0
  -21.6651  -26.7424   22.1193 H   0  0  0  0  0  0
  -19.6897  -25.6288   21.1263 H   0  0  0  0  0  0
  -19.6707  -27.3170   20.6705 H   0  0  0  0  0  0
  -17.4203  -26.6688   21.4027 H   0  0  0  0  0  0
  -18.0348  -26.0092   22.9027 H   0  0  0  0  0  0
  -19.7949  -30.7283   24.2288 H   0  0  0  0  0  0
  -17.5021  -31.6281   24.5145 H   0  0  0  0  0  0
  -15.5356  -30.2989   23.7669 H   0  0  0  0  0  0
  -15.8692  -28.0806   22.7120 H   0  0  0  0  0  0
  -24.5934  -30.6971   25.7683 H   0  0  0  0  0  0
  -24.8912  -32.2802   26.4790 H   0  0  0  0  0  0
  -25.8030  -30.8803   27.0156 H   0  0  0  0  0  0
  -27.3944  -29.7175   25.4763 H   0  0  0  0  0  0
  -27.8924  -30.4174   23.9517 H   0  0  0  0  0  0
  -26.2980  -29.6701   24.1161 H   0  0  0  0  0  0
  -27.2712  -33.3619   26.1952 H   0  0  0  0  0  0
  -28.3966  -32.6755   25.0329 H   0  0  0  0  0  0
  -28.0690  -31.8463   26.5454 H   0  0  0  0  0  0
  -28.2568  -38.0093   24.7482 H   0  0  0  0  0  0
  -28.1072  -36.2617   24.6299 H   0  0  0  0  0  0
  -27.2275  -37.1463   25.8855 H   0  0  0  0  0  0
  -20.9457  -29.8770   21.6815 H   0  0  0  0  0  0
  -26.0142  -38.2805   24.1365 H   0  0  0  0  0  0
  -31.0245  -22.2235   20.9047 H   0  0  0  0  0  0
  -27.7014  -18.6791   20.0630 H   0  0  0  0  0  0
  -29.9905  -23.2589   22.7846 H   0  0  0  0  0  0
  -29.4025  -24.9682   22.4800 H   0  0  0  0  0  0
  -27.6467  -22.4645   22.8828 H   0  0  0  0  0  0
  -27.0777  -24.1900   22.6650 H   0  0  0  0  0  0
  -26.0561  -20.4074   19.5617 H   0  0  0  0  0  0
  -26.3820  -22.1184   19.7938 H   0  0  0  0  0  0
  -26.0680  -21.0851   21.1939 H   0  0  0  0  0  0
  -33.6145  -19.8974   22.1337 H   0  0  0  0  0  0
  -32.0363  -19.8755   22.9098 H   0  0  0  0  0  0
  -32.6314  -21.3496   22.1256 H   0  0  0  0  0  0
  -31.3098  -17.4849   20.9600 H   0  0  0  0  0  0
  -30.8544  -17.4540   19.3025 H   0  0  0  0  0  0
  -29.2542  -24.9526   19.9915 H   0  0  0  0  0  0
  -27.3597  -24.9668   20.7006 H   0  0  0  0  0  0
  -28.8677  -15.9732   20.7045 H   0  0  0  0  0  0
  1 25  1  0  0  0
  1 30  2  0  0  0
  1 84  1  0  0  0
  2  3  1  0  0  0
  2 25  1  0  0  0
  2 86  1  0  0  0
  2 87  1  0  0  0
  3  4  1  0  0  0
  3 88  1  0  0  0
  3 89  1  0  0  0
  4  5  1  0  0  0
  4 90  1  0  0  0
  4 91  1  0  0  0
  5  6  1  0  0  0
  5 26  1  0  0  0
  5 92  1  0  0  0
  6 25  1  0  0  0
  6 93  1  0  0  0
  6 94  1  0  0  0
  7  8  2  0  0  0
  7 26  1  0  0  0
  7 29  1  0  0  0
  8  9  1  0  0  0
  8 22  1  0  0  0
  9 10  1  0  0  0
  9 27  2  0  0  0
 10 11  2  0  0  0
 10 15  1  0  0  0
 11 12  1  0  0  0
 11 95  1  0  0  0
 12 13  2  0  0  0
 12 96  1  0  0  0
 13 14  1  0  0  0
 13 31  1  0  0  0
 14 15  2  0  0  0
 14 97  1  0  0  0
 15 98  1  0  0  0
 16 17  2  0  0  0
 16 21  1  0  0  0
 16 31  1  0  0  0
 17 18  1  0  0  0
 17 99  1  0  0  0
 18 19  2  0  0  0
 18100  1  0  0  0
 19 20  1  0  0  0
 19 24  1  0  0  0
 20 21  2  0  0  0
 20101  1  0  0  0
 21 23  1  0  0  0
 22 28  1  0  0  0
 22 32  2  0  0  0
 26 27  1  0  0  0
 28102  1  0  0  0
 28103  1  0  0  0
 29104  1  0  0  0
 29105  1  0  0  0
 33 34  1  0  0  0
 33 66  1  0  0  0
 33 70  2  0  0  0
 34 36  1  0  0  0
 34 59  1  0  0  0
 34106  1  0  0  0
 35 44  2  0  0  0
 35 45  1  0  0  0
 35 68  1  0  0  0
 36 56  1  0  0  0
 36107  1  0  0  0
 37 39  1  0  0  0
 37 47  1  0  0  0
 37 66  1  0  0  0
 37108  1  0  0  0
 38 43  2  0  0  0
 38 46  1  0  0  0
 38 47  1  0  0  0
 39 64  1  0  0  0
 39 67  2  0  0  0
 40 52  1  0  0  0
 40 53  2  0  0  0
 40 58  1  0  0  0
 41109  1  0  0  0
 41110  1  0  0  0
 41111  1  0  0  0
 41 48  1  0  0  0
 42 43  1  0  0  0
 42 66  1  0  0  0
 42112  1  0  0  0
 42113  1  0  0  0
 43 44  1  0  0  0
 44114  1  0  0  0
 45 46  2  0  0  0
 45115  1  0  0  0
 46116  1  0  0  0
 47117  1  0  0  0
 47118  1  0  0  0
 48 56  1  0  0  0
 48 65  1  0  0  0
 48119  1  0  0  0
 49 50  1  0  0  0
 49 53  1  0  0  0
 49 64  1  0  0  0
 49120  1  0  0  0
 50 51  1  0  0  0
 50121  1  0  0  0
 50122  1  0  0  0
 51 52  1  0  0  0
 51123  1  0  0  0
 51124  1  0  0  0
 52125  1  0  0  0
 52126  1  0  0  0
 53 54  1  0  0  0
 54 55  2  0  0  0
 54127  1  0  0  0
 55 57  1  0  0  0
 55128  1  0  0  0
 56 69  2  0  0  0
 57 58  2  0  0  0
 57129  1  0  0  0
 58130  1  0  0  0
 59 60  1  0  0  0
 59 61  1  0  0  0
 59 62  1  0  0  0
 60131  1  0  0  0
 60132  1  0  0  0
 60133  1  0  0  0
 61134  1  0  0  0
 61135  1  0  0  0
 61136  1  0  0  0
 62137  1  0  0  0
 62138  1  0  0  0
 62139  1  0  0  0
 63 65  1  0  0  0
 63140  1  0  0  0
 63141  1  0  0  0
 63142  1  0  0  0
 64143  1  0  0  0
 65144  1  0  0  0
 68 83  1  0  0  0
 71 73  2  0  0  0
 71 76  1  0  0  0
 71145  1  0  0  0
 72 74  2  0  0  0
 72 75  1  0  0  0
 72146  1  0  0  0
 73 74  1  0  0  0
 73 79  1  0  0  0
 74 80  1  0  0  0
 75 76  2  0  0  0
 75 82  1  0  0  0
 76 85  1  0  0  0
 77 78  1  0  0  0
 77 79  1  0  0  0
 77147  1  0  0  0
 77148  1  0  0  0
 78 79  1  0  0  0
 78149  1  0  0  0
 78150  1  0  0  0
 79 83  1  0  0  0
 80151  1  0  0  0
 80152  1  0  0  0
 80153  1  0  0  0
 81 85  1  0  0  0
 81154  1  0  0  0
 81155  1  0  0  0
 81156  1  0  0  0
 82 84  1  0  0  0
 82157  1  0  0  0
 82158  1  0  0  0
 83159  1  0  0  0
 83160  1  0  0  0
 84161  1  0  0  0
M  ISO  4   1 100  68 101  83 101  84 100
M  END
> <chiral flag>
0

> <version>
0

> <s_m_source_file>
/data/baiqing/PycharmProjects/Reinvent-master-3.2/result/LINK_invent/BTK/process_docking_weight1_custom_sum_contain_oxygen_bond_distance_aromatic_linkinvent_7_9_3/rearranged_h_0154.sdf

> <i_m_source_file_index>
94

> <r_mmod_Potential_Energy-OPLS-2005>
614.846313476562

> <r_mmod_Stretch_Energy-OPLS-2005>
201.516723632812

> <r_mmod_Bend_Energy-OPLS-2005>
465.884857177734

> <r_mmod_Torsional_Energy-OPLS-2005>
272.432769775391

> <r_mmod_Improper_Torsional_Energy-OPLS-2005>
8.02527904510498

> <r_mmod_Van_der_Waal_Energy-OPLS-2005>
149.510269165039

> <r_mmod_Electrostatic_Energy-OPLS-2005>
-409.463928222656

> <r_mmod_Solvation_Energy-OPLS-2005>
-211.056915283203

> <b_mmod_Minimization_Converged-OPLS-2005>
0

> <r_mmod_RMS_Derivative-OPLS-2005>
2.07712173461914

$$$$
95
                    3D
 Structure written by MMmdl.
170179  0  0  1  0            999 V2000
  -30.6903  -14.8822   20.4209 C   0  0  0  0  0  0
  -30.3943  -12.5669   19.4775 C   0  0  0  0  0  0
  -29.4887  -12.5109   18.2340 C   0  0  0  0  0  0
  -28.0270  -12.3171   18.6660 C   0  0  0  0  0  0
  -27.6153  -13.2636   19.8253 C   0  0  2  0  0  0
  -28.6680  -13.3472   20.9511 C   0  0  0  0  0  0
  -25.2414  -13.8263   20.5771 C   0  0  0  0  0  0
  -24.1746  -13.0461   20.9255 C   0  0  0  0  0  0
  -24.6382  -11.6952   20.8781 C   0  0  0  0  0  0
  -23.9078  -10.4309   21.0423 C   0  0  0  0  0  0
  -24.3631   -9.4217   21.9194 C   0  0  0  0  0  0
  -23.6305   -8.2250   22.0756 C   0  0  0  0  0  0
  -22.4287   -8.0289   21.3546 C   0  0  0  0  0  0
  -21.9930   -9.0263   20.4648 C   0  0  0  0  0  0
  -22.7255  -10.2144   20.3063 C   0  0  0  0  0  0
  -21.6854   -6.0745   22.5281 C   0  0  0  0  0  0
  -21.4019   -6.5647   23.8216 C   0  0  0  0  0  0
  -21.3658   -5.6796   24.9175 C   0  0  0  0  0  0
  -21.6045   -4.3060   24.7226 C   0  0  0  0  0  0
  -21.8818   -3.8152   23.4346 C   0  0  0  0  0  0
  -21.9194   -4.6972   22.3402 C   0  0  0  0  0  0
  -22.7761  -13.5209   21.1898 C   0  0  0  0  0  0
  -22.1665   -4.2158   21.0980 F   0  0  0  0  0  0
  -21.5626   -3.4544   25.7736 F   0  0  0  0  0  0
  -29.9312  -13.7209   20.3072 N   0  0  0  0  0  0
  -26.2838  -12.9526   20.3286 N   0  0  0  0  0  0
  -25.9320  -11.6640   20.5791 N   0  0  0  0  0  0
  -22.0420  -12.8184   22.0448 N   0  0  0  0  0  0
  -25.4081  -15.1997   20.4208 N   0  0  0  0  0  0
  -31.9030  -14.7025   20.2747 O   0  0  0  0  0  0
  -21.6647   -6.8890   21.4242 O   0  0  0  0  0  0
  -22.3434  -14.5506   20.6735 O   0  0  0  0  0  0
  -24.6392  -31.8483   23.1920 C   0  0  0  0  0  0
  -25.9184  -32.4717   23.8295 C   0  0  1  0  0  0
  -27.2063  -27.1766   20.1535 C   0  0  0  0  0  0
  -25.5951  -33.8525   24.2219 N   0  0  0  0  0  0
  -23.4401  -30.4688   21.5375 C   0  0  2  0  0  0
  -24.8882  -28.9028   20.1112 C   0  0  0  0  0  0
  -22.7546  -29.4567   22.4883 C   0  0  0  0  0  0
  -18.0300  -28.1386   22.8482 C   0  0  0  0  0  0
  -24.1491  -36.7263   23.2641 C   0  0  0  0  0  0
  -25.9928  -30.7354   21.3846 C   0  0  0  0  0  0
  -26.0646  -29.3502   20.7278 C   0  0  0  0  0  0
  -27.2305  -28.5021   20.7323 C   0  0  0  0  0  0
  -26.0125  -26.8241   19.4919 C   0  0  0  0  0  0
  -24.8720  -27.6515   19.4773 C   0  0  0  0  0  0
  -23.6634  -29.8001   20.1557 C   0  0  0  0  0  0
  -25.4122  -36.3047   24.0320 C   0  0  1  0  0  0
  -20.5912  -28.3709   23.1248 C   0  0  2  0  0  0
  -20.6786  -26.9417   22.5407 C   0  0  0  0  0  0
  -19.5761  -26.6376   21.5213 C   0  0  0  0  0  0
  -18.1941  -26.7926   22.1624 C   0  0  0  0  0  0
  -19.1557  -28.8866   23.2857 C   0  0  0  0  0  0
  -18.9474  -30.1465   23.8877 C   0  0  0  0  0  0
  -17.6470  -30.6587   24.0557 C   0  0  0  0  0  0
  -25.9070  -34.9420   23.5075 C   0  0  0  0  0  0
  -16.5362  -29.9078   23.6335 C   0  0  0  0  0  0
  -16.7285  -28.6496   23.0360 C   0  0  0  0  0  0
  -26.4521  -31.6568   25.0718 C   0  0  0  0  0  0
  -25.3715  -31.3742   26.1418 C   0  0  0  0  0  0
  -27.0384  -30.2971   24.6265 C   0  0  0  0  0  0
  -27.6057  -32.4324   25.7500 C   0  0  0  0  0  0
  -27.5580  -37.1788   24.8465 C   0  0  0  0  0  0
  -21.4245  -29.3042   22.3627 N   0  0  0  0  0  0
  -26.4288  -37.3756   23.9409 N   0  0  0  0  0  0
  -24.7103  -31.0378   22.0934 N   0  0  0  0  0  0
  -23.4209  -28.8113   23.3019 O   0  0  0  0  0  0
  -28.2456  -26.1930   20.1880 O   0  0  0  0  0  0
  -26.5649  -34.8907   22.4650 O   0  0  0  0  0  0
  -23.5522  -32.1343   23.7167 O   0  0  0  0  0  0
  -31.8831  -22.6606   19.8573 C   0  0  0  0  0  0
  -30.8205  -23.2388   20.5868 C   0  0  0  0  0  0
  -31.4152  -21.4953   19.3390 C   0  0  0  0  0  0
  -29.6933  -22.4925   20.3136 C   0  0  0  0  0  0
  -28.8244  -18.6510   20.6664 C   0  0  0  0  0  0
  -31.1134  -18.7172   20.3886 C   0  0  0  0  0  0
  -28.9042  -16.9908   20.4970 C   0  0  0  0  0  0
  -31.2144  -17.2607   19.8301 C   0  0  0  0  0  0
  -29.8827  -19.5644   19.8919 C   0  0  0  0  0  0
  -33.2555  -23.2429   19.6026 C   0  0  0  0  0  0
  -30.9366  -24.5446   21.3396 C   0  0  0  0  0  0
  -32.1332  -20.7045   18.2695 C   0  0  0  0  0  0
  -27.2751  -22.2856   21.0221 C   0  0  0  0  0  0
  -27.9378  -24.7972   20.7652 C   0  0  0  0  0  0
  -28.2654  -23.2043   20.2903 C   0  0  1  0  0  0
  -30.2106  -21.1286   19.9796 N   0  0  0  0  0  0
  -30.2290  -16.2445   20.3241 N   0  0  0  0  0  0
  -31.4332  -12.6513   19.1563 H   0  0  0  0  0  0
  -30.3388  -11.6347   20.0430 H   0  0  0  0  0  0
  -29.7939  -11.6990   17.5721 H   0  0  0  0  0  0
  -29.5895  -13.4332   17.6592 H   0  0  0  0  0  0
  -27.9164  -11.2784   18.9788 H   0  0  0  0  0  0
  -27.3589  -12.4509   17.8146 H   0  0  0  0  0  0
  -27.5607  -14.2552   19.3750 H   0  0  0  0  0  0
  -28.7591  -12.3999   21.4843 H   0  0  0  0  0  0
  -28.3817  -14.0985   21.6885 H   0  0  0  0  0  0
  -25.2778   -9.5688   22.4770 H   0  0  0  0  0  0
  -24.0016   -7.4633   22.7470 H   0  0  0  0  0  0
  -21.0871   -8.8781   19.8943 H   0  0  0  0  0  0
  -22.3720  -10.9685   19.6173 H   0  0  0  0  0  0
  -21.2015   -7.6157   23.9723 H   0  0  0  0  0  0
  -21.1481   -6.0528   25.9078 H   0  0  0  0  0  0
  -22.0596   -2.7615   23.2844 H   0  0  0  0  0  0
  -22.4059  -11.9851   22.4832 H   0  0  0  0  0  0
  -21.1028  -13.1181   22.2655 H   0  0  0  0  0  0
  -24.6434  -15.8548   20.5409 H   0  0  0  0  0  0
  -26.2638  -15.6413   20.1114 H   0  0  0  0  0  0
  -26.7248  -32.5342   23.1027 H   0  0  0  0  0  0
  -25.0089  -33.9644   25.0359 H   0  0  0  0  0  0
  -22.7404  -31.2934   21.3862 H   0  0  0  0  0  0
  -23.3763  -35.9585   23.3289 H   0  0  0  0  0  0
  -24.3578  -36.8908   22.2059 H   0  0  0  0  0  0
  -23.7234  -37.6451   23.6682 H   0  0  0  0  0  0
  -26.1429  -31.4911   20.6126 H   0  0  0  0  0  0
  -26.8656  -30.7857   22.0240 H   0  0  0  0  0  0
  -28.1286  -28.8368   21.2323 H   0  0  0  0  0  0
  -25.9457  -25.8627   19.0030 H   0  0  0  0  0  0
  -23.9747  -27.3053   18.9830 H   0  0  0  0  0  0
  -23.7954  -30.5747   19.3994 H   0  0  0  0  0  0
  -22.7793  -29.2390   19.8479 H   0  0  0  0  0  0
  -25.1307  -36.1883   25.0812 H   0  0  0  0  0  0
  -21.0002  -28.3292   24.1370 H   0  0  0  0  0  0
  -20.5683  -26.2321   23.3621 H   0  0  0  0  0  0
  -21.6651  -26.7428   22.1204 H   0  0  0  0  0  0
  -19.6921  -25.6281   21.1256 H   0  0  0  0  0  0
  -19.6695  -27.3175   20.6735 H   0  0  0  0  0  0
  -17.4212  -26.6678   21.4024 H   0  0  0  0  0  0
  -18.0336  -26.0067   22.9019 H   0  0  0  0  0  0
  -19.7949  -30.7288   24.2235 H   0  0  0  0  0  0
  -17.5023  -31.6265   24.5160 H   0  0  0  0  0  0
  -15.5362  -30.2973   23.7665 H   0  0  0  0  0  0
  -15.8688  -28.0803   22.7091 H   0  0  0  0  0  0
  -24.5899  -30.7084   25.7736 H   0  0  0  0  0  0
  -24.8896  -32.2920   26.4798 H   0  0  0  0  0  0
  -25.8006  -30.8945   27.0224 H   0  0  0  0  0  0
  -26.2996  -29.6698   24.1266 H   0  0  0  0  0  0
  -27.4010  -29.7259   25.4822 H   0  0  0  0  0  0
  -27.8895  -30.4221   23.9567 H   0  0  0  0  0  0
  -27.2658  -33.3640   26.2032 H   0  0  0  0  0  0
  -28.3892  -32.6857   25.0346 H   0  0  0  0  0  0
  -28.0697  -31.8479   26.5454 H   0  0  0  0  0  0
  -28.2587  -38.0095   24.7522 H   0  0  0  0  0  0
  -28.1087  -36.2627   24.6280 H   0  0  0  0  0  0
  -27.2298  -37.1419   25.8867 H   0  0  0  0  0  0
  -20.9446  -29.8759   21.6815 H   0  0  0  0  0  0
  -26.0162  -38.2825   24.1415 H   0  0  0  0  0  0
  -28.8899  -18.8839   21.7307 H   0  0  0  0  0  0
  -27.8218  -18.9725   20.3851 H   0  0  0  0  0  0
  -32.0687  -19.1859   20.1919 H   0  0  0  0  0  0
  -31.1260  -18.6805   21.4800 H   0  0  0  0  0  0
  -28.3237  -16.7347   19.6102 H   0  0  0  0  0  0
  -28.3665  -16.5326   21.3271 H   0  0  0  0  0  0
  -32.2436  -16.9704   20.0403 H   0  0  0  0  0  0
  -31.1467  -17.2882   18.7416 H   0  0  0  0  0  0
  -29.7015  -19.3670   18.8354 H   0  0  0  0  0  0
  -33.5148  -24.0368   20.3004 H   0  0  0  0  0  0
  -33.3051  -23.6539   18.5939 H   0  0  0  0  0  0
  -34.0186  -22.4691   19.6905 H   0  0  0  0  0  0
  -31.9559  -24.7147   21.6827 H   0  0  0  0  0  0
  -30.3240  -24.5289   22.2391 H   0  0  0  0  0  0
  -30.6539  -25.3896   20.7129 H   0  0  0  0  0  0
  -33.0845  -20.3121   18.6299 H   0  0  0  0  0  0
  -32.3729  -21.3565   17.4293 H   0  0  0  0  0  0
  -31.5556  -19.8808   17.8557 H   0  0  0  0  0  0
  -27.2920  -21.2808   20.6026 H   0  0  0  0  0  0
  -26.2491  -22.6449   20.9409 H   0  0  0  0  0  0
  -27.5210  -22.2110   22.0816 H   0  0  0  0  0  0
  -28.2282  -24.8722   21.8115 H   0  0  0  0  0  0
  -26.8530  -24.8007   20.8534 H   0  0  0  0  0  0
  -27.9586  -23.1824   19.2442 H   0  0  0  0  0  0
  1 25  1  0  0  0
  1 30  2  0  0  0
  1 87  1  0  0  0
  2  3  1  0  0  0
  2 25  1  0  0  0
  2 88  1  0  0  0
  2 89  1  0  0  0
  3  4  1  0  0  0
  3 90  1  0  0  0
  3 91  1  0  0  0
  4  5  1  0  0  0
  4 92  1  0  0  0
  4 93  1  0  0  0
  5  6  1  0  0  0
  5 26  1  0  0  0
  5 94  1  0  0  0
  6 25  1  0  0  0
  6 95  1  0  0  0
  6 96  1  0  0  0
  7  8  2  0  0  0
  7 26  1  0  0  0
  7 29  1  0  0  0
  8  9  1  0  0  0
  8 22  1  0  0  0
  9 10  1  0  0  0
  9 27  2  0  0  0
 10 11  2  0  0  0
 10 15  1  0  0  0
 11 12  1  0  0  0
 11 97  1  0  0  0
 12 13  2  0  0  0
 12 98  1  0  0  0
 13 14  1  0  0  0
 13 31  1  0  0  0
 14 15  2  0  0  0
 14 99  1  0  0  0
 15100  1  0  0  0
 16 17  2  0  0  0
 16 21  1  0  0  0
 16 31  1  0  0  0
 17 18  1  0  0  0
 17101  1  0  0  0
 18 19  2  0  0  0
 18102  1  0  0  0
 19 20  1  0  0  0
 19 24  1  0  0  0
 20 21  2  0  0  0
 20103  1  0  0  0
 21 23  1  0  0  0
 22 28  1  0  0  0
 22 32  2  0  0  0
 26 27  1  0  0  0
 28104  1  0  0  0
 28105  1  0  0  0
 29106  1  0  0  0
 29107  1  0  0  0
 33 34  1  0  0  0
 33 66  1  0  0  0
 33 70  2  0  0  0
 34 36  1  0  0  0
 34 59  1  0  0  0
 34108  1  0  0  0
 35 44  2  0  0  0
 35 45  1  0  0  0
 35 68  1  0  0  0
 36 56  1  0  0  0
 36109  1  0  0  0
 37 39  1  0  0  0
 37 47  1  0  0  0
 37 66  1  0  0  0
 37110  1  0  0  0
 38 43  2  0  0  0
 38 46  1  0  0  0
 38 47  1  0  0  0
 39 64  1  0  0  0
 39 67  2  0  0  0
 40 52  1  0  0  0
 40 53  2  0  0  0
 40 58  1  0  0  0
 41111  1  0  0  0
 41112  1  0  0  0
 41113  1  0  0  0
 41 48  1  0  0  0
 42 43  1  0  0  0
 42 66  1  0  0  0
 42114  1  0  0  0
 42115  1  0  0  0
 43 44  1  0  0  0
 44116  1  0  0  0
 45 46  2  0  0  0
 45117  1  0  0  0
 46118  1  0  0  0
 47119  1  0  0  0
 47120  1  0  0  0
 48 56  1  0  0  0
 48 65  1  0  0  0
 48121  1  0  0  0
 49 50  1  0  0  0
 49 53  1  0  0  0
 49 64  1  0  0  0
 49122  1  0  0  0
 50 51  1  0  0  0
 50123  1  0  0  0
 50124  1  0  0  0
 51 52  1  0  0  0
 51125  1  0  0  0
 51126  1  0  0  0
 52127  1  0  0  0
 52128  1  0  0  0
 53 54  1  0  0  0
 54 55  2  0  0  0
 54129  1  0  0  0
 55 57  1  0  0  0
 55130  1  0  0  0
 56 69  2  0  0  0
 57 58  2  0  0  0
 57131  1  0  0  0
 58132  1  0  0  0
 59 60  1  0  0  0
 59 61  1  0  0  0
 59 62  1  0  0  0
 60133  1  0  0  0
 60134  1  0  0  0
 60135  1  0  0  0
 61136  1  0  0  0
 61137  1  0  0  0
 61138  1  0  0  0
 62139  1  0  0  0
 62140  1  0  0  0
 62141  1  0  0  0
 63 65  1  0  0  0
 63142  1  0  0  0
 63143  1  0  0  0
 63144  1  0  0  0
 64145  1  0  0  0
 65146  1  0  0  0
 68 84  1  0  0  0
 71 72  1  0  0  0
 71 73  2  0  0  0
 71 80  1  0  0  0
 72 74  2  0  0  0
 72 81  1  0  0  0
 73 82  1  0  0  0
 73 86  1  0  0  0
 74 85  1  0  0  0
 74 86  1  0  0  0
 75 77  1  0  0  0
 75 79  1  0  0  0
 75147  1  0  0  0
 75148  1  0  0  0
 76 78  1  0  0  0
 76 79  1  0  0  0
 76149  1  0  0  0
 76150  1  0  0  0
 77 87  1  0  0  0
 77151  1  0  0  0
 77152  1  0  0  0
 78 87  1  0  0  0
 78153  1  0  0  0
 78154  1  0  0  0
 79 86  1  0  0  0
 79155  1  0  0  0
 80156  1  0  0  0
 80157  1  0  0  0
 80158  1  0  0  0
 81159  1  0  0  0
 81160  1  0  0  0
 81161  1  0  0  0
 82162  1  0  0  0
 82163  1  0  0  0
 82164  1  0  0  0
 83165  1  0  0  0
 83166  1  0  0  0
 83167  1  0  0  0
 83 85  1  0  0  0
 84 85  1  0  0  0
 84168  1  0  0  0
 84169  1  0  0  0
 85170  1  0  0  0
M  ISO  4   1 100  68 101  84 101  87 100
M  END
> <chiral flag>
0

> <version>
0

> <s_m_source_file>
/data/baiqing/PycharmProjects/Reinvent-master-3.2/result/LINK_invent/BTK/process_docking_weight1_custom_sum_contain_oxygen_bond_distance_aromatic_linkinvent_7_9_3/rearranged_h_0154.sdf

> <i_m_source_file_index>
95

> <r_mmod_Potential_Energy-OPLS-2005>
925.2919921875

> <r_mmod_Stretch_Energy-OPLS-2005>
250.892288208008

> <r_mmod_Bend_Energy-OPLS-2005>
442.006958007812

> <r_mmod_Torsional_Energy-OPLS-2005>
434.651153564453

> <r_mmod_Improper_Torsional_Energy-OPLS-2005>
13.3202095031738

> <r_mmod_Van_der_Waal_Energy-OPLS-2005>
150.167083740234

> <r_mmod_Electrostatic_Energy-OPLS-2005>
-329.323364257812

> <r_mmod_Solvation_Energy-OPLS-2005>
-206.184936523438

> <b_mmod_Minimization_Converged-OPLS-2005>
0

> <r_mmod_RMS_Derivative-OPLS-2005>
0.908579587936401

$$$$
96
                    3D
 Structure written by MMmdl.
177187  0  0  1  0            999 V2000
  -30.7579  -14.4236   20.5794 C   0  0  0  0  0  0
  -30.4035  -12.2798   19.4257 C   0  0  0  0  0  0
  -29.4862  -12.4956   18.2074 C   0  0  0  0  0  0
  -28.0094  -12.3650   18.6228 C   0  0  0  0  0  0
  -27.6598  -13.2124   19.8760 C   0  0  2  0  0  0
  -28.7015  -13.0092   21.0008 C   0  0  0  0  0  0
  -25.2562  -13.8175   20.5682 C   0  0  0  0  0  0
  -24.1830  -13.0438   20.9191 C   0  0  0  0  0  0
  -24.6402  -11.6910   20.8754 C   0  0  0  0  0  0
  -23.9075  -10.4296   21.0421 C   0  0  0  0  0  0
  -24.3625   -9.4209   21.9195 C   0  0  0  0  0  0
  -23.6299   -8.2244   22.0758 C   0  0  0  0  0  0
  -22.4280   -8.0288   21.3551 C   0  0  0  0  0  0
  -21.9921   -9.0264   20.4649 C   0  0  0  0  0  0
  -22.7254  -10.2139   20.3064 C   0  0  0  0  0  0
  -21.6849   -6.0742   22.5281 C   0  0  0  0  0  0
  -21.4009   -6.5643   23.8220 C   0  0  0  0  0  0
  -21.3656   -5.6794   24.9179 C   0  0  0  0  0  0
  -21.6042   -4.3055   24.7225 C   0  0  0  0  0  0
  -21.8817   -3.8151   23.4349 C   0  0  0  0  0  0
  -21.9191   -4.6971   22.3405 C   0  0  0  0  0  0
  -22.7851  -13.5234   21.1850 C   0  0  0  0  0  0
  -22.1659   -4.2162   21.0982 F   0  0  0  0  0  0
  -21.5630   -3.4540   25.7737 F   0  0  0  0  0  0
  -30.0364  -13.2790   20.4429 N   0  0  0  0  0  0
  -26.3018  -12.9365   20.3396 N   0  0  0  0  0  0
  -25.9334  -11.6515   20.5806 N   0  0  0  0  0  0
  -22.0489  -12.8222   22.0402 N   0  0  0  0  0  0
  -25.4236  -15.1889   20.4057 N   0  0  0  0  0  0
  -31.8703  -14.5552   20.0610 O   0  0  0  0  0  0
  -21.6635   -6.8889   21.4243 O   0  0  0  0  0  0
  -22.3531  -14.5541   20.6707 O   0  0  0  0  0  0
  -24.6120  -31.8698   23.2116 C   0  0  0  0  0  0
  -25.9021  -32.4835   23.8396 C   0  0  1  0  0  0
  -27.2280  -27.4526   20.0931 C   0  0  0  0  0  0
  -25.5881  -33.8631   24.2331 N   0  0  0  0  0  0
  -23.3982  -30.4957   21.5515 C   0  0  2  0  0  0
  -24.8420  -28.9667   20.1130 C   0  0  0  0  0  0
  -22.7397  -29.4678   22.4992 C   0  0  0  0  0  0
  -18.0274  -28.1384   22.8497 C   0  0  0  0  0  0
  -24.1485  -36.7315   23.2635 C   0  0  0  0  0  0
  -25.9249  -30.8431   21.3597 C   0  0  0  0  0  0
  -26.0011  -29.4792   20.7076 C   0  0  0  0  0  0
  -27.1975  -28.7303   20.6935 C   0  0  0  0  0  0
  -26.0515  -26.9543   19.4857 C   0  0  0  0  0  0
  -24.8606  -27.7022   19.5008 C   0  0  0  0  0  0
  -23.6043  -29.8317   20.1644 C   0  0  0  0  0  0
  -25.4107  -36.3118   24.0340 C   0  0  1  0  0  0
  -20.5859  -28.3667   23.1330 C   0  0  2  0  0  0
  -20.6768  -26.9404   22.5423 C   0  0  0  0  0  0
  -19.5743  -26.6395   21.5217 C   0  0  0  0  0  0
  -18.1921  -26.7931   22.1629 C   0  0  0  0  0  0
  -19.1523  -28.8838   23.2908 C   0  0  0  0  0  0
  -18.9457  -30.1441   23.8928 C   0  0  0  0  0  0
  -17.6464  -30.6592   24.0576 C   0  0  0  0  0  0
  -25.9038  -34.9484   23.5138 C   0  0  0  0  0  0
  -16.5351  -29.9105   23.6325 C   0  0  0  0  0  0
  -16.7263  -28.6518   23.0349 C   0  0  0  0  0  0
  -26.4458  -31.6603   25.0712 C   0  0  0  0  0  0
  -25.3731  -31.3704   26.1465 C   0  0  0  0  0  0
  -27.0275  -30.3056   24.6048 C   0  0  0  0  0  0
  -27.6043  -32.4305   25.7480 C   0  0  0  0  0  0
  -27.5588  -37.1799   24.8455 C   0  0  0  0  0  0
  -21.4128  -29.3035   22.3734 N   0  0  0  0  0  0
  -26.4290  -37.3804   23.9423 N   0  0  0  0  0  0
  -24.6636  -31.0827   22.1003 N   0  0  0  0  0  0
  -23.4186  -28.8207   23.3015 O   0  0  0  0  0  0
  -28.4042  -26.7365   20.1204 O   0  0  0  0  0  0
  -26.5601  -34.8928   22.4700 O   0  0  0  0  0  0
  -23.5318  -32.1435   23.7529 O   0  0  0  0  0  0
  -31.9821  -17.1048   21.3824 C   0  0  0  0  0  0
  -29.8854  -17.9886   21.2287 C   0  0  0  0  0  0
  -30.6614  -16.7857   21.2723 C   0  0  0  0  0  0
  -30.8034  -19.0242   21.2101 C   0  0  0  0  0  0
  -33.7286  -19.8069   19.9480 C   0  0  0  0  0  0
  -34.4571  -18.5749   20.4282 C   0  0  0  0  0  0
  -29.8995  -21.0155   19.8593 C   0  0  0  0  0  0
  -29.9997  -21.1847   22.3494 C   0  0  0  0  0  0
  -29.9467  -22.5544   19.7598 C   0  0  0  0  0  0
  -30.0736  -22.7208   22.2279 C   0  0  0  0  0  0
  -30.6378  -20.5289   21.1172 C   0  0  1  0  0  0
  -33.3603  -19.1852   21.2787 C   0  0  0  0  0  0
  -27.6608  -17.3332   22.2774 C   0  0  0  0  0  0
  -27.8462  -17.7255   19.7685 C   0  0  0  0  0  0
  -29.4778  -24.7122   20.8926 C   0  0  0  0  0  0
  -28.2957  -25.3105   20.1118 C   0  0  0  0  0  0
  -28.3723  -18.1093   21.1583 C   0  0  0  0  0  0
  -32.0875  -18.4716   21.2713 N   0  0  0  0  0  0
  -30.1520  -15.4523   21.2048 N   0  0  0  0  0  0
  -29.4216  -23.2239   20.9856 N   0  3  1  0  0  0
  -31.4517  -12.3389   19.1255 H   0  0  0  0  0  0
  -30.2728  -11.2742   19.8293 H   0  0  0  0  0  0
  -29.7199  -11.7695   17.4276 H   0  0  0  0  0  0
  -29.6655  -13.4812   17.7743 H   0  0  0  0  0  0
  -27.8194  -11.3102   18.8255 H   0  0  0  0  0  0
  -27.3581  -12.6353   17.7911 H   0  0  0  0  0  0
  -27.7015  -14.2581   19.5711 H   0  0  0  0  0  0
  -28.6645  -11.9844   21.3730 H   0  0  0  0  0  0
  -28.4716  -13.6404   21.8600 H   0  0  0  0  0  0
  -25.2768   -9.5673   22.4774 H   0  0  0  0  0  0
  -24.0003   -7.4628   22.7475 H   0  0  0  0  0  0
  -21.0853   -8.8792   19.8950 H   0  0  0  0  0  0
  -22.3728  -10.9684   19.6174 H   0  0  0  0  0  0
  -21.1997   -7.6150   23.9724 H   0  0  0  0  0  0
  -21.1478   -6.0523   25.9083 H   0  0  0  0  0  0
  -22.0597   -2.7614   23.2844 H   0  0  0  0  0  0
  -22.4100  -11.9878   22.4779 H   0  0  0  0  0  0
  -21.1110  -13.1248   22.2614 H   0  0  0  0  0  0
  -24.6525  -15.8383   20.5140 H   0  0  0  0  0  0
  -26.2783  -15.6337   20.0987 H   0  0  0  0  0  0
  -26.7098  -32.5567   23.1168 H   0  0  0  0  0  0
  -25.0003  -33.9793   25.0455 H   0  0  0  0  0  0
  -22.6859  -31.3123   21.4155 H   0  0  0  0  0  0
  -23.3756  -35.9638   23.3281 H   0  0  0  0  0  0
  -24.3587  -36.8953   22.2053 H   0  0  0  0  0  0
  -23.7217  -37.6508   23.6660 H   0  0  0  0  0  0
  -26.0298  -31.6094   20.5903 H   0  0  0  0  0  0
  -26.8152  -30.8993   21.9744 H   0  0  0  0  0  0
  -28.0928  -29.1205   21.1570 H   0  0  0  0  0  0
  -26.0356  -25.9940   18.9909 H   0  0  0  0  0  0
  -23.9696  -27.3038   19.0344 H   0  0  0  0  0  0
  -23.7114  -30.6082   19.4063 H   0  0  0  0  0  0
  -22.7287  -29.2510   19.8698 H   0  0  0  0  0  0
  -25.1277  -36.1988   25.0832 H   0  0  0  0  0  0
  -20.9958  -28.3236   24.1447 H   0  0  0  0  0  0
  -20.5696  -26.2267   23.3605 H   0  0  0  0  0  0
  -21.6636  -26.7462   22.1197 H   0  0  0  0  0  0
  -19.6911  -25.6312   21.1228 H   0  0  0  0  0  0
  -19.6696  -27.3222   20.6760 H   0  0  0  0  0  0
  -17.4192  -26.6681   21.4024 H   0  0  0  0  0  0
  -18.0315  -26.0071   22.9021 H   0  0  0  0  0  0
  -19.7936  -30.7234   24.2326 H   0  0  0  0  0  0
  -17.5027  -31.6282   24.5158 H   0  0  0  0  0  0
  -15.5357  -30.3025   23.7635 H   0  0  0  0  0  0
  -15.8658  -28.0855   22.7055 H   0  0  0  0  0  0
  -24.5889  -30.7072   25.7792 H   0  0  0  0  0  0
  -24.8935  -32.2862   26.4939 H   0  0  0  0  0  0
  -25.8075  -30.8844   27.0211 H   0  0  0  0  0  0
  -26.2800  -29.6840   24.1109 H   0  0  0  0  0  0
  -27.4074  -29.7271   25.4478 H   0  0  0  0  0  0
  -27.8622  -30.4393   23.9165 H   0  0  0  0  0  0
  -27.2675  -33.3599   26.2082 H   0  0  0  0  0  0
  -28.3847  -32.6868   25.0303 H   0  0  0  0  0  0
  -28.0706  -31.8406   26.5379 H   0  0  0  0  0  0
  -28.2567  -38.0132   24.7566 H   0  0  0  0  0  0
  -28.1120  -36.2668   24.6202 H   0  0  0  0  0  0
  -27.2307  -37.1359   25.8853 H   0  0  0  0  0  0
  -20.9274  -29.8777   21.6981 H   0  0  0  0  0  0
  -26.0183  -38.2879   24.1464 H   0  0  0  0  0  0
  -32.8660  -16.4870   21.4675 H   0  0  0  0  0  0
  -33.0362  -19.6859   19.1162 H   0  0  0  0  0  0
  -34.2689  -20.7514   19.9690 H   0  0  0  0  0  0
  -35.4848  -18.7052   20.7616 H   0  0  0  0  0  0
  -34.2610  -17.6485   19.8917 H   0  0  0  0  0  0
  -30.3663  -20.5870   18.9712 H   0  0  0  0  0  0
  -28.8643  -20.6792   19.8528 H   0  0  0  0  0  0
  -28.9666  -20.8663   22.4799 H   0  0  0  0  0  0
  -30.5301  -20.8722   23.2489 H   0  0  0  0  0  0
  -29.3776  -22.8732   18.8856 H   0  0  0  0  0  0
  -30.9762  -22.8724   19.5876 H   0  0  0  0  0  0
  -31.1166  -23.0427   22.2428 H   0  0  0  0  0  0
  -29.6004  -23.1708   23.1019 H   0  0  0  0  0  0
  -31.6270  -20.9764   21.0520 H   0  0  0  0  0  0
  -33.5872  -19.6846   22.2191 H   0  0  0  0  0  0
  -28.0282  -17.6366   23.2582 H   0  0  0  0  0  0
  -27.7933  -16.2564   22.1882 H   0  0  0  0  0  0
  -26.5873  -17.5256   22.2597 H   0  0  0  0  0  0
  -28.2918  -18.3532   18.9967 H   0  0  0  0  0  0
  -26.7647  -17.8540   19.7095 H   0  0  0  0  0  0
  -28.0764  -16.6899   19.5211 H   0  0  0  0  0  0
  -29.4535  -25.1428   21.8947 H   0  0  0  0  0  0
  -30.4248  -25.0294   20.4533 H   0  0  0  0  0  0
  -27.3744  -24.9784   20.5944 H   0  0  0  0  0  0
  -28.2777  -24.9558   19.0809 H   0  0  0  0  0  0
  -28.1179  -19.1546   21.3165 H   0  0  0  0  0  0
  -29.1986  -15.3026   21.4947 H   0  0  0  0  0  0
  -28.4462  -22.9724   21.0691 H   0  0  0  0  0  0
  1 25  1  0  0  0
  1 30  2  0  0  0
  1 89  1  0  0  0
  2  3  1  0  0  0
  2 25  1  0  0  0
  2 91  1  0  0  0
  2 92  1  0  0  0
  3  4  1  0  0  0
  3 93  1  0  0  0
  3 94  1  0  0  0
  4  5  1  0  0  0
  4 95  1  0  0  0
  4 96  1  0  0  0
  5  6  1  0  0  0
  5 26  1  0  0  0
  5 97  1  0  0  0
  6 25  1  0  0  0
  6 98  1  0  0  0
  6 99  1  0  0  0
  7  8  2  0  0  0
  7 26  1  0  0  0
  7 29  1  0  0  0
  8  9  1  0  0  0
  8 22  1  0  0  0
  9 10  1  0  0  0
  9 27  2  0  0  0
 10 11  2  0  0  0
 10 15  1  0  0  0
 11 12  1  0  0  0
 11100  1  0  0  0
 12 13  2  0  0  0
 12101  1  0  0  0
 13 14  1  0  0  0
 13 31  1  0  0  0
 14 15  2  0  0  0
 14102  1  0  0  0
 15103  1  0  0  0
 16 17  2  0  0  0
 16 21  1  0  0  0
 16 31  1  0  0  0
 17 18  1  0  0  0
 17104  1  0  0  0
 18 19  2  0  0  0
 18105  1  0  0  0
 19 20  1  0  0  0
 19 24  1  0  0  0
 20 21  2  0  0  0
 20106  1  0  0  0
 21 23  1  0  0  0
 22 28  1  0  0  0
 22 32  2  0  0  0
 26 27  1  0  0  0
 28107  1  0  0  0
 28108  1  0  0  0
 29109  1  0  0  0
 29110  1  0  0  0
 33 34  1  0  0  0
 33 66  1  0  0  0
 33 70  2  0  0  0
 34 36  1  0  0  0
 34 59  1  0  0  0
 34111  1  0  0  0
 35 44  2  0  0  0
 35 45  1  0  0  0
 35 68  1  0  0  0
 36 56  1  0  0  0
 36112  1  0  0  0
 37 39  1  0  0  0
 37 47  1  0  0  0
 37 66  1  0  0  0
 37113  1  0  0  0
 38 43  2  0  0  0
 38 46  1  0  0  0
 38 47  1  0  0  0
 39 64  1  0  0  0
 39 67  2  0  0  0
 40 52  1  0  0  0
 40 53  2  0  0  0
 40 58  1  0  0  0
 41114  1  0  0  0
 41115  1  0  0  0
 41116  1  0  0  0
 41 48  1  0  0  0
 42 43  1  0  0  0
 42 66  1  0  0  0
 42117  1  0  0  0
 42118  1  0  0  0
 43 44  1  0  0  0
 44119  1  0  0  0
 45 46  2  0  0  0
 45120  1  0  0  0
 46121  1  0  0  0
 47122  1  0  0  0
 47123  1  0  0  0
 48 56  1  0  0  0
 48 65  1  0  0  0
 48124  1  0  0  0
 49 50  1  0  0  0
 49 53  1  0  0  0
 49 64  1  0  0  0
 49125  1  0  0  0
 50 51  1  0  0  0
 50126  1  0  0  0
 50127  1  0  0  0
 51 52  1  0  0  0
 51128  1  0  0  0
 51129  1  0  0  0
 52130  1  0  0  0
 52131  1  0  0  0
 53 54  1  0  0  0
 54 55  2  0  0  0
 54132  1  0  0  0
 55 57  1  0  0  0
 55133  1  0  0  0
 56 69  2  0  0  0
 57 58  2  0  0  0
 57134  1  0  0  0
 58135  1  0  0  0
 59 60  1  0  0  0
 59 61  1  0  0  0
 59 62  1  0  0  0
 60136  1  0  0  0
 60137  1  0  0  0
 60138  1  0  0  0
 61139  1  0  0  0
 61140  1  0  0  0
 61141  1  0  0  0
 62142  1  0  0  0
 62143  1  0  0  0
 62144  1  0  0  0
 63 65  1  0  0  0
 63145  1  0  0  0
 63146  1  0  0  0
 63147  1  0  0  0
 64148  1  0  0  0
 65149  1  0  0  0
 68 86  1  0  0  0
 71 73  2  0  0  0
 71 88  1  0  0  0
 71150  1  0  0  0
 72 73  1  0  0  0
 72 74  2  0  0  0
 72 87  1  0  0  0
 73 89  1  0  0  0
 74 88  1  0  0  0
 74 81  1  0  0  0
 75 76  1  0  0  0
 75 82  1  0  0  0
 75151  1  0  0  0
 75152  1  0  0  0
 76 82  1  0  0  0
 76153  1  0  0  0
 76154  1  0  0  0
 77 79  1  0  0  0
 77 81  1  0  0  0
 77155  1  0  0  0
 77156  1  0  0  0
 78 80  1  0  0  0
 78 81  1  0  0  0
 78157  1  0  0  0
 78158  1  0  0  0
 79 90  1  0  0  0
 79159  1  0  0  0
 79160  1  0  0  0
 80 90  1  0  0  0
 80161  1  0  0  0
 80162  1  0  0  0
 81163  1  0  0  0
 82 88  1  0  0  0
 82164  1  0  0  0
 83165  1  0  0  0
 83166  1  0  0  0
 83167  1  0  0  0
 83 87  1  0  0  0
 84 87  1  0  0  0
 84168  1  0  0  0
 84169  1  0  0  0
 84170  1  0  0  0
 85 86  1  0  0  0
 85171  1  0  0  0
 85172  1  0  0  0
 85 90  1  0  0  0
 86173  1  0  0  0
 86174  1  0  0  0
 87175  1  0  0  0
 89176  1  0  0  0
 90177  1  0  0  0
M  CHG  1  90   1
M  ISO  4   1 100  68 101  86 101  89 100
M  END
> <chiral flag>
0

> <version>
0

> <s_m_source_file>
/data/baiqing/PycharmProjects/Reinvent-master-3.2/result/LINK_invent/BTK/process_docking_weight1_custom_sum_contain_oxygen_bond_distance_aromatic_linkinvent_7_9_3/rearranged_h_0154.sdf

> <i_m_source_file_index>
96

> <r_mmod_Potential_Energy-OPLS-2005>
-87.0314712524414

> <r_mmod_Stretch_Energy-OPLS-2005>
36.6159744262695

> <r_mmod_Bend_Energy-OPLS-2005>
114.319778442383

> <r_mmod_Torsional_Energy-OPLS-2005>
310.130645751953

> <r_mmod_Improper_Torsional_Energy-OPLS-2005>
3.21641802787781

> <r_mmod_Van_der_Waal_Energy-OPLS-2005>
133.098693847656

> <r_mmod_Electrostatic_Energy-OPLS-2005>
-271.052429199219

> <r_mmod_Solvation_Energy-OPLS-2005>
-425.692626953125

> <b_mmod_Minimization_Converged-OPLS-2005>
0

> <r_mmod_RMS_Derivative-OPLS-2005>
1.39312589168549

$$$$
97
                    3D
 Structure written by MMmdl.
173182  0  0  1  0            999 V2000
  -30.6348  -14.6888   20.4769 C   0  0  0  0  0  0
  -30.4276  -12.4205   19.4672 C   0  0  0  0  0  0
  -29.5044  -12.4940   18.2321 C   0  0  0  0  0  0
  -28.0310  -12.3266   18.6491 C   0  0  0  0  0  0
  -27.6421  -13.2276   19.8518 C   0  0  2  0  0  0
  -28.6854  -13.1444   20.9878 C   0  0  0  0  0  0
  -25.2503  -13.8197   20.5688 C   0  0  0  0  0  0
  -24.1793  -13.0442   20.9203 C   0  0  0  0  0  0
  -24.6385  -11.6922   20.8748 C   0  0  0  0  0  0
  -23.9069  -10.4294   21.0407 C   0  0  0  0  0  0
  -24.3617   -9.4201   21.9186 C   0  0  0  0  0  0
  -23.6288   -8.2236   22.0754 C   0  0  0  0  0  0
  -22.4275   -8.0272   21.3542 C   0  0  0  0  0  0
  -21.9917   -9.0245   20.4642 C   0  0  0  0  0  0
  -22.7245  -10.2123   20.3055 C   0  0  0  0  0  0
  -21.6850   -6.0731   22.5277 C   0  0  0  0  0  0
  -21.4013   -6.5635   23.8211 C   0  0  0  0  0  0
  -21.3658   -5.6786   24.9171 C   0  0  0  0  0  0
  -21.6043   -4.3052   24.7222 C   0  0  0  0  0  0
  -21.8821   -3.8145   23.4343 C   0  0  0  0  0  0
  -21.9188   -4.6959   22.3397 C   0  0  0  0  0  0
  -22.7813  -13.5216   21.1867 C   0  0  0  0  0  0
  -22.1657   -4.2146   21.0977 F   0  0  0  0  0  0
  -21.5630   -3.4540   25.7736 F   0  0  0  0  0  0
  -29.9927  -13.4776   20.4075 N   0  0  0  0  0  0
  -26.2929  -12.9398   20.3286 N   0  0  0  0  0  0
  -25.9309  -11.6542   20.5759 N   0  0  0  0  0  0
  -22.0455  -12.8199   22.0425 N   0  0  0  0  0  0
  -25.4207  -15.1921   20.4104 N   0  0  0  0  0  0
  -31.8158  -14.7838   20.1344 O   0  0  0  0  0  0
  -21.6636   -6.8869   21.4240 O   0  0  0  0  0  0
  -22.3489  -14.5518   20.6717 O   0  0  0  0  0  0
  -24.6260  -31.8572   23.1998 C   0  0  0  0  0  0
  -25.9111  -32.4762   23.8321 C   0  0  1  0  0  0
  -27.2187  -27.2886   20.1203 C   0  0  0  0  0  0
  -25.5925  -33.8565   24.2244 N   0  0  0  0  0  0
  -23.4204  -30.4787   21.5436 C   0  0  2  0  0  0
  -24.8662  -28.9294   20.1045 C   0  0  0  0  0  0
  -22.7472  -29.4600   22.4940 C   0  0  0  0  0  0
  -18.0285  -28.1376   22.8493 C   0  0  0  0  0  0
  -24.1493  -36.7278   23.2641 C   0  0  0  0  0  0
  -25.9629  -30.7747   21.3787 C   0  0  0  0  0  0
  -26.0324  -29.4009   20.7189 C   0  0  0  0  0  0
  -27.2052  -28.5868   20.7257 C   0  0  0  0  0  0
  -26.0342  -26.8816   19.4678 C   0  0  0  0  0  0
  -24.8703  -27.6752   19.4732 C   0  0  0  0  0  0
  -23.6324  -29.8084   20.1600 C   0  0  0  0  0  0
  -25.4128  -36.3074   24.0324 C   0  0  1  0  0  0
  -20.5885  -28.3678   23.1284 C   0  0  2  0  0  0
  -20.6772  -26.9394   22.5415 C   0  0  0  0  0  0
  -19.5742  -26.6364   21.5221 C   0  0  0  0  0  0
  -18.1917  -26.7924   22.1618 C   0  0  0  0  0  0
  -19.1539  -28.8849   23.2879 C   0  0  0  0  0  0
  -18.9464  -30.1459   23.8877 C   0  0  0  0  0  0
  -17.6466  -30.6578   24.0570 C   0  0  0  0  0  0
  -25.9065  -34.9446   23.5086 C   0  0  0  0  0  0
  -16.5357  -29.9071   23.6348 C   0  0  0  0  0  0
  -16.7278  -28.6498   23.0357 C   0  0  0  0  0  0
  -26.4492  -31.6598   25.0715 C   0  0  0  0  0  0
  -25.3703  -31.3744   26.1427 C   0  0  0  0  0  0
  -27.0362  -30.3023   24.6202 C   0  0  0  0  0  0
  -27.6028  -32.4379   25.7487 C   0  0  0  0  0  0
  -27.5585  -37.1787   24.8466 C   0  0  0  0  0  0
  -21.4191  -29.3036   22.3683 N   0  0  0  0  0  0
  -26.4302  -37.3775   23.9413 N   0  0  0  0  0  0
  -24.6882  -31.0550   22.0963 N   0  0  0  0  0  0
  -23.4194  -28.8135   23.3011 O   0  0  0  0  0  0
  -28.3344  -26.4383   20.2377 O   0  0  0  0  0  0
  -26.5632  -34.8923   22.4652 O   0  0  0  0  0  0
  -23.5422  -32.1394   23.7307 O   0  0  0  0  0  0
  -27.6947  -21.1186   21.4263 C   0  0  0  0  0  0
  -28.9074  -21.2493   20.7245 C   0  0  0  0  0  0
  -26.8004  -22.1941   21.5892 C   0  0  0  0  0  0
  -29.1743  -22.5673   20.1481 C   0  0  0  0  0  0
  -28.2756  -23.7090   20.3186 C   0  0  0  0  0  0
  -27.0960  -23.4809   21.0720 C   0  0  0  0  0  0
  -31.8639  -18.9113   21.9930 C   0  0  0  0  0  0
  -31.2403  -17.5091   21.9807 C   0  0  0  0  0  0
  -29.2938  -18.4774   20.6517 C   0  0  0  0  0  0
  -29.8881  -19.9813   20.7446 C   0  0  2  0  0  0
  -30.7999  -20.0286   22.0081 C   0  0  2  0  0  0
  -30.3650  -17.2725   20.7374 C   0  0  2  0  0  0
  -25.4950  -21.9247   22.3200 C   0  0  0  0  0  0
  -30.4424  -22.7962   19.3320 C   0  0  0  0  0  0
  -31.4812  -21.3865   22.2578 C   0  0  0  0  0  0
  -26.2334  -25.1099   22.5222 C   0  0  0  0  0  0
  -28.4638  -25.1113   19.5694 C   0  0  0  0  0  0
  -29.8913  -15.8236   20.7433 N   0  0  0  0  0  0
  -26.1888  -24.4923   21.2417 O   0  0  0  0  0  0
  -31.4702  -12.5341   19.1639 H   0  0  0  0  0  0
  -30.3610  -11.4407   19.9420 H   0  0  0  0  0  0
  -29.7760  -11.7212   17.5118 H   0  0  0  0  0  0
  -29.6398  -13.4497   17.7239 H   0  0  0  0  0  0
  -27.8865  -11.2790   18.9157 H   0  0  0  0  0  0
  -27.3711  -12.5151   17.8011 H   0  0  0  0  0  0
  -27.6426  -14.2510   19.4761 H   0  0  0  0  0  0
  -28.7067  -12.1449   21.4234 H   0  0  0  0  0  0
  -28.4281  -13.8254   21.8005 H   0  0  0  0  0  0
  -25.2758   -9.5669   22.4767 H   0  0  0  0  0  0
  -23.9988   -7.4624   22.7483 H   0  0  0  0  0  0
  -21.0844   -8.8761   19.8943 H   0  0  0  0  0  0
  -22.3707  -10.9658   19.6161 H   0  0  0  0  0  0
  -21.2013   -7.6142   23.9713 H   0  0  0  0  0  0
  -21.1482   -6.0519   25.9071 H   0  0  0  0  0  0
  -22.0606   -2.7606   23.2846 H   0  0  0  0  0  0
  -22.4059  -11.9854   22.4803 H   0  0  0  0  0  0
  -21.1076  -13.1226   22.2642 H   0  0  0  0  0  0
  -24.6541  -15.8479   20.5183 H   0  0  0  0  0  0
  -26.2674  -15.6298   20.0711 H   0  0  0  0  0  0
  -26.7162  -32.5418   23.1045 H   0  0  0  0  0  0
  -25.0126  -33.9705   25.0423 H   0  0  0  0  0  0
  -22.7154  -31.3006   21.3987 H   0  0  0  0  0  0
  -23.3779  -35.9582   23.3303 H   0  0  0  0  0  0
  -24.3581  -36.8915   22.2054 H   0  0  0  0  0  0
  -23.7219  -37.6463   23.6678 H   0  0  0  0  0  0
  -26.1033  -31.5381   20.6120 H   0  0  0  0  0  0
  -26.8382  -30.8176   22.0146 H   0  0  0  0  0  0
  -28.0936  -28.9306   21.2359 H   0  0  0  0  0  0
  -25.9628  -25.9151   18.9941 H   0  0  0  0  0  0
  -23.9737  -27.3012   18.9978 H   0  0  0  0  0  0
  -23.7404  -30.5806   19.3979 H   0  0  0  0  0  0
  -22.7524  -29.2319   19.8685 H   0  0  0  0  0  0
  -25.1307  -36.1918   25.0815 H   0  0  0  0  0  0
  -20.9972  -28.3257   24.1408 H   0  0  0  0  0  0
  -20.5680  -26.2289   23.3623 H   0  0  0  0  0  0
  -21.6638  -26.7421   22.1201 H   0  0  0  0  0  0
  -19.6911  -25.6274   21.1243 H   0  0  0  0  0  0
  -19.6678  -27.3181   20.6757 H   0  0  0  0  0  0
  -17.4193  -26.6718   21.4002 H   0  0  0  0  0  0
  -18.0283  -26.0051   22.8987 H   0  0  0  0  0  0
  -19.7942  -30.7290   24.2210 H   0  0  0  0  0  0
  -17.5016  -31.6257   24.5169 H   0  0  0  0  0  0
  -15.5353  -30.2954   23.7693 H   0  0  0  0  0  0
  -15.8689  -28.0816   22.7061 H   0  0  0  0  0  0
  -24.5899  -30.7072   25.7754 H   0  0  0  0  0  0
  -24.8861  -32.2904   26.4814 H   0  0  0  0  0  0
  -25.7997  -30.8950   27.0227 H   0  0  0  0  0  0
  -26.2956  -29.6757   24.1215 H   0  0  0  0  0  0
  -27.4057  -29.7302   25.4722 H   0  0  0  0  0  0
  -27.8817  -30.4341   23.9453 H   0  0  0  0  0  0
  -27.2623  -33.3706   26.2002 H   0  0  0  0  0  0
  -28.3847  -32.6912   25.0317 H   0  0  0  0  0  0
  -28.0683  -31.8560   26.5448 H   0  0  0  0  0  0
  -28.2585  -38.0101   24.7546 H   0  0  0  0  0  0
  -28.1097  -36.2630   24.6254 H   0  0  0  0  0  0
  -27.2303  -37.1397   25.8868 H   0  0  0  0  0  0
  -20.9365  -29.8784   21.6922 H   0  0  0  0  0  0
  -26.0183  -38.2852   24.1411 H   0  0  0  0  0  0
  -27.4401  -20.1698   21.8737 H   0  0  0  0  0  0
  -32.5272  -19.0342   21.1354 H   0  0  0  0  0  0
  -32.4939  -18.9942   22.8796 H   0  0  0  0  0  0
  -30.6447  -17.3694   22.8842 H   0  0  0  0  0  0
  -32.0416  -16.7699   22.0291 H   0  0  0  0  0  0
  -28.7209  -18.3856   19.7285 H   0  0  0  0  0  0
  -28.5766  -18.3341   21.4591 H   0  0  0  0  0  0
  -30.5302  -20.0547   19.8714 H   0  0  0  0  0  0
  -30.1563  -19.8539   22.8717 H   0  0  0  0  0  0
  -31.0069  -17.3716   19.8601 H   0  0  0  0  0  0
  -25.1670  -20.8968   22.1627 H   0  0  0  0  0  0
  -24.6936  -22.5768   21.9707 H   0  0  0  0  0  0
  -25.6215  -22.0739   23.3924 H   0  0  0  0  0  0
  -31.0685  -21.9200   19.2046 H   0  0  0  0  0  0
  -31.0645  -23.5543   19.8088 H   0  0  0  0  0  0
  -30.1879  -23.1415   18.3295 H   0  0  0  0  0  0
  -32.0814  -21.6963   21.4029 H   0  0  0  0  0  0
  -32.1447  -21.3423   23.1223 H   0  0  0  0  0  0
  -30.7530  -22.1702   22.4667 H   0  0  0  0  0  0
  -26.0799  -24.4000   23.3348 H   0  0  0  0  0  0
  -25.4433  -25.8583   22.5866 H   0  0  0  0  0  0
  -27.1862  -25.6156   22.6822 H   0  0  0  0  0  0
  -27.8695  -25.0760   18.6577 H   0  0  0  0  0  0
  -29.4831  -25.1508   19.1944 H   0  0  0  0  0  0
  -28.9176  -15.6665   20.9541 H   0  0  0  0  0  0
  1 25  1  0  0  0
  1 30  2  0  0  0
  1 88  1  0  0  0
  2  3  1  0  0  0
  2 25  1  0  0  0
  2 90  1  0  0  0
  2 91  1  0  0  0
  3  4  1  0  0  0
  3 92  1  0  0  0
  3 93  1  0  0  0
  4  5  1  0  0  0
  4 94  1  0  0  0
  4 95  1  0  0  0
  5  6  1  0  0  0
  5 26  1  0  0  0
  5 96  1  0  0  0
  6 25  1  0  0  0
  6 97  1  0  0  0
  6 98  1  0  0  0
  7  8  2  0  0  0
  7 26  1  0  0  0
  7 29  1  0  0  0
  8  9  1  0  0  0
  8 22  1  0  0  0
  9 10  1  0  0  0
  9 27  2  0  0  0
 10 11  2  0  0  0
 10 15  1  0  0  0
 11 12  1  0  0  0
 11 99  1  0  0  0
 12 13  2  0  0  0
 12100  1  0  0  0
 13 14  1  0  0  0
 13 31  1  0  0  0
 14 15  2  0  0  0
 14101  1  0  0  0
 15102  1  0  0  0
 16 17  2  0  0  0
 16 21  1  0  0  0
 16 31  1  0  0  0
 17 18  1  0  0  0
 17103  1  0  0  0
 18 19  2  0  0  0
 18104  1  0  0  0
 19 20  1  0  0  0
 19 24  1  0  0  0
 20 21  2  0  0  0
 20105  1  0  0  0
 21 23  1  0  0  0
 22 28  1  0  0  0
 22 32  2  0  0  0
 26 27  1  0  0  0
 28106  1  0  0  0
 28107  1  0  0  0
 29108  1  0  0  0
 29109  1  0  0  0
 33 34  1  0  0  0
 33 66  1  0  0  0
 33 70  2  0  0  0
 34 36  1  0  0  0
 34 59  1  0  0  0
 34110  1  0  0  0
 35 44  2  0  0  0
 35 45  1  0  0  0
 35 68  1  0  0  0
 36 56  1  0  0  0
 36111  1  0  0  0
 37 39  1  0  0  0
 37 47  1  0  0  0
 37 66  1  0  0  0
 37112  1  0  0  0
 38 43  2  0  0  0
 38 46  1  0  0  0
 38 47  1  0  0  0
 39 64  1  0  0  0
 39 67  2  0  0  0
 40 52  1  0  0  0
 40 53  2  0  0  0
 40 58  1  0  0  0
 41113  1  0  0  0
 41114  1  0  0  0
 41115  1  0  0  0
 41 48  1  0  0  0
 42 43  1  0  0  0
 42 66  1  0  0  0
 42116  1  0  0  0
 42117  1  0  0  0
 43 44  1  0  0  0
 44118  1  0  0  0
 45 46  2  0  0  0
 45119  1  0  0  0
 46120  1  0  0  0
 47121  1  0  0  0
 47122  1  0  0  0
 48 56  1  0  0  0
 48 65  1  0  0  0
 48123  1  0  0  0
 49 50  1  0  0  0
 49 53  1  0  0  0
 49 64  1  0  0  0
 49124  1  0  0  0
 50 51  1  0  0  0
 50125  1  0  0  0
 50126  1  0  0  0
 51 52  1  0  0  0
 51127  1  0  0  0
 51128  1  0  0  0
 52129  1  0  0  0
 52130  1  0  0  0
 53 54  1  0  0  0
 54 55  2  0  0  0
 54131  1  0  0  0
 55 57  1  0  0  0
 55132  1  0  0  0
 56 69  2  0  0  0
 57 58  2  0  0  0
 57133  1  0  0  0
 58134  1  0  0  0
 59 60  1  0  0  0
 59 61  1  0  0  0
 59 62  1  0  0  0
 60135  1  0  0  0
 60136  1  0  0  0
 60137  1  0  0  0
 61138  1  0  0  0
 61139  1  0  0  0
 61140  1  0  0  0
 62141  1  0  0  0
 62142  1  0  0  0
 62143  1  0  0  0
 63 65  1  0  0  0
 63144  1  0  0  0
 63145  1  0  0  0
 63146  1  0  0  0
 64147  1  0  0  0
 65148  1  0  0  0
 68 87  1  0  0  0
 71 72  2  0  0  0
 71 73  1  0  0  0
 71149  1  0  0  0
 72 74  1  0  0  0
 72 80  1  0  0  0
 73 76  2  0  0  0
 73 83  1  0  0  0
 74 75  2  0  0  0
 74 84  1  0  0  0
 75 76  1  0  0  0
 75 87  1  0  0  0
 76 89  1  0  0  0
 77 78  1  0  0  0
 77 81  1  0  0  0
 77150  1  0  0  0
 77151  1  0  0  0
 78 82  1  0  0  0
 78152  1  0  0  0
 78153  1  0  0  0
 79 80  1  0  0  0
 79 82  1  0  0  0
 79154  1  0  0  0
 79155  1  0  0  0
 80 81  1  0  0  0
 80156  1  0  0  0
 81 85  1  0  0  0
 81157  1  0  0  0
 82 88  1  0  0  0
 82158  1  0  0  0
 83159  1  0  0  0
 83160  1  0  0  0
 83161  1  0  0  0
 84162  1  0  0  0
 84163  1  0  0  0
 84164  1  0  0  0
 85165  1  0  0  0
 85166  1  0  0  0
 85167  1  0  0  0
 86 89  1  0  0  0
 86168  1  0  0  0
 86169  1  0  0  0
 86170  1  0  0  0
 87171  1  0  0  0
 87172  1  0  0  0
 88173  1  0  0  0
M  ISO  4   1 100  68 101  87 101  88 100
M  END
> <chiral flag>
0

> <version>
0

> <s_m_source_file>
/data/baiqing/PycharmProjects/Reinvent-master-3.2/result/LINK_invent/BTK/process_docking_weight1_custom_sum_contain_oxygen_bond_distance_aromatic_linkinvent_7_9_3/rearranged_h_0154.sdf

> <i_m_source_file_index>
97

> <r_mmod_Potential_Energy-OPLS-2005>
196.361740112305

> <r_mmod_Stretch_Energy-OPLS-2005>
119.678596496582

> <r_mmod_Bend_Energy-OPLS-2005>
173.095062255859

> <r_mmod_Torsional_Energy-OPLS-2005>
257.390533447266

> <r_mmod_Improper_Torsional_Energy-OPLS-2005>
5.31420040130615

> <r_mmod_Van_der_Waal_Energy-OPLS-2005>
142.824798583984

> <r_mmod_Electrostatic_Energy-OPLS-2005>
-369.156494140625

> <r_mmod_Solvation_Energy-OPLS-2005>
-200.327377319336

> <b_mmod_Minimization_Converged-OPLS-2005>
0

> <r_mmod_RMS_Derivative-OPLS-2005>
1.67011654376984

$$$$
98
                    3D
 Structure written by MMmdl.
167176  0  0  1  0            999 V2000
  -30.4187  -15.3435   20.3791 C   0  0  0  0  0  0
  -30.4345  -12.8692   19.5387 C   0  0  0  0  0  0
  -29.5393  -12.5932   18.3040 C   0  0  0  0  0  0
  -28.0970  -12.2912   18.7383 C   0  0  0  0  0  0
  -27.6081  -13.2812   19.8236 C   0  0  2  0  0  0
  -28.6330  -13.4986   20.9586 C   0  0  0  0  0  0
  -25.2381  -13.8247   20.5764 C   0  0  0  0  0  0
  -24.1730  -13.0434   20.9257 C   0  0  0  0  0  0
  -24.6391  -11.6933   20.8753 C   0  0  0  0  0  0
  -23.9094  -10.4289   21.0397 C   0  0  0  0  0  0
  -24.3631   -9.4203   21.9182 C   0  0  0  0  0  0
  -23.6301   -8.2243   22.0753 C   0  0  0  0  0  0
  -22.4293   -8.0275   21.3536 C   0  0  0  0  0  0
  -21.9922   -9.0250   20.4644 C   0  0  0  0  0  0
  -22.7257  -10.2127   20.3051 C   0  0  0  0  0  0
  -21.6852   -6.0734   22.5278 C   0  0  0  0  0  0
  -21.4015   -6.5640   23.8210 C   0  0  0  0  0  0
  -21.3659   -5.6792   24.9172 C   0  0  0  0  0  0
  -21.6043   -4.3057   24.7219 C   0  0  0  0  0  0
  -21.8822   -3.8148   23.4345 C   0  0  0  0  0  0
  -21.9196   -4.6963   22.3403 C   0  0  0  0  0  0
  -22.7747  -13.5179   21.1910 C   0  0  0  0  0  0
  -22.1665   -4.2145   21.0982 F   0  0  0  0  0  0
  -21.5624   -3.4545   25.7738 F   0  0  0  0  0  0
  -29.8561  -14.0276   20.3299 N   0  0  0  0  0  0
  -26.2800  -12.9532   20.3228 N   0  0  0  0  0  0
  -25.9328  -11.6632   20.5713 N   0  0  0  0  0  0
  -22.0415  -12.8147   22.0457 N   0  0  0  0  0  0
  -25.4030  -15.1983   20.4229 N   0  0  0  0  0  0
  -31.6384  -15.3117   20.1550 O   0  0  0  0  0  0
  -21.6648   -6.8875   21.4243 O   0  0  0  0  0  0
  -22.3432  -14.5478   20.6756 O   0  0  0  0  0  0
  -24.6650  -31.8222   23.1680 C   0  0  0  0  0  0
  -25.9328  -32.4597   23.8148 C   0  0  1  0  0  0
  -27.2188  -26.8944   20.1888 C   0  0  0  0  0  0
  -25.5985  -33.8409   24.2069 N   0  0  0  0  0  0
  -23.4805  -30.4322   21.5182 C   0  0  2  0  0  0
  -24.9358  -28.8150   20.1065 C   0  0  0  0  0  0
  -22.7690  -29.4424   22.4777 C   0  0  0  0  0  0
  -18.0321  -28.1424   22.8484 C   0  0  0  0  0  0
  -24.1470  -36.7183   23.2639 C   0  0  0  0  0  0
  -26.0509  -30.6177   21.4037 C   0  0  0  0  0  0
  -26.1181  -29.2027   20.7494 C   0  0  0  0  0  0
  -27.2481  -28.2638   20.7696 C   0  0  0  0  0  0
  -26.0155  -26.6760   19.4768 C   0  0  0  0  0  0
  -24.9139  -27.5743   19.4476 C   0  0  0  0  0  0
  -23.7225  -29.7452   20.1441 C   0  0  0  0  0  0
  -25.4122  -36.2973   24.0298 C   0  0  1  0  0  0
  -20.5953  -28.3757   23.1213 C   0  0  2  0  0  0
  -20.6791  -26.9434   22.5429 C   0  0  0  0  0  0
  -19.5767  -26.6394   21.5237 C   0  0  0  0  0  0
  -18.1942  -26.7966   22.1626 C   0  0  0  0  0  0
  -19.1585  -28.8914   23.2827 C   0  0  0  0  0  0
  -18.9491  -30.1506   23.8862 C   0  0  0  0  0  0
  -17.6483  -30.6612   24.0573 C   0  0  0  0  0  0
  -25.9094  -34.9358   23.5009 C   0  0  0  0  0  0
  -16.5374  -29.9101   23.6360 C   0  0  0  0  0  0
  -16.7302  -28.6520   23.0387 C   0  0  0  0  0  0
  -26.4564  -31.6550   25.0690 C   0  0  0  0  0  0
  -25.3681  -31.3825   26.1349 C   0  0  0  0  0  0
  -27.0448  -30.2913   24.6425 C   0  0  0  0  0  0
  -27.6069  -32.4333   25.7498 C   0  0  0  0  0  0
  -27.5559  -37.1760   24.8470 C   0  0  0  0  0  0
  -21.4350  -29.3035   22.3545 N   0  0  0  0  0  0
  -26.4258  -37.3725   23.9422 N   0  0  0  0  0  0
  -24.7536  -30.9867   22.0828 N   0  0  0  0  0  0
  -23.4229  -28.8011   23.3037 O   0  0  0  0  0  0
  -28.2003  -25.7648   20.3358 O   0  0  0  0  0  0
  -26.5697  -34.8900   22.4598 O   0  0  0  0  0  0
  -23.5726  -32.1190   23.6782 O   0  0  0  0  0  0
  -28.5055  -21.2758   22.6643 C   0  0  0  0  0  0
  -28.9296  -20.0414   22.0921 C   0  0  0  0  0  0
  -29.1881  -19.8548   20.7144 C   0  0  0  0  0  0
  -28.9891  -21.2233   19.9919 C   0  0  0  0  0  0
  -28.5416  -22.6062   20.5661 C   0  0  0  0  0  0
  -28.3175  -22.5075   21.9604 C   0  0  0  0  0  0
  -29.2853  -18.8942   23.0204 C   0  0  0  0  0  0
  -30.0165  -18.3142   20.3607 C   0  0  1  0  0  0
  -30.7336  -18.3703   22.8004 C   0  0  1  0  0  0
  -31.2358  -18.4629   21.3175 C   0  0  2  0  0  0
  -29.3169  -21.2141   18.5133 C   0  0  0  0  0  0
  -31.7041  -18.9857   23.8255 C   0  0  0  0  0  0
  -32.0905  -19.7195   21.0121 C   0  0  0  0  0  0
  -27.8196  -23.6945   24.0079 C   0  0  0  0  0  0
  -28.1368  -24.1723   19.8386 C   0  0  0  0  0  0
  -29.6783  -16.6519   20.4862 N   0  0  0  0  0  0
  -27.9155  -23.6694   22.5883 O   0  0  0  0  0  0
  -31.4494  -13.0798   19.1995 H   0  0  0  0  0  0
  -30.5207  -11.9775   20.1615 H   0  0  0  0  0  0
  -29.9384  -11.7631   17.7203 H   0  0  0  0  0  0
  -29.5496  -13.4636   17.6466 H   0  0  0  0  0  0
  -28.0811  -11.2762   19.1385 H   0  0  0  0  0  0
  -27.4259  -12.2944   17.8795 H   0  0  0  0  0  0
  -27.5106  -14.2349   19.3039 H   0  0  0  0  0  0
  -28.8203  -12.5791   21.5146 H   0  0  0  0  0  0
  -28.2525  -14.2263   21.6778 H   0  0  0  0  0  0
  -25.2769   -9.5686   22.4761 H   0  0  0  0  0  0
  -24.0008   -7.4635   22.7472 H   0  0  0  0  0  0
  -21.0852   -8.8766   19.8945 H   0  0  0  0  0  0
  -22.3706  -10.9664   19.6157 H   0  0  0  0  0  0
  -21.2013   -7.6147   23.9705 H   0  0  0  0  0  0
  -21.1473   -6.0528   25.9070 H   0  0  0  0  0  0
  -22.0602   -2.7610   23.2849 H   0  0  0  0  0  0
  -22.4064  -11.9813   22.4830 H   0  0  0  0  0  0
  -21.1025  -13.1131   22.2673 H   0  0  0  0  0  0
  -24.6359  -15.8513   20.5410 H   0  0  0  0  0  0
  -26.2482  -15.6389   20.0842 H   0  0  0  0  0  0
  -26.7401  -32.5130   23.0864 H   0  0  0  0  0  0
  -25.0152  -33.9484   25.0239 H   0  0  0  0  0  0
  -22.7924  -31.2630   21.3486 H   0  0  0  0  0  0
  -23.3768  -35.9478   23.3282 H   0  0  0  0  0  0
  -24.3542  -36.8854   22.2058 H   0  0  0  0  0  0
  -23.7189  -37.6346   23.6708 H   0  0  0  0  0  0
  -26.2320  -31.3530   20.6187 H   0  0  0  0  0  0
  -26.9112  -30.6822   22.0585 H   0  0  0  0  0  0
  -28.1349  -28.5569   21.3146 H   0  0  0  0  0  0
  -25.8770  -25.7317   18.9726 H   0  0  0  0  0  0
  -24.0194  -27.2752   18.9186 H   0  0  0  0  0  0
  -23.8757  -30.5129   19.3856 H   0  0  0  0  0  0
  -22.8320  -29.1999   19.8281 H   0  0  0  0  0  0
  -25.1323  -36.1764   25.0790 H   0  0  0  0  0  0
  -21.0036  -28.3370   24.1338 H   0  0  0  0  0  0
  -20.5660  -26.2381   23.3673 H   0  0  0  0  0  0
  -21.6661  -26.7397   22.1247 H   0  0  0  0  0  0
  -19.6897  -25.6292   21.1299 H   0  0  0  0  0  0
  -19.6722  -27.3178   20.6746 H   0  0  0  0  0  0
  -17.4228  -26.6767   21.3993 H   0  0  0  0  0  0
  -18.0280  -26.0091   22.8994 H   0  0  0  0  0  0
  -19.7956  -30.7347   24.2209 H   0  0  0  0  0  0
  -17.5028  -31.6291   24.5180 H   0  0  0  0  0  0
  -15.5372  -30.3001   23.7692 H   0  0  0  0  0  0
  -15.8702  -28.0826   22.7139 H   0  0  0  0  0  0
  -24.5952  -30.7033   25.7732 H   0  0  0  0  0  0
  -24.8736  -32.3017   26.4492 H   0  0  0  0  0  0
  -25.7929  -30.9255   27.0295 H   0  0  0  0  0  0
  -26.3106  -29.6618   24.1382 H   0  0  0  0  0  0
  -27.3925  -29.7266   25.5085 H   0  0  0  0  0  0
  -27.9088  -30.4091   23.9878 H   0  0  0  0  0  0
  -27.2688  -33.3743   26.1841 H   0  0  0  0  0  0
  -28.4022  -32.6697   25.0417 H   0  0  0  0  0  0
  -28.0556  -31.8571   26.5593 H   0  0  0  0  0  0
  -28.2586  -38.0051   24.7536 H   0  0  0  0  0  0
  -28.1044  -36.2592   24.6274 H   0  0  0  0  0  0
  -27.2284  -37.1384   25.8872 H   0  0  0  0  0  0
  -20.9595  -29.8718   21.6674 H   0  0  0  0  0  0
  -26.0099  -38.2773   24.1466 H   0  0  0  0  0  0
  -28.3568  -21.2632   23.7340 H   0  0  0  0  0  0
  -28.5743  -18.0918   22.8175 H   0  0  0  0  0  0
  -29.1195  -19.1613   24.0650 H   0  0  0  0  0  0
  -30.3718  -18.4194   19.3364 H   0  0  0  0  0  0
  -30.6944  -17.3102   23.0564 H   0  0  0  0  0  0
  -31.9229  -17.6340   21.1583 H   0  0  0  0  0  0
  -30.1074  -20.4985   18.2881 H   0  0  0  0  0  0
  -29.6644  -22.1897   18.1764 H   0  0  0  0  0  0
  -28.4333  -20.9455   17.9342 H   0  0  0  0  0  0
  -31.7695  -20.0683   23.7094 H   0  0  0  0  0  0
  -32.7071  -18.5703   23.7264 H   0  0  0  0  0  0
  -31.3726  -18.7923   24.8462 H   0  0  0  0  0  0
  -31.5849  -20.6546   21.2510 H   0  0  0  0  0  0
  -32.3634  -19.7546   19.9575 H   0  0  0  0  0  0
  -33.0215  -19.7150   21.5794 H   0  0  0  0  0  0
  -26.9993  -23.0700   24.3644 H   0  0  0  0  0  0
  -27.6212  -24.7148   24.3374 H   0  0  0  0  0  0
  -28.7487  -23.3781   24.4833 H   0  0  0  0  0  0
  -27.1148  -24.0207   19.4972 H   0  0  0  0  0  0
  -28.7181  -24.1894   18.9171 H   0  0  0  0  0  0
  -28.6933  -16.4899   20.6292 H   0  0  0  0  0  0
  1 25  1  0  0  0
  1 30  2  0  0  0
  1 86  1  0  0  0
  2  3  1  0  0  0
  2 25  1  0  0  0
  2 88  1  0  0  0
  2 89  1  0  0  0
  3  4  1  0  0  0
  3 90  1  0  0  0
  3 91  1  0  0  0
  4  5  1  0  0  0
  4 92  1  0  0  0
  4 93  1  0  0  0
  5  6  1  0  0  0
  5 26  1  0  0  0
  5 94  1  0  0  0
  6 25  1  0  0  0
  6 95  1  0  0  0
  6 96  1  0  0  0
  7  8  2  0  0  0
  7 26  1  0  0  0
  7 29  1  0  0  0
  8  9  1  0  0  0
  8 22  1  0  0  0
  9 10  1  0  0  0
  9 27  2  0  0  0
 10 11  2  0  0  0
 10 15  1  0  0  0
 11 12  1  0  0  0
 11 97  1  0  0  0
 12 13  2  0  0  0
 12 98  1  0  0  0
 13 14  1  0  0  0
 13 31  1  0  0  0
 14 15  2  0  0  0
 14 99  1  0  0  0
 15100  1  0  0  0
 16 17  2  0  0  0
 16 21  1  0  0  0
 16 31  1  0  0  0
 17 18  1  0  0  0
 17101  1  0  0  0
 18 19  2  0  0  0
 18102  1  0  0  0
 19 20  1  0  0  0
 19 24  1  0  0  0
 20 21  2  0  0  0
 20103  1  0  0  0
 21 23  1  0  0  0
 22 28  1  0  0  0
 22 32  2  0  0  0
 26 27  1  0  0  0
 28104  1  0  0  0
 28105  1  0  0  0
 29106  1  0  0  0
 29107  1  0  0  0
 33 34  1  0  0  0
 33 66  1  0  0  0
 33 70  2  0  0  0
 34 36  1  0  0  0
 34 59  1  0  0  0
 34108  1  0  0  0
 35 44  2  0  0  0
 35 45  1  0  0  0
 35 68  1  0  0  0
 36 56  1  0  0  0
 36109  1  0  0  0
 37 39  1  0  0  0
 37 47  1  0  0  0
 37 66  1  0  0  0
 37110  1  0  0  0
 38 43  2  0  0  0
 38 46  1  0  0  0
 38 47  1  0  0  0
 39 64  1  0  0  0
 39 67  2  0  0  0
 40 52  1  0  0  0
 40 53  2  0  0  0
 40 58  1  0  0  0
 41111  1  0  0  0
 41112  1  0  0  0
 41113  1  0  0  0
 41 48  1  0  0  0
 42 43  1  0  0  0
 42 66  1  0  0  0
 42114  1  0  0  0
 42115  1  0  0  0
 43 44  1  0  0  0
 44116  1  0  0  0
 45 46  2  0  0  0
 45117  1  0  0  0
 46118  1  0  0  0
 47119  1  0  0  0
 47120  1  0  0  0
 48 56  1  0  0  0
 48 65  1  0  0  0
 48121  1  0  0  0
 49 50  1  0  0  0
 49 53  1  0  0  0
 49 64  1  0  0  0
 49122  1  0  0  0
 50 51  1  0  0  0
 50123  1  0  0  0
 50124  1  0  0  0
 51 52  1  0  0  0
 51125  1  0  0  0
 51126  1  0  0  0
 52127  1  0  0  0
 52128  1  0  0  0
 53 54  1  0  0  0
 54 55  2  0  0  0
 54129  1  0  0  0
 55 57  1  0  0  0
 55130  1  0  0  0
 56 69  2  0  0  0
 57 58  2  0  0  0
 57131  1  0  0  0
 58132  1  0  0  0
 59 60  1  0  0  0
 59 61  1  0  0  0
 59 62  1  0  0  0
 60133  1  0  0  0
 60134  1  0  0  0
 60135  1  0  0  0
 61136  1  0  0  0
 61137  1  0  0  0
 61138  1  0  0  0
 62139  1  0  0  0
 62140  1  0  0  0
 62141  1  0  0  0
 63 65  1  0  0  0
 63142  1  0  0  0
 63143  1  0  0  0
 63144  1  0  0  0
 64145  1  0  0  0
 65146  1  0  0  0
 68 85  1  0  0  0
 71 72  2  0  0  0
 71 76  1  0  0  0
 71147  1  0  0  0
 72 73  1  0  0  0
 72 77  1  0  0  0
 73 74  2  0  0  0
 73 78  1  0  0  0
 74 75  1  0  0  0
 74 81  1  0  0  0
 75 76  2  0  0  0
 75 85  1  0  0  0
 76 87  1  0  0  0
 77 79  1  0  0  0
 77148  1  0  0  0
 77149  1  0  0  0
 78 80  1  0  0  0
 78 86  1  0  0  0
 78150  1  0  0  0
 79 80  1  0  0  0
 79 82  1  0  0  0
 79151  1  0  0  0
 80 83  1  0  0  0
 80152  1  0  0  0
 81153  1  0  0  0
 81154  1  0  0  0
 81155  1  0  0  0
 82156  1  0  0  0
 82157  1  0  0  0
 82158  1  0  0  0
 83159  1  0  0  0
 83160  1  0  0  0
 83161  1  0  0  0
 84 87  1  0  0  0
 84162  1  0  0  0
 84163  1  0  0  0
 84164  1  0  0  0
 85165  1  0  0  0
 85166  1  0  0  0
 86167  1  0  0  0
M  ISO  4   1 100  68 101  85 101  86 100
M  END
> <chiral flag>
0

> <version>
0

> <s_m_source_file>
/data/baiqing/PycharmProjects/Reinvent-master-3.2/result/LINK_invent/BTK/process_docking_weight1_custom_sum_contain_oxygen_bond_distance_aromatic_linkinvent_7_9_3/rearranged_h_0154.sdf

> <i_m_source_file_index>
98

> <r_mmod_Potential_Energy-OPLS-2005>
1495.19067382812

> <r_mmod_Stretch_Energy-OPLS-2005>
668.935729980469

> <r_mmod_Bend_Energy-OPLS-2005>
480.926452636719

> <r_mmod_Torsional_Energy-OPLS-2005>
246.913757324219

> <r_mmod_Improper_Torsional_Energy-OPLS-2005>
8.61162567138672

> <r_mmod_Van_der_Waal_Energy-OPLS-2005>
145.337493896484

> <r_mmod_Electrostatic_Energy-OPLS-2005>
-375.010314941406

> <r_mmod_Solvation_Energy-OPLS-2005>
-213.076690673828

> <b_mmod_Minimization_Converged-OPLS-2005>
0

> <r_mmod_RMS_Derivative-OPLS-2005>
2.41543364524841

$$$$
