0
                    3D
 Structure written by MMmdl.
162170  0  0  1  0            999 V2000
  -30.4957  -14.9823   20.4540 C   0  0  0  0  0  0
  -30.4340  -12.5950   19.5467 C   0  0  0  0  0  0
  -29.5351  -12.5545   18.2853 C   0  0  0  0  0  0
  -28.0487  -12.3908   18.6557 C   0  0  0  0  0  0
  -27.6300  -13.2691   19.8639 C   0  0  2  0  0  0
  -28.6649  -13.2416   21.0063 C   0  0  0  0  0  0
  -25.2380  -13.8278   20.5694 C   0  0  0  0  0  0
  -24.1708  -13.0436   20.9261 C   0  0  0  0  0  0
  -24.6384  -11.6961   20.8756 C   0  0  0  0  0  0
  -23.9078  -10.4298   21.0375 C   0  0  0  0  0  0
  -24.3616   -9.4201   21.9150 C   0  0  0  0  0  0
  -23.6291   -8.2238   22.0737 C   0  0  0  0  0  0
  -22.4256   -8.0288   21.3575 C   0  0  0  0  0  0
  -21.9889   -9.0272   20.4706 C   0  0  0  0  0  0
  -22.7208  -10.2171   20.3095 C   0  0  0  0  0  0
  -21.6873   -6.0715   22.5280 C   0  0  0  0  0  0
  -21.4009   -6.5612   23.8204 C   0  0  0  0  0  0
  -21.3683   -5.6771   24.9171 C   0  0  0  0  0  0
  -21.6064   -4.3040   24.7221 C   0  0  0  0  0  0
  -21.8818   -3.8127   23.4328 C   0  0  0  0  0  0
  -21.9185   -4.6937   22.3392 C   0  0  0  0  0  0
  -22.7729  -13.5211   21.1871 C   0  0  0  0  0  0
  -22.1667   -4.2093   21.0982 F   0  0  0  0  0  0
  -21.5639   -3.4569   25.7769 F   0  0  0  0  0  0
  -29.9418  -13.6942   20.4370 N   0  0  0  0  0  0
  -26.2836  -12.9552   20.3341 N   0  0  0  0  0  0
  -25.9313  -11.6648   20.5711 N   0  0  0  0  0  0
  -22.0478  -12.8230   22.0558 N   0  0  0  0  0  0
  -25.4010  -15.1977   20.3940 N   0  0  0  0  0  0
  -31.6614  -15.0799   20.0586 O   0  0  0  0  0  0
  -21.6643   -6.8879   21.4249 O   0  0  0  0  0  0
  -22.3338  -14.5457   20.6684 O   0  0  0  0  0  0
  -24.6458  -31.8361   23.1788 C   0  0  0  0  0  0
  -25.9198  -32.4680   23.8186 C   0  0  1  0  0  0
  -27.2279  -27.0742   20.2080 C   0  0  0  0  0  0
  -25.5915  -33.8479   24.2096 N   0  0  0  0  0  0
  -23.4503  -30.4471   21.5301 C   0  0  2  0  0  0
  -24.9006  -28.8446   20.1313 C   0  0  0  0  0  0
  -22.7568  -29.4460   22.4892 C   0  0  0  0  0  0
  -18.0285  -28.1406   22.8426 C   0  0  0  0  0  0
  -24.1464  -36.7284   23.2669 C   0  0  0  0  0  0
  -26.0020  -30.7033   21.3643 C   0  0  0  0  0  0
  -26.0792  -29.2913   20.7444 C   0  0  0  0  0  0
  -27.2421  -28.4266   20.7545 C   0  0  0  0  0  0
  -26.0222  -26.7317   19.5598 C   0  0  0  0  0  0
  -24.8867  -27.5796   19.5224 C   0  0  0  0  0  0
  -23.6778  -29.7551   20.1574 C   0  0  0  0  0  0
  -25.4107  -36.3027   24.0312 C   0  0  1  0  0  0
  -20.5903  -28.3692   23.1250 C   0  0  2  0  0  0
  -20.6755  -26.9375   22.5448 C   0  0  0  0  0  0
  -19.5770  -26.6367   21.5208 C   0  0  0  0  0  0
  -18.1923  -26.7943   22.1571 C   0  0  0  0  0  0
  -19.1551  -28.8863   23.2817 C   0  0  0  0  0  0
  -18.9480  -30.1449   23.8830 C   0  0  0  0  0  0
  -17.6460  -30.6582   24.0550 C   0  0  0  0  0  0
  -25.9050  -34.9406   23.5019 C   0  0  0  0  0  0
  -16.5354  -29.9077   23.6359 C   0  0  0  0  0  0
  -16.7255  -28.6523   23.0337 C   0  0  0  0  0  0
  -26.4592  -31.6557   25.0589 C   0  0  0  0  0  0
  -25.3819  -31.3679   26.1322 C   0  0  0  0  0  0
  -27.0499  -30.2995   24.6045 C   0  0  0  0  0  0
  -27.6090  -32.4398   25.7337 C   0  0  0  0  0  0
  -27.5580  -37.1734   24.8475 C   0  0  0  0  0  0
  -21.4263  -29.2986   22.3644 N   0  0  0  0  0  0
  -26.4280  -37.3746   23.9438 N   0  0  0  0  0  0
  -24.7228  -31.0169   22.0833 N   0  0  0  0  0  0
  -23.4170  -28.8067   23.3123 O   0  0  0  0  0  0
  -28.3486  -26.1641   20.0851 O   0  0  0  0  0  0
  -26.5677  -34.8939   22.4622 O   0  0  0  0  0  0
  -23.5558  -32.1264   23.6974 O   0  0  0  0  0  0
  -30.4041  -18.4880   22.5673 C   0  0  0  0  0  0
  -29.8750  -21.2123   22.5591 C   0  0  0  0  0  0
  -30.7411  -19.2499   23.6964 C   0  0  0  0  0  0
  -30.4923  -20.6384   23.6937 C   0  0  0  0  0  0
  -29.5180  -20.5020   21.3788 C   0  0  0  0  0  0
  -29.7976  -18.9878   21.3899 C   0  0  0  0  0  0
  -31.4705  -18.5439   24.8304 C   0  0  0  0  0  0
  -30.0337  -22.2394   25.7119 C   0  0  0  0  0  0
  -31.0454  -21.5530   24.7968 C   0  0  0  0  0  0
  -29.0256  -21.6127   20.2612 C   0  0  0  0  0  0
  -29.6699  -17.7084   20.3418 C   0  0  0  0  0  0
  -28.1708  -23.0999   20.4868 C   0  0  0  0  0  0
  -28.7006  -24.7193   20.6468 C   0  0  0  0  0  0
  -29.7032  -16.1465   20.7405 N   0  0  0  0  0  0
  -31.4758  -12.7427   19.2639 H   0  0  0  0  0  0
  -30.4115  -11.6311   20.0665 H   0  0  0  0  0  0
  -29.8415  -11.7449   17.6216 H   0  0  0  0  0  0
  -29.6726  -13.4735   17.7152 H   0  0  0  0  0  0
  -27.8660  -11.3399   18.8712 H   0  0  0  0  0  0
  -27.4223  -12.6402   17.7989 H   0  0  0  0  0  0
  -27.6096  -14.2893   19.4793 H   0  0  0  0  0  0
  -28.7420  -12.2324   21.4145 H   0  0  0  0  0  0
  -28.3525  -13.8818   21.8315 H   0  0  0  0  0  0
  -25.2804   -9.5637   22.4668 H   0  0  0  0  0  0
  -24.0057   -7.4584   22.7365 H   0  0  0  0  0  0
  -21.0851   -8.8758   19.8985 H   0  0  0  0  0  0
  -22.3633  -10.9694   19.6201 H   0  0  0  0  0  0
  -21.2017   -7.6126   23.9696 H   0  0  0  0  0  0
  -21.1524   -6.0509   25.9062 H   0  0  0  0  0  0
  -22.0583   -2.7584   23.2853 H   0  0  0  0  0  0
  -22.4134  -11.9988   22.5049 H   0  0  0  0  0  0
  -21.1094  -13.1208   22.2821 H   0  0  0  0  0  0
  -24.6245  -15.8488   20.4502 H   0  0  0  0  0  0
  -26.2324  -15.6212   19.9993 H   0  0  0  0  0  0
  -26.7231  -32.5292   23.0898 H   0  0  0  0  0  0
  -25.0010  -33.9563   25.0211 H   0  0  0  0  0  0
  -22.7538  -31.2696   21.3672 H   0  0  0  0  0  0
  -23.3725  -35.9606   23.3282 H   0  0  0  0  0  0
  -24.3573  -36.9012   22.2102 H   0  0  0  0  0  0
  -23.7218  -37.6465   23.6763 H   0  0  0  0  0  0
  -26.1144  -31.4277   20.5575 H   0  0  0  0  0  0
  -26.8892  -30.8035   21.9781 H   0  0  0  0  0  0
  -28.1569  -28.7794   21.2151 H   0  0  0  0  0  0
  -25.9644  -25.7710   19.0707 H   0  0  0  0  0  0
  -23.9890  -27.2353   19.0289 H   0  0  0  0  0  0
  -23.8046  -30.5183   19.3867 H   0  0  0  0  0  0
  -22.7902  -29.1914   19.8606 H   0  0  0  0  0  0
  -25.1275  -36.1834   25.0797 H   0  0  0  0  0  0
  -20.9931  -28.3286   24.1400 H   0  0  0  0  0  0
  -20.5641  -26.2265   23.3675 H   0  0  0  0  0  0
  -21.6640  -26.7381   22.1275 H   0  0  0  0  0  0
  -19.6959  -25.6281   21.1252 H   0  0  0  0  0  0
  -19.6794  -27.3179   20.6730 H   0  0  0  0  0  0
  -17.4231  -26.6708   21.3921 H   0  0  0  0  0  0
  -18.0257  -26.0076   22.8925 H   0  0  0  0  0  0
  -19.7968  -30.7290   24.2168 H   0  0  0  0  0  0
  -17.5045  -31.6270   24.5179 H   0  0  0  0  0  0
  -15.5370  -30.2960   23.7767 H   0  0  0  0  0  0
  -15.8649  -28.0873   22.7030 H   0  0  0  0  0  0
  -24.5875  -30.7213   25.7604 H   0  0  0  0  0  0
  -24.9187  -32.2847   26.4934 H   0  0  0  0  0  0
  -25.8120  -30.8659   26.9978 H   0  0  0  0  0  0
  -26.3067  -29.6672   24.1159 H   0  0  0  0  0  0
  -27.4397  -29.7319   25.4507 H   0  0  0  0  0  0
  -27.8825  -30.4402   23.9150 H   0  0  0  0  0  0
  -27.2607  -33.3627   26.1991 H   0  0  0  0  0  0
  -28.3779  -32.7122   25.0096 H   0  0  0  0  0  0
  -28.0921  -31.8540   26.5192 H   0  0  0  0  0  0
  -28.2578  -38.0037   24.7507 H   0  0  0  0  0  0
  -28.1055  -36.2560   24.6236 H   0  0  0  0  0  0
  -27.2331  -37.1364   25.8892 H   0  0  0  0  0  0
  -20.9508  -29.8628   21.6764 H   0  0  0  0  0  0
  -26.0131  -38.2788   24.1532 H   0  0  0  0  0  0
  -30.7137  -17.4544   22.5939 H   0  0  0  0  0  0
  -29.7571  -22.2884   22.5660 H   0  0  0  0  0  0
  -32.5432  -18.6449   24.6868 H   0  0  0  0  0  0
  -31.2515  -17.4756   24.8226 H   0  0  0  0  0  0
  -31.2036  -18.9185   25.8188 H   0  0  0  0  0  0
  -30.5802  -22.8708   26.4146 H   0  0  0  0  0  0
  -29.4382  -21.5318   26.2963 H   0  0  0  0  0  0
  -29.3873  -22.8987   25.1369 H   0  0  0  0  0  0
  -31.5959  -22.3579   24.3111 H   0  0  0  0  0  0
  -31.7770  -21.0411   25.4178 H   0  0  0  0  0  0
  -28.4403  -21.0194   19.5623 H   0  0  0  0  0  0
  -29.9196  -21.8674   19.6904 H   0  0  0  0  0  0
  -30.3885  -17.8589   19.5379 H   0  0  0  0  0  0
  -28.6972  -17.8469   19.8668 H   0  0  0  0  0  0
  -27.4323  -22.9080   21.2636 H   0  0  0  0  0  0
  -27.5558  -23.1474   19.5902 H   0  0  0  0  0  0
  -29.7032  -24.6415   20.2190 H   0  0  0  0  0  0
  -28.9012  -24.8622   21.7075 H   0  0  0  0  0  0
  -28.8386  -15.8784   21.1856 H   0  0  0  0  0  0
  1 25  1  0  0  0
  1 30  2  0  0  0
  1 84  1  0  0  0
  2  3  1  0  0  0
  2 25  1  0  0  0
  2 85  1  0  0  0
  2 86  1  0  0  0
  3  4  1  0  0  0
  3 87  1  0  0  0
  3 88  1  0  0  0
  4  5  1  0  0  0
  4 89  1  0  0  0
  4 90  1  0  0  0
  5  6  1  0  0  0
  5 26  1  0  0  0
  5 91  1  0  0  0
  6 25  1  0  0  0
  6 92  1  0  0  0
  6 93  1  0  0  0
  7  8  2  0  0  0
  7 26  1  0  0  0
  7 29  1  0  0  0
  8  9  1  0  0  0
  8 22  1  0  0  0
  9 10  1  0  0  0
  9 27  2  0  0  0
 10 11  2  0  0  0
 10 15  1  0  0  0
 11 12  1  0  0  0
 11 94  1  0  0  0
 12 13  2  0  0  0
 12 95  1  0  0  0
 13 14  1  0  0  0
 13 31  1  0  0  0
 14 15  2  0  0  0
 14 96  1  0  0  0
 15 97  1  0  0  0
 16 17  2  0  0  0
 16 21  1  0  0  0
 16 31  1  0  0  0
 17 18  1  0  0  0
 17 98  1  0  0  0
 18 19  2  0  0  0
 18 99  1  0  0  0
 19 20  1  0  0  0
 19 24  1  0  0  0
 20 21  2  0  0  0
 20100  1  0  0  0
 21 23  1  0  0  0
 22 28  1  0  0  0
 22 32  2  0  0  0
 26 27  1  0  0  0
 28101  1  0  0  0
 28102  1  0  0  0
 29103  1  0  0  0
 29104  1  0  0  0
 33 34  1  0  0  0
 33 66  1  0  0  0
 33 70  2  0  0  0
 34 36  1  0  0  0
 34 59  1  0  0  0
 34105  1  0  0  0
 35 44  2  0  0  0
 35 45  1  0  0  0
 35 68  1  0  0  0
 36 56  1  0  0  0
 36106  1  0  0  0
 37 39  1  0  0  0
 37 47  1  0  0  0
 37 66  1  0  0  0
 37107  1  0  0  0
 38 43  2  0  0  0
 38 46  1  0  0  0
 38 47  1  0  0  0
 39 64  1  0  0  0
 39 67  2  0  0  0
 40 52  1  0  0  0
 40 53  2  0  0  0
 40 58  1  0  0  0
 41108  1  0  0  0
 41109  1  0  0  0
 41110  1  0  0  0
 41 48  1  0  0  0
 42 43  1  0  0  0
 42 66  1  0  0  0
 42111  1  0  0  0
 42112  1  0  0  0
 43 44  1  0  0  0
 44113  1  0  0  0
 45 46  2  0  0  0
 45114  1  0  0  0
 46115  1  0  0  0
 47116  1  0  0  0
 47117  1  0  0  0
 48 56  1  0  0  0
 48 65  1  0  0  0
 48118  1  0  0  0
 49 50  1  0  0  0
 49 53  1  0  0  0
 49 64  1  0  0  0
 49119  1  0  0  0
 50 51  1  0  0  0
 50120  1  0  0  0
 50121  1  0  0  0
 51 52  1  0  0  0
 51122  1  0  0  0
 51123  1  0  0  0
 52124  1  0  0  0
 52125  1  0  0  0
 53 54  1  0  0  0
 54 55  2  0  0  0
 54126  1  0  0  0
 55 57  1  0  0  0
 55127  1  0  0  0
 56 69  2  0  0  0
 57 58  2  0  0  0
 57128  1  0  0  0
 58129  1  0  0  0
 59 60  1  0  0  0
 59 61  1  0  0  0
 59 62  1  0  0  0
 60130  1  0  0  0
 60131  1  0  0  0
 60132  1  0  0  0
 61133  1  0  0  0
 61134  1  0  0  0
 61135  1  0  0  0
 62136  1  0  0  0
 62137  1  0  0  0
 62138  1  0  0  0
 63 65  1  0  0  0
 63139  1  0  0  0
 63140  1  0  0  0
 63141  1  0  0  0
 64142  1  0  0  0
 65143  1  0  0  0
 68 83  1  0  0  0
 71 73  2  0  0  0
 71 76  1  0  0  0
 71144  1  0  0  0
 72 74  2  0  0  0
 72 75  1  0  0  0
 72145  1  0  0  0
 73 74  1  0  0  0
 73 77  1  0  0  0
 74 79  1  0  0  0
 75 76  2  0  0  0
 75 80  1  0  0  0
 76 81  1  0  0  0
 77146  1  0  0  0
 77147  1  0  0  0
 77148  1  0  0  0
 78 79  1  0  0  0
 78149  1  0  0  0
 78150  1  0  0  0
 78151  1  0  0  0
 79152  1  0  0  0
 79153  1  0  0  0
 80 82  1  0  0  0
 80154  1  0  0  0
 80155  1  0  0  0
 81 84  1  0  0  0
 81156  1  0  0  0
 81157  1  0  0  0
 82 83  1  0  0  0
 82158  1  0  0  0
 82159  1  0  0  0
 83160  1  0  0  0
 83161  1  0  0  0
 84162  1  0  0  0
M  ISO  4   1 100  68 101  83 101  84 100
M  END
> <chiral flag>
0

> <version>
0

> <s_m_source_file>
/data/baiqing/PycharmProjects/Reinvent-master-3.2/result/LINK_invent/BTK/process_docking_weight1_custom_sum_contain_oxygen_bond_distance_aromatic_linkinvent_7_9_3/rearranged_h_0101.sdf

> <i_m_source_file_index>
1

> <r_mmod_Potential_Energy-OPLS-2005>
761.095031738281

> <r_mmod_Stretch_Energy-OPLS-2005>
352.457702636719

> <r_mmod_Bend_Energy-OPLS-2005>
454.686492919922

> <r_mmod_Torsional_Energy-OPLS-2005>
241.331237792969

> <r_mmod_Improper_Torsional_Energy-OPLS-2005>
7.74447584152222

> <r_mmod_Van_der_Waal_Energy-OPLS-2005>
127.891960144043

> <r_mmod_Electrostatic_Energy-OPLS-2005>
-423.566070556641

> <r_mmod_Solvation_Energy-OPLS-2005>
-211.284301757812

> <b_mmod_Minimization_Converged-OPLS-2005>
0

> <r_mmod_RMS_Derivative-OPLS-2005>
7.99604892730713

$$$$
1
                    3D
 Structure written by MMmdl.
166174  0  0  1  0            999 V2000
  -30.7101  -14.4967   20.5777 C   0  0  0  0  0  0
  -30.4241  -12.3258   19.4247 C   0  0  0  0  0  0
  -29.4973  -12.5040   18.2063 C   0  0  0  0  0  0
  -28.0177  -12.3599   18.6195 C   0  0  0  0  0  0
  -27.6621  -13.2078   19.8716 C   0  0  2  0  0  0
  -28.7047  -13.0134   20.9937 C   0  0  0  0  0  0
  -25.2595  -13.8168   20.5647 C   0  0  0  0  0  0
  -24.1832  -13.0458   20.9150 C   0  0  0  0  0  0
  -24.6393  -11.6922   20.8733 C   0  0  0  0  0  0
  -23.9060  -10.4308   21.0402 C   0  0  0  0  0  0
  -24.3621   -9.4225   21.9172 C   0  0  0  0  0  0
  -23.6303   -8.2258   22.0749 C   0  0  0  0  0  0
  -22.4278   -8.0294   21.3546 C   0  0  0  0  0  0
  -21.9912   -9.0261   20.4645 C   0  0  0  0  0  0
  -22.7238  -10.2141   20.3047 C   0  0  0  0  0  0
  -21.6860   -6.0748   22.5271 C   0  0  0  0  0  0
  -21.4016   -6.5642   23.8205 C   0  0  0  0  0  0
  -21.3659   -5.6790   24.9159 C   0  0  0  0  0  0
  -21.6047   -4.3056   24.7210 C   0  0  0  0  0  0
  -21.8818   -3.8154   23.4331 C   0  0  0  0  0  0
  -21.9190   -4.6974   22.3391 C   0  0  0  0  0  0
  -22.7853  -13.5273   21.1814 C   0  0  0  0  0  0
  -22.1657   -4.2160   21.0969 F   0  0  0  0  0  0
  -21.5630   -3.4539   25.7727 F   0  0  0  0  0  0
  -30.0287  -13.3242   20.4321 N   0  0  0  0  0  0
  -26.3041  -12.9342   20.3364 N   0  0  0  0  0  0
  -25.9325  -11.6506   20.5767 N   0  0  0  0  0  0
  -22.0481  -12.8274   22.0372 N   0  0  0  0  0  0
  -25.4355  -15.1874   20.4033 N   0  0  0  0  0  0
  -31.8448  -14.6566   20.1243 O   0  0  0  0  0  0
  -21.6640   -6.8896   21.4239 O   0  0  0  0  0  0
  -22.3552  -14.5597   20.6689 O   0  0  0  0  0  0
  -24.6193  -31.8640   23.2060 C   0  0  0  0  0  0
  -25.9073  -32.4795   23.8371 C   0  0  1  0  0  0
  -27.2379  -27.3813   20.0996 C   0  0  0  0  0  0
  -25.5920  -33.8597   24.2304 N   0  0  0  0  0  0
  -23.4092  -30.4864   21.5468 C   0  0  2  0  0  0
  -24.8540  -28.9399   20.1174 C   0  0  0  0  0  0
  -22.7428  -29.4652   22.4974 C   0  0  0  0  0  0
  -18.0277  -28.1381   22.8488 C   0  0  0  0  0  0
  -24.1485  -36.7289   23.2637 C   0  0  0  0  0  0
  -25.9436  -30.8097   21.3694 C   0  0  0  0  0  0
  -26.0164  -29.4406   20.7145 C   0  0  0  0  0  0
  -27.2055  -28.6687   20.7002 C   0  0  0  0  0  0
  -26.0466  -26.9017   19.5064 C   0  0  0  0  0  0
  -24.8666  -27.6715   19.5129 C   0  0  0  0  0  0
  -23.6197  -29.8138   20.1637 C   0  0  0  0  0  0
  -25.4109  -36.3089   24.0333 C   0  0  1  0  0  0
  -20.5869  -28.3679   23.1299 C   0  0  2  0  0  0
  -20.6771  -26.9413   22.5406 C   0  0  0  0  0  0
  -19.5750  -26.6387   21.5205 C   0  0  0  0  0  0
  -18.1928  -26.7925   22.1616 C   0  0  0  0  0  0
  -19.1524  -28.8847   23.2887 C   0  0  0  0  0  0
  -18.9458  -30.1449   23.8900 C   0  0  0  0  0  0
  -17.6461  -30.6591   24.0560 C   0  0  0  0  0  0
  -25.9044  -34.9460   23.5115 C   0  0  0  0  0  0
  -16.5347  -29.9086   23.6332 C   0  0  0  0  0  0
  -16.7267  -28.6497   23.0360 C   0  0  0  0  0  0
  -26.4486  -31.6598   25.0726 C   0  0  0  0  0  0
  -25.3740  -31.3727   26.1470 C   0  0  0  0  0  0
  -27.0337  -30.3034   24.6156 C   0  0  0  0  0  0
  -27.6056  -32.4333   25.7488 C   0  0  0  0  0  0
  -27.5579  -37.1796   24.8465 C   0  0  0  0  0  0
  -21.4154  -29.3041   22.3704 N   0  0  0  0  0  0
  -26.4289  -37.3781   23.9413 N   0  0  0  0  0  0
  -24.6754  -31.0695   22.0982 N   0  0  0  0  0  0
  -23.4176  -28.8202   23.3041 O   0  0  0  0  0  0
  -28.4299  -26.6645   20.1203 O   0  0  0  0  0  0
  -26.5598  -34.8921   22.4673 O   0  0  0  0  0  0
  -23.5375  -32.1425   23.7423 O   0  0  0  0  0  0
  -29.6114  -19.2102   21.6654 C   0  0  0  0  0  0
  -29.2976  -19.7180   19.5282 C   0  0  0  0  0  0
  -29.9996  -18.1008   20.9520 C   0  0  0  0  0  0
  -29.7987  -18.4353   19.5729 C   0  0  0  0  0  0
  -31.6137  -17.6722   18.0215 C   0  0  0  0  0  0
  -29.2419  -17.8852   17.1671 C   0  0  0  0  0  0
  -29.6774  -24.5781   21.8003 C   0  0  0  0  0  0
  -30.6102  -16.8214   21.5519 C   0  0  0  0  0  0
  -28.8796  -22.7393   20.2062 C   0  0  0  0  0  0
  -28.7100  -21.5605   21.2283 C   0  0  0  0  0  0
  -28.5554  -25.2961   19.6395 C   0  0  0  0  0  0
  -30.1252  -17.5628   18.3789 C   0  0  0  0  0  0
  -28.6118  -24.1934   20.7549 C   0  0  2  0  0  0
  -29.2020  -20.2274   20.8095 N   0  0  0  0  0  0
  -30.0389  -15.5165   21.1552 N   0  0  0  0  0  0
  -31.4678  -12.4289   19.1208 H   0  0  0  0  0  0
  -30.3334  -11.3190   19.8348 H   0  0  0  0  0  0
  -29.7469  -11.7738   17.4337 H   0  0  0  0  0  0
  -29.6589  -13.4878   17.7634 H   0  0  0  0  0  0
  -27.8252  -11.3036   18.8137 H   0  0  0  0  0  0
  -27.3710  -12.6329   17.7854 H   0  0  0  0  0  0
  -27.7064  -14.2533   19.5650 H   0  0  0  0  0  0
  -28.6874  -11.9832   21.3536 H   0  0  0  0  0  0
  -28.4667  -13.6294   21.8620 H   0  0  0  0  0  0
  -25.2764   -9.5710   22.4746 H   0  0  0  0  0  0
  -24.0009   -7.4660   22.7478 H   0  0  0  0  0  0
  -21.0843   -8.8785   19.8966 H   0  0  0  0  0  0
  -22.3694  -10.9676   19.6161 H   0  0  0  0  0  0
  -21.2006   -7.6148   23.9717 H   0  0  0  0  0  0
  -21.1487   -6.0509   25.9064 H   0  0  0  0  0  0
  -22.0604   -2.7624   23.2813 H   0  0  0  0  0  0
  -22.4099  -11.9953   22.4786 H   0  0  0  0  0  0
  -21.1101  -13.1323   22.2575 H   0  0  0  0  0  0
  -24.6771  -15.8485   20.5236 H   0  0  0  0  0  0
  -26.2961  -15.6229   20.0956 H   0  0  0  0  0  0
  -26.7137  -32.5479   23.1119 H   0  0  0  0  0  0
  -25.0107  -33.9759   25.0474 H   0  0  0  0  0  0
  -22.7001  -31.3046   21.4027 H   0  0  0  0  0  0
  -23.3755  -35.9614   23.3306 H   0  0  0  0  0  0
  -24.3573  -36.8900   22.2050 H   0  0  0  0  0  0
  -23.7232  -37.6492   23.6649 H   0  0  0  0  0  0
  -26.0705  -31.5753   20.6027 H   0  0  0  0  0  0
  -26.8263  -30.8557   21.9963 H   0  0  0  0  0  0
  -28.1040  -29.0520   21.1634 H   0  0  0  0  0  0
  -25.9894  -25.9327   19.0372 H   0  0  0  0  0  0
  -23.9696  -27.2762   19.0562 H   0  0  0  0  0  0
  -23.7336  -30.5850   19.4012 H   0  0  0  0  0  0
  -22.7425  -29.2358   19.8673 H   0  0  0  0  0  0
  -25.1286  -36.1943   25.0826 H   0  0  0  0  0  0
  -20.9957  -28.3250   24.1419 H   0  0  0  0  0  0
  -20.5677  -26.2291   23.3598 H   0  0  0  0  0  0
  -21.6644  -26.7459   22.1202 H   0  0  0  0  0  0
  -19.6918  -25.6297   21.1238 H   0  0  0  0  0  0
  -19.6688  -27.3193   20.6730 H   0  0  0  0  0  0
  -17.4199  -26.6672   21.4017 H   0  0  0  0  0  0
  -18.0332  -26.0063   22.9010 H   0  0  0  0  0  0
  -19.7937  -30.7259   24.2273 H   0  0  0  0  0  0
  -17.5022  -31.6272   24.5157 H   0  0  0  0  0  0
  -15.5353  -30.2993   23.7660 H   0  0  0  0  0  0
  -15.8662  -28.0815   22.7091 H   0  0  0  0  0  0
  -24.5902  -30.7087   25.7804 H   0  0  0  0  0  0
  -24.8946  -32.2893   26.4916 H   0  0  0  0  0  0
  -25.8083  -30.8892   27.0230 H   0  0  0  0  0  0
  -26.2909  -29.6780   24.1191 H   0  0  0  0  0  0
  -27.4068  -29.7289   25.4644 H   0  0  0  0  0  0
  -27.8756  -30.4340   23.9354 H   0  0  0  0  0  0
  -27.2673  -33.3630   26.2077 H   0  0  0  0  0  0
  -28.3857  -32.6906   25.0310 H   0  0  0  0  0  0
  -28.0737  -31.8457   26.5395 H   0  0  0  0  0  0
  -28.2595  -38.0096   24.7523 H   0  0  0  0  0  0
  -28.1076  -36.2628   24.6273 H   0  0  0  0  0  0
  -27.2298  -37.1430   25.8868 H   0  0  0  0  0  0
  -20.9326  -29.8747   21.6904 H   0  0  0  0  0  0
  -26.0172  -38.2856   24.1423 H   0  0  0  0  0  0
  -29.6143  -19.3806   22.7349 H   0  0  0  0  0  0
  -29.0158  -20.3264   18.6798 H   0  0  0  0  0  0
  -32.2424  -17.3980   18.8690 H   0  0  0  0  0  0
  -31.8782  -18.6888   17.7303 H   0  0  0  0  0  0
  -31.8735  -17.0105   17.1948 H   0  0  0  0  0  0
  -28.1852  -17.8069   17.4218 H   0  0  0  0  0  0
  -29.4350  -17.1951   16.3454 H   0  0  0  0  0  0
  -29.4278  -18.8945   16.7977 H   0  0  0  0  0  0
  -29.6712  -23.9095   22.6598 H   0  0  0  0  0  0
  -29.5067  -25.5832   22.1867 H   0  0  0  0  0  0
  -30.6792  -24.5560   21.3696 H   0  0  0  0  0  0
  -30.5237  -16.8889   22.6373 H   0  0  0  0  0  0
  -31.6832  -16.8492   21.3511 H   0  0  0  0  0  0
  -28.2019  -22.5522   19.3724 H   0  0  0  0  0  0
  -29.8845  -22.7003   19.7854 H   0  0  0  0  0  0
  -27.6561  -21.4602   21.4899 H   0  0  0  0  0  0
  -29.2198  -21.8029   22.1592 H   0  0  0  0  0  0
  -27.8281  -25.0330   18.8744 H   0  0  0  0  0  0
  -29.5079  -25.2674   19.1082 H   0  0  0  0  0  0
  -29.9199  -16.5310   18.6596 H   0  0  0  0  0  0
  -27.6408  -24.1888   21.2524 H   0  0  0  0  0  0
  -29.0924  -15.3298   21.4482 H   0  0  0  0  0  0
  1 25  1  0  0  0
  1 30  2  0  0  0
  1 85  1  0  0  0
  2  3  1  0  0  0
  2 25  1  0  0  0
  2 86  1  0  0  0
  2 87  1  0  0  0
  3  4  1  0  0  0
  3 88  1  0  0  0
  3 89  1  0  0  0
  4  5  1  0  0  0
  4 90  1  0  0  0
  4 91  1  0  0  0
  5  6  1  0  0  0
  5 26  1  0  0  0
  5 92  1  0  0  0
  6 25  1  0  0  0
  6 93  1  0  0  0
  6 94  1  0  0  0
  7  8  2  0  0  0
  7 26  1  0  0  0
  7 29  1  0  0  0
  8  9  1  0  0  0
  8 22  1  0  0  0
  9 10  1  0  0  0
  9 27  2  0  0  0
 10 11  2  0  0  0
 10 15  1  0  0  0
 11 12  1  0  0  0
 11 95  1  0  0  0
 12 13  2  0  0  0
 12 96  1  0  0  0
 13 14  1  0  0  0
 13 31  1  0  0  0
 14 15  2  0  0  0
 14 97  1  0  0  0
 15 98  1  0  0  0
 16 17  2  0  0  0
 16 21  1  0  0  0
 16 31  1  0  0  0
 17 18  1  0  0  0
 17 99  1  0  0  0
 18 19  2  0  0  0
 18100  1  0  0  0
 19 20  1  0  0  0
 19 24  1  0  0  0
 20 21  2  0  0  0
 20101  1  0  0  0
 21 23  1  0  0  0
 22 28  1  0  0  0
 22 32  2  0  0  0
 26 27  1  0  0  0
 28102  1  0  0  0
 28103  1  0  0  0
 29104  1  0  0  0
 29105  1  0  0  0
 33 34  1  0  0  0
 33 66  1  0  0  0
 33 70  2  0  0  0
 34 36  1  0  0  0
 34 59  1  0  0  0
 34106  1  0  0  0
 35 44  2  0  0  0
 35 45  1  0  0  0
 35 68  1  0  0  0
 36 56  1  0  0  0
 36107  1  0  0  0
 37 39  1  0  0  0
 37 47  1  0  0  0
 37 66  1  0  0  0
 37108  1  0  0  0
 38 43  2  0  0  0
 38 46  1  0  0  0
 38 47  1  0  0  0
 39 64  1  0  0  0
 39 67  2  0  0  0
 40 52  1  0  0  0
 40 53  2  0  0  0
 40 58  1  0  0  0
 41109  1  0  0  0
 41110  1  0  0  0
 41111  1  0  0  0
 41 48  1  0  0  0
 42 43  1  0  0  0
 42 66  1  0  0  0
 42112  1  0  0  0
 42113  1  0  0  0
 43 44  1  0  0  0
 44114  1  0  0  0
 45 46  2  0  0  0
 45115  1  0  0  0
 46116  1  0  0  0
 47117  1  0  0  0
 47118  1  0  0  0
 48 56  1  0  0  0
 48 65  1  0  0  0
 48119  1  0  0  0
 49 50  1  0  0  0
 49 53  1  0  0  0
 49 64  1  0  0  0
 49120  1  0  0  0
 50 51  1  0  0  0
 50121  1  0  0  0
 50122  1  0  0  0
 51 52  1  0  0  0
 51123  1  0  0  0
 51124  1  0  0  0
 52125  1  0  0  0
 52126  1  0  0  0
 53 54  1  0  0  0
 54 55  2  0  0  0
 54127  1  0  0  0
 55 57  1  0  0  0
 55128  1  0  0  0
 56 69  2  0  0  0
 57 58  2  0  0  0
 57129  1  0  0  0
 58130  1  0  0  0
 59 60  1  0  0  0
 59 61  1  0  0  0
 59 62  1  0  0  0
 60131  1  0  0  0
 60132  1  0  0  0
 60133  1  0  0  0
 61134  1  0  0  0
 61135  1  0  0  0
 61136  1  0  0  0
 62137  1  0  0  0
 62138  1  0  0  0
 62139  1  0  0  0
 63 65  1  0  0  0
 63140  1  0  0  0
 63141  1  0  0  0
 63142  1  0  0  0
 64143  1  0  0  0
 65144  1  0  0  0
 68 81  1  0  0  0
 71 73  2  0  0  0
 71 84  1  0  0  0
 71145  1  0  0  0
 72 74  2  0  0  0
 72 84  1  0  0  0
 72146  1  0  0  0
 73 74  1  0  0  0
 73 78  1  0  0  0
 74 82  1  0  0  0
 75147  1  0  0  0
 75148  1  0  0  0
 75149  1  0  0  0
 75 82  1  0  0  0
 76 82  1  0  0  0
 76150  1  0  0  0
 76151  1  0  0  0
 76152  1  0  0  0
 77153  1  0  0  0
 77154  1  0  0  0
 77155  1  0  0  0
 77 83  1  0  0  0
 78 85  1  0  0  0
 78156  1  0  0  0
 78157  1  0  0  0
 79 80  1  0  0  0
 79 83  1  0  0  0
 79158  1  0  0  0
 79159  1  0  0  0
 80 84  1  0  0  0
 80160  1  0  0  0
 80161  1  0  0  0
 81 83  1  0  0  0
 81162  1  0  0  0
 81163  1  0  0  0
 82164  1  0  0  0
 83165  1  0  0  0
 85166  1  0  0  0
M  ISO  4   1 100  68 101  81 101  85 100
M  END
> <chiral flag>
0

> <version>
0

> <s_m_source_file>
/data/baiqing/PycharmProjects/Reinvent-master-3.2/result/LINK_invent/BTK/process_docking_weight1_custom_sum_contain_oxygen_bond_distance_aromatic_linkinvent_7_9_3/rearranged_h_0101.sdf

> <i_m_source_file_index>
2

> <r_mmod_Potential_Energy-OPLS-2005>
-117.327842712402

> <r_mmod_Stretch_Energy-OPLS-2005>
47.9239463806152

> <r_mmod_Bend_Energy-OPLS-2005>
125.294998168945

> <r_mmod_Torsional_Energy-OPLS-2005>
207.294418334961

> <r_mmod_Improper_Torsional_Energy-OPLS-2005>
2.85952258110046

> <r_mmod_Van_der_Waal_Energy-OPLS-2005>
118.176231384277

> <r_mmod_Electrostatic_Energy-OPLS-2005>
-436.579162597656

> <r_mmod_Solvation_Energy-OPLS-2005>
-200.875930786133

> <b_mmod_Minimization_Converged-OPLS-2005>
0

> <r_mmod_RMS_Derivative-OPLS-2005>
2.2545804977417

$$$$
2
                    3D
 Structure written by MMmdl.
166173  0  0  1  0            999 V2000
  -30.5054  -14.9619   20.4213 C   0  0  0  0  0  0
  -30.4519  -12.6066   19.4635 C   0  0  0  0  0  0
  -29.5219  -12.5355   18.2292 C   0  0  0  0  0  0
  -28.0521  -12.3232   18.6535 C   0  0  0  0  0  0
  -27.6298  -13.2443   19.8288 C   0  0  2  0  0  0
  -28.6826  -13.2604   20.9554 C   0  0  0  0  0  0
  -25.2453  -13.8184   20.5651 C   0  0  0  0  0  0
  -24.1795  -13.0414   20.9191 C   0  0  0  0  0  0
  -24.6418  -11.6905   20.8735 C   0  0  0  0  0  0
  -23.9108  -10.4288   21.0407 C   0  0  0  0  0  0
  -24.3654   -9.4208   21.9192 C   0  0  0  0  0  0
  -23.6305   -8.2251   22.0779 C   0  0  0  0  0  0
  -22.4283   -8.0288   21.3565 C   0  0  0  0  0  0
  -21.9925   -9.0266   20.4661 C   0  0  0  0  0  0
  -22.7268  -10.2134   20.3058 C   0  0  0  0  0  0
  -21.6836   -6.0746   22.5285 C   0  0  0  0  0  0
  -21.4014   -6.5658   23.8221 C   0  0  0  0  0  0
  -21.3657   -5.6808   24.9179 C   0  0  0  0  0  0
  -21.6036   -4.3071   24.7228 C   0  0  0  0  0  0
  -21.8818   -3.8166   23.4354 C   0  0  0  0  0  0
  -21.9186   -4.6981   22.3408 C   0  0  0  0  0  0
  -22.7815  -13.5194   21.1829 C   0  0  0  0  0  0
  -22.1629   -4.2174   21.0979 F   0  0  0  0  0  0
  -21.5639   -3.4555   25.7743 F   0  0  0  0  0  0
  -29.9437  -13.6926   20.3398 N   0  0  0  0  0  0
  -26.2894  -12.9420   20.3192 N   0  0  0  0  0  0
  -25.9352  -11.6559   20.5714 N   0  0  0  0  0  0
  -22.0472  -12.8208   22.0409 N   0  0  0  0  0  0
  -25.4027  -15.1917   20.4015 N   0  0  0  0  0  0
  -31.7291  -15.0615   20.2899 O   0  0  0  0  0  0
  -21.6627   -6.8895   21.4251 O   0  0  0  0  0  0
  -22.3494  -14.5485   20.6637 O   0  0  0  0  0  0
  -24.6433  -31.8433   23.1886 C   0  0  0  0  0  0
  -25.9196  -32.4713   23.8294 C   0  0  1  0  0  0
  -27.2177  -27.1141   20.1913 C   0  0  0  0  0  0
  -25.5945  -33.8520   24.2208 N   0  0  0  0  0  0
  -23.4481  -30.4600   21.5330 C   0  0  2  0  0  0
  -24.8998  -28.8691   20.1308 C   0  0  0  0  0  0
  -22.7562  -29.4560   22.4873 C   0  0  0  0  0  0
  -18.0295  -28.1400   22.8482 C   0  0  0  0  0  0
  -24.1473  -36.7250   23.2647 C   0  0  0  0  0  0
  -26.0040  -30.7079   21.3925 C   0  0  0  0  0  0
  -26.0746  -29.3079   20.7581 C   0  0  0  0  0  0
  -27.2371  -28.4449   20.7719 C   0  0  0  0  0  0
  -26.0164  -26.7703   19.5406 C   0  0  0  0  0  0
  -24.8823  -27.6116   19.5088 C   0  0  0  0  0  0
  -23.6803  -29.7780   20.1575 C   0  0  0  0  0  0
  -25.4103  -36.3052   24.0333 C   0  0  1  0  0  0
  -20.5917  -28.3731   23.1230 C   0  0  2  0  0  0
  -20.6790  -26.9426   22.5403 C   0  0  0  0  0  0
  -19.5761  -26.6378   21.5223 C   0  0  0  0  0  0
  -18.1939  -26.7938   22.1622 C   0  0  0  0  0  0
  -19.1552  -28.8879   23.2850 C   0  0  0  0  0  0
  -18.9470  -30.1480   23.8877 C   0  0  0  0  0  0
  -17.6470  -30.6600   24.0561 C   0  0  0  0  0  0
  -25.9054  -34.9427   23.5076 C   0  0  0  0  0  0
  -16.5361  -29.9088   23.6345 C   0  0  0  0  0  0
  -16.7280  -28.6505   23.0368 C   0  0  0  0  0  0
  -26.4513  -31.6593   25.0742 C   0  0  0  0  0  0
  -25.3685  -31.3788   26.1438 C   0  0  0  0  0  0
  -27.0403  -30.2997   24.6339 C   0  0  0  0  0  0
  -27.6054  -32.4349   25.7522 C   0  0  0  0  0  0
  -27.5556  -37.1785   24.8469 C   0  0  0  0  0  0
  -21.4249  -29.3073   22.3612 N   0  0  0  0  0  0
  -26.4256  -37.3774   23.9428 N   0  0  0  0  0  0
  -24.7195  -31.0279   22.0935 N   0  0  0  0  0  0
  -23.4192  -28.8102   23.3027 O   0  0  0  0  0  0
  -28.2951  -26.1714   20.0425 O   0  0  0  0  0  0
  -26.5628  -34.8922   22.4645 O   0  0  0  0  0  0
  -23.5540  -32.1309   23.7075 O   0  0  0  0  0  0
  -27.6076  -20.2913   19.5283 C   0  0  0  0  0  0
  -27.0025  -23.1317   21.5095 C   0  0  0  0  0  0
  -29.9089  -18.7594   18.6722 C   0  0  0  0  0  0
  -31.2835  -19.3430   20.6238 C   0  0  0  0  0  0
  -30.1532  -22.3795   21.7016 C   0  0  0  0  0  0
  -30.0535  -22.4440   19.1953 C   0  0  0  0  0  0
  -29.5138  -17.5829   20.9354 C   0  0  0  0  0  0
  -28.8402  -20.4670   20.4513 C   0  0  1  0  0  0
  -28.1294  -23.4600   20.5034 C   0  0  2  0  0  0
  -29.8335  -19.0646   20.1847 C   0  0  0  0  0  0
  -29.2471  -22.1524   20.4716 C   0  0  0  0  0  0
  -29.6368  -16.0890   20.4078 N   0  0  0  0  0  0
  -28.4563  -24.9135   20.9927 N   0  0  0  0  0  0
  -31.4819  -12.7914   19.1529 H   0  0  0  0  0  0
  -30.4594  -11.6543   19.9956 H   0  0  0  0  0  0
  -29.8372  -11.7297   17.5658 H   0  0  0  0  0  0
  -29.6091  -13.4560   17.6496 H   0  0  0  0  0  0
  -27.9458  -11.2801   18.9492 H   0  0  0  0  0  0
  -27.3855  -12.4661   17.8016 H   0  0  0  0  0  0
  -27.5898  -14.2503   19.4110 H   0  0  0  0  0  0
  -28.7909  -12.2775   21.4171 H   0  0  0  0  0  0
  -28.3920  -13.9487   21.7506 H   0  0  0  0  0  0
  -25.2808   -9.5678   22.4764 H   0  0  0  0  0  0
  -24.0018   -7.4651   22.7508 H   0  0  0  0  0  0
  -21.0851   -8.8770   19.8981 H   0  0  0  0  0  0
  -22.3722  -10.9666   19.6168 H   0  0  0  0  0  0
  -21.2011   -7.6167   23.9725 H   0  0  0  0  0  0
  -21.1459   -6.0541   25.9072 H   0  0  0  0  0  0
  -22.0602   -2.7631   23.2841 H   0  0  0  0  0  0
  -22.4070  -11.9886   22.4846 H   0  0  0  0  0  0
  -21.1090  -13.1231   22.2591 H   0  0  0  0  0  0
  -24.6115  -15.8198   20.4906 H   0  0  0  0  0  0
  -26.2139  -15.6374   19.9962 H   0  0  0  0  0  0
  -26.7274  -32.5327   23.1042 H   0  0  0  0  0  0
  -25.0193  -33.9661   25.0428 H   0  0  0  0  0  0
  -22.7546  -31.2879   21.3704 H   0  0  0  0  0  0
  -23.3761  -35.9554   23.3296 H   0  0  0  0  0  0
  -24.3553  -36.8873   22.2060 H   0  0  0  0  0  0
  -23.7195  -37.6434   23.6675 H   0  0  0  0  0  0
  -26.1532  -31.4467   20.6033 H   0  0  0  0  0  0
  -26.8796  -30.7754   22.0273 H   0  0  0  0  0  0
  -28.1470  -28.7846   21.2461 H   0  0  0  0  0  0
  -25.9556  -25.8078   19.0532 H   0  0  0  0  0  0
  -23.9881  -27.2656   19.0079 H   0  0  0  0  0  0
  -23.8264  -30.5447   19.3965 H   0  0  0  0  0  0
  -22.7961  -29.2209   19.8437 H   0  0  0  0  0  0
  -25.1295  -36.1887   25.0828 H   0  0  0  0  0  0
  -21.0007  -28.3310   24.1352 H   0  0  0  0  0  0
  -20.5700  -26.2339   23.3626 H   0  0  0  0  0  0
  -21.6652  -26.7459   22.1186 H   0  0  0  0  0  0
  -19.6922  -25.6285   21.1265 H   0  0  0  0  0  0
  -19.6690  -27.3179   20.6743 H   0  0  0  0  0  0
  -17.4216  -26.6698   21.4019 H   0  0  0  0  0  0
  -18.0315  -26.0085   22.9009 H   0  0  0  0  0  0
  -19.7945  -30.7292   24.2235 H   0  0  0  0  0  0
  -17.5025  -31.6282   24.5148 H   0  0  0  0  0  0
  -15.5361  -30.2981   23.7695 H   0  0  0  0  0  0
  -15.8677  -28.0816   22.7111 H   0  0  0  0  0  0
  -24.5893  -30.7106   25.7771 H   0  0  0  0  0  0
  -24.8840  -32.2966   26.4789 H   0  0  0  0  0  0
  -25.7957  -30.9036   27.0278 H   0  0  0  0  0  0
  -26.3056  -29.6714   24.1299 H   0  0  0  0  0  0
  -27.3989  -29.7317   25.4941 H   0  0  0  0  0  0
  -27.8961  -30.4281   23.9702 H   0  0  0  0  0  0
  -27.2695  -33.3703   26.2015 H   0  0  0  0  0  0
  -28.3909  -32.6800   25.0361 H   0  0  0  0  0  0
  -28.0670  -31.8511   26.5502 H   0  0  0  0  0  0
  -28.2591  -38.0073   24.7532 H   0  0  0  0  0  0
  -28.1036  -36.2611   24.6274 H   0  0  0  0  0  0
  -27.2278  -37.1401   25.8872 H   0  0  0  0  0  0
  -20.9451  -29.8770   21.6786 H   0  0  0  0  0  0
  -26.0125  -38.2841   24.1441 H   0  0  0  0  0  0
  -27.2314  -19.2697   19.5654 H   0  0  0  0  0  0
  -27.8484  -20.5140   18.4882 H   0  0  0  0  0  0
  -26.7655  -20.9247   19.7808 H   0  0  0  0  0  0
  -26.6201  -22.1193   21.4369 H   0  0  0  0  0  0
  -26.1468  -23.7942   21.3756 H   0  0  0  0  0  0
  -27.3401  -23.2332   22.5421 H   0  0  0  0  0  0
  -30.6517  -17.9904   18.4556 H   0  0  0  0  0  0
  -30.1742  -19.6445   18.0932 H   0  0  0  0  0  0
  -28.9637  -18.3780   18.2882 H   0  0  0  0  0  0
  -31.9253  -18.4859   20.4124 H   0  0  0  0  0  0
  -31.3468  -19.5212   21.6960 H   0  0  0  0  0  0
  -31.7380  -20.1859   20.1126 H   0  0  0  0  0  0
  -31.0058  -21.7085   21.7318 H   0  0  0  0  0  0
  -29.6008  -22.2468   22.6318 H   0  0  0  0  0  0
  -30.5644  -23.3889   21.7178 H   0  0  0  0  0  0
  -30.8923  -21.7707   19.0518 H   0  0  0  0  0  0
  -30.4573  -23.4571   19.2086 H   0  0  0  0  0  0
  -29.4167  -22.3657   18.3153 H   0  0  0  0  0  0
  -28.4495  -17.6434   21.1637 H   0  0  0  0  0  0
  -29.9659  -17.5928   21.9289 H   0  0  0  0  0  0
  -28.4644  -20.2977   21.4613 H   0  0  0  0  0  0
  -27.6709  -23.5348   19.5172 H   0  0  0  0  0  0
  -28.7112  -15.7516   20.1935 H   0  0  0  0  0  0
  -27.8917  -25.1244   21.8101 H   0  0  0  0  0  0
  1 25  1  0  0  0
  1 30  2  0  0  0
  1 82  1  0  0  0
  2  3  1  0  0  0
  2 25  1  0  0  0
  2 84  1  0  0  0
  2 85  1  0  0  0
  3  4  1  0  0  0
  3 86  1  0  0  0
  3 87  1  0  0  0
  4  5  1  0  0  0
  4 88  1  0  0  0
  4 89  1  0  0  0
  5  6  1  0  0  0
  5 26  1  0  0  0
  5 90  1  0  0  0
  6 25  1  0  0  0
  6 91  1  0  0  0
  6 92  1  0  0  0
  7  8  2  0  0  0
  7 26  1  0  0  0
  7 29  1  0  0  0
  8  9  1  0  0  0
  8 22  1  0  0  0
  9 10  1  0  0  0
  9 27  2  0  0  0
 10 11  2  0  0  0
 10 15  1  0  0  0
 11 12  1  0  0  0
 11 93  1  0  0  0
 12 13  2  0  0  0
 12 94  1  0  0  0
 13 14  1  0  0  0
 13 31  1  0  0  0
 14 15  2  0  0  0
 14 95  1  0  0  0
 15 96  1  0  0  0
 16 17  2  0  0  0
 16 21  1  0  0  0
 16 31  1  0  0  0
 17 18  1  0  0  0
 17 97  1  0  0  0
 18 19  2  0  0  0
 18 98  1  0  0  0
 19 20  1  0  0  0
 19 24  1  0  0  0
 20 21  2  0  0  0
 20 99  1  0  0  0
 21 23  1  0  0  0
 22 28  1  0  0  0
 22 32  2  0  0  0
 26 27  1  0  0  0
 28100  1  0  0  0
 28101  1  0  0  0
 29102  1  0  0  0
 29103  1  0  0  0
 33 34  1  0  0  0
 33 66  1  0  0  0
 33 70  2  0  0  0
 34 36  1  0  0  0
 34 59  1  0  0  0
 34104  1  0  0  0
 35 44  2  0  0  0
 35 45  1  0  0  0
 35 68  1  0  0  0
 36 56  1  0  0  0
 36105  1  0  0  0
 37 39  1  0  0  0
 37 47  1  0  0  0
 37 66  1  0  0  0
 37106  1  0  0  0
 38 43  2  0  0  0
 38 46  1  0  0  0
 38 47  1  0  0  0
 39 64  1  0  0  0
 39 67  2  0  0  0
 40 52  1  0  0  0
 40 53  2  0  0  0
 40 58  1  0  0  0
 41107  1  0  0  0
 41108  1  0  0  0
 41109  1  0  0  0
 41 48  1  0  0  0
 42 43  1  0  0  0
 42 66  1  0  0  0
 42110  1  0  0  0
 42111  1  0  0  0
 43 44  1  0  0  0
 44112  1  0  0  0
 45 46  2  0  0  0
 45113  1  0  0  0
 46114  1  0  0  0
 47115  1  0  0  0
 47116  1  0  0  0
 48 56  1  0  0  0
 48 65  1  0  0  0
 48117  1  0  0  0
 49 50  1  0  0  0
 49 53  1  0  0  0
 49 64  1  0  0  0
 49118  1  0  0  0
 50 51  1  0  0  0
 50119  1  0  0  0
 50120  1  0  0  0
 51 52  1  0  0  0
 51121  1  0  0  0
 51122  1  0  0  0
 52123  1  0  0  0
 52124  1  0  0  0
 53 54  1  0  0  0
 54 55  2  0  0  0
 54125  1  0  0  0
 55 57  1  0  0  0
 55126  1  0  0  0
 56 69  2  0  0  0
 57 58  2  0  0  0
 57127  1  0  0  0
 58128  1  0  0  0
 59 60  1  0  0  0
 59 61  1  0  0  0
 59 62  1  0  0  0
 60129  1  0  0  0
 60130  1  0  0  0
 60131  1  0  0  0
 61132  1  0  0  0
 61133  1  0  0  0
 61134  1  0  0  0
 62135  1  0  0  0
 62136  1  0  0  0
 62137  1  0  0  0
 63 65  1  0  0  0
 63138  1  0  0  0
 63139  1  0  0  0
 63140  1  0  0  0
 64141  1  0  0  0
 65142  1  0  0  0
 68 83  1  0  0  0
 71143  1  0  0  0
 71144  1  0  0  0
 71145  1  0  0  0
 71 78  1  0  0  0
 72146  1  0  0  0
 72147  1  0  0  0
 72148  1  0  0  0
 72 79  1  0  0  0
 73149  1  0  0  0
 73150  1  0  0  0
 73151  1  0  0  0
 73 80  1  0  0  0
 74 80  1  0  0  0
 74152  1  0  0  0
 74153  1  0  0  0
 74154  1  0  0  0
 75155  1  0  0  0
 75156  1  0  0  0
 75157  1  0  0  0
 75 81  1  0  0  0
 76 81  1  0  0  0
 76158  1  0  0  0
 76159  1  0  0  0
 76160  1  0  0  0
 77 80  1  0  0  0
 77 82  1  0  0  0
 77161  1  0  0  0
 77162  1  0  0  0
 78 80  1  0  0  0
 78 81  1  0  0  0
 78163  1  0  0  0
 79 81  1  0  0  0
 79 83  1  0  0  0
 79164  1  0  0  0
 82165  1  0  0  0
 83166  1  0  0  0
M  ISO  4   1 100  68 101  82 100  83 101
M  END
> <chiral flag>
0

> <version>
0

> <s_m_source_file>
/data/baiqing/PycharmProjects/Reinvent-master-3.2/result/LINK_invent/BTK/process_docking_weight1_custom_sum_contain_oxygen_bond_distance_aromatic_linkinvent_7_9_3/rearranged_h_0101.sdf

> <i_m_source_file_index>
3

> <r_mmod_Potential_Energy-OPLS-2005>
682.26806640625

> <r_mmod_Stretch_Energy-OPLS-2005>
322.798187255859

> <r_mmod_Bend_Energy-OPLS-2005>
376.41357421875

> <r_mmod_Torsional_Energy-OPLS-2005>
308.687927246094

> <r_mmod_Improper_Torsional_Energy-OPLS-2005>
7.20768785476685

> <r_mmod_Van_der_Waal_Energy-OPLS-2005>
114.743942260742

> <r_mmod_Electrostatic_Energy-OPLS-2005>
-452.894378662109

> <r_mmod_Solvation_Energy-OPLS-2005>
-199.155578613281

> <b_mmod_Minimization_Converged-OPLS-2005>
0

> <r_mmod_RMS_Derivative-OPLS-2005>
3.00099205970764

$$$$
3
                    3D
 Structure written by MMmdl.
156164  0  0  1  0            999 V2000
  -30.6229  -14.8118   20.5478 C   0  0  0  0  0  0
  -30.4327  -12.5144   19.5000 C   0  0  0  0  0  0
  -29.5192  -12.5481   18.2532 C   0  0  0  0  0  0
  -28.0454  -12.3487   18.6543 C   0  0  0  0  0  0
  -27.6440  -13.2393   19.8578 C   0  0  2  0  0  0
  -28.6817  -13.1719   20.9975 C   0  0  0  0  0  0
  -25.2511  -13.8213   20.5730 C   0  0  0  0  0  0
  -24.1794  -13.0456   20.9197 C   0  0  0  0  0  0
  -24.6386  -11.6929   20.8730 C   0  0  0  0  0  0
  -23.9062  -10.4306   21.0403 C   0  0  0  0  0  0
  -24.3610   -9.4219   21.9184 C   0  0  0  0  0  0
  -23.6283   -8.2253   22.0759 C   0  0  0  0  0  0
  -22.4266   -8.0285   21.3544 C   0  0  0  0  0  0
  -21.9898   -9.0264   20.4648 C   0  0  0  0  0  0
  -22.7229  -10.2145   20.3053 C   0  0  0  0  0  0
  -21.6850   -6.0728   22.5270 C   0  0  0  0  0  0
  -21.4030   -6.5633   23.8208 C   0  0  0  0  0  0
  -21.3659   -5.6787   24.9167 C   0  0  0  0  0  0
  -21.6044   -4.3050   24.7225 C   0  0  0  0  0  0
  -21.8813   -3.8139   23.4346 C   0  0  0  0  0  0
  -21.9200   -4.6955   22.3401 C   0  0  0  0  0  0
  -22.7808  -13.5242   21.1842 C   0  0  0  0  0  0
  -22.1659   -4.2138   21.0979 F   0  0  0  0  0  0
  -21.5628   -3.4531   25.7739 F   0  0  0  0  0  0
  -29.9838  -13.5780   20.4455 N   0  0  0  0  0  0
  -26.2942  -12.9431   20.3290 N   0  0  0  0  0  0
  -25.9324  -11.6569   20.5734 N   0  0  0  0  0  0
  -22.0437  -12.8274   22.0409 N   0  0  0  0  0  0
  -25.4239  -15.1950   20.4227 N   0  0  0  0  0  0
  -31.7211  -14.9073   19.9892 O   0  0  0  0  0  0
  -21.6634   -6.8875   21.4234 O   0  0  0  0  0  0
  -22.3502  -14.5538   20.6659 O   0  0  0  0  0  0
  -24.6379  -31.8513   23.1960 C   0  0  0  0  0  0
  -25.9193  -32.4728   23.8310 C   0  0  1  0  0  0
  -27.2009  -27.1914   20.1396 C   0  0  0  0  0  0
  -25.5971  -33.8535   24.2238 N   0  0  0  0  0  0
  -23.4366  -30.4754   21.5401 C   0  0  2  0  0  0
  -24.8843  -28.9224   20.0999 C   0  0  0  0  0  0
  -22.7543  -29.4587   22.4889 C   0  0  0  0  0  0
  -18.0301  -28.1396   22.8474 C   0  0  0  0  0  0
  -24.1488  -36.7259   23.2633 C   0  0  0  0  0  0
  -25.9891  -30.7384   21.3929 C   0  0  0  0  0  0
  -26.0574  -29.3586   20.7286 C   0  0  0  0  0  0
  -27.2166  -28.5049   20.7416 C   0  0  0  0  0  0
  -26.0204  -26.8709   19.4309 C   0  0  0  0  0  0
  -24.8777  -27.6913   19.4325 C   0  0  0  0  0  0
  -23.6568  -29.8143   20.1544 C   0  0  0  0  0  0
  -25.4116  -36.3047   24.0319 C   0  0  1  0  0  0
  -20.5907  -28.3728   23.1251 C   0  0  2  0  0  0
  -20.6780  -26.9422   22.5419 C   0  0  0  0  0  0
  -19.5765  -26.6357   21.5224 C   0  0  0  0  0  0
  -18.1935  -26.7933   22.1621 C   0  0  0  0  0  0
  -19.1556  -28.8881   23.2850 C   0  0  0  0  0  0
  -18.9472  -30.1477   23.8873 C   0  0  0  0  0  0
  -17.6471  -30.6602   24.0550 C   0  0  0  0  0  0
  -25.9071  -34.9424   23.5079 C   0  0  0  0  0  0
  -16.5365  -29.9089   23.6324 C   0  0  0  0  0  0
  -16.7291  -28.6506   23.0358 C   0  0  0  0  0  0
  -26.4529  -31.6569   25.0724 C   0  0  0  0  0  0
  -25.3714  -31.3756   26.1420 C   0  0  0  0  0  0
  -27.0393  -30.2967   24.6275 C   0  0  0  0  0  0
  -27.6071  -32.4327   25.7497 C   0  0  0  0  0  0
  -27.5577  -37.1785   24.8467 C   0  0  0  0  0  0
  -21.4245  -29.3055   22.3632 N   0  0  0  0  0  0
  -26.4289  -37.3752   23.9408 N   0  0  0  0  0  0
  -24.7063  -31.0421   22.0974 N   0  0  0  0  0  0
  -23.4215  -28.8136   23.3025 O   0  0  0  0  0  0
  -28.2298  -26.2010   20.2559 O   0  0  0  0  0  0
  -26.5641  -34.8917   22.4646 O   0  0  0  0  0  0
  -23.5519  -32.1401   23.7210 O   0  0  0  0  0  0
  -28.4219  -18.1718   21.2649 C   0  0  0  0  0  0
  -28.0938  -19.5508   21.0448 C   0  0  0  0  0  0
  -30.4844  -18.5744   20.2017 C   0  0  0  0  0  0
  -29.6636  -17.5999   20.8602 C   0  0  0  0  0  0
  -28.9745  -20.4573   20.3956 C   0  0  0  0  0  0
  -29.5864  -15.8000   22.7907 C   0  0  0  0  0  0
  -26.7987  -24.4820   21.3548 C   0  0  0  0  0  0
  -28.4584  -21.9254   19.9242 C   0  0  0  0  0  0
  -28.9195  -23.4299   20.4234 C   0  0  0  0  0  0
  -30.1573  -16.1374   21.3964 C   0  0  1  0  0  0
  -27.8694  -24.6997   20.2557 C   0  0  2  0  0  0
  -30.1579  -19.9094   19.9670 N   0  0  0  0  0  0
  -31.4755  -12.6303   19.2025 H   0  0  0  0  0  0
  -30.3835  -11.5381   19.9843 H   0  0  0  0  0  0
  -29.8209  -11.7824   17.5373 H   0  0  0  0  0  0
  -29.6334  -13.5080   17.7465 H   0  0  0  0  0  0
  -27.9095  -11.2968   18.9119 H   0  0  0  0  0  0
  -27.3899  -12.5433   17.8048 H   0  0  0  0  0  0
  -27.6425  -14.2655   19.4894 H   0  0  0  0  0  0
  -28.7379  -12.1639   21.4120 H   0  0  0  0  0  0
  -28.3565  -13.8014   21.8179 H   0  0  0  0  0  0
  -25.2756   -9.5694   22.4758 H   0  0  0  0  0  0
  -23.9986   -7.4651   22.7488 H   0  0  0  0  0  0
  -21.0819   -8.8783   19.8962 H   0  0  0  0  0  0
  -22.3683  -10.9679   19.6158 H   0  0  0  0  0  0
  -21.2026   -7.6139   23.9707 H   0  0  0  0  0  0
  -21.1479   -6.0513   25.9067 H   0  0  0  0  0  0
  -22.0593   -2.7597   23.2847 H   0  0  0  0  0  0
  -22.4036  -11.9957   22.4849 H   0  0  0  0  0  0
  -21.1047  -13.1310   22.2565 H   0  0  0  0  0  0
  -24.6633  -15.8548   20.5407 H   0  0  0  0  0  0
  -26.2816  -15.6314   20.1092 H   0  0  0  0  0  0
  -26.7245  -32.5350   23.1029 H   0  0  0  0  0  0
  -25.0129  -33.9655   25.0398 H   0  0  0  0  0  0
  -22.7343  -31.2986   21.3944 H   0  0  0  0  0  0
  -23.3759  -35.9580   23.3292 H   0  0  0  0  0  0
  -24.3575  -36.8906   22.2049 H   0  0  0  0  0  0
  -23.7247  -37.6458   23.6669 H   0  0  0  0  0  0
  -26.1410  -31.4963   20.6237 H   0  0  0  0  0  0
  -26.8605  -30.7812   22.0350 H   0  0  0  0  0  0
  -28.1005  -28.8207   21.2782 H   0  0  0  0  0  0
  -25.9312  -25.9361   18.8996 H   0  0  0  0  0  0
  -23.9906  -27.3605   18.9109 H   0  0  0  0  0  0
  -23.7841  -30.5931   19.4022 H   0  0  0  0  0  0
  -22.7723  -29.2511   19.8483 H   0  0  0  0  0  0
  -25.1297  -36.1880   25.0810 H   0  0  0  0  0  0
  -21.0008  -28.3309   24.1371 H   0  0  0  0  0  0
  -21.6653  -26.7433   22.1223 H   0  0  0  0  0  0
  -20.5671  -26.2346   23.3662 H   0  0  0  0  0  0
  -19.6950  -25.6259   21.1288 H   0  0  0  0  0  0
  -19.6718  -27.3158   20.6750 H   0  0  0  0  0  0
  -17.4198  -26.6700   21.4032 H   0  0  0  0  0  0
  -18.0331  -26.0063   22.9013 H   0  0  0  0  0  0
  -19.7956  -30.7294   24.2235 H   0  0  0  0  0  0
  -17.5025  -31.6276   24.5145 H   0  0  0  0  0  0
  -15.5360  -30.2983   23.7667 H   0  0  0  0  0  0
  -15.8687  -28.0812   22.7104 H   0  0  0  0  0  0
  -24.5894  -30.7105   25.7737 H   0  0  0  0  0  0
  -24.8899  -32.2942   26.4776 H   0  0  0  0  0  0
  -25.7996  -30.8973   27.0234 H   0  0  0  0  0  0
  -26.3007  -29.6687   24.1274 H   0  0  0  0  0  0
  -27.4023  -29.7265   25.4837 H   0  0  0  0  0  0
  -27.8910  -30.4222   23.9582 H   0  0  0  0  0  0
  -27.2671  -33.3646   26.2016 H   0  0  0  0  0  0
  -28.3895  -32.6855   25.0329 H   0  0  0  0  0  0
  -28.0705  -31.8488   26.5460 H   0  0  0  0  0  0
  -28.2581  -38.0092   24.7506 H   0  0  0  0  0  0
  -28.1090  -36.2623   24.6294 H   0  0  0  0  0  0
  -27.2295  -37.1428   25.8873 H   0  0  0  0  0  0
  -20.9448  -29.8785   21.6828 H   0  0  0  0  0  0
  -26.0163  -38.2823   24.1421 H   0  0  0  0  0  0
  -27.7034  -17.5669   21.7978 H   0  0  0  0  0  0
  -27.1228  -19.9038   21.3672 H   0  0  0  0  0  0
  -31.4783  -18.2921   19.8874 H   0  0  0  0  0  0
  -29.8734  -16.5590   23.5189 H   0  0  0  0  0  0
  -29.9722  -14.8515   23.1651 H   0  0  0  0  0  0
  -28.4989  -15.7457   22.7972 H   0  0  0  0  0  0
  -25.8678  -25.0156   21.1726 H   0  0  0  0  0  0
  -27.1729  -24.8026   22.3273 H   0  0  0  0  0  0
  -26.5152  -23.4334   21.4451 H   0  0  0  0  0  0
  -27.3825  -21.8842   20.0833 H   0  0  0  0  0  0
  -28.5454  -21.9265   18.8379 H   0  0  0  0  0  0
  -29.8484  -23.6748   19.9088 H   0  0  0  0  0  0
  -29.1924  -23.3630   21.4769 H   0  0  0  0  0  0
  -31.1605  -16.4526   21.6888 H   0  0  0  0  0  0
  -27.4203  -24.5113   19.2811 H   0  0  0  0  0  0
  1 25  1  0  0  0
  1 30  2  0  0  0
  1 80  1  0  0  0
  2  3  1  0  0  0
  2 25  1  0  0  0
  2 83  1  0  0  0
  2 84  1  0  0  0
  3  4  1  0  0  0
  3 85  1  0  0  0
  3 86  1  0  0  0
  4  5  1  0  0  0
  4 87  1  0  0  0
  4 88  1  0  0  0
  5  6  1  0  0  0
  5 26  1  0  0  0
  5 89  1  0  0  0
  6 25  1  0  0  0
  6 90  1  0  0  0
  6 91  1  0  0  0
  7  8  2  0  0  0
  7 26  1  0  0  0
  7 29  1  0  0  0
  8  9  1  0  0  0
  8 22  1  0  0  0
  9 10  1  0  0  0
  9 27  2  0  0  0
 10 11  2  0  0  0
 10 15  1  0  0  0
 11 12  1  0  0  0
 11 92  1  0  0  0
 12 13  2  0  0  0
 12 93  1  0  0  0
 13 14  1  0  0  0
 13 31  1  0  0  0
 14 15  2  0  0  0
 14 94  1  0  0  0
 15 95  1  0  0  0
 16 17  2  0  0  0
 16 21  1  0  0  0
 16 31  1  0  0  0
 17 18  1  0  0  0
 17 96  1  0  0  0
 18 19  2  0  0  0
 18 97  1  0  0  0
 19 20  1  0  0  0
 19 24  1  0  0  0
 20 21  2  0  0  0
 20 98  1  0  0  0
 21 23  1  0  0  0
 22 28  1  0  0  0
 22 32  2  0  0  0
 26 27  1  0  0  0
 28 99  1  0  0  0
 28100  1  0  0  0
 29101  1  0  0  0
 29102  1  0  0  0
 33 34  1  0  0  0
 33 66  1  0  0  0
 33 70  2  0  0  0
 34 36  1  0  0  0
 34 59  1  0  0  0
 34103  1  0  0  0
 35 44  2  0  0  0
 35 45  1  0  0  0
 35 68  1  0  0  0
 36 56  1  0  0  0
 36104  1  0  0  0
 37 39  1  0  0  0
 37 47  1  0  0  0
 37 66  1  0  0  0
 37105  1  0  0  0
 38 43  2  0  0  0
 38 46  1  0  0  0
 38 47  1  0  0  0
 39 64  1  0  0  0
 39 67  2  0  0  0
 40 52  1  0  0  0
 40 53  2  0  0  0
 40 58  1  0  0  0
 41106  1  0  0  0
 41107  1  0  0  0
 41108  1  0  0  0
 41 48  1  0  0  0
 42 43  1  0  0  0
 42 66  1  0  0  0
 42109  1  0  0  0
 42110  1  0  0  0
 43 44  1  0  0  0
 44111  1  0  0  0
 45 46  2  0  0  0
 45112  1  0  0  0
 46113  1  0  0  0
 47114  1  0  0  0
 47115  1  0  0  0
 48 56  1  0  0  0
 48 65  1  0  0  0
 48116  1  0  0  0
 49 50  1  0  0  0
 49 53  1  0  0  0
 49 64  1  0  0  0
 49117  1  0  0  0
 50 51  1  0  0  0
 50118  1  0  0  0
 50119  1  0  0  0
 51 52  1  0  0  0
 51120  1  0  0  0
 51121  1  0  0  0
 52122  1  0  0  0
 52123  1  0  0  0
 53 54  1  0  0  0
 54 55  2  0  0  0
 54124  1  0  0  0
 55 57  1  0  0  0
 55125  1  0  0  0
 56 69  2  0  0  0
 57 58  2  0  0  0
 57126  1  0  0  0
 58127  1  0  0  0
 59 60  1  0  0  0
 59 61  1  0  0  0
 59 62  1  0  0  0
 60128  1  0  0  0
 60129  1  0  0  0
 60130  1  0  0  0
 61131  1  0  0  0
 61132  1  0  0  0
 61133  1  0  0  0
 62134  1  0  0  0
 62135  1  0  0  0
 62136  1  0  0  0
 63 65  1  0  0  0
 63137  1  0  0  0
 63138  1  0  0  0
 63139  1  0  0  0
 64140  1  0  0  0
 65141  1  0  0  0
 68 81  1  0  0  0
 71 72  2  0  0  0
 71 74  1  0  0  0
 71142  1  0  0  0
 72 75  1  0  0  0
 72143  1  0  0  0
 73 74  2  0  0  0
 73 82  1  0  0  0
 73144  1  0  0  0
 74 80  1  0  0  0
 75 78  1  0  0  0
 75 82  2  0  0  0
 76145  1  0  0  0
 76146  1  0  0  0
 76147  1  0  0  0
 76 80  1  0  0  0
 77148  1  0  0  0
 77149  1  0  0  0
 77150  1  0  0  0
 77 81  1  0  0  0
 78 79  1  0  0  0
 78151  1  0  0  0
 78152  1  0  0  0
 79 81  1  0  0  0
 79153  1  0  0  0
 79154  1  0  0  0
 80155  1  0  0  0
 81156  1  0  0  0
M  ISO  4   1 100  68 101  80 100  81 101
M  END
> <chiral flag>
0

> <version>
0

> <s_m_source_file>
/data/baiqing/PycharmProjects/Reinvent-master-3.2/result/LINK_invent/BTK/process_docking_weight1_custom_sum_contain_oxygen_bond_distance_aromatic_linkinvent_7_9_3/rearranged_h_0101.sdf

> <i_m_source_file_index>
4

> <r_mmod_Potential_Energy-OPLS-2005>
233.640258789062

> <r_mmod_Stretch_Energy-OPLS-2005>
186.820251464844

> <r_mmod_Bend_Energy-OPLS-2005>
270.979064941406

> <r_mmod_Torsional_Energy-OPLS-2005>
189.537704467773

> <r_mmod_Improper_Torsional_Energy-OPLS-2005>
6.01153707504272

> <r_mmod_Van_der_Waal_Energy-OPLS-2005>
149.371139526367

> <r_mmod_Electrostatic_Energy-OPLS-2005>
-494.714660644531

> <r_mmod_Solvation_Energy-OPLS-2005>
-203.924438476562

> <b_mmod_Minimization_Converged-OPLS-2005>
0

> <r_mmod_RMS_Derivative-OPLS-2005>
2.0792191028595

$$$$
4
                    3D
 Structure written by MMmdl.
160168  0  0  1  0            999 V2000
  -30.5960  -14.7363   20.4638 C   0  0  0  0  0  0
  -30.4413  -12.4536   19.4675 C   0  0  0  0  0  0
  -29.5162  -12.5038   18.2345 C   0  0  0  0  0  0
  -28.0418  -12.3281   18.6488 C   0  0  0  0  0  0
  -27.6455  -13.2263   19.8508 C   0  0  2  0  0  0
  -28.6860  -13.1477   20.9864 C   0  0  0  0  0  0
  -25.2535  -13.8190   20.5672 C   0  0  0  0  0  0
  -24.1800  -13.0452   20.9212 C   0  0  0  0  0  0
  -24.6380  -11.6914   20.8748 C   0  0  0  0  0  0
  -23.9063  -10.4283   21.0405 C   0  0  0  0  0  0
  -24.3604   -9.4192   21.9191 C   0  0  0  0  0  0
  -23.6274   -8.2236   22.0762 C   0  0  0  0  0  0
  -22.4256   -8.0291   21.3556 C   0  0  0  0  0  0
  -21.9897   -9.0262   20.4657 C   0  0  0  0  0  0
  -22.7235  -10.2133   20.3051 C   0  0  0  0  0  0
  -21.6852   -6.0745   22.5286 C   0  0  0  0  0  0
  -21.4033   -6.5643   23.8225 C   0  0  0  0  0  0
  -21.3628   -5.6781   24.9171 C   0  0  0  0  0  0
  -21.6007   -4.3044   24.7210 C   0  0  0  0  0  0
  -21.8831   -3.8146   23.4332 C   0  0  0  0  0  0
  -21.9203   -4.6973   22.3387 C   0  0  0  0  0  0
  -22.7835  -13.5271   21.1844 C   0  0  0  0  0  0
  -22.1676   -4.2176   21.0965 F   0  0  0  0  0  0
  -21.5577   -3.4508   25.7706 F   0  0  0  0  0  0
  -29.9871  -13.5055   20.4071 N   0  0  0  0  0  0
  -26.2956  -12.9382   20.3268 N   0  0  0  0  0  0
  -25.9310  -11.6534   20.5737 N   0  0  0  0  0  0
  -22.0441  -12.8271   22.0388 N   0  0  0  0  0  0
  -25.4254  -15.1891   20.4016 N   0  0  0  0  0  0
  -31.7815  -14.8544   20.1381 O   0  0  0  0  0  0
  -21.6629   -6.8877   21.4248 O   0  0  0  0  0  0
  -22.3536  -14.5581   20.6688 O   0  0  0  0  0  0
  -24.6318  -31.8547   23.1965 C   0  0  0  0  0  0
  -25.9151  -32.4744   23.8317 C   0  0  1  0  0  0
  -27.2296  -27.2660   20.1224 C   0  0  0  0  0  0
  -25.5954  -33.8540   24.2253 N   0  0  0  0  0  0
  -23.4249  -30.4766   21.5393 C   0  0  2  0  0  0
  -24.8711  -28.9101   20.1098 C   0  0  0  0  0  0
  -22.7480  -29.4614   22.4897 C   0  0  0  0  0  0
  -18.0305  -28.1401   22.8505 C   0  0  0  0  0  0
  -24.1484  -36.7254   23.2642 C   0  0  0  0  0  0
  -25.9672  -30.7665   21.3739 C   0  0  0  0  0  0
  -26.0377  -29.3876   20.7170 C   0  0  0  0  0  0
  -27.2131  -28.5748   20.7127 C   0  0  0  0  0  0
  -26.0385  -26.8382   19.4994 C   0  0  0  0  0  0
  -24.8751  -27.6434   19.4952 C   0  0  0  0  0  0
  -23.6439  -29.8030   20.1561 C   0  0  0  0  0  0
  -25.4113  -36.3071   24.0339 C   0  0  1  0  0  0
  -20.5897  -28.3728   23.1267 C   0  0  2  0  0  0
  -20.6773  -26.9450   22.5418 C   0  0  0  0  0  0
  -19.5771  -26.6416   21.5211 C   0  0  0  0  0  0
  -18.1950  -26.7953   22.1619 C   0  0  0  0  0  0
  -19.1554  -28.8875   23.2886 C   0  0  0  0  0  0
  -18.9471  -30.1456   23.8921 C   0  0  0  0  0  0
  -17.6478  -30.6602   24.0567 C   0  0  0  0  0  0
  -25.9062  -34.9444   23.5108 C   0  0  0  0  0  0
  -16.5368  -29.9101   23.6325 C   0  0  0  0  0  0
  -16.7287  -28.6508   23.0370 C   0  0  0  0  0  0
  -26.4527  -31.6554   25.0698 C   0  0  0  0  0  0
  -25.3774  -31.3675   26.1434 C   0  0  0  0  0  0
  -27.0350  -30.2986   24.6142 C   0  0  0  0  0  0
  -27.6100  -32.4274   25.7466 C   0  0  0  0  0  0
  -27.5576  -37.1790   24.8472 C   0  0  0  0  0  0
  -21.4192  -29.3057   22.3622 N   0  0  0  0  0  0
  -26.4270  -37.3770   23.9437 N   0  0  0  0  0  0
  -24.6935  -31.0507   22.0935 N   0  0  0  0  0  0
  -23.4174  -28.8194   23.3042 O   0  0  0  0  0  0
  -28.3704  -26.4430   20.2037 O   0  0  0  0  0  0
  -26.5619  -34.8910   22.4665 O   0  0  0  0  0  0
  -23.5484  -32.1370   23.7280 O   0  0  0  0  0  0
  -30.1722  -22.0577   20.7035 C   0  0  0  0  0  0
  -28.7953  -22.3110   20.4328 C   0  0  0  0  0  0
  -30.4467  -20.7057   20.7118 C   0  0  0  0  0  0
  -28.3011  -21.0201   20.1971 C   0  0  0  0  0  0
  -31.7558  -20.0622   21.0503 C   0  0  0  0  0  0
  -26.9045  -20.6347   19.8166 C   0  0  0  0  0  0
  -27.9838  -24.0947   22.0519 C   0  0  0  0  0  0
  -29.0448  -18.4650   20.3136 C   0  0  0  0  0  0
  -30.1824  -17.3406   20.6174 C   0  0  0  0  0  0
  -28.5026  -25.0287   19.7127 C   0  0  0  0  0  0
  -28.0450  -23.7301   20.5631 C   0  0  1  0  0  0
  -29.2828  -19.9948   20.4032 N   0  0  0  0  0  0
  -29.8058  -15.8553   20.6781 N   0  0  0  0  0  0
  -31.4784  -12.5929   19.1569 H   0  0  0  0  0  0
  -30.4016  -11.4749   19.9444 H   0  0  0  0  0  0
  -29.7996  -11.7245   17.5257 H   0  0  0  0  0  0
  -29.6434  -13.4547   17.7123 H   0  0  0  0  0  0
  -27.8957  -11.2801   18.9102 H   0  0  0  0  0  0
  -27.3893  -12.5267   17.7980 H   0  0  0  0  0  0
  -27.6477  -14.2488   19.4758 H   0  0  0  0  0  0
  -28.7173  -12.1453   21.4154 H   0  0  0  0  0  0
  -28.4168  -13.8229   21.8006 H   0  0  0  0  0  0
  -25.2729   -9.5638   22.4790 H   0  0  0  0  0  0
  -23.9956   -7.4608   22.7467 H   0  0  0  0  0  0
  -21.0844   -8.8776   19.8957 H   0  0  0  0  0  0
  -22.3700  -10.9668   19.6148 H   0  0  0  0  0  0
  -21.2081   -7.6160   23.9736 H   0  0  0  0  0  0
  -21.1411   -6.0507   25.9075 H   0  0  0  0  0  0
  -22.0647   -2.7629   23.2818 H   0  0  0  0  0  0
  -22.4035  -11.9933   22.4780 H   0  0  0  0  0  0
  -21.1053  -13.1325   22.2563 H   0  0  0  0  0  0
  -24.6542  -15.8429   20.4802 H   0  0  0  0  0  0
  -26.2616  -15.6130   20.0197 H   0  0  0  0  0  0
  -26.7194  -32.5376   23.1036 H   0  0  0  0  0  0
  -25.0114  -33.9661   25.0414 H   0  0  0  0  0  0
  -22.7214  -31.2991   21.3924 H   0  0  0  0  0  0
  -23.3761  -35.9581   23.3312 H   0  0  0  0  0  0
  -24.3560  -36.8869   22.2051 H   0  0  0  0  0  0
  -23.7214  -37.6452   23.6645 H   0  0  0  0  0  0
  -26.1074  -31.5229   20.6014 H   0  0  0  0  0  0
  -26.8427  -30.8142   22.0088 H   0  0  0  0  0  0
  -28.1077  -28.9345   21.2008 H   0  0  0  0  0  0
  -25.9896  -25.8616   19.0392 H   0  0  0  0  0  0
  -23.9764  -27.2641   19.0288 H   0  0  0  0  0  0
  -23.7821  -30.5807   19.4046 H   0  0  0  0  0  0
  -22.7556  -29.2519   19.8400 H   0  0  0  0  0  0
  -25.1293  -36.1920   25.0833 H   0  0  0  0  0  0
  -20.9999  -28.3325   24.1382 H   0  0  0  0  0  0
  -20.5666  -26.2345   23.3621 H   0  0  0  0  0  0
  -21.6640  -26.7473   22.1232 H   0  0  0  0  0  0
  -19.6941  -25.6331   21.1237 H   0  0  0  0  0  0
  -19.6701  -27.3191   20.6713 H   0  0  0  0  0  0
  -17.4224  -26.6708   21.4015 H   0  0  0  0  0  0
  -18.0364  -26.0055   22.8973 H   0  0  0  0  0  0
  -19.7945  -30.7261   24.2305 H   0  0  0  0  0  0
  -17.5045  -31.6293   24.5170 H   0  0  0  0  0  0
  -15.5371  -30.3039   23.7641 H   0  0  0  0  0  0
  -15.8674  -28.0834   22.7111 H   0  0  0  0  0  0
  -24.6017  -30.6910   25.7810 H   0  0  0  0  0  0
  -24.8858  -32.2803   26.4822 H   0  0  0  0  0  0
  -25.8158  -30.8948   27.0239 H   0  0  0  0  0  0
  -26.2900  -29.6726   24.1205 H   0  0  0  0  0  0
  -27.4083  -29.7261   25.4639 H   0  0  0  0  0  0
  -27.8766  -30.4256   23.9327 H   0  0  0  0  0  0
  -27.2746  -33.3612   26.1999 H   0  0  0  0  0  0
  -28.3944  -32.6750   25.0296 H   0  0  0  0  0  0
  -28.0706  -31.8387   26.5420 H   0  0  0  0  0  0
  -28.2607  -38.0067   24.7528 H   0  0  0  0  0  0
  -28.1066  -36.2615   24.6307 H   0  0  0  0  0  0
  -27.2295  -37.1443   25.8869 H   0  0  0  0  0  0
  -20.9391  -29.8710   21.6757 H   0  0  0  0  0  0
  -26.0166  -38.2863   24.1449 H   0  0  0  0  0  0
  -30.9028  -22.8175   20.9457 H   0  0  0  0  0  0
  -32.5470  -20.8102   21.0992 H   0  0  0  0  0  0
  -32.0661  -19.3297   20.3076 H   0  0  0  0  0  0
  -31.7146  -19.5820   22.0272 H   0  0  0  0  0  0
  -26.3589  -21.4838   19.4090 H   0  0  0  0  0  0
  -26.3460  -20.2640   20.6762 H   0  0  0  0  0  0
  -26.9000  -19.8607   19.0495 H   0  0  0  0  0  0
  -27.4995  -23.2997   22.6226 H   0  0  0  0  0  0
  -27.4138  -25.0106   22.2092 H   0  0  0  0  0  0
  -28.9808  -24.2469   22.4655 H   0  0  0  0  0  0
  -28.1994  -18.2488   20.9658 H   0  0  0  0  0  0
  -28.6684  -18.2690   19.3070 H   0  0  0  0  0  0
  -30.6459  -17.5735   21.5746 H   0  0  0  0  0  0
  -30.9632  -17.4408   19.8661 H   0  0  0  0  0  0
  -28.1205  -24.9558   18.6925 H   0  0  0  0  0  0
  -29.5821  -24.9263   19.5995 H   0  0  0  0  0  0
  -27.0086  -23.5509   20.2743 H   0  0  0  0  0  0
  -28.8499  -15.6510   20.9268 H   0  0  0  0  0  0
  1 25  1  0  0  0
  1 30  2  0  0  0
  1 83  1  0  0  0
  2  3  1  0  0  0
  2 25  1  0  0  0
  2 84  1  0  0  0
  2 85  1  0  0  0
  3  4  1  0  0  0
  3 86  1  0  0  0
  3 87  1  0  0  0
  4  5  1  0  0  0
  4 88  1  0  0  0
  4 89  1  0  0  0
  5  6  1  0  0  0
  5 26  1  0  0  0
  5 90  1  0  0  0
  6 25  1  0  0  0
  6 91  1  0  0  0
  6 92  1  0  0  0
  7  8  2  0  0  0
  7 26  1  0  0  0
  7 29  1  0  0  0
  8  9  1  0  0  0
  8 22  1  0  0  0
  9 10  1  0  0  0
  9 27  2  0  0  0
 10 11  2  0  0  0
 10 15  1  0  0  0
 11 12  1  0  0  0
 11 93  1  0  0  0
 12 13  2  0  0  0
 12 94  1  0  0  0
 13 14  1  0  0  0
 13 31  1  0  0  0
 14 15  2  0  0  0
 14 95  1  0  0  0
 15 96  1  0  0  0
 16 17  2  0  0  0
 16 21  1  0  0  0
 16 31  1  0  0  0
 17 18  1  0  0  0
 17 97  1  0  0  0
 18 19  2  0  0  0
 18 98  1  0  0  0
 19 20  1  0  0  0
 19 24  1  0  0  0
 20 21  2  0  0  0
 20 99  1  0  0  0
 21 23  1  0  0  0
 22 28  1  0  0  0
 22 32  2  0  0  0
 26 27  1  0  0  0
 28100  1  0  0  0
 28101  1  0  0  0
 29102  1  0  0  0
 29103  1  0  0  0
 33 34  1  0  0  0
 33 66  1  0  0  0
 33 70  2  0  0  0
 34 36  1  0  0  0
 34 59  1  0  0  0
 34104  1  0  0  0
 35 44  2  0  0  0
 35 45  1  0  0  0
 35 68  1  0  0  0
 36 56  1  0  0  0
 36105  1  0  0  0
 37 39  1  0  0  0
 37 47  1  0  0  0
 37 66  1  0  0  0
 37106  1  0  0  0
 38 43  2  0  0  0
 38 46  1  0  0  0
 38 47  1  0  0  0
 39 64  1  0  0  0
 39 67  2  0  0  0
 40 52  1  0  0  0
 40 53  2  0  0  0
 40 58  1  0  0  0
 41107  1  0  0  0
 41108  1  0  0  0
 41109  1  0  0  0
 41 48  1  0  0  0
 42 43  1  0  0  0
 42 66  1  0  0  0
 42110  1  0  0  0
 42111  1  0  0  0
 43 44  1  0  0  0
 44112  1  0  0  0
 45 46  2  0  0  0
 45113  1  0  0  0
 46114  1  0  0  0
 47115  1  0  0  0
 47116  1  0  0  0
 48 56  1  0  0  0
 48 65  1  0  0  0
 48117  1  0  0  0
 49 50  1  0  0  0
 49 53  1  0  0  0
 49 64  1  0  0  0
 49118  1  0  0  0
 50 51  1  0  0  0
 50119  1  0  0  0
 50120  1  0  0  0
 51 52  1  0  0  0
 51121  1  0  0  0
 51122  1  0  0  0
 52123  1  0  0  0
 52124  1  0  0  0
 53 54  1  0  0  0
 54 55  2  0  0  0
 54125  1  0  0  0
 55 57  1  0  0  0
 55126  1  0  0  0
 56 69  2  0  0  0
 57 58  2  0  0  0
 57127  1  0  0  0
 58128  1  0  0  0
 59 60  1  0  0  0
 59 61  1  0  0  0
 59 62  1  0  0  0
 60129  1  0  0  0
 60130  1  0  0  0
 60131  1  0  0  0
 61132  1  0  0  0
 61133  1  0  0  0
 61134  1  0  0  0
 62135  1  0  0  0
 62136  1  0  0  0
 62137  1  0  0  0
 63 65  1  0  0  0
 63138  1  0  0  0
 63139  1  0  0  0
 63140  1  0  0  0
 64141  1  0  0  0
 65142  1  0  0  0
 68 80  1  0  0  0
 71 72  1  0  0  0
 71 73  2  0  0  0
 71143  1  0  0  0
 72 74  2  0  0  0
 72 81  1  0  0  0
 73 75  1  0  0  0
 73 82  1  0  0  0
 74 76  1  0  0  0
 74 82  1  0  0  0
 75144  1  0  0  0
 75145  1  0  0  0
 75146  1  0  0  0
 76147  1  0  0  0
 76148  1  0  0  0
 76149  1  0  0  0
 77150  1  0  0  0
 77151  1  0  0  0
 77152  1  0  0  0
 77 81  1  0  0  0
 78 79  1  0  0  0
 78 82  1  0  0  0
 78153  1  0  0  0
 78154  1  0  0  0
 79 83  1  0  0  0
 79155  1  0  0  0
 79156  1  0  0  0
 80 81  1  0  0  0
 80157  1  0  0  0
 80158  1  0  0  0
 81159  1  0  0  0
 83160  1  0  0  0
M  ISO  4   1 100  68 101  80 101  83 100
M  END
> <chiral flag>
0

> <version>
0

> <s_m_source_file>
/data/baiqing/PycharmProjects/Reinvent-master-3.2/result/LINK_invent/BTK/process_docking_weight1_custom_sum_contain_oxygen_bond_distance_aromatic_linkinvent_7_9_3/rearranged_h_0101.sdf

> <i_m_source_file_index>
5

> <r_mmod_Potential_Energy-OPLS-2005>
116.755889892578

> <r_mmod_Stretch_Energy-OPLS-2005>
126.55541229248

> <r_mmod_Bend_Energy-OPLS-2005>
195.299285888672

> <r_mmod_Torsional_Energy-OPLS-2005>
218.980209350586

> <r_mmod_Improper_Torsional_Energy-OPLS-2005>
5.86263704299927

> <r_mmod_Van_der_Waal_Energy-OPLS-2005>
108.918975830078

> <r_mmod_Electrostatic_Energy-OPLS-2005>
-402.130096435547

> <r_mmod_Solvation_Energy-OPLS-2005>
-215.667327880859

> <b_mmod_Minimization_Converged-OPLS-2005>
0

> <r_mmod_RMS_Derivative-OPLS-2005>
3.8195219039917

$$$$
5
                    3D
 Structure written by MMmdl.
165173  0  0  1  0            999 V2000
  -30.6454  -14.4805   20.5919 C   0  0  0  0  0  0
  -30.4272  -12.3104   19.4381 C   0  0  0  0  0  0
  -29.5060  -12.5170   18.2174 C   0  0  0  0  0  0
  -28.0226  -12.3784   18.6147 C   0  0  0  0  0  0
  -27.6626  -13.1959   19.8833 C   0  0  2  0  0  0
  -28.6925  -12.9527   21.0083 C   0  0  0  0  0  0
  -25.2596  -13.8078   20.5623 C   0  0  0  0  0  0
  -24.1848  -13.0400   20.9179 C   0  0  0  0  0  0
  -24.6388  -11.6872   20.8733 C   0  0  0  0  0  0
  -23.9048  -10.4280   21.0417 C   0  0  0  0  0  0
  -24.3607   -9.4202   21.9198 C   0  0  0  0  0  0
  -23.6286   -8.2232   22.0762 C   0  0  0  0  0  0
  -22.4263   -8.0270   21.3551 C   0  0  0  0  0  0
  -21.9894   -9.0252   20.4652 C   0  0  0  0  0  0
  -22.7220  -10.2136   20.3070 C   0  0  0  0  0  0
  -21.6855   -6.0737   22.5292 C   0  0  0  0  0  0
  -21.4006   -6.5645   23.8224 C   0  0  0  0  0  0
  -21.3659   -5.6788   24.9186 C   0  0  0  0  0  0
  -21.6059   -4.3055   24.7221 C   0  0  0  0  0  0
  -21.8819   -3.8146   23.4339 C   0  0  0  0  0  0
  -21.9190   -4.6970   22.3394 C   0  0  0  0  0  0
  -22.7891  -13.5250   21.1863 C   0  0  0  0  0  0
  -22.1666   -4.2163   21.0970 F   0  0  0  0  0  0
  -21.5630   -3.4530   25.7728 F   0  0  0  0  0  0
  -30.0278  -13.2745   20.4745 N   0  0  0  0  0  0
  -26.3008  -12.9234   20.3336 N   0  0  0  0  0  0
  -25.9313  -11.6414   20.5759 N   0  0  0  0  0  0
  -22.0522  -12.8238   22.0400 N   0  0  0  0  0  0
  -25.4348  -15.1725   20.3854 N   0  0  0  0  0  0
  -31.7470  -14.7305   20.0909 O   0  0  0  0  0  0
  -21.6628   -6.8873   21.4248 O   0  0  0  0  0  0
  -22.3602  -14.5586   20.6752 O   0  0  0  0  0  0
  -24.6154  -31.8670   23.2091 C   0  0  0  0  0  0
  -25.9050  -32.4820   23.8388 C   0  0  1  0  0  0
  -27.2399  -27.4278   20.1038 C   0  0  0  0  0  0
  -25.5908  -33.8614   24.2331 N   0  0  0  0  0  0
  -23.4028  -30.4923   21.5477 C   0  0  2  0  0  0
  -24.8485  -28.9515   20.1172 C   0  0  0  0  0  0
  -22.7414  -29.4676   22.4976 C   0  0  0  0  0  0
  -18.0271  -28.1380   22.8486 C   0  0  0  0  0  0
  -24.1488  -36.7316   23.2639 C   0  0  0  0  0  0
  -25.9307  -30.8322   21.3619 C   0  0  0  0  0  0
  -26.0053  -29.4636   20.7135 C   0  0  0  0  0  0
  -27.1989  -28.7075   20.7053 C   0  0  0  0  0  0
  -26.0545  -26.9216   19.5178 C   0  0  0  0  0  0
  -24.8680  -27.6788   19.5191 C   0  0  0  0  0  0
  -23.6117  -29.8206   20.1636 C   0  0  0  0  0  0
  -25.4110  -36.3115   24.0345 C   0  0  1  0  0  0
  -20.5864  -28.3675   23.1309 C   0  0  2  0  0  0
  -20.6769  -26.9412   22.5420 C   0  0  0  0  0  0
  -19.5749  -26.6390   21.5216 C   0  0  0  0  0  0
  -18.1924  -26.7927   22.1622 C   0  0  0  0  0  0
  -19.1521  -28.8846   23.2897 C   0  0  0  0  0  0
  -18.9453  -30.1445   23.8922 C   0  0  0  0  0  0
  -17.6462  -30.6589   24.0573 C   0  0  0  0  0  0
  -25.9038  -34.9475   23.5141 C   0  0  0  0  0  0
  -16.5350  -29.9099   23.6316 C   0  0  0  0  0  0
  -16.7268  -28.6509   23.0347 C   0  0  0  0  0  0
  -26.4478  -31.6589   25.0711 C   0  0  0  0  0  0
  -25.3747  -31.3697   26.1466 C   0  0  0  0  0  0
  -27.0317  -30.3035   24.6083 C   0  0  0  0  0  0
  -27.6062  -32.4295   25.7464 C   0  0  0  0  0  0
  -27.5588  -37.1819   24.8468 C   0  0  0  0  0  0
  -21.4144  -29.3046   22.3712 N   0  0  0  0  0  0
  -26.4302  -37.3801   23.9408 N   0  0  0  0  0  0
  -24.6672  -31.0800   22.0972 N   0  0  0  0  0  0
  -23.4187  -28.8213   23.3017 O   0  0  0  0  0  0
  -28.4406  -26.7418   20.1228 O   0  0  0  0  0  0
  -26.5598  -34.8926   22.4699 O   0  0  0  0  0  0
  -23.5353  -32.1418   23.7509 O   0  0  0  0  0  0
  -29.5914  -20.1415   21.3384 C   0  0  0  0  0  0
  -29.4050  -21.4729   20.9044 C   0  0  0  0  0  0
  -28.6384  -19.1400   21.0516 C   0  0  0  0  0  0
  -27.3087  -20.8394   19.8411 C   0  0  0  0  0  0
  -27.4655  -19.5061   20.3253 C   0  0  0  0  0  0
  -28.2723  -21.8311   20.1425 C   0  0  0  0  0  0
  -26.1103  -21.2519   18.9855 C   0  0  0  0  0  0
  -25.1526  -19.2747   22.1246 C   0  0  0  0  0  0
  -28.8737  -17.7113   21.5939 C   0  0  0  0  0  0
  -25.1382  -18.7794   20.6695 C   0  0  0  0  0  0
  -29.9685  -16.8887   20.8555 C   0  0  0  0  0  0
  -28.5763  -25.4625   19.4863 C   0  0  0  0  0  0
  -28.2496  -24.2510   20.3983 C   0  0  0  0  0  0
  -26.4685  -18.5407   20.1050 N   0  0  0  0  0  0
  -29.8769  -15.4443   21.1370 N   0  0  0  0  0  0
  -28.1144  -23.0855   19.5802 O   0  0  0  0  0  0
  -31.4726  -12.4270   19.1458 H   0  0  0  0  0  0
  -30.3363  -11.2941   19.8237 H   0  0  0  0  0  0
  -29.7568  -11.8023   17.4335 H   0  0  0  0  0  0
  -29.6807  -13.5052   17.7910 H   0  0  0  0  0  0
  -27.8211  -11.3199   18.7856 H   0  0  0  0  0  0
  -27.3838  -12.6805   17.7840 H   0  0  0  0  0  0
  -27.7141  -14.2492   19.6059 H   0  0  0  0  0  0
  -28.6700  -11.9121   21.3313 H   0  0  0  0  0  0
  -28.4413  -13.5325   21.8975 H   0  0  0  0  0  0
  -25.2775   -9.5680   22.4739 H   0  0  0  0  0  0
  -24.0018   -7.4621   22.7463 H   0  0  0  0  0  0
  -21.0841   -8.8782   19.8932 H   0  0  0  0  0  0
  -22.3709  -10.9684   19.6158 H   0  0  0  0  0  0
  -21.1990   -7.6154   23.9731 H   0  0  0  0  0  0
  -21.1489   -6.0519   25.9091 H   0  0  0  0  0  0
  -22.0591   -2.7612   23.2834 H   0  0  0  0  0  0
  -22.4128  -11.9876   22.4760 H   0  0  0  0  0  0
  -21.1164  -13.1296   22.2648 H   0  0  0  0  0  0
  -24.6410  -15.8013   20.3981 H   0  0  0  0  0  0
  -26.2329  -15.5451   19.8907 H   0  0  0  0  0  0
  -26.7125  -32.5534   23.1158 H   0  0  0  0  0  0
  -25.0079  -33.9764   25.0493 H   0  0  0  0  0  0
  -22.6904  -31.3089   21.4087 H   0  0  0  0  0  0
  -23.3748  -35.9653   23.3309 H   0  0  0  0  0  0
  -24.3593  -36.8919   22.2054 H   0  0  0  0  0  0
  -23.7240  -37.6527   23.6638 H   0  0  0  0  0  0
  -26.0459  -31.5939   20.5896 H   0  0  0  0  0  0
  -26.8184  -30.8873   21.9796 H   0  0  0  0  0  0
  -28.0916  -29.1042   21.1688 H   0  0  0  0  0  0
  -26.0150  -25.9407   19.0697 H   0  0  0  0  0  0
  -23.9730  -27.2746   19.0646 H   0  0  0  0  0  0
  -23.7233  -30.5926   19.4019 H   0  0  0  0  0  0
  -22.7355  -29.2415   19.8683 H   0  0  0  0  0  0
  -25.1284  -36.1991   25.0842 H   0  0  0  0  0  0
  -20.9962  -28.3264   24.1426 H   0  0  0  0  0  0
  -20.5677  -26.2301   23.3619 H   0  0  0  0  0  0
  -21.6642  -26.7463   22.1214 H   0  0  0  0  0  0
  -19.6920  -25.6300   21.1241 H   0  0  0  0  0  0
  -19.6685  -27.3205   20.6746 H   0  0  0  0  0  0
  -17.4203  -26.6677   21.4013 H   0  0  0  0  0  0
  -18.0323  -26.0062   22.9006 H   0  0  0  0  0  0
  -19.7936  -30.7239   24.2316 H   0  0  0  0  0  0
  -17.5026  -31.6269   24.5170 H   0  0  0  0  0  0
  -15.5355  -30.3022   23.7621 H   0  0  0  0  0  0
  -15.8662  -28.0841   22.7055 H   0  0  0  0  0  0
  -24.5911  -30.7056   25.7796 H   0  0  0  0  0  0
  -24.8952  -32.2857   26.4919 H   0  0  0  0  0  0
  -25.8099  -30.8852   27.0215 H   0  0  0  0  0  0
  -26.2861  -29.6777   24.1161 H   0  0  0  0  0  0
  -27.4129  -29.7284   25.4530 H   0  0  0  0  0  0
  -27.8669  -30.4362   23.9205 H   0  0  0  0  0  0
  -27.2695  -33.3575   26.2092 H   0  0  0  0  0  0
  -28.3840  -32.6884   25.0268 H   0  0  0  0  0  0
  -28.0768  -31.8389   26.5339 H   0  0  0  0  0  0
  -28.2621  -38.0101   24.7513 H   0  0  0  0  0  0
  -28.1072  -36.2641   24.6292 H   0  0  0  0  0  0
  -27.2315  -37.1470   25.8873 H   0  0  0  0  0  0
  -20.9314  -29.8769   21.6916 H   0  0  0  0  0  0
  -26.0197  -38.2885   24.1383 H   0  0  0  0  0  0
  -30.4782  -19.8920   21.9045 H   0  0  0  0  0  0
  -30.1697  -22.2044   21.1271 H   0  0  0  0  0  0
  -25.7148  -20.4206   18.4021 H   0  0  0  0  0  0
  -25.3159  -21.6426   19.6217 H   0  0  0  0  0  0
  -26.3723  -22.0269   18.2664 H   0  0  0  0  0  0
  -24.1328  -19.3542   22.5038 H   0  0  0  0  0  0
  -25.6088  -20.2605   22.2169 H   0  0  0  0  0  0
  -25.6980  -18.5925   22.7775 H   0  0  0  0  0  0
  -27.9402  -17.1514   21.5998 H   0  0  0  0  0  0
  -29.1420  -17.7937   22.6484 H   0  0  0  0  0  0
  -24.5667  -19.4647   20.0467 H   0  0  0  0  0  0
  -24.5844  -17.8408   20.6332 H   0  0  0  0  0  0
  -30.9651  -17.2587   21.1028 H   0  0  0  0  0  0
  -29.8393  -17.0172   19.7813 H   0  0  0  0  0  0
  -28.0193  -25.4220   18.5510 H   0  0  0  0  0  0
  -29.6192  -25.3758   19.1818 H   0  0  0  0  0  0
  -27.3065  -24.4111   20.9240 H   0  0  0  0  0  0
  -29.0224  -24.1417   21.1573 H   0  0  0  0  0  0
  -26.7850  -17.5863   20.2226 H   0  0  0  0  0  0
  -29.0216  -15.1231   21.5654 H   0  0  0  0  0  0
  1 25  1  0  0  0
  1 30  2  0  0  0
  1 85  1  0  0  0
  2  3  1  0  0  0
  2 25  1  0  0  0
  2 87  1  0  0  0
  2 88  1  0  0  0
  3  4  1  0  0  0
  3 89  1  0  0  0
  3 90  1  0  0  0
  4  5  1  0  0  0
  4 91  1  0  0  0
  4 92  1  0  0  0
  5  6  1  0  0  0
  5 26  1  0  0  0
  5 93  1  0  0  0
  6 25  1  0  0  0
  6 94  1  0  0  0
  6 95  1  0  0  0
  7  8  2  0  0  0
  7 26  1  0  0  0
  7 29  1  0  0  0
  8  9  1  0  0  0
  8 22  1  0  0  0
  9 10  1  0  0  0
  9 27  2  0  0  0
 10 11  2  0  0  0
 10 15  1  0  0  0
 11 12  1  0  0  0
 11 96  1  0  0  0
 12 13  2  0  0  0
 12 97  1  0  0  0
 13 14  1  0  0  0
 13 31  1  0  0  0
 14 15  2  0  0  0
 14 98  1  0  0  0
 15 99  1  0  0  0
 16 17  2  0  0  0
 16 21  1  0  0  0
 16 31  1  0  0  0
 17 18  1  0  0  0
 17100  1  0  0  0
 18 19  2  0  0  0
 18101  1  0  0  0
 19 20  1  0  0  0
 19 24  1  0  0  0
 20 21  2  0  0  0
 20102  1  0  0  0
 21 23  1  0  0  0
 22 28  1  0  0  0
 22 32  2  0  0  0
 26 27  1  0  0  0
 28103  1  0  0  0
 28104  1  0  0  0
 29105  1  0  0  0
 29106  1  0  0  0
 33 34  1  0  0  0
 33 66  1  0  0  0
 33 70  2  0  0  0
 34 36  1  0  0  0
 34 59  1  0  0  0
 34107  1  0  0  0
 35 44  2  0  0  0
 35 45  1  0  0  0
 35 68  1  0  0  0
 36 56  1  0  0  0
 36108  1  0  0  0
 37 39  1  0  0  0
 37 47  1  0  0  0
 37 66  1  0  0  0
 37109  1  0  0  0
 38 43  2  0  0  0
 38 46  1  0  0  0
 38 47  1  0  0  0
 39 64  1  0  0  0
 39 67  2  0  0  0
 40 52  1  0  0  0
 40 53  2  0  0  0
 40 58  1  0  0  0
 41110  1  0  0  0
 41111  1  0  0  0
 41112  1  0  0  0
 41 48  1  0  0  0
 42 43  1  0  0  0
 42 66  1  0  0  0
 42113  1  0  0  0
 42114  1  0  0  0
 43 44  1  0  0  0
 44115  1  0  0  0
 45 46  2  0  0  0
 45116  1  0  0  0
 46117  1  0  0  0
 47118  1  0  0  0
 47119  1  0  0  0
 48 56  1  0  0  0
 48 65  1  0  0  0
 48120  1  0  0  0
 49 50  1  0  0  0
 49 53  1  0  0  0
 49 64  1  0  0  0
 49121  1  0  0  0
 50 51  1  0  0  0
 50122  1  0  0  0
 50123  1  0  0  0
 51 52  1  0  0  0
 51124  1  0  0  0
 51125  1  0  0  0
 52126  1  0  0  0
 52127  1  0  0  0
 53 54  1  0  0  0
 54 55  2  0  0  0
 54128  1  0  0  0
 55 57  1  0  0  0
 55129  1  0  0  0
 56 69  2  0  0  0
 57 58  2  0  0  0
 57130  1  0  0  0
 58131  1  0  0  0
 59 60  1  0  0  0
 59 61  1  0  0  0
 59 62  1  0  0  0
 60132  1  0  0  0
 60133  1  0  0  0
 60134  1  0  0  0
 61135  1  0  0  0
 61136  1  0  0  0
 61137  1  0  0  0
 62138  1  0  0  0
 62139  1  0  0  0
 62140  1  0  0  0
 63 65  1  0  0  0
 63141  1  0  0  0
 63142  1  0  0  0
 63143  1  0  0  0
 64144  1  0  0  0
 65145  1  0  0  0
 68 82  1  0  0  0
 71 72  2  0  0  0
 71 73  1  0  0  0
 71146  1  0  0  0
 72 76  1  0  0  0
 72147  1  0  0  0
 73 75  2  0  0  0
 73 79  1  0  0  0
 74 75  1  0  0  0
 74 76  2  0  0  0
 74 77  1  0  0  0
 75 84  1  0  0  0
 76 86  1  0  0  0
 77148  1  0  0  0
 77149  1  0  0  0
 77150  1  0  0  0
 78 80  1  0  0  0
 78151  1  0  0  0
 78152  1  0  0  0
 78153  1  0  0  0
 79 81  1  0  0  0
 79154  1  0  0  0
 79155  1  0  0  0
 80 84  1  0  0  0
 80156  1  0  0  0
 80157  1  0  0  0
 81 85  1  0  0  0
 81158  1  0  0  0
 81159  1  0  0  0
 82 83  1  0  0  0
 82160  1  0  0  0
 82161  1  0  0  0
 83 86  1  0  0  0
 83162  1  0  0  0
 83163  1  0  0  0
 84164  1  0  0  0
 85165  1  0  0  0
M  ISO  4   1 100  68 101  82 101  85 100
M  END
> <chiral flag>
0

> <version>
0

> <s_m_source_file>
/data/baiqing/PycharmProjects/Reinvent-master-3.2/result/LINK_invent/BTK/process_docking_weight1_custom_sum_contain_oxygen_bond_distance_aromatic_linkinvent_7_9_3/rearranged_h_0101.sdf

> <i_m_source_file_index>
6

> <r_mmod_Potential_Energy-OPLS-2005>
-78.9206390380859

> <r_mmod_Stretch_Energy-OPLS-2005>
41.9072608947754

> <r_mmod_Bend_Energy-OPLS-2005>
110.506011962891

> <r_mmod_Torsional_Energy-OPLS-2005>
226.480361938477

> <r_mmod_Improper_Torsional_Energy-OPLS-2005>
10.8403396606445

> <r_mmod_Van_der_Waal_Energy-OPLS-2005>
155.956268310547

> <r_mmod_Electrostatic_Energy-OPLS-2005>
-425.279571533203

> <r_mmod_Solvation_Energy-OPLS-2005>
-213.395324707031

> <b_mmod_Minimization_Converged-OPLS-2005>
0

> <r_mmod_RMS_Derivative-OPLS-2005>
3.31467533111572

$$$$
6
                    3D
 Structure written by MMmdl.
158165  0  0  1  0            999 V2000
  -30.6190  -14.6762   20.4795 C   0  0  0  0  0  0
  -30.4290  -12.4124   19.4666 C   0  0  0  0  0  0
  -29.5069  -12.5077   18.2297 C   0  0  0  0  0  0
  -28.0310  -12.3401   18.6420 C   0  0  0  0  0  0
  -27.6467  -13.2236   19.8595 C   0  0  2  0  0  0
  -28.6888  -13.1176   20.9960 C   0  0  0  0  0  0
  -25.2514  -13.8174   20.5676 C   0  0  0  0  0  0
  -24.1802  -13.0420   20.9203 C   0  0  0  0  0  0
  -24.6393  -11.6902   20.8762 C   0  0  0  0  0  0
  -23.9080  -10.4281   21.0426 C   0  0  0  0  0  0
  -24.3635   -9.4193   21.9197 C   0  0  0  0  0  0
  -23.6308   -8.2228   22.0757 C   0  0  0  0  0  0
  -22.4293   -8.0276   21.3547 C   0  0  0  0  0  0
  -21.9930   -9.0246   20.4642 C   0  0  0  0  0  0
  -22.7257  -10.2124   20.3067 C   0  0  0  0  0  0
  -21.6838   -6.0744   22.5298 C   0  0  0  0  0  0
  -21.4000   -6.5650   23.8234 C   0  0  0  0  0  0
  -21.3656   -5.6806   24.9192 C   0  0  0  0  0  0
  -21.6044   -4.3072   24.7244 C   0  0  0  0  0  0
  -21.8811   -3.8158   23.4367 C   0  0  0  0  0  0
  -21.9178   -4.6972   22.3424 C   0  0  0  0  0  0
  -22.7828  -13.5200   21.1876 C   0  0  0  0  0  0
  -22.1653   -4.2154   21.1003 F   0  0  0  0  0  0
  -21.5635   -3.4565   25.7763 F   0  0  0  0  0  0
  -29.9971  -13.4555   20.4226 N   0  0  0  0  0  0
  -26.2953  -12.9385   20.3307 N   0  0  0  0  0  0
  -25.9321  -11.6529   20.5768 N   0  0  0  0  0  0
  -22.0474  -12.8182   22.0439 N   0  0  0  0  0  0
  -25.4170  -15.1900   20.4094 N   0  0  0  0  0  0
  -31.7973  -14.7990   20.1331 O   0  0  0  0  0  0
  -21.6634   -6.8891   21.4262 O   0  0  0  0  0  0
  -22.3517  -14.5514   20.6742 O   0  0  0  0  0  0
  -24.6251  -31.8564   23.1967 C   0  0  0  0  0  0
  -25.9100  -32.4740   23.8306 C   0  0  1  0  0  0
  -27.2292  -27.3058   20.1154 C   0  0  0  0  0  0
  -25.5918  -33.8544   24.2237 N   0  0  0  0  0  0
  -23.4191  -30.4743   21.5403 C   0  0  2  0  0  0
  -24.8660  -28.9202   20.1091 C   0  0  0  0  0  0
  -22.7463  -29.4592   22.4936 C   0  0  0  0  0  0
  -18.0280  -28.1377   22.8475 C   0  0  0  0  0  0
  -24.1497  -36.7292   23.2641 C   0  0  0  0  0  0
  -25.9581  -30.7798   21.3708 C   0  0  0  0  0  0
  -26.0311  -29.4044   20.7153 C   0  0  0  0  0  0
  -27.2107  -28.6057   20.7114 C   0  0  0  0  0  0
  -26.0417  -26.8659   19.4934 C   0  0  0  0  0  0
  -24.8733  -27.6564   19.4913 C   0  0  0  0  0  0
  -23.6330  -29.7990   20.1585 C   0  0  0  0  0  0
  -25.4118  -36.3056   24.0319 C   0  0  1  0  0  0
  -20.5873  -28.3674   23.1293 C   0  0  2  0  0  0
  -20.6764  -26.9398   22.5418 C   0  0  0  0  0  0
  -19.5752  -26.6375   21.5206 C   0  0  0  0  0  0
  -18.1928  -26.7919   22.1615 C   0  0  0  0  0  0
  -19.1535  -28.8842   23.2874 C   0  0  0  0  0  0
  -18.9457  -30.1451   23.8888 C   0  0  0  0  0  0
  -17.6460  -30.6582   24.0552 C   0  0  0  0  0  0
  -25.9057  -34.9427   23.5080 C   0  0  0  0  0  0
  -16.5344  -29.9076   23.6334 C   0  0  0  0  0  0
  -16.7266  -28.6493   23.0342 C   0  0  0  0  0  0
  -26.4489  -31.6559   25.0690 C   0  0  0  0  0  0
  -25.3725  -31.3704   26.1422 C   0  0  0  0  0  0
  -27.0341  -30.2978   24.6170 C   0  0  0  0  0  0
  -27.6040  -32.4303   25.7474 C   0  0  0  0  0  0
  -27.5578  -37.1794   24.8457 C   0  0  0  0  0  0
  -21.4176  -29.3027   22.3695 N   0  0  0  0  0  0
  -26.4290  -37.3758   23.9401 N   0  0  0  0  0  0
  -24.6858  -31.0550   22.0924 N   0  0  0  0  0  0
  -23.4184  -28.8160   23.3043 O   0  0  0  0  0  0
  -28.3747  -26.5003   20.1883 O   0  0  0  0  0  0
  -26.5646  -34.8905   22.4662 O   0  0  0  0  0  0
  -23.5422  -32.1378   23.7298 O   0  0  0  0  0  0
  -28.5143  -24.0580   21.9548 C   0  0  0  0  0  0
  -27.1529  -20.7279   20.0704 C   0  0  0  0  0  0
  -29.1320  -18.4093   20.6732 C   0  0  0  0  0  0
  -30.2158  -17.2387   20.4545 C   0  0  0  0  0  0
  -29.5123  -19.9194   20.2302 C   0  0  0  0  0  0
  -28.9485  -22.4562   19.9579 C   0  0  0  0  0  0
  -28.4958  -25.1341   19.6186 C   0  0  0  0  0  0
  -28.2023  -23.8022   20.4697 C   0  0  2  0  0  0
  -29.8371  -15.7890   20.7070 N   0  0  0  0  0  0
  -28.5306  -21.0766   20.4956 N   0  3  1  0  0  0
  -31.4726  -12.5240   19.1708 H   0  0  0  0  0  0
  -30.3535  -11.4256   19.9246 H   0  0  0  0  0  0
  -29.7764  -11.7502   17.4913 H   0  0  0  0  0  0
  -29.6432  -13.4731   17.7402 H   0  0  0  0  0  0
  -27.8734  -11.2879   18.8839 H   0  0  0  0  0  0
  -27.3754  -12.5583   17.7982 H   0  0  0  0  0  0
  -27.6544  -14.2524   19.4998 H   0  0  0  0  0  0
  -28.7093  -12.1102   21.4120 H   0  0  0  0  0  0
  -28.4329  -13.7808   21.8242 H   0  0  0  0  0  0
  -25.2778   -9.5658   22.4769 H   0  0  0  0  0  0
  -24.0007   -7.4617   22.7477 H   0  0  0  0  0  0
  -21.0863   -8.8770   19.8944 H   0  0  0  0  0  0
  -22.3725  -10.9672   19.6185 H   0  0  0  0  0  0
  -21.1989   -7.6153   23.9745 H   0  0  0  0  0  0
  -21.1487   -6.0535   25.9101 H   0  0  0  0  0  0
  -22.0587   -2.7616   23.2871 H   0  0  0  0  0  0
  -22.4111  -11.9851   22.4819 H   0  0  0  0  0  0
  -21.1086  -13.1188   22.2645 H   0  0  0  0  0  0
  -24.6371  -15.8303   20.5127 H   0  0  0  0  0  0
  -26.2546  -15.6396   20.0636 H   0  0  0  0  0  0
  -26.7162  -32.5396   23.1052 H   0  0  0  0  0  0
  -25.0016  -33.9678   25.0346 H   0  0  0  0  0  0
  -22.7137  -31.2941   21.3904 H   0  0  0  0  0  0
  -23.3744  -35.9638   23.3283 H   0  0  0  0  0  0
  -24.3592  -36.8942   22.2060 H   0  0  0  0  0  0
  -23.7267  -37.6490   23.6689 H   0  0  0  0  0  0
  -26.0915  -31.5420   20.6008 H   0  0  0  0  0  0
  -26.8381  -30.8294   21.9998 H   0  0  0  0  0  0
  -28.1057  -28.9701   21.1964 H   0  0  0  0  0  0
  -25.9910  -25.8952   19.0230 H   0  0  0  0  0  0
  -23.9777  -27.2753   19.0206 H   0  0  0  0  0  0
  -23.7478  -30.5677   19.3937 H   0  0  0  0  0  0
  -22.7551  -29.2217   19.8625 H   0  0  0  0  0  0
  -25.1300  -36.1890   25.0812 H   0  0  0  0  0  0
  -20.9951  -28.3236   24.1414 H   0  0  0  0  0  0
  -20.5643  -26.2278   23.3609 H   0  0  0  0  0  0
  -21.6632  -26.7419   22.1219 H   0  0  0  0  0  0
  -19.6908  -25.6284   21.1233 H   0  0  0  0  0  0
  -19.6688  -27.3184   20.6732 H   0  0  0  0  0  0
  -17.4188  -26.6653   21.4015 H   0  0  0  0  0  0
  -18.0333  -26.0060   22.9018 H   0  0  0  0  0  0
  -19.7932  -30.7267   24.2239 H   0  0  0  0  0  0
  -17.5012  -31.6258   24.5160 H   0  0  0  0  0  0
  -15.5347  -30.2973   23.7670 H   0  0  0  0  0  0
  -15.8661  -28.0819   22.7057 H   0  0  0  0  0  0
  -24.5893  -30.7055   25.7754 H   0  0  0  0  0  0
  -24.8923  -32.2872   26.4855 H   0  0  0  0  0  0
  -25.8056  -30.8873   27.0190 H   0  0  0  0  0  0
  -26.2919  -29.6712   24.1209 H   0  0  0  0  0  0
  -27.4039  -29.7254   25.4685 H   0  0  0  0  0  0
  -27.8783  -30.4251   23.9394 H   0  0  0  0  0  0
  -27.2631  -33.3598   26.2056 H   0  0  0  0  0  0
  -28.3853  -32.6873   25.0303 H   0  0  0  0  0  0
  -28.0705  -31.8420   26.5388 H   0  0  0  0  0  0
  -28.2573  -38.0112   24.7513 H   0  0  0  0  0  0
  -28.1098  -36.2638   24.6264 H   0  0  0  0  0  0
  -27.2302  -37.1416   25.8864 H   0  0  0  0  0  0
  -20.9361  -29.8750   21.6899 H   0  0  0  0  0  0
  -26.0158  -38.2827   24.1400 H   0  0  0  0  0  0
  -28.2210  -23.2160   22.5806 H   0  0  0  0  0  0
  -27.9719  -24.9306   22.3223 H   0  0  0  0  0  0
  -29.5769  -24.2405   22.1143 H   0  0  0  0  0  0
  -26.7782  -19.8596   20.6129 H   0  0  0  0  0  0
  -27.1174  -20.5002   19.0035 H   0  0  0  0  0  0
  -26.4502  -21.5358   20.2653 H   0  0  0  0  0  0
  -28.8562  -18.4213   21.7281 H   0  0  0  0  0  0
  -28.2312  -18.1164   20.1355 H   0  0  0  0  0  0
  -31.0942  -17.4602   21.0621 H   0  0  0  0  0  0
  -30.5579  -17.2937   19.4201 H   0  0  0  0  0  0
  -29.7230  -19.9080   19.1605 H   0  0  0  0  0  0
  -30.4579  -20.1794   20.7057 H   0  0  0  0  0  0
  -30.0131  -22.5778   20.1625 H   0  0  0  0  0  0
  -28.8734  -22.4141   18.8699 H   0  0  0  0  0  0
  -27.9810  -25.0792   18.6591 H   0  0  0  0  0  0
  -29.5479  -25.0770   19.3412 H   0  0  0  0  0  0
  -27.1257  -23.6536   20.3973 H   0  0  0  0  0  0
  -28.8806  -15.6038   20.9717 H   0  0  0  0  0  0
  -28.4988  -21.1732   21.4993 H   0  0  0  0  0  0
  1 25  1  0  0  0
  1 30  2  0  0  0
  1 79  1  0  0  0
  2  3  1  0  0  0
  2 25  1  0  0  0
  2 81  1  0  0  0
  2 82  1  0  0  0
  3  4  1  0  0  0
  3 83  1  0  0  0
  3 84  1  0  0  0
  4  5  1  0  0  0
  4 85  1  0  0  0
  4 86  1  0  0  0
  5  6  1  0  0  0
  5 26  1  0  0  0
  5 87  1  0  0  0
  6 25  1  0  0  0
  6 88  1  0  0  0
  6 89  1  0  0  0
  7  8  2  0  0  0
  7 26  1  0  0  0
  7 29  1  0  0  0
  8  9  1  0  0  0
  8 22  1  0  0  0
  9 10  1  0  0  0
  9 27  2  0  0  0
 10 11  2  0  0  0
 10 15  1  0  0  0
 11 12  1  0  0  0
 11 90  1  0  0  0
 12 13  2  0  0  0
 12 91  1  0  0  0
 13 14  1  0  0  0
 13 31  1  0  0  0
 14 15  2  0  0  0
 14 92  1  0  0  0
 15 93  1  0  0  0
 16 17  2  0  0  0
 16 21  1  0  0  0
 16 31  1  0  0  0
 17 18  1  0  0  0
 17 94  1  0  0  0
 18 19  2  0  0  0
 18 95  1  0  0  0
 19 20  1  0  0  0
 19 24  1  0  0  0
 20 21  2  0  0  0
 20 96  1  0  0  0
 21 23  1  0  0  0
 22 28  1  0  0  0
 22 32  2  0  0  0
 26 27  1  0  0  0
 28 97  1  0  0  0
 28 98  1  0  0  0
 29 99  1  0  0  0
 29100  1  0  0  0
 33 34  1  0  0  0
 33 66  1  0  0  0
 33 70  2  0  0  0
 34 36  1  0  0  0
 34 59  1  0  0  0
 34101  1  0  0  0
 35 44  2  0  0  0
 35 45  1  0  0  0
 35 68  1  0  0  0
 36 56  1  0  0  0
 36102  1  0  0  0
 37 39  1  0  0  0
 37 47  1  0  0  0
 37 66  1  0  0  0
 37103  1  0  0  0
 38 43  2  0  0  0
 38 46  1  0  0  0
 38 47  1  0  0  0
 39 64  1  0  0  0
 39 67  2  0  0  0
 40 52  1  0  0  0
 40 53  2  0  0  0
 40 58  1  0  0  0
 41104  1  0  0  0
 41105  1  0  0  0
 41106  1  0  0  0
 41 48  1  0  0  0
 42 43  1  0  0  0
 42 66  1  0  0  0
 42107  1  0  0  0
 42108  1  0  0  0
 43 44  1  0  0  0
 44109  1  0  0  0
 45 46  2  0  0  0
 45110  1  0  0  0
 46111  1  0  0  0
 47112  1  0  0  0
 47113  1  0  0  0
 48 56  1  0  0  0
 48 65  1  0  0  0
 48114  1  0  0  0
 49 50  1  0  0  0
 49 53  1  0  0  0
 49 64  1  0  0  0
 49115  1  0  0  0
 50 51  1  0  0  0
 50116  1  0  0  0
 50117  1  0  0  0
 51 52  1  0  0  0
 51118  1  0  0  0
 51119  1  0  0  0
 52120  1  0  0  0
 52121  1  0  0  0
 53 54  1  0  0  0
 54 55  2  0  0  0
 54122  1  0  0  0
 55 57  1  0  0  0
 55123  1  0  0  0
 56 69  2  0  0  0
 57 58  2  0  0  0
 57124  1  0  0  0
 58125  1  0  0  0
 59 60  1  0  0  0
 59 61  1  0  0  0
 59 62  1  0  0  0
 60126  1  0  0  0
 60127  1  0  0  0
 60128  1  0  0  0
 61129  1  0  0  0
 61130  1  0  0  0
 61131  1  0  0  0
 62132  1  0  0  0
 62133  1  0  0  0
 62134  1  0  0  0
 63 65  1  0  0  0
 63135  1  0  0  0
 63136  1  0  0  0
 63137  1  0  0  0
 64138  1  0  0  0
 65139  1  0  0  0
 68 77  1  0  0  0
 71140  1  0  0  0
 71141  1  0  0  0
 71142  1  0  0  0
 71 78  1  0  0  0
 72143  1  0  0  0
 72144  1  0  0  0
 72145  1  0  0  0
 72 80  1  0  0  0
 73 74  1  0  0  0
 73 75  1  0  0  0
 73146  1  0  0  0
 73147  1  0  0  0
 74 79  1  0  0  0
 74148  1  0  0  0
 74149  1  0  0  0
 75 80  1  0  0  0
 75150  1  0  0  0
 75151  1  0  0  0
 76 78  1  0  0  0
 76 80  1  0  0  0
 76152  1  0  0  0
 76153  1  0  0  0
 77 78  1  0  0  0
 77154  1  0  0  0
 77155  1  0  0  0
 78156  1  0  0  0
 79157  1  0  0  0
 80158  1  0  0  0
M  CHG  1  80   1
M  ISO  4   1 100  68 101  77 101  79 100
M  END
> <chiral flag>
0

> <version>
0

> <s_m_source_file>
/data/baiqing/PycharmProjects/Reinvent-master-3.2/result/LINK_invent/BTK/process_docking_weight1_custom_sum_contain_oxygen_bond_distance_aromatic_linkinvent_7_9_3/rearranged_h_0101.sdf

> <i_m_source_file_index>
7

> <r_mmod_Potential_Energy-OPLS-2005>
-24.8804321289062

> <r_mmod_Stretch_Energy-OPLS-2005>
103.623657226562

> <r_mmod_Bend_Energy-OPLS-2005>
163.001953125

> <r_mmod_Torsional_Energy-OPLS-2005>
215.459625244141

> <r_mmod_Improper_Torsional_Energy-OPLS-2005>
5.33439159393311

> <r_mmod_Van_der_Waal_Energy-OPLS-2005>
116.814056396484

> <r_mmod_Electrostatic_Energy-OPLS-2005>
-225.160415649414

> <r_mmod_Solvation_Energy-OPLS-2005>
-460.953247070312

> <b_mmod_Minimization_Converged-OPLS-2005>
0

> <r_mmod_RMS_Derivative-OPLS-2005>
2.11117672920227

$$$$
7
                    3D
 Structure written by MMmdl.
164172  0  0  1  0            999 V2000
  -30.6036  -14.7333   20.4476 C   0  0  0  0  0  0
  -30.4331  -12.4486   19.4600 C   0  0  0  0  0  0
  -29.5058  -12.4986   18.2262 C   0  0  0  0  0  0
  -28.0294  -12.3395   18.6387 C   0  0  0  0  0  0
  -27.6391  -13.2334   19.8472 C   0  0  2  0  0  0
  -28.6870  -13.1548   20.9788 C   0  0  0  0  0  0
  -25.2492  -13.8211   20.5704 C   0  0  0  0  0  0
  -24.1794  -13.0453   20.9237 C   0  0  0  0  0  0
  -24.6385  -11.6921   20.8752 C   0  0  0  0  0  0
  -23.9061  -10.4305   21.0418 C   0  0  0  0  0  0
  -24.3624   -9.4214   21.9186 C   0  0  0  0  0  0
  -23.6299   -8.2247   22.0751 C   0  0  0  0  0  0
  -22.4277   -8.0287   21.3547 C   0  0  0  0  0  0
  -21.9918   -9.0253   20.4650 C   0  0  0  0  0  0
  -22.7237  -10.2137   20.3060 C   0  0  0  0  0  0
  -21.6849   -6.0727   22.5273 C   0  0  0  0  0  0
  -21.4005   -6.5633   23.8206 C   0  0  0  0  0  0
  -21.3672   -5.6787   24.9173 C   0  0  0  0  0  0
  -21.6058   -4.3049   24.7228 C   0  0  0  0  0  0
  -21.8819   -3.8139   23.4350 C   0  0  0  0  0  0
  -21.9201   -4.6955   22.3403 C   0  0  0  0  0  0
  -22.7817  -13.5221   21.1892 C   0  0  0  0  0  0
  -22.1656   -4.2142   21.0982 F   0  0  0  0  0  0
  -21.5655   -3.4533   25.7743 F   0  0  0  0  0  0
  -29.9858  -13.5057   20.3939 N   0  0  0  0  0  0
  -26.2922  -12.9404   20.3269 N   0  0  0  0  0  0
  -25.9308  -11.6551   20.5726 N   0  0  0  0  0  0
  -22.0470  -12.8191   22.0451 N   0  0  0  0  0  0
  -25.4196  -15.1927   20.4102 N   0  0  0  0  0  0
  -31.7952  -14.8419   20.1482 O   0  0  0  0  0  0
  -21.6652   -6.8868   21.4234 O   0  0  0  0  0  0
  -22.3506  -14.5530   20.6749 O   0  0  0  0  0  0
  -24.6269  -31.8543   23.1981 C   0  0  0  0  0  0
  -25.9108  -32.4738   23.8315 C   0  0  1  0  0  0
  -27.2228  -27.2766   20.1354 C   0  0  0  0  0  0
  -25.5928  -33.8549   24.2257 N   0  0  0  0  0  0
  -23.4196  -30.4773   21.5395 C   0  0  2  0  0  0
  -24.8683  -28.9170   20.1103 C   0  0  0  0  0  0
  -22.7436  -29.4637   22.4931 C   0  0  0  0  0  0
  -18.0277  -28.1343   22.8503 C   0  0  0  0  0  0
  -24.1496  -36.7278   23.2637 C   0  0  0  0  0  0
  -25.9620  -30.7718   21.3729 C   0  0  0  0  0  0
  -26.0352  -29.3955   20.7160 C   0  0  0  0  0  0
  -27.2115  -28.5873   20.7154 C   0  0  0  0  0  0
  -26.0336  -26.8523   19.5034 C   0  0  0  0  0  0
  -24.8719  -27.6527   19.4961 C   0  0  0  0  0  0
  -23.6342  -29.7979   20.1604 C   0  0  0  0  0  0
  -25.4128  -36.3057   24.0307 C   0  0  1  0  0  0
  -20.5866  -28.3687   23.1256 C   0  0  2  0  0  0
  -20.6767  -26.9406   22.5393 C   0  0  0  0  0  0
  -19.5764  -26.6346   21.5196 C   0  0  0  0  0  0
  -18.1943  -26.7889   22.1600 C   0  0  0  0  0  0
  -19.1528  -28.8831   23.2873 C   0  0  0  0  0  0
  -18.9466  -30.1428   23.8901 C   0  0  0  0  0  0
  -17.6483  -30.6576   24.0559 C   0  0  0  0  0  0
  -25.9057  -34.9422   23.5079 C   0  0  0  0  0  0
  -16.5365  -29.9079   23.6330 C   0  0  0  0  0  0
  -16.7265  -28.6462   23.0402 C   0  0  0  0  0  0
  -26.4512  -31.6557   25.0689 C   0  0  0  0  0  0
  -25.3763  -31.3709   26.1437 C   0  0  0  0  0  0
  -27.0370  -30.2977   24.6160 C   0  0  0  0  0  0
  -27.6046  -32.4329   25.7461 C   0  0  0  0  0  0
  -27.5584  -37.1783   24.8464 C   0  0  0  0  0  0
  -21.4164  -29.3048   22.3637 N   0  0  0  0  0  0
  -26.4300  -37.3755   23.9398 N   0  0  0  0  0  0
  -24.6889  -31.0506   22.0953 N   0  0  0  0  0  0
  -23.4143  -28.8220   23.3063 O   0  0  0  0  0  0
  -28.3579  -26.4467   20.2245 O   0  0  0  0  0  0
  -26.5622  -34.8896   22.4645 O   0  0  0  0  0  0
  -23.5421  -32.1387   23.7281 O   0  0  0  0  0  0
  -26.7113  -23.6771   20.9785 C   0  0  0  0  0  0
  -30.0113  -22.0637   19.7024 C   0  0  0  0  0  0
  -28.7979  -22.3037   20.4118 C   0  0  0  0  0  0
  -30.2878  -20.7157   19.5972 C   0  0  0  0  0  0
  -28.4102  -20.9997   20.7716 C   0  0  0  0  0  0
  -27.2414  -20.5709   21.6092 C   0  0  0  0  0  0
  -32.6336  -21.0368   18.6803 C   0  0  0  0  0  0
  -30.9992  -19.4651   17.5383 C   0  0  0  0  0  0
  -29.0488  -18.4553   20.2622 C   0  0  0  0  0  0
  -30.2023  -17.3400   20.5248 C   0  0  0  0  0  0
  -28.4378  -25.0178   19.7739 C   0  0  0  0  0  0
  -28.1661  -23.7527   20.7435 C   0  0  1  0  0  0
  -31.4453  -20.0748   18.8791 C   0  0  0  0  0  0
  -25.5642  -23.6207   21.1613 N   0  0  0  0  0  0
  -29.2797  -19.9902   20.2451 N   0  0  0  0  0  0
  -29.8148  -15.8592   20.6160 N   0  0  0  0  0  0
  -31.4687  -12.5900   19.1455 H   0  0  0  0  0  0
  -30.3894  -11.4697   19.9392 H   0  0  0  0  0  0
  -29.7809  -11.7192   17.5137 H   0  0  0  0  0  0
  -29.6404  -13.4464   17.7046 H   0  0  0  0  0  0
  -27.8689  -11.2895   18.8864 H   0  0  0  0  0  0
  -27.3786  -12.5542   17.7900 H   0  0  0  0  0  0
  -27.6301  -14.2576   19.4739 H   0  0  0  0  0  0
  -28.7189  -12.1518   21.4069 H   0  0  0  0  0  0
  -28.4260  -13.8320   21.7943 H   0  0  0  0  0  0
  -25.2769   -9.5700   22.4766 H   0  0  0  0  0  0
  -24.0025   -7.4642   22.7456 H   0  0  0  0  0  0
  -21.0867   -8.8766   19.8943 H   0  0  0  0  0  0
  -22.3691  -10.9682   19.6188 H   0  0  0  0  0  0
  -21.1952   -7.6129   23.9699 H   0  0  0  0  0  0
  -21.1511   -6.0521   25.9080 H   0  0  0  0  0  0
  -22.0587   -2.7600   23.2854 H   0  0  0  0  0  0
  -22.4074  -11.9824   22.4805 H   0  0  0  0  0  0
  -21.1098  -13.1210   22.2672 H   0  0  0  0  0  0
  -24.6554  -15.8487   20.5248 H   0  0  0  0  0  0
  -26.2547  -15.6258   20.0397 H   0  0  0  0  0  0
  -26.7138  -32.5388   23.1017 H   0  0  0  0  0  0
  -25.0129  -33.9700   25.0436 H   0  0  0  0  0  0
  -22.7156  -31.2998   21.3860 H   0  0  0  0  0  0
  -23.3763  -35.9604   23.3306 H   0  0  0  0  0  0
  -24.3610  -36.8910   22.2054 H   0  0  0  0  0  0
  -23.7227  -37.6461   23.6686 H   0  0  0  0  0  0
  -26.0921  -31.5340   20.6021 H   0  0  0  0  0  0
  -26.8414  -30.8194   22.0050 H   0  0  0  0  0  0
  -28.1059  -28.9546   21.1978 H   0  0  0  0  0  0
  -25.9679  -25.8812   19.0385 H   0  0  0  0  0  0
  -23.9727  -27.2737   19.0292 H   0  0  0  0  0  0
  -23.7461  -30.5635   19.3924 H   0  0  0  0  0  0
  -22.7550  -29.2184   19.8726 H   0  0  0  0  0  0
  -25.1301  -36.1891   25.0787 H   0  0  0  0  0  0
  -20.9977  -28.3264   24.1369 H   0  0  0  0  0  0
  -20.5637  -26.2325   23.3605 H   0  0  0  0  0  0
  -21.6656  -26.7411   22.1237 H   0  0  0  0  0  0
  -19.6972  -25.6255   21.1259 H   0  0  0  0  0  0
  -19.6720  -27.3121   20.6705 H   0  0  0  0  0  0
  -17.4224  -26.6659   21.3980 H   0  0  0  0  0  0
  -18.0352  -25.9979   22.8941 H   0  0  0  0  0  0
  -19.7947  -30.7216   24.2293 H   0  0  0  0  0  0
  -17.5044  -31.6268   24.5124 H   0  0  0  0  0  0
  -15.5377  -30.3005   23.7617 H   0  0  0  0  0  0
  -15.8652  -28.0745   22.7202 H   0  0  0  0  0  0
  -24.5929  -30.7039   25.7812 H   0  0  0  0  0  0
  -24.8977  -32.2884   26.4855 H   0  0  0  0  0  0
  -25.8114  -30.8912   27.0207 H   0  0  0  0  0  0
  -26.2939  -29.6689   24.1230 H   0  0  0  0  0  0
  -27.4123  -29.7245   25.4647 H   0  0  0  0  0  0
  -27.8782  -30.4275   23.9348 H   0  0  0  0  0  0
  -27.2626  -33.3646   26.1975 H   0  0  0  0  0  0
  -28.3879  -32.6861   25.0305 H   0  0  0  0  0  0
  -28.0682  -31.8497   26.5421 H   0  0  0  0  0  0
  -28.2584  -38.0096   24.7514 H   0  0  0  0  0  0
  -28.1084  -36.2614   24.6285 H   0  0  0  0  0  0
  -27.2298  -37.1409   25.8865 H   0  0  0  0  0  0
  -20.9332  -29.8733   21.6815 H   0  0  0  0  0  0
  -26.0173  -38.2813   24.1434 H   0  0  0  0  0  0
  -30.6455  -22.8371   19.2886 H   0  0  0  0  0  0
  -26.7894  -21.4030   22.1438 H   0  0  0  0  0  0
  -27.5507  -19.8647   22.3804 H   0  0  0  0  0  0
  -26.4688  -20.0965   21.0030 H   0  0  0  0  0  0
  -32.9400  -21.4741   19.6321 H   0  0  0  0  0  0
  -32.4016  -21.8536   17.9953 H   0  0  0  0  0  0
  -33.5024  -20.5143   18.2785 H   0  0  0  0  0  0
  -30.2517  -18.6873   17.6865 H   0  0  0  0  0  0
  -31.8336  -19.0102   17.0060 H   0  0  0  0  0  0
  -30.5587  -20.2210   16.8852 H   0  0  0  0  0  0
  -28.2700  -18.2507   20.9919 H   0  0  0  0  0  0
  -28.5844  -18.2171   19.3047 H   0  0  0  0  0  0
  -30.7199  -17.5960   21.4498 H   0  0  0  0  0  0
  -30.9476  -17.4004   19.7352 H   0  0  0  0  0  0
  -27.8919  -24.8814   18.8415 H   0  0  0  0  0  0
  -29.4829  -24.9352   19.4789 H   0  0  0  0  0  0
  -28.5927  -24.0132   21.7121 H   0  0  0  0  0  0
  -31.8467  -19.2874   19.5130 H   0  0  0  0  0  0
  -28.8380  -15.6724   20.7838 H   0  0  0  0  0  0
  1 25  1  0  0  0
  1 30  2  0  0  0
  1 86  1  0  0  0
  2  3  1  0  0  0
  2 25  1  0  0  0
  2 87  1  0  0  0
  2 88  1  0  0  0
  3  4  1  0  0  0
  3 89  1  0  0  0
  3 90  1  0  0  0
  4  5  1  0  0  0
  4 91  1  0  0  0
  4 92  1  0  0  0
  5  6  1  0  0  0
  5 26  1  0  0  0
  5 93  1  0  0  0
  6 25  1  0  0  0
  6 94  1  0  0  0
  6 95  1  0  0  0
  7  8  2  0  0  0
  7 26  1  0  0  0
  7 29  1  0  0  0
  8  9  1  0  0  0
  8 22  1  0  0  0
  9 10  1  0  0  0
  9 27  2  0  0  0
 10 11  2  0  0  0
 10 15  1  0  0  0
 11 12  1  0  0  0
 11 96  1  0  0  0
 12 13  2  0  0  0
 12 97  1  0  0  0
 13 14  1  0  0  0
 13 31  1  0  0  0
 14 15  2  0  0  0
 14 98  1  0  0  0
 15 99  1  0  0  0
 16 17  2  0  0  0
 16 21  1  0  0  0
 16 31  1  0  0  0
 17 18  1  0  0  0
 17100  1  0  0  0
 18 19  2  0  0  0
 18101  1  0  0  0
 19 20  1  0  0  0
 19 24  1  0  0  0
 20 21  2  0  0  0
 20102  1  0  0  0
 21 23  1  0  0  0
 22 28  1  0  0  0
 22 32  2  0  0  0
 26 27  1  0  0  0
 28103  1  0  0  0
 28104  1  0  0  0
 29105  1  0  0  0
 29106  1  0  0  0
 33 34  1  0  0  0
 33 66  1  0  0  0
 33 70  2  0  0  0
 34 36  1  0  0  0
 34 59  1  0  0  0
 34107  1  0  0  0
 35 44  2  0  0  0
 35 45  1  0  0  0
 35 68  1  0  0  0
 36 56  1  0  0  0
 36108  1  0  0  0
 37 39  1  0  0  0
 37 47  1  0  0  0
 37 66  1  0  0  0
 37109  1  0  0  0
 38 43  2  0  0  0
 38 46  1  0  0  0
 38 47  1  0  0  0
 39 64  1  0  0  0
 39 67  2  0  0  0
 40 52  1  0  0  0
 40 53  2  0  0  0
 40 58  1  0  0  0
 41110  1  0  0  0
 41111  1  0  0  0
 41112  1  0  0  0
 41 48  1  0  0  0
 42 43  1  0  0  0
 42 66  1  0  0  0
 42113  1  0  0  0
 42114  1  0  0  0
 43 44  1  0  0  0
 44115  1  0  0  0
 45 46  2  0  0  0
 45116  1  0  0  0
 46117  1  0  0  0
 47118  1  0  0  0
 47119  1  0  0  0
 48 56  1  0  0  0
 48 65  1  0  0  0
 48120  1  0  0  0
 49 50  1  0  0  0
 49 53  1  0  0  0
 49 64  1  0  0  0
 49121  1  0  0  0
 50 51  1  0  0  0
 50122  1  0  0  0
 50123  1  0  0  0
 51 52  1  0  0  0
 51124  1  0  0  0
 51125  1  0  0  0
 52126  1  0  0  0
 52127  1  0  0  0
 53 54  1  0  0  0
 54 55  2  0  0  0
 54128  1  0  0  0
 55 57  1  0  0  0
 55129  1  0  0  0
 56 69  2  0  0  0
 57 58  2  0  0  0
 57130  1  0  0  0
 58131  1  0  0  0
 59 60  1  0  0  0
 59 61  1  0  0  0
 59 62  1  0  0  0
 60132  1  0  0  0
 60133  1  0  0  0
 60134  1  0  0  0
 61135  1  0  0  0
 61136  1  0  0  0
 61137  1  0  0  0
 62138  1  0  0  0
 62139  1  0  0  0
 62140  1  0  0  0
 63 65  1  0  0  0
 63141  1  0  0  0
 63142  1  0  0  0
 63143  1  0  0  0
 64144  1  0  0  0
 65145  1  0  0  0
 68 81  1  0  0  0
 71 84  3  0  0  0
 71 82  1  0  0  0
 72 73  1  0  0  0
 72 74  2  0  0  0
 72146  1  0  0  0
 73 75  2  0  0  0
 73 82  1  0  0  0
 74 83  1  0  0  0
 74 85  1  0  0  0
 75 76  1  0  0  0
 75 85  1  0  0  0
 76147  1  0  0  0
 76148  1  0  0  0
 76149  1  0  0  0
 77150  1  0  0  0
 77151  1  0  0  0
 77152  1  0  0  0
 77 83  1  0  0  0
 78 83  1  0  0  0
 78153  1  0  0  0
 78154  1  0  0  0
 78155  1  0  0  0
 79 80  1  0  0  0
 79 85  1  0  0  0
 79156  1  0  0  0
 79157  1  0  0  0
 80 86  1  0  0  0
 80158  1  0  0  0
 80159  1  0  0  0
 81 82  1  0  0  0
 81160  1  0  0  0
 81161  1  0  0  0
 82162  1  0  0  0
 83163  1  0  0  0
 86164  1  0  0  0
M  ISO  4   1 100  68 101  81 101  86 100
M  END
> <chiral flag>
0

> <version>
0

> <s_m_source_file>
/data/baiqing/PycharmProjects/Reinvent-master-3.2/result/LINK_invent/BTK/process_docking_weight1_custom_sum_contain_oxygen_bond_distance_aromatic_linkinvent_7_9_3/rearranged_h_0101.sdf

> <i_m_source_file_index>
8

> <r_mmod_Potential_Energy-OPLS-2005>
149.705841064453

> <r_mmod_Stretch_Energy-OPLS-2005>
127.187881469727

> <r_mmod_Bend_Energy-OPLS-2005>
190.831268310547

> <r_mmod_Torsional_Energy-OPLS-2005>
216.706527709961

> <r_mmod_Improper_Torsional_Energy-OPLS-2005>
6.00832796096802

> <r_mmod_Van_der_Waal_Energy-OPLS-2005>
112.113952636719

> <r_mmod_Electrostatic_Energy-OPLS-2005>
-357.606140136719

> <r_mmod_Solvation_Energy-OPLS-2005>
-222.921417236328

> <b_mmod_Minimization_Converged-OPLS-2005>
0

> <r_mmod_RMS_Derivative-OPLS-2005>
3.16417813301086

$$$$
8
                    3D
 Structure written by MMmdl.
166174  0  0  1  0            999 V2000
  -30.5523  -14.7931   20.4429 C   0  0  0  0  0  0
  -30.4424  -12.4775   19.4915 C   0  0  0  0  0  0
  -29.5191  -12.5188   18.2509 C   0  0  0  0  0  0
  -28.0440  -12.3365   18.6577 C   0  0  0  0  0  0
  -27.6458  -13.2302   19.8616 C   0  0  2  0  0  0
  -28.6875  -13.1538   21.0010 C   0  0  0  0  0  0
  -25.2518  -13.8188   20.5705 C   0  0  0  0  0  0
  -24.1803  -13.0437   20.9207 C   0  0  0  0  0  0
  -24.6393  -11.6914   20.8747 C   0  0  0  0  0  0
  -23.9069  -10.4290   21.0406 C   0  0  0  0  0  0
  -24.3619   -9.4206   21.9184 C   0  0  0  0  0  0
  -23.6295   -8.2241   22.0754 C   0  0  0  0  0  0
  -22.4278   -8.0277   21.3542 C   0  0  0  0  0  0
  -21.9912   -9.0252   20.4647 C   0  0  0  0  0  0
  -22.7241  -10.2132   20.3055 C   0  0  0  0  0  0
  -21.6855   -6.0734   22.5279 C   0  0  0  0  0  0
  -21.4014   -6.5640   23.8211 C   0  0  0  0  0  0
  -21.3660   -5.6793   24.9174 C   0  0  0  0  0  0
  -21.6047   -4.3056   24.7225 C   0  0  0  0  0  0
  -21.8819   -3.8146   23.4347 C   0  0  0  0  0  0
  -21.9194   -4.6962   22.3402 C   0  0  0  0  0  0
  -22.7824  -13.5216   21.1869 C   0  0  0  0  0  0
  -22.1661   -4.2147   21.0980 F   0  0  0  0  0  0
  -21.5630   -3.4541   25.7738 F   0  0  0  0  0  0
  -29.9900  -13.5312   20.4342 N   0  0  0  0  0  0
  -26.2951  -12.9391   20.3319 N   0  0  0  0  0  0
  -25.9325  -11.6536   20.5764 N   0  0  0  0  0  0
  -22.0478  -12.8198   22.0427 N   0  0  0  0  0  0
  -25.4222  -15.1909   20.4120 N   0  0  0  0  0  0
  -31.7041  -14.9491   20.0259 O   0  0  0  0  0  0
  -21.6640   -6.8877   21.4240 O   0  0  0  0  0  0
  -22.3504  -14.5524   20.6724 O   0  0  0  0  0  0
  -24.6318  -31.8502   23.1919 C   0  0  0  0  0  0
  -25.9131  -32.4721   23.8283 C   0  0  1  0  0  0
  -27.2324  -27.2359   20.1322 C   0  0  0  0  0  0
  -25.5916  -33.8526   24.2214 N   0  0  0  0  0  0
  -23.4305  -30.4671   21.5343 C   0  0  2  0  0  0
  -24.8801  -28.9021   20.1026 C   0  0  0  0  0  0
  -22.7506  -29.4568   22.4891 C   0  0  0  0  0  0
  -18.0288  -28.1394   22.8486 C   0  0  0  0  0  0
  -24.1486  -36.7273   23.2642 C   0  0  0  0  0  0
  -25.9742  -30.7558   21.3718 C   0  0  0  0  0  0
  -26.0466  -29.3744   20.7140 C   0  0  0  0  0  0
  -27.2175  -28.5517   20.7167 C   0  0  0  0  0  0
  -26.0446  -26.8281   19.4931 C   0  0  0  0  0  0
  -24.8863  -27.6399   19.4802 C   0  0  0  0  0  0
  -23.6491  -29.7903   20.1522 C   0  0  0  0  0  0
  -25.4116  -36.3051   24.0323 C   0  0  1  0  0  0
  -20.5893  -28.3703   23.1270 C   0  0  2  0  0  0
  -20.6776  -26.9416   22.5417 C   0  0  0  0  0  0
  -19.5753  -26.6386   21.5221 C   0  0  0  0  0  0
  -18.1929  -26.7934   22.1628 C   0  0  0  0  0  0
  -19.1542  -28.8865   23.2872 C   0  0  0  0  0  0
  -18.9465  -30.1466   23.8890 C   0  0  0  0  0  0
  -17.6464  -30.6593   24.0562 C   0  0  0  0  0  0
  -25.9059  -34.9422   23.5079 C   0  0  0  0  0  0
  -16.5356  -29.9089   23.6331 C   0  0  0  0  0  0
  -16.7275  -28.6508   23.0353 C   0  0  0  0  0  0
  -26.4496  -31.6565   25.0689 C   0  0  0  0  0  0
  -25.3714  -31.3723   26.1407 C   0  0  0  0  0  0
  -27.0359  -30.2980   24.6201 C   0  0  0  0  0  0
  -27.6043  -32.4319   25.7463 C   0  0  0  0  0  0
  -27.5577  -37.1788   24.8466 C   0  0  0  0  0  0
  -21.4210  -29.3034   22.3646 N   0  0  0  0  0  0
  -26.4288  -37.3755   23.9409 N   0  0  0  0  0  0
  -24.6979  -31.0439   22.0895 N   0  0  0  0  0  0
  -23.4195  -28.8129   23.3016 O   0  0  0  0  0  0
  -28.3557  -26.3866   20.2810 O   0  0  0  0  0  0
  -26.5647  -34.8911   22.4658 O   0  0  0  0  0  0
  -23.5467  -32.1338   23.7207 O   0  0  0  0  0  0
  -29.1201  -21.2216   19.9542 C   0  0  0  0  0  0
  -29.1349  -20.0583   20.7529 C   0  0  0  0  0  0
  -28.2322  -20.4052   21.8094 C   0  0  0  0  0  0
  -27.7758  -21.6995   21.6504 C   0  0  0  0  0  0
  -27.8542  -19.4926   22.9526 C   0  0  0  0  0  0
  -26.8367  -22.4581   22.5419 C   0  0  0  0  0  0
  -25.3532  -22.1447   17.0885 C   0  0  0  0  0  0
  -29.9867  -18.6768   20.7442 C   0  0  0  0  0  0
  -25.9494  -22.3563   18.4858 C   0  0  0  0  0  0
  -27.1602  -23.3084   18.4698 C   0  0  0  0  0  0
  -29.4873  -17.2660   20.1022 C   0  0  0  0  0  0
  -28.6387  -24.9801   19.7776 C   0  0  0  0  0  0
  -27.7580  -23.6095   19.8667 C   0  0  2  0  0  0
  -28.2656  -22.2565   20.4674 N   0  0  0  0  0  0
  -29.7225  -15.8732   20.7381 N   0  0  0  0  0  0
  -31.4826  -12.6164   19.1923 H   0  0  0  0  0  0
  -30.4011  -11.4975   19.9695 H   0  0  0  0  0  0
  -29.8077  -11.7454   17.5380 H   0  0  0  0  0  0
  -29.6410  -13.4725   17.7349 H   0  0  0  0  0  0
  -27.8999  -11.2867   18.9155 H   0  0  0  0  0  0
  -27.3901  -12.5329   17.8074 H   0  0  0  0  0  0
  -27.6425  -14.2538   19.4866 H   0  0  0  0  0  0
  -28.7287  -12.1476   21.4203 H   0  0  0  0  0  0
  -28.4103  -13.8119   21.8255 H   0  0  0  0  0  0
  -25.2765   -9.5681   22.4760 H   0  0  0  0  0  0
  -24.0008   -7.4628   22.7467 H   0  0  0  0  0  0
  -21.0847   -8.8769   19.8946 H   0  0  0  0  0  0
  -22.3700  -10.9671   19.6162 H   0  0  0  0  0  0
  -21.2004   -7.6147   23.9712 H   0  0  0  0  0  0
  -21.1483   -6.0525   25.9077 H   0  0  0  0  0  0
  -22.0599   -2.7609   23.2848 H   0  0  0  0  0  0
  -22.4111  -11.9862   22.4808 H   0  0  0  0  0  0
  -21.1091  -13.1202   22.2637 H   0  0  0  0  0  0
  -24.6552  -15.8448   20.5225 H   0  0  0  0  0  0
  -26.2681  -15.6284   20.0707 H   0  0  0  0  0  0
  -26.7188  -32.5361   23.1014 H   0  0  0  0  0  0
  -25.0039  -33.9648   25.0343 H   0  0  0  0  0  0
  -22.7288  -31.2899   21.3823 H   0  0  0  0  0  0
  -23.3754  -35.9599   23.3295 H   0  0  0  0  0  0
  -24.3574  -36.8912   22.2059 H   0  0  0  0  0  0
  -23.7239  -37.6467   23.6682 H   0  0  0  0  0  0
  -26.1137  -31.5157   20.6017 H   0  0  0  0  0  0
  -26.8509  -30.8079   22.0057 H   0  0  0  0  0  0
  -28.1083  -28.9048   21.2169 H   0  0  0  0  0  0
  -25.9813  -25.8546   19.0386 H   0  0  0  0  0  0
  -23.9895  -27.2710   19.0012 H   0  0  0  0  0  0
  -23.7704  -30.5623   19.3915 H   0  0  0  0  0  0
  -22.7679  -29.2203   19.8523 H   0  0  0  0  0  0
  -25.1301  -36.1886   25.0816 H   0  0  0  0  0  0
  -20.9989  -28.3289   24.1391 H   0  0  0  0  0  0
  -20.5680  -26.2314   23.3627 H   0  0  0  0  0  0
  -21.6642  -26.7440   22.1209 H   0  0  0  0  0  0
  -19.6917  -25.6297   21.1252 H   0  0  0  0  0  0
  -19.6688  -27.3196   20.6750 H   0  0  0  0  0  0
  -17.4202  -26.6686   21.4026 H   0  0  0  0  0  0
  -18.0321  -26.0076   22.9025 H   0  0  0  0  0  0
  -19.7941  -30.7282   24.2261 H   0  0  0  0  0  0
  -17.5017  -31.6271   24.5169 H   0  0  0  0  0  0
  -15.5356  -30.2989   23.7662 H   0  0  0  0  0  0
  -15.8676  -28.0826   22.7074 H   0  0  0  0  0  0
  -24.5893  -30.7069   25.7734 H   0  0  0  0  0  0
  -24.8901  -32.2893   26.4813 H   0  0  0  0  0  0
  -25.8021  -30.8912   27.0196 H   0  0  0  0  0  0
  -26.2956  -29.6703   24.1229 H   0  0  0  0  0  0
  -27.4039  -29.7263   25.4730 H   0  0  0  0  0  0
  -27.8822  -30.4250   23.9448 H   0  0  0  0  0  0
  -27.2650  -33.3631   26.2008 H   0  0  0  0  0  0
  -28.3864  -32.6861   25.0298 H   0  0  0  0  0  0
  -28.0698  -31.8468   26.5403 H   0  0  0  0  0  0
  -28.2587  -38.0091   24.7514 H   0  0  0  0  0  0
  -28.1079  -36.2622   24.6290 H   0  0  0  0  0  0
  -27.2294  -37.1431   25.8868 H   0  0  0  0  0  0
  -20.9409  -29.8730   21.6818 H   0  0  0  0  0  0
  -26.0163  -38.2824   24.1416 H   0  0  0  0  0  0
  -29.6470  -21.4088   19.0276 H   0  0  0  0  0  0
  -28.4562  -19.7147   23.8335 H   0  0  0  0  0  0
  -28.0041  -18.4450   22.6907 H   0  0  0  0  0  0
  -26.8030  -19.6125   23.2151 H   0  0  0  0  0  0
  -26.7481  -21.9906   23.5222 H   0  0  0  0  0  0
  -25.8371  -22.5008   22.1084 H   0  0  0  0  0  0
  -27.1824  -23.4782   22.7104 H   0  0  0  0  0  0
  -24.5066  -21.4582   17.1252 H   0  0  0  0  0  0
  -26.0899  -21.7248   16.4025 H   0  0  0  0  0  0
  -24.9974  -23.0842   16.6638 H   0  0  0  0  0  0
  -30.2311  -18.4779   21.7879 H   0  0  0  0  0  0
  -30.9533  -18.9116   20.2971 H   0  0  0  0  0  0
  -26.2354  -21.3897   18.9025 H   0  0  0  0  0  0
  -25.1786  -22.7577   19.1457 H   0  0  0  0  0  0
  -26.8630  -24.2344   17.9812 H   0  0  0  0  0  0
  -27.9414  -22.8926   17.8324 H   0  0  0  0  0  0
  -29.8129  -17.2270   19.0619 H   0  0  0  0  0  0
  -28.4012  -17.3404   20.0390 H   0  0  0  0  0  0
  -28.9389  -25.1104   18.7377 H   0  0  0  0  0  0
  -29.5770  -24.7325   20.2741 H   0  0  0  0  0  0
  -26.9053  -23.9158   20.4683 H   0  0  0  0  0  0
  -28.9006  -15.5540   21.2294 H   0  0  0  0  0  0
  1 25  1  0  0  0
  1 30  2  0  0  0
  1 85  1  0  0  0
  2  3  1  0  0  0
  2 25  1  0  0  0
  2 86  1  0  0  0
  2 87  1  0  0  0
  3  4  1  0  0  0
  3 88  1  0  0  0
  3 89  1  0  0  0
  4  5  1  0  0  0
  4 90  1  0  0  0
  4 91  1  0  0  0
  5  6  1  0  0  0
  5 26  1  0  0  0
  5 92  1  0  0  0
  6 25  1  0  0  0
  6 93  1  0  0  0
  6 94  1  0  0  0
  7  8  2  0  0  0
  7 26  1  0  0  0
  7 29  1  0  0  0
  8  9  1  0  0  0
  8 22  1  0  0  0
  9 10  1  0  0  0
  9 27  2  0  0  0
 10 11  2  0  0  0
 10 15  1  0  0  0
 11 12  1  0  0  0
 11 95  1  0  0  0
 12 13  2  0  0  0
 12 96  1  0  0  0
 13 14  1  0  0  0
 13 31  1  0  0  0
 14 15  2  0  0  0
 14 97  1  0  0  0
 15 98  1  0  0  0
 16 17  2  0  0  0
 16 21  1  0  0  0
 16 31  1  0  0  0
 17 18  1  0  0  0
 17 99  1  0  0  0
 18 19  2  0  0  0
 18100  1  0  0  0
 19 20  1  0  0  0
 19 24  1  0  0  0
 20 21  2  0  0  0
 20101  1  0  0  0
 21 23  1  0  0  0
 22 28  1  0  0  0
 22 32  2  0  0  0
 26 27  1  0  0  0
 28102  1  0  0  0
 28103  1  0  0  0
 29104  1  0  0  0
 29105  1  0  0  0
 33 34  1  0  0  0
 33 66  1  0  0  0
 33 70  2  0  0  0
 34 36  1  0  0  0
 34 59  1  0  0  0
 34106  1  0  0  0
 35 44  2  0  0  0
 35 45  1  0  0  0
 35 68  1  0  0  0
 36 56  1  0  0  0
 36107  1  0  0  0
 37 39  1  0  0  0
 37 47  1  0  0  0
 37 66  1  0  0  0
 37108  1  0  0  0
 38 43  2  0  0  0
 38 46  1  0  0  0
 38 47  1  0  0  0
 39 64  1  0  0  0
 39 67  2  0  0  0
 40 52  1  0  0  0
 40 53  2  0  0  0
 40 58  1  0  0  0
 41109  1  0  0  0
 41110  1  0  0  0
 41111  1  0  0  0
 41 48  1  0  0  0
 42 43  1  0  0  0
 42 66  1  0  0  0
 42112  1  0  0  0
 42113  1  0  0  0
 43 44  1  0  0  0
 44114  1  0  0  0
 45 46  2  0  0  0
 45115  1  0  0  0
 46116  1  0  0  0
 47117  1  0  0  0
 47118  1  0  0  0
 48 56  1  0  0  0
 48 65  1  0  0  0
 48119  1  0  0  0
 49 50  1  0  0  0
 49 53  1  0  0  0
 49 64  1  0  0  0
 49120  1  0  0  0
 50 51  1  0  0  0
 50121  1  0  0  0
 50122  1  0  0  0
 51 52  1  0  0  0
 51123  1  0  0  0
 51124  1  0  0  0
 52125  1  0  0  0
 52126  1  0  0  0
 53 54  1  0  0  0
 54 55  2  0  0  0
 54127  1  0  0  0
 55 57  1  0  0  0
 55128  1  0  0  0
 56 69  2  0  0  0
 57 58  2  0  0  0
 57129  1  0  0  0
 58130  1  0  0  0
 59 60  1  0  0  0
 59 61  1  0  0  0
 59 62  1  0  0  0
 60131  1  0  0  0
 60132  1  0  0  0
 60133  1  0  0  0
 61134  1  0  0  0
 61135  1  0  0  0
 61136  1  0  0  0
 62137  1  0  0  0
 62138  1  0  0  0
 62139  1  0  0  0
 63 65  1  0  0  0
 63140  1  0  0  0
 63141  1  0  0  0
 63142  1  0  0  0
 64143  1  0  0  0
 65144  1  0  0  0
 68 82  1  0  0  0
 71 72  2  0  0  0
 71 84  1  0  0  0
 71145  1  0  0  0
 72 73  1  0  0  0
 72 78  1  0  0  0
 73 74  2  0  0  0
 73 75  1  0  0  0
 74 76  1  0  0  0
 74 84  1  0  0  0
 75146  1  0  0  0
 75147  1  0  0  0
 75148  1  0  0  0
 76149  1  0  0  0
 76150  1  0  0  0
 76151  1  0  0  0
 77 79  1  0  0  0
 77152  1  0  0  0
 77153  1  0  0  0
 77154  1  0  0  0
 78 81  1  0  0  0
 78155  1  0  0  0
 78156  1  0  0  0
 79 80  1  0  0  0
 79157  1  0  0  0
 79158  1  0  0  0
 80159  1  0  0  0
 80160  1  0  0  0
 80 83  1  0  0  0
 81 85  1  0  0  0
 81161  1  0  0  0
 81162  1  0  0  0
 82 83  1  0  0  0
 82163  1  0  0  0
 82164  1  0  0  0
 83 84  1  0  0  0
 83165  1  0  0  0
 85166  1  0  0  0
M  ISO  4   1 100  68 101  82 101  85 100
M  END
> <chiral flag>
0

> <version>
0

> <s_m_source_file>
/data/baiqing/PycharmProjects/Reinvent-master-3.2/result/LINK_invent/BTK/process_docking_weight1_custom_sum_contain_oxygen_bond_distance_aromatic_linkinvent_7_9_3/rearranged_h_0101.sdf

> <i_m_source_file_index>
9

> <r_mmod_Potential_Energy-OPLS-2005>
315.693786621094

> <r_mmod_Stretch_Energy-OPLS-2005>
155.292343139648

> <r_mmod_Bend_Energy-OPLS-2005>
275.554412841797

> <r_mmod_Torsional_Energy-OPLS-2005>
259.613006591797

> <r_mmod_Improper_Torsional_Energy-OPLS-2005>
8.13305473327637

> <r_mmod_Van_der_Waal_Energy-OPLS-2005>
104.906280517578

> <r_mmod_Electrostatic_Energy-OPLS-2005>
-382.022247314453

> <r_mmod_Solvation_Energy-OPLS-2005>
-210.936233520508

> <b_mmod_Minimization_Converged-OPLS-2005>
0

> <r_mmod_RMS_Derivative-OPLS-2005>
0.693798124790192

$$$$
9
                    3D
 Structure written by MMmdl.
164172  0  0  1  0            999 V2000
  -30.6481  -14.6788   20.4636 C   0  0  0  0  0  0
  -30.4218  -12.4133   19.4713 C   0  0  0  0  0  0
  -29.5028  -12.5044   18.2342 C   0  0  0  0  0  0
  -28.0262  -12.3480   18.6439 C   0  0  0  0  0  0
  -27.6435  -13.2332   19.8607 C   0  0  2  0  0  0
  -28.6893  -13.1468   20.9956 C   0  0  0  0  0  0
  -25.2502  -13.8204   20.5717 C   0  0  0  0  0  0
  -24.1794  -13.0445   20.9220 C   0  0  0  0  0  0
  -24.6387  -11.6923   20.8758 C   0  0  0  0  0  0
  -23.9070  -10.4296   21.0402 C   0  0  0  0  0  0
  -24.3622   -9.4206   21.9178 C   0  0  0  0  0  0
  -23.6297   -8.2245   22.0747 C   0  0  0  0  0  0
  -22.4280   -8.0280   21.3538 C   0  0  0  0  0  0
  -21.9918   -9.0253   20.4643 C   0  0  0  0  0  0
  -22.7245  -10.2133   20.3052 C   0  0  0  0  0  0
  -21.6857   -6.0735   22.5269 C   0  0  0  0  0  0
  -21.4017   -6.5637   23.8204 C   0  0  0  0  0  0
  -21.3664   -5.6789   24.9165 C   0  0  0  0  0  0
  -21.6048   -4.3053   24.7215 C   0  0  0  0  0  0
  -21.8818   -3.8145   23.4338 C   0  0  0  0  0  0
  -21.9198   -4.6964   22.3393 C   0  0  0  0  0  0
  -22.7811  -13.5215   21.1881 C   0  0  0  0  0  0
  -22.1664   -4.2147   21.0970 F   0  0  0  0  0  0
  -21.5636   -3.4534   25.7729 F   0  0  0  0  0  0
  -29.9990  -13.4707   20.4152 N   0  0  0  0  0  0
  -26.2940  -12.9420   20.3343 N   0  0  0  0  0  0
  -25.9322  -11.6559   20.5783 N   0  0  0  0  0  0
  -22.0482  -12.8182   22.0441 N   0  0  0  0  0  0
  -25.4180  -15.1922   20.4112 N   0  0  0  0  0  0
  -31.8314  -14.7615   20.1256 O   0  0  0  0  0  0
  -21.6649   -6.8872   21.4233 O   0  0  0  0  0  0
  -22.3483  -14.5519   20.6735 O   0  0  0  0  0  0
  -24.6288  -31.8574   23.2005 C   0  0  0  0  0  0
  -25.9126  -32.4759   23.8343 C   0  0  1  0  0  0
  -27.2219  -27.2895   20.1070 C   0  0  0  0  0  0
  -25.5940  -33.8565   24.2263 N   0  0  0  0  0  0
  -23.4224  -30.4831   21.5438 C   0  0  2  0  0  0
  -24.8664  -28.9346   20.1088 C   0  0  0  0  0  0
  -22.7464  -29.4630   22.4923 C   0  0  0  0  0  0
  -18.0280  -28.1383   22.8483 C   0  0  0  0  0  0
  -24.1498  -36.7288   23.2643 C   0  0  0  0  0  0
  -25.9678  -30.7773   21.3773 C   0  0  0  0  0  0
  -26.0378  -29.4041   20.7146 C   0  0  0  0  0  0
  -27.2131  -28.5916   20.7060 C   0  0  0  0  0  0
  -26.0180  -26.8759   19.4887 C   0  0  0  0  0  0
  -24.8610  -27.6772   19.4897 C   0  0  0  0  0  0
  -23.6366  -29.8184   20.1590 C   0  0  0  0  0  0
  -25.4120  -36.3071   24.0325 C   0  0  1  0  0  0
  -20.5881  -28.3690   23.1271 C   0  0  2  0  0  0
  -20.6776  -26.9410   22.5399 C   0  0  0  0  0  0
  -19.5761  -26.6375   21.5200 C   0  0  0  0  0  0
  -18.1937  -26.7927   22.1611 C   0  0  0  0  0  0
  -19.1531  -28.8852   23.2876 C   0  0  0  0  0  0
  -18.9458  -30.1455   23.8897 C   0  0  0  0  0  0
  -17.6460  -30.6590   24.0561 C   0  0  0  0  0  0
  -25.9057  -34.9440   23.5091 C   0  0  0  0  0  0
  -16.5352  -29.9084   23.6341 C   0  0  0  0  0  0
  -16.7265  -28.6497   23.0364 C   0  0  0  0  0  0
  -26.4494  -31.6587   25.0734 C   0  0  0  0  0  0
  -25.3719  -31.3719   26.1456 C   0  0  0  0  0  0
  -27.0339  -30.3006   24.6224 C   0  0  0  0  0  0
  -27.6049  -32.4334   25.7492 C   0  0  0  0  0  0
  -27.5583  -37.1805   24.8465 C   0  0  0  0  0  0
  -21.4174  -29.3054   22.3662 N   0  0  0  0  0  0
  -26.4297  -37.3764   23.9401 N   0  0  0  0  0  0
  -24.6919  -31.0565   22.0967 N   0  0  0  0  0  0
  -23.4170  -28.8170   23.3014 O   0  0  0  0  0  0
  -28.3573  -26.4553   20.1757 O   0  0  0  0  0  0
  -26.5616  -34.8912   22.4655 O   0  0  0  0  0  0
  -23.5442  -32.1390   23.7316 O   0  0  0  0  0  0
  -29.5631  -19.7534   20.0338 C   0  0  0  0  0  0
  -29.0434  -21.0552   21.9776 C   0  0  0  0  0  0
  -29.2111  -21.0431   20.5824 C   0  0  0  0  0  0
  -29.7824  -18.5801   20.8486 C   0  0  0  0  0  0
  -29.6398  -18.7927   22.2442 C   0  0  0  0  0  0
  -30.0987  -22.4794   18.6538 C   0  0  0  0  0  0
  -28.6575  -17.1847   23.9395 C   0  0  0  0  0  0
  -30.9701  -18.2005   24.3365 C   0  0  0  0  0  0
  -30.3208  -17.2239   20.2130 C   0  0  0  0  0  0
  -28.8021  -23.7964   20.4597 C   0  0  0  0  0  0
  -28.4332  -25.0905   19.5752 C   0  0  0  0  0  0
  -28.9916  -22.3655   19.7229 C   0  0  2  0  0  0
  -29.9443  -17.7201   23.2937 C   0  0  0  0  0  0
  -29.2404  -19.9782   22.7670 N   0  0  0  0  0  0
  -29.9027  -15.8258   20.6424 N   0  0  0  0  0  0
  -31.4653  -12.5163   19.1691 H   0  0  0  0  0  0
  -30.3443  -11.4317   19.9403 H   0  0  0  0  0  0
  -29.7706  -11.7383   17.5057 H   0  0  0  0  0  0
  -29.6458  -13.4647   17.7366 H   0  0  0  0  0  0
  -27.8595  -11.2963   18.8801 H   0  0  0  0  0  0
  -27.3747  -12.5734   17.7982 H   0  0  0  0  0  0
  -27.6440  -14.2609   19.4976 H   0  0  0  0  0  0
  -28.7034  -12.1489   21.4360 H   0  0  0  0  0  0
  -28.4374  -13.8341   21.8059 H   0  0  0  0  0  0
  -25.2768   -9.5683   22.4752 H   0  0  0  0  0  0
  -24.0017   -7.4627   22.7449 H   0  0  0  0  0  0
  -21.0863   -8.8762   19.8932 H   0  0  0  0  0  0
  -22.3702  -10.9673   19.6159 H   0  0  0  0  0  0
  -21.2005   -7.6142   23.9706 H   0  0  0  0  0  0
  -21.1494   -6.0517   25.9065 H   0  0  0  0  0  0
  -22.0599   -2.7611   23.2832 H   0  0  0  0  0  0
  -22.4141  -11.9841   22.4794 H   0  0  0  0  0  0
  -21.1088  -13.1156   22.2668 H   0  0  0  0  0  0
  -24.6482  -15.8435   20.5197 H   0  0  0  0  0  0
  -26.2613  -15.6339   20.0684 H   0  0  0  0  0  0
  -26.7195  -32.5409   23.1082 H   0  0  0  0  0  0
  -25.0115  -33.9715   25.0429 H   0  0  0  0  0  0
  -22.7192  -31.3064   21.4002 H   0  0  0  0  0  0
  -23.3759  -35.9627   23.3300 H   0  0  0  0  0  0
  -24.3595  -36.8910   22.2061 H   0  0  0  0  0  0
  -23.7259  -37.6489   23.6670 H   0  0  0  0  0  0
  -26.1101  -31.5407   20.6112 H   0  0  0  0  0  0
  -26.8446  -30.8192   22.0123 H   0  0  0  0  0  0
  -28.1122  -28.9475   21.1900 H   0  0  0  0  0  0
  -25.9079  -25.9163   19.0145 H   0  0  0  0  0  0
  -23.9605  -27.3064   19.0185 H   0  0  0  0  0  0
  -23.7552  -30.5968   19.4045 H   0  0  0  0  0  0
  -22.7550  -29.2511   19.8551 H   0  0  0  0  0  0
  -25.1299  -36.1917   25.0818 H   0  0  0  0  0  0
  -20.9980  -28.3268   24.1390 H   0  0  0  0  0  0
  -20.5671  -26.2290   23.3594 H   0  0  0  0  0  0
  -21.6647  -26.7441   22.1201 H   0  0  0  0  0  0
  -19.6923  -25.6274   21.1258 H   0  0  0  0  0  0
  -19.6720  -27.3165   20.6719 H   0  0  0  0  0  0
  -17.4201  -26.6670   21.4017 H   0  0  0  0  0  0
  -18.0352  -26.0056   22.8999 H   0  0  0  0  0  0
  -19.7932  -30.7274   24.2265 H   0  0  0  0  0  0
  -17.5014  -31.6276   24.5153 H   0  0  0  0  0  0
  -15.5357  -30.2996   23.7665 H   0  0  0  0  0  0
  -15.8657  -28.0818   22.7100 H   0  0  0  0  0  0
  -24.5937  -30.7006   25.7794 H   0  0  0  0  0  0
  -24.8856  -32.2870   26.4852 H   0  0  0  0  0  0
  -25.8055  -30.8942   27.0252 H   0  0  0  0  0  0
  -26.2916  -29.6752   24.1249 H   0  0  0  0  0  0
  -27.4004  -29.7275   25.4753 H   0  0  0  0  0  0
  -27.8801  -30.4264   23.9465 H   0  0  0  0  0  0
  -27.2664  -33.3658   26.2020 H   0  0  0  0  0  0
  -28.3870  -32.6858   25.0320 H   0  0  0  0  0  0
  -28.0697  -31.8491   26.5440 H   0  0  0  0  0  0
  -28.2590  -38.0110   24.7505 H   0  0  0  0  0  0
  -28.1081  -36.2637   24.6287 H   0  0  0  0  0  0
  -27.2297  -37.1446   25.8867 H   0  0  0  0  0  0
  -20.9335  -29.8776   21.6883 H   0  0  0  0  0  0
  -26.0170  -38.2837   24.1398 H   0  0  0  0  0  0
  -29.6994  -19.6581   18.9673 H   0  0  0  0  0  0
  -28.7564  -21.9583   22.4950 H   0  0  0  0  0  0
  -30.1523  -21.5966   18.0185 H   0  0  0  0  0  0
  -31.0789  -22.6217   19.1107 H   0  0  0  0  0  0
  -29.9272  -23.3132   17.9752 H   0  0  0  0  0  0
  -27.9970  -16.7560   23.1856 H   0  0  0  0  0  0
  -28.1099  -17.9791   24.4463 H   0  0  0  0  0  0
  -28.8736  -16.4070   24.6722 H   0  0  0  0  0  0
  -31.8923  -18.5245   23.8530 H   0  0  0  0  0  0
  -31.2258  -17.4014   25.0329 H   0  0  0  0  0  0
  -30.5900  -19.0373   24.9222 H   0  0  0  0  0  0
  -31.4064  -17.2868   20.3049 H   0  0  0  0  0  0
  -30.1335  -17.2757   19.1398 H   0  0  0  0  0  0
  -28.0173  -23.6978   21.2096 H   0  0  0  0  0  0
  -29.7137  -24.0169   21.0157 H   0  0  0  0  0  0
  -27.5690  -24.8278   18.9773 H   0  0  0  0  0  0
  -29.2202  -25.2030   18.8317 H   0  0  0  0  0  0
  -28.0576  -22.1845   19.1882 H   0  0  0  0  0  0
  -30.4363  -16.8802   22.8158 H   0  0  0  0  0  0
  -28.9298  -15.6893   20.8710 H   0  0  0  0  0  0
  1 25  1  0  0  0
  1 30  2  0  0  0
  1 85  1  0  0  0
  2  3  1  0  0  0
  2 25  1  0  0  0
  2 86  1  0  0  0
  2 87  1  0  0  0
  3  4  1  0  0  0
  3 88  1  0  0  0
  3 89  1  0  0  0
  4  5  1  0  0  0
  4 90  1  0  0  0
  4 91  1  0  0  0
  5  6  1  0  0  0
  5 26  1  0  0  0
  5 92  1  0  0  0
  6 25  1  0  0  0
  6 93  1  0  0  0
  6 94  1  0  0  0
  7  8  2  0  0  0
  7 26  1  0  0  0
  7 29  1  0  0  0
  8  9  1  0  0  0
  8 22  1  0  0  0
  9 10  1  0  0  0
  9 27  2  0  0  0
 10 11  2  0  0  0
 10 15  1  0  0  0
 11 12  1  0  0  0
 11 95  1  0  0  0
 12 13  2  0  0  0
 12 96  1  0  0  0
 13 14  1  0  0  0
 13 31  1  0  0  0
 14 15  2  0  0  0
 14 97  1  0  0  0
 15 98  1  0  0  0
 16 17  2  0  0  0
 16 21  1  0  0  0
 16 31  1  0  0  0
 17 18  1  0  0  0
 17 99  1  0  0  0
 18 19  2  0  0  0
 18100  1  0  0  0
 19 20  1  0  0  0
 19 24  1  0  0  0
 20 21  2  0  0  0
 20101  1  0  0  0
 21 23  1  0  0  0
 22 28  1  0  0  0
 22 32  2  0  0  0
 26 27  1  0  0  0
 28102  1  0  0  0
 28103  1  0  0  0
 29104  1  0  0  0
 29105  1  0  0  0
 33 34  1  0  0  0
 33 66  1  0  0  0
 33 70  2  0  0  0
 34 36  1  0  0  0
 34 59  1  0  0  0
 34106  1  0  0  0
 35 44  2  0  0  0
 35 45  1  0  0  0
 35 68  1  0  0  0
 36 56  1  0  0  0
 36107  1  0  0  0
 37 39  1  0  0  0
 37 47  1  0  0  0
 37 66  1  0  0  0
 37108  1  0  0  0
 38 43  2  0  0  0
 38 46  1  0  0  0
 38 47  1  0  0  0
 39 64  1  0  0  0
 39 67  2  0  0  0
 40 52  1  0  0  0
 40 53  2  0  0  0
 40 58  1  0  0  0
 41109  1  0  0  0
 41110  1  0  0  0
 41111  1  0  0  0
 41 48  1  0  0  0
 42 43  1  0  0  0
 42 66  1  0  0  0
 42112  1  0  0  0
 42113  1  0  0  0
 43 44  1  0  0  0
 44114  1  0  0  0
 45 46  2  0  0  0
 45115  1  0  0  0
 46116  1  0  0  0
 47117  1  0  0  0
 47118  1  0  0  0
 48 56  1  0  0  0
 48 65  1  0  0  0
 48119  1  0  0  0
 49 50  1  0  0  0
 49 53  1  0  0  0
 49 64  1  0  0  0
 49120  1  0  0  0
 50 51  1  0  0  0
 50121  1  0  0  0
 50122  1  0  0  0
 51 52  1  0  0  0
 51123  1  0  0  0
 51124  1  0  0  0
 52125  1  0  0  0
 52126  1  0  0  0
 53 54  1  0  0  0
 54 55  2  0  0  0
 54127  1  0  0  0
 55 57  1  0  0  0
 55128  1  0  0  0
 56 69  2  0  0  0
 57 58  2  0  0  0
 57129  1  0  0  0
 58130  1  0  0  0
 59 60  1  0  0  0
 59 61  1  0  0  0
 59 62  1  0  0  0
 60131  1  0  0  0
 60132  1  0  0  0
 60133  1  0  0  0
 61134  1  0  0  0
 61135  1  0  0  0
 61136  1  0  0  0
 62137  1  0  0  0
 62138  1  0  0  0
 62139  1  0  0  0
 63 65  1  0  0  0
 63140  1  0  0  0
 63141  1  0  0  0
 63142  1  0  0  0
 64143  1  0  0  0
 65144  1  0  0  0
 68 81  1  0  0  0
 71 73  2  0  0  0
 71 74  1  0  0  0
 71145  1  0  0  0
 72 73  1  0  0  0
 72 84  2  0  0  0
 72146  1  0  0  0
 73 82  1  0  0  0
 74 75  2  0  0  0
 74 79  1  0  0  0
 75 83  1  0  0  0
 75 84  1  0  0  0
 76147  1  0  0  0
 76148  1  0  0  0
 76149  1  0  0  0
 76 82  1  0  0  0
 77150  1  0  0  0
 77151  1  0  0  0
 77152  1  0  0  0
 77 83  1  0  0  0
 78 83  1  0  0  0
 78153  1  0  0  0
 78154  1  0  0  0
 78155  1  0  0  0
 79 85  1  0  0  0
 79156  1  0  0  0
 79157  1  0  0  0
 80 81  1  0  0  0
 80 82  1  0  0  0
 80158  1  0  0  0
 80159  1  0  0  0
 81160  1  0  0  0
 81161  1  0  0  0
 82162  1  0  0  0
 83163  1  0  0  0
 85164  1  0  0  0
M  ISO  4   1 100  68 101  81 101  85 100
M  END
> <chiral flag>
0

> <version>
0

> <s_m_source_file>
/data/baiqing/PycharmProjects/Reinvent-master-3.2/result/LINK_invent/BTK/process_docking_weight1_custom_sum_contain_oxygen_bond_distance_aromatic_linkinvent_7_9_3/rearranged_h_0101.sdf

> <i_m_source_file_index>
10

> <r_mmod_Potential_Energy-OPLS-2005>
-32.1601371765137

> <r_mmod_Stretch_Energy-OPLS-2005>
105.761390686035

> <r_mmod_Bend_Energy-OPLS-2005>
170.071044921875

> <r_mmod_Torsional_Energy-OPLS-2005>
193.197738647461

> <r_mmod_Improper_Torsional_Energy-OPLS-2005>
7.14621591567993

> <r_mmod_Van_der_Waal_Energy-OPLS-2005>
148.293914794922

> <r_mmod_Electrostatic_Energy-OPLS-2005>
-505.892272949219

> <r_mmod_Solvation_Energy-OPLS-2005>
-212.643371582031

> <b_mmod_Minimization_Converged-OPLS-2005>
0

> <r_mmod_RMS_Derivative-OPLS-2005>
1.41075026988983

$$$$
10
                    3D
 Structure written by MMmdl.
179187  0  0  1  0            999 V2000
  -30.6732  -14.4512   20.6347 C   0  0  0  0  0  0
  -30.4456  -12.3256   19.4129 C   0  0  0  0  0  0
  -29.5063  -12.5405   18.2052 C   0  0  0  0  0  0
  -28.0216  -12.4090   18.6065 C   0  0  0  0  0  0
  -27.6668  -13.2088   19.8877 C   0  0  2  0  0  0
  -28.7031  -12.9310   21.0015 C   0  0  0  0  0  0
  -25.2574  -13.8165   20.5666 C   0  0  0  0  0  0
  -24.1832  -13.0455   20.9178 C   0  0  0  0  0  0
  -24.6381  -11.6934   20.8734 C   0  0  0  0  0  0
  -23.9029  -10.4335   21.0423 C   0  0  0  0  0  0
  -24.3579   -9.4243   21.9191 C   0  0  0  0  0  0
  -23.6255   -8.2274   22.0756 C   0  0  0  0  0  0
  -22.4239   -8.0310   21.3554 C   0  0  0  0  0  0
  -21.9871   -9.0296   20.4657 C   0  0  0  0  0  0
  -22.7207  -10.2165   20.3087 C   0  0  0  0  0  0
  -21.6840   -6.0738   22.5275 C   0  0  0  0  0  0
  -21.4012   -6.5628   23.8214 C   0  0  0  0  0  0
  -21.3664   -5.6768   24.9169 C   0  0  0  0  0  0
  -21.6033   -4.3046   24.7206 C   0  0  0  0  0  0
  -21.8807   -3.8126   23.4338 C   0  0  0  0  0  0
  -21.9197   -4.6967   22.3402 C   0  0  0  0  0  0
  -22.7853  -13.5285   21.1828 C   0  0  0  0  0  0
  -22.1668   -4.2160   21.0980 F   0  0  0  0  0  0
  -21.5613   -3.4519   25.7717 F   0  0  0  0  0  0
  -30.0430  -13.2619   20.4726 N   0  0  0  0  0  0
  -26.3020  -12.9347   20.3346 N   0  0  0  0  0  0
  -25.9301  -11.6508   20.5712 N   0  0  0  0  0  0
  -22.0421  -12.8353   22.0375 N   0  0  0  0  0  0
  -25.4197  -15.1885   20.4092 N   0  0  0  0  0  0
  -31.7597  -14.7303   20.1125 O   0  0  0  0  0  0
  -21.6612   -6.8892   21.4255 O   0  0  0  0  0  0
  -22.3602  -14.5626   20.6710 O   0  0  0  0  0  0
  -24.6050  -31.8730   23.2155 C   0  0  0  0  0  0
  -25.8974  -32.4849   23.8430 C   0  0  1  0  0  0
  -27.2607  -27.4893   20.0635 C   0  0  0  0  0  0
  -25.5857  -33.8667   24.2358 N   0  0  0  0  0  0
  -23.3910  -30.4931   21.5571 C   0  0  2  0  0  0
  -24.8443  -28.9660   20.1179 C   0  0  0  0  0  0
  -22.7353  -29.4660   22.5052 C   0  0  0  0  0  0
  -18.0251  -28.1364   22.8496 C   0  0  0  0  0  0
  -24.1494  -36.7342   23.2634 C   0  0  0  0  0  0
  -25.9140  -30.8521   21.3637 C   0  0  0  0  0  0
  -25.9997  -29.4889   20.7119 C   0  0  0  0  0  0
  -27.2058  -28.7549   20.6879 C   0  0  0  0  0  0
  -26.0828  -26.9735   19.4727 C   0  0  0  0  0  0
  -24.8801  -27.7046   19.4993 C   0  0  0  0  0  0
  -23.5974  -29.8210   20.1727 C   0  0  0  0  0  0
  -25.4108  -36.3142   24.0340 C   0  0  1  0  0  0
  -20.5837  -28.3638   23.1362 C   0  0  2  0  0  0
  -20.6764  -26.9383   22.5438 C   0  0  0  0  0  0
  -19.5755  -26.6390   21.5212 C   0  0  0  0  0  0
  -18.1918  -26.7918   22.1598 C   0  0  0  0  0  0
  -19.1502  -28.8811   23.2931 C   0  0  0  0  0  0
  -18.9432  -30.1424   23.8946 C   0  0  0  0  0  0
  -17.6445  -30.6577   24.0567 C   0  0  0  0  0  0
  -25.9021  -34.9490   23.5149 C   0  0  0  0  0  0
  -16.5333  -29.9087   23.6320 C   0  0  0  0  0  0
  -16.7251  -28.6492   23.0351 C   0  0  0  0  0  0
  -26.4432  -31.6605   25.0732 C   0  0  0  0  0  0
  -25.3702  -31.3741   26.1493 C   0  0  0  0  0  0
  -27.0207  -30.3022   24.6083 C   0  0  0  0  0  0
  -27.6043  -32.4296   25.7475 C   0  0  0  0  0  0
  -27.5596  -37.1821   24.8447 C   0  0  0  0  0  0
  -21.4085  -29.3013   22.3781 N   0  0  0  0  0  0
  -26.4307  -37.3806   23.9397 N   0  0  0  0  0  0
  -24.6546  -31.0839   22.1049 N   0  0  0  0  0  0
  -23.4141  -28.8211   23.3089 O   0  0  0  0  0  0
  -28.4678  -26.8198   20.0252 O   0  0  0  0  0  0
  -26.5585  -34.8921   22.4704 O   0  0  0  0  0  0
  -23.5266  -32.1479   23.7577 O   0  0  0  0  0  0
  -29.7518  -19.8107   21.2792 C   0  0  0  0  0  0
  -29.6226  -21.0838   21.7687 C   0  0  0  0  0  0
  -28.6604  -21.0112   22.8352 C   0  0  0  0  0  0
  -28.1571  -19.7320   22.8656 C   0  0  0  0  0  0
  -27.6479  -23.3419   23.1582 C   0  0  0  0  0  0
  -29.4098  -22.4067   24.7854 C   0  0  0  0  0  0
  -25.6694  -19.8334   23.4199 C   0  0  0  0  0  0
  -27.3449  -19.0803   25.2079 C   0  0  0  0  0  0
  -30.4342  -25.4061   21.4442 C   0  0  0  0  0  0
  -30.3869  -22.3132   21.2711 C   0  0  0  0  0  0
  -28.8192  -17.5061   21.8095 C   0  0  0  0  0  0
  -30.0883  -16.8221   21.2440 C   0  0  0  0  0  0
  -28.4367  -25.4048   19.8354 C   0  0  0  0  0  0
  -28.2606  -22.1045   23.8134 C   0  0  0  0  0  0
  -27.0259  -19.1483   23.6987 C   0  0  0  0  0  0
  -29.7832  -24.7256   20.2118 C   0  0  2  0  0  0
  -29.5537  -23.1731   20.2814 C   0  0  1  0  0  0
  -28.9158  -18.9605   21.9860 N   0  0  0  0  0  0
  -29.9448  -15.3652   21.2914 N   0  0  0  0  0  0
  -29.7209  -22.6505   18.9731 O   0  0  0  0  0  0
  -31.4888  -12.4566   19.1133 H   0  0  0  0  0  0
  -30.3711  -11.3047   19.7837 H   0  0  0  0  0  0
  -29.7374  -11.8184   17.4221 H   0  0  0  0  0  0
  -29.6853  -13.5270   17.7698 H   0  0  0  0  0  0
  -27.8102  -11.3516   18.7551 H   0  0  0  0  0  0
  -27.3859  -12.7266   17.7785 H   0  0  0  0  0  0
  -27.7279  -14.2683   19.6371 H   0  0  0  0  0  0
  -28.6876  -11.8801   21.2934 H   0  0  0  0  0  0
  -28.4417  -13.4792   21.9094 H   0  0  0  0  0  0
  -25.2726   -9.5696   22.4779 H   0  0  0  0  0  0
  -23.9943   -7.4645   22.7473 H   0  0  0  0  0  0
  -21.0782   -8.8842   19.8980 H   0  0  0  0  0  0
  -22.3660  -10.9726   19.6205 H   0  0  0  0  0  0
  -21.2041   -7.6134   23.9739 H   0  0  0  0  0  0
  -21.1465   -6.0482   25.9064 H   0  0  0  0  0  0
  -22.0592   -2.7603   23.2827 H   0  0  0  0  0  0
  -22.3936  -12.0046   22.4902 H   0  0  0  0  0  0
  -21.1080  -13.1515   22.2560 H   0  0  0  0  0  0
  -24.6236  -15.8134   20.4762 H   0  0  0  0  0  0
  -26.2375  -15.6315   20.0117 H   0  0  0  0  0  0
  -26.7043  -32.5602   23.1212 H   0  0  0  0  0  0
  -24.9994  -33.9857   25.0495 H   0  0  0  0  0  0
  -22.6756  -31.3073   21.4212 H   0  0  0  0  0  0
  -23.3752  -35.9677   23.3291 H   0  0  0  0  0  0
  -24.3593  -36.8965   22.2048 H   0  0  0  0  0  0
  -23.7256  -37.6548   23.6654 H   0  0  0  0  0  0
  -26.0102  -31.6263   20.6008 H   0  0  0  0  0  0
  -26.8037  -30.9122   21.9776 H   0  0  0  0  0  0
  -28.0942  -29.1653   21.1487 H   0  0  0  0  0  0
  -26.0897  -26.0224   18.9620 H   0  0  0  0  0  0
  -23.9952  -27.3009   19.0282 H   0  0  0  0  0  0
  -23.6798  -30.5940   19.4082 H   0  0  0  0  0  0
  -22.7268  -29.2261   19.8903 H   0  0  0  0  0  0
  -25.1284  -36.2014   25.0834 H   0  0  0  0  0  0
  -20.9912  -28.3200   24.1490 H   0  0  0  0  0  0
  -20.5647  -26.2240   23.3608 H   0  0  0  0  0  0
  -21.6653  -26.7430   22.1257 H   0  0  0  0  0  0
  -19.6928  -25.6304   21.1242 H   0  0  0  0  0  0
  -19.6727  -27.3212   20.6750 H   0  0  0  0  0  0
  -17.4199  -26.6667   21.3987 H   0  0  0  0  0  0
  -18.0306  -26.0049   22.8971 H   0  0  0  0  0  0
  -19.7917  -30.7211   24.2355 H   0  0  0  0  0  0
  -17.5003  -31.6266   24.5154 H   0  0  0  0  0  0
  -15.5343  -30.3002   23.7625 H   0  0  0  0  0  0
  -15.8641  -28.0820   22.7075 H   0  0  0  0  0  0
  -24.5880  -30.7070   25.7853 H   0  0  0  0  0  0
  -24.8883  -32.2916   26.4888 H   0  0  0  0  0  0
  -25.8046  -30.8961   27.0283 H   0  0  0  0  0  0
  -26.2723  -29.6854   24.1094 H   0  0  0  0  0  0
  -27.3900  -29.7203   25.4539 H   0  0  0  0  0  0
  -27.8607  -30.4307   23.9254 H   0  0  0  0  0  0
  -27.2708  -33.3626   26.2038 H   0  0  0  0  0  0
  -28.3861  -32.6802   25.0289 H   0  0  0  0  0  0
  -28.0687  -31.8407   26.5398 H   0  0  0  0  0  0
  -28.2607  -38.0122   24.7489 H   0  0  0  0  0  0
  -28.1095  -36.2653   24.6263 H   0  0  0  0  0  0
  -27.2313  -37.1465   25.8849 H   0  0  0  0  0  0
  -20.9219  -29.8701   21.6991 H   0  0  0  0  0  0
  -26.0203  -38.2888   24.1396 H   0  0  0  0  0  0
  -30.3910  -19.4276   20.4932 H   0  0  0  0  0  0
  -26.8901  -23.0685   22.4235 H   0  0  0  0  0  0
  -28.3994  -23.9333   22.6563 H   0  0  0  0  0  0
  -27.1712  -23.9774   23.9049 H   0  0  0  0  0  0
  -29.7516  -21.4884   25.2664 H   0  0  0  0  0  0
  -29.0941  -23.0903   25.5723 H   0  0  0  0  0  0
  -30.2756  -22.8423   24.2902 H   0  0  0  0  0  0
  -25.4398  -19.8120   22.3538 H   0  0  0  0  0  0
  -25.6304  -20.8763   23.7275 H   0  0  0  0  0  0
  -24.8532  -19.3250   23.9352 H   0  0  0  0  0  0
  -28.2532  -18.5055   25.3894 H   0  0  0  0  0  0
  -26.5356  -18.5933   25.7522 H   0  0  0  0  0  0
  -27.4905  -20.0508   25.6794 H   0  0  0  0  0  0
  -30.6733  -26.4467   21.2177 H   0  0  0  0  0  0
  -31.3783  -24.9429   21.7280 H   0  0  0  0  0  0
  -29.7918  -25.4365   22.3207 H   0  0  0  0  0  0
  -31.3397  -22.0188   20.8267 H   0  0  0  0  0  0
  -30.6545  -22.8842   22.1525 H   0  0  0  0  0  0
  -28.6368  -17.0707   22.7939 H   0  0  0  0  0  0
  -27.9450  -17.2869   21.1927 H   0  0  0  0  0  0
  -30.9637  -17.1200   21.8192 H   0  0  0  0  0  0
  -30.2578  -17.1297   20.2097 H   0  0  0  0  0  0
  -27.6367  -24.9976   20.4596 H   0  0  0  0  0  0
  -28.1886  -25.1644   18.7952 H   0  0  0  0  0  0
  -27.4587  -21.7252   24.4355 H   0  0  0  0  0  0
  -26.8557  -18.1170   23.3993 H   0  0  0  0  0  0
  -30.4951  -24.9253   19.4076 H   0  0  0  0  0  0
  -28.5098  -23.0024   20.5457 H   0  0  0  0  0  0
  -29.1088  -15.0040   21.7232 H   0  0  0  0  0  0
  -29.4643  -21.7336   18.9964 H   0  0  0  0  0  0
  1 25  1  0  0  0
  1 30  2  0  0  0
  1 89  1  0  0  0
  2  3  1  0  0  0
  2 25  1  0  0  0
  2 91  1  0  0  0
  2 92  1  0  0  0
  3  4  1  0  0  0
  3 93  1  0  0  0
  3 94  1  0  0  0
  4  5  1  0  0  0
  4 95  1  0  0  0
  4 96  1  0  0  0
  5  6  1  0  0  0
  5 26  1  0  0  0
  5 97  1  0  0  0
  6 25  1  0  0  0
  6 98  1  0  0  0
  6 99  1  0  0  0
  7  8  2  0  0  0
  7 26  1  0  0  0
  7 29  1  0  0  0
  8  9  1  0  0  0
  8 22  1  0  0  0
  9 10  1  0  0  0
  9 27  2  0  0  0
 10 11  2  0  0  0
 10 15  1  0  0  0
 11 12  1  0  0  0
 11100  1  0  0  0
 12 13  2  0  0  0
 12101  1  0  0  0
 13 14  1  0  0  0
 13 31  1  0  0  0
 14 15  2  0  0  0
 14102  1  0  0  0
 15103  1  0  0  0
 16 17  2  0  0  0
 16 21  1  0  0  0
 16 31  1  0  0  0
 17 18  1  0  0  0
 17104  1  0  0  0
 18 19  2  0  0  0
 18105  1  0  0  0
 19 20  1  0  0  0
 19 24  1  0  0  0
 20 21  2  0  0  0
 20106  1  0  0  0
 21 23  1  0  0  0
 22 28  1  0  0  0
 22 32  2  0  0  0
 26 27  1  0  0  0
 28107  1  0  0  0
 28108  1  0  0  0
 29109  1  0  0  0
 29110  1  0  0  0
 33 34  1  0  0  0
 33 66  1  0  0  0
 33 70  2  0  0  0
 34 36  1  0  0  0
 34 59  1  0  0  0
 34111  1  0  0  0
 35 44  2  0  0  0
 35 45  1  0  0  0
 35 68  1  0  0  0
 36 56  1  0  0  0
 36112  1  0  0  0
 37 39  1  0  0  0
 37 47  1  0  0  0
 37 66  1  0  0  0
 37113  1  0  0  0
 38 43  2  0  0  0
 38 46  1  0  0  0
 38 47  1  0  0  0
 39 64  1  0  0  0
 39 67  2  0  0  0
 40 52  1  0  0  0
 40 53  2  0  0  0
 40 58  1  0  0  0
 41114  1  0  0  0
 41115  1  0  0  0
 41116  1  0  0  0
 41 48  1  0  0  0
 42 43  1  0  0  0
 42 66  1  0  0  0
 42117  1  0  0  0
 42118  1  0  0  0
 43 44  1  0  0  0
 44119  1  0  0  0
 45 46  2  0  0  0
 45120  1  0  0  0
 46121  1  0  0  0
 47122  1  0  0  0
 47123  1  0  0  0
 48 56  1  0  0  0
 48 65  1  0  0  0
 48124  1  0  0  0
 49 50  1  0  0  0
 49 53  1  0  0  0
 49 64  1  0  0  0
 49125  1  0  0  0
 50 51  1  0  0  0
 50126  1  0  0  0
 50127  1  0  0  0
 51 52  1  0  0  0
 51128  1  0  0  0
 51129  1  0  0  0
 52130  1  0  0  0
 52131  1  0  0  0
 53 54  1  0  0  0
 54 55  2  0  0  0
 54132  1  0  0  0
 55 57  1  0  0  0
 55133  1  0  0  0
 56 69  2  0  0  0
 57 58  2  0  0  0
 57134  1  0  0  0
 58135  1  0  0  0
 59 60  1  0  0  0
 59 61  1  0  0  0
 59 62  1  0  0  0
 60136  1  0  0  0
 60137  1  0  0  0
 60138  1  0  0  0
 61139  1  0  0  0
 61140  1  0  0  0
 61141  1  0  0  0
 62142  1  0  0  0
 62143  1  0  0  0
 62144  1  0  0  0
 63 65  1  0  0  0
 63145  1  0  0  0
 63146  1  0  0  0
 63147  1  0  0  0
 64148  1  0  0  0
 65149  1  0  0  0
 68 83  1  0  0  0
 71 72  2  0  0  0
 71 88  1  0  0  0
 71150  1  0  0  0
 72 73  1  0  0  0
 72 80  1  0  0  0
 73 74  2  0  0  0
 73 84  1  0  0  0
 74 85  1  0  0  0
 74 88  1  0  0  0
 75151  1  0  0  0
 75152  1  0  0  0
 75153  1  0  0  0
 75 84  1  0  0  0
 76 84  1  0  0  0
 76154  1  0  0  0
 76155  1  0  0  0
 76156  1  0  0  0
 77157  1  0  0  0
 77158  1  0  0  0
 77159  1  0  0  0
 77 85  1  0  0  0
 78 85  1  0  0  0
 78160  1  0  0  0
 78161  1  0  0  0
 78162  1  0  0  0
 79163  1  0  0  0
 79164  1  0  0  0
 79165  1  0  0  0
 79 86  1  0  0  0
 80 87  1  0  0  0
 80166  1  0  0  0
 80167  1  0  0  0
 81 82  1  0  0  0
 81 88  1  0  0  0
 81168  1  0  0  0
 81169  1  0  0  0
 82 89  1  0  0  0
 82170  1  0  0  0
 82171  1  0  0  0
 83 86  1  0  0  0
 83172  1  0  0  0
 83173  1  0  0  0
 84174  1  0  0  0
 85175  1  0  0  0
 86 87  1  0  0  0
 86176  1  0  0  0
 87 90  1  0  0  0
 87177  1  0  0  0
 89178  1  0  0  0
 90179  1  0  0  0
M  ISO  4   1 100  68 101  83 101  89 100
M  END
> <chiral flag>
0

> <version>
0

> <s_m_source_file>
/data/baiqing/PycharmProjects/Reinvent-master-3.2/result/LINK_invent/BTK/process_docking_weight1_custom_sum_contain_oxygen_bond_distance_aromatic_linkinvent_7_9_3/rearranged_h_0101.sdf

> <i_m_source_file_index>
11

> <r_mmod_Potential_Energy-OPLS-2005>
-92.5936584472656

> <r_mmod_Stretch_Energy-OPLS-2005>
40.2802238464355

> <r_mmod_Bend_Energy-OPLS-2005>
118.450584411621

> <r_mmod_Torsional_Energy-OPLS-2005>
247.765411376953

> <r_mmod_Improper_Torsional_Energy-OPLS-2005>
4.52277421951294

> <r_mmod_Van_der_Waal_Energy-OPLS-2005>
137.093002319336

> <r_mmod_Electrostatic_Energy-OPLS-2005>
-434.829711914062

> <r_mmod_Solvation_Energy-OPLS-2005>
-216.822662353516

> <b_mmod_Minimization_Converged-OPLS-2005>
0

> <r_mmod_RMS_Derivative-OPLS-2005>
5.62895107269287

$$$$
11
                    3D
 Structure written by MMmdl.
165173  0  0  1  0            999 V2000
  -30.5340  -14.9830   20.4105 C   0  0  0  0  0  0
  -30.4401  -12.6131   19.4868 C   0  0  0  0  0  0
  -29.5190  -12.5227   18.2492 C   0  0  0  0  0  0
  -28.0557  -12.2983   18.6749 C   0  0  0  0  0  0
  -27.6235  -13.2449   19.8253 C   0  0  2  0  0  0
  -28.6683  -13.3035   20.9587 C   0  0  0  0  0  0
  -25.2445  -13.8195   20.5682 C   0  0  0  0  0  0
  -24.1770  -13.0423   20.9221 C   0  0  0  0  0  0
  -24.6384  -11.6909   20.8746 C   0  0  0  0  0  0
  -23.9071  -10.4286   21.0392 C   0  0  0  0  0  0
  -24.3624   -9.4202   21.9169 C   0  0  0  0  0  0
  -23.6303   -8.2237   22.0746 C   0  0  0  0  0  0
  -22.4285   -8.0269   21.3538 C   0  0  0  0  0  0
  -21.9916   -9.0238   20.4642 C   0  0  0  0  0  0
  -22.7237  -10.2123   20.3048 C   0  0  0  0  0  0
  -21.6859   -6.0732   22.5274 C   0  0  0  0  0  0
  -21.4013   -6.5640   23.8204 C   0  0  0  0  0  0
  -21.3660   -5.6793   24.9166 C   0  0  0  0  0  0
  -21.6045   -4.3055   24.7218 C   0  0  0  0  0  0
  -21.8818   -3.8146   23.4342 C   0  0  0  0  0  0
  -21.9192   -4.6961   22.3399 C   0  0  0  0  0  0
  -22.7795  -13.5200   21.1876 C   0  0  0  0  0  0
  -22.1661   -4.2146   21.0978 F   0  0  0  0  0  0
  -21.5631   -3.4540   25.7734 F   0  0  0  0  0  0
  -29.9343  -13.7227   20.3455 N   0  0  0  0  0  0
  -26.2857  -12.9416   20.3190 N   0  0  0  0  0  0
  -25.9309  -11.6554   20.5720 N   0  0  0  0  0  0
  -22.0446  -12.8194   22.0435 N   0  0  0  0  0  0
  -25.4096  -15.1923   20.4099 N   0  0  0  0  0  0
  -31.7553  -15.0131   20.2110 O   0  0  0  0  0  0
  -21.6645   -6.8867   21.4235 O   0  0  0  0  0  0
  -22.3478  -14.5494   20.6699 O   0  0  0  0  0  0
  -24.6479  -31.8412   23.1861 C   0  0  0  0  0  0
  -25.9237  -32.4678   23.8262 C   0  0  1  0  0  0
  -27.2104  -27.1106   20.1478 C   0  0  0  0  0  0
  -25.5977  -33.8487   24.2173 N   0  0  0  0  0  0
  -23.4514  -30.4621   21.5308 C   0  0  2  0  0  0
  -24.8982  -28.8844   20.1060 C   0  0  0  0  0  0
  -22.7583  -29.4550   22.4839 C   0  0  0  0  0  0
  -18.0314  -28.1401   22.8478 C   0  0  0  0  0  0
  -24.1489  -36.7253   23.2637 C   0  0  0  0  0  0
  -26.0093  -30.7047   21.3900 C   0  0  0  0  0  0
  -26.0771  -29.3156   20.7283 C   0  0  0  0  0  0
  -27.2325  -28.4436   20.7325 C   0  0  0  0  0  0
  -26.0071  -26.7902   19.4807 C   0  0  0  0  0  0
  -24.8778  -27.6364   19.4671 C   0  0  0  0  0  0
  -23.6786  -29.7921   20.1496 C   0  0  0  0  0  0
  -25.4119  -36.3026   24.0315 C   0  0  1  0  0  0
  -20.5925  -28.3743   23.1220 C   0  0  2  0  0  0
  -20.6792  -26.9443   22.5402 C   0  0  0  0  0  0
  -19.5766  -26.6386   21.5212 C   0  0  0  0  0  0
  -18.1946  -26.7941   22.1620 C   0  0  0  0  0  0
  -19.1565  -28.8888   23.2842 C   0  0  0  0  0  0
  -18.9486  -30.1481   23.8874 C   0  0  0  0  0  0
  -17.6482  -30.6594   24.0568 C   0  0  0  0  0  0
  -25.9083  -34.9405   23.5054 C   0  0  0  0  0  0
  -16.5370  -29.9092   23.6337 C   0  0  0  0  0  0
  -16.7300  -28.6509   23.0361 C   0  0  0  0  0  0
  -26.4530  -31.6559   25.0727 C   0  0  0  0  0  0
  -25.3700  -31.3783   26.1417 C   0  0  0  0  0  0
  -27.0397  -30.2940   24.6367 C   0  0  0  0  0  0
  -27.6051  -32.4341   25.7504 C   0  0  0  0  0  0
  -27.5571  -37.1778   24.8465 C   0  0  0  0  0  0
  -21.4271  -29.3067   22.3585 N   0  0  0  0  0  0
  -26.4279  -37.3744   23.9413 N   0  0  0  0  0  0
  -24.7225  -31.0249   22.0906 N   0  0  0  0  0  0
  -23.4216  -28.8119   23.3013 O   0  0  0  0  0  0
  -28.2485  -26.1035   20.2302 O   0  0  0  0  0  0
  -26.5665  -34.8910   22.4634 O   0  0  0  0  0  0
  -23.5594  -32.1294   23.7072 O   0  0  0  0  0  0
  -30.5349  -20.4472   21.2364 C   0  0  0  0  0  0
  -29.1357  -18.8090   20.1830 C   0  0  0  0  0  0
  -29.3823  -20.2550   20.4609 C   0  0  0  0  0  0
  -31.3310  -19.3496   21.6469 C   0  0  0  0  0  0
  -29.9986  -17.6754   20.6168 C   0  0  0  0  0  0
  -34.2321  -22.7218   21.6116 C   0  0  0  0  0  0
  -28.4509  -21.5316   18.4575 C   0  0  0  0  0  0
  -27.0709  -21.3372   20.5235 C   0  0  0  0  0  0
  -32.5280  -19.5749   22.5652 C   0  0  0  0  0  0
  -28.8781  -23.1955   20.3948 C   0  0  0  0  0  0
  -33.8190  -21.2551   21.4715 C   0  0  0  0  0  0
  -27.9647  -24.5781   19.9927 C   0  0  0  0  0  0
  -28.4946  -21.5801   19.9959 C   0  0  0  0  0  0
  -31.0808  -18.0481   21.3383 N   0  0  0  0  0  0
  -29.7364  -16.1735   20.4092 N   0  0  0  0  0  0
  -33.0084  -20.9183   22.5863 O   0  0  0  0  0  0
  -31.4695  -12.7812   19.1661 H   0  0  0  0  0  0
  -30.4476  -11.6717   20.0383 H   0  0  0  0  0  0
  -29.8494  -11.7171   17.5916 H   0  0  0  0  0  0
  -29.5942  -13.4420   17.6660 H   0  0  0  0  0  0
  -27.9665  -11.2615   19.0012 H   0  0  0  0  0  0
  -27.3888  -12.4021   17.8185 H   0  0  0  0  0  0
  -27.5770  -14.2377   19.3778 H   0  0  0  0  0  0
  -28.7683  -12.3394   21.4602 H   0  0  0  0  0  0
  -28.3608  -14.0217   21.7204 H   0  0  0  0  0  0
  -25.2765   -9.5694   22.4738 H   0  0  0  0  0  0
  -24.0015   -7.4638   22.7469 H   0  0  0  0  0  0
  -21.0842   -8.8754   19.8963 H   0  0  0  0  0  0
  -22.3676  -10.9657   19.6165 H   0  0  0  0  0  0
  -21.2010   -7.6148   23.9706 H   0  0  0  0  0  0
  -21.1484   -6.0526   25.9070 H   0  0  0  0  0  0
  -22.0601   -2.7608   23.2841 H   0  0  0  0  0  0
  -22.4098  -11.9891   22.4869 H   0  0  0  0  0  0
  -21.1051  -13.1204   22.2616 H   0  0  0  0  0  0
  -24.6343  -15.8375   20.5154 H   0  0  0  0  0  0
  -26.2417  -15.6353   20.0452 H   0  0  0  0  0  0
  -26.7314  -32.5260   23.0998 H   0  0  0  0  0  0
  -25.0098  -33.9599   25.0305 H   0  0  0  0  0  0
  -22.7562  -31.2900   21.3754 H   0  0  0  0  0  0
  -23.3759  -35.9577   23.3282 H   0  0  0  0  0  0
  -24.3585  -36.8905   22.2056 H   0  0  0  0  0  0
  -23.7236  -37.6441   23.6689 H   0  0  0  0  0  0
  -26.1748  -31.4618   20.6219 H   0  0  0  0  0  0
  -26.8758  -30.7469   22.0388 H   0  0  0  0  0  0
  -28.1280  -28.7658   21.2463 H   0  0  0  0  0  0
  -25.9012  -25.8377   18.9834 H   0  0  0  0  0  0
  -23.9796  -27.3019   18.9657 H   0  0  0  0  0  0
  -23.8212  -30.5670   19.3956 H   0  0  0  0  0  0
  -22.7913  -29.2399   19.8348 H   0  0  0  0  0  0
  -25.1307  -36.1837   25.0808 H   0  0  0  0  0  0
  -21.0015  -28.3337   24.1343 H   0  0  0  0  0  0
  -20.5670  -26.2370   23.3633 H   0  0  0  0  0  0
  -21.6659  -26.7438   22.1206 H   0  0  0  0  0  0
  -19.6928  -25.6289   21.1266 H   0  0  0  0  0  0
  -19.6692  -27.3178   20.6726 H   0  0  0  0  0  0
  -17.4218  -26.6705   21.4020 H   0  0  0  0  0  0
  -18.0334  -26.0076   22.9007 H   0  0  0  0  0  0
  -19.7964  -30.7306   24.2216 H   0  0  0  0  0  0
  -17.5042  -31.6262   24.5191 H   0  0  0  0  0  0
  -15.5375  -30.2996   23.7662 H   0  0  0  0  0  0
  -15.8699  -28.0827   22.7084 H   0  0  0  0  0  0
  -24.5918  -30.7074   25.7763 H   0  0  0  0  0  0
  -24.8836  -32.2972   26.4707 H   0  0  0  0  0  0
  -25.7977  -30.9072   27.0281 H   0  0  0  0  0  0
  -26.3032  -29.6653   24.1350 H   0  0  0  0  0  0
  -27.3939  -29.7265   25.4987 H   0  0  0  0  0  0
  -27.8980  -30.4142   23.9751 H   0  0  0  0  0  0
  -27.2634  -33.3670   26.2005 H   0  0  0  0  0  0
  -28.3887  -32.6855   25.0344 H   0  0  0  0  0  0
  -28.0696  -31.8518   26.5476 H   0  0  0  0  0  0
  -28.2581  -38.0077   24.7508 H   0  0  0  0  0  0
  -28.1064  -36.2613   24.6278 H   0  0  0  0  0  0
  -27.2307  -37.1418   25.8871 H   0  0  0  0  0  0
  -20.9489  -29.8777   21.6755 H   0  0  0  0  0  0
  -26.0140  -38.2814   24.1408 H   0  0  0  0  0  0
  -30.8148  -21.4487   21.5327 H   0  0  0  0  0  0
  -28.2488  -18.5660   19.6134 H   0  0  0  0  0  0
  -34.8451  -23.0387   20.7677 H   0  0  0  0  0  0
  -34.8124  -22.8811   22.5211 H   0  0  0  0  0  0
  -33.3594  -23.3737   21.6542 H   0  0  0  0  0  0
  -28.0738  -20.5746   18.0945 H   0  0  0  0  0  0
  -29.4451  -21.6742   18.0319 H   0  0  0  0  0  0
  -27.8032  -22.3034   18.0429 H   0  0  0  0  0  0
  -26.6754  -20.3809   20.1809 H   0  0  0  0  0  0
  -26.3763  -22.1063   20.1891 H   0  0  0  0  0  0
  -27.0523  -21.3280   21.6131 H   0  0  0  0  0  0
  -33.3346  -18.8817   22.3205 H   0  0  0  0  0  0
  -32.2111  -19.3297   23.5798 H   0  0  0  0  0  0
  -28.9890  -23.2176   21.4786 H   0  0  0  0  0  0
  -29.8847  -23.3706   20.0149 H   0  0  0  0  0  0
  -34.7059  -20.6204   21.4461 H   0  0  0  0  0  0
  -33.2802  -21.1040   20.5349 H   0  0  0  0  0  0
  -26.9886  -24.4026   20.4442 H   0  0  0  0  0  0
  -27.7960  -24.5051   18.9186 H   0  0  0  0  0  0
  -28.7596  -15.9631   20.2925 H   0  0  0  0  0  0
  1 25  1  0  0  0
  1 30  2  0  0  0
  1 85  1  0  0  0
  2  3  1  0  0  0
  2 25  1  0  0  0
  2 87  1  0  0  0
  2 88  1  0  0  0
  3  4  1  0  0  0
  3 89  1  0  0  0
  3 90  1  0  0  0
  4  5  1  0  0  0
  4 91  1  0  0  0
  4 92  1  0  0  0
  5  6  1  0  0  0
  5 26  1  0  0  0
  5 93  1  0  0  0
  6 25  1  0  0  0
  6 94  1  0  0  0
  6 95  1  0  0  0
  7  8  2  0  0  0
  7 26  1  0  0  0
  7 29  1  0  0  0
  8  9  1  0  0  0
  8 22  1  0  0  0
  9 10  1  0  0  0
  9 27  2  0  0  0
 10 11  2  0  0  0
 10 15  1  0  0  0
 11 12  1  0  0  0
 11 96  1  0  0  0
 12 13  2  0  0  0
 12 97  1  0  0  0
 13 14  1  0  0  0
 13 31  1  0  0  0
 14 15  2  0  0  0
 14 98  1  0  0  0
 15 99  1  0  0  0
 16 17  2  0  0  0
 16 21  1  0  0  0
 16 31  1  0  0  0
 17 18  1  0  0  0
 17100  1  0  0  0
 18 19  2  0  0  0
 18101  1  0  0  0
 19 20  1  0  0  0
 19 24  1  0  0  0
 20 21  2  0  0  0
 20102  1  0  0  0
 21 23  1  0  0  0
 22 28  1  0  0  0
 22 32  2  0  0  0
 26 27  1  0  0  0
 28103  1  0  0  0
 28104  1  0  0  0
 29105  1  0  0  0
 29106  1  0  0  0
 33 34  1  0  0  0
 33 66  1  0  0  0
 33 70  2  0  0  0
 34 36  1  0  0  0
 34 59  1  0  0  0
 34107  1  0  0  0
 35 44  2  0  0  0
 35 45  1  0  0  0
 35 68  1  0  0  0
 36 56  1  0  0  0
 36108  1  0  0  0
 37 39  1  0  0  0
 37 47  1  0  0  0
 37 66  1  0  0  0
 37109  1  0  0  0
 38 43  2  0  0  0
 38 46  1  0  0  0
 38 47  1  0  0  0
 39 64  1  0  0  0
 39 67  2  0  0  0
 40 52  1  0  0  0
 40 53  2  0  0  0
 40 58  1  0  0  0
 41110  1  0  0  0
 41111  1  0  0  0
 41112  1  0  0  0
 41 48  1  0  0  0
 42 43  1  0  0  0
 42 66  1  0  0  0
 42113  1  0  0  0
 42114  1  0  0  0
 43 44  1  0  0  0
 44115  1  0  0  0
 45 46  2  0  0  0
 45116  1  0  0  0
 46117  1  0  0  0
 47118  1  0  0  0
 47119  1  0  0  0
 48 56  1  0  0  0
 48 65  1  0  0  0
 48120  1  0  0  0
 49 50  1  0  0  0
 49 53  1  0  0  0
 49 64  1  0  0  0
 49121  1  0  0  0
 50 51  1  0  0  0
 50122  1  0  0  0
 50123  1  0  0  0
 51 52  1  0  0  0
 51124  1  0  0  0
 51125  1  0  0  0
 52126  1  0  0  0
 52127  1  0  0  0
 53 54  1  0  0  0
 54 55  2  0  0  0
 54128  1  0  0  0
 55 57  1  0  0  0
 55129  1  0  0  0
 56 69  2  0  0  0
 57 58  2  0  0  0
 57130  1  0  0  0
 58131  1  0  0  0
 59 60  1  0  0  0
 59 61  1  0  0  0
 59 62  1  0  0  0
 60132  1  0  0  0
 60133  1  0  0  0
 60134  1  0  0  0
 61135  1  0  0  0
 61136  1  0  0  0
 61137  1  0  0  0
 62138  1  0  0  0
 62139  1  0  0  0
 62140  1  0  0  0
 63 65  1  0  0  0
 63141  1  0  0  0
 63142  1  0  0  0
 63143  1  0  0  0
 64144  1  0  0  0
 65145  1  0  0  0
 68 82  1  0  0  0
 71 73  2  0  0  0
 71 74  1  0  0  0
 71146  1  0  0  0
 72 73  1  0  0  0
 72 75  2  0  0  0
 72147  1  0  0  0
 73 83  1  0  0  0
 74 79  1  0  0  0
 74 84  2  0  0  0
 75 84  1  0  0  0
 75 85  1  0  0  0
 76 81  1  0  0  0
 76148  1  0  0  0
 76149  1  0  0  0
 76150  1  0  0  0
 77151  1  0  0  0
 77152  1  0  0  0
 77153  1  0  0  0
 77 83  1  0  0  0
 78 83  1  0  0  0
 78154  1  0  0  0
 78155  1  0  0  0
 78156  1  0  0  0
 79 86  1  0  0  0
 79157  1  0  0  0
 79158  1  0  0  0
 80 82  1  0  0  0
 80 83  1  0  0  0
 80159  1  0  0  0
 80160  1  0  0  0
 81 86  1  0  0  0
 81161  1  0  0  0
 81162  1  0  0  0
 82163  1  0  0  0
 82164  1  0  0  0
 85165  1  0  0  0
M  ISO  4   1 100  68 101  82 101  85 100
M  END
> <chiral flag>
0

> <version>
0

> <s_m_source_file>
/data/baiqing/PycharmProjects/Reinvent-master-3.2/result/LINK_invent/BTK/process_docking_weight1_custom_sum_contain_oxygen_bond_distance_aromatic_linkinvent_7_9_3/rearranged_h_0101.sdf

> <i_m_source_file_index>
12

> <r_mmod_Potential_Energy-OPLS-2005>
359.470428466797

> <r_mmod_Stretch_Energy-OPLS-2005>
282.708953857422

> <r_mmod_Bend_Energy-OPLS-2005>
260.830322265625

> <r_mmod_Torsional_Energy-OPLS-2005>
226.716171264648

> <r_mmod_Improper_Torsional_Energy-OPLS-2005>
7.19674634933472

> <r_mmod_Van_der_Waal_Energy-OPLS-2005>
130.188049316406

> <r_mmod_Electrostatic_Energy-OPLS-2005>
-540.736267089844

> <r_mmod_Solvation_Energy-OPLS-2005>
-227.702407836914

> <b_mmod_Minimization_Converged-OPLS-2005>
0

> <r_mmod_RMS_Derivative-OPLS-2005>
1.80303382873535

$$$$
12
                    3D
 Structure written by MMmdl.
166174  0  0  1  0            999 V2000
  -30.6561  -14.7055   20.5350 C   0  0  0  0  0  0
  -30.4277  -12.4448   19.4789 C   0  0  0  0  0  0
  -29.5096  -12.5199   18.2384 C   0  0  0  0  0  0
  -28.0335  -12.3481   18.6430 C   0  0  0  0  0  0
  -27.6455  -13.2301   19.8587 C   0  0  2  0  0  0
  -28.6843  -13.1253   20.9933 C   0  0  0  0  0  0
  -25.2521  -13.8202   20.5690 C   0  0  0  0  0  0
  -24.1804  -13.0446   20.9185 C   0  0  0  0  0  0
  -24.6393  -11.6922   20.8738 C   0  0  0  0  0  0
  -23.9077  -10.4301   21.0412 C   0  0  0  0  0  0
  -24.3634   -9.4215   21.9188 C   0  0  0  0  0  0
  -23.6309   -8.2247   22.0757 C   0  0  0  0  0  0
  -22.4290   -8.0284   21.3548 C   0  0  0  0  0  0
  -21.9925   -9.0258   20.4648 C   0  0  0  0  0  0
  -22.7249  -10.2138   20.3060 C   0  0  0  0  0  0
  -21.6856   -6.0746   22.5287 C   0  0  0  0  0  0
  -21.4014   -6.5653   23.8221 C   0  0  0  0  0  0
  -21.3657   -5.6805   24.9181 C   0  0  0  0  0  0
  -21.6044   -4.3067   24.7230 C   0  0  0  0  0  0
  -21.8818   -3.8158   23.4352 C   0  0  0  0  0  0
  -21.9193   -4.6975   22.3409 C   0  0  0  0  0  0
  -22.7824  -13.5223   21.1852 C   0  0  0  0  0  0
  -22.1653   -4.2161   21.0986 F   0  0  0  0  0  0
  -21.5634   -3.4550   25.7742 F   0  0  0  0  0  0
  -29.9943  -13.4956   20.4349 N   0  0  0  0  0  0
  -26.2951  -12.9403   20.3303 N   0  0  0  0  0  0
  -25.9326  -11.6546   20.5757 N   0  0  0  0  0  0
  -22.0481  -12.8204   22.0410 N   0  0  0  0  0  0
  -25.4249  -15.1923   20.4139 N   0  0  0  0  0  0
  -31.7931  -14.8024   20.0600 O   0  0  0  0  0  0
  -21.6645   -6.8888   21.4250 O   0  0  0  0  0  0
  -22.3500  -14.5527   20.6708 O   0  0  0  0  0  0
  -24.6310  -31.8570   23.2013 C   0  0  0  0  0  0
  -25.9142  -32.4761   23.8350 C   0  0  1  0  0  0
  -27.2090  -27.2689   20.1192 C   0  0  0  0  0  0
  -25.5943  -33.8566   24.2273 N   0  0  0  0  0  0
  -23.4259  -30.4824   21.5454 C   0  0  2  0  0  0
  -24.8702  -28.9374   20.1064 C   0  0  0  0  0  0
  -22.7498  -29.4615   22.4926 C   0  0  0  0  0  0
  -18.0290  -28.1391   22.8486 C   0  0  0  0  0  0
  -24.1488  -36.7285   23.2637 C   0  0  0  0  0  0
  -25.9728  -30.7698   21.3829 C   0  0  0  0  0  0
  -26.0416  -29.3949   20.7224 C   0  0  0  0  0  0
  -27.2129  -28.5708   20.7236 C   0  0  0  0  0  0
  -26.0187  -26.8936   19.4513 C   0  0  0  0  0  0
  -24.8634  -27.6944   19.4612 C   0  0  0  0  0  0
  -23.6416  -29.8230   20.1590 C   0  0  0  0  0  0
  -25.4117  -36.3076   24.0324 C   0  0  1  0  0  0
  -20.5893  -28.3699   23.1273 C   0  0  2  0  0  0
  -20.6783  -26.9418   22.5409 C   0  0  0  0  0  0
  -19.5755  -26.6386   21.5217 C   0  0  0  0  0  0
  -18.1931  -26.7935   22.1624 C   0  0  0  0  0  0
  -19.1544  -28.8865   23.2872 C   0  0  0  0  0  0
  -18.9466  -30.1468   23.8887 C   0  0  0  0  0  0
  -17.6466  -30.6589   24.0568 C   0  0  0  0  0  0
  -25.9057  -34.9441   23.5099 C   0  0  0  0  0  0
  -16.5359  -29.9086   23.6335 C   0  0  0  0  0  0
  -16.7279  -28.6507   23.0352 C   0  0  0  0  0  0
  -26.4506  -31.6583   25.0736 C   0  0  0  0  0  0
  -25.3726  -31.3732   26.1455 C   0  0  0  0  0  0
  -27.0357  -30.3000   24.6227 C   0  0  0  0  0  0
  -27.6067  -32.4322   25.7503 C   0  0  0  0  0  0
  -27.5582  -37.1799   24.8465 C   0  0  0  0  0  0
  -21.4207  -29.3045   22.3661 N   0  0  0  0  0  0
  -26.4294  -37.3772   23.9409 N   0  0  0  0  0  0
  -24.6958  -31.0540   22.0992 N   0  0  0  0  0  0
  -23.4202  -28.8146   23.3015 O   0  0  0  0  0  0
  -28.2904  -26.3594   20.2044 O   0  0  0  0  0  0
  -26.5622  -34.8913   22.4663 O   0  0  0  0  0  0
  -23.5462  -32.1404   23.7299 O   0  0  0  0  0  0
  -28.8077  -19.0381   21.7712 C   0  0  0  0  0  0
  -29.6083  -19.8031   19.8776 C   0  0  0  0  0  0
  -29.5679  -18.6260   20.6293 C   0  0  0  0  0  0
  -28.4068  -20.3564   21.6623 C   0  0  0  0  0  0
  -28.3988  -21.7487   23.7494 C   0  0  0  0  0  0
  -26.3751  -20.3619   23.1684 C   0  0  0  0  0  0
  -30.4147  -23.9646   20.3346 C   0  0  0  0  0  0
  -29.6066  -15.9647   22.3428 C   0  0  0  0  0  0
  -30.2475  -17.2189   20.2661 C   0  0  0  0  0  0
  -28.5592  -22.2303   19.8295 C   0  0  0  0  0  0
  -28.0491  -24.9110   19.8824 C   0  0  0  0  0  0
  -27.5581  -21.1655   22.6062 C   0  0  0  0  0  0
  -28.9132  -23.6775   20.4666 C   0  0  2  0  0  0
  -28.9026  -20.8822   20.4696 N   0  0  0  0  0  0
  -29.9757  -15.8609   20.9283 N   0  0  0  0  0  0
  -31.4704  -12.5541   19.1765 H   0  0  0  0  0  0
  -30.3627  -11.4601   19.9446 H   0  0  0  0  0  0
  -29.7886  -11.7538   17.5139 H   0  0  0  0  0  0
  -29.6446  -13.4802   17.7377 H   0  0  0  0  0  0
  -27.8794  -11.2964   18.8859 H   0  0  0  0  0  0
  -27.3803  -12.5617   17.7962 H   0  0  0  0  0  0
  -27.6537  -14.2617   19.5054 H   0  0  0  0  0  0
  -28.7163  -12.1119   21.3949 H   0  0  0  0  0  0
  -28.3852  -13.7597   21.8236 H   0  0  0  0  0  0
  -25.2785   -9.5686   22.4754 H   0  0  0  0  0  0
  -24.0025   -7.4639   22.7472 H   0  0  0  0  0  0
  -21.0862   -8.8774   19.8947 H   0  0  0  0  0  0
  -22.3714  -10.9676   19.6164 H   0  0  0  0  0  0
  -21.1998   -7.6161   23.9731 H   0  0  0  0  0  0
  -21.1480   -6.0532   25.9086 H   0  0  0  0  0  0
  -22.0598   -2.7620   23.2852 H   0  0  0  0  0  0
  -22.4118  -11.9868   22.4787 H   0  0  0  0  0  0
  -21.1096  -13.1211   22.2627 H   0  0  0  0  0  0
  -24.6693  -15.8561   20.5439 H   0  0  0  0  0  0
  -26.2958  -15.6305   20.1408 H   0  0  0  0  0  0
  -26.7209  -32.5405   23.1091 H   0  0  0  0  0  0
  -25.0101  -33.9714   25.0427 H   0  0  0  0  0  0
  -22.7221  -31.3051   21.4032 H   0  0  0  0  0  0
  -23.3758  -35.9610   23.3296 H   0  0  0  0  0  0
  -24.3580  -36.8914   22.2054 H   0  0  0  0  0  0
  -23.7234  -37.6478   23.6670 H   0  0  0  0  0  0
  -26.1136  -31.5310   20.6140 H   0  0  0  0  0  0
  -26.8499  -30.8155   22.0164 H   0  0  0  0  0  0
  -28.1052  -28.9090   21.2311 H   0  0  0  0  0  0
  -25.9387  -25.9572   18.9207 H   0  0  0  0  0  0
  -23.9687  -27.3451   18.9641 H   0  0  0  0  0  0
  -23.7648  -30.6035   19.4071 H   0  0  0  0  0  0
  -22.7594  -29.2581   19.8526 H   0  0  0  0  0  0
  -25.1296  -36.1928   25.0816 H   0  0  0  0  0  0
  -20.9986  -28.3281   24.1395 H   0  0  0  0  0  0
  -20.5694  -26.2307   23.3612 H   0  0  0  0  0  0
  -21.6648  -26.7447   22.1196 H   0  0  0  0  0  0
  -19.6914  -25.6294   21.1249 H   0  0  0  0  0  0
  -19.6693  -27.3196   20.6746 H   0  0  0  0  0  0
  -17.4203  -26.6695   21.4021 H   0  0  0  0  0  0
  -18.0324  -26.0074   22.9016 H   0  0  0  0  0  0
  -19.7939  -30.7292   24.2249 H   0  0  0  0  0  0
  -17.5013  -31.6264   24.5172 H   0  0  0  0  0  0
  -15.5357  -30.2985   23.7660 H   0  0  0  0  0  0
  -15.8680  -28.0824   22.7072 H   0  0  0  0  0  0
  -24.5913  -30.7067   25.7784 H   0  0  0  0  0  0
  -24.8901  -32.2897   26.4862 H   0  0  0  0  0  0
  -25.8037  -30.8926   27.0245 H   0  0  0  0  0  0
  -26.2948  -29.6743   24.1237 H   0  0  0  0  0  0
  -27.4025  -29.7265   25.4749 H   0  0  0  0  0  0
  -27.8830  -30.4277   23.9485 H   0  0  0  0  0  0
  -27.2692  -33.3636   26.2060 H   0  0  0  0  0  0
  -28.3884  -32.6857   25.0329 H   0  0  0  0  0  0
  -28.0729  -31.8458   26.5431 H   0  0  0  0  0  0
  -28.2594  -38.0100   24.7515 H   0  0  0  0  0  0
  -28.1082  -36.2632   24.6290 H   0  0  0  0  0  0
  -27.2296  -37.1445   25.8865 H   0  0  0  0  0  0
  -20.9395  -29.8775   21.6871 H   0  0  0  0  0  0
  -26.0173  -38.2844   24.1414 H   0  0  0  0  0  0
  -28.5436  -18.4231   22.6183 H   0  0  0  0  0  0
  -30.0695  -19.9635   18.9114 H   0  0  0  0  0  0
  -29.2307  -22.3414   23.3695 H   0  0  0  0  0  0
  -28.8188  -20.9592   24.3735 H   0  0  0  0  0  0
  -27.7979  -22.3956   24.3894 H   0  0  0  0  0  0
  -25.7458  -19.9760   22.3661 H   0  0  0  0  0  0
  -25.7448  -20.9857   23.8032 H   0  0  0  0  0  0
  -26.7070  -19.5148   23.7688 H   0  0  0  0  0  0
  -31.0080  -23.1718   20.7902 H   0  0  0  0  0  0
  -30.6775  -24.9010   20.8278 H   0  0  0  0  0  0
  -30.7096  -24.0463   19.2880 H   0  0  0  0  0  0
  -28.5347  -16.1347   22.4441 H   0  0  0  0  0  0
  -30.1422  -16.7844   22.8227 H   0  0  0  0  0  0
  -29.8573  -15.0712   22.9177 H   0  0  0  0  0  0
  -31.3215  -17.3934   20.3482 H   0  0  0  0  0  0
  -30.0755  -17.0717   19.1989 H   0  0  0  0  0  0
  -28.9606  -22.2101   18.8157 H   0  0  0  0  0  0
  -27.4789  -22.2079   19.6805 H   0  0  0  0  0  0
  -27.0352  -24.6609   20.1972 H   0  0  0  0  0  0
  -28.0530  -24.8327   18.7944 H   0  0  0  0  0  0
  -27.1157  -22.0009   22.0646 H   0  0  0  0  0  0
  -28.6892  -23.6376   21.5306 H   0  0  0  0  0  0
  1 25  1  0  0  0
  1 30  2  0  0  0
  1 85  1  0  0  0
  2  3  1  0  0  0
  2 25  1  0  0  0
  2 86  1  0  0  0
  2 87  1  0  0  0
  3  4  1  0  0  0
  3 88  1  0  0  0
  3 89  1  0  0  0
  4  5  1  0  0  0
  4 90  1  0  0  0
  4 91  1  0  0  0
  5  6  1  0  0  0
  5 26  1  0  0  0
  5 92  1  0  0  0
  6 25  1  0  0  0
  6 93  1  0  0  0
  6 94  1  0  0  0
  7  8  2  0  0  0
  7 26  1  0  0  0
  7 29  1  0  0  0
  8  9  1  0  0  0
  8 22  1  0  0  0
  9 10  1  0  0  0
  9 27  2  0  0  0
 10 11  2  0  0  0
 10 15  1  0  0  0
 11 12  1  0  0  0
 11 95  1  0  0  0
 12 13  2  0  0  0
 12 96  1  0  0  0
 13 14  1  0  0  0
 13 31  1  0  0  0
 14 15  2  0  0  0
 14 97  1  0  0  0
 15 98  1  0  0  0
 16 17  2  0  0  0
 16 21  1  0  0  0
 16 31  1  0  0  0
 17 18  1  0  0  0
 17 99  1  0  0  0
 18 19  2  0  0  0
 18100  1  0  0  0
 19 20  1  0  0  0
 19 24  1  0  0  0
 20 21  2  0  0  0
 20101  1  0  0  0
 21 23  1  0  0  0
 22 28  1  0  0  0
 22 32  2  0  0  0
 26 27  1  0  0  0
 28102  1  0  0  0
 28103  1  0  0  0
 29104  1  0  0  0
 29105  1  0  0  0
 33 34  1  0  0  0
 33 66  1  0  0  0
 33 70  2  0  0  0
 34 36  1  0  0  0
 34 59  1  0  0  0
 34106  1  0  0  0
 35 44  2  0  0  0
 35 45  1  0  0  0
 35 68  1  0  0  0
 36 56  1  0  0  0
 36107  1  0  0  0
 37 39  1  0  0  0
 37 47  1  0  0  0
 37 66  1  0  0  0
 37108  1  0  0  0
 38 43  2  0  0  0
 38 46  1  0  0  0
 38 47  1  0  0  0
 39 64  1  0  0  0
 39 67  2  0  0  0
 40 52  1  0  0  0
 40 53  2  0  0  0
 40 58  1  0  0  0
 41109  1  0  0  0
 41110  1  0  0  0
 41111  1  0  0  0
 41 48  1  0  0  0
 42 43  1  0  0  0
 42 66  1  0  0  0
 42112  1  0  0  0
 42113  1  0  0  0
 43 44  1  0  0  0
 44114  1  0  0  0
 45 46  2  0  0  0
 45115  1  0  0  0
 46116  1  0  0  0
 47117  1  0  0  0
 47118  1  0  0  0
 48 56  1  0  0  0
 48 65  1  0  0  0
 48119  1  0  0  0
 49 50  1  0  0  0
 49 53  1  0  0  0
 49 64  1  0  0  0
 49120  1  0  0  0
 50 51  1  0  0  0
 50121  1  0  0  0
 50122  1  0  0  0
 51 52  1  0  0  0
 51123  1  0  0  0
 51124  1  0  0  0
 52125  1  0  0  0
 52126  1  0  0  0
 53 54  1  0  0  0
 54 55  2  0  0  0
 54127  1  0  0  0
 55 57  1  0  0  0
 55128  1  0  0  0
 56 69  2  0  0  0
 57 58  2  0  0  0
 57129  1  0  0  0
 58130  1  0  0  0
 59 60  1  0  0  0
 59 61  1  0  0  0
 59 62  1  0  0  0
 60131  1  0  0  0
 60132  1  0  0  0
 60133  1  0  0  0
 61134  1  0  0  0
 61135  1  0  0  0
 61136  1  0  0  0
 62137  1  0  0  0
 62138  1  0  0  0
 62139  1  0  0  0
 63 65  1  0  0  0
 63140  1  0  0  0
 63141  1  0  0  0
 63142  1  0  0  0
 64143  1  0  0  0
 65144  1  0  0  0
 68 81  1  0  0  0
 71 73  1  0  0  0
 71 74  2  0  0  0
 71145  1  0  0  0
 72 73  2  0  0  0
 72 84  1  0  0  0
 72146  1  0  0  0
 73 79  1  0  0  0
 74 82  1  0  0  0
 74 84  1  0  0  0
 75147  1  0  0  0
 75148  1  0  0  0
 75149  1  0  0  0
 75 82  1  0  0  0
 76 82  1  0  0  0
 76150  1  0  0  0
 76151  1  0  0  0
 76152  1  0  0  0
 77153  1  0  0  0
 77154  1  0  0  0
 77155  1  0  0  0
 77 83  1  0  0  0
 78 85  1  0  0  0
 78156  1  0  0  0
 78157  1  0  0  0
 78158  1  0  0  0
 79 85  1  0  0  0
 79159  1  0  0  0
 79160  1  0  0  0
 80 83  1  0  0  0
 80 84  1  0  0  0
 80161  1  0  0  0
 80162  1  0  0  0
 81 83  1  0  0  0
 81163  1  0  0  0
 81164  1  0  0  0
 82165  1  0  0  0
 83166  1  0  0  0
M  ISO  4   1 100  68 101  81 101  85 100
M  END
> <chiral flag>
0

> <version>
0

> <s_m_source_file>
/data/baiqing/PycharmProjects/Reinvent-master-3.2/result/LINK_invent/BTK/process_docking_weight1_custom_sum_contain_oxygen_bond_distance_aromatic_linkinvent_7_9_3/rearranged_h_0101.sdf

> <i_m_source_file_index>
13

> <r_mmod_Potential_Energy-OPLS-2005>
263.598571777344

> <r_mmod_Stretch_Energy-OPLS-2005>
121.052192687988

> <r_mmod_Bend_Energy-OPLS-2005>
190.019332885742

> <r_mmod_Torsional_Energy-OPLS-2005>
276.456817626953

> <r_mmod_Improper_Torsional_Energy-OPLS-2005>
9.40949058532715

> <r_mmod_Van_der_Waal_Energy-OPLS-2005>
124.185607910156

> <r_mmod_Electrostatic_Energy-OPLS-2005>
-339.549774169922

> <r_mmod_Solvation_Energy-OPLS-2005>
-192.161575317383

> <b_mmod_Minimization_Converged-OPLS-2005>
0

> <r_mmod_RMS_Derivative-OPLS-2005>
1.06524288654327

$$$$
13
                    3D
 Structure written by MMmdl.
163171  0  0  1  0            999 V2000
  -30.6012  -14.7387   20.4750 C   0  0  0  0  0  0
  -30.4331  -12.4582   19.4534 C   0  0  0  0  0  0
  -29.5015  -12.5005   18.2223 C   0  0  0  0  0  0
  -28.0303  -12.3204   18.6461 C   0  0  0  0  0  0
  -27.6386  -13.2240   19.8456 C   0  0  2  0  0  0
  -28.6861  -13.1520   20.9755 C   0  0  0  0  0  0
  -25.2512  -13.8170   20.5696 C   0  0  0  0  0  0
  -24.1796  -13.0429   20.9207 C   0  0  0  0  0  0
  -24.6374  -11.6901   20.8745 C   0  0  0  0  0  0
  -23.9048  -10.4287   21.0404 C   0  0  0  0  0  0
  -24.3605   -9.4205   21.9181 C   0  0  0  0  0  0
  -23.6288   -8.2236   22.0752 C   0  0  0  0  0  0
  -22.4273   -8.0271   21.3541 C   0  0  0  0  0  0
  -21.9902   -9.0240   20.4644 C   0  0  0  0  0  0
  -22.7219  -10.2124   20.3054 C   0  0  0  0  0  0
  -21.6854   -6.0727   22.5277 C   0  0  0  0  0  0
  -21.4014   -6.5638   23.8205 C   0  0  0  0  0  0
  -21.3657   -5.6793   24.9172 C   0  0  0  0  0  0
  -21.6046   -4.3056   24.7226 C   0  0  0  0  0  0
  -21.8819   -3.8144   23.4348 C   0  0  0  0  0  0
  -21.9194   -4.6956   22.3403 C   0  0  0  0  0  0
  -22.7825  -13.5220   21.1871 C   0  0  0  0  0  0
  -22.1667   -4.2142   21.0979 F   0  0  0  0  0  0
  -21.5625   -3.4543   25.7740 F   0  0  0  0  0  0
  -29.9795  -13.5150   20.3839 N   0  0  0  0  0  0
  -26.2919  -12.9361   20.3268 N   0  0  0  0  0  0
  -25.9300  -11.6512   20.5744 N   0  0  0  0  0  0
  -22.0479  -12.8207   22.0427 N   0  0  0  0  0  0
  -25.4219  -15.1891   20.4109 N   0  0  0  0  0  0
  -31.8014  -14.8424   20.2075 O   0  0  0  0  0  0
  -21.6642   -6.8865   21.4235 O   0  0  0  0  0  0
  -22.3514  -14.5528   20.6719 O   0  0  0  0  0  0
  -24.6305  -31.8545   23.1974 C   0  0  0  0  0  0
  -25.9133  -32.4750   23.8311 C   0  0  1  0  0  0
  -27.2229  -27.2740   20.1345 C   0  0  0  0  0  0
  -25.5926  -33.8549   24.2235 N   0  0  0  0  0  0
  -23.4273  -30.4760   21.5399 C   0  0  2  0  0  0
  -24.8746  -28.9171   20.1152 C   0  0  0  0  0  0
  -22.7496  -29.4594   22.4906 C   0  0  0  0  0  0
  -18.0293  -28.1392   22.8481 C   0  0  0  0  0  0
  -24.1491  -36.7277   23.2647 C   0  0  0  0  0  0
  -25.9717  -30.7713   21.3744 C   0  0  0  0  0  0
  -26.0457  -29.3940   20.7182 C   0  0  0  0  0  0
  -27.2272  -28.5872   20.7101 C   0  0  0  0  0  0
  -26.0299  -26.8515   19.5156 C   0  0  0  0  0  0
  -24.8696  -27.6526   19.5037 C   0  0  0  0  0  0
  -23.6460  -29.8054   20.1579 C   0  0  0  0  0  0
  -25.4120  -36.3063   24.0326 C   0  0  1  0  0  0
  -20.5897  -28.3696   23.1269 C   0  0  2  0  0  0
  -20.6780  -26.9413   22.5406 C   0  0  0  0  0  0
  -19.5758  -26.6385   21.5207 C   0  0  0  0  0  0
  -18.1937  -26.7936   22.1616 C   0  0  0  0  0  0
  -19.1549  -28.8863   23.2869 C   0  0  0  0  0  0
  -18.9475  -30.1467   23.8887 C   0  0  0  0  0  0
  -17.6475  -30.6595   24.0567 C   0  0  0  0  0  0
  -25.9059  -34.9439   23.5085 C   0  0  0  0  0  0
  -16.5363  -29.9090   23.6344 C   0  0  0  0  0  0
  -16.7280  -28.6511   23.0355 C   0  0  0  0  0  0
  -26.4504  -31.6593   25.0713 C   0  0  0  0  0  0
  -25.3722  -31.3735   26.1431 C   0  0  0  0  0  0
  -27.0377  -30.3023   24.6209 C   0  0  0  0  0  0
  -27.6053  -32.4359   25.7472 C   0  0  0  0  0  0
  -27.5579  -37.1790   24.8468 C   0  0  0  0  0  0
  -21.4205  -29.3041   22.3657 N   0  0  0  0  0  0
  -26.4286  -37.3769   23.9419 N   0  0  0  0  0  0
  -24.6950  -31.0522   22.0936 N   0  0  0  0  0  0
  -23.4194  -28.8131   23.3006 O   0  0  0  0  0  0
  -28.3301  -26.4040   20.1250 O   0  0  0  0  0  0
  -26.5638  -34.8923   22.4658 O   0  0  0  0  0  0
  -23.5457  -32.1358   23.7285 O   0  0  0  0  0  0
  -30.3072  -19.1933   19.3318 C   0  0  0  0  0  0
  -29.2129  -19.7601   21.1418 C   0  0  0  0  0  0
  -29.8489  -18.6553   20.5708 C   0  0  0  0  0  0
  -30.0836  -20.5590   19.2595 C   0  0  0  0  0  0
  -31.0374  -20.8393   16.9229 C   0  0  0  0  0  0
  -31.8196  -22.3140   18.7979 C   0  0  0  0  0  0
  -27.5252  -23.3424   18.9090 C   0  0  0  0  0  0
  -30.2100  -17.2357   21.2147 C   0  0  0  0  0  0
  -28.9251  -22.3612   20.8797 C   0  0  0  0  0  0
  -28.1959  -25.0359   20.7224 C   0  0  0  0  0  0
  -30.6262  -21.5245   18.2369 C   0  0  0  0  0  0
  -28.6082  -23.6647   19.9528 C   0  0  2  0  0  0
  -29.3467  -20.9593   20.3852 N   0  0  0  0  0  0
  -29.8156  -15.8597   20.6949 N   0  0  0  0  0  0
  -31.4708  -12.5977   19.1450 H   0  0  0  0  0  0
  -30.3902  -11.4810   19.9366 H   0  0  0  0  0  0
  -29.7812  -11.7227   17.5104 H   0  0  0  0  0  0
  -29.6201  -13.4509   17.6997 H   0  0  0  0  0  0
  -27.8956  -11.2723   18.9175 H   0  0  0  0  0  0
  -27.3654  -12.5014   17.8006 H   0  0  0  0  0  0
  -27.6331  -14.2447   19.4629 H   0  0  0  0  0  0
  -28.7281  -12.1501   21.4053 H   0  0  0  0  0  0
  -28.4216  -13.8242   21.7933 H   0  0  0  0  0  0
  -25.2748   -9.5689   22.4759 H   0  0  0  0  0  0
  -24.0001   -7.4630   22.7472 H   0  0  0  0  0  0
  -21.0835   -8.8745   19.8951 H   0  0  0  0  0  0
  -22.3666  -10.9659   19.6168 H   0  0  0  0  0  0
  -21.2008   -7.6148   23.9704 H   0  0  0  0  0  0
  -21.1481   -6.0530   25.9071 H   0  0  0  0  0  0
  -22.0601   -2.7606   23.2852 H   0  0  0  0  0  0
  -22.4116  -11.9869   22.4800 H   0  0  0  0  0  0
  -21.1098  -13.1221   22.2649 H   0  0  0  0  0  0
  -24.6527  -15.8413   20.5177 H   0  0  0  0  0  0
  -26.2644  -15.6281   20.0629 H   0  0  0  0  0  0
  -26.7197  -32.5405   23.1047 H   0  0  0  0  0  0
  -25.0069  -33.9690   25.0377 H   0  0  0  0  0  0
  -22.7245  -31.2986   21.3912 H   0  0  0  0  0  0
  -23.3757  -35.9602   23.3300 H   0  0  0  0  0  0
  -24.3578  -36.8913   22.2063 H   0  0  0  0  0  0
  -23.7239  -37.6472   23.6680 H   0  0  0  0  0  0
  -26.1144  -31.5317   20.6058 H   0  0  0  0  0  0
  -26.8484  -30.8172   22.0086 H   0  0  0  0  0  0
  -28.1302  -28.9506   21.1789 H   0  0  0  0  0  0
  -25.9890  -25.8793   19.0454 H   0  0  0  0  0  0
  -23.9709  -27.2802   19.0317 H   0  0  0  0  0  0
  -23.7725  -30.5795   19.4003 H   0  0  0  0  0  0
  -22.7643  -29.2381   19.8535 H   0  0  0  0  0  0
  -25.1300  -36.1893   25.0816 H   0  0  0  0  0  0
  -20.9994  -28.3273   24.1387 H   0  0  0  0  0  0
  -20.5681  -26.2301   23.3606 H   0  0  0  0  0  0
  -21.6650  -26.7436   22.1199 H   0  0  0  0  0  0
  -19.6921  -25.6290   21.1252 H   0  0  0  0  0  0
  -19.6710  -27.3186   20.6729 H   0  0  0  0  0  0
  -17.4206  -26.6687   21.4016 H   0  0  0  0  0  0
  -18.0338  -26.0075   22.9012 H   0  0  0  0  0  0
  -19.7951  -30.7291   24.2240 H   0  0  0  0  0  0
  -17.5032  -31.6278   24.5164 H   0  0  0  0  0  0
  -15.5368  -30.2987   23.7697 H   0  0  0  0  0  0
  -15.8673  -28.0843   22.7062 H   0  0  0  0  0  0
  -24.5889  -30.7101   25.7745 H   0  0  0  0  0  0
  -24.8927  -32.2905   26.4864 H   0  0  0  0  0  0
  -25.8035  -30.8894   27.0202 H   0  0  0  0  0  0
  -26.2971  -29.6732   24.1265 H   0  0  0  0  0  0
  -27.4107  -29.7322   25.4724 H   0  0  0  0  0  0
  -27.8809  -30.4309   23.9424 H   0  0  0  0  0  0
  -27.2650  -33.3666   26.2020 H   0  0  0  0  0  0
  -28.3855  -32.6922   25.0293 H   0  0  0  0  0  0
  -28.0723  -31.8513   26.5404 H   0  0  0  0  0  0
  -28.2586  -38.0097   24.7539 H   0  0  0  0  0  0
  -28.1089  -36.2634   24.6262 H   0  0  0  0  0  0
  -27.2310  -37.1403   25.8874 H   0  0  0  0  0  0
  -20.9392  -29.8746   21.6847 H   0  0  0  0  0  0
  -26.0158  -38.2836   24.1445 H   0  0  0  0  0  0
  -30.8874  -18.6401   18.6063 H   0  0  0  0  0  0
  -28.7369  -19.8247   22.1120 H   0  0  0  0  0  0
  -30.2045  -20.2872   16.4865 H   0  0  0  0  0  0
  -31.8619  -20.1418   17.0724 H   0  0  0  0  0  0
  -31.3637  -21.5722   16.1847 H   0  0  0  0  0  0
  -31.5525  -22.8680   19.6968 H   0  0  0  0  0  0
  -32.1958  -23.0335   18.0702 H   0  0  0  0  0  0
  -32.6415  -21.6480   19.0629 H   0  0  0  0  0  0
  -27.7224  -22.4160   18.3715 H   0  0  0  0  0  0
  -27.4466  -24.1431   18.1736 H   0  0  0  0  0  0
  -26.5492  -23.2294   19.3819 H   0  0  0  0  0  0
  -29.8335  -17.2718   22.2378 H   0  0  0  0  0  0
  -31.2949  -17.2356   21.3299 H   0  0  0  0  0  0
  -28.0391  -22.2037   21.4958 H   0  0  0  0  0  0
  -29.6931  -22.6652   21.5917 H   0  0  0  0  0  0
  -28.8199  -25.0842   21.6152 H   0  0  0  0  0  0
  -27.1869  -24.9142   21.1194 H   0  0  0  0  0  0
  -29.8522  -22.2340   17.9628 H   0  0  0  0  0  0
  -29.5262  -23.9051   19.4217 H   0  0  0  0  0  0
  -28.8286  -15.6639   20.7549 H   0  0  0  0  0  0
  1 25  1  0  0  0
  1 30  2  0  0  0
  1 84  1  0  0  0
  2  3  1  0  0  0
  2 25  1  0  0  0
  2 85  1  0  0  0
  2 86  1  0  0  0
  3  4  1  0  0  0
  3 87  1  0  0  0
  3 88  1  0  0  0
  4  5  1  0  0  0
  4 89  1  0  0  0
  4 90  1  0  0  0
  5  6  1  0  0  0
  5 26  1  0  0  0
  5 91  1  0  0  0
  6 25  1  0  0  0
  6 92  1  0  0  0
  6 93  1  0  0  0
  7  8  2  0  0  0
  7 26  1  0  0  0
  7 29  1  0  0  0
  8  9  1  0  0  0
  8 22  1  0  0  0
  9 10  1  0  0  0
  9 27  2  0  0  0
 10 11  2  0  0  0
 10 15  1  0  0  0
 11 12  1  0  0  0
 11 94  1  0  0  0
 12 13  2  0  0  0
 12 95  1  0  0  0
 13 14  1  0  0  0
 13 31  1  0  0  0
 14 15  2  0  0  0
 14 96  1  0  0  0
 15 97  1  0  0  0
 16 17  2  0  0  0
 16 21  1  0  0  0
 16 31  1  0  0  0
 17 18  1  0  0  0
 17 98  1  0  0  0
 18 19  2  0  0  0
 18 99  1  0  0  0
 19 20  1  0  0  0
 19 24  1  0  0  0
 20 21  2  0  0  0
 20100  1  0  0  0
 21 23  1  0  0  0
 22 28  1  0  0  0
 22 32  2  0  0  0
 26 27  1  0  0  0
 28101  1  0  0  0
 28102  1  0  0  0
 29103  1  0  0  0
 29104  1  0  0  0
 33 34  1  0  0  0
 33 66  1  0  0  0
 33 70  2  0  0  0
 34 36  1  0  0  0
 34 59  1  0  0  0
 34105  1  0  0  0
 35 44  2  0  0  0
 35 45  1  0  0  0
 35 68  1  0  0  0
 36 56  1  0  0  0
 36106  1  0  0  0
 37 39  1  0  0  0
 37 47  1  0  0  0
 37 66  1  0  0  0
 37107  1  0  0  0
 38 43  2  0  0  0
 38 46  1  0  0  0
 38 47  1  0  0  0
 39 64  1  0  0  0
 39 67  2  0  0  0
 40 52  1  0  0  0
 40 53  2  0  0  0
 40 58  1  0  0  0
 41108  1  0  0  0
 41109  1  0  0  0
 41110  1  0  0  0
 41 48  1  0  0  0
 42 43  1  0  0  0
 42 66  1  0  0  0
 42111  1  0  0  0
 42112  1  0  0  0
 43 44  1  0  0  0
 44113  1  0  0  0
 45 46  2  0  0  0
 45114  1  0  0  0
 46115  1  0  0  0
 47116  1  0  0  0
 47117  1  0  0  0
 48 56  1  0  0  0
 48 65  1  0  0  0
 48118  1  0  0  0
 49 50  1  0  0  0
 49 53  1  0  0  0
 49 64  1  0  0  0
 49119  1  0  0  0
 50 51  1  0  0  0
 50120  1  0  0  0
 50121  1  0  0  0
 51 52  1  0  0  0
 51122  1  0  0  0
 51123  1  0  0  0
 52124  1  0  0  0
 52125  1  0  0  0
 53 54  1  0  0  0
 54 55  2  0  0  0
 54126  1  0  0  0
 55 57  1  0  0  0
 55127  1  0  0  0
 56 69  2  0  0  0
 57 58  2  0  0  0
 57128  1  0  0  0
 58129  1  0  0  0
 59 60  1  0  0  0
 59 61  1  0  0  0
 59 62  1  0  0  0
 60130  1  0  0  0
 60131  1  0  0  0
 60132  1  0  0  0
 61133  1  0  0  0
 61134  1  0  0  0
 61135  1  0  0  0
 62136  1  0  0  0
 62137  1  0  0  0
 62138  1  0  0  0
 63 65  1  0  0  0
 63139  1  0  0  0
 63140  1  0  0  0
 63141  1  0  0  0
 64142  1  0  0  0
 65143  1  0  0  0
 68 80  1  0  0  0
 71 73  1  0  0  0
 71 74  2  0  0  0
 71144  1  0  0  0
 72 73  2  0  0  0
 72 83  1  0  0  0
 72145  1  0  0  0
 73 78  1  0  0  0
 74 81  1  0  0  0
 74 83  1  0  0  0
 75146  1  0  0  0
 75147  1  0  0  0
 75148  1  0  0  0
 75 81  1  0  0  0
 76 81  1  0  0  0
 76149  1  0  0  0
 76150  1  0  0  0
 76151  1  0  0  0
 77152  1  0  0  0
 77153  1  0  0  0
 77154  1  0  0  0
 77 82  1  0  0  0
 78 84  1  0  0  0
 78155  1  0  0  0
 78156  1  0  0  0
 79 82  1  0  0  0
 79 83  1  0  0  0
 79157  1  0  0  0
 79158  1  0  0  0
 80 82  1  0  0  0
 80159  1  0  0  0
 80160  1  0  0  0
 81161  1  0  0  0
 82162  1  0  0  0
 84163  1  0  0  0
M  ISO  4   1 100  68 101  80 101  84 100
M  END
> <chiral flag>
0

> <version>
0

> <s_m_source_file>
/data/baiqing/PycharmProjects/Reinvent-master-3.2/result/LINK_invent/BTK/process_docking_weight1_custom_sum_contain_oxygen_bond_distance_aromatic_linkinvent_7_9_3/rearranged_h_0101.sdf

> <i_m_source_file_index>
14

> <r_mmod_Potential_Energy-OPLS-2005>
127.548820495605

> <r_mmod_Stretch_Energy-OPLS-2005>
119.200469970703

> <r_mmod_Bend_Energy-OPLS-2005>
193.384582519531

> <r_mmod_Torsional_Energy-OPLS-2005>
253.999633789062

> <r_mmod_Improper_Torsional_Energy-OPLS-2005>
7.57529067993164

> <r_mmod_Van_der_Waal_Energy-OPLS-2005>
109.933067321777

> <r_mmod_Electrostatic_Energy-OPLS-2005>
-428.274566650391

> <r_mmod_Solvation_Energy-OPLS-2005>
-208.362869262695

> <b_mmod_Minimization_Converged-OPLS-2005>
0

> <r_mmod_RMS_Derivative-OPLS-2005>
1.13544869422913

$$$$
14
                    3D
 Structure written by MMmdl.
174182  0  0  1  0            999 V2000
  -30.6051  -14.6230   20.5477 C   0  0  0  0  0  0
  -30.4423  -12.3987   19.4573 C   0  0  0  0  0  0
  -29.5176  -12.5323   18.2261 C   0  0  0  0  0  0
  -28.0416  -12.3611   18.6333 C   0  0  0  0  0  0
  -27.6594  -13.2086   19.8742 C   0  0  2  0  0  0
  -28.6943  -13.0274   21.0080 C   0  0  0  0  0  0
  -25.2544  -13.7963   20.5558 C   0  0  0  0  0  0
  -24.1830  -13.0286   20.9200 C   0  0  0  0  0  0
  -24.6372  -11.6792   20.8727 C   0  0  0  0  0  0
  -23.9049  -10.4188   21.0404 C   0  0  0  0  0  0
  -24.3575   -9.4130   21.9203 C   0  0  0  0  0  0
  -23.6234   -8.2191   22.0824 C   0  0  0  0  0  0
  -22.4242   -8.0221   21.3599 C   0  0  0  0  0  0
  -21.9863   -9.0196   20.4736 C   0  0  0  0  0  0
  -22.7209  -10.2045   20.3095 C   0  0  0  0  0  0
  -21.6811   -6.0695   22.5274 C   0  0  0  0  0  0
  -21.3979   -6.5618   23.8199 C   0  0  0  0  0  0
  -21.3673   -5.6799   24.9196 C   0  0  0  0  0  0
  -21.6082   -4.3059   24.7254 C   0  0  0  0  0  0
  -21.8830   -3.8121   23.4370 C   0  0  0  0  0  0
  -21.9181   -4.6930   22.3420 C   0  0  0  0  0  0
  -22.7868  -13.5162   21.1874 C   0  0  0  0  0  0
  -22.1681   -4.2102   21.0998 F   0  0  0  0  0  0
  -21.5642   -3.4571   25.7785 F   0  0  0  0  0  0
  -30.0118  -13.3930   20.4634 N   0  0  0  0  0  0
  -26.3011  -12.9196   20.3348 N   0  0  0  0  0  0
  -25.9283  -11.6357   20.5682 N   0  0  0  0  0  0
  -22.0442  -12.8152   22.0396 N   0  0  0  0  0  0
  -25.4163  -15.1527   20.3649 N   0  0  0  0  0  0
  -31.7298  -14.8329   20.0853 O   0  0  0  0  0  0
  -21.6619   -6.8817   21.4235 O   0  0  0  0  0  0
  -22.3580  -14.5410   20.6678 O   0  0  0  0  0  0
  -24.6160  -31.8669   23.2008 C   0  0  0  0  0  0
  -25.9064  -32.4785   23.8316 C   0  0  1  0  0  0
  -27.2419  -27.3640   20.0952 C   0  0  0  0  0  0
  -25.5853  -33.8588   24.2224 N   0  0  0  0  0  0
  -23.4171  -30.4898   21.5313 C   0  0  2  0  0  0
  -24.8697  -28.9343   20.1175 C   0  0  0  0  0  0
  -22.7457  -29.4720   22.4879 C   0  0  0  0  0  0
  -18.0349  -28.1458   22.8321 C   0  0  0  0  0  0
  -24.1508  -36.7303   23.2633 C   0  0  0  0  0  0
  -25.9508  -30.8031   21.3751 C   0  0  0  0  0  0
  -26.0319  -29.4344   20.7156 C   0  0  0  0  0  0
  -27.2207  -28.6513   20.6995 C   0  0  0  0  0  0
  -26.0632  -26.9181   19.4530 C   0  0  0  0  0  0
  -24.8845  -27.6838   19.4774 C   0  0  0  0  0  0
  -23.6341  -29.8014   20.1588 C   0  0  0  0  0  0
  -25.4134  -36.3106   24.0330 C   0  0  1  0  0  0
  -20.5913  -28.3879   23.1391 C   0  0  2  0  0  0
  -20.6643  -26.9461   22.6180 C   0  0  0  0  0  0
  -19.6090  -26.6351   21.5605 C   0  0  0  0  0  0
  -18.2092  -26.7981   22.1567 C   0  0  0  0  0  0
  -19.1553  -28.8994   23.2760 C   0  0  0  0  0  0
  -18.9411  -30.1554   23.8754 C   0  0  0  0  0  0
  -17.6430  -30.6669   24.0378 C   0  0  0  0  0  0
  -25.9050  -34.9449   23.5110 C   0  0  0  0  0  0
  -16.5391  -29.9191   23.6066 C   0  0  0  0  0  0
  -16.7326  -28.6615   23.0057 C   0  0  0  0  0  0
  -26.4439  -31.6578   25.0660 C   0  0  0  0  0  0
  -25.3613  -31.3661   26.1325 C   0  0  0  0  0  0
  -27.0240  -30.3011   24.6033 C   0  0  0  0  0  0
  -27.6040  -32.4288   25.7424 C   0  0  0  0  0  0
  -27.5613  -37.1771   24.8465 C   0  0  0  0  0  0
  -21.4261  -29.2787   22.3398 N   0  0  0  0  0  0
  -26.4322  -37.3785   23.9409 N   0  0  0  0  0  0
  -24.6774  -31.0684   22.0949 N   0  0  0  0  0  0
  -23.4083  -28.8649   23.3312 O   0  0  0  0  0  0
  -28.3921  -26.5764   20.1481 O   0  0  0  0  0  0
  -26.5678  -34.8914   22.4702 O   0  0  0  0  0  0
  -23.5359  -32.1546   23.7357 O   0  0  0  0  0  0
  -29.5115  -20.5470   20.6529 C   0  0  0  0  0  0
  -27.7398  -21.6176   19.3973 C   0  0  0  0  0  0
  -29.0209  -21.6958   19.9597 C   0  0  0  0  0  0
  -28.6467  -19.4610   20.9841 C   0  0  0  0  0  0
  -26.8473  -20.5787   19.7333 C   0  0  0  0  0  0
  -27.2427  -19.6623   20.7618 C   0  0  0  0  0  0
  -25.3255  -19.1011   18.3031 C   0  0  0  0  0  0
  -25.2419  -21.5585   17.9224 C   0  0  0  0  0  0
  -25.0564  -18.3232   21.4196 C   0  0  0  0  0  0
  -25.6819  -20.4585   22.6111 C   0  0  0  0  0  0
  -29.8722  -22.9439   19.6533 C   0  0  0  0  0  0
  -29.2260  -18.1463   21.6198 C   0  0  0  0  0  0
  -29.4973  -24.3100   20.3429 C   0  0  0  0  0  0
  -29.8657  -17.1013   20.6124 C   0  0  0  0  0  0
  -28.3636  -25.1812   19.7074 C   0  0  0  0  0  0
  -25.4927  -20.4736   18.9956 C   0  0  0  0  0  0
  -26.2179  -19.2316   21.8495 C   0  0  0  0  0  0
  -29.7991  -15.6418   20.9841 N   0  0  0  0  0  0
  -31.4804  -12.5434   19.1561 H   0  0  0  0  0  0
  -30.3891  -11.3902   19.8725 H   0  0  0  0  0  0
  -29.7717  -11.7881   17.4689 H   0  0  0  0  0  0
  -29.6782  -13.5043   17.7544 H   0  0  0  0  0  0
  -27.8916  -11.3010   18.8471 H   0  0  0  0  0  0
  -27.3812  -12.5991   17.7990 H   0  0  0  0  0  0
  -27.6840  -14.2554   19.5601 H   0  0  0  0  0  0
  -28.7005  -11.9914   21.3479 H   0  0  0  0  0  0
  -28.4224  -13.6126   21.8864 H   0  0  0  0  0  0
  -25.2677   -9.5589   22.4855 H   0  0  0  0  0  0
  -23.9932   -7.4560   22.7484 H   0  0  0  0  0  0
  -21.0847   -8.8708   19.8993 H   0  0  0  0  0  0
  -22.3668  -10.9607   19.6259 H   0  0  0  0  0  0
  -21.1972   -7.6122   23.9682 H   0  0  0  0  0  0
  -21.1489   -6.0557   25.9089 H   0  0  0  0  0  0
  -22.0590   -2.7569   23.2915 H   0  0  0  0  0  0
  -22.4004  -11.9805   22.4780 H   0  0  0  0  0  0
  -21.1131  -13.1345   22.2640 H   0  0  0  0  0  0
  -24.6296  -15.7941   20.4190 H   0  0  0  0  0  0
  -26.2576  -15.5674   19.9808 H   0  0  0  0  0  0
  -26.7119  -32.5527   23.1065 H   0  0  0  0  0  0
  -24.9866  -33.9728   25.0278 H   0  0  0  0  0  0
  -22.7161  -31.3101   21.3620 H   0  0  0  0  0  0
  -23.3780  -35.9635   23.3338 H   0  0  0  0  0  0
  -24.3569  -36.8888   22.2029 H   0  0  0  0  0  0
  -23.7262  -37.6494   23.6665 H   0  0  0  0  0  0
  -26.0817  -31.5705   20.6155 H   0  0  0  0  0  0
  -26.8281  -30.8589   22.0042 H   0  0  0  0  0  0
  -28.1223  -29.0219   21.1705 H   0  0  0  0  0  0
  -26.0254  -25.9851   18.9150 H   0  0  0  0  0  0
  -24.0004  -27.3078   18.9855 H   0  0  0  0  0  0
  -23.7309  -30.5546   19.3761 H   0  0  0  0  0  0
  -22.7618  -29.2050   19.8832 H   0  0  0  0  0  0
  -25.1338  -36.1929   25.0831 H   0  0  0  0  0  0
  -20.9826  -28.3933   24.1571 H   0  0  0  0  0  0
  -20.4840  -26.2966   23.4711 H   0  0  0  0  0  0
  -21.6678  -26.6855   22.2867 H   0  0  0  0  0  0
  -19.7434  -25.6201   21.1920 H   0  0  0  0  0  0
  -19.7397  -27.3028   20.7070 H   0  0  0  0  0  0
  -17.4543  -26.6558   21.3839 H   0  0  0  0  0  0
  -18.0497  -26.0282   22.9079 H   0  0  0  0  0  0
  -19.7869  -30.7338   24.2098 H   0  0  0  0  0  0
  -17.4991  -31.6410   24.4798 H   0  0  0  0  0  0
  -15.5383  -30.3202   23.7114 H   0  0  0  0  0  0
  -15.8710  -28.1096   22.6541 H   0  0  0  0  0  0
  -24.5860  -30.6975   25.7532 H   0  0  0  0  0  0
  -24.8716  -32.2803   26.4692 H   0  0  0  0  0  0
  -25.7886  -30.8786   27.0103 H   0  0  0  0  0  0
  -26.2748  -29.6783   24.1079 H   0  0  0  0  0  0
  -27.4001  -29.7255   25.4496 H   0  0  0  0  0  0
  -27.8662  -30.4355   23.9241 H   0  0  0  0  0  0
  -27.2684  -33.3633   26.1998 H   0  0  0  0  0  0
  -28.3842  -32.6745   25.0186 H   0  0  0  0  0  0
  -28.0741  -31.8340   26.5283 H   0  0  0  0  0  0
  -28.2614  -38.0072   24.7533 H   0  0  0  0  0  0
  -28.1111  -36.2575   24.6320 H   0  0  0  0  0  0
  -27.2294  -37.1494   25.8852 H   0  0  0  0  0  0
  -20.9623  -29.7416   21.5747 H   0  0  0  0  0  0
  -26.0211  -38.2891   24.1309 H   0  0  0  0  0  0
  -30.5494  -20.5019   20.9564 H   0  0  0  0  0  0
  -27.4461  -22.3933   18.7131 H   0  0  0  0  0  0
  -25.8311  -18.2867   18.8220 H   0  0  0  0  0  0
  -25.7077  -19.1007   17.2835 H   0  0  0  0  0  0
  -24.2687  -18.8482   18.2329 H   0  0  0  0  0  0
  -25.2312  -22.5629   18.3497 H   0  0  0  0  0  0
  -24.2799  -21.4191   17.4239 H   0  0  0  0  0  0
  -25.9989  -21.5371   17.1331 H   0  0  0  0  0  0
  -25.4565  -17.4994   20.8510 H   0  0  0  0  0  0
  -24.2899  -18.8294   20.8411 H   0  0  0  0  0  0
  -24.5586  -17.8861   22.2865 H   0  0  0  0  0  0
  -26.4963  -21.0573   23.0211 H   0  0  0  0  0  0
  -25.0603  -20.1582   23.4538 H   0  0  0  0  0  0
  -25.0791  -21.1063   21.9690 H   0  0  0  0  0  0
  -29.8882  -23.0892   18.5731 H   0  0  0  0  0  0
  -30.9016  -22.6987   19.9183 H   0  0  0  0  0  0
  -28.4504  -17.6200   22.1676 H   0  0  0  0  0  0
  -29.9644  -18.4421   22.3716 H   0  0  0  0  0  0
  -30.3880  -24.9365   20.2862 H   0  0  0  0  0  0
  -29.3167  -24.1587   21.4094 H   0  0  0  0  0  0
  -29.3125  -17.1847   19.6775 H   0  0  0  0  0  0
  -30.8942  -17.3905   20.3852 H   0  0  0  0  0  0
  -27.4204  -24.6996   19.9514 H   0  0  0  0  0  0
  -28.4457  -25.1666   18.6197 H   0  0  0  0  0  0
  -24.7046  -20.6056   19.7346 H   0  0  0  0  0  0
  -26.7382  -18.6618   22.6088 H   0  0  0  0  0  0
  -28.9230  -15.3331   21.3832 H   0  0  0  0  0  0
  1 25  1  0  0  0
  1 30  2  0  0  0
  1 88  1  0  0  0
  2  3  1  0  0  0
  2 25  1  0  0  0
  2 89  1  0  0  0
  2 90  1  0  0  0
  3  4  1  0  0  0
  3 91  1  0  0  0
  3 92  1  0  0  0
  4  5  1  0  0  0
  4 93  1  0  0  0
  4 94  1  0  0  0
  5  6  1  0  0  0
  5 26  1  0  0  0
  5 95  1  0  0  0
  6 25  1  0  0  0
  6 96  1  0  0  0
  6 97  1  0  0  0
  7  8  2  0  0  0
  7 26  1  0  0  0
  7 29  1  0  0  0
  8  9  1  0  0  0
  8 22  1  0  0  0
  9 10  1  0  0  0
  9 27  2  0  0  0
 10 11  2  0  0  0
 10 15  1  0  0  0
 11 12  1  0  0  0
 11 98  1  0  0  0
 12 13  2  0  0  0
 12 99  1  0  0  0
 13 14  1  0  0  0
 13 31  1  0  0  0
 14 15  2  0  0  0
 14100  1  0  0  0
 15101  1  0  0  0
 16 17  2  0  0  0
 16 21  1  0  0  0
 16 31  1  0  0  0
 17 18  1  0  0  0
 17102  1  0  0  0
 18 19  2  0  0  0
 18103  1  0  0  0
 19 20  1  0  0  0
 19 24  1  0  0  0
 20 21  2  0  0  0
 20104  1  0  0  0
 21 23  1  0  0  0
 22 28  1  0  0  0
 22 32  2  0  0  0
 26 27  1  0  0  0
 28105  1  0  0  0
 28106  1  0  0  0
 29107  1  0  0  0
 29108  1  0  0  0
 33 34  1  0  0  0
 33 66  1  0  0  0
 33 70  2  0  0  0
 34 36  1  0  0  0
 34 59  1  0  0  0
 34109  1  0  0  0
 35 44  2  0  0  0
 35 45  1  0  0  0
 35 68  1  0  0  0
 36 56  1  0  0  0
 36110  1  0  0  0
 37 39  1  0  0  0
 37 47  1  0  0  0
 37 66  1  0  0  0
 37111  1  0  0  0
 38 43  2  0  0  0
 38 46  1  0  0  0
 38 47  1  0  0  0
 39 64  1  0  0  0
 39 67  2  0  0  0
 40 52  1  0  0  0
 40 53  2  0  0  0
 40 58  1  0  0  0
 41112  1  0  0  0
 41113  1  0  0  0
 41114  1  0  0  0
 41 48  1  0  0  0
 42 43  1  0  0  0
 42 66  1  0  0  0
 42115  1  0  0  0
 42116  1  0  0  0
 43 44  1  0  0  0
 44117  1  0  0  0
 45 46  2  0  0  0
 45118  1  0  0  0
 46119  1  0  0  0
 47120  1  0  0  0
 47121  1  0  0  0
 48 56  1  0  0  0
 48 65  1  0  0  0
 48122  1  0  0  0
 49 50  1  0  0  0
 49 53  1  0  0  0
 49 64  1  0  0  0
 49123  1  0  0  0
 50 51  1  0  0  0
 50124  1  0  0  0
 50125  1  0  0  0
 51 52  1  0  0  0
 51126  1  0  0  0
 51127  1  0  0  0
 52128  1  0  0  0
 52129  1  0  0  0
 53 54  1  0  0  0
 54 55  2  0  0  0
 54130  1  0  0  0
 55 57  1  0  0  0
 55131  1  0  0  0
 56 69  2  0  0  0
 57 58  2  0  0  0
 57132  1  0  0  0
 58133  1  0  0  0
 59 60  1  0  0  0
 59 61  1  0  0  0
 59 62  1  0  0  0
 60134  1  0  0  0
 60135  1  0  0  0
 60136  1  0  0  0
 61137  1  0  0  0
 61138  1  0  0  0
 61139  1  0  0  0
 62140  1  0  0  0
 62141  1  0  0  0
 62142  1  0  0  0
 63 65  1  0  0  0
 63143  1  0  0  0
 63144  1  0  0  0
 63145  1  0  0  0
 64146  1  0  0  0
 65147  1  0  0  0
 68 85  1  0  0  0
 71 73  2  0  0  0
 71 74  1  0  0  0
 71148  1  0  0  0
 72 73  1  0  0  0
 72 75  2  0  0  0
 72149  1  0  0  0
 73 81  1  0  0  0
 74 76  2  0  0  0
 74 82  1  0  0  0
 75 76  1  0  0  0
 75 86  1  0  0  0
 76 87  1  0  0  0
 77150  1  0  0  0
 77151  1  0  0  0
 77152  1  0  0  0
 77 86  1  0  0  0
 78 86  1  0  0  0
 78153  1  0  0  0
 78154  1  0  0  0
 78155  1  0  0  0
 79156  1  0  0  0
 79157  1  0  0  0
 79158  1  0  0  0
 79 87  1  0  0  0
 80 87  1  0  0  0
 80159  1  0  0  0
 80160  1  0  0  0
 80161  1  0  0  0
 81 83  1  0  0  0
 81162  1  0  0  0
 81163  1  0  0  0
 82 84  1  0  0  0
 82164  1  0  0  0
 82165  1  0  0  0
 83 85  1  0  0  0
 83166  1  0  0  0
 83167  1  0  0  0
 84 88  1  0  0  0
 84168  1  0  0  0
 84169  1  0  0  0
 85170  1  0  0  0
 85171  1  0  0  0
 86172  1  0  0  0
 87173  1  0  0  0
 88174  1  0  0  0
M  ISO  4   1 100  68 101  85 101  88 100
M  END
> <chiral flag>
0

> <version>
0

> <s_m_source_file>
/data/baiqing/PycharmProjects/Reinvent-master-3.2/result/LINK_invent/BTK/process_docking_weight1_custom_sum_contain_oxygen_bond_distance_aromatic_linkinvent_7_9_3/rearranged_h_0101.sdf

> <i_m_source_file_index>
15

> <r_mmod_Potential_Energy-OPLS-2005>
105.213203430176

> <r_mmod_Stretch_Energy-OPLS-2005>
72.4280624389648

> <r_mmod_Bend_Energy-OPLS-2005>
133.746276855469

> <r_mmod_Torsional_Energy-OPLS-2005>
314.945007324219

> <r_mmod_Improper_Torsional_Energy-OPLS-2005>
9.56876945495605

> <r_mmod_Van_der_Waal_Energy-OPLS-2005>
157.735916137695

> <r_mmod_Electrostatic_Energy-OPLS-2005>
-428.225433349609

> <r_mmod_Solvation_Energy-OPLS-2005>
-195.480743408203

> <b_mmod_Minimization_Converged-OPLS-2005>
0

> <r_mmod_RMS_Derivative-OPLS-2005>
11.0843811035156

$$$$
15
                    3D
 Structure written by MMmdl.
165173  0  0  1  0            999 V2000
  -30.4160  -15.2887   20.3682 C   0  0  0  0  0  0
  -30.4387  -12.8350   19.5180 C   0  0  0  0  0  0
  -29.5330  -12.5899   18.2858 C   0  0  0  0  0  0
  -28.0874  -12.2977   18.7197 C   0  0  0  0  0  0
  -27.6048  -13.2761   19.8172 C   0  0  2  0  0  0
  -28.6369  -13.4613   20.9487 C   0  0  0  0  0  0
  -25.2360  -13.8241   20.5766 C   0  0  0  0  0  0
  -24.1704  -13.0422   20.9282 C   0  0  0  0  0  0
  -24.6348  -11.6925   20.8770 C   0  0  0  0  0  0
  -23.9053  -10.4281   21.0416 C   0  0  0  0  0  0
  -24.3605   -9.4193   21.9195 C   0  0  0  0  0  0
  -23.6290   -8.2223   22.0754 C   0  0  0  0  0  0
  -22.4273   -8.0254   21.3542 C   0  0  0  0  0  0
  -21.9920   -9.0227   20.4641 C   0  0  0  0  0  0
  -22.7234  -10.2113   20.3059 C   0  0  0  0  0  0
  -21.6844   -6.0724   22.5293 C   0  0  0  0  0  0
  -21.3999   -6.5632   23.8222 C   0  0  0  0  0  0
  -21.3669   -5.6789   24.9191 C   0  0  0  0  0  0
  -21.6042   -4.3057   24.7241 C   0  0  0  0  0  0
  -21.8815   -3.8137   23.4363 C   0  0  0  0  0  0
  -21.9189   -4.6956   22.3417 C   0  0  0  0  0  0
  -22.7724  -13.5182   21.1948 C   0  0  0  0  0  0
  -22.1657   -4.2130   21.1000 F   0  0  0  0  0  0
  -21.5648   -3.4548   25.7763 F   0  0  0  0  0  0
  -29.8640  -13.9773   20.3176 N   0  0  0  0  0  0
  -26.2763  -12.9508   20.3201 N   0  0  0  0  0  0
  -25.9285  -11.6616   20.5697 N   0  0  0  0  0  0
  -22.0356  -12.8162   22.0495 N   0  0  0  0  0  0
  -25.4017  -15.1976   20.4190 N   0  0  0  0  0  0
  -31.6437  -15.2933   20.1946 O   0  0  0  0  0  0
  -21.6632   -6.8870   21.4244 O   0  0  0  0  0  0
  -22.3414  -14.5483   20.6798 O   0  0  0  0  0  0
  -24.6657  -31.8223   23.1676 C   0  0  0  0  0  0
  -25.9322  -32.4575   23.8170 C   0  0  1  0  0  0
  -27.2150  -26.9005   20.1984 C   0  0  0  0  0  0
  -25.5975  -33.8389   24.2080 N   0  0  0  0  0  0
  -23.4833  -30.4293   21.5193 C   0  0  2  0  0  0
  -24.9380  -28.8129   20.1125 C   0  0  0  0  0  0
  -22.7692  -29.4419   22.4800 C   0  0  0  0  0  0
  -18.0321  -28.1409   22.8471 C   0  0  0  0  0  0
  -24.1499  -36.7206   23.2643 C   0  0  0  0  0  0
  -26.0522  -30.6220   21.3993 C   0  0  0  0  0  0
  -26.1218  -29.2082   20.7465 C   0  0  0  0  0  0
  -27.2565  -28.2750   20.7588 C   0  0  0  0  0  0
  -26.0050  -26.6640   19.5096 C   0  0  0  0  0  0
  -24.9077  -27.5656   19.4677 C   0  0  0  0  0  0
  -23.7244  -29.7426   20.1463 C   0  0  0  0  0  0
  -25.4144  -36.2967   24.0296 C   0  0  1  0  0  0
  -20.5949  -28.3755   23.1196 C   0  0  2  0  0  0
  -20.6795  -26.9437   22.5410 C   0  0  0  0  0  0
  -19.5767  -26.6384   21.5218 C   0  0  0  0  0  0
  -18.1953  -26.7947   22.1623 C   0  0  0  0  0  0
  -19.1583  -28.8907   23.2813 C   0  0  0  0  0  0
  -18.9482  -30.1491   23.8860 C   0  0  0  0  0  0
  -17.6472  -30.6596   24.0554 C   0  0  0  0  0  0
  -25.9108  -34.9337   23.5017 C   0  0  0  0  0  0
  -16.5365  -29.9084   23.6330 C   0  0  0  0  0  0
  -16.7302  -28.6497   23.0371 C   0  0  0  0  0  0
  -26.4570  -31.6509   25.0697 C   0  0  0  0  0  0
  -25.3705  -31.3754   26.1359 C   0  0  0  0  0  0
  -27.0435  -30.2863   24.6412 C   0  0  0  0  0  0
  -27.6080  -32.4313   25.7488 C   0  0  0  0  0  0
  -27.5581  -37.1767   24.8468 C   0  0  0  0  0  0
  -21.4364  -29.3031   22.3548 N   0  0  0  0  0  0
  -26.4299  -37.3699   23.9394 N   0  0  0  0  0  0
  -24.7554  -30.9858   22.0821 N   0  0  0  0  0  0
  -23.4230  -28.8016   23.3066 O   0  0  0  0  0  0
  -28.2055  -25.7811   20.3076 O   0  0  0  0  0  0
  -26.5724  -34.8880   22.4616 O   0  0  0  0  0  0
  -23.5713  -32.1198   23.6746 O   0  0  0  0  0  0
  -29.9798  -23.3099   21.6324 C   0  0  0  0  0  0
  -30.7577  -22.1950   22.0343 C   0  0  0  0  0  0
  -29.0383  -22.8676   20.7134 C   0  0  0  0  0  0
  -31.8781  -22.1200   23.0320 C   0  0  0  0  0  0
  -33.0822  -26.9106   20.6633 C   0  0  0  0  0  0
  -32.1824  -26.9960   23.0320 C   0  0  0  0  0  0
  -30.2074  -24.6952   22.2035 C   0  0  0  0  0  0
  -27.9856  -24.1384   20.1267 C   0  0  0  0  0  0
  -30.9968  -25.6184   21.2474 C   0  0  0  0  0  0
  -28.9518  -19.7365   20.1890 C   0  0  0  0  0  0
  -29.9122  -18.2159   20.5150 C   0  0  0  0  0  0
  -32.3527  -26.1275   21.7692 C   0  0  0  0  0  0
  -30.3954  -21.0831   21.4647 N   0  0  0  0  0  0
  -29.3289  -21.2976   20.6738 N   0  0  0  0  0  0
  -29.6354  -16.5565   20.4182 N   0  0  0  0  0  0
  -31.4499  -13.0590   19.1760 H   0  0  0  0  0  0
  -30.5270  -11.9346   20.1273 H   0  0  0  0  0  0
  -29.9215  -11.7708   17.6792 H   0  0  0  0  0  0
  -29.5458  -13.4754   17.6497 H   0  0  0  0  0  0
  -28.0627  -11.2807   19.1088 H   0  0  0  0  0  0
  -27.4161  -12.3172   17.8601 H   0  0  0  0  0  0
  -27.5135  -14.2365   19.3097 H   0  0  0  0  0  0
  -28.8129  -12.5286   21.4860 H   0  0  0  0  0  0
  -28.2699  -14.1820   21.6815 H   0  0  0  0  0  0
  -25.2731   -9.5688   22.4795 H   0  0  0  0  0  0
  -23.9999   -7.4611   22.7468 H   0  0  0  0  0  0
  -21.0865   -8.8721   19.8941 H   0  0  0  0  0  0
  -22.3662  -10.9655   19.6183 H   0  0  0  0  0  0
  -21.1959   -7.6133   23.9726 H   0  0  0  0  0  0
  -21.1519   -6.0522   25.9097 H   0  0  0  0  0  0
  -22.0583   -2.7601   23.2877 H   0  0  0  0  0  0
  -22.3962  -11.9826   22.4895 H   0  0  0  0  0  0
  -21.0962  -13.1189   22.2670 H   0  0  0  0  0  0
  -24.6320  -15.8515   20.5151 H   0  0  0  0  0  0
  -26.2401  -15.6311   20.0546 H   0  0  0  0  0  0
  -26.7404  -32.5119   23.0895 H   0  0  0  0  0  0
  -25.0039  -33.9468   25.0172 H   0  0  0  0  0  0
  -22.7970  -31.2603   21.3463 H   0  0  0  0  0  0
  -23.3767  -35.9531   23.3297 H   0  0  0  0  0  0
  -24.3563  -36.8862   22.2060 H   0  0  0  0  0  0
  -23.7251  -37.6387   23.6707 H   0  0  0  0  0  0
  -26.2309  -31.3626   20.6190 H   0  0  0  0  0  0
  -26.9116  -30.6855   22.0538 H   0  0  0  0  0  0
  -28.1564  -28.5780   21.2750 H   0  0  0  0  0  0
  -25.8731  -25.7063   19.0276 H   0  0  0  0  0  0
  -24.0107  -27.2601   18.9456 H   0  0  0  0  0  0
  -23.8807  -30.5101   19.3867 H   0  0  0  0  0  0
  -22.8348  -29.1959   19.8279 H   0  0  0  0  0  0
  -25.1341  -36.1777   25.0791 H   0  0  0  0  0  0
  -21.0014  -28.3348   24.1324 H   0  0  0  0  0  0
  -20.5668  -26.2372   23.3650 H   0  0  0  0  0  0
  -21.6658  -26.7412   22.1217 H   0  0  0  0  0  0
  -19.6922  -25.6284   21.1274 H   0  0  0  0  0  0
  -19.6695  -27.3172   20.6733 H   0  0  0  0  0  0
  -17.4221  -26.6689   21.4028 H   0  0  0  0  0  0
  -18.0339  -26.0097   22.9027 H   0  0  0  0  0  0
  -19.7951  -30.7321   24.2227 H   0  0  0  0  0  0
  -17.5013  -31.6272   24.5166 H   0  0  0  0  0  0
  -15.5360  -30.2972   23.7671 H   0  0  0  0  0  0
  -15.8705  -28.0794   22.7127 H   0  0  0  0  0  0
  -24.5913  -30.7077   25.7662 H   0  0  0  0  0  0
  -24.8868  -32.2950   26.4666 H   0  0  0  0  0  0
  -25.7947  -30.8999   27.0215 H   0  0  0  0  0  0
  -26.3072  -29.6566   24.1405 H   0  0  0  0  0  0
  -27.3936  -29.7196   25.5051 H   0  0  0  0  0  0
  -27.9047  -30.4010   23.9829 H   0  0  0  0  0  0
  -27.2664  -33.3672   26.1924 H   0  0  0  0  0  0
  -28.3953  -32.6780   25.0351 H   0  0  0  0  0  0
  -28.0682  -31.8535   26.5510 H   0  0  0  0  0  0
  -28.2592  -38.0068   24.7495 H   0  0  0  0  0  0
  -28.1093  -36.2594   24.6335 H   0  0  0  0  0  0
  -27.2295  -37.1453   25.8871 H   0  0  0  0  0  0
  -20.9649  -29.8707   21.6649 H   0  0  0  0  0  0
  -26.0156  -38.2767   24.1372 H   0  0  0  0  0  0
  -32.3231  -23.0937   23.2241 H   0  0  0  0  0  0
  -32.6779  -21.4629   22.6859 H   0  0  0  0  0  0
  -31.5191  -21.7250   23.9832 H   0  0  0  0  0  0
  -34.0446  -27.2883   21.0104 H   0  0  0  0  0  0
  -32.4949  -27.7632   20.3184 H   0  0  0  0  0  0
  -33.2741  -26.2753   19.7981 H   0  0  0  0  0  0
  -33.1080  -27.5024   23.3042 H   0  0  0  0  0  0
  -31.8903  -26.3995   23.8956 H   0  0  0  0  0  0
  -31.4181  -27.7627   22.8880 H   0  0  0  0  0  0
  -30.7254  -24.6280   23.1589 H   0  0  0  0  0  0
  -29.2638  -25.1691   22.4756 H   0  0  0  0  0  0
  -27.0055  -23.9420   20.5599 H   0  0  0  0  0  0
  -27.8476  -23.9779   19.0572 H   0  0  0  0  0  0
  -30.3880  -26.4987   21.0436 H   0  0  0  0  0  0
  -31.1303  -25.1286   20.2801 H   0  0  0  0  0  0
  -27.9474  -19.5572   20.5738 H   0  0  0  0  0  0
  -28.8172  -19.7877   19.1077 H   0  0  0  0  0  0
  -30.2089  -18.3255   21.5578 H   0  0  0  0  0  0
  -30.8452  -18.3532   19.9647 H   0  0  0  0  0  0
  -32.9775  -25.2679   22.0165 H   0  0  0  0  0  0
  -28.6491  -16.3431   20.4696 H   0  0  0  0  0  0
  1 25  1  0  0  0
  1 30  2  0  0  0
  1 85  1  0  0  0
  2  3  1  0  0  0
  2 25  1  0  0  0
  2 86  1  0  0  0
  2 87  1  0  0  0
  3  4  1  0  0  0
  3 88  1  0  0  0
  3 89  1  0  0  0
  4  5  1  0  0  0
  4 90  1  0  0  0
  4 91  1  0  0  0
  5  6  1  0  0  0
  5 26  1  0  0  0
  5 92  1  0  0  0
  6 25  1  0  0  0
  6 93  1  0  0  0
  6 94  1  0  0  0
  7  8  2  0  0  0
  7 26  1  0  0  0
  7 29  1  0  0  0
  8  9  1  0  0  0
  8 22  1  0  0  0
  9 10  1  0  0  0
  9 27  2  0  0  0
 10 11  2  0  0  0
 10 15  1  0  0  0
 11 12  1  0  0  0
 11 95  1  0  0  0
 12 13  2  0  0  0
 12 96  1  0  0  0
 13 14  1  0  0  0
 13 31  1  0  0  0
 14 15  2  0  0  0
 14 97  1  0  0  0
 15 98  1  0  0  0
 16 17  2  0  0  0
 16 21  1  0  0  0
 16 31  1  0  0  0
 17 18  1  0  0  0
 17 99  1  0  0  0
 18 19  2  0  0  0
 18100  1  0  0  0
 19 20  1  0  0  0
 19 24  1  0  0  0
 20 21  2  0  0  0
 20101  1  0  0  0
 21 23  1  0  0  0
 22 28  1  0  0  0
 22 32  2  0  0  0
 26 27  1  0  0  0
 28102  1  0  0  0
 28103  1  0  0  0
 29104  1  0  0  0
 29105  1  0  0  0
 33 34  1  0  0  0
 33 66  1  0  0  0
 33 70  2  0  0  0
 34 36  1  0  0  0
 34 59  1  0  0  0
 34106  1  0  0  0
 35 44  2  0  0  0
 35 45  1  0  0  0
 35 68  1  0  0  0
 36 56  1  0  0  0
 36107  1  0  0  0
 37 39  1  0  0  0
 37 47  1  0  0  0
 37 66  1  0  0  0
 37108  1  0  0  0
 38 43  2  0  0  0
 38 46  1  0  0  0
 38 47  1  0  0  0
 39 64  1  0  0  0
 39 67  2  0  0  0
 40 52  1  0  0  0
 40 53  2  0  0  0
 40 58  1  0  0  0
 41109  1  0  0  0
 41110  1  0  0  0
 41111  1  0  0  0
 41 48  1  0  0  0
 42 43  1  0  0  0
 42 66  1  0  0  0
 42112  1  0  0  0
 42113  1  0  0  0
 43 44  1  0  0  0
 44114  1  0  0  0
 45 46  2  0  0  0
 45115  1  0  0  0
 46116  1  0  0  0
 47117  1  0  0  0
 47118  1  0  0  0
 48 56  1  0  0  0
 48 65  1  0  0  0
 48119  1  0  0  0
 49 50  1  0  0  0
 49 53  1  0  0  0
 49 64  1  0  0  0
 49120  1  0  0  0
 50 51  1  0  0  0
 50121  1  0  0  0
 50122  1  0  0  0
 51 52  1  0  0  0
 51123  1  0  0  0
 51124  1  0  0  0
 52125  1  0  0  0
 52126  1  0  0  0
 53 54  1  0  0  0
 54 55  2  0  0  0
 54127  1  0  0  0
 55 57  1  0  0  0
 55128  1  0  0  0
 56 69  2  0  0  0
 57 58  2  0  0  0
 57129  1  0  0  0
 58130  1  0  0  0
 59 60  1  0  0  0
 59 61  1  0  0  0
 59 62  1  0  0  0
 60131  1  0  0  0
 60132  1  0  0  0
 60133  1  0  0  0
 61134  1  0  0  0
 61135  1  0  0  0
 61136  1  0  0  0
 62137  1  0  0  0
 62138  1  0  0  0
 62139  1  0  0  0
 63 65  1  0  0  0
 63140  1  0  0  0
 63141  1  0  0  0
 63142  1  0  0  0
 64143  1  0  0  0
 65144  1  0  0  0
 68 78  1  0  0  0
 71 72  1  0  0  0
 71 73  2  0  0  0
 71 77  1  0  0  0
 72 74  1  0  0  0
 72 83  2  0  0  0
 73 78  1  0  0  0
 73 84  1  0  0  0
 74145  1  0  0  0
 74146  1  0  0  0
 74147  1  0  0  0
 75148  1  0  0  0
 75149  1  0  0  0
 75150  1  0  0  0
 75 82  1  0  0  0
 76 82  1  0  0  0
 76151  1  0  0  0
 76152  1  0  0  0
 76153  1  0  0  0
 77 79  1  0  0  0
 77154  1  0  0  0
 77155  1  0  0  0
 78156  1  0  0  0
 78157  1  0  0  0
 79 82  1  0  0  0
 79158  1  0  0  0
 79159  1  0  0  0
 80 81  1  0  0  0
 80 84  1  0  0  0
 80160  1  0  0  0
 80161  1  0  0  0
 81 85  1  0  0  0
 81162  1  0  0  0
 81163  1  0  0  0
 82164  1  0  0  0
 83 84  1  0  0  0
 85165  1  0  0  0
M  ISO  4   1 100  68 101  78 101  85 100
M  END
> <chiral flag>
0

> <version>
0

> <s_m_source_file>
/data/baiqing/PycharmProjects/Reinvent-master-3.2/result/LINK_invent/BTK/process_docking_weight1_custom_sum_contain_oxygen_bond_distance_aromatic_linkinvent_7_9_3/rearranged_h_0101.sdf

> <i_m_source_file_index>
16

> <r_mmod_Potential_Energy-OPLS-2005>
1443.2705078125

> <r_mmod_Stretch_Energy-OPLS-2005>
677.344909667969

> <r_mmod_Bend_Energy-OPLS-2005>
510.819854736328

> <r_mmod_Torsional_Energy-OPLS-2005>
240.789962768555

> <r_mmod_Improper_Torsional_Energy-OPLS-2005>
4.2956919670105

> <r_mmod_Van_der_Waal_Energy-OPLS-2005>
107.0107421875

> <r_mmod_Electrostatic_Energy-OPLS-2005>
-371.659088134766

> <r_mmod_Solvation_Energy-OPLS-2005>
-222.711822509766

> <b_mmod_Minimization_Converged-OPLS-2005>
0

> <r_mmod_RMS_Derivative-OPLS-2005>
3.32612943649292

$$$$
16
                    3D
 Structure written by MMmdl.
170178  0  0  1  0            999 V2000
  -30.5221  -14.9975   20.4129 C   0  0  0  0  0  0
  -30.4460  -12.6217   19.4966 C   0  0  0  0  0  0
  -29.5211  -12.5218   18.2592 C   0  0  0  0  0  0
  -28.0628  -12.2849   18.6950 C   0  0  0  0  0  0
  -27.6286  -13.2422   19.8335 C   0  0  2  0  0  0
  -28.6703  -13.3072   20.9694 C   0  0  0  0  0  0
  -25.2503  -13.8205   20.5739 C   0  0  0  0  0  0
  -24.1796  -13.0430   20.9221 C   0  0  0  0  0  0
  -24.6403  -11.6914   20.8784 C   0  0  0  0  0  0
  -23.9081  -10.4277   21.0412 C   0  0  0  0  0  0
  -24.3629   -9.4197   21.9191 C   0  0  0  0  0  0
  -23.6297   -8.2246   22.0763 C   0  0  0  0  0  0
  -22.4292   -8.0294   21.3536 C   0  0  0  0  0  0
  -21.9918   -9.0271   20.4647 C   0  0  0  0  0  0
  -22.7255  -10.2139   20.3056 C   0  0  0  0  0  0
  -21.6863   -6.0744   22.5272 C   0  0  0  0  0  0
  -21.4013   -6.5642   23.8207 C   0  0  0  0  0  0
  -21.3656   -5.6797   24.9174 C   0  0  0  0  0  0
  -21.6035   -4.3061   24.7222 C   0  0  0  0  0  0
  -21.8822   -3.8151   23.4349 C   0  0  0  0  0  0
  -21.9191   -4.6963   22.3403 C   0  0  0  0  0  0
  -22.7823  -13.5215   21.1885 C   0  0  0  0  0  0
  -22.1670   -4.2154   21.0981 F   0  0  0  0  0  0
  -21.5619   -3.4549   25.7736 F   0  0  0  0  0  0
  -29.9396  -13.7280   20.3606 N   0  0  0  0  0  0
  -26.2907  -12.9421   20.3261 N   0  0  0  0  0  0
  -25.9327  -11.6559   20.5754 N   0  0  0  0  0  0
  -22.0478  -12.8186   22.0444 N   0  0  0  0  0  0
  -25.4186  -15.1927   20.4135 N   0  0  0  0  0  0
  -31.7344  -15.0640   20.1862 O   0  0  0  0  0  0
  -21.6654   -6.8903   21.4244 O   0  0  0  0  0  0
  -22.3498  -14.5534   20.6753 O   0  0  0  0  0  0
  -24.6478  -31.8400   23.1834 C   0  0  0  0  0  0
  -25.9235  -32.4669   23.8232 C   0  0  1  0  0  0
  -27.2183  -27.0939   20.1444 C   0  0  0  0  0  0
  -25.5957  -33.8483   24.2162 N   0  0  0  0  0  0
  -23.4525  -30.4545   21.5313 C   0  0  2  0  0  0
  -24.9022  -28.8747   20.1022 C   0  0  0  0  0  0
  -22.7595  -29.4475   22.4843 C   0  0  0  0  0  0
  -18.0299  -28.1367   22.8405 C   0  0  0  0  0  0
  -24.1497  -36.7247   23.2643 C   0  0  0  0  0  0
  -26.0095  -30.6993   21.3856 C   0  0  0  0  0  0
  -26.0791  -29.3050   20.7260 C   0  0  0  0  0  0
  -27.2325  -28.4294   20.7317 C   0  0  0  0  0  0
  -26.0149  -26.7674   19.4865 C   0  0  0  0  0  0
  -24.8836  -27.6184   19.4714 C   0  0  0  0  0  0
  -23.6825  -29.7858   20.1480 C   0  0  0  0  0  0
  -25.4134  -36.3024   24.0307 C   0  0  1  0  0  0
  -20.5918  -28.3690   23.1205 C   0  0  2  0  0  0
  -20.6798  -26.9388   22.5377 C   0  0  0  0  0  0
  -19.5774  -26.6350   21.5177 C   0  0  0  0  0  0
  -18.1947  -26.7883   22.1589 C   0  0  0  0  0  0
  -19.1566  -28.8845   23.2784 C   0  0  0  0  0  0
  -18.9496  -30.1415   23.8840 C   0  0  0  0  0  0
  -17.6512  -30.6560   24.0517 C   0  0  0  0  0  0
  -25.9096  -34.9400   23.5056 C   0  0  0  0  0  0
  -16.5383  -29.9044   23.6317 C   0  0  0  0  0  0
  -16.7299  -28.6481   23.0307 C   0  0  0  0  0  0
  -26.4544  -31.6551   25.0695 C   0  0  0  0  0  0
  -25.3715  -31.3760   26.1370 C   0  0  0  0  0  0
  -27.0428  -30.2958   24.6273 C   0  0  0  0  0  0
  -27.6087  -32.4321   25.7462 C   0  0  0  0  0  0
  -27.5580  -37.1758   24.8460 C   0  0  0  0  0  0
  -21.4286  -29.3014   22.3587 N   0  0  0  0  0  0
  -26.4282  -37.3739   23.9420 N   0  0  0  0  0  0
  -24.7232  -31.0175   22.0901 N   0  0  0  0  0  0
  -23.4233  -28.8028   23.2999 O   0  0  0  0  0  0
  -28.2824  -26.1156   20.2682 O   0  0  0  0  0  0
  -26.5662  -34.8921   22.4612 O   0  0  0  0  0  0
  -23.5580  -32.1291   23.7015 O   0  0  0  0  0  0
  -28.6360  -20.7966   18.2488 C   0  0  0  0  0  0
  -29.0308  -20.3480   19.5330 C   0  0  0  0  0  0
  -28.6205  -19.9657   17.1120 C   0  0  0  0  0  0
  -29.3318  -18.8483   19.6152 C   0  0  0  0  0  0
  -28.9126  -18.6065   17.3000 C   0  0  0  0  0  0
  -28.9985  -17.5974   16.1656 C   0  0  0  0  0  0
  -30.8542  -21.0659   15.2667 C   0  0  0  0  0  0
  -26.9398  -21.1167   15.5816 C   0  0  0  0  0  0
  -29.7488  -24.6708   19.0103 C   0  0  0  0  0  0
  -29.1738  -21.6710   20.5085 C   0  0  0  0  0  0
  -29.9245  -17.7527   20.6854 C   0  0  0  0  0  0
  -29.4264  -21.6290   15.3514 C   0  0  0  0  0  0
  -28.2613  -23.1404   20.5237 C   0  0  0  0  0  0
  -28.3679  -20.5677   15.7231 C   0  0  1  0  0  0
  -28.3915  -24.6400   19.7145 C   0  0  1  0  0  0
  -29.2027  -18.0947   18.5030 N   0  0  0  0  0  0
  -29.7184  -16.1703   20.5399 N   0  0  0  0  0  0
  -31.4735  -12.7951   19.1719 H   0  0  0  0  0  0
  -30.4619  -11.6798   20.0475 H   0  0  0  0  0  0
  -29.8479  -11.7129   17.6027 H   0  0  0  0  0  0
  -29.5831  -13.4440   17.6784 H   0  0  0  0  0  0
  -27.9918  -11.2537   19.0472 H   0  0  0  0  0  0
  -27.3855  -12.3652   17.8446 H   0  0  0  0  0  0
  -27.5829  -14.2322   19.3799 H   0  0  0  0  0  0
  -28.7712  -12.3468   21.4739 H   0  0  0  0  0  0
  -28.3619  -14.0260   21.7300 H   0  0  0  0  0  0
  -25.2757   -9.5684   22.4785 H   0  0  0  0  0  0
  -24.0006   -7.4626   22.7473 H   0  0  0  0  0  0
  -21.0855   -8.8779   19.8941 H   0  0  0  0  0  0
  -22.3707  -10.9688   19.6182 H   0  0  0  0  0  0
  -21.2021   -7.6149   23.9710 H   0  0  0  0  0  0
  -21.1470   -6.0530   25.9069 H   0  0  0  0  0  0
  -22.0606   -2.7611   23.2845 H   0  0  0  0  0  0
  -22.4117  -11.9821   22.4774 H   0  0  0  0  0  0
  -21.1090  -13.1196   22.2676 H   0  0  0  0  0  0
  -24.6478  -15.8442   20.5177 H   0  0  0  0  0  0
  -26.2533  -15.6242   20.0390 H   0  0  0  0  0  0
  -26.7284  -32.5264   23.0940 H   0  0  0  0  0  0
  -25.0048  -33.9599   25.0276 H   0  0  0  0  0  0
  -22.7560  -31.2806   21.3739 H   0  0  0  0  0  0
  -23.3774  -35.9552   23.3271 H   0  0  0  0  0  0
  -24.3589  -36.8948   22.2066 H   0  0  0  0  0  0
  -23.7260  -37.6434   23.6717 H   0  0  0  0  0  0
  -26.1589  -31.4530   20.6121 H   0  0  0  0  0  0
  -26.8818  -30.7558   22.0241 H   0  0  0  0  0  0
  -28.1274  -28.7449   21.2478 H   0  0  0  0  0  0
  -25.9045  -25.8034   19.0135 H   0  0  0  0  0  0
  -23.9860  -27.2760   18.9732 H   0  0  0  0  0  0
  -23.8350  -30.5689   19.4045 H   0  0  0  0  0  0
  -22.7965  -29.2423   19.8223 H   0  0  0  0  0  0
  -25.1319  -36.1841   25.0796 H   0  0  0  0  0  0
  -20.9957  -28.3301   24.1355 H   0  0  0  0  0  0
  -20.5699  -26.2310   23.3623 H   0  0  0  0  0  0
  -21.6681  -26.7398   22.1198 H   0  0  0  0  0  0
  -19.6991  -25.6260   21.1239 H   0  0  0  0  0  0
  -19.6767  -27.3125   20.6676 H   0  0  0  0  0  0
  -17.4233  -26.6578   21.3967 H   0  0  0  0  0  0
  -18.0361  -26.0017   22.8983 H   0  0  0  0  0  0
  -19.7985  -30.7162   24.2268 H   0  0  0  0  0  0
  -17.5086  -31.6250   24.5086 H   0  0  0  0  0  0
  -15.5383  -30.2945   23.7679 H   0  0  0  0  0  0
  -15.8676  -28.0802   22.7032 H   0  0  0  0  0  0
  -24.5894  -30.7118   25.7679 H   0  0  0  0  0  0
  -24.8863  -32.2944   26.4683 H   0  0  0  0  0  0
  -25.7937  -30.8990   27.0214 H   0  0  0  0  0  0
  -26.3064  -29.6630   24.1300 H   0  0  0  0  0  0
  -27.4124  -29.7292   25.4825 H   0  0  0  0  0  0
  -27.8927  -30.4222   23.9553 H   0  0  0  0  0  0
  -27.2742  -33.3704   26.1879 H   0  0  0  0  0  0
  -28.3957  -32.6747   25.0308 H   0  0  0  0  0  0
  -28.0663  -31.8531   26.5485 H   0  0  0  0  0  0
  -28.2531  -38.0101   24.7526 H   0  0  0  0  0  0
  -28.1134  -36.2636   24.6251 H   0  0  0  0  0  0
  -27.2291  -37.1375   25.8852 H   0  0  0  0  0  0
  -20.9516  -29.8805   21.6821 H   0  0  0  0  0  0
  -26.0150  -38.2787   24.1475 H   0  0  0  0  0  0
  -28.4142  -21.8434   18.1081 H   0  0  0  0  0  0
  -28.1311  -17.6512   15.5091 H   0  0  0  0  0  0
  -29.0611  -16.5751   16.5450 H   0  0  0  0  0  0
  -29.9004  -17.7835   15.5816 H   0  0  0  0  0  0
  -31.5566  -21.8300   14.9287 H   0  0  0  0  0  0
  -30.9076  -20.2380   14.5602 H   0  0  0  0  0  0
  -31.2023  -20.6928   16.2325 H   0  0  0  0  0  0
  -26.1981  -20.3422   15.7825 H   0  0  0  0  0  0
  -26.7650  -21.4762   14.5668 H   0  0  0  0  0  0
  -26.7458  -21.9491   16.2581 H   0  0  0  0  0  0
  -29.9411  -23.7453   18.4720 H   0  0  0  0  0  0
  -30.5542  -24.8085   19.7327 H   0  0  0  0  0  0
  -29.7952  -25.4903   18.2929 H   0  0  0  0  0  0
  -30.2234  -21.9637   20.4477 H   0  0  0  0  0  0
  -29.0789  -21.2579   21.5134 H   0  0  0  0  0  0
  -29.5367  -18.0305   21.6661 H   0  0  0  0  0  0
  -30.9994  -17.9257   20.7463 H   0  0  0  0  0  0
  -29.1742  -22.0533   14.3790 H   0  0  0  0  0  0
  -29.4018  -22.4620   16.0556 H   0  0  0  0  0  0
  -28.3841  -23.4560   21.5618 H   0  0  0  0  0  0
  -27.2088  -22.8562   20.4878 H   0  0  0  0  0  0
  -28.4544  -19.7866   14.9689 H   0  0  0  0  0  0
  -27.6649  -24.5670   18.9090 H   0  0  0  0  0  0
  -28.7399  -15.9392   20.5834 H   0  0  0  0  0  0
  1 25  1  0  0  0
  1 30  2  0  0  0
  1 87  1  0  0  0
  2  3  1  0  0  0
  2 25  1  0  0  0
  2 88  1  0  0  0
  2 89  1  0  0  0
  3  4  1  0  0  0
  3 90  1  0  0  0
  3 91  1  0  0  0
  4  5  1  0  0  0
  4 92  1  0  0  0
  4 93  1  0  0  0
  5  6  1  0  0  0
  5 26  1  0  0  0
  5 94  1  0  0  0
  6 25  1  0  0  0
  6 95  1  0  0  0
  6 96  1  0  0  0
  7  8  2  0  0  0
  7 26  1  0  0  0
  7 29  1  0  0  0
  8  9  1  0  0  0
  8 22  1  0  0  0
  9 10  1  0  0  0
  9 27  2  0  0  0
 10 11  2  0  0  0
 10 15  1  0  0  0
 11 12  1  0  0  0
 11 97  1  0  0  0
 12 13  2  0  0  0
 12 98  1  0  0  0
 13 14  1  0  0  0
 13 31  1  0  0  0
 14 15  2  0  0  0
 14 99  1  0  0  0
 15100  1  0  0  0
 16 17  2  0  0  0
 16 21  1  0  0  0
 16 31  1  0  0  0
 17 18  1  0  0  0
 17101  1  0  0  0
 18 19  2  0  0  0
 18102  1  0  0  0
 19 20  1  0  0  0
 19 24  1  0  0  0
 20 21  2  0  0  0
 20103  1  0  0  0
 21 23  1  0  0  0
 22 28  1  0  0  0
 22 32  2  0  0  0
 26 27  1  0  0  0
 28104  1  0  0  0
 28105  1  0  0  0
 29106  1  0  0  0
 29107  1  0  0  0
 33 34  1  0  0  0
 33 66  1  0  0  0
 33 70  2  0  0  0
 34 36  1  0  0  0
 34 59  1  0  0  0
 34108  1  0  0  0
 35 44  2  0  0  0
 35 45  1  0  0  0
 35 68  1  0  0  0
 36 56  1  0  0  0
 36109  1  0  0  0
 37 39  1  0  0  0
 37 47  1  0  0  0
 37 66  1  0  0  0
 37110  1  0  0  0
 38 43  2  0  0  0
 38 46  1  0  0  0
 38 47  1  0  0  0
 39 64  1  0  0  0
 39 67  2  0  0  0
 40 52  1  0  0  0
 40 53  2  0  0  0
 40 58  1  0  0  0
 41111  1  0  0  0
 41112  1  0  0  0
 41113  1  0  0  0
 41 48  1  0  0  0
 42 43  1  0  0  0
 42 66  1  0  0  0
 42114  1  0  0  0
 42115  1  0  0  0
 43 44  1  0  0  0
 44116  1  0  0  0
 45 46  2  0  0  0
 45117  1  0  0  0
 46118  1  0  0  0
 47119  1  0  0  0
 47120  1  0  0  0
 48 56  1  0  0  0
 48 65  1  0  0  0
 48121  1  0  0  0
 49 50  1  0  0  0
 49 53  1  0  0  0
 49 64  1  0  0  0
 49122  1  0  0  0
 50 51  1  0  0  0
 50123  1  0  0  0
 50124  1  0  0  0
 51 52  1  0  0  0
 51125  1  0  0  0
 51126  1  0  0  0
 52127  1  0  0  0
 52128  1  0  0  0
 53 54  1  0  0  0
 54 55  2  0  0  0
 54129  1  0  0  0
 55 57  1  0  0  0
 55130  1  0  0  0
 56 69  2  0  0  0
 57 58  2  0  0  0
 57131  1  0  0  0
 58132  1  0  0  0
 59 60  1  0  0  0
 59 61  1  0  0  0
 59 62  1  0  0  0
 60133  1  0  0  0
 60134  1  0  0  0
 60135  1  0  0  0
 61136  1  0  0  0
 61137  1  0  0  0
 61138  1  0  0  0
 62139  1  0  0  0
 62140  1  0  0  0
 62141  1  0  0  0
 63 65  1  0  0  0
 63142  1  0  0  0
 63143  1  0  0  0
 63144  1  0  0  0
 64145  1  0  0  0
 65146  1  0  0  0
 68 85  1  0  0  0
 71 72  2  0  0  0
 71 73  1  0  0  0
 71147  1  0  0  0
 72 74  1  0  0  0
 72 80  1  0  0  0
 73 75  2  0  0  0
 73 84  1  0  0  0
 74 81  1  0  0  0
 74 86  2  0  0  0
 75 76  1  0  0  0
 75 86  1  0  0  0
 76148  1  0  0  0
 76149  1  0  0  0
 76150  1  0  0  0
 77 82  1  0  0  0
 77151  1  0  0  0
 77152  1  0  0  0
 77153  1  0  0  0
 78154  1  0  0  0
 78155  1  0  0  0
 78156  1  0  0  0
 78 84  1  0  0  0
 79157  1  0  0  0
 79158  1  0  0  0
 79159  1  0  0  0
 79 85  1  0  0  0
 80 83  1  0  0  0
 80160  1  0  0  0
 80161  1  0  0  0
 81 87  1  0  0  0
 81162  1  0  0  0
 81163  1  0  0  0
 82 84  1  0  0  0
 82164  1  0  0  0
 82165  1  0  0  0
 83 85  1  0  0  0
 83166  1  0  0  0
 83167  1  0  0  0
 84168  1  0  0  0
 85169  1  0  0  0
 87170  1  0  0  0
M  ISO  4   1 100  68 101  85 101  87 100
M  END
> <chiral flag>
0

> <version>
0

> <s_m_source_file>
/data/baiqing/PycharmProjects/Reinvent-master-3.2/result/LINK_invent/BTK/process_docking_weight1_custom_sum_contain_oxygen_bond_distance_aromatic_linkinvent_7_9_3/rearranged_h_0101.sdf

> <i_m_source_file_index>
17

> <r_mmod_Potential_Energy-OPLS-2005>
453.576751708984

> <r_mmod_Stretch_Energy-OPLS-2005>
324.271331787109

> <r_mmod_Bend_Energy-OPLS-2005>
405.205352783203

> <r_mmod_Torsional_Energy-OPLS-2005>
222.470306396484

> <r_mmod_Improper_Torsional_Energy-OPLS-2005>
4.86453723907471

> <r_mmod_Van_der_Waal_Energy-OPLS-2005>
121.850639343262

> <r_mmod_Electrostatic_Energy-OPLS-2005>
-638.253967285156

> <r_mmod_Solvation_Energy-OPLS-2005>
-217.948989868164

> <b_mmod_Minimization_Converged-OPLS-2005>
0

> <r_mmod_RMS_Derivative-OPLS-2005>
4.1723461151123

$$$$
17
                    3D
 Structure written by MMmdl.
166174  0  0  1  0            999 V2000
  -30.5817  -14.7604   20.4483 C   0  0  0  0  0  0
  -30.4457  -12.4649   19.4513 C   0  0  0  0  0  0
  -29.5140  -12.5120   18.2215 C   0  0  0  0  0  0
  -28.0403  -12.3282   18.6402 C   0  0  0  0  0  0
  -27.6441  -13.2246   19.8444 C   0  0  2  0  0  0
  -28.6940  -13.1528   20.9720 C   0  0  0  0  0  0
  -25.2531  -13.8179   20.5684 C   0  0  0  0  0  0
  -24.1822  -13.0441   20.9203 C   0  0  0  0  0  0
  -24.6398  -11.6905   20.8712 C   0  0  0  0  0  0
  -23.9062  -10.4283   21.0382 C   0  0  0  0  0  0
  -24.3615   -9.4212   21.9172 C   0  0  0  0  0  0
  -23.6280   -8.2249   22.0762 C   0  0  0  0  0  0
  -22.4272   -8.0272   21.3548 C   0  0  0  0  0  0
  -21.9901   -9.0251   20.4662 C   0  0  0  0  0  0
  -22.7229  -10.2122   20.3051 C   0  0  0  0  0  0
  -21.6861   -6.0725   22.5289 C   0  0  0  0  0  0
  -21.4010   -6.5633   23.8223 C   0  0  0  0  0  0
  -21.3667   -5.6797   24.9181 C   0  0  0  0  0  0
  -21.6044   -4.3048   24.7229 C   0  0  0  0  0  0
  -21.8826   -3.8143   23.4356 C   0  0  0  0  0  0
  -21.9185   -4.6959   22.3407 C   0  0  0  0  0  0
  -22.7853  -13.5211   21.1873 C   0  0  0  0  0  0
  -22.1657   -4.2144   21.0982 F   0  0  0  0  0  0
  -21.5633   -3.4537   25.7738 F   0  0  0  0  0  0
  -29.9889  -13.5188   20.3813 N   0  0  0  0  0  0
  -26.2948  -12.9365   20.3244 N   0  0  0  0  0  0
  -25.9327  -11.6508   20.5728 N   0  0  0  0  0  0
  -22.0486  -12.8208   22.0422 N   0  0  0  0  0  0
  -25.4216  -15.1924   20.4141 N   0  0  0  0  0  0
  -31.7873  -14.8859   20.2163 O   0  0  0  0  0  0
  -21.6637   -6.8869   21.4253 O   0  0  0  0  0  0
  -22.3529  -14.5523   20.6722 O   0  0  0  0  0  0
  -24.6303  -31.8541   23.1946 C   0  0  0  0  0  0
  -25.9115  -32.4746   23.8329 C   0  0  1  0  0  0
  -27.2327  -27.2579   20.1535 C   0  0  0  0  0  0
  -25.5907  -33.8547   24.2257 N   0  0  0  0  0  0
  -23.4296  -30.4704   21.5374 C   0  0  2  0  0  0
  -24.8815  -28.9041   20.1190 C   0  0  0  0  0  0
  -22.7508  -29.4582   22.4911 C   0  0  0  0  0  0
  -18.0289  -28.1384   22.8496 C   0  0  0  0  0  0
  -24.1487  -36.7272   23.2651 C   0  0  0  0  0  0
  -25.9736  -30.7680   21.3743 C   0  0  0  0  0  0
  -26.0500  -29.3855   20.7239 C   0  0  0  0  0  0
  -27.2304  -28.5772   20.7204 C   0  0  0  0  0  0
  -26.0417  -26.8329   19.5323 C   0  0  0  0  0  0
  -24.8808  -27.6361   19.5114 C   0  0  0  0  0  0
  -23.6521  -29.7919   20.1581 C   0  0  0  0  0  0
  -25.4122  -36.3065   24.0338 C   0  0  1  0  0  0
  -20.5895  -28.3698   23.1268 C   0  0  2  0  0  0
  -20.6778  -26.9414   22.5416 C   0  0  0  0  0  0
  -19.5752  -26.6384   21.5215 C   0  0  0  0  0  0
  -18.1928  -26.7935   22.1628 C   0  0  0  0  0  0
  -19.1544  -28.8861   23.2875 C   0  0  0  0  0  0
  -18.9469  -30.1463   23.8888 C   0  0  0  0  0  0
  -17.6462  -30.6589   24.0559 C   0  0  0  0  0  0
  -25.9056  -34.9430   23.5112 C   0  0  0  0  0  0
  -16.5352  -29.9085   23.6325 C   0  0  0  0  0  0
  -16.7274  -28.6498   23.0357 C   0  0  0  0  0  0
  -26.4480  -31.6578   25.0718 C   0  0  0  0  0  0
  -25.3704  -31.3723   26.1441 C   0  0  0  0  0  0
  -27.0357  -30.3006   24.6209 C   0  0  0  0  0  0
  -27.6053  -32.4318   25.7479 C   0  0  0  0  0  0
  -27.5574  -37.1808   24.8484 C   0  0  0  0  0  0
  -21.4214  -29.3036   22.3659 N   0  0  0  0  0  0
  -26.4298  -37.3758   23.9395 N   0  0  0  0  0  0
  -24.6963  -31.0501   22.0919 N   0  0  0  0  0  0
  -23.4201  -28.8142   23.3026 O   0  0  0  0  0  0
  -28.3604  -26.4073   20.1298 O   0  0  0  0  0  0
  -26.5626  -34.8909   22.4675 O   0  0  0  0  0  0
  -23.5444  -32.1339   23.7234 O   0  0  0  0  0  0
  -31.2121  -18.1026   18.9015 C   0  0  0  0  0  0
  -31.4504  -19.2273   18.0840 C   0  0  0  0  0  0
  -30.2624  -18.4091   19.8335 C   0  0  0  0  0  0
  -30.6269  -20.2355   18.4895 C   0  0  0  0  0  0
  -30.4511  -21.5253   16.3193 C   0  0  0  0  0  0
  -31.6472  -22.5298   18.2804 C   0  0  0  0  0  0
  -27.5170  -25.0113   22.0342 C   0  0  0  0  0  0
  -29.8478  -17.3453   20.9033 C   0  0  0  0  0  0
  -29.1010  -22.2888   20.6662 C   0  0  0  0  0  0
  -28.4009  -23.6224   20.0014 C   0  0  0  0  0  0
  -28.8220  -20.7237   20.2360 C   0  0  0  0  0  0
  -30.5061  -21.5932   17.8511 C   0  0  0  0  0  0
  -28.4223  -25.0500   20.7901 C   0  0  1  0  0  0
  -29.8861  -19.8115   19.6103 N   0  0  0  0  0  0
  -29.7293  -15.8470   20.5735 N   0  0  0  0  0  0
  -31.4824  -12.6049   19.1435 H   0  0  0  0  0  0
  -30.4038  -11.4846   19.9296 H   0  0  0  0  0  0
  -29.7973  -11.7395   17.5047 H   0  0  0  0  0  0
  -29.6322  -13.4652   17.7041 H   0  0  0  0  0  0
  -27.9060  -11.2786   18.9043 H   0  0  0  0  0  0
  -27.3788  -12.5177   17.7943 H   0  0  0  0  0  0
  -27.6364  -14.2478   19.4664 H   0  0  0  0  0  0
  -28.7382  -12.1515   21.4024 H   0  0  0  0  0  0
  -28.4321  -13.8266   21.7894 H   0  0  0  0  0  0
  -25.2774   -9.5681   22.4728 H   0  0  0  0  0  0
  -24.0000   -7.4646   22.7496 H   0  0  0  0  0  0
  -21.0824   -8.8759   19.8968 H   0  0  0  0  0  0
  -22.3693  -10.9645   19.6144 H   0  0  0  0  0  0
  -21.2006   -7.6147   23.9716 H   0  0  0  0  0  0
  -21.1485   -6.0525   25.9086 H   0  0  0  0  0  0
  -22.0594   -2.7601   23.2858 H   0  0  0  0  0  0
  -22.4064  -11.9856   22.4791 H   0  0  0  0  0  0
  -21.1123  -13.1267   22.2639 H   0  0  0  0  0  0
  -24.6558  -15.8434   20.5483 H   0  0  0  0  0  0
  -26.2640  -15.6408   20.0828 H   0  0  0  0  0  0
  -26.7188  -32.5401   23.1085 H   0  0  0  0  0  0
  -25.0074  -33.9688   25.0411 H   0  0  0  0  0  0
  -22.7261  -31.2912   21.3816 H   0  0  0  0  0  0
  -23.3742  -35.9615   23.3360 H   0  0  0  0  0  0
  -24.3566  -36.8833   22.2054 H   0  0  0  0  0  0
  -23.7256  -37.6501   23.6631 H   0  0  0  0  0  0
  -26.1141  -31.5259   20.6024 H   0  0  0  0  0  0
  -26.8519  -30.8210   22.0080 H   0  0  0  0  0  0
  -28.1341  -28.9487   21.1835 H   0  0  0  0  0  0
  -26.0135  -25.8577   19.0673 H   0  0  0  0  0  0
  -23.9857  -27.2595   19.0360 H   0  0  0  0  0  0
  -23.7787  -30.5602   19.3947 H   0  0  0  0  0  0
  -22.7737  -29.2206   19.8537 H   0  0  0  0  0  0
  -25.1304  -36.1937   25.0834 H   0  0  0  0  0  0
  -20.9984  -28.3270   24.1386 H   0  0  0  0  0  0
  -20.5666  -26.2305   23.3616 H   0  0  0  0  0  0
  -21.6644  -26.7429   22.1204 H   0  0  0  0  0  0
  -19.6910  -25.6289   21.1246 H   0  0  0  0  0  0
  -19.6686  -27.3195   20.6738 H   0  0  0  0  0  0
  -17.4200  -26.6676   21.4025 H   0  0  0  0  0  0
  -18.0329  -26.0075   22.9020 H   0  0  0  0  0  0
  -19.7943  -30.7288   24.2249 H   0  0  0  0  0  0
  -17.5014  -31.6270   24.5171 H   0  0  0  0  0  0
  -15.5354  -30.2986   23.7660 H   0  0  0  0  0  0
  -15.8671  -28.0814   22.7081 H   0  0  0  0  0  0
  -24.5879  -30.7076   25.7756 H   0  0  0  0  0  0
  -24.8888  -32.2887   26.4859 H   0  0  0  0  0  0
  -25.8008  -30.8897   27.0221 H   0  0  0  0  0  0
  -26.2958  -29.6734   24.1220 H   0  0  0  0  0  0
  -27.4051  -29.7281   25.4727 H   0  0  0  0  0  0
  -27.8816  -30.4310   23.9456 H   0  0  0  0  0  0
  -27.2687  -33.3640   26.2025 H   0  0  0  0  0  0
  -28.3861  -32.6841   25.0291 H   0  0  0  0  0  0
  -28.0717  -31.8460   26.5404 H   0  0  0  0  0  0
  -28.2644  -38.0053   24.7455 H   0  0  0  0  0  0
  -28.1017  -36.2580   24.6411 H   0  0  0  0  0  0
  -27.2278  -37.1585   25.8888 H   0  0  0  0  0  0
  -20.9409  -29.8752   21.6855 H   0  0  0  0  0  0
  -26.0190  -38.2849   24.1340 H   0  0  0  0  0  0
  -31.7051  -17.1449   18.8157 H   0  0  0  0  0  0
  -32.1489  -19.2856   17.2580 H   0  0  0  0  0  0
  -29.6473  -20.8692   15.9870 H   0  0  0  0  0  0
  -31.3857  -21.1632   15.8914 H   0  0  0  0  0  0
  -30.2594  -22.5113   15.8965 H   0  0  0  0  0  0
  -31.7802  -22.5561   19.3594 H   0  0  0  0  0  0
  -31.4629  -23.5524   17.9496 H   0  0  0  0  0  0
  -32.5986  -22.2077   17.8590 H   0  0  0  0  0  0
  -27.7430  -24.1472   22.6604 H   0  0  0  0  0  0
  -26.4625  -24.9563   21.7657 H   0  0  0  0  0  0
  -27.6619  -25.8962   22.6534 H   0  0  0  0  0  0
  -30.5466  -17.4263   21.7377 H   0  0  0  0  0  0
  -28.8877  -17.6447   21.3211 H   0  0  0  0  0  0
  -28.7996  -22.3181   21.7112 H   0  0  0  0  0  0
  -30.1735  -22.4478   20.7403 H   0  0  0  0  0  0
  -27.3641  -23.3828   19.7611 H   0  0  0  0  0  0
  -28.8705  -23.8163   19.0397 H   0  0  0  0  0  0
  -27.9776  -20.7174   19.5466 H   0  0  0  0  0  0
  -28.4494  -20.1997   21.1179 H   0  0  0  0  0  0
  -29.5528  -22.0267   18.1254 H   0  0  0  0  0  0
  -29.4379  -25.0808   21.1866 H   0  0  0  0  0  0
  -28.7712  -15.5411   20.5874 H   0  0  0  0  0  0
  1 25  1  0  0  0
  1 30  2  0  0  0
  1 85  1  0  0  0
  2  3  1  0  0  0
  2 25  1  0  0  0
  2 86  1  0  0  0
  2 87  1  0  0  0
  3  4  1  0  0  0
  3 88  1  0  0  0
  3 89  1  0  0  0
  4  5  1  0  0  0
  4 90  1  0  0  0
  4 91  1  0  0  0
  5  6  1  0  0  0
  5 26  1  0  0  0
  5 92  1  0  0  0
  6 25  1  0  0  0
  6 93  1  0  0  0
  6 94  1  0  0  0
  7  8  2  0  0  0
  7 26  1  0  0  0
  7 29  1  0  0  0
  8  9  1  0  0  0
  8 22  1  0  0  0
  9 10  1  0  0  0
  9 27  2  0  0  0
 10 11  2  0  0  0
 10 15  1  0  0  0
 11 12  1  0  0  0
 11 95  1  0  0  0
 12 13  2  0  0  0
 12 96  1  0  0  0
 13 14  1  0  0  0
 13 31  1  0  0  0
 14 15  2  0  0  0
 14 97  1  0  0  0
 15 98  1  0  0  0
 16 17  2  0  0  0
 16 21  1  0  0  0
 16 31  1  0  0  0
 17 18  1  0  0  0
 17 99  1  0  0  0
 18 19  2  0  0  0
 18100  1  0  0  0
 19 20  1  0  0  0
 19 24  1  0  0  0
 20 21  2  0  0  0
 20101  1  0  0  0
 21 23  1  0  0  0
 22 28  1  0  0  0
 22 32  2  0  0  0
 26 27  1  0  0  0
 28102  1  0  0  0
 28103  1  0  0  0
 29104  1  0  0  0
 29105  1  0  0  0
 33 34  1  0  0  0
 33 66  1  0  0  0
 33 70  2  0  0  0
 34 36  1  0  0  0
 34 59  1  0  0  0
 34106  1  0  0  0
 35 44  2  0  0  0
 35 45  1  0  0  0
 35 68  1  0  0  0
 36 56  1  0  0  0
 36107  1  0  0  0
 37 39  1  0  0  0
 37 47  1  0  0  0
 37 66  1  0  0  0
 37108  1  0  0  0
 38 43  2  0  0  0
 38 46  1  0  0  0
 38 47  1  0  0  0
 39 64  1  0  0  0
 39 67  2  0  0  0
 40 52  1  0  0  0
 40 53  2  0  0  0
 40 58  1  0  0  0
 41109  1  0  0  0
 41110  1  0  0  0
 41111  1  0  0  0
 41 48  1  0  0  0
 42 43  1  0  0  0
 42 66  1  0  0  0
 42112  1  0  0  0
 42113  1  0  0  0
 43 44  1  0  0  0
 44114  1  0  0  0
 45 46  2  0  0  0
 45115  1  0  0  0
 46116  1  0  0  0
 47117  1  0  0  0
 47118  1  0  0  0
 48 56  1  0  0  0
 48 65  1  0  0  0
 48119  1  0  0  0
 49 50  1  0  0  0
 49 53  1  0  0  0
 49 64  1  0  0  0
 49120  1  0  0  0
 50 51  1  0  0  0
 50121  1  0  0  0
 50122  1  0  0  0
 51 52  1  0  0  0
 51123  1  0  0  0
 51124  1  0  0  0
 52125  1  0  0  0
 52126  1  0  0  0
 53 54  1  0  0  0
 54 55  2  0  0  0
 54127  1  0  0  0
 55 57  1  0  0  0
 55128  1  0  0  0
 56 69  2  0  0  0
 57 58  2  0  0  0
 57129  1  0  0  0
 58130  1  0  0  0
 59 60  1  0  0  0
 59 61  1  0  0  0
 59 62  1  0  0  0
 60131  1  0  0  0
 60132  1  0  0  0
 60133  1  0  0  0
 61134  1  0  0  0
 61135  1  0  0  0
 61136  1  0  0  0
 62137  1  0  0  0
 62138  1  0  0  0
 62139  1  0  0  0
 63 65  1  0  0  0
 63140  1  0  0  0
 63141  1  0  0  0
 63142  1  0  0  0
 64143  1  0  0  0
 65144  1  0  0  0
 68 83  1  0  0  0
 71 72  1  0  0  0
 71 73  2  0  0  0
 71145  1  0  0  0
 72 74  2  0  0  0
 72146  1  0  0  0
 73 78  1  0  0  0
 73 84  1  0  0  0
 74 82  1  0  0  0
 74 84  1  0  0  0
 75147  1  0  0  0
 75148  1  0  0  0
 75149  1  0  0  0
 75 82  1  0  0  0
 76 82  1  0  0  0
 76150  1  0  0  0
 76151  1  0  0  0
 76152  1  0  0  0
 77153  1  0  0  0
 77154  1  0  0  0
 77155  1  0  0  0
 77 83  1  0  0  0
 78 85  1  0  0  0
 78156  1  0  0  0
 78157  1  0  0  0
 79 80  1  0  0  0
 79 81  1  0  0  0
 79158  1  0  0  0
 79159  1  0  0  0
 80 83  1  0  0  0
 80160  1  0  0  0
 80161  1  0  0  0
 81 84  1  0  0  0
 81162  1  0  0  0
 81163  1  0  0  0
 82164  1  0  0  0
 83165  1  0  0  0
 85166  1  0  0  0
M  ISO  4   1 100  68 101  83 101  85 100
M  END
> <chiral flag>
0

> <version>
0

> <s_m_source_file>
/data/baiqing/PycharmProjects/Reinvent-master-3.2/result/LINK_invent/BTK/process_docking_weight1_custom_sum_contain_oxygen_bond_distance_aromatic_linkinvent_7_9_3/rearranged_h_0101.sdf

> <i_m_source_file_index>
18

> <r_mmod_Potential_Energy-OPLS-2005>
201.610321044922

> <r_mmod_Stretch_Energy-OPLS-2005>
150.13264465332

> <r_mmod_Bend_Energy-OPLS-2005>
241.919708251953

> <r_mmod_Torsional_Energy-OPLS-2005>
258.76416015625

> <r_mmod_Improper_Torsional_Energy-OPLS-2005>
5.59704923629761

> <r_mmod_Van_der_Waal_Energy-OPLS-2005>
109.858604431152

> <r_mmod_Electrostatic_Energy-OPLS-2005>
-440.330474853516

> <r_mmod_Solvation_Energy-OPLS-2005>
-212.057037353516

> <b_mmod_Minimization_Converged-OPLS-2005>
0

> <r_mmod_RMS_Derivative-OPLS-2005>
3.19967246055603

$$$$
18
                    3D
 Structure written by MMmdl.
155162  0  0  1  0            999 V2000
  -30.4296  -15.2584   20.3620 C   0  0  0  0  0  0
  -30.4380  -12.7975   19.5386 C   0  0  0  0  0  0
  -29.5373  -12.5822   18.2949 C   0  0  0  0  0  0
  -28.0841  -12.3059   18.7177 C   0  0  0  0  0  0
  -27.6135  -13.2760   19.8300 C   0  0  2  0  0  0
  -28.6449  -13.4394   20.9690 C   0  0  0  0  0  0
  -25.2385  -13.8247   20.5746 C   0  0  0  0  0  0
  -24.1734  -13.0437   20.9250 C   0  0  0  0  0  0
  -24.6393  -11.6934   20.8758 C   0  0  0  0  0  0
  -23.9087  -10.4289   21.0403 C   0  0  0  0  0  0
  -24.3631   -9.4204   21.9182 C   0  0  0  0  0  0
  -23.6300   -8.2243   22.0757 C   0  0  0  0  0  0
  -22.4282   -8.0280   21.3549 C   0  0  0  0  0  0
  -21.9920   -9.0250   20.4647 C   0  0  0  0  0  0
  -22.7256  -10.2126   20.3055 C   0  0  0  0  0  0
  -21.6855   -6.0734   22.5275 C   0  0  0  0  0  0
  -21.4019   -6.5638   23.8209 C   0  0  0  0  0  0
  -21.3661   -5.6795   24.9173 C   0  0  0  0  0  0
  -21.6043   -4.3056   24.7227 C   0  0  0  0  0  0
  -21.8818   -3.8144   23.4349 C   0  0  0  0  0  0
  -21.9191   -4.6959   22.3400 C   0  0  0  0  0  0
  -22.7751  -13.5182   21.1896 C   0  0  0  0  0  0
  -22.1659   -4.2143   21.0978 F   0  0  0  0  0  0
  -21.5630   -3.4541   25.7741 F   0  0  0  0  0  0
  -29.8840  -13.9422   20.3546 N   0  0  0  0  0  0
  -26.2817  -12.9524   20.3239 N   0  0  0  0  0  0
  -25.9331  -11.6628   20.5728 N   0  0  0  0  0  0
  -22.0415  -12.8161   22.0455 N   0  0  0  0  0  0
  -25.4024  -15.1983   20.4189 N   0  0  0  0  0  0
  -31.6350  -15.2770   20.0758 O   0  0  0  0  0  0
  -21.6649   -6.8876   21.4238 O   0  0  0  0  0  0
  -22.3424  -14.5480   20.6732 O   0  0  0  0  0  0
  -24.6615  -31.8237   23.1697 C   0  0  0  0  0  0
  -25.9299  -32.4591   23.8157 C   0  0  1  0  0  0
  -27.2191  -26.9317   20.1795 C   0  0  0  0  0  0
  -25.5977  -33.8403   24.2062 N   0  0  0  0  0  0
  -23.4754  -30.4344   21.5190 C   0  0  2  0  0  0
  -24.9299  -28.8229   20.1065 C   0  0  0  0  0  0
  -22.7651  -29.4435   22.4782 C   0  0  0  0  0  0
  -18.0313  -28.1413   22.8469 C   0  0  0  0  0  0
  -24.1491  -36.7212   23.2644 C   0  0  0  0  0  0
  -26.0427  -30.6303   21.3996 C   0  0  0  0  0  0
  -26.1101  -29.2198   20.7453 C   0  0  0  0  0  0
  -27.2449  -28.2930   20.7626 C   0  0  0  0  0  0
  -26.0138  -26.6898   19.4810 C   0  0  0  0  0  0
  -24.9075  -27.5794   19.4538 C   0  0  0  0  0  0
  -23.7141  -29.7487   20.1445 C   0  0  0  0  0  0
  -25.4131  -36.2964   24.0293 C   0  0  1  0  0  0
  -20.5935  -28.3753   23.1198 C   0  0  2  0  0  0
  -20.6798  -26.9438   22.5408 C   0  0  0  0  0  0
  -19.5772  -26.6379   21.5219 C   0  0  0  0  0  0
  -18.1948  -26.7947   22.1617 C   0  0  0  0  0  0
  -19.1574  -28.8903   23.2822 C   0  0  0  0  0  0
  -18.9491  -30.1493   23.8858 C   0  0  0  0  0  0
  -17.6487  -30.6610   24.0554 C   0  0  0  0  0  0
  -25.9100  -34.9354   23.4999 C   0  0  0  0  0  0
  -16.5377  -29.9096   23.6351 C   0  0  0  0  0  0
  -16.7297  -28.6511   23.0372 C   0  0  0  0  0  0
  -26.4554  -31.6544   25.0691 C   0  0  0  0  0  0
  -25.3678  -31.3799   26.1350 C   0  0  0  0  0  0
  -27.0453  -30.2915   24.6417 C   0  0  0  0  0  0
  -27.6046  -32.4357   25.7498 C   0  0  0  0  0  0
  -27.5569  -37.1755   24.8457 C   0  0  0  0  0  0
  -21.4320  -29.3044   22.3544 N   0  0  0  0  0  0
  -26.4268  -37.3710   23.9415 N   0  0  0  0  0  0
  -24.7477  -30.9893   22.0836 N   0  0  0  0  0  0
  -23.4202  -28.8000   23.3018 O   0  0  0  0  0  0
  -28.2296  -25.8410   20.3090 O   0  0  0  0  0  0
  -26.5706  -34.8886   22.4592 O   0  0  0  0  0  0
  -23.5688  -32.1211   23.6794 O   0  0  0  0  0  0
  -29.9166  -19.8229   22.0211 C   0  0  0  0  0  0
  -27.4273  -22.4379   21.6488 C   0  0  0  0  0  0
  -30.1794  -21.3835   19.1057 C   0  0  0  0  0  0
  -29.7321  -18.1191   20.0077 C   0  0  0  0  0  0
  -28.2056  -24.2446   19.8726 C   0  0  0  0  0  0
  -29.1321  -19.6719   20.7081 C   0  0  2  0  0  0
  -28.5932  -22.6671   20.6688 C   0  0  2  0  0  0
  -29.6508  -16.5150   20.4902 N   0  0  0  0  0  0
  -29.0093  -21.1861   19.9872 N   0  3  1  0  0  0
  -31.4601  -12.9931   19.2120 H   0  0  0  0  0  0
  -30.4953  -11.8872   20.1376 H   0  0  0  0  0  0
  -29.9148  -11.7601   17.6856 H   0  0  0  0  0  0
  -29.5702  -13.4731   17.6660 H   0  0  0  0  0  0
  -28.0370  -11.2793   19.0842 H   0  0  0  0  0  0
  -27.4171  -12.3537   17.8559 H   0  0  0  0  0  0
  -27.5323  -14.2463   19.3384 H   0  0  0  0  0  0
  -28.8042  -12.4998   21.5001 H   0  0  0  0  0  0
  -28.2845  -14.1571   21.7078 H   0  0  0  0  0  0
  -25.2775   -9.5676   22.4762 H   0  0  0  0  0  0
  -24.0004   -7.4635   22.7482 H   0  0  0  0  0  0
  -21.0850   -8.8763   19.8956 H   0  0  0  0  0  0
  -22.3707  -10.9661   19.6162 H   0  0  0  0  0  0
  -21.2015   -7.6150   23.9706 H   0  0  0  0  0  0
  -21.1487   -6.0534   25.9075 H   0  0  0  0  0  0
  -22.0595   -2.7607   23.2854 H   0  0  0  0  0  0
  -22.4060  -11.9828   22.4833 H   0  0  0  0  0  0
  -21.1025  -13.1160   22.2664 H   0  0  0  0  0  0
  -24.6310  -15.8480   20.5278 H   0  0  0  0  0  0
  -26.2415  -15.6365   20.0624 H   0  0  0  0  0  0
  -26.7366  -32.5130   23.0866 H   0  0  0  0  0  0
  -25.0103  -33.9490   25.0199 H   0  0  0  0  0  0
  -22.7893  -31.2666   21.3481 H   0  0  0  0  0  0
  -23.3767  -35.9528   23.3253 H   0  0  0  0  0  0
  -24.3572  -36.8915   22.2070 H   0  0  0  0  0  0
  -23.7235  -37.6375   23.6742 H   0  0  0  0  0  0
  -26.2185  -31.3694   20.6168 H   0  0  0  0  0  0
  -26.9049  -30.6907   22.0515 H   0  0  0  0  0  0
  -28.1335  -28.5912   21.3013 H   0  0  0  0  0  0
  -25.8794  -25.7443   18.9788 H   0  0  0  0  0  0
  -24.0111  -27.2730   18.9312 H   0  0  0  0  0  0
  -23.8642  -30.5171   19.3852 H   0  0  0  0  0  0
  -22.8246  -29.2002   19.8291 H   0  0  0  0  0  0
  -25.1325  -36.1750   25.0782 H   0  0  0  0  0  0
  -21.0025  -28.3364   24.1321 H   0  0  0  0  0  0
  -20.5697  -26.2369   23.3643 H   0  0  0  0  0  0
  -21.6662  -26.7433   22.1205 H   0  0  0  0  0  0
  -19.6943  -25.6275   21.1286 H   0  0  0  0  0  0
  -19.6725  -27.3158   20.6723 H   0  0  0  0  0  0
  -17.4227  -26.6700   21.4006 H   0  0  0  0  0  0
  -18.0334  -26.0091   22.9013 H   0  0  0  0  0  0
  -19.7967  -30.7316   24.2213 H   0  0  0  0  0  0
  -17.5043  -31.6291   24.5156 H   0  0  0  0  0  0
  -15.5378  -30.2991   23.7707 H   0  0  0  0  0  0
  -15.8688  -28.0821   22.7126 H   0  0  0  0  0  0
  -24.5893  -30.7106   25.7666 H   0  0  0  0  0  0
  -24.8829  -32.3002   26.4620 H   0  0  0  0  0  0
  -25.7910  -30.9085   27.0231 H   0  0  0  0  0  0
  -26.3118  -29.6593   24.1403 H   0  0  0  0  0  0
  -27.3972  -29.7275   25.5065 H   0  0  0  0  0  0
  -27.9057  -30.4101   23.9829 H   0  0  0  0  0  0
  -27.2621  -33.3720   26.1914 H   0  0  0  0  0  0
  -28.3941  -32.6817   25.0385 H   0  0  0  0  0  0
  -28.0615  -31.8591   26.5550 H   0  0  0  0  0  0
  -28.2535  -38.0097   24.7541 H   0  0  0  0  0  0
  -28.1109  -36.2627   24.6230 H   0  0  0  0  0  0
  -27.2291  -37.1330   25.8856 H   0  0  0  0  0  0
  -20.9571  -29.8742   21.6681 H   0  0  0  0  0  0
  -26.0106  -38.2755   24.1456 H   0  0  0  0  0  0
  -29.8777  -18.9014   22.6024 H   0  0  0  0  0  0
  -29.5350  -20.6209   22.6535 H   0  0  0  0  0  0
  -30.9664  -20.0367   21.8212 H   0  0  0  0  0  0
  -27.2454  -23.3309   22.2478 H   0  0  0  0  0  0
  -27.6069  -21.6215   22.3443 H   0  0  0  0  0  0
  -26.5044  -22.2157   21.1127 H   0  0  0  0  0  0
  -30.3415  -20.5147   18.4679 H   0  0  0  0  0  0
  -31.0825  -21.5481   19.6937 H   0  0  0  0  0  0
  -30.0395  -22.2428   18.4514 H   0  0  0  0  0  0
  -30.7925  -18.2800   19.8093 H   0  0  0  0  0  0
  -29.2872  -18.0864   19.0134 H   0  0  0  0  0  0
  -27.2268  -24.0884   19.4240 H   0  0  0  0  0  0
  -28.8711  -24.2637   19.0103 H   0  0  0  0  0  0
  -28.0998  -19.4633   20.9911 H   0  0  0  0  0  0
  -29.4681  -22.8952   21.2787 H   0  0  0  0  0  0
  -28.7180  -16.2946   20.8073 H   0  0  0  0  0  0
  -28.2581  -21.0311   19.3284 H   0  0  0  0  0  0
  1 25  1  0  0  0
  1 30  2  0  0  0
  1 78  1  0  0  0
  2  3  1  0  0  0
  2 25  1  0  0  0
  2 80  1  0  0  0
  2 81  1  0  0  0
  3  4  1  0  0  0
  3 82  1  0  0  0
  3 83  1  0  0  0
  4  5  1  0  0  0
  4 84  1  0  0  0
  4 85  1  0  0  0
  5  6  1  0  0  0
  5 26  1  0  0  0
  5 86  1  0  0  0
  6 25  1  0  0  0
  6 87  1  0  0  0
  6 88  1  0  0  0
  7  8  2  0  0  0
  7 26  1  0  0  0
  7 29  1  0  0  0
  8  9  1  0  0  0
  8 22  1  0  0  0
  9 10  1  0  0  0
  9 27  2  0  0  0
 10 11  2  0  0  0
 10 15  1  0  0  0
 11 12  1  0  0  0
 11 89  1  0  0  0
 12 13  2  0  0  0
 12 90  1  0  0  0
 13 14  1  0  0  0
 13 31  1  0  0  0
 14 15  2  0  0  0
 14 91  1  0  0  0
 15 92  1  0  0  0
 16 17  2  0  0  0
 16 21  1  0  0  0
 16 31  1  0  0  0
 17 18  1  0  0  0
 17 93  1  0  0  0
 18 19  2  0  0  0
 18 94  1  0  0  0
 19 20  1  0  0  0
 19 24  1  0  0  0
 20 21  2  0  0  0
 20 95  1  0  0  0
 21 23  1  0  0  0
 22 28  1  0  0  0
 22 32  2  0  0  0
 26 27  1  0  0  0
 28 96  1  0  0  0
 28 97  1  0  0  0
 29 98  1  0  0  0
 29 99  1  0  0  0
 33 34  1  0  0  0
 33 66  1  0  0  0
 33 70  2  0  0  0
 34 36  1  0  0  0
 34 59  1  0  0  0
 34100  1  0  0  0
 35 44  2  0  0  0
 35 45  1  0  0  0
 35 68  1  0  0  0
 36 56  1  0  0  0
 36101  1  0  0  0
 37 39  1  0  0  0
 37 47  1  0  0  0
 37 66  1  0  0  0
 37102  1  0  0  0
 38 43  2  0  0  0
 38 46  1  0  0  0
 38 47  1  0  0  0
 39 64  1  0  0  0
 39 67  2  0  0  0
 40 52  1  0  0  0
 40 53  2  0  0  0
 40 58  1  0  0  0
 41103  1  0  0  0
 41104  1  0  0  0
 41105  1  0  0  0
 41 48  1  0  0  0
 42 43  1  0  0  0
 42 66  1  0  0  0
 42106  1  0  0  0
 42107  1  0  0  0
 43 44  1  0  0  0
 44108  1  0  0  0
 45 46  2  0  0  0
 45109  1  0  0  0
 46110  1  0  0  0
 47111  1  0  0  0
 47112  1  0  0  0
 48 56  1  0  0  0
 48 65  1  0  0  0
 48113  1  0  0  0
 49 50  1  0  0  0
 49 53  1  0  0  0
 49 64  1  0  0  0
 49114  1  0  0  0
 50 51  1  0  0  0
 50115  1  0  0  0
 50116  1  0  0  0
 51 52  1  0  0  0
 51117  1  0  0  0
 51118  1  0  0  0
 52119  1  0  0  0
 52120  1  0  0  0
 53 54  1  0  0  0
 54 55  2  0  0  0
 54121  1  0  0  0
 55 57  1  0  0  0
 55122  1  0  0  0
 56 69  2  0  0  0
 57 58  2  0  0  0
 57123  1  0  0  0
 58124  1  0  0  0
 59 60  1  0  0  0
 59 61  1  0  0  0
 59 62  1  0  0  0
 60125  1  0  0  0
 60126  1  0  0  0
 60127  1  0  0  0
 61128  1  0  0  0
 61129  1  0  0  0
 61130  1  0  0  0
 62131  1  0  0  0
 62132  1  0  0  0
 62133  1  0  0  0
 63 65  1  0  0  0
 63134  1  0  0  0
 63135  1  0  0  0
 63136  1  0  0  0
 64137  1  0  0  0
 65138  1  0  0  0
 68 75  1  0  0  0
 71139  1  0  0  0
 71140  1  0  0  0
 71141  1  0  0  0
 71 76  1  0  0  0
 72142  1  0  0  0
 72143  1  0  0  0
 72144  1  0  0  0
 72 77  1  0  0  0
 73145  1  0  0  0
 73146  1  0  0  0
 73147  1  0  0  0
 73 79  1  0  0  0
 74 76  1  0  0  0
 74 78  1  0  0  0
 74148  1  0  0  0
 74149  1  0  0  0
 75 77  1  0  0  0
 75150  1  0  0  0
 75151  1  0  0  0
 76 79  1  0  0  0
 76152  1  0  0  0
 77 79  1  0  0  0
 77153  1  0  0  0
 78154  1  0  0  0
 79155  1  0  0  0
M  CHG  1  79   1
M  ISO  4   1 100  68 101  75 101  78 100
M  END
> <chiral flag>
0

> <version>
0

> <s_m_source_file>
/data/baiqing/PycharmProjects/Reinvent-master-3.2/result/LINK_invent/BTK/process_docking_weight1_custom_sum_contain_oxygen_bond_distance_aromatic_linkinvent_7_9_3/rearranged_h_0101.sdf

> <i_m_source_file_index>
19

> <r_mmod_Potential_Energy-OPLS-2005>
1180.7001953125

> <r_mmod_Stretch_Energy-OPLS-2005>
620.974853515625

> <r_mmod_Bend_Energy-OPLS-2005>
453.284576416016

> <r_mmod_Torsional_Energy-OPLS-2005>
234.818267822266

> <r_mmod_Improper_Torsional_Energy-OPLS-2005>
4.64877414703369

> <r_mmod_Van_der_Waal_Energy-OPLS-2005>
105.335655212402

> <r_mmod_Electrostatic_Energy-OPLS-2005>
-239.934204101562

> <r_mmod_Solvation_Energy-OPLS-2005>
-450.187957763672

> <b_mmod_Minimization_Converged-OPLS-2005>
0

> <r_mmod_RMS_Derivative-OPLS-2005>
0.932841897010803

$$$$
19
                    3D
 Structure written by MMmdl.
166174  0  0  1  0            999 V2000
  -30.6448  -14.5252   20.4738 C   0  0  0  0  0  0
  -30.4255  -12.3099   19.4248 C   0  0  0  0  0  0
  -29.4993  -12.4968   18.2030 C   0  0  0  0  0  0
  -28.0210  -12.3477   18.6181 C   0  0  0  0  0  0
  -27.6601  -13.1961   19.8652 C   0  0  2  0  0  0
  -28.7074  -13.0097   20.9898 C   0  0  0  0  0  0
  -25.2619  -13.8125   20.5656 C   0  0  0  0  0  0
  -24.1871  -13.0416   20.9181 C   0  0  0  0  0  0
  -24.6405  -11.6881   20.8727 C   0  0  0  0  0  0
  -23.9068  -10.4271   21.0411 C   0  0  0  0  0  0
  -24.3619   -9.4198   21.9200 C   0  0  0  0  0  0
  -23.6302   -8.2235   22.0780 C   0  0  0  0  0  0
  -22.4270   -8.0289   21.3570 C   0  0  0  0  0  0
  -21.9904   -9.0256   20.4664 C   0  0  0  0  0  0
  -22.7229  -10.2137   20.3069 C   0  0  0  0  0  0
  -21.6850   -6.0746   22.5285 C   0  0  0  0  0  0
  -21.3995   -6.5645   23.8220 C   0  0  0  0  0  0
  -21.3668   -5.6803   24.9195 C   0  0  0  0  0  0
  -21.6057   -4.3071   24.7225 C   0  0  0  0  0  0
  -21.8819   -3.8154   23.4347 C   0  0  0  0  0  0
  -21.9191   -4.6974   22.3398 C   0  0  0  0  0  0
  -22.7908  -13.5249   21.1874 C   0  0  0  0  0  0
  -22.1674   -4.2156   21.0979 F   0  0  0  0  0  0
  -21.5650   -3.4567   25.7740 F   0  0  0  0  0  0
  -30.0300  -13.3134   20.4232 N   0  0  0  0  0  0
  -26.3032  -12.9265   20.3329 N   0  0  0  0  0  0
  -25.9321  -11.6437   20.5752 N   0  0  0  0  0  0
  -22.0550  -12.8215   22.0406 N   0  0  0  0  0  0
  -25.4295  -15.1849   20.4018 N   0  0  0  0  0  0
  -31.8116  -14.7030   20.1122 O   0  0  0  0  0  0
  -21.6651   -6.8885   21.4239 O   0  0  0  0  0  0
  -22.3588  -14.5573   20.6765 O   0  0  0  0  0  0
  -24.6183  -31.8650   23.2052 C   0  0  0  0  0  0
  -25.9043  -32.4808   23.8377 C   0  0  1  0  0  0
  -27.2376  -27.4178   20.0893 C   0  0  0  0  0  0
  -25.5895  -33.8609   24.2319 N   0  0  0  0  0  0
  -23.4077  -30.4831   21.5498 C   0  0  2  0  0  0
  -24.8539  -28.9449   20.1145 C   0  0  0  0  0  0
  -22.7425  -29.4626   22.5016 C   0  0  0  0  0  0
  -18.0268  -28.1364   22.8490 C   0  0  0  0  0  0
  -24.1479  -36.7321   23.2643 C   0  0  0  0  0  0
  -25.9359  -30.8245   21.3579 C   0  0  0  0  0  0
  -26.0148  -29.4567   20.7062 C   0  0  0  0  0  0
  -27.2149  -28.7046   20.6816 C   0  0  0  0  0  0
  -26.0578  -26.9172   19.5019 C   0  0  0  0  0  0
  -24.8709  -27.6765   19.5050 C   0  0  0  0  0  0
  -23.6135  -29.8099   20.1674 C   0  0  0  0  0  0
  -25.4098  -36.3116   24.0350 C   0  0  1  0  0  0
  -20.5862  -28.3645   23.1330 C   0  0  2  0  0  0
  -20.6760  -26.9390   22.5419 C   0  0  0  0  0  0
  -19.5741  -26.6375   21.5209 C   0  0  0  0  0  0
  -18.1914  -26.7910   22.1619 C   0  0  0  0  0  0
  -19.1517  -28.8819   23.2902 C   0  0  0  0  0  0
  -18.9454  -30.1432   23.8910 C   0  0  0  0  0  0
  -17.6458  -30.6572   24.0547 C   0  0  0  0  0  0
  -25.9033  -34.9479   23.5130 C   0  0  0  0  0  0
  -16.5343  -29.9074   23.6328 C   0  0  0  0  0  0
  -16.7259  -28.6490   23.0343 C   0  0  0  0  0  0
  -26.4474  -31.6598   25.0708 C   0  0  0  0  0  0
  -25.3733  -31.3709   26.1463 C   0  0  0  0  0  0
  -27.0312  -30.3048   24.6071 C   0  0  0  0  0  0
  -27.6047  -32.4328   25.7474 C   0  0  0  0  0  0
  -27.5578  -37.1808   24.8467 C   0  0  0  0  0  0
  -21.4153  -29.3020   22.3758 N   0  0  0  0  0  0
  -26.4283  -37.3793   23.9418 N   0  0  0  0  0  0
  -24.6724  -31.0718   22.0967 N   0  0  0  0  0  0
  -23.4179  -28.8173   23.3076 O   0  0  0  0  0  0
  -28.4019  -26.6755   20.0531 O   0  0  0  0  0  0
  -26.5592  -34.8934   22.4701 O   0  0  0  0  0  0
  -23.5368  -32.1417   23.7428 O   0  0  0  0  0  0
  -29.0964  -19.8207   18.4325 C   0  0  0  0  0  0
  -28.8571  -19.2517   19.7219 C   0  0  0  0  0  0
  -29.1844  -21.1901   18.5742 C   0  0  0  0  0  0
  -28.7343  -20.3082   20.5900 C   0  0  0  0  0  0
  -29.5141  -22.2203   17.5344 C   0  0  0  0  0  0
  -28.4495  -20.2632   22.0622 C   0  0  0  0  0  0
  -27.8674  -18.6728   16.5302 C   0  0  0  0  0  0
  -29.2269  -19.0222   17.1512 C   0  0  0  0  0  0
  -28.7045  -17.7567   20.0571 C   0  0  0  0  0  0
  -28.6628  -24.1669   19.7635 C   0  0  0  0  0  0
  -28.7880  -22.8415   20.5761 C   0  0  0  0  0  0
  -30.0310  -16.9852   20.3463 C   0  0  0  0  0  0
  -28.3524  -25.3793   20.6853 C   0  0  0  0  0  0
  -28.8881  -21.5163   19.9009 N   0  0  0  0  0  0
  -29.8069  -15.5612   20.6897 N   0  0  0  0  0  0
  -31.4742  -12.3982   19.1366 H   0  0  0  0  0  0
  -30.3173  -11.3062   19.8399 H   0  0  0  0  0  0
  -29.7451  -11.7678   17.4287 H   0  0  0  0  0  0
  -29.6566  -13.4818   17.7552 H   0  0  0  0  0  0
  -27.8438  -11.2919   18.8256 H   0  0  0  0  0  0
  -27.3676  -12.6101   17.7841 H   0  0  0  0  0  0
  -27.6882  -14.2355   19.5418 H   0  0  0  0  0  0
  -28.6939  -11.9865   21.3669 H   0  0  0  0  0  0
  -28.4807  -13.6433   21.8493 H   0  0  0  0  0  0
  -25.2780   -9.5706   22.4757 H   0  0  0  0  0  0
  -24.0055   -7.4619   22.7478 H   0  0  0  0  0  0
  -21.0871   -8.8746   19.8924 H   0  0  0  0  0  0
  -22.3706  -10.9679   19.6179 H   0  0  0  0  0  0
  -21.1962   -7.6151   23.9718 H   0  0  0  0  0  0
  -21.1506   -6.0546   25.9099 H   0  0  0  0  0  0
  -22.0582   -2.7611   23.2844 H   0  0  0  0  0  0
  -22.4168  -11.9850   22.4748 H   0  0  0  0  0  0
  -21.1167  -13.1228   22.2609 H   0  0  0  0  0  0
  -24.6511  -15.8292   20.5023 H   0  0  0  0  0  0
  -26.2641  -15.6220   20.0346 H   0  0  0  0  0  0
  -26.7110  -32.5515   23.1137 H   0  0  0  0  0  0
  -25.0038  -33.9766   25.0456 H   0  0  0  0  0  0
  -22.6974  -31.3004   21.4075 H   0  0  0  0  0  0
  -23.3744  -35.9651   23.3313 H   0  0  0  0  0  0
  -24.3575  -36.8926   22.2053 H   0  0  0  0  0  0
  -23.7220  -37.6528   23.6651 H   0  0  0  0  0  0
  -26.0409  -31.5851   20.5837 H   0  0  0  0  0  0
  -26.8258  -30.8847   21.9724 H   0  0  0  0  0  0
  -28.1176  -29.0978   21.1256 H   0  0  0  0  0  0
  -26.0578  -25.9427   19.0336 H   0  0  0  0  0  0
  -23.9810  -27.2772   19.0381 H   0  0  0  0  0  0
  -23.7148  -30.5806   19.4030 H   0  0  0  0  0  0
  -22.7387  -29.2253   19.8770 H   0  0  0  0  0  0
  -25.1267  -36.1991   25.0844 H   0  0  0  0  0  0
  -20.9932  -28.3187   24.1453 H   0  0  0  0  0  0
  -20.5658  -26.2248   23.3595 H   0  0  0  0  0  0
  -21.6630  -26.7418   22.1214 H   0  0  0  0  0  0
  -19.6906  -25.6291   21.1224 H   0  0  0  0  0  0
  -19.6684  -27.3202   20.6756 H   0  0  0  0  0  0
  -17.4191  -26.6671   21.4007 H   0  0  0  0  0  0
  -18.0299  -26.0029   22.8992 H   0  0  0  0  0  0
  -19.7927  -30.7230   24.2291 H   0  0  0  0  0  0
  -17.5010  -31.6254   24.5144 H   0  0  0  0  0  0
  -15.5348  -30.2972   23.7642 H   0  0  0  0  0  0
  -15.8655  -28.0804   22.7059 H   0  0  0  0  0  0
  -24.5890  -30.7073   25.7804 H   0  0  0  0  0  0
  -24.8939  -32.2864   26.4932 H   0  0  0  0  0  0
  -25.8070  -30.8858   27.0209 H   0  0  0  0  0  0
  -26.2844  -29.6796   24.1146 H   0  0  0  0  0  0
  -27.4137  -29.7293   25.4511 H   0  0  0  0  0  0
  -27.8655  -30.4408   23.9180 H   0  0  0  0  0  0
  -27.2657  -33.3614   26.2080 H   0  0  0  0  0  0
  -28.3824  -32.6910   25.0269 H   0  0  0  0  0  0
  -28.0748  -31.8434   26.5351 H   0  0  0  0  0  0
  -28.2604  -38.0096   24.7513 H   0  0  0  0  0  0
  -28.1068  -36.2631   24.6292 H   0  0  0  0  0  0
  -27.2308  -37.1461   25.8873 H   0  0  0  0  0  0
  -20.9338  -29.8746   21.6981 H   0  0  0  0  0  0
  -26.0193  -38.2889   24.1393 H   0  0  0  0  0  0
  -29.7899  -21.7645   16.5853 H   0  0  0  0  0  0
  -30.3681  -22.8281   17.8381 H   0  0  0  0  0  0
  -28.6658  -22.8737   17.3354 H   0  0  0  0  0  0
  -28.9045  -19.3831   22.5150 H   0  0  0  0  0  0
  -27.3731  -20.2141   22.2389 H   0  0  0  0  0  0
  -28.8457  -21.1269   22.5957 H   0  0  0  0  0  0
  -27.3397  -19.5682   16.2027 H   0  0  0  0  0  0
  -27.2245  -18.1525   17.2391 H   0  0  0  0  0  0
  -27.9943  -18.0298   15.6577 H   0  0  0  0  0  0
  -29.7744  -18.1051   17.3656 H   0  0  0  0  0  0
  -29.8274  -19.5592   16.4205 H   0  0  0  0  0  0
  -28.1789  -17.2792   19.2283 H   0  0  0  0  0  0
  -28.0308  -17.6654   20.9104 H   0  0  0  0  0  0
  -27.8793  -24.0902   19.0127 H   0  0  0  0  0  0
  -29.5987  -24.3627   19.2440 H   0  0  0  0  0  0
  -27.9129  -22.7960   21.2263 H   0  0  0  0  0  0
  -29.6483  -22.9339   21.2390 H   0  0  0  0  0  0
  -30.5746  -17.4634   21.1620 H   0  0  0  0  0  0
  -30.6778  -17.0539   19.4701 H   0  0  0  0  0  0
  -29.1042  -25.4046   21.4739 H   0  0  0  0  0  0
  -27.4025  -25.2171   21.1984 H   0  0  0  0  0  0
  -28.8716  -15.3033   20.9675 H   0  0  0  0  0  0
  1 25  1  0  0  0
  1 30  2  0  0  0
  1 85  1  0  0  0
  2  3  1  0  0  0
  2 25  1  0  0  0
  2 86  1  0  0  0
  2 87  1  0  0  0
  3  4  1  0  0  0
  3 88  1  0  0  0
  3 89  1  0  0  0
  4  5  1  0  0  0
  4 90  1  0  0  0
  4 91  1  0  0  0
  5  6  1  0  0  0
  5 26  1  0  0  0
  5 92  1  0  0  0
  6 25  1  0  0  0
  6 93  1  0  0  0
  6 94  1  0  0  0
  7  8  2  0  0  0
  7 26  1  0  0  0
  7 29  1  0  0  0
  8  9  1  0  0  0
  8 22  1  0  0  0
  9 10  1  0  0  0
  9 27  2  0  0  0
 10 11  2  0  0  0
 10 15  1  0  0  0
 11 12  1  0  0  0
 11 95  1  0  0  0
 12 13  2  0  0  0
 12 96  1  0  0  0
 13 14  1  0  0  0
 13 31  1  0  0  0
 14 15  2  0  0  0
 14 97  1  0  0  0
 15 98  1  0  0  0
 16 17  2  0  0  0
 16 21  1  0  0  0
 16 31  1  0  0  0
 17 18  1  0  0  0
 17 99  1  0  0  0
 18 19  2  0  0  0
 18100  1  0  0  0
 19 20  1  0  0  0
 19 24  1  0  0  0
 20 21  2  0  0  0
 20101  1  0  0  0
 21 23  1  0  0  0
 22 28  1  0  0  0
 22 32  2  0  0  0
 26 27  1  0  0  0
 28102  1  0  0  0
 28103  1  0  0  0
 29104  1  0  0  0
 29105  1  0  0  0
 33 34  1  0  0  0
 33 66  1  0  0  0
 33 70  2  0  0  0
 34 36  1  0  0  0
 34 59  1  0  0  0
 34106  1  0  0  0
 35 44  2  0  0  0
 35 45  1  0  0  0
 35 68  1  0  0  0
 36 56  1  0  0  0
 36107  1  0  0  0
 37 39  1  0  0  0
 37 47  1  0  0  0
 37 66  1  0  0  0
 37108  1  0  0  0
 38 43  2  0  0  0
 38 46  1  0  0  0
 38 47  1  0  0  0
 39 64  1  0  0  0
 39 67  2  0  0  0
 40 52  1  0  0  0
 40 53  2  0  0  0
 40 58  1  0  0  0
 41109  1  0  0  0
 41110  1  0  0  0
 41111  1  0  0  0
 41 48  1  0  0  0
 42 43  1  0  0  0
 42 66  1  0  0  0
 42112  1  0  0  0
 42113  1  0  0  0
 43 44  1  0  0  0
 44114  1  0  0  0
 45 46  2  0  0  0
 45115  1  0  0  0
 46116  1  0  0  0
 47117  1  0  0  0
 47118  1  0  0  0
 48 56  1  0  0  0
 48 65  1  0  0  0
 48119  1  0  0  0
 49 50  1  0  0  0
 49 53  1  0  0  0
 49 64  1  0  0  0
 49120  1  0  0  0
 50 51  1  0  0  0
 50121  1  0  0  0
 50122  1  0  0  0
 51 52  1  0  0  0
 51123  1  0  0  0
 51124  1  0  0  0
 52125  1  0  0  0
 52126  1  0  0  0
 53 54  1  0  0  0
 54 55  2  0  0  0
 54127  1  0  0  0
 55 57  1  0  0  0
 55128  1  0  0  0
 56 69  2  0  0  0
 57 58  2  0  0  0
 57129  1  0  0  0
 58130  1  0  0  0
 59 60  1  0  0  0
 59 61  1  0  0  0
 59 62  1  0  0  0
 60131  1  0  0  0
 60132  1  0  0  0
 60133  1  0  0  0
 61134  1  0  0  0
 61135  1  0  0  0
 61136  1  0  0  0
 62137  1  0  0  0
 62138  1  0  0  0
 62139  1  0  0  0
 63 65  1  0  0  0
 63140  1  0  0  0
 63141  1  0  0  0
 63142  1  0  0  0
 64143  1  0  0  0
 65144  1  0  0  0
 68 83  1  0  0  0
 71 72  1  0  0  0
 71 73  2  0  0  0
 71 78  1  0  0  0
 72 74  2  0  0  0
 72 79  1  0  0  0
 73 75  1  0  0  0
 73 84  1  0  0  0
 74 76  1  0  0  0
 74 84  1  0  0  0
 75145  1  0  0  0
 75146  1  0  0  0
 75147  1  0  0  0
 76148  1  0  0  0
 76149  1  0  0  0
 76150  1  0  0  0
 77 78  1  0  0  0
 77151  1  0  0  0
 77152  1  0  0  0
 77153  1  0  0  0
 78154  1  0  0  0
 78155  1  0  0  0
 79 82  1  0  0  0
 79156  1  0  0  0
 79157  1  0  0  0
 80 81  1  0  0  0
 80 83  1  0  0  0
 80158  1  0  0  0
 80159  1  0  0  0
 81 84  1  0  0  0
 81160  1  0  0  0
 81161  1  0  0  0
 82 85  1  0  0  0
 82162  1  0  0  0
 82163  1  0  0  0
 83164  1  0  0  0
 83165  1  0  0  0
 85166  1  0  0  0
M  ISO  4   1 100  68 101  83 101  85 100
M  END
> <chiral flag>
0

> <version>
0

> <s_m_source_file>
/data/baiqing/PycharmProjects/Reinvent-master-3.2/result/LINK_invent/BTK/process_docking_weight1_custom_sum_contain_oxygen_bond_distance_aromatic_linkinvent_7_9_3/rearranged_h_0101.sdf

> <i_m_source_file_index>
20

> <r_mmod_Potential_Energy-OPLS-2005>
-113.113464355469

> <r_mmod_Stretch_Energy-OPLS-2005>
43.2987747192383

> <r_mmod_Bend_Energy-OPLS-2005>
114.018775939941

> <r_mmod_Torsional_Energy-OPLS-2005>
236.200729370117

> <r_mmod_Improper_Torsional_Energy-OPLS-2005>
7.09720849990845

> <r_mmod_Van_der_Waal_Energy-OPLS-2005>
121.712211608887

> <r_mmod_Electrostatic_Energy-OPLS-2005>
-443.028411865234

> <r_mmod_Solvation_Energy-OPLS-2005>
-211.977752685547

> <b_mmod_Minimization_Converged-OPLS-2005>
0

> <r_mmod_RMS_Derivative-OPLS-2005>
3.67542767524719

$$$$
20
                    3D
 Structure written by MMmdl.
170178  0  0  1  0            999 V2000
  -30.7938  -14.3357   20.7390 C   0  0  0  0  0  0
  -30.4143  -12.3020   19.3839 C   0  0  0  0  0  0
  -29.4779  -12.5390   18.1881 C   0  0  0  0  0  0
  -28.0057  -12.3850   18.6107 C   0  0  0  0  0  0
  -27.6675  -13.2023   19.8847 C   0  0  2  0  0  0
  -28.7073  -12.9383   20.9955 C   0  0  0  0  0  0
  -25.2608  -13.8155   20.5685 C   0  0  0  0  0  0
  -24.1848  -13.0447   20.9164 C   0  0  0  0  0  0
  -24.6389  -11.6907   20.8727 C   0  0  0  0  0  0
  -23.9050  -10.4299   21.0396 C   0  0  0  0  0  0
  -24.3605   -9.4214   21.9174 C   0  0  0  0  0  0
  -23.6287   -8.2247   22.0749 C   0  0  0  0  0  0
  -22.4262   -8.0280   21.3541 C   0  0  0  0  0  0
  -21.9899   -9.0252   20.4641 C   0  0  0  0  0  0
  -22.7222  -10.2135   20.3047 C   0  0  0  0  0  0
  -21.6854   -6.0733   22.5278 C   0  0  0  0  0  0
  -21.4016   -6.5639   23.8211 C   0  0  0  0  0  0
  -21.3656   -5.6789   24.9175 C   0  0  0  0  0  0
  -21.6049   -4.3055   24.7226 C   0  0  0  0  0  0
  -21.8819   -3.8145   23.4346 C   0  0  0  0  0  0
  -21.9193   -4.6958   22.3402 C   0  0  0  0  0  0
  -22.7864  -13.5240   21.1839 C   0  0  0  0  0  0
  -22.1661   -4.2147   21.0979 F   0  0  0  0  0  0
  -21.5628   -3.4537   25.7738 F   0  0  0  0  0  0
  -30.0438  -13.2389   20.4550 N   0  0  0  0  0  0
  -26.3055  -12.9324   20.3414 N   0  0  0  0  0  0
  -25.9319  -11.6485   20.5765 N   0  0  0  0  0  0
  -22.0507  -12.8234   22.0393 N   0  0  0  0  0  0
  -25.4357  -15.1871   20.4092 N   0  0  0  0  0  0
  -31.7888  -14.6308   20.0683 O   0  0  0  0  0  0
  -21.6635   -6.8868   21.4236 O   0  0  0  0  0  0
  -22.3553  -14.5551   20.6689 O   0  0  0  0  0  0
  -24.6089  -31.8721   23.2127 C   0  0  0  0  0  0
  -25.9014  -32.4831   23.8411 C   0  0  1  0  0  0
  -27.2461  -27.4854   20.0914 C   0  0  0  0  0  0
  -25.5901  -33.8630   24.2338 N   0  0  0  0  0  0
  -23.3944  -30.4945   21.5510 C   0  0  2  0  0  0
  -24.8446  -28.9637   20.1090 C   0  0  0  0  0  0
  -22.7389  -29.4668   22.4992 C   0  0  0  0  0  0
  -18.0274  -28.1353   22.8467 C   0  0  0  0  0  0
  -24.1483  -36.7328   23.2616 C   0  0  0  0  0  0
  -25.9160  -30.8496   21.3595 C   0  0  0  0  0  0
  -25.9951  -29.4847   20.7137 C   0  0  0  0  0  0
  -27.1943  -28.7464   20.7161 C   0  0  0  0  0  0
  -26.0855  -26.9619   19.4832 C   0  0  0  0  0  0
  -24.8813  -27.6959   19.4957 C   0  0  0  0  0  0
  -23.6024  -29.8244   20.1635 C   0  0  0  0  0  0
  -25.4089  -36.3110   24.0328 C   0  0  1  0  0  0
  -20.5852  -28.3645   23.1312 C   0  0  2  0  0  0
  -20.6748  -26.9378   22.5413 C   0  0  0  0  0  0
  -19.5748  -26.6367   21.5185 C   0  0  0  0  0  0
  -18.1931  -26.7899   22.1590 C   0  0  0  0  0  0
  -19.1510  -28.8810   23.2886 C   0  0  0  0  0  0
  -18.9449  -30.1414   23.8895 C   0  0  0  0  0  0
  -17.6447  -30.6557   24.0541 C   0  0  0  0  0  0
  -25.9035  -34.9477   23.5129 C   0  0  0  0  0  0
  -16.5344  -29.9064   23.6304 C   0  0  0  0  0  0
  -16.7258  -28.6483   23.0317 C   0  0  0  0  0  0
  -26.4448  -31.6586   25.0720 C   0  0  0  0  0  0
  -25.3724  -31.3691   26.1480 C   0  0  0  0  0  0
  -27.0265  -30.3037   24.6065 C   0  0  0  0  0  0
  -27.6053  -32.4280   25.7463 C   0  0  0  0  0  0
  -27.5594  -37.1788   24.8432 C   0  0  0  0  0  0
  -21.4117  -29.3026   22.3725 N   0  0  0  0  0  0
  -26.4264  -37.3806   23.9435 N   0  0  0  0  0  0
  -24.6578  -31.0867   22.1004 N   0  0  0  0  0  0
  -23.4172  -28.8232   23.3035 O   0  0  0  0  0  0
  -28.4186  -26.7791   20.1430 O   0  0  0  0  0  0
  -26.5591  -34.8921   22.4690 O   0  0  0  0  0  0
  -23.5311  -32.1448   23.7582 O   0  0  0  0  0  0
  -31.4042  -21.1449   20.2916 C   0  0  0  0  0  0
  -30.9898  -22.2597   19.5354 C   0  0  0  0  0  0
  -30.5514  -20.7964   17.6513 C   0  0  0  0  0  0
  -31.3920  -19.8448   19.7372 C   0  0  0  0  0  0
  -31.0085  -19.6829   18.3816 C   0  0  0  0  0  0
  -30.5211  -22.0849   18.2122 C   0  0  0  0  0  0
  -31.0700  -18.3449   17.6671 C   0  0  0  0  0  0
  -30.8193  -14.4662   23.2633 C   0  0  0  0  0  0
  -29.3325  -18.2129   21.2125 C   0  0  0  0  0  0
  -31.8033  -18.6630   20.6164 C   0  0  0  0  0  0
  -29.0415  -24.8870   18.7638 C   0  0  0  0  0  0
  -31.1623  -16.5994   21.9558 C   0  0  0  0  0  0
  -29.0177  -26.4135   18.9118 C   0  0  0  0  0  0
  -30.1450  -24.4443   17.7882 C   0  0  0  0  0  0
  -30.4487  -15.2176   21.9669 C   0  0  1  0  0  0
  -30.7030  -17.5972   20.8675 C   0  0  1  0  0  0
  -30.0273  -23.0819   17.3997 O   0  0  0  0  0  0
  -31.4551  -12.4070   19.0733 H   0  0  0  0  0  0
  -30.3219  -11.2764   19.7447 H   0  0  0  0  0  0
  -29.7128  -11.8419   17.3831 H   0  0  0  0  0  0
  -29.6436  -13.5401   17.7878 H   0  0  0  0  0  0
  -27.8181  -11.3255   18.7888 H   0  0  0  0  0  0
  -27.3480  -12.6755   17.7909 H   0  0  0  0  0  0
  -27.7287  -14.2573   19.6183 H   0  0  0  0  0  0
  -28.6712  -11.8927   21.3053 H   0  0  0  0  0  0
  -28.4498  -13.5047   21.8877 H   0  0  0  0  0  0
  -25.2750   -9.5699   22.4747 H   0  0  0  0  0  0
  -24.0003   -7.4639   22.7469 H   0  0  0  0  0  0
  -21.0831   -8.8763   19.8944 H   0  0  0  0  0  0
  -22.3673  -10.9672   19.6158 H   0  0  0  0  0  0
  -21.2008   -7.6147   23.9716 H   0  0  0  0  0  0
  -21.1480   -6.0520   25.9079 H   0  0  0  0  0  0
  -22.0602   -2.7607   23.2848 H   0  0  0  0  0  0
  -22.4117  -11.9892   22.4780 H   0  0  0  0  0  0
  -21.1125  -13.1266   22.2599 H   0  0  0  0  0  0
  -24.6763  -15.8497   20.5181 H   0  0  0  0  0  0
  -26.3000  -15.6220   20.1120 H   0  0  0  0  0  0
  -26.7101  -32.5561   23.1206 H   0  0  0  0  0  0
  -25.0039  -33.9781   25.0476 H   0  0  0  0  0  0
  -22.6784  -31.3078   21.4148 H   0  0  0  0  0  0
  -23.3728  -35.9680   23.3279 H   0  0  0  0  0  0
  -24.3575  -36.8955   22.2032 H   0  0  0  0  0  0
  -23.7286  -37.6546   23.6647 H   0  0  0  0  0  0
  -26.0171  -31.6124   20.5862 H   0  0  0  0  0  0
  -26.8081  -30.9101   21.9707 H   0  0  0  0  0  0
  -28.0808  -29.1406   21.1941 H   0  0  0  0  0  0
  -26.1102  -25.9859   19.0200 H   0  0  0  0  0  0
  -23.9959  -27.2849   19.0291 H   0  0  0  0  0  0
  -23.7045  -30.5992   19.4028 H   0  0  0  0  0  0
  -22.7291  -29.2399   19.8691 H   0  0  0  0  0  0
  -25.1265  -36.1947   25.0819 H   0  0  0  0  0  0
  -20.9918  -28.3220   24.1437 H   0  0  0  0  0  0
  -20.5632  -26.2244   23.3593 H   0  0  0  0  0  0
  -21.6631  -26.7418   22.1228 H   0  0  0  0  0  0
  -19.6893  -25.6284   21.1210 H   0  0  0  0  0  0
  -19.6696  -27.3164   20.6712 H   0  0  0  0  0  0
  -17.4195  -26.6631   21.3998 H   0  0  0  0  0  0
  -18.0343  -26.0029   22.8976 H   0  0  0  0  0  0
  -19.7932  -30.7216   24.2264 H   0  0  0  0  0  0
  -17.5023  -31.6240   24.5148 H   0  0  0  0  0  0
  -15.5348  -30.2966   23.7640 H   0  0  0  0  0  0
  -15.8660  -28.0829   22.6999 H   0  0  0  0  0  0
  -24.5911  -30.7013   25.7846 H   0  0  0  0  0  0
  -24.8877  -32.2833   26.4908 H   0  0  0  0  0  0
  -25.8081  -30.8899   27.0251 H   0  0  0  0  0  0
  -26.2811  -29.6819   24.1100 H   0  0  0  0  0  0
  -27.4028  -29.7252   25.4505 H   0  0  0  0  0  0
  -27.8639  -30.4355   23.9208 H   0  0  0  0  0  0
  -27.2705  -33.3569   26.2073 H   0  0  0  0  0  0
  -28.3832  -32.6845   25.0266 H   0  0  0  0  0  0
  -28.0740  -31.8370   26.5335 H   0  0  0  0  0  0
  -28.2532  -38.0170   24.7610 H   0  0  0  0  0  0
  -28.1172  -36.2713   24.6068 H   0  0  0  0  0  0
  -27.2328  -37.1211   25.8830 H   0  0  0  0  0  0
  -20.9266  -29.8762   21.6968 H   0  0  0  0  0  0
  -26.0139  -38.2862   24.1519 H   0  0  0  0  0  0
  -31.7326  -21.3007   21.3108 H   0  0  0  0  0  0
  -31.0270  -23.2315   20.0048 H   0  0  0  0  0  0
  -30.2218  -20.6678   16.6308 H   0  0  0  0  0  0
  -31.3206  -18.4910   16.6158 H   0  0  0  0  0  0
  -30.1051  -17.8401   17.7163 H   0  0  0  0  0  0
  -31.8328  -17.6882   18.0831 H   0  0  0  0  0  0
  -30.5076  -15.0244   24.1467 H   0  0  0  0  0  0
  -31.8974  -14.3102   23.3356 H   0  0  0  0  0  0
  -30.3455  -13.4863   23.3204 H   0  0  0  0  0  0
  -28.9598  -18.8494   20.4090 H   0  0  0  0  0  0
  -29.3870  -18.8208   22.1162 H   0  0  0  0  0  0
  -28.5769  -17.4451   21.3742 H   0  0  0  0  0  0
  -32.1354  -19.0513   21.5805 H   0  0  0  0  0  0
  -32.6861  -18.1931   20.1816 H   0  0  0  0  0  0
  -28.0660  -24.5390   18.4257 H   0  0  0  0  0  0
  -29.2056  -24.4348   19.7411 H   0  0  0  0  0  0
  -32.2369  -16.4325   21.8603 H   0  0  0  0  0  0
  -31.0424  -17.0769   22.9296 H   0  0  0  0  0  0
  -28.5462  -26.8900   18.0503 H   0  0  0  0  0  0
  -30.0409  -26.7910   18.9468 H   0  0  0  0  0  0
  -31.1382  -24.6592   18.1851 H   0  0  0  0  0  0
  -30.0545  -25.0313   16.8732 H   0  0  0  0  0  0
  -29.3787  -15.4104   21.9713 H   0  0  0  0  0  0
  -30.5703  -17.0454   19.9409 H   0  0  0  0  0  0
  1 25  1  0  0  0
  1 30  2  0  0  0
  1 85  1  0  0  0
  2  3  1  0  0  0
  2 25  1  0  0  0
  2 88  1  0  0  0
  2 89  1  0  0  0
  3  4  1  0  0  0
  3 90  1  0  0  0
  3 91  1  0  0  0
  4  5  1  0  0  0
  4 92  1  0  0  0
  4 93  1  0  0  0
  5  6  1  0  0  0
  5 26  1  0  0  0
  5 94  1  0  0  0
  6 25  1  0  0  0
  6 95  1  0  0  0
  6 96  1  0  0  0
  7  8  2  0  0  0
  7 26  1  0  0  0
  7 29  1  0  0  0
  8  9  1  0  0  0
  8 22  1  0  0  0
  9 10  1  0  0  0
  9 27  2  0  0  0
 10 11  2  0  0  0
 10 15  1  0  0  0
 11 12  1  0  0  0
 11 97  1  0  0  0
 12 13  2  0  0  0
 12 98  1  0  0  0
 13 14  1  0  0  0
 13 31  1  0  0  0
 14 15  2  0  0  0
 14 99  1  0  0  0
 15100  1  0  0  0
 16 17  2  0  0  0
 16 21  1  0  0  0
 16 31  1  0  0  0
 17 18  1  0  0  0
 17101  1  0  0  0
 18 19  2  0  0  0
 18102  1  0  0  0
 19 20  1  0  0  0
 19 24  1  0  0  0
 20 21  2  0  0  0
 20103  1  0  0  0
 21 23  1  0  0  0
 22 28  1  0  0  0
 22 32  2  0  0  0
 26 27  1  0  0  0
 28104  1  0  0  0
 28105  1  0  0  0
 29106  1  0  0  0
 29107  1  0  0  0
 33 34  1  0  0  0
 33 66  1  0  0  0
 33 70  2  0  0  0
 34 36  1  0  0  0
 34 59  1  0  0  0
 34108  1  0  0  0
 35 44  2  0  0  0
 35 45  1  0  0  0
 35 68  1  0  0  0
 36 56  1  0  0  0
 36109  1  0  0  0
 37 39  1  0  0  0
 37 47  1  0  0  0
 37 66  1  0  0  0
 37110  1  0  0  0
 38 43  2  0  0  0
 38 46  1  0  0  0
 38 47  1  0  0  0
 39 64  1  0  0  0
 39 67  2  0  0  0
 40 52  1  0  0  0
 40 53  2  0  0  0
 40 58  1  0  0  0
 41111  1  0  0  0
 41112  1  0  0  0
 41113  1  0  0  0
 41 48  1  0  0  0
 42 43  1  0  0  0
 42 66  1  0  0  0
 42114  1  0  0  0
 42115  1  0  0  0
 43 44  1  0  0  0
 44116  1  0  0  0
 45 46  2  0  0  0
 45117  1  0  0  0
 46118  1  0  0  0
 47119  1  0  0  0
 47120  1  0  0  0
 48 56  1  0  0  0
 48 65  1  0  0  0
 48121  1  0  0  0
 49 50  1  0  0  0
 49 53  1  0  0  0
 49 64  1  0  0  0
 49122  1  0  0  0
 50 51  1  0  0  0
 50123  1  0  0  0
 50124  1  0  0  0
 51 52  1  0  0  0
 51125  1  0  0  0
 51126  1  0  0  0
 52127  1  0  0  0
 52128  1  0  0  0
 53 54  1  0  0  0
 54 55  2  0  0  0
 54129  1  0  0  0
 55 57  1  0  0  0
 55130  1  0  0  0
 56 69  2  0  0  0
 57 58  2  0  0  0
 57131  1  0  0  0
 58132  1  0  0  0
 59 60  1  0  0  0
 59 61  1  0  0  0
 59 62  1  0  0  0
 60133  1  0  0  0
 60134  1  0  0  0
 60135  1  0  0  0
 61136  1  0  0  0
 61137  1  0  0  0
 61138  1  0  0  0
 62139  1  0  0  0
 62140  1  0  0  0
 62141  1  0  0  0
 63 65  1  0  0  0
 63142  1  0  0  0
 63143  1  0  0  0
 63144  1  0  0  0
 64145  1  0  0  0
 65146  1  0  0  0
 68 83  1  0  0  0
 71 72  2  0  0  0
 71 74  1  0  0  0
 71147  1  0  0  0
 72 76  1  0  0  0
 72148  1  0  0  0
 73 75  1  0  0  0
 73 76  2  0  0  0
 73149  1  0  0  0
 74 75  2  0  0  0
 74 80  1  0  0  0
 75 77  1  0  0  0
 76 87  1  0  0  0
 77150  1  0  0  0
 77151  1  0  0  0
 77152  1  0  0  0
 78153  1  0  0  0
 78154  1  0  0  0
 78155  1  0  0  0
 78 85  1  0  0  0
 79156  1  0  0  0
 79157  1  0  0  0
 79158  1  0  0  0
 79 86  1  0  0  0
 80 86  1  0  0  0
 80159  1  0  0  0
 80160  1  0  0  0
 81 83  1  0  0  0
 81 84  1  0  0  0
 81161  1  0  0  0
 81162  1  0  0  0
 82 85  1  0  0  0
 82 86  1  0  0  0
 82163  1  0  0  0
 82164  1  0  0  0
 83165  1  0  0  0
 83166  1  0  0  0
 84 87  1  0  0  0
 84167  1  0  0  0
 84168  1  0  0  0
 85169  1  0  0  0
 86170  1  0  0  0
M  ISO  4   1 100  68 101  83 101  85 100
M  END
> <chiral flag>
0

> <version>
0

> <s_m_source_file>
/data/baiqing/PycharmProjects/Reinvent-master-3.2/result/LINK_invent/BTK/process_docking_weight1_custom_sum_contain_oxygen_bond_distance_aromatic_linkinvent_7_9_3/rearranged_h_0101.sdf

> <i_m_source_file_index>
21

> <r_mmod_Potential_Energy-OPLS-2005>
-4.23700284957886

> <r_mmod_Stretch_Energy-OPLS-2005>
34.3469085693359

> <r_mmod_Bend_Energy-OPLS-2005>
108.942916870117

> <r_mmod_Torsional_Energy-OPLS-2005>
196.59553527832

> <r_mmod_Improper_Torsional_Energy-OPLS-2005>
1.62233984470367

> <r_mmod_Van_der_Waal_Energy-OPLS-2005>
155.349822998047

> <r_mmod_Electrostatic_Energy-OPLS-2005>
-328.39990234375

> <r_mmod_Solvation_Energy-OPLS-2005>
-181.555313110352

> <b_mmod_Minimization_Converged-OPLS-2005>
0

> <r_mmod_RMS_Derivative-OPLS-2005>
2.59381103515625

$$$$
21
                    3D
 Structure written by MMmdl.
169177  0  0  1  0            999 V2000
  -30.6652  -14.6304   20.5791 C   0  0  0  0  0  0
  -30.4165  -12.4158   19.4545 C   0  0  0  0  0  0
  -29.4928  -12.5500   18.2254 C   0  0  0  0  0  0
  -28.0195  -12.3630   18.6335 C   0  0  0  0  0  0
  -27.6423  -13.2281   19.8657 C   0  0  2  0  0  0
  -28.6838  -13.0962   20.9977 C   0  0  0  0  0  0
  -25.2491  -13.8205   20.5713 C   0  0  0  0  0  0
  -24.1793  -13.0438   20.9228 C   0  0  0  0  0  0
  -24.6361  -11.6919   20.8697 C   0  0  0  0  0  0
  -23.9034  -10.4299   21.0314 C   0  0  0  0  0  0
  -24.3584   -9.4231   21.9115 C   0  0  0  0  0  0
  -23.6288   -8.2257   22.0712 C   0  0  0  0  0  0
  -22.4277   -8.0263   21.3522 C   0  0  0  0  0  0
  -21.9879   -9.0213   20.4618 C   0  0  0  0  0  0
  -22.7172  -10.2119   20.2998 C   0  0  0  0  0  0
  -21.6872   -6.0723   22.5293 C   0  0  0  0  0  0
  -21.4003   -6.5629   23.8232 C   0  0  0  0  0  0
  -21.3669   -5.6776   24.9198 C   0  0  0  0  0  0
  -21.6077   -4.3043   24.7225 C   0  0  0  0  0  0
  -21.8815   -3.8132   23.4339 C   0  0  0  0  0  0
  -21.9182   -4.6952   22.3397 C   0  0  0  0  0  0
  -22.7823  -13.5208   21.1916 C   0  0  0  0  0  0
  -22.1658   -4.2155   21.0970 F   0  0  0  0  0  0
  -21.5651   -3.4498   25.7722 F   0  0  0  0  0  0
  -29.9957  -13.4405   20.4317 N   0  0  0  0  0  0
  -26.2915  -12.9398   20.3345 N   0  0  0  0  0  0
  -25.9298  -11.6525   20.5751 N   0  0  0  0  0  0
  -22.0488  -12.8160   22.0473 N   0  0  0  0  0  0
  -25.4116  -15.1927   20.4104 N   0  0  0  0  0  0
  -31.8274  -14.7476   20.1857 O   0  0  0  0  0  0
  -21.6671   -6.8835   21.4235 O   0  0  0  0  0  0
  -22.3497  -14.5498   20.6769 O   0  0  0  0  0  0
  -24.6175  -31.8685   23.2024 C   0  0  0  0  0  0
  -25.9059  -32.4822   23.8347 C   0  0  1  0  0  0
  -27.2566  -27.3852   20.1238 C   0  0  0  0  0  0
  -25.5856  -33.8622   24.2280 N   0  0  0  0  0  0
  -23.4129  -30.4837   21.5419 C   0  0  2  0  0  0
  -24.8712  -28.9368   20.1208 C   0  0  0  0  0  0
  -22.7456  -29.4659   22.4967 C   0  0  0  0  0  0
  -18.0279  -28.1366   22.8486 C   0  0  0  0  0  0
  -24.1489  -36.7328   23.2648 C   0  0  0  0  0  0
  -25.9460  -30.8151   21.3688 C   0  0  0  0  0  0
  -26.0312  -29.4374   20.7326 C   0  0  0  0  0  0
  -27.2279  -28.6674   20.7416 C   0  0  0  0  0  0
  -26.0818  -26.9220   19.5013 C   0  0  0  0  0  0
  -24.8938  -27.6784   19.4989 C   0  0  0  0  0  0
  -23.6309  -29.8050   20.1617 C   0  0  0  0  0  0
  -25.4097  -36.3114   24.0353 C   0  0  1  0  0  0
  -20.5877  -28.3677   23.1277 C   0  0  2  0  0  0
  -20.6748  -26.9400   22.5405 C   0  0  0  0  0  0
  -19.5718  -26.6371   21.5217 C   0  0  0  0  0  0
  -18.1908  -26.7917   22.1641 C   0  0  0  0  0  0
  -19.1540  -28.8848   23.2879 C   0  0  0  0  0  0
  -18.9478  -30.1458   23.8899 C   0  0  0  0  0  0
  -17.6467  -30.6589   24.0573 C   0  0  0  0  0  0
  -25.9038  -34.9492   23.5135 C   0  0  0  0  0  0
  -16.5344  -29.9097   23.6311 C   0  0  0  0  0  0
  -16.7272  -28.6502   23.0346 C   0  0  0  0  0  0
  -26.4439  -31.6585   25.0690 C   0  0  0  0  0  0
  -25.3685  -31.3725   26.1431 C   0  0  0  0  0  0
  -27.0239  -30.2998   24.6076 C   0  0  0  0  0  0
  -27.5982  -32.4323   25.7476 C   0  0  0  0  0  0
  -27.5590  -37.1807   24.8461 C   0  0  0  0  0  0
  -21.4182  -29.3032   22.3716 N   0  0  0  0  0  0
  -26.4294  -37.3813   23.9431 N   0  0  0  0  0  0
  -24.6765  -31.0721   22.0952 N   0  0  0  0  0  0
  -23.4204  -28.8252   23.3074 O   0  0  0  0  0  0
  -28.3768  -26.5753   19.9808 O   0  0  0  0  0  0
  -26.5636  -34.8965   22.4706 O   0  0  0  0  0  0
  -23.5355  -32.1462   23.7383 O   0  0  0  0  0  0
  -29.8533  -19.5784   21.8319 C   0  0  0  0  0  0
  -30.0078  -18.4407   21.0557 C   0  0  0  0  0  0
  -29.6537  -18.8701   19.7333 C   0  0  0  0  0  0
  -29.4251  -20.2387   19.7537 C   0  0  0  0  0  0
  -29.1480  -21.1798   18.6212 C   0  0  0  0  0  0
  -30.7093  -18.1477   17.5394 C   0  0  0  0  0  0
  -28.1543  -17.9877   17.9009 C   0  0  0  0  0  0
  -29.2303  -24.7772   23.2123 C   0  0  0  0  0  0
  -30.5400  -17.0290   21.5282 C   0  0  0  0  0  0
  -29.4618  -23.4294   21.0393 C   0  0  0  0  0  0
  -28.9922  -22.0211   21.6300 C   0  0  0  0  0  0
  -29.1500  -26.1420   21.1143 C   0  0  0  0  0  0
  -29.5562  -17.9471   18.5361 C   0  0  0  0  0  0
  -28.8197  -24.7169   21.7268 C   0  0  2  0  0  0
  -29.4514  -20.6913   21.0704 N   0  0  0  0  0  0
  -29.9723  -15.7127   21.0587 N   0  0  0  0  0  0
  -31.4617  -12.5337   19.1582 H   0  0  0  0  0  0
  -30.3372  -11.4204   19.8928 H   0  0  0  0  0  0
  -29.7672  -11.8266   17.4579 H   0  0  0  0  0  0
  -29.6148  -13.5372   17.7760 H   0  0  0  0  0  0
  -27.8742  -11.3049   18.8513 H   0  0  0  0  0  0
  -27.3619  -12.5953   17.7949 H   0  0  0  0  0  0
  -27.6544  -14.2636   19.5282 H   0  0  0  0  0  0
  -28.7023  -12.0794   21.3937 H   0  0  0  0  0  0
  -28.4211  -13.7360   21.8391 H   0  0  0  0  0  0
  -25.2712   -9.5785   22.4701 H   0  0  0  0  0  0
  -24.0046   -7.4654   22.7399 H   0  0  0  0  0  0
  -21.0832   -8.8641   19.8911 H   0  0  0  0  0  0
  -22.3526  -10.9626   19.6115 H   0  0  0  0  0  0
  -21.1978   -7.6142   23.9727 H   0  0  0  0  0  0
  -21.1531   -6.0520   25.9117 H   0  0  0  0  0  0
  -22.0582   -2.7584   23.2839 H   0  0  0  0  0  0
  -22.4101  -11.9805   22.4835 H   0  0  0  0  0  0
  -21.1113  -13.1164   22.2698 H   0  0  0  0  0  0
  -24.6324  -15.8359   20.5130 H   0  0  0  0  0  0
  -26.2628  -15.6494   20.1053 H   0  0  0  0  0  0
  -26.7151  -32.5571   23.1145 H   0  0  0  0  0  0
  -24.9880  -33.9737   25.0333 H   0  0  0  0  0  0
  -22.7036  -31.3005   21.3903 H   0  0  0  0  0  0
  -23.3767  -35.9640   23.3286 H   0  0  0  0  0  0
  -24.3602  -36.8963   22.2069 H   0  0  0  0  0  0
  -23.7203  -37.6517   23.6666 H   0  0  0  0  0  0
  -26.0571  -31.5767   20.5950 H   0  0  0  0  0  0
  -26.8305  -30.8822   21.9894 H   0  0  0  0  0  0
  -28.1234  -29.0657   21.1979 H   0  0  0  0  0  0
  -26.0989  -25.9606   19.0063 H   0  0  0  0  0  0
  -24.0107  -27.2854   19.0160 H   0  0  0  0  0  0
  -23.7426  -30.5726   19.3950 H   0  0  0  0  0  0
  -22.7560  -29.2202   19.8687 H   0  0  0  0  0  0
  -25.1275  -36.1989   25.0841 H   0  0  0  0  0  0
  -20.9953  -28.3256   24.1416 H   0  0  0  0  0  0
  -20.5608  -26.2324   23.3644 H   0  0  0  0  0  0
  -21.6621  -26.7419   22.1231 H   0  0  0  0  0  0
  -19.6889  -25.6291   21.1242 H   0  0  0  0  0  0
  -19.6635  -27.3208   20.6767 H   0  0  0  0  0  0
  -17.4167  -26.6677   21.4045 H   0  0  0  0  0  0
  -18.0314  -26.0065   22.9036 H   0  0  0  0  0  0
  -19.7957  -30.7252   24.2286 H   0  0  0  0  0  0
  -17.5026  -31.6275   24.5171 H   0  0  0  0  0  0
  -15.5358  -30.2996   23.7623 H   0  0  0  0  0  0
  -15.8673  -28.0827   22.7042 H   0  0  0  0  0  0
  -24.5858  -30.7087   25.7755 H   0  0  0  0  0  0
  -24.8901  -32.2903   26.4858 H   0  0  0  0  0  0
  -25.8023  -30.8899   27.0192 H   0  0  0  0  0  0
  -26.2772  -29.6817   24.1096 H   0  0  0  0  0  0
  -27.3910  -29.7193   25.4531 H   0  0  0  0  0  0
  -27.8641  -30.4258   23.9265 H   0  0  0  0  0  0
  -27.2554  -33.3610   26.2051 H   0  0  0  0  0  0
  -28.3802  -32.6913   25.0336 H   0  0  0  0  0  0
  -28.0632  -31.8466   26.5419 H   0  0  0  0  0  0
  -28.2586  -38.0133   24.7552 H   0  0  0  0  0  0
  -28.1109  -36.2663   24.6220 H   0  0  0  0  0  0
  -27.2331  -37.1383   25.8872 H   0  0  0  0  0  0
  -20.9391  -29.8779   21.6920 H   0  0  0  0  0  0
  -26.0201  -38.2893   24.1420 H   0  0  0  0  0  0
  -29.9855  -19.7003   22.9019 H   0  0  0  0  0  0
  -29.1503  -20.6752   17.6607 H   0  0  0  0  0  0
  -29.9286  -21.9386   18.5613 H   0  0  0  0  0  0
  -28.1811  -21.6727   18.7271 H   0  0  0  0  0  0
  -31.6703  -17.9382   18.0123 H   0  0  0  0  0  0
  -30.7537  -19.1620   17.1463 H   0  0  0  0  0  0
  -30.6152  -17.4722   16.6909 H   0  0  0  0  0  0
  -27.3808  -17.9471   18.6714 H   0  0  0  0  0  0
  -28.0003  -17.1260   17.2529 H   0  0  0  0  0  0
  -27.9743  -18.8852   17.3079 H   0  0  0  0  0  0
  -28.8376  -23.9424   23.7912 H   0  0  0  0  0  0
  -28.8743  -25.6834   23.7025 H   0  0  0  0  0  0
  -30.3165  -24.7709   23.3081 H   0  0  0  0  0  0
  -31.6103  -17.0436   21.3138 H   0  0  0  0  0  0
  -30.4827  -17.0097   22.6167 H   0  0  0  0  0  0
  -29.2222  -23.4923   19.9816 H   0  0  0  0  0  0
  -30.5490  -23.5026   21.1055 H   0  0  0  0  0  0
  -27.9014  -22.0030   21.5805 H   0  0  0  0  0  0
  -29.2247  -22.0102   22.6969 H   0  0  0  0  0  0
  -30.1980  -26.1397   20.8163 H   0  0  0  0  0  0
  -29.0753  -26.9193   21.8779 H   0  0  0  0  0  0
  -29.6692  -16.9328   18.9013 H   0  0  0  0  0  0
  -27.7323  -24.6089   21.6854 H   0  0  0  0  0  0
  -28.9892  -15.5596   21.2406 H   0  0  0  0  0  0
  1 25  1  0  0  0
  1 30  2  0  0  0
  1 86  1  0  0  0
  2  3  1  0  0  0
  2 25  1  0  0  0
  2 87  1  0  0  0
  2 88  1  0  0  0
  3  4  1  0  0  0
  3 89  1  0  0  0
  3 90  1  0  0  0
  4  5  1  0  0  0
  4 91  1  0  0  0
  4 92  1  0  0  0
  5  6  1  0  0  0
  5 26  1  0  0  0
  5 93  1  0  0  0
  6 25  1  0  0  0
  6 94  1  0  0  0
  6 95  1  0  0  0
  7  8  2  0  0  0
  7 26  1  0  0  0
  7 29  1  0  0  0
  8  9  1  0  0  0
  8 22  1  0  0  0
  9 10  1  0  0  0
  9 27  2  0  0  0
 10 11  2  0  0  0
 10 15  1  0  0  0
 11 12  1  0  0  0
 11 96  1  0  0  0
 12 13  2  0  0  0
 12 97  1  0  0  0
 13 14  1  0  0  0
 13 31  1  0  0  0
 14 15  2  0  0  0
 14 98  1  0  0  0
 15 99  1  0  0  0
 16 17  2  0  0  0
 16 21  1  0  0  0
 16 31  1  0  0  0
 17 18  1  0  0  0
 17100  1  0  0  0
 18 19  2  0  0  0
 18101  1  0  0  0
 19 20  1  0  0  0
 19 24  1  0  0  0
 20 21  2  0  0  0
 20102  1  0  0  0
 21 23  1  0  0  0
 22 28  1  0  0  0
 22 32  2  0  0  0
 26 27  1  0  0  0
 28103  1  0  0  0
 28104  1  0  0  0
 29105  1  0  0  0
 29106  1  0  0  0
 33 34  1  0  0  0
 33 66  1  0  0  0
 33 70  2  0  0  0
 34 36  1  0  0  0
 34 59  1  0  0  0
 34107  1  0  0  0
 35 44  2  0  0  0
 35 45  1  0  0  0
 35 68  1  0  0  0
 36 56  1  0  0  0
 36108  1  0  0  0
 37 39  1  0  0  0
 37 47  1  0  0  0
 37 66  1  0  0  0
 37109  1  0  0  0
 38 43  2  0  0  0
 38 46  1  0  0  0
 38 47  1  0  0  0
 39 64  1  0  0  0
 39 67  2  0  0  0
 40 52  1  0  0  0
 40 53  2  0  0  0
 40 58  1  0  0  0
 41110  1  0  0  0
 41111  1  0  0  0
 41112  1  0  0  0
 41 48  1  0  0  0
 42 43  1  0  0  0
 42 66  1  0  0  0
 42113  1  0  0  0
 42114  1  0  0  0
 43 44  1  0  0  0
 44115  1  0  0  0
 45 46  2  0  0  0
 45116  1  0  0  0
 46117  1  0  0  0
 47118  1  0  0  0
 47119  1  0  0  0
 48 56  1  0  0  0
 48 65  1  0  0  0
 48120  1  0  0  0
 49 50  1  0  0  0
 49 53  1  0  0  0
 49 64  1  0  0  0
 49121  1  0  0  0
 50 51  1  0  0  0
 50122  1  0  0  0
 50123  1  0  0  0
 51 52  1  0  0  0
 51124  1  0  0  0
 51125  1  0  0  0
 52126  1  0  0  0
 52127  1  0  0  0
 53 54  1  0  0  0
 54 55  2  0  0  0
 54128  1  0  0  0
 55 57  1  0  0  0
 55129  1  0  0  0
 56 69  2  0  0  0
 57 58  2  0  0  0
 57130  1  0  0  0
 58131  1  0  0  0
 59 60  1  0  0  0
 59 61  1  0  0  0
 59 62  1  0  0  0
 60132  1  0  0  0
 60133  1  0  0  0
 60134  1  0  0  0
 61135  1  0  0  0
 61136  1  0  0  0
 61137  1  0  0  0
 62138  1  0  0  0
 62139  1  0  0  0
 62140  1  0  0  0
 63 65  1  0  0  0
 63141  1  0  0  0
 63142  1  0  0  0
 63143  1  0  0  0
 64144  1  0  0  0
 65145  1  0  0  0
 68 82  1  0  0  0
 71 72  2  0  0  0
 71 85  1  0  0  0
 71146  1  0  0  0
 72 73  1  0  0  0
 72 79  1  0  0  0
 73 74  2  0  0  0
 73 83  1  0  0  0
 74 75  1  0  0  0
 74 85  1  0  0  0
 75147  1  0  0  0
 75148  1  0  0  0
 75149  1  0  0  0
 76150  1  0  0  0
 76151  1  0  0  0
 76152  1  0  0  0
 76 83  1  0  0  0
 77 83  1  0  0  0
 77153  1  0  0  0
 77154  1  0  0  0
 77155  1  0  0  0
 78156  1  0  0  0
 78157  1  0  0  0
 78158  1  0  0  0
 78 84  1  0  0  0
 79 86  1  0  0  0
 79159  1  0  0  0
 79160  1  0  0  0
 80 81  1  0  0  0
 80 84  1  0  0  0
 80161  1  0  0  0
 80162  1  0  0  0
 81 85  1  0  0  0
 81163  1  0  0  0
 81164  1  0  0  0
 82 84  1  0  0  0
 82165  1  0  0  0
 82166  1  0  0  0
 83167  1  0  0  0
 84168  1  0  0  0
 86169  1  0  0  0
M  ISO  4   1 100  68 101  82 101  86 100
M  END
> <chiral flag>
0

> <version>
0

> <s_m_source_file>
/data/baiqing/PycharmProjects/Reinvent-master-3.2/result/LINK_invent/BTK/process_docking_weight1_custom_sum_contain_oxygen_bond_distance_aromatic_linkinvent_7_9_3/rearranged_h_0101.sdf

> <i_m_source_file_index>
22

> <r_mmod_Potential_Energy-OPLS-2005>
-16.3735103607178

> <r_mmod_Stretch_Energy-OPLS-2005>
75.6251831054688

> <r_mmod_Bend_Energy-OPLS-2005>
164.776779174805

> <r_mmod_Torsional_Energy-OPLS-2005>
243.439102172852

> <r_mmod_Improper_Torsional_Energy-OPLS-2005>
3.90484857559204

> <r_mmod_Van_der_Waal_Energy-OPLS-2005>
113.338676452637

> <r_mmod_Electrostatic_Energy-OPLS-2005>
-449.804351806641

> <r_mmod_Solvation_Energy-OPLS-2005>
-203.13444519043

> <b_mmod_Minimization_Converged-OPLS-2005>
0

> <r_mmod_RMS_Derivative-OPLS-2005>
6.01940822601318

$$$$
22
                    3D
 Structure written by MMmdl.
168176  0  0  1  0            999 V2000
  -30.6069  -14.7055   20.4600 C   0  0  0  0  0  0
  -30.4280  -12.4241   19.4610 C   0  0  0  0  0  0
  -29.5048  -12.4943   18.2267 C   0  0  0  0  0  0
  -28.0316  -12.3219   18.6452 C   0  0  0  0  0  0
  -27.6403  -13.2231   19.8481 C   0  0  2  0  0  0
  -28.6852  -13.1383   20.9827 C   0  0  0  0  0  0
  -25.2501  -13.8184   20.5693 C   0  0  0  0  0  0
  -24.1800  -13.0426   20.9223 C   0  0  0  0  0  0
  -24.6375  -11.6904   20.8745 C   0  0  0  0  0  0
  -23.9057  -10.4279   21.0401 C   0  0  0  0  0  0
  -24.3612   -9.4203   21.9185 C   0  0  0  0  0  0
  -23.6289   -8.2234   22.0756 C   0  0  0  0  0  0
  -22.4272   -8.0264   21.3546 C   0  0  0  0  0  0
  -21.9907   -9.0236   20.4649 C   0  0  0  0  0  0
  -22.7233  -10.2123   20.3051 C   0  0  0  0  0  0
  -21.6854   -6.0722   22.5282 C   0  0  0  0  0  0
  -21.4014   -6.5630   23.8212 C   0  0  0  0  0  0
  -21.3658   -5.6787   24.9174 C   0  0  0  0  0  0
  -21.6046   -4.3047   24.7233 C   0  0  0  0  0  0
  -21.8819   -3.8140   23.4349 C   0  0  0  0  0  0
  -21.9194   -4.6951   22.3406 C   0  0  0  0  0  0
  -22.7825  -13.5212   21.1889 C   0  0  0  0  0  0
  -22.1664   -4.2136   21.0985 F   0  0  0  0  0  0
  -21.5631   -3.4536   25.7746 F   0  0  0  0  0  0
  -29.9880  -13.4808   20.3999 N   0  0  0  0  0  0
  -26.2917  -12.9365   20.3261 N   0  0  0  0  0  0
  -25.9304  -11.6512   20.5736 N   0  0  0  0  0  0
  -22.0465  -12.8189   22.0427 N   0  0  0  0  0  0
  -25.4161  -15.1901   20.4098 N   0  0  0  0  0  0
  -31.7893  -14.8055   20.1207 O   0  0  0  0  0  0
  -21.6647   -6.8867   21.4236 O   0  0  0  0  0  0
  -22.3497  -14.5513   20.6721 O   0  0  0  0  0  0
  -24.6284  -31.8556   23.1962 C   0  0  0  0  0  0
  -25.9112  -32.4758   23.8307 C   0  0  1  0  0  0
  -27.2159  -27.2850   20.1066 C   0  0  0  0  0  0
  -25.5919  -33.8558   24.2232 N   0  0  0  0  0  0
  -23.4219  -30.4774   21.5394 C   0  0  2  0  0  0
  -24.8625  -28.9208   20.1006 C   0  0  0  0  0  0
  -22.7482  -29.4599   22.4915 C   0  0  0  0  0  0
  -18.0283  -28.1405   22.8504 C   0  0  0  0  0  0
  -24.1476  -36.7289   23.2642 C   0  0  0  0  0  0
  -25.9618  -30.7721   21.3666 C   0  0  0  0  0  0
  -26.0285  -29.3930   20.7147 C   0  0  0  0  0  0
  -27.2005  -28.5814   20.7161 C   0  0  0  0  0  0
  -26.0300  -26.8646   19.4672 C   0  0  0  0  0  0
  -24.8671  -27.6652   19.4677 C   0  0  0  0  0  0
  -23.6332  -29.8078   20.1534 C   0  0  0  0  0  0
  -25.4106  -36.3075   24.0334 C   0  0  1  0  0  0
  -20.5893  -28.3701   23.1297 C   0  0  2  0  0  0
  -20.6779  -26.9420   22.5428 C   0  0  0  0  0  0
  -19.5749  -26.6402   21.5237 C   0  0  0  0  0  0
  -18.1922  -26.7958   22.1629 C   0  0  0  0  0  0
  -19.1540  -28.8865   23.2902 C   0  0  0  0  0  0
  -18.9463  -30.1483   23.8904 C   0  0  0  0  0  0
  -17.6463  -30.6604   24.0582 C   0  0  0  0  0  0
  -25.9073  -34.9449   23.5099 C   0  0  0  0  0  0
  -16.5358  -29.9113   23.6340 C   0  0  0  0  0  0
  -16.7276  -28.6537   23.0348 C   0  0  0  0  0  0
  -26.4489  -31.6590   25.0693 C   0  0  0  0  0  0
  -25.3712  -31.3728   26.1413 C   0  0  0  0  0  0
  -27.0337  -30.3026   24.6127 C   0  0  0  0  0  0
  -27.6031  -32.4326   25.7472 C   0  0  0  0  0  0
  -27.5572  -37.1805   24.8465 C   0  0  0  0  0  0
  -21.4188  -29.3053   22.3684 N   0  0  0  0  0  0
  -26.4274  -37.3776   23.9420 N   0  0  0  0  0  0
  -24.6901  -31.0542   22.0912 N   0  0  0  0  0  0
  -23.4189  -28.8144   23.3000 O   0  0  0  0  0  0
  -28.3467  -26.4544   20.1891 O   0  0  0  0  0  0
  -26.5635  -34.8931   22.4669 O   0  0  0  0  0  0
  -23.5456  -32.1358   23.7298 O   0  0  0  0  0  0
  -29.2717  -18.2623   20.3784 C   0  0  0  0  0  0
  -30.8005  -19.9769   21.0150 C   0  0  0  0  0  0
  -29.5702  -19.7279   20.5314 C   0  0  0  0  0  0
  -30.1264  -17.2400   20.7673 C   0  0  0  0  0  0
  -31.3831  -17.6383   21.4396 C   0  0  0  0  0  0
  -34.3195  -19.5565   25.6309 C   0  0  0  0  0  0
  -35.0867  -21.0381   23.7338 C   0  0  0  0  0  0
  -28.5491  -20.9252   20.2987 C   0  0  0  0  0  0
  -29.0555  -22.4344   20.0010 C   0  0  0  0  0  0
  -28.0840  -23.7142   20.1939 C   0  0  0  0  0  0
  -32.9853  -19.5957   23.4721 C   0  0  0  0  0  0
  -33.0044  -19.4222   21.9362 C   0  0  0  0  0  0
  -28.4914  -25.1263   19.5269 C   0  0  0  0  0  0
  -34.3876  -19.7206   24.1036 C   0  0  0  0  0  0
  -31.7043  -18.9704   21.4117 N   0  0  0  0  0  0
  -29.7994  -15.8174   20.6647 N   0  0  0  0  0  0
  -32.1075  -16.8331   22.0375 O   0  0  0  0  0  0
  -31.4694  -12.5415   19.1568 H   0  0  0  0  0  0
  -30.3644  -11.4412   19.9323 H   0  0  0  0  0  0
  -29.7822  -11.7264   17.5036 H   0  0  0  0  0  0
  -29.6378  -13.4524   17.7223 H   0  0  0  0  0  0
  -27.8901  -11.2740   18.9131 H   0  0  0  0  0  0
  -27.3706  -12.5094   17.7991 H   0  0  0  0  0  0
  -27.6402  -14.2466   19.4708 H   0  0  0  0  0  0
  -28.7108  -12.1363   21.4136 H   0  0  0  0  0  0
  -28.4241  -13.8151   21.7983 H   0  0  0  0  0  0
  -25.2757   -9.5680   22.4753 H   0  0  0  0  0  0
  -24.0002   -7.4625   22.7471 H   0  0  0  0  0  0
  -21.0842   -8.8734   19.8953 H   0  0  0  0  0  0
  -22.3682  -10.9640   19.6143 H   0  0  0  0  0  0
  -21.1998   -7.6140   23.9707 H   0  0  0  0  0  0
  -21.1486   -6.0525   25.9082 H   0  0  0  0  0  0
  -22.0596   -2.7601   23.2858 H   0  0  0  0  0  0
  -22.4078  -11.9838   22.4803 H   0  0  0  0  0  0
  -21.1070  -13.1182   22.2615 H   0  0  0  0  0  0
  -24.6397  -15.8334   20.5209 H   0  0  0  0  0  0
  -26.2468  -15.6359   20.0443 H   0  0  0  0  0  0
  -26.7175  -32.5383   23.1043 H   0  0  0  0  0  0
  -25.0076  -33.9696   25.0387 H   0  0  0  0  0  0
  -22.7197  -31.3022   21.3978 H   0  0  0  0  0  0
  -23.3737  -35.9619   23.3297 H   0  0  0  0  0  0
  -24.3579  -36.8919   22.2058 H   0  0  0  0  0  0
  -23.7221  -37.6491   23.6669 H   0  0  0  0  0  0
  -26.0927  -31.5235   20.5858 H   0  0  0  0  0  0
  -26.8466  -30.8275   21.9894 H   0  0  0  0  0  0
  -28.0901  -28.9360   21.2182 H   0  0  0  0  0  0
  -25.9795  -25.9001   18.9839 H   0  0  0  0  0  0
  -23.9718  -27.3053   18.9769 H   0  0  0  0  0  0
  -23.7524  -30.5828   19.3959 H   0  0  0  0  0  0
  -22.7503  -29.2423   19.8514 H   0  0  0  0  0  0
  -25.1290  -36.1917   25.0825 H   0  0  0  0  0  0
  -21.0022  -28.3267   24.1402 H   0  0  0  0  0  0
  -20.5697  -26.2310   23.3631 H   0  0  0  0  0  0
  -21.6640  -26.7459   22.1197 H   0  0  0  0  0  0
  -19.6903  -25.6313   21.1253 H   0  0  0  0  0  0
  -19.6682  -27.3234   20.6779 H   0  0  0  0  0  0
  -17.4214  -26.6749   21.4002 H   0  0  0  0  0  0
  -18.0278  -26.0101   22.9014 H   0  0  0  0  0  0
  -19.7931  -30.7312   24.2251 H   0  0  0  0  0  0
  -17.5015  -31.6272   24.5201 H   0  0  0  0  0  0
  -15.5358  -30.3018   23.7670 H   0  0  0  0  0  0
  -15.8676  -28.0881   22.7021 H   0  0  0  0  0  0
  -24.5897  -30.7065   25.7750 H   0  0  0  0  0  0
  -24.8881  -32.2894   26.4805 H   0  0  0  0  0  0
  -25.8033  -30.8930   27.0203 H   0  0  0  0  0  0
  -26.2905  -29.6770   24.1162 H   0  0  0  0  0  0
  -27.4093  -29.7272   25.4598 H   0  0  0  0  0  0
  -27.8750  -30.4358   23.9315 H   0  0  0  0  0  0
  -27.2637  -33.3637   26.2012 H   0  0  0  0  0  0
  -28.3859  -32.6858   25.0318 H   0  0  0  0  0  0
  -28.0674  -31.8469   26.5413 H   0  0  0  0  0  0
  -28.2589  -38.0105   24.7527 H   0  0  0  0  0  0
  -28.1064  -36.2637   24.6259 H   0  0  0  0  0  0
  -27.2313  -37.1439   25.8876 H   0  0  0  0  0  0
  -20.9371  -29.8784   21.6896 H   0  0  0  0  0  0
  -26.0146  -38.2849   24.1402 H   0  0  0  0  0  0
  -28.3325  -17.9919   19.9182 H   0  0  0  0  0  0
  -31.1574  -20.9749   21.2204 H   0  0  0  0  0  0
  -35.3145  -19.6005   26.0762 H   0  0  0  0  0  0
  -33.8836  -18.5953   25.9070 H   0  0  0  0  0  0
  -33.7166  -20.3397   26.0920 H   0  0  0  0  0  0
  -36.0850  -21.0838   24.1712 H   0  0  0  0  0  0
  -34.5298  -21.9023   24.0983 H   0  0  0  0  0  0
  -35.2034  -21.1444   22.6549 H   0  0  0  0  0  0
  -27.9513  -20.9651   21.2097 H   0  0  0  0  0  0
  -27.8518  -20.6219   19.5151 H   0  0  0  0  0  0
  -29.4391  -22.4484   18.9803 H   0  0  0  0  0  0
  -29.9168  -22.6421   20.6324 H   0  0  0  0  0  0
  -27.9434  -23.8611   21.2647 H   0  0  0  0  0  0
  -27.0935  -23.4572   19.8141 H   0  0  0  0  0  0
  -32.4894  -18.7321   23.9154 H   0  0  0  0  0  0
  -32.3710  -20.4559   23.7406 H   0  0  0  0  0  0
  -33.7769  -18.7077   21.6488 H   0  0  0  0  0  0
  -33.2989  -20.3559   21.4565 H   0  0  0  0  0  0
  -28.0853  -25.1805   18.5155 H   0  0  0  0  0  0
  -29.5668  -25.0620   19.3605 H   0  0  0  0  0  0
  -34.9991  -18.8988   23.7256 H   0  0  0  0  0  0
  -28.8191  -15.6014   20.7355 H   0  0  0  0  0  0
  1 25  1  0  0  0
  1 30  2  0  0  0
  1 86  1  0  0  0
  2  3  1  0  0  0
  2 25  1  0  0  0
  2 88  1  0  0  0
  2 89  1  0  0  0
  3  4  1  0  0  0
  3 90  1  0  0  0
  3 91  1  0  0  0
  4  5  1  0  0  0
  4 92  1  0  0  0
  4 93  1  0  0  0
  5  6  1  0  0  0
  5 26  1  0  0  0
  5 94  1  0  0  0
  6 25  1  0  0  0
  6 95  1  0  0  0
  6 96  1  0  0  0
  7  8  2  0  0  0
  7 26  1  0  0  0
  7 29  1  0  0  0
  8  9  1  0  0  0
  8 22  1  0  0  0
  9 10  1  0  0  0
  9 27  2  0  0  0
 10 11  2  0  0  0
 10 15  1  0  0  0
 11 12  1  0  0  0
 11 97  1  0  0  0
 12 13  2  0  0  0
 12 98  1  0  0  0
 13 14  1  0  0  0
 13 31  1  0  0  0
 14 15  2  0  0  0
 14 99  1  0  0  0
 15100  1  0  0  0
 16 17  2  0  0  0
 16 21  1  0  0  0
 16 31  1  0  0  0
 17 18  1  0  0  0
 17101  1  0  0  0
 18 19  2  0  0  0
 18102  1  0  0  0
 19 20  1  0  0  0
 19 24  1  0  0  0
 20 21  2  0  0  0
 20103  1  0  0  0
 21 23  1  0  0  0
 22 28  1  0  0  0
 22 32  2  0  0  0
 26 27  1  0  0  0
 28104  1  0  0  0
 28105  1  0  0  0
 29106  1  0  0  0
 29107  1  0  0  0
 33 34  1  0  0  0
 33 66  1  0  0  0
 33 70  2  0  0  0
 34 36  1  0  0  0
 34 59  1  0  0  0
 34108  1  0  0  0
 35 44  2  0  0  0
 35 45  1  0  0  0
 35 68  1  0  0  0
 36 56  1  0  0  0
 36109  1  0  0  0
 37 39  1  0  0  0
 37 47  1  0  0  0
 37 66  1  0  0  0
 37110  1  0  0  0
 38 43  2  0  0  0
 38 46  1  0  0  0
 38 47  1  0  0  0
 39 64  1  0  0  0
 39 67  2  0  0  0
 40 52  1  0  0  0
 40 53  2  0  0  0
 40 58  1  0  0  0
 41111  1  0  0  0
 41112  1  0  0  0
 41113  1  0  0  0
 41 48  1  0  0  0
 42 43  1  0  0  0
 42 66  1  0  0  0
 42114  1  0  0  0
 42115  1  0  0  0
 43 44  1  0  0  0
 44116  1  0  0  0
 45 46  2  0  0  0
 45117  1  0  0  0
 46118  1  0  0  0
 47119  1  0  0  0
 47120  1  0  0  0
 48 56  1  0  0  0
 48 65  1  0  0  0
 48121  1  0  0  0
 49 50  1  0  0  0
 49 53  1  0  0  0
 49 64  1  0  0  0
 49122  1  0  0  0
 50 51  1  0  0  0
 50123  1  0  0  0
 50124  1  0  0  0
 51 52  1  0  0  0
 51125  1  0  0  0
 51126  1  0  0  0
 52127  1  0  0  0
 52128  1  0  0  0
 53 54  1  0  0  0
 54 55  2  0  0  0
 54129  1  0  0  0
 55 57  1  0  0  0
 55130  1  0  0  0
 56 69  2  0  0  0
 57 58  2  0  0  0
 57131  1  0  0  0
 58132  1  0  0  0
 59 60  1  0  0  0
 59 61  1  0  0  0
 59 62  1  0  0  0
 60133  1  0  0  0
 60134  1  0  0  0
 60135  1  0  0  0
 61136  1  0  0  0
 61137  1  0  0  0
 61138  1  0  0  0
 62139  1  0  0  0
 62140  1  0  0  0
 62141  1  0  0  0
 63 65  1  0  0  0
 63142  1  0  0  0
 63143  1  0  0  0
 63144  1  0  0  0
 64145  1  0  0  0
 65146  1  0  0  0
 68 83  1  0  0  0
 71 73  1  0  0  0
 71 74  2  0  0  0
 71147  1  0  0  0
 72 73  2  0  0  0
 72 85  1  0  0  0
 72148  1  0  0  0
 73 78  1  0  0  0
 74 75  1  0  0  0
 74 86  1  0  0  0
 75 85  1  0  0  0
 75 87  2  0  0  0
 76149  1  0  0  0
 76150  1  0  0  0
 76151  1  0  0  0
 76 84  1  0  0  0
 77 84  1  0  0  0
 77152  1  0  0  0
 77153  1  0  0  0
 77154  1  0  0  0
 78 79  1  0  0  0
 78155  1  0  0  0
 78156  1  0  0  0
 79 80  1  0  0  0
 79157  1  0  0  0
 79158  1  0  0  0
 80 83  1  0  0  0
 80159  1  0  0  0
 80160  1  0  0  0
 81 82  1  0  0  0
 81 84  1  0  0  0
 81161  1  0  0  0
 81162  1  0  0  0
 82 85  1  0  0  0
 82163  1  0  0  0
 82164  1  0  0  0
 83165  1  0  0  0
 83166  1  0  0  0
 84167  1  0  0  0
 86168  1  0  0  0
M  ISO  4   1 100  68 101  83 101  86 100
M  END
> <chiral flag>
0

> <version>
0

> <s_m_source_file>
/data/baiqing/PycharmProjects/Reinvent-master-3.2/result/LINK_invent/BTK/process_docking_weight1_custom_sum_contain_oxygen_bond_distance_aromatic_linkinvent_7_9_3/rearranged_h_0101.sdf

> <i_m_source_file_index>
23

> <r_mmod_Potential_Energy-OPLS-2005>
160.88671875

> <r_mmod_Stretch_Energy-OPLS-2005>
117.717750549316

> <r_mmod_Bend_Energy-OPLS-2005>
181.440322875977

> <r_mmod_Torsional_Energy-OPLS-2005>
224.314529418945

> <r_mmod_Improper_Torsional_Energy-OPLS-2005>
6.18865299224854

> <r_mmod_Van_der_Waal_Energy-OPLS-2005>
153.407516479492

> <r_mmod_Electrostatic_Energy-OPLS-2005>
-372.902221679688

> <r_mmod_Solvation_Energy-OPLS-2005>
-217.999237060547

> <b_mmod_Minimization_Converged-OPLS-2005>
0

> <r_mmod_RMS_Derivative-OPLS-2005>
3.01239538192749

$$$$
23
                    3D
 Structure written by MMmdl.
166174  0  0  1  0            999 V2000
  -30.5491  -14.9928   20.3955 C   0  0  0  0  0  0
  -30.4303  -12.6202   19.4664 C   0  0  0  0  0  0
  -29.5181  -12.5437   18.2273 C   0  0  0  0  0  0
  -28.0481  -12.3211   18.6429 C   0  0  0  0  0  0
  -27.6173  -13.2586   19.8052 C   0  0  2  0  0  0
  -28.6682  -13.3182   20.9292 C   0  0  0  0  0  0
  -25.2411  -13.8207   20.5630 C   0  0  0  0  0  0
  -24.1765  -13.0410   20.9222 C   0  0  0  0  0  0
  -24.6406  -11.6917   20.8702 C   0  0  0  0  0  0
  -23.9101  -10.4276   21.0347 C   0  0  0  0  0  0
  -24.3659   -9.4198   21.9136 C   0  0  0  0  0  0
  -23.6346   -8.2235   22.0729 C   0  0  0  0  0  0
  -22.4302   -8.0244   21.3543 C   0  0  0  0  0  0
  -21.9925   -9.0191   20.4621 C   0  0  0  0  0  0
  -22.7269  -10.2083   20.3004 C   0  0  0  0  0  0
  -21.6874   -6.0714   22.5294 C   0  0  0  0  0  0
  -21.4017   -6.5628   23.8220 C   0  0  0  0  0  0
  -21.3685   -5.6779   24.9183 C   0  0  0  0  0  0
  -21.6043   -4.3028   24.7234 C   0  0  0  0  0  0
  -21.8845   -3.8143   23.4356 C   0  0  0  0  0  0
  -21.9195   -4.6958   22.3415 C   0  0  0  0  0  0
  -22.7793  -13.5136   21.1910 C   0  0  0  0  0  0
  -22.1663   -4.2153   21.0977 F   0  0  0  0  0  0
  -21.5652   -3.4503   25.7737 F   0  0  0  0  0  0
  -29.9318  -13.7408   20.3080 N   0  0  0  0  0  0
  -26.2822  -12.9479   20.3093 N   0  0  0  0  0  0
  -25.9334  -11.6595   20.5665 N   0  0  0  0  0  0
  -22.0489  -12.8064   22.0437 N   0  0  0  0  0  0
  -25.4025  -15.1940   20.4009 N   0  0  0  0  0  0
  -31.7774  -15.0172   20.3013 O   0  0  0  0  0  0
  -21.6686   -6.8830   21.4244 O   0  0  0  0  0  0
  -22.3449  -14.5463   20.6783 O   0  0  0  0  0  0
  -24.6517  -31.8423   23.1832 C   0  0  0  0  0  0
  -25.9272  -32.4684   23.8262 C   0  0  1  0  0  0
  -27.2119  -27.0920   20.1483 C   0  0  0  0  0  0
  -25.5996  -33.8486   24.2185 N   0  0  0  0  0  0
  -23.4561  -30.4627   21.5323 C   0  0  2  0  0  0
  -24.8969  -28.8771   20.1083 C   0  0  0  0  0  0
  -22.7606  -29.4591   22.4862 C   0  0  0  0  0  0
  -18.0330  -28.1419   22.8482 C   0  0  0  0  0  0
  -24.1477  -36.7238   23.2642 C   0  0  0  0  0  0
  -26.0114  -30.7001   21.3841 C   0  0  0  0  0  0
  -26.0757  -29.3032   20.7322 C   0  0  0  0  0  0
  -27.2291  -28.4259   20.7383 C   0  0  0  0  0  0
  -26.0038  -26.7772   19.4866 C   0  0  0  0  0  0
  -24.8750  -27.6263   19.4740 C   0  0  0  0  0  0
  -23.6772  -29.7872   20.1518 C   0  0  0  0  0  0
  -25.4125  -36.3036   24.0312 C   0  0  1  0  0  0
  -20.5959  -28.3779   23.1219 C   0  0  2  0  0  0
  -20.6831  -26.9484   22.5390 C   0  0  0  0  0  0
  -19.5787  -26.6392   21.5234 C   0  0  0  0  0  0
  -18.1962  -26.7951   22.1633 C   0  0  0  0  0  0
  -19.1582  -28.8917   23.2836 C   0  0  0  0  0  0
  -18.9489  -30.1506   23.8863 C   0  0  0  0  0  0
  -17.6476  -30.6601   24.0586 C   0  0  0  0  0  0
  -25.9112  -34.9413   23.5069 C   0  0  0  0  0  0
  -16.5373  -29.9084   23.6344 C   0  0  0  0  0  0
  -16.7314  -28.6511   23.0355 C   0  0  0  0  0  0
  -26.4549  -31.6547   25.0705 C   0  0  0  0  0  0
  -25.3723  -31.3702   26.1374 C   0  0  0  0  0  0
  -27.0413  -30.2959   24.6263 C   0  0  0  0  0  0
  -27.6102  -32.4278   25.7509 C   0  0  0  0  0  0
  -27.5578  -37.1793   24.8475 C   0  0  0  0  0  0
  -21.4317  -29.3078   22.3573 N   0  0  0  0  0  0
  -26.4278  -37.3760   23.9428 N   0  0  0  0  0  0
  -24.7280  -31.0244   22.0889 N   0  0  0  0  0  0
  -23.4218  -28.8163   23.3061 O   0  0  0  0  0  0
  -28.2590  -26.0871   20.2356 O   0  0  0  0  0  0
  -26.5685  -34.8933   22.4644 O   0  0  0  0  0  0
  -23.5619  -32.1311   23.7024 O   0  0  0  0  0  0
  -27.8900  -21.7075   18.4458 C   0  0  0  0  0  0
  -28.4455  -19.5652   18.6591 C   0  0  0  0  0  0
  -27.8685  -20.4481   17.7977 C   0  0  0  0  0  0
  -28.6365  -21.6786   19.5996 C   0  0  0  0  0  0
  -25.1086  -21.3521   16.3922 C   0  0  0  0  0  0
  -28.1334  -18.9625   15.7800 C   0  0  0  0  0  0
  -30.4229  -23.4627   20.1651 C   0  0  0  0  0  0
  -25.8700  -20.0297   16.2424 C   0  0  0  0  0  0
  -30.0156  -19.2844   20.5249 C   0  0  0  0  0  0
  -29.8732  -17.6393   21.0175 C   0  0  0  0  0  0
  -28.0577  -24.5650   19.8725 C   0  0  0  0  0  0
  -27.3988  -20.1722   16.3792 C   0  0  1  0  0  0
  -28.9268  -23.1438   20.3112 C   0  0  1  0  0  0
  -29.0276  -20.2160   19.7334 N   0  0  0  0  0  0
  -29.7854  -16.2039   20.3325 N   0  0  0  0  0  0
  -31.4622  -12.7786   19.1579 H   0  0  0  0  0  0
  -30.4174  -11.6790   20.0146 H   0  0  0  0  0  0
  -29.8491  -11.7474   17.5612 H   0  0  0  0  0  0
  -29.6060  -13.4724   17.6638 H   0  0  0  0  0  0
  -27.9415  -11.2805   18.9472 H   0  0  0  0  0  0
  -27.3982  -12.4552   17.7787 H   0  0  0  0  0  0
  -27.5583  -14.2549   19.3671 H   0  0  0  0  0  0
  -28.7667  -12.3497   21.4210 H   0  0  0  0  0  0
  -28.3617  -14.0276   21.6984 H   0  0  0  0  0  0
  -25.2783   -9.5748   22.4708 H   0  0  0  0  0  0
  -24.0114   -7.4663   22.7422 H   0  0  0  0  0  0
  -21.0888   -8.8647   19.8907 H   0  0  0  0  0  0
  -22.3674  -10.9594   19.6104 H   0  0  0  0  0  0
  -21.1966   -7.6124   23.9714 H   0  0  0  0  0  0
  -21.1514   -6.0505   25.9098 H   0  0  0  0  0  0
  -22.0597   -2.7584   23.2852 H   0  0  0  0  0  0
  -22.4150  -11.9753   22.4852 H   0  0  0  0  0  0
  -21.1075  -13.1007   22.2594 H   0  0  0  0  0  0
  -24.6255  -15.8413   20.4887 H   0  0  0  0  0  0
  -26.2391  -15.6341   20.0414 H   0  0  0  0  0  0
  -26.7351  -32.5249   23.1010 H   0  0  0  0  0  0
  -25.0152  -33.9586   25.0339 H   0  0  0  0  0  0
  -22.7659  -31.2940   21.3768 H   0  0  0  0  0  0
  -23.3772  -35.9532   23.3262 H   0  0  0  0  0  0
  -24.3595  -36.8907   22.2071 H   0  0  0  0  0  0
  -23.7158  -37.6399   23.6693 H   0  0  0  0  0  0
  -26.1635  -31.4402   20.5982 H   0  0  0  0  0  0
  -26.8895  -30.7633   22.0150 H   0  0  0  0  0  0
  -28.1209  -28.7466   21.2560 H   0  0  0  0  0  0
  -25.8862  -25.8236   18.9935 H   0  0  0  0  0  0
  -23.9708  -27.2963   18.9803 H   0  0  0  0  0  0
  -23.8166  -30.5588   19.3925 H   0  0  0  0  0  0
  -22.7859  -29.2331   19.8466 H   0  0  0  0  0  0
  -25.1302  -36.1901   25.0793 H   0  0  0  0  0  0
  -21.0062  -28.3379   24.1348 H   0  0  0  0  0  0
  -20.5797  -26.2412   23.3634 H   0  0  0  0  0  0
  -21.6690  -26.7520   22.1166 H   0  0  0  0  0  0
  -19.6975  -25.6297   21.1288 H   0  0  0  0  0  0
  -19.6708  -27.3192   20.6759 H   0  0  0  0  0  0
  -17.4266  -26.6737   21.4000 H   0  0  0  0  0  0
  -18.0338  -26.0085   22.9016 H   0  0  0  0  0  0
  -19.7960  -30.7339   24.2204 H   0  0  0  0  0  0
  -17.5030  -31.6277   24.5177 H   0  0  0  0  0  0
  -15.5379  -30.2974   23.7676 H   0  0  0  0  0  0
  -15.8727  -28.0812   22.7084 H   0  0  0  0  0  0
  -24.5953  -30.7004   25.7656 H   0  0  0  0  0  0
  -24.8831  -32.2840   26.4746 H   0  0  0  0  0  0
  -25.7983  -30.8902   27.0191 H   0  0  0  0  0  0
  -26.3002  -29.6681   24.1286 H   0  0  0  0  0  0
  -27.4077  -29.7249   25.4806 H   0  0  0  0  0  0
  -27.8892  -30.4205   23.9528 H   0  0  0  0  0  0
  -27.2756  -33.3626   26.2012 H   0  0  0  0  0  0
  -28.3978  -32.6743   25.0378 H   0  0  0  0  0  0
  -28.0700  -31.8430   26.5487 H   0  0  0  0  0  0
  -28.2579  -38.0107   24.7591 H   0  0  0  0  0  0
  -28.1090  -36.2661   24.6224 H   0  0  0  0  0  0
  -27.2324  -37.1340   25.8877 H   0  0  0  0  0  0
  -20.9582  -29.8706   21.6648 H   0  0  0  0  0  0
  -26.0154  -38.2827   24.1437 H   0  0  0  0  0  0
  -27.4816  -22.6062   18.0113 H   0  0  0  0  0  0
  -28.6309  -18.5075   18.5195 H   0  0  0  0  0  0
  -24.0447  -21.2106   16.2000 H   0  0  0  0  0  0
  -25.4809  -22.0907   15.6842 H   0  0  0  0  0  0
  -25.2180  -21.7640   17.3951 H   0  0  0  0  0  0
  -29.2157  -19.0588   15.8891 H   0  0  0  0  0  0
  -27.9287  -18.8761   14.7142 H   0  0  0  0  0  0
  -27.8330  -18.0277   16.2568 H   0  0  0  0  0  0
  -31.0404  -22.6444   20.5371 H   0  0  0  0  0  0
  -30.6980  -24.3586   20.7234 H   0  0  0  0  0  0
  -30.6839  -23.6374   19.1198 H   0  0  0  0  0  0
  -25.6435  -19.6389   15.2484 H   0  0  0  0  0  0
  -25.4917  -19.2917   16.9494 H   0  0  0  0  0  0
  -30.9684  -19.3545   19.9972 H   0  0  0  0  0  0
  -30.1959  -19.8312   21.4531 H   0  0  0  0  0  0
  -29.0618  -17.6345   21.7414 H   0  0  0  0  0  0
  -30.7606  -17.5178   21.6435 H   0  0  0  0  0  0
  -27.0276  -24.3353   20.1457 H   0  0  0  0  0  0
  -28.0810  -24.5837   18.7835 H   0  0  0  0  0  0
  -27.7129  -21.0290   15.7813 H   0  0  0  0  0  0
  -28.7373  -23.0068   21.3760 H   0  0  0  0  0  0
  -28.8417  -15.9983   20.0519 H   0  0  0  0  0  0
  1 25  1  0  0  0
  1 30  2  0  0  0
  1 85  1  0  0  0
  2  3  1  0  0  0
  2 25  1  0  0  0
  2 86  1  0  0  0
  2 87  1  0  0  0
  3  4  1  0  0  0
  3 88  1  0  0  0
  3 89  1  0  0  0
  4  5  1  0  0  0
  4 90  1  0  0  0
  4 91  1  0  0  0
  5  6  1  0  0  0
  5 26  1  0  0  0
  5 92  1  0  0  0
  6 25  1  0  0  0
  6 93  1  0  0  0
  6 94  1  0  0  0
  7  8  2  0  0  0
  7 26  1  0  0  0
  7 29  1  0  0  0
  8  9  1  0  0  0
  8 22  1  0  0  0
  9 10  1  0  0  0
  9 27  2  0  0  0
 10 11  2  0  0  0
 10 15  1  0  0  0
 11 12  1  0  0  0
 11 95  1  0  0  0
 12 13  2  0  0  0
 12 96  1  0  0  0
 13 14  1  0  0  0
 13 31  1  0  0  0
 14 15  2  0  0  0
 14 97  1  0  0  0
 15 98  1  0  0  0
 16 17  2  0  0  0
 16 21  1  0  0  0
 16 31  1  0  0  0
 17 18  1  0  0  0
 17 99  1  0  0  0
 18 19  2  0  0  0
 18100  1  0  0  0
 19 20  1  0  0  0
 19 24  1  0  0  0
 20 21  2  0  0  0
 20101  1  0  0  0
 21 23  1  0  0  0
 22 28  1  0  0  0
 22 32  2  0  0  0
 26 27  1  0  0  0
 28102  1  0  0  0
 28103  1  0  0  0
 29104  1  0  0  0
 29105  1  0  0  0
 33 34  1  0  0  0
 33 66  1  0  0  0
 33 70  2  0  0  0
 34 36  1  0  0  0
 34 59  1  0  0  0
 34106  1  0  0  0
 35 44  2  0  0  0
 35 45  1  0  0  0
 35 68  1  0  0  0
 36 56  1  0  0  0
 36107  1  0  0  0
 37 39  1  0  0  0
 37 47  1  0  0  0
 37 66  1  0  0  0
 37108  1  0  0  0
 38 43  2  0  0  0
 38 46  1  0  0  0
 38 47  1  0  0  0
 39 64  1  0  0  0
 39 67  2  0  0  0
 40 52  1  0  0  0
 40 53  2  0  0  0
 40 58  1  0  0  0
 41109  1  0  0  0
 41110  1  0  0  0
 41111  1  0  0  0
 41 48  1  0  0  0
 42 43  1  0  0  0
 42 66  1  0  0  0
 42112  1  0  0  0
 42113  1  0  0  0
 43 44  1  0  0  0
 44114  1  0  0  0
 45 46  2  0  0  0
 45115  1  0  0  0
 46116  1  0  0  0
 47117  1  0  0  0
 47118  1  0  0  0
 48 56  1  0  0  0
 48 65  1  0  0  0
 48119  1  0  0  0
 49 50  1  0  0  0
 49 53  1  0  0  0
 49 64  1  0  0  0
 49120  1  0  0  0
 50 51  1  0  0  0
 50121  1  0  0  0
 50122  1  0  0  0
 51 52  1  0  0  0
 51123  1  0  0  0
 51124  1  0  0  0
 52125  1  0  0  0
 52126  1  0  0  0
 53 54  1  0  0  0
 54 55  2  0  0  0
 54127  1  0  0  0
 55 57  1  0  0  0
 55128  1  0  0  0
 56 69  2  0  0  0
 57 58  2  0  0  0
 57129  1  0  0  0
 58130  1  0  0  0
 59 60  1  0  0  0
 59 61  1  0  0  0
 59 62  1  0  0  0
 60131  1  0  0  0
 60132  1  0  0  0
 60133  1  0  0  0
 61134  1  0  0  0
 61135  1  0  0  0
 61136  1  0  0  0
 62137  1  0  0  0
 62138  1  0  0  0
 62139  1  0  0  0
 63 65  1  0  0  0
 63140  1  0  0  0
 63141  1  0  0  0
 63142  1  0  0  0
 64143  1  0  0  0
 65144  1  0  0  0
 68 81  1  0  0  0
 71 73  1  0  0  0
 71 74  2  0  0  0
 71145  1  0  0  0
 72 73  2  0  0  0
 72 84  1  0  0  0
 72146  1  0  0  0
 73 82  1  0  0  0
 74 83  1  0  0  0
 74 84  1  0  0  0
 75 78  1  0  0  0
 75147  1  0  0  0
 75148  1  0  0  0
 75149  1  0  0  0
 76150  1  0  0  0
 76151  1  0  0  0
 76152  1  0  0  0
 76 82  1  0  0  0
 77153  1  0  0  0
 77154  1  0  0  0
 77155  1  0  0  0
 77 83  1  0  0  0
 78 82  1  0  0  0
 78156  1  0  0  0
 78157  1  0  0  0
 79 80  1  0  0  0
 79 84  1  0  0  0
 79158  1  0  0  0
 79159  1  0  0  0
 80 85  1  0  0  0
 80160  1  0  0  0
 80161  1  0  0  0
 81 83  1  0  0  0
 81162  1  0  0  0
 81163  1  0  0  0
 82164  1  0  0  0
 83165  1  0  0  0
 85166  1  0  0  0
M  ISO  4   1 100  68 101  81 101  85 100
M  END
> <chiral flag>
0

> <version>
0

> <s_m_source_file>
/data/baiqing/PycharmProjects/Reinvent-master-3.2/result/LINK_invent/BTK/process_docking_weight1_custom_sum_contain_oxygen_bond_distance_aromatic_linkinvent_7_9_3/rearranged_h_0101.sdf

> <i_m_source_file_index>
24

> <r_mmod_Potential_Energy-OPLS-2005>
749.309143066406

> <r_mmod_Stretch_Energy-OPLS-2005>
330.834259033203

> <r_mmod_Bend_Energy-OPLS-2005>
412.2958984375

> <r_mmod_Torsional_Energy-OPLS-2005>
263.088348388672

> <r_mmod_Improper_Torsional_Energy-OPLS-2005>
10.2130222320557

> <r_mmod_Van_der_Waal_Energy-OPLS-2005>
104.442657470703

> <r_mmod_Electrostatic_Energy-OPLS-2005>
-397.667602539062

> <r_mmod_Solvation_Energy-OPLS-2005>
-209.624862670898

> <b_mmod_Minimization_Converged-OPLS-2005>
0

> <r_mmod_RMS_Derivative-OPLS-2005>
6.15183305740356

$$$$
24
                    3D
 Structure written by MMmdl.
158165  0  0  1  0            999 V2000
  -30.4310  -15.2037   20.4291 C   0  0  0  0  0  0
  -30.4454  -12.7545   19.5682 C   0  0  0  0  0  0
  -29.5600  -12.5750   18.3071 C   0  0  0  0  0  0
  -28.0903  -12.3132   18.6926 C   0  0  0  0  0  0
  -27.6195  -13.2593   19.8265 C   0  0  2  0  0  0
  -28.6378  -13.3435   20.9790 C   0  0  0  0  0  0
  -25.2409  -13.8204   20.5643 C   0  0  0  0  0  0
  -24.1748  -13.0413   20.9190 C   0  0  0  0  0  0
  -24.6397  -11.6913   20.8717 C   0  0  0  0  0  0
  -23.9076  -10.4286   21.0417 C   0  0  0  0  0  0
  -24.3649   -9.4201   21.9181 C   0  0  0  0  0  0
  -23.6340   -8.2230   22.0755 C   0  0  0  0  0  0
  -22.4318   -8.0271   21.3553 C   0  0  0  0  0  0
  -21.9945   -9.0227   20.4632 C   0  0  0  0  0  0
  -22.7271  -10.2099   20.3037 C   0  0  0  0  0  0
  -21.6860   -6.0717   22.5279 C   0  0  0  0  0  0
  -21.4015   -6.5616   23.8210 C   0  0  0  0  0  0
  -21.3664   -5.6769   24.9182 C   0  0  0  0  0  0
  -21.6062   -4.3028   24.7214 C   0  0  0  0  0  0
  -21.8840   -3.8126   23.4328 C   0  0  0  0  0  0
  -21.9186   -4.6946   22.3392 C   0  0  0  0  0  0
  -22.7770  -13.5176   21.1857 C   0  0  0  0  0  0
  -22.1659   -4.2139   21.0965 F   0  0  0  0  0  0
  -21.5647   -3.4512   25.7717 F   0  0  0  0  0  0
  -29.8910  -13.8809   20.4094 N   0  0  0  0  0  0
  -26.2808  -12.9453   20.3089 N   0  0  0  0  0  0
  -25.9313  -11.6563   20.5647 N   0  0  0  0  0  0
  -22.0423  -12.8159   22.0394 N   0  0  0  0  0  0
  -25.4085  -15.1940   20.4147 N   0  0  0  0  0  0
  -31.5970  -15.2478   20.0034 O   0  0  0  0  0  0
  -21.6674   -6.8878   21.4249 O   0  0  0  0  0  0
  -22.3455  -14.5470   20.6677 O   0  0  0  0  0  0
  -24.6592  -31.8271   23.1807 C   0  0  0  0  0  0
  -25.9289  -32.4617   23.8253 C   0  0  1  0  0  0
  -27.2093  -26.9729   20.1732 C   0  0  0  0  0  0
  -25.5985  -33.8436   24.2175 N   0  0  0  0  0  0
  -23.4729  -30.4455   21.5240 C   0  0  2  0  0  0
  -24.9202  -28.8355   20.1130 C   0  0  0  0  0  0
  -22.7649  -29.4485   22.4806 C   0  0  0  0  0  0
  -18.0331  -28.1423   22.8470 C   0  0  0  0  0  0
  -24.1483  -36.7191   23.2660 C   0  0  0  0  0  0
  -26.0405  -30.6456   21.4020 C   0  0  0  0  0  0
  -26.1025  -29.2396   20.7458 C   0  0  0  0  0  0
  -27.2400  -28.3275   20.7564 C   0  0  0  0  0  0
  -26.0040  -26.7118   19.4842 C   0  0  0  0  0  0
  -24.8932  -27.5911   19.4641 C   0  0  0  0  0  0
  -23.7110  -29.7643   20.1468 C   0  0  0  0  0  0
  -25.4122  -36.2998   24.0345 C   0  0  1  0  0  0
  -20.5947  -28.3772   23.1186 C   0  0  2  0  0  0
  -20.6804  -26.9467   22.5397 C   0  0  0  0  0  0
  -19.5787  -26.6405   21.5204 C   0  0  0  0  0  0
  -18.1960  -26.7968   22.1596 C   0  0  0  0  0  0
  -19.1590  -28.8909   23.2816 C   0  0  0  0  0  0
  -18.9497  -30.1484   23.8876 C   0  0  0  0  0  0
  -17.6492  -30.6601   24.0566 C   0  0  0  0  0  0
  -25.9081  -34.9374   23.5083 C   0  0  0  0  0  0
  -16.5383  -29.9107   23.6340 C   0  0  0  0  0  0
  -16.7303  -28.6520   23.0359 C   0  0  0  0  0  0
  -26.4581  -31.6520   25.0726 C   0  0  0  0  0  0
  -25.3742  -31.3668   26.1397 C   0  0  0  0  0  0
  -27.0481  -30.2924   24.6372 C   0  0  0  0  0  0
  -27.6123  -32.4305   25.7471 C   0  0  0  0  0  0
  -27.5576  -37.1769   24.8480 C   0  0  0  0  0  0
  -21.4319  -29.3087   22.3531 N   0  0  0  0  0  0
  -26.4274  -37.3728   23.9441 N   0  0  0  0  0  0
  -24.7460  -30.9985   22.0890 N   0  0  0  0  0  0
  -23.4217  -28.8036   23.3007 O   0  0  0  0  0  0
  -28.2152  -25.8949   20.2670 O   0  0  0  0  0  0
  -26.5663  -34.8891   22.4657 O   0  0  0  0  0  0
  -23.5669  -32.1210   23.6907 O   0  0  0  0  0  0
  -28.7686  -23.0001   22.0881 C   0  0  0  0  0  0
  -29.7381  -19.6010   22.1422 C   0  0  0  0  0  0
  -31.0400  -19.9758   20.1069 C   0  0  0  0  0  0
  -28.8734  -16.3560   21.9723 C   0  0  0  0  0  0
  -28.6889  -21.1098   20.1807 C   0  0  0  0  0  0
  -29.3961  -17.9456   20.0803 C   0  0  0  0  0  0
  -27.9883  -24.3016   20.0135 C   0  0  0  0  0  0
  -28.8644  -22.8529   20.5607 C   0  0  1  0  0  0
  -29.6276  -19.6410   20.6110 C   0  0  0  0  0  0
  -29.6786  -16.4468   20.7472 N   0  0  0  0  0  0
  -31.4790  -12.9375   19.2721 H   0  0  0  0  0  0
  -30.4832  -11.8288   20.1447 H   0  0  0  0  0  0
  -29.9481  -11.7579   17.6986 H   0  0  0  0  0  0
  -29.6239  -13.4758   17.6947 H   0  0  0  0  0  0
  -28.0107  -11.2742   19.0195 H   0  0  0  0  0  0
  -27.4433  -12.4076   17.8199 H   0  0  0  0  0  0
  -27.5648  -14.2525   19.3749 H   0  0  0  0  0  0
  -28.7852  -12.3718   21.4499 H   0  0  0  0  0  0
  -28.2250  -13.9559   21.7711 H   0  0  0  0  0  0
  -25.2809   -9.5666   22.4740 H   0  0  0  0  0  0
  -24.0054   -7.4588   22.7462 H   0  0  0  0  0  0
  -21.0890   -8.8730   19.8913 H   0  0  0  0  0  0
  -22.3778  -10.9614   19.6108 H   0  0  0  0  0  0
  -21.2040   -7.6122   23.9731 H   0  0  0  0  0  0
  -21.1463   -6.0484   25.9087 H   0  0  0  0  0  0
  -22.0628   -2.7585   23.2818 H   0  0  0  0  0  0
  -22.4073  -11.9833   22.4770 H   0  0  0  0  0  0
  -21.0971  -13.1089   22.2522 H   0  0  0  0  0  0
  -24.6530  -15.8513   20.5743 H   0  0  0  0  0  0
  -26.2605  -15.6318   20.0871 H   0  0  0  0  0  0
  -26.7343  -32.5151   23.0952 H   0  0  0  0  0  0
  -25.0181  -33.9530   25.0363 H   0  0  0  0  0  0
  -22.7875  -31.2775   21.3557 H   0  0  0  0  0  0
  -23.3785  -35.9474   23.3265 H   0  0  0  0  0  0
  -24.3602  -36.8859   22.2089 H   0  0  0  0  0  0
  -23.7151  -37.6352   23.6698 H   0  0  0  0  0  0
  -26.2171  -31.3815   20.6168 H   0  0  0  0  0  0
  -26.9077  -30.7038   22.0500 H   0  0  0  0  0  0
  -28.1344  -28.6287   21.2837 H   0  0  0  0  0  0
  -25.8846  -25.7652   18.9791 H   0  0  0  0  0  0
  -23.9907  -27.2773   18.9570 H   0  0  0  0  0  0
  -23.8851  -30.5388   19.3992 H   0  0  0  0  0  0
  -22.8178  -29.2316   19.8149 H   0  0  0  0  0  0
  -25.1294  -36.1838   25.0834 H   0  0  0  0  0  0
  -21.0043  -28.3378   24.1302 H   0  0  0  0  0  0
  -20.5690  -26.2406   23.3639 H   0  0  0  0  0  0
  -21.6660  -26.7458   22.1191 H   0  0  0  0  0  0
  -19.6956  -25.6309   21.1250 H   0  0  0  0  0  0
  -19.6717  -27.3200   20.6725 H   0  0  0  0  0  0
  -17.4240  -26.6728   21.3984 H   0  0  0  0  0  0
  -18.0343  -26.0113   22.8992 H   0  0  0  0  0  0
  -19.7965  -30.7297   24.2254 H   0  0  0  0  0  0
  -17.5045  -31.6282   24.5179 H   0  0  0  0  0  0
  -15.5377  -30.3001   23.7686 H   0  0  0  0  0  0
  -15.8699  -28.0826   22.7105 H   0  0  0  0  0  0
  -24.6006  -30.6929   25.7694 H   0  0  0  0  0  0
  -24.8820  -32.2799   26.4770 H   0  0  0  0  0  0
  -25.8034  -30.8893   27.0218 H   0  0  0  0  0  0
  -26.3126  -29.6621   24.1375 H   0  0  0  0  0  0
  -27.4083  -29.7265   25.4972 H   0  0  0  0  0  0
  -27.9040  -30.4195   23.9737 H   0  0  0  0  0  0
  -27.2784  -33.3699   26.1906 H   0  0  0  0  0  0
  -28.3979  -32.6721   25.0283 H   0  0  0  0  0  0
  -28.0747  -31.8506   26.5481 H   0  0  0  0  0  0
  -28.2567  -38.0096   24.7563 H   0  0  0  0  0  0
  -28.1088  -36.2632   24.6228 H   0  0  0  0  0  0
  -27.2314  -37.1308   25.8887 H   0  0  0  0  0  0
  -20.9571  -29.8786   21.6665 H   0  0  0  0  0  0
  -26.0126  -38.2786   24.1459 H   0  0  0  0  0  0
  -29.4869  -22.3941   22.6301 H   0  0  0  0  0  0
  -27.7709  -22.7339   22.4371 H   0  0  0  0  0  0
  -28.9403  -24.0360   22.3817 H   0  0  0  0  0  0
  -30.2917  -20.4430   22.5449 H   0  0  0  0  0  0
  -30.3181  -18.7362   22.4631 H   0  0  0  0  0  0
  -28.7562  -19.5794   22.6142 H   0  0  0  0  0  0
  -31.4126  -20.9108   20.5272 H   0  0  0  0  0  0
  -31.0498  -20.0907   19.0224 H   0  0  0  0  0  0
  -31.7611  -19.1985   20.3665 H   0  0  0  0  0  0
  -27.8342  -16.1181   21.7444 H   0  0  0  0  0  0
  -28.8396  -17.2695   22.5493 H   0  0  0  0  0  0
  -29.2764  -15.6180   22.6678 H   0  0  0  0  0  0
  -28.6235  -21.0829   19.0907 H   0  0  0  0  0  0
  -27.6719  -20.8757   20.5011 H   0  0  0  0  0  0
  -29.8419  -17.8768   19.0862 H   0  0  0  0  0  0
  -28.3293  -17.8911   19.8602 H   0  0  0  0  0  0
  -26.9618  -24.1273   20.3370 H   0  0  0  0  0  0
  -27.9249  -24.2184   18.9286 H   0  0  0  0  0  0
  -29.8958  -23.0626   20.2753 H   0  0  0  0  0  0
  1 25  1  0  0  0
  1 30  2  0  0  0
  1 80  1  0  0  0
  2  3  1  0  0  0
  2 25  1  0  0  0
  2 81  1  0  0  0
  2 82  1  0  0  0
  3  4  1  0  0  0
  3 83  1  0  0  0
  3 84  1  0  0  0
  4  5  1  0  0  0
  4 85  1  0  0  0
  4 86  1  0  0  0
  5  6  1  0  0  0
  5 26  1  0  0  0
  5 87  1  0  0  0
  6 25  1  0  0  0
  6 88  1  0  0  0
  6 89  1  0  0  0
  7  8  2  0  0  0
  7 26  1  0  0  0
  7 29  1  0  0  0
  8  9  1  0  0  0
  8 22  1  0  0  0
  9 10  1  0  0  0
  9 27  2  0  0  0
 10 11  2  0  0  0
 10 15  1  0  0  0
 11 12  1  0  0  0
 11 90  1  0  0  0
 12 13  2  0  0  0
 12 91  1  0  0  0
 13 14  1  0  0  0
 13 31  1  0  0  0
 14 15  2  0  0  0
 14 92  1  0  0  0
 15 93  1  0  0  0
 16 17  2  0  0  0
 16 21  1  0  0  0
 16 31  1  0  0  0
 17 18  1  0  0  0
 17 94  1  0  0  0
 18 19  2  0  0  0
 18 95  1  0  0  0
 19 20  1  0  0  0
 19 24  1  0  0  0
 20 21  2  0  0  0
 20 96  1  0  0  0
 21 23  1  0  0  0
 22 28  1  0  0  0
 22 32  2  0  0  0
 26 27  1  0  0  0
 28 97  1  0  0  0
 28 98  1  0  0  0
 29 99  1  0  0  0
 29100  1  0  0  0
 33 34  1  0  0  0
 33 66  1  0  0  0
 33 70  2  0  0  0
 34 36  1  0  0  0
 34 59  1  0  0  0
 34101  1  0  0  0
 35 44  2  0  0  0
 35 45  1  0  0  0
 35 68  1  0  0  0
 36 56  1  0  0  0
 36102  1  0  0  0
 37 39  1  0  0  0
 37 47  1  0  0  0
 37 66  1  0  0  0
 37103  1  0  0  0
 38 43  2  0  0  0
 38 46  1  0  0  0
 38 47  1  0  0  0
 39 64  1  0  0  0
 39 67  2  0  0  0
 40 52  1  0  0  0
 40 53  2  0  0  0
 40 58  1  0  0  0
 41104  1  0  0  0
 41105  1  0  0  0
 41106  1  0  0  0
 41 48  1  0  0  0
 42 43  1  0  0  0
 42 66  1  0  0  0
 42107  1  0  0  0
 42108  1  0  0  0
 43 44  1  0  0  0
 44109  1  0  0  0
 45 46  2  0  0  0
 45110  1  0  0  0
 46111  1  0  0  0
 47112  1  0  0  0
 47113  1  0  0  0
 48 56  1  0  0  0
 48 65  1  0  0  0
 48114  1  0  0  0
 49 50  1  0  0  0
 49 53  1  0  0  0
 49 64  1  0  0  0
 49115  1  0  0  0
 50 51  1  0  0  0
 50116  1  0  0  0
 50117  1  0  0  0
 51 52  1  0  0  0
 51118  1  0  0  0
 51119  1  0  0  0
 52120  1  0  0  0
 52121  1  0  0  0
 53 54  1  0  0  0
 54 55  2  0  0  0
 54122  1  0  0  0
 55 57  1  0  0  0
 55123  1  0  0  0
 56 69  2  0  0  0
 57 58  2  0  0  0
 57124  1  0  0  0
 58125  1  0  0  0
 59 60  1  0  0  0
 59 61  1  0  0  0
 59 62  1  0  0  0
 60126  1  0  0  0
 60127  1  0  0  0
 60128  1  0  0  0
 61129  1  0  0  0
 61130  1  0  0  0
 61131  1  0  0  0
 62132  1  0  0  0
 62133  1  0  0  0
 62134  1  0  0  0
 63 65  1  0  0  0
 63135  1  0  0  0
 63136  1  0  0  0
 63137  1  0  0  0
 64138  1  0  0  0
 65139  1  0  0  0
 68 77  1  0  0  0
 71140  1  0  0  0
 71141  1  0  0  0
 71142  1  0  0  0
 71 78  1  0  0  0
 72143  1  0  0  0
 72144  1  0  0  0
 72145  1  0  0  0
 72 79  1  0  0  0
 73 79  1  0  0  0
 73146  1  0  0  0
 73147  1  0  0  0
 73148  1  0  0  0
 74 80  1  0  0  0
 74149  1  0  0  0
 74150  1  0  0  0
 74151  1  0  0  0
 75 78  1  0  0  0
 75 79  1  0  0  0
 75152  1  0  0  0
 75153  1  0  0  0
 76 79  1  0  0  0
 76 80  1  0  0  0
 76154  1  0  0  0
 76155  1  0  0  0
 77 78  1  0  0  0
 77156  1  0  0  0
 77157  1  0  0  0
 78158  1  0  0  0
M  ISO  4   1 100  68 101  77 101  80 100
M  END
> <chiral flag>
0

> <version>
0

> <s_m_source_file>
/data/baiqing/PycharmProjects/Reinvent-master-3.2/result/LINK_invent/BTK/process_docking_weight1_custom_sum_contain_oxygen_bond_distance_aromatic_linkinvent_7_9_3/rearranged_h_0101.sdf

> <i_m_source_file_index>
25

> <r_mmod_Potential_Energy-OPLS-2005>
1357.34777832031

> <r_mmod_Stretch_Energy-OPLS-2005>
585.165283203125

> <r_mmod_Bend_Energy-OPLS-2005>
442.506042480469

> <r_mmod_Torsional_Energy-OPLS-2005>
307.436950683594

> <r_mmod_Improper_Torsional_Energy-OPLS-2005>
3.25737071037292

> <r_mmod_Van_der_Waal_Energy-OPLS-2005>
122.286727905273

> <r_mmod_Electrostatic_Energy-OPLS-2005>
-305.626037597656

> <r_mmod_Solvation_Energy-OPLS-2005>
-188.158966064453

> <b_mmod_Minimization_Converged-OPLS-2005>
0

> <r_mmod_RMS_Derivative-OPLS-2005>
4.89407205581665

$$$$
25
                    3D
 Structure written by MMmdl.
170178  0  0  1  0            999 V2000
  -30.6621  -14.4561   20.5172 C   0  0  0  0  0  0
  -30.3954  -12.2670   19.4100 C   0  0  0  0  0  0
  -29.4762  -12.4905   18.1902 C   0  0  0  0  0  0
  -28.0023  -12.3365   18.6137 C   0  0  0  0  0  0
  -27.6547  -13.1846   19.8654 C   0  0  2  0  0  0
  -28.6925  -12.9885   20.9941 C   0  0  0  0  0  0
  -25.2630  -13.8129   20.5676 C   0  0  0  0  0  0
  -24.1833  -13.0420   20.9166 C   0  0  0  0  0  0
  -24.6322  -11.6891   20.8647 C   0  0  0  0  0  0
  -23.8970  -10.4324   21.0345 C   0  0  0  0  0  0
  -24.3570   -9.4296   21.9132 C   0  0  0  0  0  0
  -23.6313   -8.2281   22.0713 C   0  0  0  0  0  0
  -22.4301   -8.0283   21.3523 C   0  0  0  0  0  0
  -21.9882   -9.0218   20.4601 C   0  0  0  0  0  0
  -22.7111  -10.2137   20.3017 C   0  0  0  0  0  0
  -21.6909   -6.0728   22.5278 C   0  0  0  0  0  0
  -21.4004   -6.5639   23.8183 C   0  0  0  0  0  0
  -21.3663   -5.6799   24.9171 C   0  0  0  0  0  0
  -21.6054   -4.3070   24.7243 C   0  0  0  0  0  0
  -21.8835   -3.8145   23.4366 C   0  0  0  0  0  0
  -21.9204   -4.6941   22.3418 C   0  0  0  0  0  0
  -22.7910  -13.5250   21.1920 C   0  0  0  0  0  0
  -22.1696   -4.2121   21.1000 F   0  0  0  0  0  0
  -21.5638   -3.4563   25.7760 F   0  0  0  0  0  0
  -30.0217  -13.2651   20.4268 N   0  0  0  0  0  0
  -26.2991  -12.9193   20.3340 N   0  0  0  0  0  0
  -25.9245  -11.6391   20.5712 N   0  0  0  0  0  0
  -22.0597  -12.8143   22.0468 N   0  0  0  0  0  0
  -25.4426  -15.1842   20.4096 N   0  0  0  0  0  0
  -31.8195  -14.6367   20.1305 O   0  0  0  0  0  0
  -21.6690   -6.8863   21.4242 O   0  0  0  0  0  0
  -22.3549  -14.5558   20.6859 O   0  0  0  0  0  0
  -24.6238  -31.8727   23.2032 C   0  0  0  0  0  0
  -25.9150  -32.4788   23.8277 C   0  0  1  0  0  0
  -27.2205  -27.4094   20.0685 C   0  0  0  0  0  0
  -25.6072  -33.8568   24.2354 N   0  0  0  0  0  0
  -23.3999  -30.4993   21.5530 C   0  0  2  0  0  0
  -24.8377  -28.9532   20.1200 C   0  0  0  0  0  0
  -22.7397  -29.4760   22.5027 C   0  0  0  0  0  0
  -18.0265  -28.1370   22.8545 C   0  0  0  0  0  0
  -24.1472  -36.7299   23.2677 C   0  0  0  0  0  0
  -25.9310  -30.8206   21.3514 C   0  0  0  0  0  0
  -26.0039  -29.4488   20.7195 C   0  0  0  0  0  0
  -27.1935  -28.6828   20.6955 C   0  0  0  0  0  0
  -26.0300  -26.9555   19.4454 C   0  0  0  0  0  0
  -24.8459  -27.7044   19.4892 C   0  0  0  0  0  0
  -23.6008  -29.8174   20.1698 C   0  0  0  0  0  0
  -25.4089  -36.3112   24.0372 C   0  0  1  0  0  0
  -20.5859  -28.3655   23.1365 C   0  0  2  0  0  0
  -20.6782  -26.9412   22.5434 C   0  0  0  0  0  0
  -19.5746  -26.6400   21.5248 C   0  0  0  0  0  0
  -18.1915  -26.7907   22.1651 C   0  0  0  0  0  0
  -19.1513  -28.8823   23.2948 C   0  0  0  0  0  0
  -18.9447  -30.1419   23.8947 C   0  0  0  0  0  0
  -17.6458  -30.6599   24.0570 C   0  0  0  0  0  0
  -25.9049  -34.9446   23.5148 C   0  0  0  0  0  0
  -16.5342  -29.9113   23.6348 C   0  0  0  0  0  0
  -16.7241  -28.6529   23.0371 C   0  0  0  0  0  0
  -26.4547  -31.6577   25.0578 C   0  0  0  0  0  0
  -25.3828  -31.3573   26.1317 C   0  0  0  0  0  0
  -27.0218  -30.2982   24.5829 C   0  0  0  0  0  0
  -27.6216  -32.4235   25.7329 C   0  0  0  0  0  0
  -27.5517  -37.1767   24.8518 C   0  0  0  0  0  0
  -21.4124  -29.3049   22.3758 N   0  0  0  0  0  0
  -26.4221  -37.3824   23.9507 N   0  0  0  0  0  0
  -24.6705  -31.0827   22.0931 N   0  0  0  0  0  0
  -23.4173  -28.8350   23.3084 O   0  0  0  0  0  0
  -28.3771  -26.6410   20.0686 O   0  0  0  0  0  0
  -26.5544  -34.8982   22.4661 O   0  0  0  0  0  0
  -23.5447  -32.1476   23.7464 O   0  0  0  0  0  0
  -30.7597  -21.9237   21.3077 C   0  0  0  0  0  0
  -29.1457  -20.3710   20.3707 C   0  0  0  0  0  0
  -29.6833  -21.6844   20.4384 C   0  0  0  0  0  0
  -31.1985  -20.9379   22.2142 C   0  0  0  0  0  0
  -29.6156  -19.3439   21.2332 C   0  0  0  0  0  0
  -30.5712  -19.6657   22.2357 C   0  0  0  0  0  0
  -32.3705  -21.2856   23.1167 C   0  0  0  0  0  0
  -31.5240  -18.5512   25.5805 C   0  0  0  0  0  0
  -29.0817  -18.3944   24.8580 C   0  0  0  0  0  0
  -29.1232  -22.8172   19.5618 C   0  0  0  0  0  0
  -29.0933  -17.9054   21.0882 C   0  0  0  0  0  0
  -29.3245  -24.2805   20.0836 C   0  0  0  0  0  0
  -30.2208  -16.9058   20.6801 C   0  0  0  0  0  0
  -28.2889  -25.2935   19.5371 C   0  0  0  0  0  0
  -30.4588  -19.0123   24.5711 C   0  0  0  0  0  0
  -30.9052  -18.7108   23.2137 N   0  0  0  0  0  0
  -29.8662  -15.4924   20.8422 N   0  0  0  0  0  0
  -31.4442  -12.3286   19.1190 H   0  0  0  0  0  0
  -30.2420  -11.2598   19.8056 H   0  0  0  0  0  0
  -29.7106  -11.7886   17.3912 H   0  0  0  0  0  0
  -29.6406  -13.4853   17.7735 H   0  0  0  0  0  0
  -27.8260  -11.2787   18.8182 H   0  0  0  0  0  0
  -27.3382  -12.5942   17.7887 H   0  0  0  0  0  0
  -27.6979  -14.2242   19.5474 H   0  0  0  0  0  0
  -28.6620  -11.9707   21.3844 H   0  0  0  0  0  0
  -28.4601  -13.6334   21.8437 H   0  0  0  0  0  0
  -25.2713   -9.5880   22.4666 H   0  0  0  0  0  0
  -24.0104   -7.4720   22.7423 H   0  0  0  0  0  0
  -21.0827   -8.8635   19.8929 H   0  0  0  0  0  0
  -22.3472  -10.9647   19.6163 H   0  0  0  0  0  0
  -21.1959   -7.6146   23.9684 H   0  0  0  0  0  0
  -21.1481   -6.0545   25.9065 H   0  0  0  0  0  0
  -22.0599   -2.7610   23.2877 H   0  0  0  0  0  0
  -22.4244  -11.9731   22.4680 H   0  0  0  0  0  0
  -21.1233  -13.1095   22.2796 H   0  0  0  0  0  0
  -24.6735  -15.8407   20.4883 H   0  0  0  0  0  0
  -26.2971  -15.6205   20.0884 H   0  0  0  0  0  0
  -26.7148  -32.5573   23.0943 H   0  0  0  0  0  0
  -25.0617  -33.9687   25.0782 H   0  0  0  0  0  0
  -22.6884  -31.3096   21.3985 H   0  0  0  0  0  0
  -23.3712  -35.9661   23.3340 H   0  0  0  0  0  0
  -24.3687  -36.8842   22.2092 H   0  0  0  0  0  0
  -23.7016  -37.6455   23.6610 H   0  0  0  0  0  0
  -26.0351  -31.5483   20.5484 H   0  0  0  0  0  0
  -26.8251  -30.9014   21.9562 H   0  0  0  0  0  0
  -28.0873  -29.0735   21.1548 H   0  0  0  0  0  0
  -25.9674  -26.0271   18.9063 H   0  0  0  0  0  0
  -23.9465  -27.3220   19.0184 H   0  0  0  0  0  0
  -23.7169  -30.5754   19.3942 H   0  0  0  0  0  0
  -22.7233  -29.2333   19.8811 H   0  0  0  0  0  0
  -25.1209  -36.2009   25.0810 H   0  0  0  0  0  0
  -20.9951  -28.3219   24.1491 H   0  0  0  0  0  0
  -20.5719  -26.2269   23.3614 H   0  0  0  0  0  0
  -21.6652  -26.7525   22.1199 H   0  0  0  0  0  0
  -19.6974  -25.6336   21.1269 H   0  0  0  0  0  0
  -19.6673  -27.3236   20.6826 H   0  0  0  0  0  0
  -17.4205  -26.6617   21.4037 H   0  0  0  0  0  0
  -18.0298  -25.9991   22.9020 H   0  0  0  0  0  0
  -19.7910  -30.7219   24.2338 H   0  0  0  0  0  0
  -17.5044  -31.6307   24.5109 H   0  0  0  0  0  0
  -15.5350  -30.3055   23.7694 H   0  0  0  0  0  0
  -15.8618  -28.0907   22.7078 H   0  0  0  0  0  0
  -24.6214  -30.6656   25.7646 H   0  0  0  0  0  0
  -24.8756  -32.2629   26.4592 H   0  0  0  0  0  0
  -25.8254  -30.8926   27.0123 H   0  0  0  0  0  0
  -26.2622  -29.6937   24.0779 H   0  0  0  0  0  0
  -27.3819  -29.7035   25.4231 H   0  0  0  0  0  0
  -27.8563  -30.4266   23.8945 H   0  0  0  0  0  0
  -27.2831  -33.3240   26.2478 H   0  0  0  0  0  0
  -28.3808  -32.7241   25.0025 H   0  0  0  0  0  0
  -28.1251  -31.8181   26.4823 H   0  0  0  0  0  0
  -28.2626  -37.9994   24.7652 H   0  0  0  0  0  0
  -28.0862  -36.2554   24.6246 H   0  0  0  0  0  0
  -27.2316  -37.1425   25.8947 H   0  0  0  0  0  0
  -20.9277  -29.8790   21.6997 H   0  0  0  0  0  0
  -26.0117  -38.2958   24.1355 H   0  0  0  0  0  0
  -31.2523  -22.8830   21.3053 H   0  0  0  0  0  0
  -28.3715  -20.1638   19.6412 H   0  0  0  0  0  0
  -33.0543  -21.9615   22.5965 H   0  0  0  0  0  0
  -32.9482  -20.3981   23.3660 H   0  0  0  0  0  0
  -32.0328  -21.7717   24.0337 H   0  0  0  0  0  0
  -31.8333  -17.5168   25.4225 H   0  0  0  0  0  0
  -31.1571  -18.6158   26.6083 H   0  0  0  0  0  0
  -32.4062  -19.1939   25.5055 H   0  0  0  0  0  0
  -28.7462  -18.6667   25.8607 H   0  0  0  0  0  0
  -29.0727  -17.3074   24.7903 H   0  0  0  0  0  0
  -28.3198  -18.7657   24.1651 H   0  0  0  0  0  0
  -28.0559  -22.6340   19.4345 H   0  0  0  0  0  0
  -29.5646  -22.7204   18.5704 H   0  0  0  0  0  0
  -28.2801  -17.8618   20.3568 H   0  0  0  0  0  0
  -28.6470  -17.6304   22.0415 H   0  0  0  0  0  0
  -30.3409  -24.6191   19.8754 H   0  0  0  0  0  0
  -29.2072  -24.2888   21.1661 H   0  0  0  0  0  0
  -31.1258  -17.0652   21.2687 H   0  0  0  0  0  0
  -30.5042  -17.0802   19.6415 H   0  0  0  0  0  0
  -27.3348  -24.8365   19.7924 H   0  0  0  0  0  0
  -28.3438  -25.3464   18.4477 H   0  0  0  0  0  0
  -30.3571  -20.0943   24.6911 H   0  0  0  0  0  0
  -30.6385  -17.7735   22.9436 H   0  0  0  0  0  0
  -28.9152  -15.2681   21.0913 H   0  0  0  0  0  0
  1 25  1  0  0  0
  1 30  2  0  0  0
  1 87  1  0  0  0
  2  3  1  0  0  0
  2 25  1  0  0  0
  2 88  1  0  0  0
  2 89  1  0  0  0
  3  4  1  0  0  0
  3 90  1  0  0  0
  3 91  1  0  0  0
  4  5  1  0  0  0
  4 92  1  0  0  0
  4 93  1  0  0  0
  5  6  1  0  0  0
  5 26  1  0  0  0
  5 94  1  0  0  0
  6 25  1  0  0  0
  6 95  1  0  0  0
  6 96  1  0  0  0
  7  8  2  0  0  0
  7 26  1  0  0  0
  7 29  1  0  0  0
  8  9  1  0  0  0
  8 22  1  0  0  0
  9 10  1  0  0  0
  9 27  2  0  0  0
 10 11  2  0  0  0
 10 15  1  0  0  0
 11 12  1  0  0  0
 11 97  1  0  0  0
 12 13  2  0  0  0
 12 98  1  0  0  0
 13 14  1  0  0  0
 13 31  1  0  0  0
 14 15  2  0  0  0
 14 99  1  0  0  0
 15100  1  0  0  0
 16 17  2  0  0  0
 16 21  1  0  0  0
 16 31  1  0  0  0
 17 18  1  0  0  0
 17101  1  0  0  0
 18 19  2  0  0  0
 18102  1  0  0  0
 19 20  1  0  0  0
 19 24  1  0  0  0
 20 21  2  0  0  0
 20103  1  0  0  0
 21 23  1  0  0  0
 22 28  1  0  0  0
 22 32  2  0  0  0
 26 27  1  0  0  0
 28104  1  0  0  0
 28105  1  0  0  0
 29106  1  0  0  0
 29107  1  0  0  0
 33 34  1  0  0  0
 33 66  1  0  0  0
 33 70  2  0  0  0
 34 36  1  0  0  0
 34 59  1  0  0  0
 34108  1  0  0  0
 35 44  2  0  0  0
 35 45  1  0  0  0
 35 68  1  0  0  0
 36 56  1  0  0  0
 36109  1  0  0  0
 37 39  1  0  0  0
 37 47  1  0  0  0
 37 66  1  0  0  0
 37110  1  0  0  0
 38 43  2  0  0  0
 38 46  1  0  0  0
 38 47  1  0  0  0
 39 64  1  0  0  0
 39 67  2  0  0  0
 40 52  1  0  0  0
 40 53  2  0  0  0
 40 58  1  0  0  0
 41111  1  0  0  0
 41112  1  0  0  0
 41113  1  0  0  0
 41 48  1  0  0  0
 42 43  1  0  0  0
 42 66  1  0  0  0
 42114  1  0  0  0
 42115  1  0  0  0
 43 44  1  0  0  0
 44116  1  0  0  0
 45 46  2  0  0  0
 45117  1  0  0  0
 46118  1  0  0  0
 47119  1  0  0  0
 47120  1  0  0  0
 48 56  1  0  0  0
 48 65  1  0  0  0
 48121  1  0  0  0
 49 50  1  0  0  0
 49 53  1  0  0  0
 49 64  1  0  0  0
 49122  1  0  0  0
 50 51  1  0  0  0
 50123  1  0  0  0
 50124  1  0  0  0
 51 52  1  0  0  0
 51125  1  0  0  0
 51126  1  0  0  0
 52127  1  0  0  0
 52128  1  0  0  0
 53 54  1  0  0  0
 54 55  2  0  0  0
 54129  1  0  0  0
 55 57  1  0  0  0
 55130  1  0  0  0
 56 69  2  0  0  0
 57 58  2  0  0  0
 57131  1  0  0  0
 58132  1  0  0  0
 59 60  1  0  0  0
 59 61  1  0  0  0
 59 62  1  0  0  0
 60133  1  0  0  0
 60134  1  0  0  0
 60135  1  0  0  0
 61136  1  0  0  0
 61137  1  0  0  0
 61138  1  0  0  0
 62139  1  0  0  0
 62140  1  0  0  0
 62141  1  0  0  0
 63 65  1  0  0  0
 63142  1  0  0  0
 63143  1  0  0  0
 63144  1  0  0  0
 64145  1  0  0  0
 65146  1  0  0  0
 68 84  1  0  0  0
 71 73  2  0  0  0
 71 74  1  0  0  0
 71147  1  0  0  0
 72 73  1  0  0  0
 72 75  2  0  0  0
 72148  1  0  0  0
 73 80  1  0  0  0
 74 76  2  0  0  0
 74 77  1  0  0  0
 75 76  1  0  0  0
 75 81  1  0  0  0
 76 86  1  0  0  0
 77149  1  0  0  0
 77150  1  0  0  0
 77151  1  0  0  0
 78152  1  0  0  0
 78153  1  0  0  0
 78154  1  0  0  0
 78 85  1  0  0  0
 79 85  1  0  0  0
 79155  1  0  0  0
 79156  1  0  0  0
 79157  1  0  0  0
 80 82  1  0  0  0
 80158  1  0  0  0
 80159  1  0  0  0
 81 83  1  0  0  0
 81160  1  0  0  0
 81161  1  0  0  0
 82 84  1  0  0  0
 82162  1  0  0  0
 82163  1  0  0  0
 83 87  1  0  0  0
 83164  1  0  0  0
 83165  1  0  0  0
 84166  1  0  0  0
 84167  1  0  0  0
 85 86  1  0  0  0
 85168  1  0  0  0
 86169  1  0  0  0
 87170  1  0  0  0
M  ISO  4   1 100  68 101  84 101  87 100
M  END
> <chiral flag>
0

> <version>
0

> <s_m_source_file>
/data/baiqing/PycharmProjects/Reinvent-master-3.2/result/LINK_invent/BTK/process_docking_weight1_custom_sum_contain_oxygen_bond_distance_aromatic_linkinvent_7_9_3/rearranged_h_0101.sdf

> <i_m_source_file_index>
26

> <r_mmod_Potential_Energy-OPLS-2005>
-118.288452148438

> <r_mmod_Stretch_Energy-OPLS-2005>
42.9247093200684

> <r_mmod_Bend_Energy-OPLS-2005>
102.353622436523

> <r_mmod_Torsional_Energy-OPLS-2005>
219.494033813477

> <r_mmod_Improper_Torsional_Energy-OPLS-2005>
10.6128177642822

> <r_mmod_Van_der_Waal_Energy-OPLS-2005>
166.426147460938

> <r_mmod_Electrostatic_Energy-OPLS-2005>
-466.785400390625

> <r_mmod_Solvation_Energy-OPLS-2005>
-211.020584106445

> <b_mmod_Minimization_Converged-OPLS-2005>
0

> <r_mmod_RMS_Derivative-OPLS-2005>
10.1732139587402

$$$$
26
                    3D
 Structure written by MMmdl.
164172  0  0  1  0            999 V2000
  -29.8713  -14.1758   19.2601 C   0  0  0  0  0  0
  -30.7293  -12.1433   19.7758 C   0  0  0  0  0  0
  -29.6621  -11.4317   18.9990 C   0  0  0  0  0  0
  -28.3837  -11.4914   19.9438 C   0  0  0  0  0  0
  -27.9401  -12.9357   20.7189 C   0  0  2  0  0  0
  -29.1716  -13.2988   21.3992 C   0  0  0  0  0  0
  -25.7777  -14.5731   21.1027 C   0  0  0  0  0  0
  -24.6625  -14.1067   21.7480 C   0  0  0  0  0  0
  -25.0304  -13.0582   20.9352 C   0  0  0  0  0  0
  -23.7678  -10.8882   19.3287 C   0  0  0  0  0  0
  -24.1167   -9.3489   19.7615 C   0  0  0  0  0  0
  -23.7114   -8.4482   20.8853 C   0  0  0  0  0  0
  -22.3365   -8.2711   21.0246 C   0  0  0  0  0  0
  -21.7004   -9.2463   20.2033 C   0  0  0  0  0  0
  -22.3737  -10.3361   19.4447 C   0  0  0  0  0  0
  -21.7711   -6.2252   22.4765 C   0  0  0  0  0  0
  -21.4745   -6.6675   23.7887 C   0  0  0  0  0  0
  -21.4024   -5.7572   24.8746 C   0  0  0  0  0  0
  -21.6174   -4.3803   24.6739 C   0  0  0  0  0  0
  -21.8942   -3.9162   23.3785 C   0  0  0  0  0  0
  -21.9578   -4.8213   22.2942 C   0  0  0  0  0  0
  -23.2578  -14.5843   22.1344 C   0  0  0  0  0  0
  -22.1688   -4.3130   21.0566 F   0  0  0  0  0  0
  -21.5554   -3.5104   25.7155 F   0  0  0  0  0  0
  -30.0869  -13.3410   20.2657 N   0  0  0  0  0  0
  -26.6691  -13.4693   21.1770 N   0  0  0  0  0  0
  -25.9618  -12.8245   21.9290 N   0  0  0  0  0  0
  -22.6257  -13.7470   22.9802 N   0  0  0  0  0  0
  -26.1182  -15.7263   20.4798 N   0  0  0  0  0  0
  -30.8362  -14.9733   19.1905 O   0  0  0  0  0  0
  -21.6593   -7.0712   21.3612 O   0  0  0  0  0  0
  -22.5826  -15.3490   21.4459 O   0  0  0  0  0  0
  -24.7260  -31.7455   23.1306 C   0  0  0  0  0  0
  -25.9699  -32.4138   23.7888 C   0  0  1  0  0  0
  -26.4212  -26.0264   20.1584 C   0  0  0  0  0  0
  -25.6121  -33.8027   24.1675 N   0  0  0  0  0  0
  -23.5231  -30.3932   21.5100 C   0  0  2  0  0  0
  -24.8253  -28.6697   20.0464 C   0  0  0  0  0  0
  -22.7767  -29.4139   22.4582 C   0  0  0  0  0  0
  -18.0329  -28.1422   22.8447 C   0  0  0  0  0  0
  -24.1502  -36.7002   23.2653 C   0  0  0  0  0  0
  -26.1022  -30.1990   21.4921 C   0  0  0  0  0  0
  -25.9972  -28.7334   20.7941 C   0  0  0  0  0  0
  -26.8125  -27.4236   20.8224 C   0  0  0  0  0  0
  -25.4324  -26.3834   19.2501 C   0  0  0  0  0  0
  -24.6424  -27.5544   19.2325 C   0  0  0  0  0  0
  -23.7508  -29.7602   20.1130 C   0  0  0  0  0  0
  -25.4175  -36.2708   24.0230 C   0  0  1  0  0  0
  -20.5959  -28.3769   23.1097 C   0  0  2  0  0  0
  -20.6776  -26.9412   22.5406 C   0  0  0  0  0  0
  -19.5755  -26.6342   21.5219 C   0  0  0  0  0  0
  -18.1939  -26.7947   22.1615 C   0  0  0  0  0  0
  -19.1599  -28.8927   23.2752 C   0  0  0  0  0  0
  -18.9512  -30.1511   23.8798 C   0  0  0  0  0  0
  -17.6501  -30.6601   24.0544 C   0  0  0  0  0  0
  -25.9213  -34.9119   23.4811 C   0  0  0  0  0  0
  -16.5387  -29.9077   23.6361 C   0  0  0  0  0  0
  -16.7312  -28.6504   23.0372 C   0  0  0  0  0  0
  -26.4698  -31.6470   25.0765 C   0  0  0  0  0  0
  -25.3624  -31.3983   26.1289 C   0  0  0  0  0  0
  -27.0719  -30.2748   24.7160 C   0  0  0  0  0  0
  -27.6044  -32.4503   25.7559 C   0  0  0  0  0  0
  -27.5565  -37.1641   24.8443 C   0  0  0  0  0  0
  -21.4405  -29.2975   22.3363 N   0  0  0  0  0  0
  -26.4232  -37.3551   23.9434 N   0  0  0  0  0  0
  -24.8263  -30.8353   22.0876 N   0  0  0  0  0  0
  -23.4123  -28.7694   23.2967 O   0  0  0  0  0  0
  -26.6927  -24.3702   20.1266 O   0  0  0  0  0  0
  -26.5903  -34.8793   22.4468 O   0  0  0  0  0  0
  -23.6252  -32.0923   23.6017 O   0  0  0  0  0  0
  -24.7554  -13.1943   18.5498 C   0  0  0  0  0  0
  -23.9285  -11.2566   21.4904 C   0  0  0  0  0  0
  -23.5295  -13.9276   19.3260 C   0  0  0  0  0  0
  -22.8196  -12.6474   20.5140 C   0  0  0  0  0  0
  -25.8932  -12.0645   19.0103 C   0  0  0  0  0  0
  -20.5875  -11.8256   21.7439 C   0  0  0  0  0  0
  -20.3878  -12.9437   19.4455 C   0  0  0  0  0  0
  -23.7713  -16.1019   19.1616 C   0  0  0  0  0  0
  -27.3140  -12.8042   18.0902 C   0  0  0  0  0  0
  -24.4614  -18.2152   19.8258 C   0  0  0  0  0  0
  -25.3876  -20.3188   19.5694 C   0  0  0  0  0  0
  -25.7017  -22.5560   20.0604 C   0  0  0  0  0  0
  -21.2440  -12.7785   20.7232 C   0  0  0  0  0  0
  -25.6618  -10.9819   20.5030 N   0  0  0  0  0  0
  -28.6823  -13.8942   18.3447 N   0  0  0  0  0  0
  -31.6211  -12.3388   19.1730 H   0  0  0  0  0  0
  -31.0568  -11.5410   20.6245 H   0  0  0  0  0  0
  -29.9641  -10.3858   18.9231 H   0  0  0  0  0  0
  -29.6258  -11.7255   17.9534 H   0  0  0  0  0  0
  -28.6499  -10.8668   20.7977 H   0  0  0  0  0  0
  -27.7246  -10.7675   19.4908 H   0  0  0  0  0  0
  -27.7484  -13.8332   20.2178 H   0  0  0  0  0  0
  -29.4734  -12.5605   22.1436 H   0  0  0  0  0  0
  -29.1117  -14.2719   21.8914 H   0  0  0  0  0  0
  -25.0929   -9.0301   19.4148 H   0  0  0  0  0  0
  -24.3605   -7.6360   21.1818 H   0  0  0  0  0  0
  -20.6427   -9.1111   20.0234 H   0  0  0  0  0  0
  -21.7149  -10.8484   18.7766 H   0  0  0  0  0  0
  -21.2733   -7.7142   23.9624 H   0  0  0  0  0  0
  -21.1734   -6.1224   25.8653 H   0  0  0  0  0  0
  -22.0441   -2.8613   23.2057 H   0  0  0  0  0  0
  -23.1495  -13.0487   23.4817 H   0  0  0  0  0  0
  -21.6485  -13.8828   23.1836 H   0  0  0  0  0  0
  -25.4863  -16.5095   20.3731 H   0  0  0  0  0  0
  -27.0080  -15.8800   20.0231 H   0  0  0  0  0  0
  -26.7772  -32.4337   23.0550 H   0  0  0  0  0  0
  -25.0112  -33.9000   24.9727 H   0  0  0  0  0  0
  -22.8776  -31.2608   21.3569 H   0  0  0  0  0  0
  -23.3839  -35.9248   23.3133 H   0  0  0  0  0  0
  -24.3570  -36.8894   22.2108 H   0  0  0  0  0  0
  -23.7170  -37.6062   23.6902 H   0  0  0  0  0  0
  -26.4534  -30.8874   20.7224 H   0  0  0  0  0  0
  -26.9181  -30.1614   22.1980 H   0  0  0  0  0  0
  -27.6618  -27.4134   21.4894 H   0  0  0  0  0  0
  -25.0871  -25.5921   18.5999 H   0  0  0  0  0  0
  -23.7868  -27.5494   18.5697 H   0  0  0  0  0  0
  -24.0384  -30.5437   19.4112 H   0  0  0  0  0  0
  -22.8078  -29.3632   19.7335 H   0  0  0  0  0  0
  -25.1399  -36.1377   25.0712 H   0  0  0  0  0  0
  -21.0048  -28.3419   24.1220 H   0  0  0  0  0  0
  -20.5627  -26.2401   23.3686 H   0  0  0  0  0  0
  -21.6634  -26.7323   22.1228 H   0  0  0  0  0  0
  -19.6896  -25.6225   21.1311 H   0  0  0  0  0  0
  -19.6705  -27.3101   20.6709 H   0  0  0  0  0  0
  -17.4213  -26.6711   21.4010 H   0  0  0  0  0  0
  -18.0298  -26.0108   22.9024 H   0  0  0  0  0  0
  -19.7991  -30.7353   24.2116 H   0  0  0  0  0  0
  -17.5052  -31.6271   24.5168 H   0  0  0  0  0  0
  -15.5383  -30.2948   23.7743 H   0  0  0  0  0  0
  -15.8712  -28.0791   22.7139 H   0  0  0  0  0  0
  -24.5844  -30.7288   25.7601 H   0  0  0  0  0  0
  -24.8781  -32.3272   26.4317 H   0  0  0  0  0  0
  -25.7667  -30.9407   27.0327 H   0  0  0  0  0  0
  -26.3412  -29.6043   24.2631 H   0  0  0  0  0  0
  -27.4304  -29.7631   25.6104 H   0  0  0  0  0  0
  -27.9376  -30.3718   24.0604 H   0  0  0  0  0  0
  -27.2510  -33.3954   26.1702 H   0  0  0  0  0  0
  -28.4033  -32.6841   25.0507 H   0  0  0  0  0  0
  -28.0525  -31.8972   26.5825 H   0  0  0  0  0  0
  -28.2422  -38.0086   24.7639 H   0  0  0  0  0  0
  -28.1220  -36.2614   24.6081 H   0  0  0  0  0  0
  -27.2305  -37.1024   25.8840 H   0  0  0  0  0  0
  -20.9728  -29.8686   21.6463 H   0  0  0  0  0  0
  -25.9998  -38.2546   24.1555 H   0  0  0  0  0  0
  -25.0791  -13.8769   17.7817 H   0  0  0  0  0  0
  -23.5932  -10.6088   22.2869 H   0  0  0  0  0  0
  -21.2369  -11.5903   22.5849 H   0  0  0  0  0  0
  -20.2450  -10.8969   21.3072 H   0  0  0  0  0  0
  -19.6883  -12.2872   22.1543 H   0  0  0  0  0  0
  -20.8408  -13.6340   18.7337 H   0  0  0  0  0  0
  -19.4163  -13.3660   19.7069 H   0  0  0  0  0  0
  -20.1417  -12.0230   18.9264 H   0  0  0  0  0  0
  -22.7314  -16.3307   18.9296 H   0  0  0  0  0  0
  -24.2330  -16.0975   18.1749 H   0  0  0  0  0  0
  -26.8793  -13.3298   17.2463 H   0  0  0  0  0  0
  -27.6562  -11.9582   17.4989 H   0  0  0  0  0  0
  -24.8520  -17.9879   20.8170 H   0  0  0  0  0  0
  -23.4602  -18.5690   20.0720 H   0  0  0  0  0  0
  -25.2369  -20.4272   18.4949 H   0  0  0  0  0  0
  -26.4312  -20.0142   19.6473 H   0  0  0  0  0  0
  -25.5489  -22.4887   21.1366 H   0  0  0  0  0  0
  -24.7499  -22.9422   19.6940 H   0  0  0  0  0  0
  -21.0092  -13.7417   21.1452 H   0  0  0  0  0  0
  -28.6983  -14.5704   17.5958 H   0  0  0  0  0  0
  1 25  1  0  0  0
  1 30  2  0  0  0
  1 85  1  0  0  0
  2  3  1  0  0  0
  2 25  1  0  0  0
  2 86  1  0  0  0
  2 87  1  0  0  0
  3  4  1  0  0  0
  3 88  1  0  0  0
  3 89  1  0  0  0
  4  5  1  0  0  0
  4 90  1  0  0  0
  4 91  1  0  0  0
  5  6  1  0  0  0
  5 26  1  0  0  0
  5 92  1  0  0  0
  6 25  1  0  0  0
  6 93  1  0  0  0
  6 94  1  0  0  0
  7  8  2  0  0  0
  7 26  1  0  0  0
  7 29  1  0  0  0
  8  9  1  0  0  0
  8 22  1  0  0  0
  9 10  1  0  0  0
  9 27  2  0  0  0
 10 11  2  0  0  0
 10 15  1  0  0  0
 11 12  1  0  0  0
 11 95  1  0  0  0
 12 13  2  0  0  0
 12 96  1  0  0  0
 13 14  1  0  0  0
 13 31  1  0  0  0
 14 15  2  0  0  0
 14 97  1  0  0  0
 15 98  1  0  0  0
 16 17  2  0  0  0
 16 21  1  0  0  0
 16 31  1  0  0  0
 17 18  1  0  0  0
 17 99  1  0  0  0
 18 19  2  0  0  0
 18100  1  0  0  0
 19 20  1  0  0  0
 19 24  1  0  0  0
 20 21  2  0  0  0
 20101  1  0  0  0
 21 23  1  0  0  0
 22 28  1  0  0  0
 22 32  2  0  0  0
 26 27  1  0  0  0
 28102  1  0  0  0
 28103  1  0  0  0
 29104  1  0  0  0
 29105  1  0  0  0
 33 34  1  0  0  0
 33 66  1  0  0  0
 33 70  2  0  0  0
 34 36  1  0  0  0
 34 59  1  0  0  0
 34106  1  0  0  0
 35 44  2  0  0  0
 35 45  1  0  0  0
 35 68  1  0  0  0
 36 56  1  0  0  0
 36107  1  0  0  0
 37 39  1  0  0  0
 37 47  1  0  0  0
 37 66  1  0  0  0
 37108  1  0  0  0
 38 43  2  0  0  0
 38 46  1  0  0  0
 38 47  1  0  0  0
 39 64  1  0  0  0
 39 67  2  0  0  0
 40 52  1  0  0  0
 40 53  2  0  0  0
 40 58  1  0  0  0
 41109  1  0  0  0
 41110  1  0  0  0
 41111  1  0  0  0
 41 48  1  0  0  0
 42 43  1  0  0  0
 42 66  1  0  0  0
 42112  1  0  0  0
 42113  1  0  0  0
 43 44  1  0  0  0
 44114  1  0  0  0
 45 46  2  0  0  0
 45115  1  0  0  0
 46116  1  0  0  0
 47117  1  0  0  0
 47118  1  0  0  0
 48 56  1  0  0  0
 48 65  1  0  0  0
 48119  1  0  0  0
 49 50  1  0  0  0
 49 53  1  0  0  0
 49 64  1  0  0  0
 49120  1  0  0  0
 50 51  1  0  0  0
 50121  1  0  0  0
 50122  1  0  0  0
 51 52  1  0  0  0
 51123  1  0  0  0
 51124  1  0  0  0
 52125  1  0  0  0
 52126  1  0  0  0
 53 54  1  0  0  0
 54 55  2  0  0  0
 54127  1  0  0  0
 55 57  1  0  0  0
 55128  1  0  0  0
 56 69  2  0  0  0
 57 58  2  0  0  0
 57129  1  0  0  0
 58130  1  0  0  0
 59 60  1  0  0  0
 59 61  1  0  0  0
 59 62  1  0  0  0
 60131  1  0  0  0
 60132  1  0  0  0
 60133  1  0  0  0
 61134  1  0  0  0
 61135  1  0  0  0
 61136  1  0  0  0
 62137  1  0  0  0
 62138  1  0  0  0
 62139  1  0  0  0
 63 65  1  0  0  0
 63140  1  0  0  0
 63141  1  0  0  0
 63142  1  0  0  0
 64143  1  0  0  0
 65144  1  0  0  0
 68 82  1  0  0  0
 71 73  2  0  0  0
 71 75  1  0  0  0
 71145  1  0  0  0
 72 74  2  0  0  0
 72 84  1  0  0  0
 72146  1  0  0  0
 73 74  1  0  0  0
 73 78  1  0  0  0
 74 83  1  0  0  0
 75 79  1  0  0  0
 75 84  2  0  0  0
 76147  1  0  0  0
 76148  1  0  0  0
 76149  1  0  0  0
 76 83  1  0  0  0
 77 83  1  0  0  0
 77150  1  0  0  0
 77151  1  0  0  0
 77152  1  0  0  0
 78 80  1  0  0  0
 78153  1  0  0  0
 78154  1  0  0  0
 79 85  1  0  0  0
 79155  1  0  0  0
 79156  1  0  0  0
 80 81  1  0  0  0
 80157  1  0  0  0
 80158  1  0  0  0
 81 82  1  0  0  0
 81159  1  0  0  0
 81160  1  0  0  0
 82161  1  0  0  0
 82162  1  0  0  0
 83163  1  0  0  0
 85164  1  0  0  0
M  ISO  4   1 100  68 101  82 101  85 100
M  END
> <chiral flag>
0

> <version>
0

> <s_m_source_file>
/data/baiqing/PycharmProjects/Reinvent-master-3.2/result/LINK_invent/BTK/process_docking_weight1_custom_sum_contain_oxygen_bond_distance_aromatic_linkinvent_7_9_3/rearranged_h_0101.sdf

> <i_m_source_file_index>
27

> <r_mmod_Potential_Energy-OPLS-2005>
21663.431640625

> <r_mmod_Stretch_Energy-OPLS-2005>
10454.3076171875

> <r_mmod_Bend_Energy-OPLS-2005>
2201.42065429688

> <r_mmod_Torsional_Energy-OPLS-2005>
898.750793457031

> <r_mmod_Improper_Torsional_Energy-OPLS-2005>
113.518089294434

> <r_mmod_Van_der_Waal_Energy-OPLS-2005>
3426.39086914062

> <r_mmod_Electrostatic_Energy-OPLS-2005>
-549.428283691406

> <r_mmod_Solvation_Energy-OPLS-2005>
-229.482391357422

> <b_mmod_Minimization_Converged-OPLS-2005>
0

> <r_mmod_RMS_Derivative-OPLS-2005>
2.8375289440155

$$$$
27
                    3D
 Structure written by MMmdl.
175183  0  0  1  0            999 V2000
  -30.6817  -14.5529   20.4624 C   0  0  0  0  0  0
  -30.4039  -12.3252   19.4544 C   0  0  0  0  0  0
  -29.4900  -12.4965   18.2230 C   0  0  0  0  0  0
  -28.0091  -12.3696   18.6273 C   0  0  0  0  0  0
  -27.6501  -13.2257   19.8709 C   0  0  2  0  0  0
  -28.6938  -13.0737   21.0017 C   0  0  0  0  0  0
  -25.2525  -13.8231   20.5751 C   0  0  0  0  0  0
  -24.1796  -13.0472   20.9211 C   0  0  0  0  0  0
  -24.6379  -11.6947   20.8755 C   0  0  0  0  0  0
  -23.9063  -10.4313   21.0410 C   0  0  0  0  0  0
  -24.3627   -9.4223   21.9178 C   0  0  0  0  0  0
  -23.6309   -8.2259   22.0741 C   0  0  0  0  0  0
  -22.4280   -8.0301   21.3545 C   0  0  0  0  0  0
  -21.9918   -9.0271   20.4638 C   0  0  0  0  0  0
  -22.7242  -10.2156   20.3050 C   0  0  0  0  0  0
  -21.6865   -6.0738   22.5265 C   0  0  0  0  0  0
  -21.4012   -6.5633   23.8198 C   0  0  0  0  0  0
  -21.3672   -5.6782   24.9160 C   0  0  0  0  0  0
  -21.6057   -4.3044   24.7206 C   0  0  0  0  0  0
  -21.8822   -3.8144   23.4322 C   0  0  0  0  0  0
  -21.9199   -4.6967   22.3386 C   0  0  0  0  0  0
  -22.7802  -13.5242   21.1854 C   0  0  0  0  0  0
  -22.1663   -4.2155   21.0964 F   0  0  0  0  0  0
  -21.5644   -3.4533   25.7720 F   0  0  0  0  0  0
  -30.0207  -13.3582   20.4361 N   0  0  0  0  0  0
  -26.2963  -12.9438   20.3402 N   0  0  0  0  0  0
  -25.9315  -11.6572   20.5794 N   0  0  0  0  0  0
  -22.0468  -12.8227   22.0420 N   0  0  0  0  0  0
  -25.4267  -15.1958   20.4152 N   0  0  0  0  0  0
  -31.8304  -14.6524   20.0357 O   0  0  0  0  0  0
  -21.6650   -6.8892   21.4234 O   0  0  0  0  0  0
  -22.3475  -14.5546   20.6694 O   0  0  0  0  0  0
  -24.6183  -31.8687   23.2121 C   0  0  0  0  0  0
  -25.9067  -32.4836   23.8419 C   0  0  1  0  0  0
  -27.2162  -27.3961   20.0904 C   0  0  0  0  0  0
  -25.5906  -33.8634   24.2338 N   0  0  0  0  0  0
  -23.4067  -30.4988   21.5537 C   0  0  2  0  0  0
  -24.8465  -28.9675   20.1132 C   0  0  0  0  0  0
  -22.7431  -29.4684   22.4972 C   0  0  0  0  0  0
  -18.0287  -28.1385   22.8494 C   0  0  0  0  0  0
  -24.1483  -36.7318   23.2643 C   0  0  0  0  0  0
  -25.9424  -30.8224   21.3756 C   0  0  0  0  0  0
  -26.0116  -29.4561   20.7165 C   0  0  0  0  0  0
  -27.1947  -28.6762   20.7054 C   0  0  0  0  0  0
  -26.0313  -26.9533   19.4536 C   0  0  0  0  0  0
  -24.8530  -27.7173   19.4808 C   0  0  0  0  0  0
  -23.6175  -29.8440   20.1647 C   0  0  0  0  0  0
  -25.4110  -36.3132   24.0344 C   0  0  1  0  0  0
  -20.5880  -28.3683   23.1299 C   0  0  2  0  0  0
  -20.6771  -26.9415   22.5413 C   0  0  0  0  0  0
  -19.5746  -26.6395   21.5214 C   0  0  0  0  0  0
  -18.1925  -26.7924   22.1626 C   0  0  0  0  0  0
  -19.1534  -28.8843   23.2900 C   0  0  0  0  0  0
  -18.9462  -30.1446   23.8917 C   0  0  0  0  0  0
  -17.6466  -30.6588   24.0567 C   0  0  0  0  0  0
  -25.9049  -34.9487   23.5144 C   0  0  0  0  0  0
  -16.5358  -29.9103   23.6319 C   0  0  0  0  0  0
  -16.7267  -28.6514   23.0338 C   0  0  0  0  0  0
  -26.4465  -31.6614   25.0753 C   0  0  0  0  0  0
  -25.3711  -31.3735   26.1488 C   0  0  0  0  0  0
  -27.0288  -30.3048   24.6154 C   0  0  0  0  0  0
  -27.6061  -32.4309   25.7492 C   0  0  0  0  0  0
  -27.5585  -37.1824   24.8462 C   0  0  0  0  0  0
  -21.4154  -29.3063   22.3712 N   0  0  0  0  0  0
  -26.4293  -37.3821   23.9410 N   0  0  0  0  0  0
  -24.6748  -31.0763   22.1056 N   0  0  0  0  0  0
  -23.4181  -28.8209   23.3021 O   0  0  0  0  0  0
  -28.3825  -26.6409   20.1336 O   0  0  0  0  0  0
  -26.5614  -34.8930   22.4712 O   0  0  0  0  0  0
  -23.5365  -32.1451   23.7500 O   0  0  0  0  0  0
  -29.4059  -19.1820   20.7260 C   0  0  0  0  0  0
  -30.2665  -18.2693   20.1555 C   0  0  0  0  0  0
  -31.4791  -19.0110   19.8883 C   0  0  0  0  0  0
  -31.2902  -20.3178   20.3025 C   0  0  0  0  0  0
  -32.5947  -17.9645   17.8187 C   0  0  0  0  0  0
  -33.5377  -17.5843   20.1882 C   0  0  0  0  0  0
  -32.5440  -21.9958   18.8421 C   0  0  0  0  0  0
  -33.4787  -21.3505   21.1409 C   0  0  0  0  0  0
  -30.4119  -24.7757   21.1878 C   0  0  0  0  0  0
  -29.8912  -16.8172   19.7454 C   0  0  0  0  0  0
  -29.0570  -22.7933   20.2624 C   0  0  0  0  0  0
  -29.3532  -21.6732   21.3161 C   0  0  0  0  0  0
  -28.3838  -25.2418   19.7400 C   0  0  0  0  0  0
  -32.7692  -18.5126   19.2453 C   0  0  0  0  0  0
  -32.2221  -21.5190   20.2689 C   0  0  0  0  0  0
  -29.0149  -24.2736   20.7850 C   0  0  2  0  0  0
  -29.9896  -20.4434   20.7817 N   0  0  0  0  0  0
  -29.9346  -15.6633   20.6890 N   0  0  0  0  0  0
  -31.4520  -12.3925   19.1572 H   0  0  0  0  0  0
  -30.2800  -11.3312   19.8869 H   0  0  0  0  0  0
  -29.7282  -11.7519   17.4630 H   0  0  0  0  0  0
  -29.6641  -13.4716   17.7631 H   0  0  0  0  0  0
  -27.8091  -11.3172   18.8292 H   0  0  0  0  0  0
  -27.3686  -12.6461   17.7882 H   0  0  0  0  0  0
  -27.6704  -14.2634   19.5412 H   0  0  0  0  0  0
  -28.6716  -12.0625   21.4100 H   0  0  0  0  0  0
  -28.4628  -13.7443   21.8308 H   0  0  0  0  0  0
  -25.2781   -9.5711   22.4735 H   0  0  0  0  0  0
  -24.0043   -7.4641   22.7436 H   0  0  0  0  0  0
  -21.0860   -8.8777   19.8922 H   0  0  0  0  0  0
  -22.3700  -10.9696   19.6151 H   0  0  0  0  0  0
  -21.1981   -7.6127   23.9703 H   0  0  0  0  0  0
  -21.1504   -6.0500   25.9064 H   0  0  0  0  0  0
  -22.0592   -2.7605   23.2809 H   0  0  0  0  0  0
  -22.4083  -11.9895   22.4815 H   0  0  0  0  0  0
  -21.1074  -13.1224   22.2614 H   0  0  0  0  0  0
  -24.6706  -15.8626   20.5255 H   0  0  0  0  0  0
  -26.2839  -15.6267   20.0946 H   0  0  0  0  0  0
  -26.7139  -32.5534   23.1180 H   0  0  0  0  0  0
  -24.9996  -33.9799   25.0436 H   0  0  0  0  0  0
  -22.6980  -31.3183   21.4186 H   0  0  0  0  0  0
  -23.3751  -35.9648   23.3319 H   0  0  0  0  0  0
  -24.3571  -36.8919   22.2055 H   0  0  0  0  0  0
  -23.7215  -37.6520   23.6641 H   0  0  0  0  0  0
  -26.0693  -31.5955   20.6156 H   0  0  0  0  0  0
  -26.8230  -30.8652   22.0038 H   0  0  0  0  0  0
  -28.0910  -29.0482   21.1811 H   0  0  0  0  0  0
  -25.9639  -26.0288   18.9054 H   0  0  0  0  0  0
  -23.9616  -27.3422   18.9967 H   0  0  0  0  0  0
  -23.7428  -30.6239   19.4132 H   0  0  0  0  0  0
  -22.7361  -29.2798   19.8563 H   0  0  0  0  0  0
  -25.1287  -36.2014   25.0838 H   0  0  0  0  0  0
  -20.9985  -28.3258   24.1414 H   0  0  0  0  0  0
  -20.5678  -26.2303   23.3614 H   0  0  0  0  0  0
  -21.6641  -26.7459   22.1211 H   0  0  0  0  0  0
  -19.6911  -25.6312   21.1235 H   0  0  0  0  0  0
  -19.6673  -27.3209   20.6741 H   0  0  0  0  0  0
  -17.4203  -26.6681   21.4024 H   0  0  0  0  0  0
  -18.0325  -26.0061   22.9011 H   0  0  0  0  0  0
  -19.7944  -30.7253   24.2299 H   0  0  0  0  0  0
  -17.5028  -31.6266   24.5176 H   0  0  0  0  0  0
  -15.5361  -30.3015   23.7625 H   0  0  0  0  0  0
  -15.8668  -28.0847   22.7033 H   0  0  0  0  0  0
  -24.5871  -30.7108   25.7805 H   0  0  0  0  0  0
  -24.8914  -32.2897   26.4944 H   0  0  0  0  0  0
  -25.8047  -30.8878   27.0236 H   0  0  0  0  0  0
  -26.2855  -29.6828   24.1158 H   0  0  0  0  0  0
  -27.3977  -29.7282   25.4642 H   0  0  0  0  0  0
  -27.8724  -30.4347   23.9375 H   0  0  0  0  0  0
  -27.2706  -33.3593   26.2112 H   0  0  0  0  0  0
  -28.3834  -32.6884   25.0291 H   0  0  0  0  0  0
  -28.0752  -31.8394   26.5357 H   0  0  0  0  0  0
  -28.2620  -38.0108   24.7525 H   0  0  0  0  0  0
  -28.1068  -36.2648   24.6278 H   0  0  0  0  0  0
  -27.2305  -37.1466   25.8865 H   0  0  0  0  0  0
  -20.9318  -29.8834   21.6974 H   0  0  0  0  0  0
  -26.0191  -38.2905   24.1410 H   0  0  0  0  0  0
  -28.3846  -19.0553   21.0639 H   0  0  0  0  0  0
  -31.9829  -18.6381   17.2161 H   0  0  0  0  0  0
  -32.1477  -16.9754   17.7896 H   0  0  0  0  0  0
  -33.5593  -17.8734   17.3178 H   0  0  0  0  0  0
  -33.7919  -18.1002   21.1143 H   0  0  0  0  0  0
  -34.4646  -17.2304   19.7377 H   0  0  0  0  0  0
  -32.9427  -16.7240   20.4666 H   0  0  0  0  0  0
  -31.6315  -22.1253   18.2603 H   0  0  0  0  0  0
  -33.1789  -21.3060   18.2914 H   0  0  0  0  0  0
  -33.0549  -22.9588   18.8581 H   0  0  0  0  0  0
  -33.2001  -21.1341   22.1723 H   0  0  0  0  0  0
  -34.0714  -22.2658   21.1526 H   0  0  0  0  0  0
  -34.1334  -20.5492   20.8057 H   0  0  0  0  0  0
  -30.8411  -24.1772   21.9894 H   0  0  0  0  0  0
  -30.3703  -25.8019   21.5535 H   0  0  0  0  0  0
  -31.1018  -24.7530   20.3429 H   0  0  0  0  0  0
  -30.3970  -16.5565   18.8222 H   0  0  0  0  0  0
  -28.8471  -16.8747   19.4323 H   0  0  0  0  0  0
  -28.0987  -22.5530   19.8016 H   0  0  0  0  0  0
  -29.7686  -22.7409   19.4406 H   0  0  0  0  0  0
  -28.4218  -21.3982   21.8113 H   0  0  0  0  0  0
  -29.9899  -22.0543   22.1135 H   0  0  0  0  0  0
  -27.4002  -24.8299   19.5470 H   0  0  0  0  0  0
  -28.9257  -25.1703   18.7958 H   0  0  0  0  0  0
  -33.4251  -19.3660   19.1124 H   0  0  0  0  0  0
  -31.7253  -22.3670   20.7247 H   0  0  0  0  0  0
  -28.3796  -24.2962   21.6722 H   0  0  0  0  0  0
  -29.0647  -15.4916   21.1703 H   0  0  0  0  0  0
  1 25  1  0  0  0
  1 30  2  0  0  0
  1 88  1  0  0  0
  2  3  1  0  0  0
  2 25  1  0  0  0
  2 89  1  0  0  0
  2 90  1  0  0  0
  3  4  1  0  0  0
  3 91  1  0  0  0
  3 92  1  0  0  0
  4  5  1  0  0  0
  4 93  1  0  0  0
  4 94  1  0  0  0
  5  6  1  0  0  0
  5 26  1  0  0  0
  5 95  1  0  0  0
  6 25  1  0  0  0
  6 96  1  0  0  0
  6 97  1  0  0  0
  7  8  2  0  0  0
  7 26  1  0  0  0
  7 29  1  0  0  0
  8  9  1  0  0  0
  8 22  1  0  0  0
  9 10  1  0  0  0
  9 27  2  0  0  0
 10 11  2  0  0  0
 10 15  1  0  0  0
 11 12  1  0  0  0
 11 98  1  0  0  0
 12 13  2  0  0  0
 12 99  1  0  0  0
 13 14  1  0  0  0
 13 31  1  0  0  0
 14 15  2  0  0  0
 14100  1  0  0  0
 15101  1  0  0  0
 16 17  2  0  0  0
 16 21  1  0  0  0
 16 31  1  0  0  0
 17 18  1  0  0  0
 17102  1  0  0  0
 18 19  2  0  0  0
 18103  1  0  0  0
 19 20  1  0  0  0
 19 24  1  0  0  0
 20 21  2  0  0  0
 20104  1  0  0  0
 21 23  1  0  0  0
 22 28  1  0  0  0
 22 32  2  0  0  0
 26 27  1  0  0  0
 28105  1  0  0  0
 28106  1  0  0  0
 29107  1  0  0  0
 29108  1  0  0  0
 33 34  1  0  0  0
 33 66  1  0  0  0
 33 70  2  0  0  0
 34 36  1  0  0  0
 34 59  1  0  0  0
 34109  1  0  0  0
 35 44  2  0  0  0
 35 45  1  0  0  0
 35 68  1  0  0  0
 36 56  1  0  0  0
 36110  1  0  0  0
 37 39  1  0  0  0
 37 47  1  0  0  0
 37 66  1  0  0  0
 37111  1  0  0  0
 38 43  2  0  0  0
 38 46  1  0  0  0
 38 47  1  0  0  0
 39 64  1  0  0  0
 39 67  2  0  0  0
 40 52  1  0  0  0
 40 53  2  0  0  0
 40 58  1  0  0  0
 41112  1  0  0  0
 41113  1  0  0  0
 41114  1  0  0  0
 41 48  1  0  0  0
 42 43  1  0  0  0
 42 66  1  0  0  0
 42115  1  0  0  0
 42116  1  0  0  0
 43 44  1  0  0  0
 44117  1  0  0  0
 45 46  2  0  0  0
 45118  1  0  0  0
 46119  1  0  0  0
 47120  1  0  0  0
 47121  1  0  0  0
 48 56  1  0  0  0
 48 65  1  0  0  0
 48122  1  0  0  0
 49 50  1  0  0  0
 49 53  1  0  0  0
 49 64  1  0  0  0
 49123  1  0  0  0
 50 51  1  0  0  0
 50124  1  0  0  0
 50125  1  0  0  0
 51 52  1  0  0  0
 51126  1  0  0  0
 51127  1  0  0  0
 52128  1  0  0  0
 52129  1  0  0  0
 53 54  1  0  0  0
 54 55  2  0  0  0
 54130  1  0  0  0
 55 57  1  0  0  0
 55131  1  0  0  0
 56 69  2  0  0  0
 57 58  2  0  0  0
 57132  1  0  0  0
 58133  1  0  0  0
 59 60  1  0  0  0
 59 61  1  0  0  0
 59 62  1  0  0  0
 60134  1  0  0  0
 60135  1  0  0  0
 60136  1  0  0  0
 61137  1  0  0  0
 61138  1  0  0  0
 61139  1  0  0  0
 62140  1  0  0  0
 62141  1  0  0  0
 62142  1  0  0  0
 63 65  1  0  0  0
 63143  1  0  0  0
 63144  1  0  0  0
 63145  1  0  0  0
 64146  1  0  0  0
 65147  1  0  0  0
 68 83  1  0  0  0
 71 72  2  0  0  0
 71 87  1  0  0  0
 71148  1  0  0  0
 72 73  1  0  0  0
 72 80  1  0  0  0
 73 74  2  0  0  0
 73 84  1  0  0  0
 74 85  1  0  0  0
 74 87  1  0  0  0
 75149  1  0  0  0
 75150  1  0  0  0
 75151  1  0  0  0
 75 84  1  0  0  0
 76 84  1  0  0  0
 76152  1  0  0  0
 76153  1  0  0  0
 76154  1  0  0  0
 77155  1  0  0  0
 77156  1  0  0  0
 77157  1  0  0  0
 77 85  1  0  0  0
 78 85  1  0  0  0
 78158  1  0  0  0
 78159  1  0  0  0
 78160  1  0  0  0
 79161  1  0  0  0
 79162  1  0  0  0
 79163  1  0  0  0
 79 86  1  0  0  0
 80 88  1  0  0  0
 80164  1  0  0  0
 80165  1  0  0  0
 81 82  1  0  0  0
 81 86  1  0  0  0
 81166  1  0  0  0
 81167  1  0  0  0
 82 87  1  0  0  0
 82168  1  0  0  0
 82169  1  0  0  0
 83 86  1  0  0  0
 83170  1  0  0  0
 83171  1  0  0  0
 84172  1  0  0  0
 85173  1  0  0  0
 86174  1  0  0  0
 88175  1  0  0  0
M  ISO  4   1 100  68 101  83 101  88 100
M  END
> <chiral flag>
0

> <version>
0

> <s_m_source_file>
/data/baiqing/PycharmProjects/Reinvent-master-3.2/result/LINK_invent/BTK/process_docking_weight1_custom_sum_contain_oxygen_bond_distance_aromatic_linkinvent_7_9_3/rearranged_h_0101.sdf

> <i_m_source_file_index>
28

> <r_mmod_Potential_Energy-OPLS-2005>
-42.1329231262207

> <r_mmod_Stretch_Energy-OPLS-2005>
52.8498687744141

> <r_mmod_Bend_Energy-OPLS-2005>
141.810684204102

> <r_mmod_Torsional_Energy-OPLS-2005>
263.222503662109

> <r_mmod_Improper_Torsional_Energy-OPLS-2005>
11.0637683868408

> <r_mmod_Van_der_Waal_Energy-OPLS-2005>
128.109176635742

> <r_mmod_Electrostatic_Energy-OPLS-2005>
-458.801910400391

> <r_mmod_Solvation_Energy-OPLS-2005>
-206.805297851562

> <b_mmod_Minimization_Converged-OPLS-2005>
0

> <r_mmod_RMS_Derivative-OPLS-2005>
2.73643684387207

$$$$
28
                    3D
 Structure written by MMmdl.
155163  0  0  1  0            999 V2000
  -30.6138  -14.6978   20.4779 C   0  0  0  0  0  0
  -30.4323  -12.4285   19.4611 C   0  0  0  0  0  0
  -29.5049  -12.5016   18.2285 C   0  0  0  0  0  0
  -28.0307  -12.3331   18.6441 C   0  0  0  0  0  0
  -27.6429  -13.2237   19.8537 C   0  0  2  0  0  0
  -28.6878  -13.1300   20.9853 C   0  0  0  0  0  0
  -25.2516  -13.8180   20.5676 C   0  0  0  0  0  0
  -24.1803  -13.0444   20.9212 C   0  0  0  0  0  0
  -24.6384  -11.6916   20.8757 C   0  0  0  0  0  0
  -23.9067  -10.4295   21.0414 C   0  0  0  0  0  0
  -24.3616   -9.4207   21.9185 C   0  0  0  0  0  0
  -23.6287   -8.2245   22.0752 C   0  0  0  0  0  0
  -22.4267   -8.0289   21.3547 C   0  0  0  0  0  0
  -21.9908   -9.0268   20.4652 C   0  0  0  0  0  0
  -22.7244  -10.2143   20.3065 C   0  0  0  0  0  0
  -21.6851   -6.0743   22.5283 C   0  0  0  0  0  0
  -21.4014   -6.5644   23.8218 C   0  0  0  0  0  0
  -21.3659   -5.6793   24.9175 C   0  0  0  0  0  0
  -21.6044   -4.3057   24.7220 C   0  0  0  0  0  0
  -21.8819   -3.8153   23.4337 C   0  0  0  0  0  0
  -21.9194   -4.6973   22.3397 C   0  0  0  0  0  0
  -22.7826  -13.5235   21.1869 C   0  0  0  0  0  0
  -22.1673   -4.2157   21.0975 F   0  0  0  0  0  0
  -21.5614   -3.4540   25.7732 F   0  0  0  0  0  0
  -29.9915  -13.4763   20.4067 N   0  0  0  0  0  0
  -26.2938  -12.9369   20.3288 N   0  0  0  0  0  0
  -25.9309  -11.6519   20.5756 N   0  0  0  0  0  0
  -22.0456  -12.8248   22.0430 N   0  0  0  0  0  0
  -25.4180  -15.1901   20.4036 N   0  0  0  0  0  0
  -31.8010  -14.8134   20.1641 O   0  0  0  0  0  0
  -21.6629   -6.8886   21.4246 O   0  0  0  0  0  0
  -22.3516  -14.5531   20.6698 O   0  0  0  0  0  0
  -24.6262  -31.8583   23.1983 C   0  0  0  0  0  0
  -25.9103  -32.4766   23.8328 C   0  0  1  0  0  0
  -27.2268  -27.3038   20.1380 C   0  0  0  0  0  0
  -25.5920  -33.8562   24.2257 N   0  0  0  0  0  0
  -23.4218  -30.4782   21.5407 C   0  0  2  0  0  0
  -24.8711  -28.9220   20.1165 C   0  0  0  0  0  0
  -22.7479  -29.4614   22.4925 C   0  0  0  0  0  0
  -18.0297  -28.1394   22.8469 C   0  0  0  0  0  0
  -24.1490  -36.7293   23.2641 C   0  0  0  0  0  0
  -25.9623  -30.7845   21.3706 C   0  0  0  0  0  0
  -26.0382  -29.4073   20.7199 C   0  0  0  0  0  0
  -27.2224  -28.6111   20.7163 C   0  0  0  0  0  0
  -26.0418  -26.8661   19.5145 C   0  0  0  0  0  0
  -24.8751  -27.6574   19.5027 C   0  0  0  0  0  0
  -23.6399  -29.8052   20.1586 C   0  0  0  0  0  0
  -25.4113  -36.3072   24.0332 C   0  0  1  0  0  0
  -20.5888  -28.3691   23.1282 C   0  0  2  0  0  0
  -20.6777  -26.9414   22.5400 C   0  0  0  0  0  0
  -19.5756  -26.6372   21.5200 C   0  0  0  0  0  0
  -18.1947  -26.7929   22.1618 C   0  0  0  0  0  0
  -19.1543  -28.8861   23.2867 C   0  0  0  0  0  0
  -18.9468  -30.1465   23.8880 C   0  0  0  0  0  0
  -17.6468  -30.6589   24.0563 C   0  0  0  0  0  0
  -25.9054  -34.9445   23.5101 C   0  0  0  0  0  0
  -16.5356  -29.9096   23.6327 C   0  0  0  0  0  0
  -16.7281  -28.6520   23.0331 C   0  0  0  0  0  0
  -26.4493  -31.6573   25.0697 C   0  0  0  0  0  0
  -25.3733  -31.3702   26.1430 C   0  0  0  0  0  0
  -27.0335  -30.2996   24.6138 C   0  0  0  0  0  0
  -27.6061  -32.4300   25.7457 C   0  0  0  0  0  0
  -27.5578  -37.1799   24.8464 C   0  0  0  0  0  0
  -21.4192  -29.3041   22.3672 N   0  0  0  0  0  0
  -26.4288  -37.3768   23.9414 N   0  0  0  0  0  0
  -24.6888  -31.0589   22.0930 N   0  0  0  0  0  0
  -23.4200  -28.8164   23.3019 O   0  0  0  0  0  0
  -28.3419  -26.4548   20.1359 O   0  0  0  0  0  0
  -26.5622  -34.8915   22.4664 O   0  0  0  0  0  0
  -23.5420  -32.1371   23.7310 O   0  0  0  0  0  0
  -29.4662  -19.8205   20.8190 C   0  0  0  0  0  0
  -28.2391  -20.7163   18.9573 C   0  0  0  0  0  0
  -28.8470  -20.9697   20.1982 C   0  0  0  0  0  0
  -29.4650  -18.5058   20.2120 C   0  0  0  0  0  0
  -28.8159  -18.4375   18.9561 C   0  0  0  0  0  0
  -28.7471  -17.1548   18.1498 C   0  0  0  0  0  0
  -28.7497  -22.4074   20.8647 C   0  0  0  0  0  0
  -30.2456  -17.2694   20.8540 C   0  0  0  0  0  0
  -28.5769  -23.7594   20.0000 C   0  0  0  0  0  0
  -28.2234  -25.1189   20.7802 C   0  0  0  0  0  0
  -28.2244  -19.5021   18.3641 N   0  0  0  0  0  0
  -29.8280  -15.8111   20.7123 N   0  0  0  0  0  0
  -31.4714  -12.5573   19.1544 H   0  0  0  0  0  0
  -30.3767  -11.4446   19.9312 H   0  0  0  0  0  0
  -29.7793  -11.7344   17.5032 H   0  0  0  0  0  0
  -29.6380  -13.4591   17.7230 H   0  0  0  0  0  0
  -27.8858  -11.2832   18.9022 H   0  0  0  0  0  0
  -27.3720  -12.5340   17.7980 H   0  0  0  0  0  0
  -27.6436  -14.2494   19.4865 H   0  0  0  0  0  0
  -28.7130  -12.1247   21.4067 H   0  0  0  0  0  0
  -28.4281  -13.7968   21.8089 H   0  0  0  0  0  0
  -25.2752   -9.5686   22.4766 H   0  0  0  0  0  0
  -24.0001   -7.4633   22.7465 H   0  0  0  0  0  0
  -21.0838   -8.8801   19.8947 H   0  0  0  0  0  0
  -22.3705  -10.9695   19.6184 H   0  0  0  0  0  0
  -21.2008   -7.6150   23.9730 H   0  0  0  0  0  0
  -21.1484   -6.0513   25.9081 H   0  0  0  0  0  0
  -22.0591   -2.7616   23.2828 H   0  0  0  0  0  0
  -22.4058  -11.9921   22.4849 H   0  0  0  0  0  0
  -21.1076  -13.1295   22.2622 H   0  0  0  0  0  0
  -24.6378  -15.8325   20.4924 H   0  0  0  0  0  0
  -26.2528  -15.6327   20.0460 H   0  0  0  0  0  0
  -26.7173  -32.5439   23.1082 H   0  0  0  0  0  0
  -25.0074  -33.9696   25.0403 H   0  0  0  0  0  0
  -22.7154  -31.2976   21.3923 H   0  0  0  0  0  0
  -23.3750  -35.9628   23.3286 H   0  0  0  0  0  0
  -24.3580  -36.8913   22.2057 H   0  0  0  0  0  0
  -23.7240  -37.6493   23.6664 H   0  0  0  0  0  0
  -26.0895  -31.5420   20.5964 H   0  0  0  0  0  0
  -26.8440  -30.8392   21.9978 H   0  0  0  0  0  0
  -28.1205  -28.9811   21.1899 H   0  0  0  0  0  0
  -26.0160  -25.8941   19.0421 H   0  0  0  0  0  0
  -23.9825  -27.2785   19.0255 H   0  0  0  0  0  0
  -23.7649  -30.5771   19.3984 H   0  0  0  0  0  0
  -22.7601  -29.2351   19.8557 H   0  0  0  0  0  0
  -25.1288  -36.1927   25.0825 H   0  0  0  0  0  0
  -20.9979  -28.3271   24.1405 H   0  0  0  0  0  0
  -20.5657  -26.2318   23.3605 H   0  0  0  0  0  0
  -21.6656  -26.7450   22.1225 H   0  0  0  0  0  0
  -19.6920  -25.6281   21.1225 H   0  0  0  0  0  0
  -19.6674  -27.3189   20.6735 H   0  0  0  0  0  0
  -17.4207  -26.6684   21.4034 H   0  0  0  0  0  0
  -18.0341  -26.0078   22.9018 H   0  0  0  0  0  0
  -19.7940  -30.7284   24.2240 H   0  0  0  0  0  0
  -17.5037  -31.6259   24.5190 H   0  0  0  0  0  0
  -15.5361  -30.3002   23.7678 H   0  0  0  0  0  0
  -15.8682  -28.0857   22.7033 H   0  0  0  0  0  0
  -24.5921  -30.7031   25.7756 H   0  0  0  0  0  0
  -24.8926  -32.2871   26.4856 H   0  0  0  0  0  0
  -25.8075  -30.8884   27.0202 H   0  0  0  0  0  0
  -26.2903  -29.6736   24.1187 H   0  0  0  0  0  0
  -27.4065  -29.7249   25.4625 H   0  0  0  0  0  0
  -27.8751  -30.4273   23.9324 H   0  0  0  0  0  0
  -27.2681  -33.3599   26.2040 H   0  0  0  0  0  0
  -28.3866  -32.6854   25.0277 H   0  0  0  0  0  0
  -28.0740  -31.8425   26.5364 H   0  0  0  0  0  0
  -28.2598  -38.0094   24.7516 H   0  0  0  0  0  0
  -28.1075  -36.2631   24.6288 H   0  0  0  0  0  0
  -27.2305  -37.1432   25.8868 H   0  0  0  0  0  0
  -20.9376  -29.8801   21.6904 H   0  0  0  0  0  0
  -26.0169  -38.2844   24.1408 H   0  0  0  0  0  0
  -29.9495  -19.9527   21.7765 H   0  0  0  0  0  0
  -27.7298  -21.5020   18.4196 H   0  0  0  0  0  0
  -28.3693  -17.3304   17.1412 H   0  0  0  0  0  0
  -28.0789  -16.4448   18.6346 H   0  0  0  0  0  0
  -29.7333  -16.7015   18.0555 H   0  0  0  0  0  0
  -29.6278  -22.5314   21.4998 H   0  0  0  0  0  0
  -27.9061  -22.3549   21.5546 H   0  0  0  0  0  0
  -30.3011  -17.4585   21.9266 H   0  0  0  0  0  0
  -31.2758  -17.3573   20.5046 H   0  0  0  0  0  0
  -27.7917  -23.6148   19.2590 H   0  0  0  0  0  0
  -29.4936  -23.9169   19.4334 H   0  0  0  0  0  0
  -28.8940  -25.1718   21.6383 H   0  0  0  0  0  0
  -27.2318  -25.0120   21.2225 H   0  0  0  0  0  0
  -28.8621  -15.6101   20.9202 H   0  0  0  0  0  0
  1 25  1  0  0  0
  1 30  2  0  0  0
  1 82  1  0  0  0
  2  3  1  0  0  0
  2 25  1  0  0  0
  2 83  1  0  0  0
  2 84  1  0  0  0
  3  4  1  0  0  0
  3 85  1  0  0  0
  3 86  1  0  0  0
  4  5  1  0  0  0
  4 87  1  0  0  0
  4 88  1  0  0  0
  5  6  1  0  0  0
  5 26  1  0  0  0
  5 89  1  0  0  0
  6 25  1  0  0  0
  6 90  1  0  0  0
  6 91  1  0  0  0
  7  8  2  0  0  0
  7 26  1  0  0  0
  7 29  1  0  0  0
  8  9  1  0  0  0
  8 22  1  0  0  0
  9 10  1  0  0  0
  9 27  2  0  0  0
 10 11  2  0  0  0
 10 15  1  0  0  0
 11 12  1  0  0  0
 11 92  1  0  0  0
 12 13  2  0  0  0
 12 93  1  0  0  0
 13 14  1  0  0  0
 13 31  1  0  0  0
 14 15  2  0  0  0
 14 94  1  0  0  0
 15 95  1  0  0  0
 16 17  2  0  0  0
 16 21  1  0  0  0
 16 31  1  0  0  0
 17 18  1  0  0  0
 17 96  1  0  0  0
 18 19  2  0  0  0
 18 97  1  0  0  0
 19 20  1  0  0  0
 19 24  1  0  0  0
 20 21  2  0  0  0
 20 98  1  0  0  0
 21 23  1  0  0  0
 22 28  1  0  0  0
 22 32  2  0  0  0
 26 27  1  0  0  0
 28 99  1  0  0  0
 28100  1  0  0  0
 29101  1  0  0  0
 29102  1  0  0  0
 33 34  1  0  0  0
 33 66  1  0  0  0
 33 70  2  0  0  0
 34 36  1  0  0  0
 34 59  1  0  0  0
 34103  1  0  0  0
 35 44  2  0  0  0
 35 45  1  0  0  0
 35 68  1  0  0  0
 36 56  1  0  0  0
 36104  1  0  0  0
 37 39  1  0  0  0
 37 47  1  0  0  0
 37 66  1  0  0  0
 37105  1  0  0  0
 38 43  2  0  0  0
 38 46  1  0  0  0
 38 47  1  0  0  0
 39 64  1  0  0  0
 39 67  2  0  0  0
 40 52  1  0  0  0
 40 53  2  0  0  0
 40 58  1  0  0  0
 41106  1  0  0  0
 41107  1  0  0  0
 41108  1  0  0  0
 41 48  1  0  0  0
 42 43  1  0  0  0
 42 66  1  0  0  0
 42109  1  0  0  0
 42110  1  0  0  0
 43 44  1  0  0  0
 44111  1  0  0  0
 45 46  2  0  0  0
 45112  1  0  0  0
 46113  1  0  0  0
 47114  1  0  0  0
 47115  1  0  0  0
 48 56  1  0  0  0
 48 65  1  0  0  0
 48116  1  0  0  0
 49 50  1  0  0  0
 49 53  1  0  0  0
 49 64  1  0  0  0
 49117  1  0  0  0
 50 51  1  0  0  0
 50118  1  0  0  0
 50119  1  0  0  0
 51 52  1  0  0  0
 51120  1  0  0  0
 51121  1  0  0  0
 52122  1  0  0  0
 52123  1  0  0  0
 53 54  1  0  0  0
 54 55  2  0  0  0
 54124  1  0  0  0
 55 57  1  0  0  0
 55125  1  0  0  0
 56 69  2  0  0  0
 57 58  2  0  0  0
 57126  1  0  0  0
 58127  1  0  0  0
 59 60  1  0  0  0
 59 61  1  0  0  0
 59 62  1  0  0  0
 60128  1  0  0  0
 60129  1  0  0  0
 60130  1  0  0  0
 61131  1  0  0  0
 61132  1  0  0  0
 61133  1  0  0  0
 62134  1  0  0  0
 62135  1  0  0  0
 62136  1  0  0  0
 63 65  1  0  0  0
 63137  1  0  0  0
 63138  1  0  0  0
 63139  1  0  0  0
 64140  1  0  0  0
 65141  1  0  0  0
 68 80  1  0  0  0
 71 73  2  0  0  0
 71 74  1  0  0  0
 71142  1  0  0  0
 72 73  1  0  0  0
 72 81  2  0  0  0
 72143  1  0  0  0
 73 77  1  0  0  0
 74 75  2  0  0  0
 74 78  1  0  0  0
 75 76  1  0  0  0
 75 81  1  0  0  0
 76144  1  0  0  0
 76145  1  0  0  0
 76146  1  0  0  0
 77 79  1  0  0  0
 77147  1  0  0  0
 77148  1  0  0  0
 78 82  1  0  0  0
 78149  1  0  0  0
 78150  1  0  0  0
 79 80  1  0  0  0
 79151  1  0  0  0
 79152  1  0  0  0
 80153  1  0  0  0
 80154  1  0  0  0
 82155  1  0  0  0
M  ISO  4   1 100  68 101  80 101  82 100
M  END
> <chiral flag>
0

> <version>
0

> <s_m_source_file>
/data/baiqing/PycharmProjects/Reinvent-master-3.2/result/LINK_invent/BTK/process_docking_weight1_custom_sum_contain_oxygen_bond_distance_aromatic_linkinvent_7_9_3/rearranged_h_0101.sdf

> <i_m_source_file_index>
29

> <r_mmod_Potential_Energy-OPLS-2005>
-37.9828186035156

> <r_mmod_Stretch_Energy-OPLS-2005>
100.703384399414

> <r_mmod_Bend_Energy-OPLS-2005>
150.709915161133

> <r_mmod_Torsional_Energy-OPLS-2005>
219.97282409668

> <r_mmod_Improper_Torsional_Energy-OPLS-2005>
5.0023250579834

> <r_mmod_Van_der_Waal_Energy-OPLS-2005>
133.015441894531

> <r_mmod_Electrostatic_Energy-OPLS-2005>
-486.666900634766

> <r_mmod_Solvation_Energy-OPLS-2005>
-223.626342773438

> <b_mmod_Minimization_Converged-OPLS-2005>
0

> <r_mmod_RMS_Derivative-OPLS-2005>
1.81080186367035

$$$$
29
                    3D
 Structure written by MMmdl.
154162  0  0  1  0            999 V2000
  -30.4865  -14.9828   20.4280 C   0  0  0  0  0  0
  -30.4481  -12.6180   19.4751 C   0  0  0  0  0  0
  -29.5123  -12.5060   18.2466 C   0  0  0  0  0  0
  -28.0515  -12.2801   18.6862 C   0  0  0  0  0  0
  -27.6197  -13.2359   19.8265 C   0  0  2  0  0  0
  -28.6654  -13.2783   20.9561 C   0  0  0  0  0  0
  -25.2439  -13.8190   20.5757 C   0  0  0  0  0  0
  -24.1743  -13.0434   20.9274 C   0  0  0  0  0  0
  -24.6348  -11.6916   20.8803 C   0  0  0  0  0  0
  -23.9039  -10.4296   21.0449 C   0  0  0  0  0  0
  -24.3593   -9.4207   21.9220 C   0  0  0  0  0  0
  -23.6266   -8.2242   22.0778 C   0  0  0  0  0  0
  -22.4251   -8.0284   21.3556 C   0  0  0  0  0  0
  -21.9893   -9.0270   20.4668 C   0  0  0  0  0  0
  -22.7223  -10.2143   20.3085 C   0  0  0  0  0  0
  -21.6844   -6.0739   22.5287 C   0  0  0  0  0  0
  -21.4020   -6.5643   23.8227 C   0  0  0  0  0  0
  -21.3659   -5.6790   24.9189 C   0  0  0  0  0  0
  -21.6036   -4.3048   24.7227 C   0  0  0  0  0  0
  -21.8819   -3.8149   23.4350 C   0  0  0  0  0  0
  -21.9191   -4.6964   22.3409 C   0  0  0  0  0  0
  -22.7768  -13.5226   21.1913 C   0  0  0  0  0  0
  -22.1654   -4.2158   21.0981 F   0  0  0  0  0  0
  -21.5628   -3.4535   25.7734 F   0  0  0  0  0  0
  -29.9294  -13.7090   20.3445 N   0  0  0  0  0  0
  -26.2822  -12.9389   20.3224 N   0  0  0  0  0  0
  -25.9261  -11.6539   20.5747 N   0  0  0  0  0  0
  -22.0371  -12.8248   22.0457 N   0  0  0  0  0  0
  -25.4087  -15.1927   20.4226 N   0  0  0  0  0  0
  -31.7091  -15.0807   20.2788 O   0  0  0  0  0  0
  -21.6626   -6.8872   21.4242 O   0  0  0  0  0  0
  -22.3483  -14.5538   20.6738 O   0  0  0  0  0  0
  -24.6460  -31.8432   23.1804 C   0  0  0  0  0  0
  -25.9221  -32.4716   23.8217 C   0  0  1  0  0  0
  -27.2341  -27.1164   20.1821 C   0  0  0  0  0  0
  -25.5961  -33.8517   24.2139 N   0  0  0  0  0  0
  -23.4497  -30.4539   21.5300 C   0  0  2  0  0  0
  -24.9002  -28.8582   20.1281 C   0  0  0  0  0  0
  -22.7564  -29.4556   22.4895 C   0  0  0  0  0  0
  -18.0296  -28.1407   22.8476 C   0  0  0  0  0  0
  -24.1462  -36.7285   23.2625 C   0  0  0  0  0  0
  -26.0002  -30.7176   21.3667 C   0  0  0  0  0  0
  -26.0785  -29.3144   20.7351 C   0  0  0  0  0  0
  -27.2475  -28.4639   20.7320 C   0  0  0  0  0  0
  -26.0275  -26.7528   19.5503 C   0  0  0  0  0  0
  -24.8885  -27.5913   19.5189 C   0  0  0  0  0  0
  -23.6739  -29.7591   20.1590 C   0  0  0  0  0  0
  -25.4097  -36.3031   24.0289 C   0  0  1  0  0  0
  -20.5903  -28.3735   23.1230 C   0  0  2  0  0  0
  -20.6778  -26.9446   22.5394 C   0  0  0  0  0  0
  -19.5755  -26.6401   21.5195 C   0  0  0  0  0  0
  -18.1937  -26.7952   22.1611 C   0  0  0  0  0  0
  -19.1553  -28.8888   23.2842 C   0  0  0  0  0  0
  -18.9480  -30.1476   23.8889 C   0  0  0  0  0  0
  -17.6480  -30.6614   24.0558 C   0  0  0  0  0  0
  -25.9065  -34.9419   23.5019 C   0  0  0  0  0  0
  -16.5366  -29.9107   23.6346 C   0  0  0  0  0  0
  -16.7278  -28.6511   23.0385 C   0  0  0  0  0  0
  -26.4521  -31.6601   25.0677 C   0  0  0  0  0  0
  -25.3729  -31.3855   26.1405 C   0  0  0  0  0  0
  -27.0352  -30.2997   24.6215 C   0  0  0  0  0  0
  -27.6022  -32.4382   25.7531 C   0  0  0  0  0  0
  -27.5548  -37.1782   24.8448 C   0  0  0  0  0  0
  -21.4251  -29.3053   22.3607 N   0  0  0  0  0  0
  -26.4241  -37.3761   23.9428 N   0  0  0  0  0  0
  -24.7205  -31.0262   22.0838 N   0  0  0  0  0  0
  -23.4175  -28.8156   23.3099 O   0  0  0  0  0  0
  -28.3443  -26.2021   20.0889 O   0  0  0  0  0  0
  -26.5641  -34.8930   22.4589 O   0  0  0  0  0  0
  -23.5587  -32.1302   23.7027 O   0  0  0  0  0  0
  -30.2565  -20.7419   21.8214 C   0  0  0  0  0  0
  -29.4064  -20.4214   20.7491 C   0  0  0  0  0  0
  -29.7670  -19.0504   20.2310 C   0  0  0  0  0  0
  -31.8947  -19.4936   20.8187 C   0  0  0  0  0  0
  -33.3617  -19.1338   20.7165 C   0  0  0  0  0  0
  -29.0658  -21.8100   19.9000 C   0  0  0  0  0  0
  -29.5496  -17.6008   20.9989 C   0  0  0  0  0  0
  -28.1266  -23.1920   20.2732 C   0  0  0  0  0  0
  -28.5319  -24.7805   20.7198 C   0  0  0  0  0  0
  -31.5243  -20.2745   21.8330 N   0  0  0  0  0  0
  -31.0711  -18.9689   19.9123 N   0  0  0  0  0  0
  -29.6184  -16.1108   20.4521 N   0  0  0  0  0  0
  -31.4693  -12.8192   19.1465 H   0  0  0  0  0  0
  -30.4886  -11.6748   20.0235 H   0  0  0  0  0  0
  -29.8340  -11.6870   17.6012 H   0  0  0  0  0  0
  -29.5767  -13.4130   17.6456 H   0  0  0  0  0  0
  -27.9770  -11.2490   19.0352 H   0  0  0  0  0  0
  -27.3737  -12.3661   17.8372 H   0  0  0  0  0  0
  -27.5760  -14.2274   19.3745 H   0  0  0  0  0  0
  -28.7646  -12.3046   21.4378 H   0  0  0  0  0  0
  -28.3590  -13.9779   21.7359 H   0  0  0  0  0  0
  -25.2730   -9.5688   22.4821 H   0  0  0  0  0  0
  -23.9982   -7.4622   22.7494 H   0  0  0  0  0  0
  -21.0832   -8.8788   19.8964 H   0  0  0  0  0  0
  -22.3683  -10.9696   19.6209 H   0  0  0  0  0  0
  -21.2018   -7.6149   23.9736 H   0  0  0  0  0  0
  -21.1479   -6.0517   25.9088 H   0  0  0  0  0  0
  -22.0592   -2.7614   23.2847 H   0  0  0  0  0  0
  -22.3910  -11.9894   22.4874 H   0  0  0  0  0  0
  -21.1001  -13.1347   22.2621 H   0  0  0  0  0  0
  -24.6388  -15.8357   20.5729 H   0  0  0  0  0  0
  -26.2294  -15.6488   20.0509 H   0  0  0  0  0  0
  -26.7306  -32.5337   23.0967 H   0  0  0  0  0  0
  -25.0133  -33.9627   25.0300 H   0  0  0  0  0  0
  -22.7529  -31.2788   21.3619 H   0  0  0  0  0  0
  -23.3712  -35.9628   23.3269 H   0  0  0  0  0  0
  -24.3531  -36.8957   22.2043 H   0  0  0  0  0  0
  -23.7225  -37.6474   23.6698 H   0  0  0  0  0  0
  -26.1166  -31.4499   20.5664 H   0  0  0  0  0  0
  -26.8871  -30.8096   21.9829 H   0  0  0  0  0  0
  -28.1632  -28.8270   21.1764 H   0  0  0  0  0  0
  -25.9652  -25.7854   19.0714 H   0  0  0  0  0  0
  -23.9900  -27.2377   19.0314 H   0  0  0  0  0  0
  -23.7986  -30.5158   19.3846 H   0  0  0  0  0  0
  -22.7925  -29.1857   19.8686 H   0  0  0  0  0  0
  -25.1265  -36.1830   25.0771 H   0  0  0  0  0  0
  -20.9977  -28.3341   24.1353 H   0  0  0  0  0  0
  -20.5660  -26.2363   23.3611 H   0  0  0  0  0  0
  -21.6648  -26.7459   22.1200 H   0  0  0  0  0  0
  -19.6930  -25.6307   21.1240 H   0  0  0  0  0  0
  -19.6696  -27.3197   20.6716 H   0  0  0  0  0  0
  -17.4197  -26.6674   21.4027 H   0  0  0  0  0  0
  -18.0368  -26.0095   22.9016 H   0  0  0  0  0  0
  -19.7961  -30.7272   24.2276 H   0  0  0  0  0  0
  -17.5052  -31.6302   24.5155 H   0  0  0  0  0  0
  -15.5376  -30.3013   23.7706 H   0  0  0  0  0  0
  -15.8662  -28.0821   22.7158 H   0  0  0  0  0  0
  -24.5889  -30.7181   25.7804 H   0  0  0  0  0  0
  -24.8943  -32.3077   26.4721 H   0  0  0  0  0  0
  -25.8039  -30.9152   27.0251 H   0  0  0  0  0  0
  -26.2939  -29.6793   24.1164 H   0  0  0  0  0  0
  -27.3913  -29.7224   25.4754 H   0  0  0  0  0  0
  -27.8856  -30.4230   23.9509 H   0  0  0  0  0  0
  -27.2548  -33.3690   26.2034 H   0  0  0  0  0  0
  -28.3918  -32.6955   25.0463 H   0  0  0  0  0  0
  -28.0589  -31.8574   26.5549 H   0  0  0  0  0  0
  -28.2526  -38.0115   24.7525 H   0  0  0  0  0  0
  -28.1065  -36.2640   24.6205 H   0  0  0  0  0  0
  -27.2283  -37.1368   25.8854 H   0  0  0  0  0  0
  -20.9503  -29.8672   21.6675 H   0  0  0  0  0  0
  -26.0085  -38.2796   24.1534 H   0  0  0  0  0  0
  -30.1355  -21.6627   22.3729 H   0  0  0  0  0  0
  -33.8204  -19.0942   21.7043 H   0  0  0  0  0  0
  -33.8952  -19.8731   20.1192 H   0  0  0  0  0  0
  -33.4931  -18.1559   20.2520 H   0  0  0  0  0  0
  -28.6104  -21.4178   18.9905 H   0  0  0  0  0  0
  -30.0286  -22.1813   19.5478 H   0  0  0  0  0  0
  -28.5380  -17.6834   21.3994 H   0  0  0  0  0  0
  -30.1675  -17.6049   21.8982 H   0  0  0  0  0  0
  -27.3404  -22.8639   20.9540 H   0  0  0  0  0  0
  -27.5772  -23.3658   19.3477 H   0  0  0  0  0  0
  -29.6107  -24.7395   20.8714 H   0  0  0  0  0  0
  -28.1520  -24.8971   21.7356 H   0  0  0  0  0  0
  -28.6806  -15.7945   20.2736 H   0  0  0  0  0  0
  1 25  1  0  0  0
  1 30  2  0  0  0
  1 82  1  0  0  0
  2  3  1  0  0  0
  2 25  1  0  0  0
  2 83  1  0  0  0
  2 84  1  0  0  0
  3  4  1  0  0  0
  3 85  1  0  0  0
  3 86  1  0  0  0
  4  5  1  0  0  0
  4 87  1  0  0  0
  4 88  1  0  0  0
  5  6  1  0  0  0
  5 26  1  0  0  0
  5 89  1  0  0  0
  6 25  1  0  0  0
  6 90  1  0  0  0
  6 91  1  0  0  0
  7  8  2  0  0  0
  7 26  1  0  0  0
  7 29  1  0  0  0
  8  9  1  0  0  0
  8 22  1  0  0  0
  9 10  1  0  0  0
  9 27  2  0  0  0
 10 11  2  0  0  0
 10 15  1  0  0  0
 11 12  1  0  0  0
 11 92  1  0  0  0
 12 13  2  0  0  0
 12 93  1  0  0  0
 13 14  1  0  0  0
 13 31  1  0  0  0
 14 15  2  0  0  0
 14 94  1  0  0  0
 15 95  1  0  0  0
 16 17  2  0  0  0
 16 21  1  0  0  0
 16 31  1  0  0  0
 17 18  1  0  0  0
 17 96  1  0  0  0
 18 19  2  0  0  0
 18 97  1  0  0  0
 19 20  1  0  0  0
 19 24  1  0  0  0
 20 21  2  0  0  0
 20 98  1  0  0  0
 21 23  1  0  0  0
 22 28  1  0  0  0
 22 32  2  0  0  0
 26 27  1  0  0  0
 28 99  1  0  0  0
 28100  1  0  0  0
 29101  1  0  0  0
 29102  1  0  0  0
 33 34  1  0  0  0
 33 66  1  0  0  0
 33 70  2  0  0  0
 34 36  1  0  0  0
 34 59  1  0  0  0
 34103  1  0  0  0
 35 44  2  0  0  0
 35 45  1  0  0  0
 35 68  1  0  0  0
 36 56  1  0  0  0
 36104  1  0  0  0
 37 39  1  0  0  0
 37 47  1  0  0  0
 37 66  1  0  0  0
 37105  1  0  0  0
 38 43  2  0  0  0
 38 46  1  0  0  0
 38 47  1  0  0  0
 39 64  1  0  0  0
 39 67  2  0  0  0
 40 52  1  0  0  0
 40 53  2  0  0  0
 40 58  1  0  0  0
 41106  1  0  0  0
 41107  1  0  0  0
 41108  1  0  0  0
 41 48  1  0  0  0
 42 43  1  0  0  0
 42 66  1  0  0  0
 42109  1  0  0  0
 42110  1  0  0  0
 43 44  1  0  0  0
 44111  1  0  0  0
 45 46  2  0  0  0
 45112  1  0  0  0
 46113  1  0  0  0
 47114  1  0  0  0
 47115  1  0  0  0
 48 56  1  0  0  0
 48 65  1  0  0  0
 48116  1  0  0  0
 49 50  1  0  0  0
 49 53  1  0  0  0
 49 64  1  0  0  0
 49117  1  0  0  0
 50 51  1  0  0  0
 50118  1  0  0  0
 50119  1  0  0  0
 51 52  1  0  0  0
 51120  1  0  0  0
 51121  1  0  0  0
 52122  1  0  0  0
 52123  1  0  0  0
 53 54  1  0  0  0
 54 55  2  0  0  0
 54124  1  0  0  0
 55 57  1  0  0  0
 55125  1  0  0  0
 56 69  2  0  0  0
 57 58  2  0  0  0
 57126  1  0  0  0
 58127  1  0  0  0
 59 60  1  0  0  0
 59 61  1  0  0  0
 59 62  1  0  0  0
 60128  1  0  0  0
 60129  1  0  0  0
 60130  1  0  0  0
 61131  1  0  0  0
 61132  1  0  0  0
 61133  1  0  0  0
 62134  1  0  0  0
 62135  1  0  0  0
 62136  1  0  0  0
 63 65  1  0  0  0
 63137  1  0  0  0
 63138  1  0  0  0
 63139  1  0  0  0
 64140  1  0  0  0
 65141  1  0  0  0
 68 79  1  0  0  0
 71 72  2  0  0  0
 71 80  1  0  0  0
 71142  1  0  0  0
 72 73  1  0  0  0
 72 76  1  0  0  0
 73 77  1  0  0  0
 73 81  2  0  0  0
 74 75  1  0  0  0
 74 80  2  0  0  0
 74 81  1  0  0  0
 75143  1  0  0  0
 75144  1  0  0  0
 75145  1  0  0  0
 76 78  1  0  0  0
 76146  1  0  0  0
 76147  1  0  0  0
 77 82  1  0  0  0
 77148  1  0  0  0
 77149  1  0  0  0
 78 79  1  0  0  0
 78150  1  0  0  0
 78151  1  0  0  0
 79152  1  0  0  0
 79153  1  0  0  0
 82154  1  0  0  0
M  ISO  4   1 100  68 101  79 101  82 100
M  END
> <chiral flag>
0

> <version>
0

> <s_m_source_file>
/data/baiqing/PycharmProjects/Reinvent-master-3.2/result/LINK_invent/BTK/process_docking_weight1_custom_sum_contain_oxygen_bond_distance_aromatic_linkinvent_7_9_3/rearranged_h_0101.sdf

> <i_m_source_file_index>
30

> <r_mmod_Potential_Energy-OPLS-2005>
411.106567382812

> <r_mmod_Stretch_Energy-OPLS-2005>
290.841979980469

> <r_mmod_Bend_Energy-OPLS-2005>
417.341430664062

> <r_mmod_Torsional_Energy-OPLS-2005>
438.454284667969

> <r_mmod_Improper_Torsional_Energy-OPLS-2005>
39.6401023864746

> <r_mmod_Van_der_Waal_Energy-OPLS-2005>
139.194564819336

> <r_mmod_Electrostatic_Energy-OPLS-2005>
-877.810363769531

> <r_mmod_Solvation_Energy-OPLS-2005>
-246.626235961914

> <b_mmod_Minimization_Converged-OPLS-2005>
0

> <r_mmod_RMS_Derivative-OPLS-2005>
2.80402183532715

$$$$
30
                    3D
 Structure written by MMmdl.
177185  0  0  1  0            999 V2000
  -30.6556  -14.6099   20.4495 C   0  0  0  0  0  0
  -30.4222  -12.3623   19.4562 C   0  0  0  0  0  0
  -29.5046  -12.4649   18.2202 C   0  0  0  0  0  0
  -28.0241  -12.3351   18.6314 C   0  0  0  0  0  0
  -27.6471  -13.2188   19.8523 C   0  0  2  0  0  0
  -28.6934  -13.1120   20.9839 C   0  0  0  0  0  0
  -25.2566  -13.8175   20.5687 C   0  0  0  0  0  0
  -24.1816  -13.0433   20.9182 C   0  0  0  0  0  0
  -24.6396  -11.6912   20.8754 C   0  0  0  0  0  0
  -23.9064  -10.4296   21.0424 C   0  0  0  0  0  0
  -24.3602   -9.4199   21.9189 C   0  0  0  0  0  0
  -23.6271   -8.2243   22.0766 C   0  0  0  0  0  0
  -22.4265   -8.0291   21.3557 C   0  0  0  0  0  0
  -21.9904   -9.0265   20.4658 C   0  0  0  0  0  0
  -22.7238  -10.2135   20.3069 C   0  0  0  0  0  0
  -21.6856   -6.0716   22.5277 C   0  0  0  0  0  0
  -21.4018   -6.5627   23.8206 C   0  0  0  0  0  0
  -21.3665   -5.6788   24.9168 C   0  0  0  0  0  0
  -21.6038   -4.3050   24.7221 C   0  0  0  0  0  0
  -21.8825   -3.8137   23.4357 C   0  0  0  0  0  0
  -21.9187   -4.6947   22.3399 C   0  0  0  0  0  0
  -22.7854  -13.5249   21.1813 C   0  0  0  0  0  0
  -22.1658   -4.2127   21.0979 F   0  0  0  0  0  0
  -21.5626   -3.4539   25.7740 F   0  0  0  0  0  0
  -30.0018  -13.4140   20.3976 N   0  0  0  0  0  0
  -26.2964  -12.9346   20.3301 N   0  0  0  0  0  0
  -25.9318  -11.6502   20.5758 N   0  0  0  0  0  0
  -22.0455  -12.8281   22.0374 N   0  0  0  0  0  0
  -25.4340  -15.1882   20.4099 N   0  0  0  0  0  0
  -31.8676  -14.6759   20.2146 O   0  0  0  0  0  0
  -21.6650   -6.8876   21.4248 O   0  0  0  0  0  0
  -22.3564  -14.5537   20.6641 O   0  0  0  0  0  0
  -24.6171  -31.8668   23.2064 C   0  0  0  0  0  0
  -25.9076  -32.4801   23.8374 C   0  0  1  0  0  0
  -27.2188  -27.3913   20.1129 C   0  0  0  0  0  0
  -25.5925  -33.8605   24.2333 N   0  0  0  0  0  0
  -23.4068  -30.4900   21.5469 C   0  0  2  0  0  0
  -24.8543  -28.9523   20.1124 C   0  0  0  0  0  0
  -22.7422  -29.4646   22.4953 C   0  0  0  0  0  0
  -18.0317  -28.1333   22.8462 C   0  0  0  0  0  0
  -24.1497  -36.7311   23.2623 C   0  0  0  0  0  0
  -25.9391  -30.8215   21.3630 C   0  0  0  0  0  0
  -26.0175  -29.4519   20.7133 C   0  0  0  0  0  0
  -27.2090  -28.6799   20.7087 C   0  0  0  0  0  0
  -26.0468  -26.9321   19.4855 C   0  0  0  0  0  0
  -24.8656  -27.6949   19.4903 C   0  0  0  0  0  0
  -23.6171  -29.8210   20.1615 C   0  0  0  0  0  0
  -25.4105  -36.3089   24.0335 C   0  0  1  0  0  0
  -20.5873  -28.3679   23.1299 C   0  0  2  0  0  0
  -20.6823  -26.9392   22.5479 C   0  0  0  0  0  0
  -19.5845  -26.6266   21.5285 C   0  0  0  0  0  0
  -18.2006  -26.7853   22.1654 C   0  0  0  0  0  0
  -19.1536  -28.8835   23.2857 C   0  0  0  0  0  0
  -18.9432  -30.1438   23.8850 C   0  0  0  0  0  0
  -17.6425  -30.6554   24.0480 C   0  0  0  0  0  0
  -25.9039  -34.9448   23.5136 C   0  0  0  0  0  0
  -16.5343  -29.9019   23.6237 C   0  0  0  0  0  0
  -16.7289  -28.6411   23.0311 C   0  0  0  0  0  0
  -26.4493  -31.6550   25.0701 C   0  0  0  0  0  0
  -25.3769  -31.3668   26.1465 C   0  0  0  0  0  0
  -27.0304  -30.2976   24.6044 C   0  0  0  0  0  0
  -27.6063  -32.4249   25.7466 C   0  0  0  0  0  0
  -27.5581  -37.1807   24.8455 C   0  0  0  0  0  0
  -21.4147  -29.3034   22.3677 N   0  0  0  0  0  0
  -26.4289  -37.3777   23.9398 N   0  0  0  0  0  0
  -24.6734  -31.0716   22.0970 N   0  0  0  0  0  0
  -23.4172  -28.8230   23.3049 O   0  0  0  0  0  0
  -28.3145  -26.5432   20.1332 O   0  0  0  0  0  0
  -26.5576  -34.8893   22.4681 O   0  0  0  0  0  0
  -23.5359  -32.1444   23.7434 O   0  0  0  0  0  0
  -27.5423  -21.6406   22.3831 C   0  0  0  0  0  0
  -28.9403  -20.4158   20.8453 C   0  0  0  0  0  0
  -28.2652  -21.6311   21.1761 C   0  0  0  0  0  0
  -27.4577  -20.5041   23.2146 C   0  0  0  0  0  0
  -28.9051  -19.2444   21.6696 C   0  0  0  0  0  0
  -28.1339  -19.2974   22.8728 C   0  0  0  0  0  0
  -26.5989  -20.6269   24.4688 C   0  0  0  0  0  0
  -29.2194  -17.8144   24.6786 C   0  0  0  0  0  0
  -29.0218  -26.2516   22.3577 C   0  0  0  0  0  0
  -28.9000  -22.6479   18.9063 C   0  0  0  0  0  0
  -26.7346  -23.2111   19.9476 C   0  0  0  0  0  0
  -30.1059  -16.2872   18.7735 C   0  0  0  0  0  0
  -29.7785  -18.0148   21.2531 C   0  0  0  0  0  0
  -27.9941  -18.0813   23.7941 C   0  0  0  0  0  0
  -28.9710  -24.1572   20.9158 C   0  0  0  0  0  0
  -29.1161  -16.6025   20.9987 C   0  0  0  0  0  0
  -28.2827  -25.5528   21.2003 C   0  0  2  0  0  0
  -28.2186  -22.9116   20.2663 C   0  0  0  0  0  0
  -29.8884  -15.6932   20.1016 N   0  0  0  0  0  0
  -31.4692  -12.4583   19.1640 H   0  0  0  0  0  0
  -30.3272  -11.3827   19.9251 H   0  0  0  0  0  0
  -29.7595  -11.6901   17.4981 H   0  0  0  0  0  0
  -29.6653  -13.4112   17.7046 H   0  0  0  0  0  0
  -27.8474  -11.2848   18.8680 H   0  0  0  0  0  0
  -27.3774  -12.5688   17.7848 H   0  0  0  0  0  0
  -27.6514  -14.2467   19.4897 H   0  0  0  0  0  0
  -28.6996  -12.1124   21.4217 H   0  0  0  0  0  0
  -28.4586  -13.8058   21.7926 H   0  0  0  0  0  0
  -25.2726   -9.5674   22.4785 H   0  0  0  0  0  0
  -23.9962   -7.4638   22.7504 H   0  0  0  0  0  0
  -21.0822   -8.8771   19.8980 H   0  0  0  0  0  0
  -22.3671  -10.9669   19.6194 H   0  0  0  0  0  0
  -21.2035   -7.6141   23.9698 H   0  0  0  0  0  0
  -21.1479   -6.0521   25.9060 H   0  0  0  0  0  0
  -22.0607   -2.7601   23.2858 H   0  0  0  0  0  0
  -22.4005  -11.9934   22.4793 H   0  0  0  0  0  0
  -21.1087  -13.1386   22.2546 H   0  0  0  0  0  0
  -24.6784  -15.8556   20.5169 H   0  0  0  0  0  0
  -26.2977  -15.6121   20.0949 H   0  0  0  0  0  0
  -26.7150  -32.5496   23.1136 H   0  0  0  0  0  0
  -25.0147  -33.9773   25.0526 H   0  0  0  0  0  0
  -22.6977  -31.3090   21.4093 H   0  0  0  0  0  0
  -23.3741  -35.9667   23.3270 H   0  0  0  0  0  0
  -24.3606  -36.8932   22.2041 H   0  0  0  0  0  0
  -23.7272  -37.6524   23.6649 H   0  0  0  0  0  0
  -26.0524  -31.5840   20.5916 H   0  0  0  0  0  0
  -26.8249  -30.8773   21.9825 H   0  0  0  0  0  0
  -28.1029  -29.0598   21.1832 H   0  0  0  0  0  0
  -26.0424  -25.9752   18.9938 H   0  0  0  0  0  0
  -23.9723  -27.3088   19.0184 H   0  0  0  0  0  0
  -23.7327  -30.6009   19.4072 H   0  0  0  0  0  0
  -22.7378  -29.2457   19.8575 H   0  0  0  0  0  0
  -25.1277  -36.1954   25.0830 H   0  0  0  0  0  0
  -20.9959  -28.3328   24.1423 H   0  0  0  0  0  0
  -20.5774  -26.2338   23.3721 H   0  0  0  0  0  0
  -21.6717  -26.7416   22.1332 H   0  0  0  0  0  0
  -19.7037  -25.6140   21.1431 H   0  0  0  0  0  0
  -19.6818  -27.2978   20.6749 H   0  0  0  0  0  0
  -17.4306  -26.6500   21.4054 H   0  0  0  0  0  0
  -18.0404  -26.0038   22.9086 H   0  0  0  0  0  0
  -19.7893  -30.7269   24.2204 H   0  0  0  0  0  0
  -17.4941  -31.6247   24.5060 H   0  0  0  0  0  0
  -15.5329  -30.2904   23.7518 H   0  0  0  0  0  0
  -15.8693  -28.0704   22.7021 H   0  0  0  0  0  0
  -24.5994  -30.6942   25.7838 H   0  0  0  0  0  0
  -24.8929  -32.2833   26.4839 H   0  0  0  0  0  0
  -25.8160  -30.8936   27.0260 H   0  0  0  0  0  0
  -26.2854  -29.6759   24.1073 H   0  0  0  0  0  0
  -27.4060  -29.7156   25.4463 H   0  0  0  0  0  0
  -27.8689  -30.4269   23.9201 H   0  0  0  0  0  0
  -27.2698  -33.3554   26.2033 H   0  0  0  0  0  0
  -28.3891  -32.6775   25.0313 H   0  0  0  0  0  0
  -28.0706  -31.8383   26.5399 H   0  0  0  0  0  0
  -28.2576  -38.0120   24.7491 H   0  0  0  0  0  0
  -28.1094  -36.2642   24.6285 H   0  0  0  0  0  0
  -27.2299  -37.1457   25.8858 H   0  0  0  0  0  0
  -20.9323  -29.8707   21.6834 H   0  0  0  0  0  0
  -26.0163  -38.2854   24.1392 H   0  0  0  0  0  0
  -27.0129  -22.5387   22.6654 H   0  0  0  0  0  0
  -29.5143  -20.3694   19.9338 H   0  0  0  0  0  0
  -25.6931  -20.0272   24.3694 H   0  0  0  0  0  0
  -26.2880  -21.6561   24.6504 H   0  0  0  0  0  0
  -27.1399  -20.2948   25.3549 H   0  0  0  0  0  0
  -29.0353  -16.9614   25.3308 H   0  0  0  0  0  0
  -29.4467  -18.6683   25.3164 H   0  0  0  0  0  0
  -30.1103  -17.5841   24.0984 H   0  0  0  0  0  0
  -29.0895  -25.6219   23.2435 H   0  0  0  0  0  0
  -28.5221  -27.1679   22.6662 H   0  0  0  0  0  0
  -30.0379  -26.5209   22.0644 H   0  0  0  0  0  0
  -28.4377  -21.8206   18.3633 H   0  0  0  0  0  0
  -29.9585  -22.4236   19.0225 H   0  0  0  0  0  0
  -28.8368  -23.5283   18.2668 H   0  0  0  0  0  0
  -26.2372  -22.3251   19.5506 H   0  0  0  0  0  0
  -26.6435  -23.9799   19.1848 H   0  0  0  0  0  0
  -26.1605  -23.5308   20.8173 H   0  0  0  0  0  0
  -29.2980  -16.9640   18.4928 H   0  0  0  0  0  0
  -30.1694  -15.5290   17.9948 H   0  0  0  0  0  0
  -31.0370  -16.8532   18.7416 H   0  0  0  0  0  0
  -30.5863  -17.9017   21.9752 H   0  0  0  0  0  0
  -30.2955  -18.3223   20.3466 H   0  0  0  0  0  0
  -27.7281  -17.2106   23.2064 H   0  0  0  0  0  0
  -27.1320  -18.1832   24.4492 H   0  0  0  0  0  0
  -29.9003  -24.3539   20.3818 H   0  0  0  0  0  0
  -29.3283  -23.7935   21.8778 H   0  0  0  0  0  0
  -28.1342  -16.7535   20.5466 H   0  0  0  0  0  0
  -28.9479  -16.0822   21.9397 H   0  0  0  0  0  0
  -27.2619  -25.3731   21.5383 H   0  0  0  0  0  0
  1 25  1  0  0  0
  1 30  2  0  0  0
  1 89  1  0  0  0
  2  3  1  0  0  0
  2 25  1  0  0  0
  2 90  1  0  0  0
  2 91  1  0  0  0
  3  4  1  0  0  0
  3 92  1  0  0  0
  3 93  1  0  0  0
  4  5  1  0  0  0
  4 94  1  0  0  0
  4 95  1  0  0  0
  5  6  1  0  0  0
  5 26  1  0  0  0
  5 96  1  0  0  0
  6 25  1  0  0  0
  6 97  1  0  0  0
  6 98  1  0  0  0
  7  8  2  0  0  0
  7 26  1  0  0  0
  7 29  1  0  0  0
  8  9  1  0  0  0
  8 22  1  0  0  0
  9 10  1  0  0  0
  9 27  2  0  0  0
 10 11  2  0  0  0
 10 15  1  0  0  0
 11 12  1  0  0  0
 11 99  1  0  0  0
 12 13  2  0  0  0
 12100  1  0  0  0
 13 14  1  0  0  0
 13 31  1  0  0  0
 14 15  2  0  0  0
 14101  1  0  0  0
 15102  1  0  0  0
 16 17  2  0  0  0
 16 21  1  0  0  0
 16 31  1  0  0  0
 17 18  1  0  0  0
 17103  1  0  0  0
 18 19  2  0  0  0
 18104  1  0  0  0
 19 20  1  0  0  0
 19 24  1  0  0  0
 20 21  2  0  0  0
 20105  1  0  0  0
 21 23  1  0  0  0
 22 28  1  0  0  0
 22 32  2  0  0  0
 26 27  1  0  0  0
 28106  1  0  0  0
 28107  1  0  0  0
 29108  1  0  0  0
 29109  1  0  0  0
 33 34  1  0  0  0
 33 66  1  0  0  0
 33 70  2  0  0  0
 34 36  1  0  0  0
 34 59  1  0  0  0
 34110  1  0  0  0
 35 44  2  0  0  0
 35 45  1  0  0  0
 35 68  1  0  0  0
 36 56  1  0  0  0
 36111  1  0  0  0
 37 39  1  0  0  0
 37 47  1  0  0  0
 37 66  1  0  0  0
 37112  1  0  0  0
 38 43  2  0  0  0
 38 46  1  0  0  0
 38 47  1  0  0  0
 39 64  1  0  0  0
 39 67  2  0  0  0
 40 52  1  0  0  0
 40 53  2  0  0  0
 40 58  1  0  0  0
 41113  1  0  0  0
 41114  1  0  0  0
 41115  1  0  0  0
 41 48  1  0  0  0
 42 43  1  0  0  0
 42 66  1  0  0  0
 42116  1  0  0  0
 42117  1  0  0  0
 43 44  1  0  0  0
 44118  1  0  0  0
 45 46  2  0  0  0
 45119  1  0  0  0
 46120  1  0  0  0
 47121  1  0  0  0
 47122  1  0  0  0
 48 56  1  0  0  0
 48 65  1  0  0  0
 48123  1  0  0  0
 49 50  1  0  0  0
 49 53  1  0  0  0
 49 64  1  0  0  0
 49124  1  0  0  0
 50 51  1  0  0  0
 50125  1  0  0  0
 50126  1  0  0  0
 51 52  1  0  0  0
 51127  1  0  0  0
 51128  1  0  0  0
 52129  1  0  0  0
 52130  1  0  0  0
 53 54  1  0  0  0
 54 55  2  0  0  0
 54131  1  0  0  0
 55 57  1  0  0  0
 55132  1  0  0  0
 56 69  2  0  0  0
 57 58  2  0  0  0
 57133  1  0  0  0
 58134  1  0  0  0
 59 60  1  0  0  0
 59 61  1  0  0  0
 59 62  1  0  0  0
 60135  1  0  0  0
 60136  1  0  0  0
 60137  1  0  0  0
 61138  1  0  0  0
 61139  1  0  0  0
 61140  1  0  0  0
 62141  1  0  0  0
 62142  1  0  0  0
 62143  1  0  0  0
 63 65  1  0  0  0
 63144  1  0  0  0
 63145  1  0  0  0
 63146  1  0  0  0
 64147  1  0  0  0
 65148  1  0  0  0
 68 87  1  0  0  0
 71 73  2  0  0  0
 71 74  1  0  0  0
 71149  1  0  0  0
 72 73  1  0  0  0
 72 75  2  0  0  0
 72150  1  0  0  0
 73 88  1  0  0  0
 74 76  2  0  0  0
 74 77  1  0  0  0
 75 76  1  0  0  0
 75 83  1  0  0  0
 76 84  1  0  0  0
 77151  1  0  0  0
 77152  1  0  0  0
 77153  1  0  0  0
 78 84  1  0  0  0
 78154  1  0  0  0
 78155  1  0  0  0
 78156  1  0  0  0
 79157  1  0  0  0
 79158  1  0  0  0
 79159  1  0  0  0
 79 87  1  0  0  0
 80160  1  0  0  0
 80161  1  0  0  0
 80162  1  0  0  0
 80 88  1  0  0  0
 81 88  1  0  0  0
 81163  1  0  0  0
 81164  1  0  0  0
 81165  1  0  0  0
 82 89  1  0  0  0
 82166  1  0  0  0
 82167  1  0  0  0
 82168  1  0  0  0
 83 86  1  0  0  0
 83169  1  0  0  0
 83170  1  0  0  0
 84171  1  0  0  0
 84172  1  0  0  0
 85 87  1  0  0  0
 85 88  1  0  0  0
 85173  1  0  0  0
 85174  1  0  0  0
 86 89  1  0  0  0
 86175  1  0  0  0
 86176  1  0  0  0
 87177  1  0  0  0
M  ISO  4   1 100  68 101  87 101  89 100
M  END
> <chiral flag>
0

> <version>
0

> <s_m_source_file>
/data/baiqing/PycharmProjects/Reinvent-master-3.2/result/LINK_invent/BTK/process_docking_weight1_custom_sum_contain_oxygen_bond_distance_aromatic_linkinvent_7_9_3/rearranged_h_0101.sdf

> <i_m_source_file_index>
31

> <r_mmod_Potential_Energy-OPLS-2005>
250.088134765625

> <r_mmod_Stretch_Energy-OPLS-2005>
68.9591522216797

> <r_mmod_Bend_Energy-OPLS-2005>
142.722549438477

> <r_mmod_Torsional_Energy-OPLS-2005>
347.310394287109

> <r_mmod_Improper_Torsional_Energy-OPLS-2005>
25.0591831207275

> <r_mmod_Van_der_Waal_Energy-OPLS-2005>
154.439239501953

> <r_mmod_Electrostatic_Energy-OPLS-2005>
-350.818939208984

> <r_mmod_Solvation_Energy-OPLS-2005>
-178.210403442383

> <b_mmod_Minimization_Converged-OPLS-2005>
0

> <r_mmod_RMS_Derivative-OPLS-2005>
3.96168541908264

$$$$
31
                    3D
 Structure written by MMmdl.
180188  0  0  1  0            999 V2000
  -30.5411  -14.9085   20.3693 C   0  0  0  0  0  0
  -30.4487  -12.5474   19.4960 C   0  0  0  0  0  0
  -29.5226  -12.5185   18.2577 C   0  0  0  0  0  0
  -28.0539  -12.3022   18.6757 C   0  0  0  0  0  0
  -27.6320  -13.1995   19.8694 C   0  0  2  0  0  0
  -28.6922  -13.2334   20.9920 C   0  0  0  0  0  0
  -25.2313  -13.7530   20.5754 C   0  0  0  0  0  0
  -24.1646  -12.9947   20.9330 C   0  0  0  0  0  0
  -24.6345  -11.6510   20.8833 C   0  0  0  0  0  0
  -23.9025  -10.4018   21.0455 C   0  0  0  0  0  0
  -24.3578   -9.3984   21.9252 C   0  0  0  0  0  0
  -23.6227   -8.2060   22.0773 C   0  0  0  0  0  0
  -22.4215   -8.0160   21.3542 C   0  0  0  0  0  0
  -21.9857   -9.0128   20.4649 C   0  0  0  0  0  0
  -22.7206  -10.1971   20.3081 C   0  0  0  0  0  0
  -21.6810   -6.0671   22.5272 C   0  0  0  0  0  0
  -21.3980   -6.5598   23.8197 C   0  0  0  0  0  0
  -21.3651   -5.6760   24.9162 C   0  0  0  0  0  0
  -21.6054   -4.3029   24.7212 C   0  0  0  0  0  0
  -21.8837   -3.8113   23.4334 C   0  0  0  0  0  0
  -21.9196   -4.6913   22.3390 C   0  0  0  0  0  0
  -22.7693  -13.4864   21.1914 C   0  0  0  0  0  0
  -22.1691   -4.2113   21.0961 F   0  0  0  0  0  0
  -21.5643   -3.4514   25.7731 F   0  0  0  0  0  0
  -29.9709  -13.6395   20.3811 N   0  0  0  0  0  0
  -26.2885  -12.8928   20.3453 N   0  0  0  0  0  0
  -25.9311  -11.6109   20.5897 N   0  0  0  0  0  0
  -22.0306  -12.7980   22.0533 N   0  0  0  0  0  0
  -25.3512  -15.1032   20.3956 N   0  0  0  0  0  0
  -31.7421  -15.0132   20.0978 O   0  0  0  0  0  0
  -21.6576   -6.8775   21.4223 O   0  0  0  0  0  0
  -22.3438  -14.5186   20.6699 O   0  0  0  0  0  0
  -24.6277  -31.8533   23.1955 C   0  0  0  0  0  0
  -25.9102  -32.4751   23.8315 C   0  0  1  0  0  0
  -27.2764  -27.2873   20.1139 C   0  0  0  0  0  0
  -25.5898  -33.8553   24.2256 N   0  0  0  0  0  0
  -23.4286  -30.4682   21.5372 C   0  0  2  0  0  0
  -24.8882  -28.9081   20.1108 C   0  0  0  0  0  0
  -22.7479  -29.4582   22.4911 C   0  0  0  0  0  0
  -18.0287  -28.1388   22.8490 C   0  0  0  0  0  0
  -24.1499  -36.7272   23.2641 C   0  0  0  0  0  0
  -25.9693  -30.7702   21.3723 C   0  0  0  0  0  0
  -26.0531  -29.3927   20.7160 C   0  0  0  0  0  0
  -27.2390  -28.5936   20.7076 C   0  0  0  0  0  0
  -26.0789  -26.8559   19.4903 C   0  0  0  0  0  0
  -24.9055  -27.6452   19.4909 C   0  0  0  0  0  0
  -23.6508  -29.7883   20.1572 C   0  0  0  0  0  0
  -25.4123  -36.3060   24.0336 C   0  0  1  0  0  0
  -20.5887  -28.3693   23.1278 C   0  0  2  0  0  0
  -20.6778  -26.9407   22.5416 C   0  0  0  0  0  0
  -19.5762  -26.6382   21.5212 C   0  0  0  0  0  0
  -18.1945  -26.7934   22.1621 C   0  0  0  0  0  0
  -19.1542  -28.8855   23.2884 C   0  0  0  0  0  0
  -18.9460  -30.1454   23.8912 C   0  0  0  0  0  0
  -17.6462  -30.6596   24.0559 C   0  0  0  0  0  0
  -25.9049  -34.9431   23.5100 C   0  0  0  0  0  0
  -16.5352  -29.9099   23.6328 C   0  0  0  0  0  0
  -16.7273  -28.6512   23.0357 C   0  0  0  0  0  0
  -26.4473  -31.6563   25.0693 C   0  0  0  0  0  0
  -25.3708  -31.3709   26.1423 C   0  0  0  0  0  0
  -27.0311  -30.2991   24.6138 C   0  0  0  0  0  0
  -27.6039  -32.4279   25.7466 C   0  0  0  0  0  0
  -27.5586  -37.1797   24.8467 C   0  0  0  0  0  0
  -21.4183  -29.3045   22.3656 N   0  0  0  0  0  0
  -26.4292  -37.3759   23.9415 N   0  0  0  0  0  0
  -24.6938  -31.0483   22.0925 N   0  0  0  0  0  0
  -23.4172  -28.8131   23.3023 O   0  0  0  0  0  0
  -28.4347  -26.4707   20.1878 O   0  0  0  0  0  0
  -26.5622  -34.8902   22.4672 O   0  0  0  0  0  0
  -23.5428  -32.1333   23.7261 O   0  0  0  0  0  0
  -28.8666  -19.4780   19.2688 C   0  0  0  0  0  0
  -30.4385  -18.6104   20.5606 C   0  0  0  0  0  0
  -28.6165  -18.1463   19.3840 C   0  0  0  0  0  0
  -29.7011  -17.5013   20.0925 C   0  0  0  0  0  0
  -27.2250  -16.4963   18.0724 C   0  0  0  0  0  0
  -31.1370  -23.1013   19.1134 C   0  0  0  0  0  0
  -28.8876  -22.4758   18.3808 C   0  0  0  0  0  0
  -25.0101  -21.4131   22.8257 C   0  0  0  0  0  0
  -25.5499  -19.9019   24.6813 C   0  0  0  0  0  0
  -26.3398  -19.1103   21.0632 C   0  0  0  0  0  0
  -26.3409  -17.7891   20.2518 C   0  0  0  0  0  0
  -30.0262  -21.3355   20.5698 C   0  0  0  0  0  0
  -29.1638  -24.0404   20.3986 C   0  0  0  0  0  0
  -25.5260  -19.0242   22.3670 C   0  0  0  0  0  0
  -27.2386  -17.7230   18.9904 C   0  0  1  0  0  0
  -29.7471  -22.6970   19.6477 C   0  0  0  0  0  0
  -29.8656  -19.8666   20.1107 N   0  0  0  0  0  0
  -29.6896  -16.0275   20.4835 N   0  0  0  0  0  0
  -28.3724  -25.0634   19.6001 N   0  0  0  0  0  0
  -25.7539  -20.2024   23.2457 N   0  3  0  0  0  0
  -31.4841  -12.7015   19.1900 H   0  0  0  0  0  0
  -30.4338  -11.5932   20.0269 H   0  0  0  0  0  0
  -29.8345  -11.7314   17.5705 H   0  0  0  0  0  0
  -29.6158  -13.4610   17.7153 H   0  0  0  0  0  0
  -27.9494  -11.2537   18.9584 H   0  0  0  0  0  0
  -27.3864  -12.4617   17.8271 H   0  0  0  0  0  0
  -27.5713  -14.2011   19.4820 H   0  0  0  0  0  0
  -28.7841  -12.2579   21.4728 H   0  0  0  0  0  0
  -28.3977  -13.9384   21.7717 H   0  0  0  0  0  0
  -25.2702   -9.5472   22.4857 H   0  0  0  0  0  0
  -23.9915   -7.4432   22.7472 H   0  0  0  0  0  0
  -21.0805   -8.8666   19.8932 H   0  0  0  0  0  0
  -22.3700  -10.9555   19.6222 H   0  0  0  0  0  0
  -21.1954   -7.6107   23.9671 H   0  0  0  0  0  0
  -21.1478   -6.0502   25.9062 H   0  0  0  0  0  0
  -22.0638   -2.7575   23.2837 H   0  0  0  0  0  0
  -22.3837  -11.9625   22.4957 H   0  0  0  0  0  0
  -21.0969  -13.1101   22.2772 H   0  0  0  0  0  0
  -24.5273  -15.6903   20.4488 H   0  0  0  0  0  0
  -26.1389  -15.5533   19.9505 H   0  0  0  0  0  0
  -26.7168  -32.5412   23.1059 H   0  0  0  0  0  0
  -25.0051  -33.9701   25.0407 H   0  0  0  0  0  0
  -22.7273  -31.2899   21.3829 H   0  0  0  0  0  0
  -23.3762  -35.9596   23.3283 H   0  0  0  0  0  0
  -24.3589  -36.8908   22.2053 H   0  0  0  0  0  0
  -23.7234  -37.6470   23.6667 H   0  0  0  0  0  0
  -26.0998  -31.5312   20.6011 H   0  0  0  0  0  0
  -26.8482  -30.8283   22.0030 H   0  0  0  0  0  0
  -28.1322  -28.9662   21.1880 H   0  0  0  0  0  0
  -26.0319  -25.8870   19.0146 H   0  0  0  0  0  0
  -24.0111  -27.2643   19.0171 H   0  0  0  0  0  0
  -23.7727  -30.5594   19.3951 H   0  0  0  0  0  0
  -22.7733  -29.2144   19.8567 H   0  0  0  0  0  0
  -25.1305  -36.1915   25.0825 H   0  0  0  0  0  0
  -20.9997  -28.3271   24.1389 H   0  0  0  0  0  0
  -20.5674  -26.2299   23.3613 H   0  0  0  0  0  0
  -21.6646  -26.7436   22.1211 H   0  0  0  0  0  0
  -19.6915  -25.6286   21.1255 H   0  0  0  0  0  0
  -19.6716  -27.3181   20.6735 H   0  0  0  0  0  0
  -17.4211  -26.6679   21.4023 H   0  0  0  0  0  0
  -18.0346  -26.0082   22.9020 H   0  0  0  0  0  0
  -19.7933  -30.7256   24.2317 H   0  0  0  0  0  0
  -17.5018  -31.6286   24.5127 H   0  0  0  0  0  0
  -15.5359  -30.3001   23.7649 H   0  0  0  0  0  0
  -15.8669  -28.0821   22.7085 H   0  0  0  0  0  0
  -24.5878  -30.7061   25.7750 H   0  0  0  0  0  0
  -24.8897  -32.2883   26.4840 H   0  0  0  0  0  0
  -25.8030  -30.8889   27.0208 H   0  0  0  0  0  0
  -26.2880  -29.6759   24.1150 H   0  0  0  0  0  0
  -27.4010  -29.7226   25.4631 H   0  0  0  0  0  0
  -27.8746  -30.4294   23.9353 H   0  0  0  0  0  0
  -27.2665  -33.3585   26.2051 H   0  0  0  0  0  0
  -28.3853  -32.6837   25.0291 H   0  0  0  0  0  0
  -28.0696  -31.8391   26.5387 H   0  0  0  0  0  0
  -28.2596  -38.0103   24.7519 H   0  0  0  0  0  0
  -28.1102  -36.2638   24.6294 H   0  0  0  0  0  0
  -27.2311  -37.1429   25.8871 H   0  0  0  0  0  0
  -20.9356  -29.8762   21.6860 H   0  0  0  0  0  0
  -26.0180  -38.2835   24.1411 H   0  0  0  0  0  0
  -28.1930  -20.1984   18.8424 H   0  0  0  0  0  0
  -31.2530  -18.6305   21.2706 H   0  0  0  0  0  0
  -27.4765  -16.7984   17.0552 H   0  0  0  0  0  0
  -26.2490  -16.0137   18.0164 H   0  0  0  0  0  0
  -27.9949  -15.7843   18.3366 H   0  0  0  0  0  0
  -31.0820  -23.9647   18.4483 H   0  0  0  0  0  0
  -31.5919  -22.2810   18.5568 H   0  0  0  0  0  0
  -31.8189  -23.3644   19.9233 H   0  0  0  0  0  0
  -29.2654  -21.6604   17.7644 H   0  0  0  0  0  0
  -28.9121  -23.3431   17.7199 H   0  0  0  0  0  0
  -27.8397  -22.3071   18.6290 H   0  0  0  0  0  0
  -25.3180  -22.2700   23.4249 H   0  0  0  0  0  0
  -23.9343  -21.2836   22.9484 H   0  0  0  0  0  0
  -25.1988  -21.6674   21.7839 H   0  0  0  0  0  0
  -25.8669  -20.7459   25.2965 H   0  0  0  0  0  0
  -26.1410  -19.0397   24.9932 H   0  0  0  0  0  0
  -24.5026  -19.6943   24.8992 H   0  0  0  0  0  0
  -25.9800  -19.9304   20.4426 H   0  0  0  0  0  0
  -27.3575  -19.3614   21.3564 H   0  0  0  0  0  0
  -25.3099  -17.5764   19.9664 H   0  0  0  0  0  0
  -26.7003  -17.0362   20.9508 H   0  0  0  0  0  0
  -29.3572  -21.4241   21.4266 H   0  0  0  0  0  0
  -31.0187  -21.4093   21.0175 H   0  0  0  0  0  0
  -29.9986  -24.5607   20.8713 H   0  0  0  0  0  0
  -28.5177  -23.7286   21.2202 H   0  0  0  0  0  0
  -25.8528  -18.1281   22.8958 H   0  0  0  0  0  0
  -24.4632  -18.8884   22.1614 H   0  0  0  0  0  0
  -26.8273  -18.5037   18.3473 H   0  0  0  0  0  0
  -28.7540  -15.6982   20.6552 H   0  0  0  0  0  0
  -28.8102  -25.1466   18.6877 H   0  0  0  0  0  0
  -26.7344  -20.4246   23.1646 H   0  0  0  0  0  0
  1 25  1  0  0  0
  1 30  2  0  0  0
  1 88  1  0  0  0
  2  3  1  0  0  0
  2 25  1  0  0  0
  2 91  1  0  0  0
  2 92  1  0  0  0
  3  4  1  0  0  0
  3 93  1  0  0  0
  3 94  1  0  0  0
  4  5  1  0  0  0
  4 95  1  0  0  0
  4 96  1  0  0  0
  5  6  1  0  0  0
  5 26  1  0  0  0
  5 97  1  0  0  0
  6 25  1  0  0  0
  6 98  1  0  0  0
  6 99  1  0  0  0
  7  8  2  0  0  0
  7 26  1  0  0  0
  7 29  1  0  0  0
  8  9  1  0  0  0
  8 22  1  0  0  0
  9 10  1  0  0  0
  9 27  2  0  0  0
 10 11  2  0  0  0
 10 15  1  0  0  0
 11 12  1  0  0  0
 11100  1  0  0  0
 12 13  2  0  0  0
 12101  1  0  0  0
 13 14  1  0  0  0
 13 31  1  0  0  0
 14 15  2  0  0  0
 14102  1  0  0  0
 15103  1  0  0  0
 16 17  2  0  0  0
 16 21  1  0  0  0
 16 31  1  0  0  0
 17 18  1  0  0  0
 17104  1  0  0  0
 18 19  2  0  0  0
 18105  1  0  0  0
 19 20  1  0  0  0
 19 24  1  0  0  0
 20 21  2  0  0  0
 20106  1  0  0  0
 21 23  1  0  0  0
 22 28  1  0  0  0
 22 32  2  0  0  0
 26 27  1  0  0  0
 28107  1  0  0  0
 28108  1  0  0  0
 29109  1  0  0  0
 29110  1  0  0  0
 33 34  1  0  0  0
 33 66  1  0  0  0
 33 70  2  0  0  0
 34 36  1  0  0  0
 34 59  1  0  0  0
 34111  1  0  0  0
 35 44  2  0  0  0
 35 45  1  0  0  0
 35 68  1  0  0  0
 36 56  1  0  0  0
 36112  1  0  0  0
 37 39  1  0  0  0
 37 47  1  0  0  0
 37 66  1  0  0  0
 37113  1  0  0  0
 38 43  2  0  0  0
 38 46  1  0  0  0
 38 47  1  0  0  0
 39 64  1  0  0  0
 39 67  2  0  0  0
 40 52  1  0  0  0
 40 53  2  0  0  0
 40 58  1  0  0  0
 41114  1  0  0  0
 41115  1  0  0  0
 41116  1  0  0  0
 41 48  1  0  0  0
 42 43  1  0  0  0
 42 66  1  0  0  0
 42117  1  0  0  0
 42118  1  0  0  0
 43 44  1  0  0  0
 44119  1  0  0  0
 45 46  2  0  0  0
 45120  1  0  0  0
 46121  1  0  0  0
 47122  1  0  0  0
 47123  1  0  0  0
 48 56  1  0  0  0
 48 65  1  0  0  0
 48124  1  0  0  0
 49 50  1  0  0  0
 49 53  1  0  0  0
 49 64  1  0  0  0
 49125  1  0  0  0
 50 51  1  0  0  0
 50126  1  0  0  0
 50127  1  0  0  0
 51 52  1  0  0  0
 51128  1  0  0  0
 51129  1  0  0  0
 52130  1  0  0  0
 52131  1  0  0  0
 53 54  1  0  0  0
 54 55  2  0  0  0
 54132  1  0  0  0
 55 57  1  0  0  0
 55133  1  0  0  0
 56 69  2  0  0  0
 57 58  2  0  0  0
 57134  1  0  0  0
 58135  1  0  0  0
 59 60  1  0  0  0
 59 61  1  0  0  0
 59 62  1  0  0  0
 60136  1  0  0  0
 60137  1  0  0  0
 60138  1  0  0  0
 61139  1  0  0  0
 61140  1  0  0  0
 61141  1  0  0  0
 62142  1  0  0  0
 62143  1  0  0  0
 62144  1  0  0  0
 63 65  1  0  0  0
 63145  1  0  0  0
 63146  1  0  0  0
 63147  1  0  0  0
 64148  1  0  0  0
 65149  1  0  0  0
 68 89  1  0  0  0
 71 73  2  0  0  0
 71 87  1  0  0  0
 71150  1  0  0  0
 72 74  2  0  0  0
 72 87  1  0  0  0
 72151  1  0  0  0
 73 74  1  0  0  0
 73 85  1  0  0  0
 74 88  1  0  0  0
 75152  1  0  0  0
 75153  1  0  0  0
 75154  1  0  0  0
 75 85  1  0  0  0
 76155  1  0  0  0
 76156  1  0  0  0
 76157  1  0  0  0
 76 86  1  0  0  0
 77 86  1  0  0  0
 77158  1  0  0  0
 77159  1  0  0  0
 77160  1  0  0  0
 78161  1  0  0  0
 78162  1  0  0  0
 78163  1  0  0  0
 78 90  1  0  0  0
 79 90  1  0  0  0
 79164  1  0  0  0
 79165  1  0  0  0
 79166  1  0  0  0
 80 81  1  0  0  0
 80 84  1  0  0  0
 80167  1  0  0  0
 80168  1  0  0  0
 81 85  1  0  0  0
 81169  1  0  0  0
 81170  1  0  0  0
 82 86  1  0  0  0
 82 87  1  0  0  0
 82171  1  0  0  0
 82172  1  0  0  0
 83 86  1  0  0  0
 83 89  1  0  0  0
 83173  1  0  0  0
 83174  1  0  0  0
 84 90  1  0  0  0
 84175  1  0  0  0
 84176  1  0  0  0
 85177  1  0  0  0
 88178  1  0  0  0
 89179  1  0  0  0
 90180  1  0  0  0
M  CHG  1  90   1
M  ISO  4   1 100  68 101  88 100  89 101
M  END
> <chiral flag>
0

> <version>
0

> <s_m_source_file>
/data/baiqing/PycharmProjects/Reinvent-master-3.2/result/LINK_invent/BTK/process_docking_weight1_custom_sum_contain_oxygen_bond_distance_aromatic_linkinvent_7_9_3/rearranged_h_0101.sdf

> <i_m_source_file_index>
32

> <r_mmod_Potential_Energy-OPLS-2005>
330.510559082031

> <r_mmod_Stretch_Energy-OPLS-2005>
170.09602355957

> <r_mmod_Bend_Energy-OPLS-2005>
276.443054199219

> <r_mmod_Torsional_Energy-OPLS-2005>
308.702667236328

> <r_mmod_Improper_Torsional_Energy-OPLS-2005>
14.4800157546997

> <r_mmod_Van_der_Waal_Energy-OPLS-2005>
143.539260864258

> <r_mmod_Electrostatic_Energy-OPLS-2005>
-260.531311035156

> <r_mmod_Solvation_Energy-OPLS-2005>
-451.951843261719

> <b_mmod_Minimization_Converged-OPLS-2005>
0

> <r_mmod_RMS_Derivative-OPLS-2005>
3.35123062133789

$$$$
32
                    3D
 Structure written by MMmdl.
166174  0  0  1  0            999 V2000
  -30.6724  -14.5619   20.5053 C   0  0  0  0  0  0
  -30.4236  -12.3419   19.4538 C   0  0  0  0  0  0
  -29.5037  -12.4970   18.2241 C   0  0  0  0  0  0
  -28.0248  -12.3513   18.6330 C   0  0  0  0  0  0
  -27.6552  -13.2165   19.8683 C   0  0  2  0  0  0
  -28.6979  -13.0615   20.9999 C   0  0  0  0  0  0
  -25.2559  -13.8175   20.5694 C   0  0  0  0  0  0
  -24.1824  -13.0437   20.9185 C   0  0  0  0  0  0
  -24.6393  -11.6910   20.8735 C   0  0  0  0  0  0
  -23.9066  -10.4291   21.0402 C   0  0  0  0  0  0
  -24.3619   -9.4210   21.9181 C   0  0  0  0  0  0
  -23.6293   -8.2248   22.0756 C   0  0  0  0  0  0
  -22.4276   -8.0285   21.3546 C   0  0  0  0  0  0
  -21.9913   -9.0257   20.4648 C   0  0  0  0  0  0
  -22.7240  -10.2134   20.3052 C   0  0  0  0  0  0
  -21.6852   -6.0740   22.5278 C   0  0  0  0  0  0
  -21.4017   -6.5643   23.8212 C   0  0  0  0  0  0
  -21.3657   -5.6794   24.9174 C   0  0  0  0  0  0
  -21.6045   -4.3058   24.7224 C   0  0  0  0  0  0
  -21.8815   -3.8150   23.4344 C   0  0  0  0  0  0
  -21.9195   -4.6967   22.3402 C   0  0  0  0  0  0
  -22.7846  -13.5229   21.1851 C   0  0  0  0  0  0
  -22.1660   -4.2152   21.0979 F   0  0  0  0  0  0
  -21.5628   -3.4538   25.7736 F   0  0  0  0  0  0
  -30.0214  -13.3642   20.4369 N   0  0  0  0  0  0
  -26.2996  -12.9361   20.3352 N   0  0  0  0  0  0
  -25.9323  -11.6512   20.5774 N   0  0  0  0  0  0
  -22.0494  -12.8223   22.0408 N   0  0  0  0  0  0
  -25.4255  -15.1897   20.4106 N   0  0  0  0  0  0
  -31.8324  -14.6946   20.1056 O   0  0  0  0  0  0
  -21.6644   -6.8884   21.4241 O   0  0  0  0  0  0
  -22.3531  -14.5532   20.6695 O   0  0  0  0  0  0
  -24.6183  -31.8642   23.2048 C   0  0  0  0  0  0
  -25.9059  -32.4802   23.8373 C   0  0  1  0  0  0
  -27.2270  -27.3743   20.1233 C   0  0  0  0  0  0
  -25.5905  -33.8605   24.2304 N   0  0  0  0  0  0
  -23.4105  -30.4855   21.5463 C   0  0  2  0  0  0
  -24.8582  -28.9405   20.1183 C   0  0  0  0  0  0
  -22.7437  -29.4632   22.4964 C   0  0  0  0  0  0
  -18.0279  -28.1381   22.8488 C   0  0  0  0  0  0
  -24.1487  -36.7313   23.2640 C   0  0  0  0  0  0
  -25.9442  -30.8092   21.3699 C   0  0  0  0  0  0
  -26.0190  -29.4354   20.7275 C   0  0  0  0  0  0
  -27.2079  -28.6586   20.7296 C   0  0  0  0  0  0
  -26.0605  -26.9234   19.4775 C   0  0  0  0  0  0
  -24.8761  -27.6848   19.4890 C   0  0  0  0  0  0
  -23.6231  -29.8155   20.1627 C   0  0  0  0  0  0
  -25.4100  -36.3100   24.0337 C   0  0  1  0  0  0
  -20.5872  -28.3668   23.1311 C   0  0  2  0  0  0
  -20.6764  -26.9403   22.5414 C   0  0  0  0  0  0
  -19.5739  -26.6376   21.5216 C   0  0  0  0  0  0
  -18.1918  -26.7929   22.1620 C   0  0  0  0  0  0
  -19.1532  -28.8843   23.2898 C   0  0  0  0  0  0
  -18.9456  -30.1463   23.8889 C   0  0  0  0  0  0
  -17.6458  -30.6585   24.0567 C   0  0  0  0  0  0
  -25.9036  -34.9468   23.5115 C   0  0  0  0  0  0
  -16.5349  -29.9082   23.6326 C   0  0  0  0  0  0
  -16.7268  -28.6502   23.0346 C   0  0  0  0  0  0
  -26.4465  -31.6597   25.0724 C   0  0  0  0  0  0
  -25.3728  -31.3724   26.1471 C   0  0  0  0  0  0
  -27.0303  -30.3033   24.6145 C   0  0  0  0  0  0
  -27.6030  -32.4329   25.7491 C   0  0  0  0  0  0
  -27.5574  -37.1806   24.8468 C   0  0  0  0  0  0
  -21.4157  -29.3036   22.3718 N   0  0  0  0  0  0
  -26.4281  -37.3794   23.9415 N   0  0  0  0  0  0
  -24.6762  -31.0705   22.0973 N   0  0  0  0  0  0
  -23.4191  -28.8168   23.3020 O   0  0  0  0  0  0
  -28.3730  -26.5994   20.0562 O   0  0  0  0  0  0
  -26.5609  -34.8926   22.4686 O   0  0  0  0  0  0
  -23.5357  -32.1406   23.7404 O   0  0  0  0  0  0
  -29.0483  -18.0622   22.4980 C   0  0  0  0  0  0
  -29.5312  -19.5428   20.9052 C   0  0  0  0  0  0
  -29.6194  -18.1918   21.2058 C   0  0  0  0  0  0
  -28.6665  -19.2939   22.9569 C   0  0  0  0  0  0
  -29.2078  -19.6370   25.3769 C   0  0  0  0  0  0
  -26.9637  -18.6833   24.7127 C   0  0  0  0  0  0
  -26.5574  -23.8369   21.0198 C   0  0  0  0  0  0
  -30.2374  -17.0461   20.3824 C   0  0  0  0  0  0
  -28.9273  -22.7742   21.0004 C   0  0  0  0  0  0
  -28.6890  -21.7036   22.1555 C   0  0  0  0  0  0
  -28.5361  -25.4838   20.9780 C   0  0  0  0  0  0
  -28.1017  -19.6323   24.3130 C   0  0  0  0  0  0
  -28.0266  -24.0330   20.5652 C   0  0  2  0  0  0
  -28.9514  -20.2432   21.9712 N   0  0  0  0  0  0
  -29.9162  -15.6513   20.7962 N   0  0  0  0  0  0
  -31.4701  -12.4353   19.1585 H   0  0  0  0  0  0
  -30.3250  -11.3456   19.8869 H   0  0  0  0  0  0
  -29.7569  -11.7528   17.4679 H   0  0  0  0  0  0
  -29.6645  -13.4723   17.7612 H   0  0  0  0  0  0
  -27.8477  -11.2982   18.8551 H   0  0  0  0  0  0
  -27.3747  -12.5978   17.7927 H   0  0  0  0  0  0
  -27.6798  -14.2542   19.5351 H   0  0  0  0  0  0
  -28.6874  -12.0451   21.3962 H   0  0  0  0  0  0
  -28.4608  -13.7143   21.8418 H   0  0  0  0  0  0
  -25.2760   -9.5691   22.4753 H   0  0  0  0  0  0
  -24.0003   -7.4644   22.7472 H   0  0  0  0  0  0
  -21.0846   -8.8772   19.8950 H   0  0  0  0  0  0
  -22.3696  -10.9675   19.6160 H   0  0  0  0  0  0
  -21.2006   -7.6150   23.9717 H   0  0  0  0  0  0
  -21.1484   -6.0525   25.9078 H   0  0  0  0  0  0
  -22.0596   -2.7611   23.2842 H   0  0  0  0  0  0
  -22.4118  -11.9891   22.4800 H   0  0  0  0  0  0
  -21.1105  -13.1240   22.2601 H   0  0  0  0  0  0
  -24.6584  -15.8429   20.5272 H   0  0  0  0  0  0
  -26.2767  -15.6350   20.0913 H   0  0  0  0  0  0
  -26.7130  -32.5481   23.1125 H   0  0  0  0  0  0
  -25.0075  -33.9767   25.0463 H   0  0  0  0  0  0
  -22.7023  -31.3042   21.4027 H   0  0  0  0  0  0
  -23.3742  -35.9653   23.3311 H   0  0  0  0  0  0
  -24.3583  -36.8922   22.2053 H   0  0  0  0  0  0
  -23.7247  -37.6524   23.6651 H   0  0  0  0  0  0
  -26.0689  -31.5675   20.5955 H   0  0  0  0  0  0
  -26.8288  -30.8639   21.9916 H   0  0  0  0  0  0
  -28.1059  -29.0395   21.1945 H   0  0  0  0  0  0
  -26.0697  -25.9778   18.9540 H   0  0  0  0  0  0
  -23.9905  -27.3040   18.9988 H   0  0  0  0  0  0
  -23.7389  -30.5897   19.4039 H   0  0  0  0  0  0
  -22.7464  -29.2392   19.8631 H   0  0  0  0  0  0
  -25.1285  -36.1960   25.0830 H   0  0  0  0  0  0
  -20.9977  -28.3228   24.1428 H   0  0  0  0  0  0
  -20.5688  -26.2267   23.3598 H   0  0  0  0  0  0
  -21.6625  -26.7432   22.1195 H   0  0  0  0  0  0
  -19.6905  -25.6287   21.1242 H   0  0  0  0  0  0
  -19.6686  -27.3193   20.6755 H   0  0  0  0  0  0
  -17.4191  -26.6695   21.4024 H   0  0  0  0  0  0
  -18.0300  -26.0074   22.9016 H   0  0  0  0  0  0
  -19.7939  -30.7283   24.2239 H   0  0  0  0  0  0
  -17.5012  -31.6264   24.5173 H   0  0  0  0  0  0
  -15.5355  -30.2976   23.7660 H   0  0  0  0  0  0
  -15.8664  -28.0826   22.7037 H   0  0  0  0  0  0
  -24.5893  -30.7077   25.7825 H   0  0  0  0  0  0
  -24.8928  -32.2888   26.4916 H   0  0  0  0  0  0
  -25.8078  -30.8894   27.0227 H   0  0  0  0  0  0
  -26.2857  -29.6798   24.1184 H   0  0  0  0  0  0
  -27.4061  -29.7258   25.4610 H   0  0  0  0  0  0
  -27.8705  -30.4359   23.9316 H   0  0  0  0  0  0
  -27.2638  -33.3623   26.2073 H   0  0  0  0  0  0
  -28.3834  -32.6909   25.0317 H   0  0  0  0  0  0
  -28.0715  -31.8452   26.5401 H   0  0  0  0  0  0
  -28.2593  -38.0101   24.7498 H   0  0  0  0  0  0
  -28.1064  -36.2629   24.6299 H   0  0  0  0  0  0
  -27.2302  -37.1468   25.8877 H   0  0  0  0  0  0
  -20.9327  -29.8771   21.6946 H   0  0  0  0  0  0
  -26.0173  -38.2876   24.1407 H   0  0  0  0  0  0
  -28.9636  -17.1461   23.0669 H   0  0  0  0  0  0
  -29.8547  -20.0816   20.0235 H   0  0  0  0  0  0
  -29.9818  -20.3644   25.1299 H   0  0  0  0  0  0
  -29.6863  -18.6598   25.4557 H   0  0  0  0  0  0
  -28.8157  -19.8971   26.3610 H   0  0  0  0  0  0
  -26.1538  -18.7205   23.9834 H   0  0  0  0  0  0
  -26.5424  -18.9600   25.6800 H   0  0  0  0  0  0
  -27.3006  -17.6490   24.7824 H   0  0  0  0  0  0
  -26.1245  -22.9228   20.6141 H   0  0  0  0  0  0
  -25.9091  -24.6496   20.7097 H   0  0  0  0  0  0
  -26.4851  -23.7834   22.1070 H   0  0  0  0  0  0
  -31.3187  -17.1940   20.3911 H   0  0  0  0  0  0
  -29.9258  -17.1678   19.3436 H   0  0  0  0  0  0
  -28.9025  -23.3892   21.8951 H   0  0  0  0  0  0
  -28.2258  -22.1617   20.4333 H   0  0  0  0  0  0
  -27.6440  -21.7793   22.4624 H   0  0  0  0  0  0
  -29.2705  -21.9558   23.0515 H   0  0  0  0  0  0
  -29.6151  -25.4213   21.1220 H   0  0  0  0  0  0
  -28.1416  -25.7600   21.9579 H   0  0  0  0  0  0
  -27.6670  -20.6295   24.3089 H   0  0  0  0  0  0
  -28.0286  -24.0348   19.4734 H   0  0  0  0  0  0
  -28.9729  -15.4795   21.1067 H   0  0  0  0  0  0
  1 25  1  0  0  0
  1 30  2  0  0  0
  1 85  1  0  0  0
  2  3  1  0  0  0
  2 25  1  0  0  0
  2 86  1  0  0  0
  2 87  1  0  0  0
  3  4  1  0  0  0
  3 88  1  0  0  0
  3 89  1  0  0  0
  4  5  1  0  0  0
  4 90  1  0  0  0
  4 91  1  0  0  0
  5  6  1  0  0  0
  5 26  1  0  0  0
  5 92  1  0  0  0
  6 25  1  0  0  0
  6 93  1  0  0  0
  6 94  1  0  0  0
  7  8  2  0  0  0
  7 26  1  0  0  0
  7 29  1  0  0  0
  8  9  1  0  0  0
  8 22  1  0  0  0
  9 10  1  0  0  0
  9 27  2  0  0  0
 10 11  2  0  0  0
 10 15  1  0  0  0
 11 12  1  0  0  0
 11 95  1  0  0  0
 12 13  2  0  0  0
 12 96  1  0  0  0
 13 14  1  0  0  0
 13 31  1  0  0  0
 14 15  2  0  0  0
 14 97  1  0  0  0
 15 98  1  0  0  0
 16 17  2  0  0  0
 16 21  1  0  0  0
 16 31  1  0  0  0
 17 18  1  0  0  0
 17 99  1  0  0  0
 18 19  2  0  0  0
 18100  1  0  0  0
 19 20  1  0  0  0
 19 24  1  0  0  0
 20 21  2  0  0  0
 20101  1  0  0  0
 21 23  1  0  0  0
 22 28  1  0  0  0
 22 32  2  0  0  0
 26 27  1  0  0  0
 28102  1  0  0  0
 28103  1  0  0  0
 29104  1  0  0  0
 29105  1  0  0  0
 33 34  1  0  0  0
 33 66  1  0  0  0
 33 70  2  0  0  0
 34 36  1  0  0  0
 34 59  1  0  0  0
 34106  1  0  0  0
 35 44  2  0  0  0
 35 45  1  0  0  0
 35 68  1  0  0  0
 36 56  1  0  0  0
 36107  1  0  0  0
 37 39  1  0  0  0
 37 47  1  0  0  0
 37 66  1  0  0  0
 37108  1  0  0  0
 38 43  2  0  0  0
 38 46  1  0  0  0
 38 47  1  0  0  0
 39 64  1  0  0  0
 39 67  2  0  0  0
 40 52  1  0  0  0
 40 53  2  0  0  0
 40 58  1  0  0  0
 41109  1  0  0  0
 41110  1  0  0  0
 41111  1  0  0  0
 41 48  1  0  0  0
 42 43  1  0  0  0
 42 66  1  0  0  0
 42112  1  0  0  0
 42113  1  0  0  0
 43 44  1  0  0  0
 44114  1  0  0  0
 45 46  2  0  0  0
 45115  1  0  0  0
 46116  1  0  0  0
 47117  1  0  0  0
 47118  1  0  0  0
 48 56  1  0  0  0
 48 65  1  0  0  0
 48119  1  0  0  0
 49 50  1  0  0  0
 49 53  1  0  0  0
 49 64  1  0  0  0
 49120  1  0  0  0
 50 51  1  0  0  0
 50121  1  0  0  0
 50122  1  0  0  0
 51 52  1  0  0  0
 51123  1  0  0  0
 51124  1  0  0  0
 52125  1  0  0  0
 52126  1  0  0  0
 53 54  1  0  0  0
 54 55  2  0  0  0
 54127  1  0  0  0
 55 57  1  0  0  0
 55128  1  0  0  0
 56 69  2  0  0  0
 57 58  2  0  0  0
 57129  1  0  0  0
 58130  1  0  0  0
 59 60  1  0  0  0
 59 61  1  0  0  0
 59 62  1  0  0  0
 60131  1  0  0  0
 60132  1  0  0  0
 60133  1  0  0  0
 61134  1  0  0  0
 61135  1  0  0  0
 61136  1  0  0  0
 62137  1  0  0  0
 62138  1  0  0  0
 62139  1  0  0  0
 63 65  1  0  0  0
 63140  1  0  0  0
 63141  1  0  0  0
 63142  1  0  0  0
 64143  1  0  0  0
 65144  1  0  0  0
 68 81  1  0  0  0
 71 73  1  0  0  0
 71 74  2  0  0  0
 71145  1  0  0  0
 72 73  2  0  0  0
 72 84  1  0  0  0
 72146  1  0  0  0
 73 78  1  0  0  0
 74 82  1  0  0  0
 74 84  1  0  0  0
 75147  1  0  0  0
 75148  1  0  0  0
 75149  1  0  0  0
 75 82  1  0  0  0
 76 82  1  0  0  0
 76150  1  0  0  0
 76151  1  0  0  0
 76152  1  0  0  0
 77153  1  0  0  0
 77154  1  0  0  0
 77155  1  0  0  0
 77 83  1  0  0  0
 78 85  1  0  0  0
 78156  1  0  0  0
 78157  1  0  0  0
 79 80  1  0  0  0
 79 83  1  0  0  0
 79158  1  0  0  0
 79159  1  0  0  0
 80 84  1  0  0  0
 80160  1  0  0  0
 80161  1  0  0  0
 81 83  1  0  0  0
 81162  1  0  0  0
 81163  1  0  0  0
 82164  1  0  0  0
 83165  1  0  0  0
 85166  1  0  0  0
M  ISO  4   1 100  68 101  81 101  85 100
M  END
> <chiral flag>
0

> <version>
0

> <s_m_source_file>
/data/baiqing/PycharmProjects/Reinvent-master-3.2/result/LINK_invent/BTK/process_docking_weight1_custom_sum_contain_oxygen_bond_distance_aromatic_linkinvent_7_9_3/rearranged_h_0101.sdf

> <i_m_source_file_index>
33

> <r_mmod_Potential_Energy-OPLS-2005>
222.981552124023

> <r_mmod_Stretch_Energy-OPLS-2005>
62.8379058837891

> <r_mmod_Bend_Energy-OPLS-2005>
362.7841796875

> <r_mmod_Torsional_Energy-OPLS-2005>
264.409088134766

> <r_mmod_Improper_Torsional_Energy-OPLS-2005>
6.70674610137939

> <r_mmod_Van_der_Waal_Energy-OPLS-2005>
138.34782409668

> <r_mmod_Electrostatic_Energy-OPLS-2005>
-438.579467773438

> <r_mmod_Solvation_Energy-OPLS-2005>
-199.549301147461

> <b_mmod_Minimization_Converged-OPLS-2005>
0

> <r_mmod_RMS_Derivative-OPLS-2005>
1.55014169216156

$$$$
33
                    3D
 Structure written by MMmdl.
177185  0  0  1  0            999 V2000
  -29.4922  -16.5173   20.6411 C   0  0  0  0  0  0
  -30.2196  -13.8310   19.7266 C   0  0  0  0  0  0
  -29.5658  -13.0061   18.5291 C   0  0  0  0  0  0
  -28.2180  -12.3911   18.9129 C   0  0  0  0  0  0
  -27.5215  -13.3794   19.8548 C   0  0  2  0  0  0
  -28.3711  -13.9414   21.0249 C   0  0  0  0  0  0
  -25.1715  -13.8170   20.5628 C   0  0  0  0  0  0
  -24.1327  -13.0264   20.9300 C   0  0  0  0  0  0
  -24.6220  -11.6851   20.8782 C   0  0  0  0  0  0
  -23.9037  -10.4195   21.0410 C   0  0  0  0  0  0
  -24.3626   -9.4147   21.9192 C   0  0  0  0  0  0
  -23.6292   -8.2196   22.0762 C   0  0  0  0  0  0
  -22.4281   -8.0236   21.3541 C   0  0  0  0  0  0
  -21.9896   -9.0199   20.4655 C   0  0  0  0  0  0
  -22.7221  -10.2060   20.3050 C   0  0  0  0  0  0
  -21.6850   -6.0720   22.5283 C   0  0  0  0  0  0
  -21.4011   -6.5627   23.8214 C   0  0  0  0  0  0
  -21.3652   -5.6781   24.9176 C   0  0  0  0  0  0
  -21.6044   -4.3044   24.7230 C   0  0  0  0  0  0
  -21.8823   -3.8135   23.4352 C   0  0  0  0  0  0
  -21.9194   -4.6950   22.3407 C   0  0  0  0  0  0
  -22.7387  -13.4997   21.1977 C   0  0  0  0  0  0
  -22.1664   -4.2133   21.0986 F   0  0  0  0  0  0
  -21.5627   -3.4535   25.7746 F   0  0  0  0  0  0
  -29.3182  -14.9561   20.4624 N   0  0  0  0  0  0
  -26.2238  -12.9667   20.3173 N   0  0  0  0  0  0
  -25.9167  -11.6690   20.5670 N   0  0  0  0  0  0
  -22.0130  -12.8001   22.0595 N   0  0  0  0  0  0
  -25.2932  -15.1844   20.3744 N   0  0  0  0  0  0
  -30.7371  -16.4788   20.3312 O   0  0  0  0  0  0
  -21.6631   -6.8858   21.4243 O   0  0  0  0  0  0
  -22.3074  -14.5315   20.6834 O   0  0  0  0  0  0
  -24.6076  -31.6350   23.2943 C   0  0  0  0  0  0
  -25.8698  -32.3832   23.8828 C   0  0  1  0  0  0
  -28.5140  -27.0660   19.3092 C   0  0  0  0  0  0
  -25.5292  -33.7973   24.1944 N   0  0  0  0  0  0
  -23.2649  -29.7701   21.7983 C   0  0  2  0  0  0
  -24.9161  -27.6146   19.7343 C   0  0  0  0  0  0
  -22.5332  -29.2362   22.8789 C   0  0  0  0  0  0
  -17.9412  -28.1298   22.8501 C   0  0  0  0  0  0
  -24.1476  -36.6955   23.2643 C   0  0  0  0  0  0
  -26.3685  -30.2942   21.9896 C   0  0  0  0  0  0
  -26.8649  -28.9941   20.9333 C   0  0  0  0  0  0
  -28.4133  -28.4222   20.4938 C   0  0  0  0  0  0
  -27.1554  -26.0808   18.5661 C   0  0  0  0  0  0
  -25.4537  -26.4035   18.7616 C   0  0  0  0  0  0
  -23.1963  -28.3169   20.3667 C   0  0  0  0  0  0
  -25.4105  -36.2679   24.0269 C   0  0  1  0  0  0
  -20.4297  -28.2472   23.2998 C   0  0  2  0  0  0
  -20.5490  -26.8487   22.6599 C   0  0  0  0  0  0
  -19.5241  -26.6248   21.5513 C   0  0  0  0  0  0
  -18.1127  -26.8014   22.1256 C   0  0  0  0  0  0
  -19.0472  -28.8390   23.3590 C   0  0  0  0  0  0
  -18.8775  -30.1133   23.9421 C   0  0  0  0  0  0
  -17.5900  -30.6633   24.0626 C   0  0  0  0  0  0
  -25.8949  -34.8912   23.5031 C   0  0  0  0  0  0
  -16.4778  -29.9322   23.6101 C   0  0  0  0  0  0
  -16.6538  -28.6750   23.0033 C   0  0  0  0  0  0
  -26.4235  -31.6732   25.1896 C   0  0  0  0  0  0
  -25.3145  -31.4649   26.2420 C   0  0  0  0  0  0
  -27.0381  -30.2679   24.9979 C   0  0  0  0  0  0
  -27.5706  -32.5118   25.7996 C   0  0  0  0  0  0
  -27.5518  -37.1572   24.8477 C   0  0  0  0  0  0
  -21.2584  -29.1558   22.6019 N   0  0  0  0  0  0
  -26.4288  -37.3393   23.9327 N   0  0  0  0  0  0
  -24.7377  -30.5389   22.4703 N   0  0  0  0  0  0
  -23.1336  -28.7453   23.8289 O   0  0  0  0  0  0
  -29.0990  -27.5666   18.3297 O   0  0  0  0  0  0
  -26.5849  -34.8410   22.4854 O   0  0  0  0  0  0
  -23.5006  -32.0589   23.6448 O   0  0  0  0  0  0
  -26.7629  -26.7994   20.7191 C   0  0  0  0  0  0
  -25.8565  -29.6336   18.8364 C   0  0  0  0  0  0
  -26.7940  -28.3723   18.8111 C   0  0  0  0  0  0
  -26.1429  -27.0319   22.0553 C   0  0  0  0  0  0
  -24.9485  -29.7767   20.1645 C   0  0  0  0  0  0
  -25.0321  -27.9729   21.8900 C   0  0  0  0  0  0
  -26.8674  -26.7784   23.3859 C   0  0  0  0  0  0
  -24.2564  -31.1650   19.8194 C   0  0  0  0  0  0
  -25.6191  -19.0776   22.6424 C   0  0  0  0  0  0
  -27.6000  -18.4182   24.1966 C   0  0  0  0  0  0
  -27.4732  -22.0775   23.0018 C   0  0  0  0  0  0
  -25.0088  -25.6838   21.8054 C   0  0  0  0  0  0
  -28.0162  -28.3841   17.8025 C   0  0  0  0  0  0
  -27.4124  -17.3366   21.8258 C   0  0  0  0  0  0
  -27.9261  -20.0146   20.8727 C   0  0  0  0  0  0
  -26.6971  -18.0399   23.0091 C   0  0  0  0  0  0
  -26.8591  -22.0141   21.5958 C   0  0  2  0  0  0
  -28.4753  -17.9669   21.0019 N   0  0  0  0  0  0
  -26.1810  -23.9864   21.4541 N   0  3  0  0  0  0
  -31.0973  -14.3236   19.3060 H   0  0  0  0  0  0
  -30.6528  -13.1513   20.4640 H   0  0  0  0  0  0
  -30.2527  -12.2384   18.1713 H   0  0  0  0  0  0
  -29.4092  -13.6906   17.6930 H   0  0  0  0  0  0
  -28.3809  -11.4468   19.4321 H   0  0  0  0  0  0
  -27.6095  -12.1800   18.0317 H   0  0  0  0  0  0
  -27.3179  -14.2279   19.1983 H   0  0  0  0  0  0
  -28.8380  -13.1615   21.6274 H   0  0  0  0  0  0
  -27.7150  -14.4535   21.7226 H   0  0  0  0  0  0
  -25.2770   -9.5651   22.4771 H   0  0  0  0  0  0
  -24.0003   -7.4592   22.7477 H   0  0  0  0  0  0
  -21.0828   -8.8722   19.8971 H   0  0  0  0  0  0
  -22.3678  -10.9614   19.6172 H   0  0  0  0  0  0
  -21.2004   -7.6137   23.9708 H   0  0  0  0  0  0
  -21.1467   -6.0518   25.9075 H   0  0  0  0  0  0
  -22.0611   -2.7598   23.2857 H   0  0  0  0  0  0
  -22.3821  -11.9679   22.4952 H   0  0  0  0  0  0
  -21.0758  -13.1005   22.2889 H   0  0  0  0  0  0
  -24.5126  -15.8187   20.5025 H   0  0  0  0  0  0
  -26.1156  -15.6337   19.9979 H   0  0  0  0  0  0
  -26.6734  -32.4378   23.1598 H   0  0  0  0  0  0
  -24.9162  -33.9295   24.9807 H   0  0  0  0  0  0
  -22.6248  -30.5938   21.4726 H   0  0  0  0  0  0
  -23.3731  -35.9299   23.3327 H   0  0  0  0  0  0
  -24.3531  -36.8548   22.2055 H   0  0  0  0  0  0
  -23.7257  -37.6164   23.6664 H   0  0  0  0  0  0
  -26.6324  -31.1825   21.4101 H   0  0  0  0  0  0
  -27.1356  -30.2884   22.7134 H   0  0  0  0  0  0
  -29.2960  -28.9829   20.7665 H   0  0  0  0  0  0
  -27.4229  -25.3521   17.8159 H   0  0  0  0  0  0
  -24.7380  -25.7907   18.2334 H   0  0  0  0  0  0
  -22.6479  -28.6992   19.5056 H   0  0  0  0  0  0
  -22.6063  -27.4712   20.6991 H   0  0  0  0  0  0
  -25.1323  -36.1547   25.0757 H   0  0  0  0  0  0
  -20.7568  -28.1713   24.3399 H   0  0  0  0  0  0
  -20.3454  -26.1170   23.4434 H   0  0  0  0  0  0
  -21.5613  -26.6140   22.3357 H   0  0  0  0  0  0
  -19.6286  -25.6246   21.1295 H   0  0  0  0  0  0
  -19.6950  -27.3317   20.7370 H   0  0  0  0  0  0
  -17.3808  -26.7378   21.3199 H   0  0  0  0  0  0
  -17.8808  -25.9946   22.8243 H   0  0  0  0  0  0
  -19.7308  -30.6661   24.3125 H   0  0  0  0  0  0
  -17.4546  -31.6377   24.5107 H   0  0  0  0  0  0
  -15.4843  -30.3459   23.7143 H   0  0  0  0  0  0
  -15.7920  -28.1442   22.6242 H   0  0  0  0  0  0
  -24.5586  -30.7483   25.9137 H   0  0  0  0  0  0
  -24.7990  -32.3975   26.4711 H   0  0  0  0  0  0
  -25.7098  -31.0882   27.1873 H   0  0  0  0  0  0
  -26.3528  -29.5551   24.5368 H   0  0  0  0  0  0
  -27.2620  -29.8296   25.9704 H   0  0  0  0  0  0
  -28.0112  -30.2775   24.5060 H   0  0  0  0  0  0
  -27.2229  -33.4790   26.1649 H   0  0  0  0  0  0
  -28.3553  -32.7032   25.0658 H   0  0  0  0  0  0
  -28.0347  -32.0118   26.6519 H   0  0  0  0  0  0
  -28.2594  -37.9812   24.7426 H   0  0  0  0  0  0
  -28.0953  -36.2328   24.6474 H   0  0  0  0  0  0
  -27.2184  -37.1391   25.8869 H   0  0  0  0  0  0
  -20.8877  -29.5806   21.7638 H   0  0  0  0  0  0
  -26.0142  -38.2483   24.1185 H   0  0  0  0  0  0
  -27.4745  -26.0029   20.9208 H   0  0  0  0  0  0
  -25.9032  -30.3674   18.0448 H   0  0  0  0  0  0
  -27.5759  -27.5905   23.5725 H   0  0  0  0  0  0
  -27.4473  -25.8552   23.3601 H   0  0  0  0  0  0
  -26.1739  -26.7362   24.2280 H   0  0  0  0  0  0
  -24.8848  -31.7816   19.1779 H   0  0  0  0  0  0
  -24.0384  -31.8783   20.6111 H   0  0  0  0  0  0
  -23.3428  -30.9913   19.2509 H   0  0  0  0  0  0
  -24.6295  -18.7325   22.9446 H   0  0  0  0  0  0
  -25.5614  -19.2603   21.5692 H   0  0  0  0  0  0
  -25.7817  -20.0213   23.1556 H   0  0  0  0  0  0
  -27.0012  -18.7352   25.0540 H   0  0  0  0  0  0
  -28.3041  -19.2121   23.9621 H   0  0  0  0  0  0
  -28.1784  -17.5544   24.5291 H   0  0  0  0  0  0
  -28.0853  -21.2019   23.2013 H   0  0  0  0  0  0
  -26.7084  -22.1524   23.7744 H   0  0  0  0  0  0
  -28.1432  -22.9339   23.0979 H   0  0  0  0  0  0
  -24.1468  -25.4884   21.1645 H   0  0  0  0  0  0
  -24.5807  -25.4208   22.7816 H   0  0  0  0  0  0
  -28.3768  -29.4080   17.6835 H   0  0  0  0  0  0
  -27.7082  -28.0305   16.8155 H   0  0  0  0  0  0
  -27.8191  -16.4560   22.3201 H   0  0  0  0  0  0
  -26.6621  -16.9991   21.1276 H   0  0  0  0  0  0
  -27.5180  -19.9621   19.8623 H   0  0  0  0  0  0
  -28.9311  -20.3967   20.7041 H   0  0  0  0  0  0
  -26.0947  -17.2299   23.4268 H   0  0  0  0  0  0
  -27.5805  -22.4375   20.8944 H   0  0  0  0  0  0
  -27.0697  -24.4305   21.6146 H   0  0  0  0  0  0
  -25.7489  -23.7264   22.3304 H   0  0  0  0  0  0
  1 25  1  0  0  0
  1 30  2  0  0  0
  1 88  1  0  0  0
  2  3  1  0  0  0
  2 25  1  0  0  0
  2 90  1  0  0  0
  2 91  1  0  0  0
  3  4  1  0  0  0
  3 92  1  0  0  0
  3 93  1  0  0  0
  4  5  1  0  0  0
  4 94  1  0  0  0
  4 95  1  0  0  0
  5  6  1  0  0  0
  5 26  1  0  0  0
  5 96  1  0  0  0
  6 25  1  0  0  0
  6 97  1  0  0  0
  6 98  1  0  0  0
  7  8  2  0  0  0
  7 26  1  0  0  0
  7 29  1  0  0  0
  8  9  1  0  0  0
  8 22  1  0  0  0
  9 10  1  0  0  0
  9 27  2  0  0  0
 10 11  2  0  0  0
 10 15  1  0  0  0
 11 12  1  0  0  0
 11 99  1  0  0  0
 12 13  2  0  0  0
 12100  1  0  0  0
 13 14  1  0  0  0
 13 31  1  0  0  0
 14 15  2  0  0  0
 14101  1  0  0  0
 15102  1  0  0  0
 16 17  2  0  0  0
 16 21  1  0  0  0
 16 31  1  0  0  0
 17 18  1  0  0  0
 17103  1  0  0  0
 18 19  2  0  0  0
 18104  1  0  0  0
 19 20  1  0  0  0
 19 24  1  0  0  0
 20 21  2  0  0  0
 20105  1  0  0  0
 21 23  1  0  0  0
 22 28  1  0  0  0
 22 32  2  0  0  0
 26 27  1  0  0  0
 28106  1  0  0  0
 28107  1  0  0  0
 29108  1  0  0  0
 29109  1  0  0  0
 33 34  1  0  0  0
 33 66  1  0  0  0
 33 70  2  0  0  0
 34 36  1  0  0  0
 34 59  1  0  0  0
 34110  1  0  0  0
 35 44  2  0  0  0
 35 45  1  0  0  0
 35 68  1  0  0  0
 36 56  1  0  0  0
 36111  1  0  0  0
 37 39  1  0  0  0
 37 47  1  0  0  0
 37 66  1  0  0  0
 37112  1  0  0  0
 38 43  2  0  0  0
 38 46  1  0  0  0
 38 47  1  0  0  0
 39 64  1  0  0  0
 39 67  2  0  0  0
 40 52  1  0  0  0
 40 53  2  0  0  0
 40 58  1  0  0  0
 41113  1  0  0  0
 41114  1  0  0  0
 41115  1  0  0  0
 41 48  1  0  0  0
 42 43  1  0  0  0
 42 66  1  0  0  0
 42116  1  0  0  0
 42117  1  0  0  0
 43 44  1  0  0  0
 44118  1  0  0  0
 45 46  2  0  0  0
 45119  1  0  0  0
 46120  1  0  0  0
 47121  1  0  0  0
 47122  1  0  0  0
 48 56  1  0  0  0
 48 65  1  0  0  0
 48123  1  0  0  0
 49 50  1  0  0  0
 49 53  1  0  0  0
 49 64  1  0  0  0
 49124  1  0  0  0
 50 51  1  0  0  0
 50125  1  0  0  0
 50126  1  0  0  0
 51 52  1  0  0  0
 51127  1  0  0  0
 51128  1  0  0  0
 52129  1  0  0  0
 52130  1  0  0  0
 53 54  1  0  0  0
 54 55  2  0  0  0
 54131  1  0  0  0
 55 57  1  0  0  0
 55132  1  0  0  0
 56 69  2  0  0  0
 57 58  2  0  0  0
 57133  1  0  0  0
 58134  1  0  0  0
 59 60  1  0  0  0
 59 61  1  0  0  0
 59 62  1  0  0  0
 60135  1  0  0  0
 60136  1  0  0  0
 60137  1  0  0  0
 61138  1  0  0  0
 61139  1  0  0  0
 61140  1  0  0  0
 62141  1  0  0  0
 62142  1  0  0  0
 62143  1  0  0  0
 63 65  1  0  0  0
 63144  1  0  0  0
 63145  1  0  0  0
 63146  1  0  0  0
 64147  1  0  0  0
 65148  1  0  0  0
 68 83  1  0  0  0
 71 73  2  0  0  0
 71 74  1  0  0  0
 71149  1  0  0  0
 72 73  1  0  0  0
 72 75  2  0  0  0
 72150  1  0  0  0
 73 83  1  0  0  0
 74 76  2  0  0  0
 74 77  1  0  0  0
 75 76  1  0  0  0
 75 78  1  0  0  0
 76 82  1  0  0  0
 77151  1  0  0  0
 77152  1  0  0  0
 77153  1  0  0  0
 78154  1  0  0  0
 78155  1  0  0  0
 78156  1  0  0  0
 79157  1  0  0  0
 79158  1  0  0  0
 79159  1  0  0  0
 79 86  1  0  0  0
 80 86  1  0  0  0
 80160  1  0  0  0
 80161  1  0  0  0
 80162  1  0  0  0
 81163  1  0  0  0
 81164  1  0  0  0
 81165  1  0  0  0
 81 87  1  0  0  0
 82 89  1  0  0  0
 82166  1  0  0  0
 82167  1  0  0  0
 83168  1  0  0  0
 83169  1  0  0  0
 84 86  1  0  0  0
 84 88  1  0  0  0
 84170  1  0  0  0
 84171  1  0  0  0
 85 87  1  0  0  0
 85 88  1  0  0  0
 85172  1  0  0  0
 85173  1  0  0  0
 86174  1  0  0  0
 87 89  1  0  0  0
 87175  1  0  0  0
 89176  1  0  0  0
 89177  1  0  0  0
M  CHG  1  89   1
M  ISO  4   1 100  68 101  83 101  88 100
M  END
> <chiral flag>
0

> <version>
0

> <s_m_source_file>
/data/baiqing/PycharmProjects/Reinvent-master-3.2/result/LINK_invent/BTK/process_docking_weight1_custom_sum_contain_oxygen_bond_distance_aromatic_linkinvent_7_9_3/rearranged_h_0101.sdf

> <i_m_source_file_index>
34

> <r_mmod_Potential_Energy-OPLS-2005>
25900.748046875

> <r_mmod_Stretch_Energy-OPLS-2005>
14277.400390625

> <r_mmod_Bend_Energy-OPLS-2005>
2216.39013671875

> <r_mmod_Torsional_Energy-OPLS-2005>
647.057189941406

> <r_mmod_Improper_Torsional_Energy-OPLS-2005>
65.2503814697266

> <r_mmod_Van_der_Waal_Energy-OPLS-2005>
5286.3701171875

> <r_mmod_Electrostatic_Energy-OPLS-2005>
-235.532241821289

> <r_mmod_Solvation_Energy-OPLS-2005>
-438.205230712891

> <b_mmod_Minimization_Converged-OPLS-2005>
0

> <r_mmod_RMS_Derivative-OPLS-2005>
15.7326126098633

$$$$
34
                    3D
 Structure written by MMmdl.
155162  0  0  1  0            999 V2000
  -30.6393  -14.6729   20.4840 C   0  0  0  0  0  0
  -30.4389  -12.4170   19.4508 C   0  0  0  0  0  0
  -29.5061  -12.4923   18.2226 C   0  0  0  0  0  0
  -28.0345  -12.3185   18.6448 C   0  0  0  0  0  0
  -27.6486  -13.2164   19.8504 C   0  0  2  0  0  0
  -28.6965  -13.1200   20.9797 C   0  0  0  0  0  0
  -25.2552  -13.8166   20.5647 C   0  0  0  0  0  0
  -24.1820  -13.0435   20.9175 C   0  0  0  0  0  0
  -24.6382  -11.6900   20.8731 C   0  0  0  0  0  0
  -23.9056  -10.4282   21.0407 C   0  0  0  0  0  0
  -24.3611   -9.4196   21.9184 C   0  0  0  0  0  0
  -23.6283   -8.2239   22.0756 C   0  0  0  0  0  0
  -22.4275   -8.0270   21.3545 C   0  0  0  0  0  0
  -21.9911   -9.0238   20.4650 C   0  0  0  0  0  0
  -22.7232  -10.2117   20.3047 C   0  0  0  0  0  0
  -21.6847   -6.0715   22.5269 C   0  0  0  0  0  0
  -21.4008   -6.5624   23.8196 C   0  0  0  0  0  0
  -21.3663   -5.6788   24.9163 C   0  0  0  0  0  0
  -21.6055   -4.3051   24.7230 C   0  0  0  0  0  0
  -21.8820   -3.8129   23.4351 C   0  0  0  0  0  0
  -21.9191   -4.6941   22.3397 C   0  0  0  0  0  0
  -22.7842  -13.5224   21.1857 C   0  0  0  0  0  0
  -22.1656   -4.2118   21.0981 F   0  0  0  0  0  0
  -21.5642   -3.4547   25.7752 F   0  0  0  0  0  0
  -30.0028  -13.4615   20.3970 N   0  0  0  0  0  0
  -26.2971  -12.9344   20.3276 N   0  0  0  0  0  0
  -25.9316  -11.6503   20.5758 N   0  0  0  0  0  0
  -22.0513  -12.8181   22.0417 N   0  0  0  0  0  0
  -25.4297  -15.1887   20.4013 N   0  0  0  0  0  0
  -31.8294  -14.7930   20.1869 O   0  0  0  0  0  0
  -21.6637   -6.8864   21.4235 O   0  0  0  0  0  0
  -22.3515  -14.5533   20.6723 O   0  0  0  0  0  0
  -24.6292  -31.8593   23.2021 C   0  0  0  0  0  0
  -25.9117  -32.4775   23.8365 C   0  0  1  0  0  0
  -27.2279  -27.3003   20.1044 C   0  0  0  0  0  0
  -25.5928  -33.8573   24.2271 N   0  0  0  0  0  0
  -23.4229  -30.4886   21.5450 C   0  0  2  0  0  0
  -24.8717  -28.9437   20.1113 C   0  0  0  0  0  0
  -22.7480  -29.4636   22.4884 C   0  0  0  0  0  0
  -18.0295  -28.1410   22.8483 C   0  0  0  0  0  0
  -24.1483  -36.7287   23.2642 C   0  0  0  0  0  0
  -25.9682  -30.7883   21.3728 C   0  0  0  0  0  0
  -26.0450  -29.4129   20.7138 C   0  0  0  0  0  0
  -27.2257  -28.6030   20.6987 C   0  0  0  0  0  0
  -26.0242  -26.8939   19.4809 C   0  0  0  0  0  0
  -24.8637  -27.6898   19.4887 C   0  0  0  0  0  0
  -23.6398  -29.8270   20.1601 C   0  0  0  0  0  0
  -25.4108  -36.3075   24.0324 C   0  0  1  0  0  0
  -20.5904  -28.3710   23.1270 C   0  0  2  0  0  0
  -20.6773  -26.9421   22.5409 C   0  0  0  0  0  0
  -19.5746  -26.6403   21.5214 C   0  0  0  0  0  0
  -18.1924  -26.7956   22.1627 C   0  0  0  0  0  0
  -19.1553  -28.8868   23.2885 C   0  0  0  0  0  0
  -18.9478  -30.1462   23.8909 C   0  0  0  0  0  0
  -17.6483  -30.6608   24.0567 C   0  0  0  0  0  0
  -25.9054  -34.9445   23.5088 C   0  0  0  0  0  0
  -16.5375  -29.9102   23.6344 C   0  0  0  0  0  0
  -16.7280  -28.6533   23.0345 C   0  0  0  0  0  0
  -26.4508  -31.6579   25.0730 C   0  0  0  0  0  0
  -25.3716  -31.3689   26.1432 C   0  0  0  0  0  0
  -27.0363  -30.3022   24.6143 C   0  0  0  0  0  0
  -27.6086  -32.4308   25.7489 C   0  0  0  0  0  0
  -27.5566  -37.1787   24.8464 C   0  0  0  0  0  0
  -21.4185  -29.3068   22.3644 N   0  0  0  0  0  0
  -26.4282  -37.3765   23.9405 N   0  0  0  0  0  0
  -24.6936  -31.0589   22.0991 N   0  0  0  0  0  0
  -23.4194  -28.8136   23.2933 O   0  0  0  0  0  0
  -28.3442  -26.4332   20.1301 O   0  0  0  0  0  0
  -26.5619  -34.8911   22.4656 O   0  0  0  0  0  0
  -23.5444  -32.1397   23.7330 O   0  0  0  0  0  0
  -31.2030  -21.5146   20.1664 C   0  0  0  0  0  0
  -29.8219  -18.4456   20.1743 C   0  0  0  0  0  0
  -29.2579  -23.8646   20.1459 C   0  0  0  0  0  0
  -30.2291  -17.1985   21.1007 C   0  0  0  0  0  0
  -29.5103  -19.8535   20.8935 C   0  0  0  0  0  0
  -28.8549  -22.3486   20.5268 C   0  0  0  0  0  0
  -28.0910  -24.9610   20.1663 C   0  0  0  0  0  0
  -29.8559  -15.7772   20.7273 N   0  0  0  0  0  0
  -29.7609  -21.1671   20.1427 N   0  3  1  0  0  0
  -31.4791  -12.5467   19.1467 H   0  0  0  0  0  0
  -30.3833  -11.4339   19.9217 H   0  0  0  0  0  0
  -29.7798  -11.7240   17.4987 H   0  0  0  0  0  0
  -29.6342  -13.4496   17.7161 H   0  0  0  0  0  0
  -27.8960  -11.2694   18.9077 H   0  0  0  0  0  0
  -27.3715  -12.5090   17.8004 H   0  0  0  0  0  0
  -27.6529  -14.2402   19.4783 H   0  0  0  0  0  0
  -28.7249  -12.1130   21.3964 H   0  0  0  0  0  0
  -28.4395  -13.7810   21.8087 H   0  0  0  0  0  0
  -25.2758   -9.5659   22.4750 H   0  0  0  0  0  0
  -23.9980   -7.4631   22.7475 H   0  0  0  0  0  0
  -21.0843   -8.8737   19.8959 H   0  0  0  0  0  0
  -22.3685  -10.9637   19.6142 H   0  0  0  0  0  0
  -21.1985   -7.6134   23.9678 H   0  0  0  0  0  0
  -21.1497   -6.0533   25.9064 H   0  0  0  0  0  0
  -22.0601   -2.7590   23.2863 H   0  0  0  0  0  0
  -22.4150  -11.9798   22.4695 H   0  0  0  0  0  0
  -21.1141  -13.1176   22.2703 H   0  0  0  0  0  0
  -24.6655  -15.8493   20.4923 H   0  0  0  0  0  0
  -26.2788  -15.6160   20.0531 H   0  0  0  0  0  0
  -26.7202  -32.5446   23.1139 H   0  0  0  0  0  0
  -25.0086  -33.9712   25.0427 H   0  0  0  0  0  0
  -22.7208  -31.3115   21.3965 H   0  0  0  0  0  0
  -23.3751  -35.9613   23.3316 H   0  0  0  0  0  0
  -24.3589  -36.8901   22.2061 H   0  0  0  0  0  0
  -23.7253  -37.6495   23.6669 H   0  0  0  0  0  0
  -26.0886  -31.5509   20.6018 H   0  0  0  0  0  0
  -26.8534  -30.8491   21.9947 H   0  0  0  0  0  0
  -28.1277  -28.9547   21.1808 H   0  0  0  0  0  0
  -25.9364  -25.9499   18.9718 H   0  0  0  0  0  0
  -23.9647  -27.3235   19.0141 H   0  0  0  0  0  0
  -23.7595  -30.6053   19.4062 H   0  0  0  0  0  0
  -22.7595  -29.2585   19.8541 H   0  0  0  0  0  0
  -25.1287  -36.1925   25.0816 H   0  0  0  0  0  0
  -21.0026  -28.3303   24.1381 H   0  0  0  0  0  0
  -20.5697  -26.2298   23.3605 H   0  0  0  0  0  0
  -21.6627  -26.7452   22.1174 H   0  0  0  0  0  0
  -19.6913  -25.6313   21.1238 H   0  0  0  0  0  0
  -19.6707  -27.3205   20.6741 H   0  0  0  0  0  0
  -17.4195  -26.6737   21.4025 H   0  0  0  0  0  0
  -18.0307  -26.0081   22.9008 H   0  0  0  0  0  0
  -19.7952  -30.7267   24.2282 H   0  0  0  0  0  0
  -17.5040  -31.6279   24.5164 H   0  0  0  0  0  0
  -15.5365  -30.3007   23.7666 H   0  0  0  0  0  0
  -15.8684  -28.0860   22.7044 H   0  0  0  0  0  0
  -24.5973  -30.6950   25.7756 H   0  0  0  0  0  0
  -24.8803  -32.2814   26.4813 H   0  0  0  0  0  0
  -25.8033  -30.8937   27.0246 H   0  0  0  0  0  0
  -26.2941  -29.6759   24.1190 H   0  0  0  0  0  0
  -27.4139  -29.7286   25.4612 H   0  0  0  0  0  0
  -27.8746  -30.4354   23.9307 H   0  0  0  0  0  0
  -27.2771  -33.3657   26.2016 H   0  0  0  0  0  0
  -28.3930  -32.6770   25.0322 H   0  0  0  0  0  0
  -28.0704  -31.8441   26.5440 H   0  0  0  0  0  0
  -28.2562  -38.0101   24.7515 H   0  0  0  0  0  0
  -28.1083  -36.2623   24.6292 H   0  0  0  0  0  0
  -27.2268  -37.1432   25.8862 H   0  0  0  0  0  0
  -20.9340  -29.8880   21.6940 H   0  0  0  0  0  0
  -26.0163  -38.2833   24.1447 H   0  0  0  0  0  0
  -31.8221  -20.6541   19.9098 H   0  0  0  0  0  0
  -31.5102  -21.8551   21.1552 H   0  0  0  0  0  0
  -31.4405  -22.3005   19.4495 H   0  0  0  0  0  0
  -28.9487  -18.1791   19.5762 H   0  0  0  0  0  0
  -30.6228  -18.5917   19.4505 H   0  0  0  0  0  0
  -29.6933  -23.8755   19.1465 H   0  0  0  0  0  0
  -30.0508  -24.1873   20.8211 H   0  0  0  0  0  0
  -29.7756  -17.3596   22.0791 H   0  0  0  0  0  0
  -31.3045  -17.2375   21.2875 H   0  0  0  0  0  0
  -30.0612  -19.8992   21.8352 H   0  0  0  0  0  0
  -28.4614  -19.8284   21.1901 H   0  0  0  0  0  0
  -27.8749  -22.1363   20.0971 H   0  0  0  0  0  0
  -28.7072  -22.3170   21.6068 H   0  0  0  0  0  0
  -27.4701  -24.7713   21.0447 H   0  0  0  0  0  0
  -27.4896  -24.6859   19.3050 H   0  0  0  0  0  0
  -28.8789  -15.5545   20.8403 H   0  0  0  0  0  0
  -29.5397  -20.9795   19.1751 H   0  0  0  0  0  0
  1 25  1  0  0  0
  1 30  2  0  0  0
  1 78  1  0  0  0
  2  3  1  0  0  0
  2 25  1  0  0  0
  2 80  1  0  0  0
  2 81  1  0  0  0
  3  4  1  0  0  0
  3 82  1  0  0  0
  3 83  1  0  0  0
  4  5  1  0  0  0
  4 84  1  0  0  0
  4 85  1  0  0  0
  5  6  1  0  0  0
  5 26  1  0  0  0
  5 86  1  0  0  0
  6 25  1  0  0  0
  6 87  1  0  0  0
  6 88  1  0  0  0
  7  8  2  0  0  0
  7 26  1  0  0  0
  7 29  1  0  0  0
  8  9  1  0  0  0
  8 22  1  0  0  0
  9 10  1  0  0  0
  9 27  2  0  0  0
 10 11  2  0  0  0
 10 15  1  0  0  0
 11 12  1  0  0  0
 11 89  1  0  0  0
 12 13  2  0  0  0
 12 90  1  0  0  0
 13 14  1  0  0  0
 13 31  1  0  0  0
 14 15  2  0  0  0
 14 91  1  0  0  0
 15 92  1  0  0  0
 16 17  2  0  0  0
 16 21  1  0  0  0
 16 31  1  0  0  0
 17 18  1  0  0  0
 17 93  1  0  0  0
 18 19  2  0  0  0
 18 94  1  0  0  0
 19 20  1  0  0  0
 19 24  1  0  0  0
 20 21  2  0  0  0
 20 95  1  0  0  0
 21 23  1  0  0  0
 22 28  1  0  0  0
 22 32  2  0  0  0
 26 27  1  0  0  0
 28 96  1  0  0  0
 28 97  1  0  0  0
 29 98  1  0  0  0
 29 99  1  0  0  0
 33 34  1  0  0  0
 33 66  1  0  0  0
 33 70  2  0  0  0
 34 36  1  0  0  0
 34 59  1  0  0  0
 34100  1  0  0  0
 35 44  2  0  0  0
 35 45  1  0  0  0
 35 68  1  0  0  0
 36 56  1  0  0  0
 36101  1  0  0  0
 37 39  1  0  0  0
 37 47  1  0  0  0
 37 66  1  0  0  0
 37102  1  0  0  0
 38 43  2  0  0  0
 38 46  1  0  0  0
 38 47  1  0  0  0
 39 64  1  0  0  0
 39 67  2  0  0  0
 40 52  1  0  0  0
 40 53  2  0  0  0
 40 58  1  0  0  0
 41103  1  0  0  0
 41104  1  0  0  0
 41105  1  0  0  0
 41 48  1  0  0  0
 42 43  1  0  0  0
 42 66  1  0  0  0
 42106  1  0  0  0
 42107  1  0  0  0
 43 44  1  0  0  0
 44108  1  0  0  0
 45 46  2  0  0  0
 45109  1  0  0  0
 46110  1  0  0  0
 47111  1  0  0  0
 47112  1  0  0  0
 48 56  1  0  0  0
 48 65  1  0  0  0
 48113  1  0  0  0
 49 50  1  0  0  0
 49 53  1  0  0  0
 49 64  1  0  0  0
 49114  1  0  0  0
 50 51  1  0  0  0
 50115  1  0  0  0
 50116  1  0  0  0
 51 52  1  0  0  0
 51117  1  0  0  0
 51118  1  0  0  0
 52119  1  0  0  0
 52120  1  0  0  0
 53 54  1  0  0  0
 54 55  2  0  0  0
 54121  1  0  0  0
 55 57  1  0  0  0
 55122  1  0  0  0
 56 69  2  0  0  0
 57 58  2  0  0  0
 57123  1  0  0  0
 58124  1  0  0  0
 59 60  1  0  0  0
 59 61  1  0  0  0
 59 62  1  0  0  0
 60125  1  0  0  0
 60126  1  0  0  0
 60127  1  0  0  0
 61128  1  0  0  0
 61129  1  0  0  0
 61130  1  0  0  0
 62131  1  0  0  0
 62132  1  0  0  0
 62133  1  0  0  0
 63 65  1  0  0  0
 63134  1  0  0  0
 63135  1  0  0  0
 63136  1  0  0  0
 64137  1  0  0  0
 65138  1  0  0  0
 68 77  1  0  0  0
 71139  1  0  0  0
 71140  1  0  0  0
 71141  1  0  0  0
 71 79  1  0  0  0
 72 74  1  0  0  0
 72 75  1  0  0  0
 72142  1  0  0  0
 72143  1  0  0  0
 73 76  1  0  0  0
 73 77  1  0  0  0
 73144  1  0  0  0
 73145  1  0  0  0
 74 78  1  0  0  0
 74146  1  0  0  0
 74147  1  0  0  0
 75 79  1  0  0  0
 75148  1  0  0  0
 75149  1  0  0  0
 76 79  1  0  0  0
 76150  1  0  0  0
 76151  1  0  0  0
 77152  1  0  0  0
 77153  1  0  0  0
 78154  1  0  0  0
 79155  1  0  0  0
M  CHG  1  79   1
M  ISO  4   1 100  68 101  77 101  78 100
M  END
> <chiral flag>
0

> <version>
0

> <s_m_source_file>
/data/baiqing/PycharmProjects/Reinvent-master-3.2/result/LINK_invent/BTK/process_docking_weight1_custom_sum_contain_oxygen_bond_distance_aromatic_linkinvent_7_9_3/rearranged_h_0101.sdf

> <i_m_source_file_index>
35

> <r_mmod_Potential_Energy-OPLS-2005>
-10.5999460220337

> <r_mmod_Stretch_Energy-OPLS-2005>
100.678665161133

> <r_mmod_Bend_Energy-OPLS-2005>
156.520233154297

> <r_mmod_Torsional_Energy-OPLS-2005>
233.494720458984

> <r_mmod_Improper_Torsional_Energy-OPLS-2005>
4.34607315063477

> <r_mmod_Van_der_Waal_Energy-OPLS-2005>
126.595008850098

> <r_mmod_Electrostatic_Energy-OPLS-2005>
-229.011428833008

> <r_mmod_Solvation_Energy-OPLS-2005>
-463.714080810547

> <b_mmod_Minimization_Converged-OPLS-2005>
0

> <r_mmod_RMS_Derivative-OPLS-2005>
3.06623601913452

$$$$
35
                    3D
 Structure written by MMmdl.
158165  0  0  1  0            999 V2000
  -30.4445  -15.2527   20.3767 C   0  0  0  0  0  0
  -30.4433  -12.8044   19.5090 C   0  0  0  0  0  0
  -29.5321  -12.5719   18.2775 C   0  0  0  0  0  0
  -28.0817  -12.2976   18.7107 C   0  0  0  0  0  0
  -27.6138  -13.2705   19.8207 C   0  0  2  0  0  0
  -28.6538  -13.4410   20.9478 C   0  0  0  0  0  0
  -25.2425  -13.8237   20.5762 C   0  0  0  0  0  0
  -24.1762  -13.0435   20.9253 C   0  0  0  0  0  0
  -24.6408  -11.6929   20.8751 C   0  0  0  0  0  0
  -23.9099  -10.4287   21.0399 C   0  0  0  0  0  0
  -24.3638   -9.4196   21.9185 C   0  0  0  0  0  0
  -23.6299   -8.2238   22.0769 C   0  0  0  0  0  0
  -22.4277   -8.0284   21.3559 C   0  0  0  0  0  0
  -21.9923   -9.0258   20.4655 C   0  0  0  0  0  0
  -22.7264  -10.2130   20.3051 C   0  0  0  0  0  0
  -21.6860   -6.0734   22.5282 C   0  0  0  0  0  0
  -21.4016   -6.5638   23.8214 C   0  0  0  0  0  0
  -21.3657   -5.6797   24.9177 C   0  0  0  0  0  0
  -21.6045   -4.3060   24.7234 C   0  0  0  0  0  0
  -21.8823   -3.8149   23.4356 C   0  0  0  0  0  0
  -21.9197   -4.6960   22.3408 C   0  0  0  0  0  0
  -22.7781  -13.5196   21.1889 C   0  0  0  0  0  0
  -22.1670   -4.2146   21.0987 F   0  0  0  0  0  0
  -21.5621   -3.4548   25.7745 F   0  0  0  0  0  0
  -29.8801  -13.9496   20.3116 N   0  0  0  0  0  0
  -26.2841  -12.9500   20.3225 N   0  0  0  0  0  0
  -25.9344  -11.6613   20.5715 N   0  0  0  0  0  0
  -22.0442  -12.8174   22.0439 N   0  0  0  0  0  0
  -25.4075  -15.1973   20.4209 N   0  0  0  0  0  0
  -31.6728  -15.2578   20.2133 O   0  0  0  0  0  0
  -21.6649   -6.8870   21.4242 O   0  0  0  0  0  0
  -22.3456  -14.5496   20.6719 O   0  0  0  0  0  0
  -24.6626  -31.8256   23.1696 C   0  0  0  0  0  0
  -25.9311  -32.4596   23.8161 C   0  0  1  0  0  0
  -27.2194  -26.9325   20.1930 C   0  0  0  0  0  0
  -25.5980  -33.8414   24.2073 N   0  0  0  0  0  0
  -23.4736  -30.4374   21.5221 C   0  0  2  0  0  0
  -24.9250  -28.8193   20.1238 C   0  0  0  0  0  0
  -22.7649  -29.4465   22.4807 C   0  0  0  0  0  0
  -18.0314  -28.1404   22.8479 C   0  0  0  0  0  0
  -24.1485  -36.7209   23.2645 C   0  0  0  0  0  0
  -26.0438  -30.6358   21.3956 C   0  0  0  0  0  0
  -26.1127  -29.2240   20.7466 C   0  0  0  0  0  0
  -27.2574  -28.3061   20.7469 C   0  0  0  0  0  0
  -25.9964  -26.6758   19.5348 C   0  0  0  0  0  0
  -24.8914  -27.5640   19.4980 C   0  0  0  0  0  0
  -23.7111  -29.7476   20.1514 C   0  0  0  0  0  0
  -25.4130  -36.2975   24.0296 C   0  0  1  0  0  0
  -20.5935  -28.3757   23.1196 C   0  0  2  0  0  0
  -20.6797  -26.9437   22.5412 C   0  0  0  0  0  0
  -19.5770  -26.6381   21.5222 C   0  0  0  0  0  0
  -18.1946  -26.7940   22.1620 C   0  0  0  0  0  0
  -19.1569  -28.8899   23.2823 C   0  0  0  0  0  0
  -18.9484  -30.1496   23.8848 C   0  0  0  0  0  0
  -17.6480  -30.6604   24.0556 C   0  0  0  0  0  0
  -25.9111  -34.9358   23.5009 C   0  0  0  0  0  0
  -16.5377  -29.9089   23.6345 C   0  0  0  0  0  0
  -16.7298  -28.6504   23.0374 C   0  0  0  0  0  0
  -26.4559  -31.6531   25.0684 C   0  0  0  0  0  0
  -25.3686  -31.3799   26.1340 C   0  0  0  0  0  0
  -27.0461  -30.2897   24.6415 C   0  0  0  0  0  0
  -27.6035  -32.4356   25.7501 C   0  0  0  0  0  0
  -27.5570  -37.1759   24.8463 C   0  0  0  0  0  0
  -21.4319  -29.3054   22.3552 N   0  0  0  0  0  0
  -26.4273  -37.3714   23.9417 N   0  0  0  0  0  0
  -24.7481  -30.9934   22.0824 N   0  0  0  0  0  0
  -23.4209  -28.8035   23.3039 O   0  0  0  0  0  0
  -28.2556  -25.8586   20.1712 O   0  0  0  0  0  0
  -26.5716  -34.8892   22.4606 O   0  0  0  0  0  0
  -23.5700  -32.1213   23.6817 O   0  0  0  0  0  0
  -26.7052  -23.2766   18.2224 C   0  0  0  0  0  0
  -28.7018  -22.0551   17.3537 C   0  0  0  0  0  0
  -28.6088  -21.2436   22.0223 C   0  0  0  0  0  0
  -29.8987  -18.1593   20.6463 C   0  0  0  0  0  0
  -29.0146  -19.6294   20.0840 C   0  0  0  0  0  0
  -28.1525  -24.2518   20.5652 C   0  0  0  0  0  0
  -27.8166  -22.2841   18.5937 C   0  0  0  0  0  0
  -28.6599  -22.6531   19.8579 C   0  0  2  0  0  0
  -29.6661  -16.5148   20.4282 N   0  0  0  0  0  0
  -29.0873  -21.2169   20.6245 N   0  3  1  0  0  0
  -31.4583  -13.0182   19.1717 H   0  0  0  0  0  0
  -30.5194  -11.9003   20.1165 H   0  0  0  0  0  0
  -29.9040  -11.7435   17.6730 H   0  0  0  0  0  0
  -29.5594  -13.4564   17.6390 H   0  0  0  0  0  0
  -28.0362  -11.2710   19.0791 H   0  0  0  0  0  0
  -27.4110  -12.3472   17.8519 H   0  0  0  0  0  0
  -27.5269  -14.2374   19.3234 H   0  0  0  0  0  0
  -28.8294  -12.5046   21.4803 H   0  0  0  0  0  0
  -28.2985  -14.1581   21.6887 H   0  0  0  0  0  0
  -25.2780   -9.5669   22.4760 H   0  0  0  0  0  0
  -24.0009   -7.4628   22.7492 H   0  0  0  0  0  0
  -21.0862   -8.8782   19.8944 H   0  0  0  0  0  0
  -22.3734  -10.9675   19.6159 H   0  0  0  0  0  0
  -21.2005   -7.6146   23.9710 H   0  0  0  0  0  0
  -21.1475   -6.0530   25.9077 H   0  0  0  0  0  0
  -22.0596   -2.7608   23.2868 H   0  0  0  0  0  0
  -22.4103  -11.9850   22.4820 H   0  0  0  0  0  0
  -21.1044  -13.1167   22.2619 H   0  0  0  0  0  0
  -24.6396  -15.8484   20.5399 H   0  0  0  0  0  0
  -26.2434  -15.6375   20.0622 H   0  0  0  0  0  0
  -26.7383  -32.5129   23.0880 H   0  0  0  0  0  0
  -25.0081  -33.9503   25.0189 H   0  0  0  0  0  0
  -22.7855  -31.2678   21.3510 H   0  0  0  0  0  0
  -23.3766  -35.9518   23.3263 H   0  0  0  0  0  0
  -24.3557  -36.8905   22.2067 H   0  0  0  0  0  0
  -23.7215  -37.6374   23.6732 H   0  0  0  0  0  0
  -26.2205  -31.3748   20.6128 H   0  0  0  0  0  0
  -26.9050  -30.6962   22.0487 H   0  0  0  0  0  0
  -28.1639  -28.6303   21.2386 H   0  0  0  0  0  0
  -25.8635  -25.7236   19.0502 H   0  0  0  0  0  0
  -23.9892  -27.2432   18.9962 H   0  0  0  0  0  0
  -23.8622  -30.5129   19.3893 H   0  0  0  0  0  0
  -22.8191  -29.2011   19.8380 H   0  0  0  0  0  0
  -25.1324  -36.1770   25.0785 H   0  0  0  0  0  0
  -21.0020  -28.3375   24.1319 H   0  0  0  0  0  0
  -20.5685  -26.2382   23.3657 H   0  0  0  0  0  0
  -21.6662  -26.7430   22.1210 H   0  0  0  0  0  0
  -19.6937  -25.6282   21.1279 H   0  0  0  0  0  0
  -19.6705  -27.3171   20.6733 H   0  0  0  0  0  0
  -17.4224  -26.6700   21.4012 H   0  0  0  0  0  0
  -18.0333  -26.0086   22.9016 H   0  0  0  0  0  0
  -19.7962  -30.7326   24.2185 H   0  0  0  0  0  0
  -17.5034  -31.6271   24.5180 H   0  0  0  0  0  0
  -15.5378  -30.2974   23.7697 H   0  0  0  0  0  0
  -15.8698  -28.0807   22.7124 H   0  0  0  0  0  0
  -24.5871  -30.7138   25.7662 H   0  0  0  0  0  0
  -24.8869  -32.3011   26.4629 H   0  0  0  0  0  0
  -25.7914  -30.9060   27.0204 H   0  0  0  0  0  0
  -26.3134  -29.6570   24.1390 H   0  0  0  0  0  0
  -27.3959  -29.7264   25.5074 H   0  0  0  0  0  0
  -27.9078  -30.4074   23.9843 H   0  0  0  0  0  0
  -27.2568  -33.3689   26.1951 H   0  0  0  0  0  0
  -28.3910  -32.6874   25.0387 H   0  0  0  0  0  0
  -28.0617  -31.8568   26.5528 H   0  0  0  0  0  0
  -28.2562  -38.0083   24.7539 H   0  0  0  0  0  0
  -28.1092  -36.2612   24.6249 H   0  0  0  0  0  0
  -27.2292  -37.1355   25.8868 H   0  0  0  0  0  0
  -20.9576  -29.8734   21.6668 H   0  0  0  0  0  0
  -26.0115  -38.2767   24.1448 H   0  0  0  0  0  0
  -26.1312  -22.9128   17.3693 H   0  0  0  0  0  0
  -27.1141  -24.2472   17.9396 H   0  0  0  0  0  0
  -25.9922  -23.4118   19.0355 H   0  0  0  0  0  0
  -28.1157  -21.6719   16.5173 H   0  0  0  0  0  0
  -29.5039  -21.3424   17.5375 H   0  0  0  0  0  0
  -29.1691  -22.9832   17.0231 H   0  0  0  0  0  0
  -29.0216  -20.4087   22.5890 H   0  0  0  0  0  0
  -27.5215  -21.1727   22.0618 H   0  0  0  0  0  0
  -28.9139  -22.1551   22.5344 H   0  0  0  0  0  0
  -29.9123  -18.2466   21.7324 H   0  0  0  0  0  0
  -30.9392  -18.3242   20.3636 H   0  0  0  0  0  0
  -27.9564  -19.3736   20.1279 H   0  0  0  0  0  0
  -29.2259  -19.6820   19.0190 H   0  0  0  0  0  0
  -28.7116  -24.2708   21.5004 H   0  0  0  0  0  0
  -27.1253  -24.1178   20.9042 H   0  0  0  0  0  0
  -27.2948  -21.3506   18.8029 H   0  0  0  0  0  0
  -29.6415  -22.9333   19.4737 H   0  0  0  0  0  0
  -28.6816  -16.2920   20.4384 H   0  0  0  0  0  0
  -30.0842  -21.3445   20.7248 H   0  0  0  0  0  0
  1 25  1  0  0  0
  1 30  2  0  0  0
  1 79  1  0  0  0
  2  3  1  0  0  0
  2 25  1  0  0  0
  2 81  1  0  0  0
  2 82  1  0  0  0
  3  4  1  0  0  0
  3 83  1  0  0  0
  3 84  1  0  0  0
  4  5  1  0  0  0
  4 85  1  0  0  0
  4 86  1  0  0  0
  5  6  1  0  0  0
  5 26  1  0  0  0
  5 87  1  0  0  0
  6 25  1  0  0  0
  6 88  1  0  0  0
  6 89  1  0  0  0
  7  8  2  0  0  0
  7 26  1  0  0  0
  7 29  1  0  0  0
  8  9  1  0  0  0
  8 22  1  0  0  0
  9 10  1  0  0  0
  9 27  2  0  0  0
 10 11  2  0  0  0
 10 15  1  0  0  0
 11 12  1  0  0  0
 11 90  1  0  0  0
 12 13  2  0  0  0
 12 91  1  0  0  0
 13 14  1  0  0  0
 13 31  1  0  0  0
 14 15  2  0  0  0
 14 92  1  0  0  0
 15 93  1  0  0  0
 16 17  2  0  0  0
 16 21  1  0  0  0
 16 31  1  0  0  0
 17 18  1  0  0  0
 17 94  1  0  0  0
 18 19  2  0  0  0
 18 95  1  0  0  0
 19 20  1  0  0  0
 19 24  1  0  0  0
 20 21  2  0  0  0
 20 96  1  0  0  0
 21 23  1  0  0  0
 22 28  1  0  0  0
 22 32  2  0  0  0
 26 27  1  0  0  0
 28 97  1  0  0  0
 28 98  1  0  0  0
 29 99  1  0  0  0
 29100  1  0  0  0
 33 34  1  0  0  0
 33 66  1  0  0  0
 33 70  2  0  0  0
 34 36  1  0  0  0
 34 59  1  0  0  0
 34101  1  0  0  0
 35 44  2  0  0  0
 35 45  1  0  0  0
 35 68  1  0  0  0
 36 56  1  0  0  0
 36102  1  0  0  0
 37 39  1  0  0  0
 37 47  1  0  0  0
 37 66  1  0  0  0
 37103  1  0  0  0
 38 43  2  0  0  0
 38 46  1  0  0  0
 38 47  1  0  0  0
 39 64  1  0  0  0
 39 67  2  0  0  0
 40 52  1  0  0  0
 40 53  2  0  0  0
 40 58  1  0  0  0
 41104  1  0  0  0
 41105  1  0  0  0
 41106  1  0  0  0
 41 48  1  0  0  0
 42 43  1  0  0  0
 42 66  1  0  0  0
 42107  1  0  0  0
 42108  1  0  0  0
 43 44  1  0  0  0
 44109  1  0  0  0
 45 46  2  0  0  0
 45110  1  0  0  0
 46111  1  0  0  0
 47112  1  0  0  0
 47113  1  0  0  0
 48 56  1  0  0  0
 48 65  1  0  0  0
 48114  1  0  0  0
 49 50  1  0  0  0
 49 53  1  0  0  0
 49 64  1  0  0  0
 49115  1  0  0  0
 50 51  1  0  0  0
 50116  1  0  0  0
 50117  1  0  0  0
 51 52  1  0  0  0
 51118  1  0  0  0
 51119  1  0  0  0
 52120  1  0  0  0
 52121  1  0  0  0
 53 54  1  0  0  0
 54 55  2  0  0  0
 54122  1  0  0  0
 55 57  1  0  0  0
 55123  1  0  0  0
 56 69  2  0  0  0
 57 58  2  0  0  0
 57124  1  0  0  0
 58125  1  0  0  0
 59 60  1  0  0  0
 59 61  1  0  0  0
 59 62  1  0  0  0
 60126  1  0  0  0
 60127  1  0  0  0
 60128  1  0  0  0
 61129  1  0  0  0
 61130  1  0  0  0
 61131  1  0  0  0
 62132  1  0  0  0
 62133  1  0  0  0
 62134  1  0  0  0
 63 65  1  0  0  0
 63135  1  0  0  0
 63136  1  0  0  0
 63137  1  0  0  0
 64138  1  0  0  0
 65139  1  0  0  0
 68 76  1  0  0  0
 71140  1  0  0  0
 71141  1  0  0  0
 71142  1  0  0  0
 71 77  1  0  0  0
 72 77  1  0  0  0
 72143  1  0  0  0
 72144  1  0  0  0
 72145  1  0  0  0
 73146  1  0  0  0
 73147  1  0  0  0
 73148  1  0  0  0
 73 80  1  0  0  0
 74 75  1  0  0  0
 74 79  1  0  0  0
 74149  1  0  0  0
 74150  1  0  0  0
 75 80  1  0  0  0
 75151  1  0  0  0
 75152  1  0  0  0
 76153  1  0  0  0
 76154  1  0  0  0
 76 78  1  0  0  0
 77 78  1  0  0  0
 77155  1  0  0  0
 78 80  1  0  0  0
 78156  1  0  0  0
 79157  1  0  0  0
 80158  1  0  0  0
M  CHG  1  80   1
M  ISO  4   1 100  68 101  76 101  79 100
M  END
> <chiral flag>
0

> <version>
0

> <s_m_source_file>
/data/baiqing/PycharmProjects/Reinvent-master-3.2/result/LINK_invent/BTK/process_docking_weight1_custom_sum_contain_oxygen_bond_distance_aromatic_linkinvent_7_9_3/rearranged_h_0101.sdf

> <i_m_source_file_index>
36

> <r_mmod_Potential_Energy-OPLS-2005>
1247.47094726562

> <r_mmod_Stretch_Energy-OPLS-2005>
626.487365722656

> <r_mmod_Bend_Energy-OPLS-2005>
466.786468505859

> <r_mmod_Torsional_Energy-OPLS-2005>
267.708831787109

> <r_mmod_Improper_Torsional_Energy-OPLS-2005>
4.08983707427979

> <r_mmod_Van_der_Waal_Energy-OPLS-2005>
109.635108947754

> <r_mmod_Electrostatic_Energy-OPLS-2005>
-215.849182128906

> <r_mmod_Solvation_Energy-OPLS-2005>
-450.327362060547

> <b_mmod_Minimization_Converged-OPLS-2005>
0

> <r_mmod_RMS_Derivative-OPLS-2005>
1.77326786518097

$$$$
36
                    3D
 Structure written by MMmdl.
161168  0  0  1  0            999 V2000
  -30.5344  -15.0083   20.4284 C   0  0  0  0  0  0
  -30.4544  -12.6389   19.4690 C   0  0  0  0  0  0
  -29.5146  -12.5170   18.2447 C   0  0  0  0  0  0
  -28.0605  -12.2429   18.6808 C   0  0  0  0  0  0
  -27.6316  -13.1664   19.8415 C   0  0  2  0  0  0
  -28.7031  -13.1885   20.9686 C   0  0  0  0  0  0
  -25.2407  -13.7886   20.5649 C   0  0  0  0  0  0
  -24.1718  -13.0216   20.9260 C   0  0  0  0  0  0
  -24.6309  -11.6716   20.8819 C   0  0  0  0  0  0
  -23.8980  -10.4169   21.0463 C   0  0  0  0  0  0
  -24.3554   -9.4104   21.9226 C   0  0  0  0  0  0
  -23.6251   -8.2136   22.0753 C   0  0  0  0  0  0
  -22.4239   -8.0211   21.3524 C   0  0  0  0  0  0
  -21.9861   -9.0182   20.4640 C   0  0  0  0  0  0
  -22.7177  -10.2060   20.3084 C   0  0  0  0  0  0
  -21.6809   -6.0710   22.5263 C   0  0  0  0  0  0
  -21.3978   -6.5619   23.8194 C   0  0  0  0  0  0
  -21.3656   -5.6776   24.9166 C   0  0  0  0  0  0
  -21.6047   -4.3036   24.7205 C   0  0  0  0  0  0
  -21.8822   -3.8129   23.4323 C   0  0  0  0  0  0
  -21.9177   -4.6949   22.3388 C   0  0  0  0  0  0
  -22.7774  -13.5096   21.1932 C   0  0  0  0  0  0
  -22.1658   -4.2151   21.0968 F   0  0  0  0  0  0
  -21.5644   -3.4515   25.7712 F   0  0  0  0  0  0
  -29.9301  -13.7322   20.3524 N   0  0  0  0  0  0
  -26.2858  -12.9035   20.3298 N   0  0  0  0  0  0
  -25.9226  -11.6241   20.5836 N   0  0  0  0  0  0
  -22.0417  -12.8123   22.0511 N   0  0  0  0  0  0
  -25.3709  -15.1567   20.3924 N   0  0  0  0  0  0
  -31.7456  -15.0014   20.1769 O   0  0  0  0  0  0
  -21.6591   -6.8829   21.4215 O   0  0  0  0  0  0
  -22.3473  -14.5399   20.6763 O   0  0  0  0  0  0
  -24.6390  -31.8474   23.1888 C   0  0  0  0  0  0
  -25.9190  -32.4699   23.8257 C   0  0  1  0  0  0
  -27.2395  -27.1802   20.1351 C   0  0  0  0  0  0
  -25.5971  -33.8502   24.2180 N   0  0  0  0  0  0
  -23.4390  -30.4654   21.5351 C   0  0  2  0  0  0
  -24.8916  -28.8951   20.1103 C   0  0  0  0  0  0
  -22.7536  -29.4571   22.4883 C   0  0  0  0  0  0
  -18.0315  -28.1388   22.8478 C   0  0  0  0  0  0
  -24.1503  -36.7238   23.2638 C   0  0  0  0  0  0
  -25.9932  -30.7301   21.3866 C   0  0  0  0  0  0
  -26.0674  -29.3475   20.7235 C   0  0  0  0  0  0
  -27.2388  -28.5063   20.7182 C   0  0  0  0  0  0
  -26.0308  -26.8146   19.4984 C   0  0  0  0  0  0
  -24.8840  -27.6386   19.4866 C   0  0  0  0  0  0
  -23.6626  -29.7885   20.1555 C   0  0  0  0  0  0
  -25.4137  -36.3018   24.0309 C   0  0  1  0  0  0
  -20.5920  -28.3717   23.1252 C   0  0  2  0  0  0
  -20.6809  -26.9429   22.5414 C   0  0  0  0  0  0
  -19.5789  -26.6374   21.5217 C   0  0  0  0  0  0
  -18.1958  -26.7928   22.1622 C   0  0  0  0  0  0
  -19.1567  -28.8868   23.2851 C   0  0  0  0  0  0
  -18.9484  -30.1464   23.8878 C   0  0  0  0  0  0
  -17.6484  -30.6589   24.0555 C   0  0  0  0  0  0
  -25.9093  -34.9404   23.5049 C   0  0  0  0  0  0
  -16.5372  -29.9076   23.6340 C   0  0  0  0  0  0
  -16.7298  -28.6496   23.0362 C   0  0  0  0  0  0
  -26.4514  -31.6562   25.0698 C   0  0  0  0  0  0
  -25.3702  -31.3749   26.1394 C   0  0  0  0  0  0
  -27.0388  -30.2958   24.6285 C   0  0  0  0  0  0
  -27.6035  -32.4332   25.7494 C   0  0  0  0  0  0
  -27.5576  -37.1773   24.8463 C   0  0  0  0  0  0
  -21.4238  -29.3035   22.3620 N   0  0  0  0  0  0
  -26.4291  -37.3736   23.9402 N   0  0  0  0  0  0
  -24.7093  -31.0356   22.0916 N   0  0  0  0  0  0
  -23.4184  -28.8144   23.3050 O   0  0  0  0  0  0
  -28.3308  -26.2433   20.1826 O   0  0  0  0  0  0
  -26.5662  -34.8901   22.4622 O   0  0  0  0  0  0
  -23.5525  -32.1355   23.7143 O   0  0  0  0  0  0
  -27.9334  -16.9834   22.0686 C   0  0  0  0  0  0
  -27.6496  -16.9147   19.4228 C   0  0  0  0  0  0
  -31.6894  -17.9696   21.1499 C   0  0  0  0  0  0
  -29.2346  -23.4958   20.2282 C   0  0  0  0  0  0
  -28.8398  -21.8712   20.3523 C   0  0  0  0  0  0
  -29.4463  -19.2039   20.6252 C   0  0  0  0  0  0
  -28.1012  -24.7186   20.0809 C   0  0  0  0  0  0
  -28.3685  -16.3993   20.7043 C   0  0  0  0  0  0
  -30.3789  -17.7932   20.3615 C   0  0  2  0  0  0
  -29.8336  -16.2897   20.5437 N   0  0  0  0  0  0
  -29.8789  -20.6804   20.2933 N   0  3  0  0  0  0
  -31.4713  -12.8307   19.1246 H   0  0  0  0  0  0
  -30.5152  -11.6887   20.0030 H   0  0  0  0  0  0
  -29.8651  -11.7253   17.5778 H   0  0  0  0  0  0
  -29.5566  -13.4410   17.6666 H   0  0  0  0  0  0
  -27.9906  -11.1987   18.9889 H   0  0  0  0  0  0
  -27.3804  -12.3544   17.8365 H   0  0  0  0  0  0
  -27.5786  -14.1218   19.3390 H   0  0  0  0  0  0
  -28.8600  -12.1769   21.3481 H   0  0  0  0  0  0
  -28.4058  -13.7483   21.8550 H   0  0  0  0  0  0
  -25.2685   -9.5556   22.4818 H   0  0  0  0  0  0
  -23.9955   -7.4485   22.7434 H   0  0  0  0  0  0
  -21.0800   -8.8673   19.8931 H   0  0  0  0  0  0
  -22.3639  -10.9605   19.6198 H   0  0  0  0  0  0
  -21.1954   -7.6125   23.9687 H   0  0  0  0  0  0
  -21.1496   -6.0516   25.9069 H   0  0  0  0  0  0
  -22.0623   -2.7600   23.2805 H   0  0  0  0  0  0
  -22.4024  -11.9797   22.4922 H   0  0  0  0  0  0
  -21.1025  -13.1134   22.2672 H   0  0  0  0  0  0
  -24.5686  -15.7712   20.4757 H   0  0  0  0  0  0
  -26.1970  -15.6267   20.0431 H   0  0  0  0  0  0
  -26.7246  -32.5306   23.0974 H   0  0  0  0  0  0
  -25.0107  -33.9620   25.0311 H   0  0  0  0  0  0
  -22.7399  -31.2903   21.3810 H   0  0  0  0  0  0
  -23.3778  -35.9555   23.3296 H   0  0  0  0  0  0
  -24.3577  -36.8884   22.2049 H   0  0  0  0  0  0
  -23.7249  -37.6428   23.6689 H   0  0  0  0  0  0
  -26.1556  -31.4921   20.6230 H   0  0  0  0  0  0
  -26.8575  -30.7671   22.0372 H   0  0  0  0  0  0
  -28.1339  -28.8522   21.2151 H   0  0  0  0  0  0
  -25.9372  -25.8566   19.0116 H   0  0  0  0  0  0
  -23.9848  -27.2817   19.0019 H   0  0  0  0  0  0
  -23.7829  -30.5596   19.3946 H   0  0  0  0  0  0
  -22.7794  -29.2210   19.8558 H   0  0  0  0  0  0
  -25.1326  -36.1829   25.0797 H   0  0  0  0  0  0
  -20.9999  -28.3304   24.1377 H   0  0  0  0  0  0
  -20.5740  -26.2315   23.3620 H   0  0  0  0  0  0
  -21.6672  -26.7467   22.1190 H   0  0  0  0  0  0
  -19.6962  -25.6273   21.1266 H   0  0  0  0  0  0
  -19.6732  -27.3170   20.6730 H   0  0  0  0  0  0
  -17.4235  -26.6676   21.4013 H   0  0  0  0  0  0
  -18.0366  -26.0063   22.9016 H   0  0  0  0  0  0
  -19.7956  -30.7291   24.2225 H   0  0  0  0  0  0
  -17.5039  -31.6275   24.5148 H   0  0  0  0  0  0
  -15.5377  -30.2976   23.7673 H   0  0  0  0  0  0
  -15.8697  -28.0807   22.7092 H   0  0  0  0  0  0
  -24.5866  -30.7129   25.7686 H   0  0  0  0  0  0
  -24.8925  -32.2952   26.4777 H   0  0  0  0  0  0
  -25.7978  -30.8918   27.0194 H   0  0  0  0  0  0
  -26.3009  -29.6679   24.1285 H   0  0  0  0  0  0
  -27.3990  -29.7251   25.4856 H   0  0  0  0  0  0
  -27.8922  -30.4186   23.9613 H   0  0  0  0  0  0
  -27.2600  -33.3627   26.2047 H   0  0  0  0  0  0
  -28.3866  -32.6910   25.0348 H   0  0  0  0  0  0
  -28.0697  -31.8494   26.5447 H   0  0  0  0  0  0
  -28.2571  -38.0084   24.7518 H   0  0  0  0  0  0
  -28.1095  -36.2616   24.6287 H   0  0  0  0  0  0
  -27.2296  -37.1408   25.8865 H   0  0  0  0  0  0
  -20.9453  -29.8670   21.6734 H   0  0  0  0  0  0
  -26.0159  -38.2802   24.1413 H   0  0  0  0  0  0
  -27.2136  -16.3279   22.5648 H   0  0  0  0  0  0
  -27.4425  -17.9505   21.9857 H   0  0  0  0  0  0
  -28.7760  -17.0787   22.7551 H   0  0  0  0  0  0
  -26.7337  -17.4571   19.6627 H   0  0  0  0  0  0
  -27.3743  -16.1103   18.7464 H   0  0  0  0  0  0
  -28.2609  -17.5598   18.7951 H   0  0  0  0  0  0
  -32.0884  -18.9777   21.0375 H   0  0  0  0  0  0
  -32.4730  -17.2976   20.8062 H   0  0  0  0  0  0
  -31.5317  -17.7916   22.2140 H   0  0  0  0  0  0
  -29.9081  -23.5941   19.3759 H   0  0  0  0  0  0
  -29.8488  -23.7381   21.0950 H   0  0  0  0  0  0
  -28.1024  -21.6640   19.5774 H   0  0  0  0  0  0
  -28.3001  -21.7627   21.2930 H   0  0  0  0  0  0
  -29.2144  -19.2442   21.6883 H   0  0  0  0  0  0
  -28.4815  -19.1388   20.1385 H   0  0  0  0  0  0
  -27.3074  -24.4936   20.7940 H   0  0  0  0  0  0
  -27.6570  -24.5538   19.0995 H   0  0  0  0  0  0
  -27.9436  -15.4388   20.8358 H   0  0  0  0  0  0
  -30.6515  -17.8289   19.3071 H   0  0  0  0  0  0
  -30.6312  -20.9076   20.9215 H   0  0  0  0  0  0
  -30.2667  -20.6793   19.3627 H   0  0  0  0  0  0
  1 25  1  0  0  0
  1 30  2  0  0  0
  1 80  1  0  0  0
  2  3  1  0  0  0
  2 25  1  0  0  0
  2 82  1  0  0  0
  2 83  1  0  0  0
  3  4  1  0  0  0
  3 84  1  0  0  0
  3 85  1  0  0  0
  4  5  1  0  0  0
  4 86  1  0  0  0
  4 87  1  0  0  0
  5  6  1  0  0  0
  5 26  1  0  0  0
  5 88  1  0  0  0
  6 25  1  0  0  0
  6 89  1  0  0  0
  6 90  1  0  0  0
  7  8  2  0  0  0
  7 26  1  0  0  0
  7 29  1  0  0  0
  8  9  1  0  0  0
  8 22  1  0  0  0
  9 10  1  0  0  0
  9 27  2  0  0  0
 10 11  2  0  0  0
 10 15  1  0  0  0
 11 12  1  0  0  0
 11 91  1  0  0  0
 12 13  2  0  0  0
 12 92  1  0  0  0
 13 14  1  0  0  0
 13 31  1  0  0  0
 14 15  2  0  0  0
 14 93  1  0  0  0
 15 94  1  0  0  0
 16 17  2  0  0  0
 16 21  1  0  0  0
 16 31  1  0  0  0
 17 18  1  0  0  0
 17 95  1  0  0  0
 18 19  2  0  0  0
 18 96  1  0  0  0
 19 20  1  0  0  0
 19 24  1  0  0  0
 20 21  2  0  0  0
 20 97  1  0  0  0
 21 23  1  0  0  0
 22 28  1  0  0  0
 22 32  2  0  0  0
 26 27  1  0  0  0
 28 98  1  0  0  0
 28 99  1  0  0  0
 29100  1  0  0  0
 29101  1  0  0  0
 33 34  1  0  0  0
 33 66  1  0  0  0
 33 70  2  0  0  0
 34 36  1  0  0  0
 34 59  1  0  0  0
 34102  1  0  0  0
 35 44  2  0  0  0
 35 45  1  0  0  0
 35 68  1  0  0  0
 36 56  1  0  0  0
 36103  1  0  0  0
 37 39  1  0  0  0
 37 47  1  0  0  0
 37 66  1  0  0  0
 37104  1  0  0  0
 38 43  2  0  0  0
 38 46  1  0  0  0
 38 47  1  0  0  0
 39 64  1  0  0  0
 39 67  2  0  0  0
 40 52  1  0  0  0
 40 53  2  0  0  0
 40 58  1  0  0  0
 41105  1  0  0  0
 41106  1  0  0  0
 41107  1  0  0  0
 41 48  1  0  0  0
 42 43  1  0  0  0
 42 66  1  0  0  0
 42108  1  0  0  0
 42109  1  0  0  0
 43 44  1  0  0  0
 44110  1  0  0  0
 45 46  2  0  0  0
 45111  1  0  0  0
 46112  1  0  0  0
 47113  1  0  0  0
 47114  1  0  0  0
 48 56  1  0  0  0
 48 65  1  0  0  0
 48115  1  0  0  0
 49 50  1  0  0  0
 49 53  1  0  0  0
 49 64  1  0  0  0
 49116  1  0  0  0
 50 51  1  0  0  0
 50117  1  0  0  0
 50118  1  0  0  0
 51 52  1  0  0  0
 51119  1  0  0  0
 51120  1  0  0  0
 52121  1  0  0  0
 52122  1  0  0  0
 53 54  1  0  0  0
 54 55  2  0  0  0
 54123  1  0  0  0
 55 57  1  0  0  0
 55124  1  0  0  0
 56 69  2  0  0  0
 57 58  2  0  0  0
 57125  1  0  0  0
 58126  1  0  0  0
 59 60  1  0  0  0
 59 61  1  0  0  0
 59 62  1  0  0  0
 60127  1  0  0  0
 60128  1  0  0  0
 60129  1  0  0  0
 61130  1  0  0  0
 61131  1  0  0  0
 61132  1  0  0  0
 62133  1  0  0  0
 62134  1  0  0  0
 62135  1  0  0  0
 63 65  1  0  0  0
 63136  1  0  0  0
 63137  1  0  0  0
 63138  1  0  0  0
 64139  1  0  0  0
 65140  1  0  0  0
 68 77  1  0  0  0
 71141  1  0  0  0
 71142  1  0  0  0
 71143  1  0  0  0
 71 78  1  0  0  0
 72 78  1  0  0  0
 72144  1  0  0  0
 72145  1  0  0  0
 72146  1  0  0  0
 73147  1  0  0  0
 73148  1  0  0  0
 73149  1  0  0  0
 73 79  1  0  0  0
 74 75  1  0  0  0
 74 77  1  0  0  0
 74150  1  0  0  0
 74151  1  0  0  0
 75 81  1  0  0  0
 75152  1  0  0  0
 75153  1  0  0  0
 76 79  1  0  0  0
 76 81  1  0  0  0
 76154  1  0  0  0
 76155  1  0  0  0
 77156  1  0  0  0
 77157  1  0  0  0
 78 80  1  0  0  0
 78158  1  0  0  0
 79 80  1  0  0  0
 79159  1  0  0  0
 81160  1  0  0  0
 81161  1  0  0  0
M  CHG  1  81   1
M  ISO  4   1 100  68 101  77 101  80 100
M  END
> <chiral flag>
0

> <version>
0

> <s_m_source_file>
/data/baiqing/PycharmProjects/Reinvent-master-3.2/result/LINK_invent/BTK/process_docking_weight1_custom_sum_contain_oxygen_bond_distance_aromatic_linkinvent_7_9_3/rearranged_h_0101.sdf

> <i_m_source_file_index>
37

> <r_mmod_Potential_Energy-OPLS-2005>
623.129699707031

> <r_mmod_Stretch_Energy-OPLS-2005>
285.277099609375

> <r_mmod_Bend_Energy-OPLS-2005>
299.533325195312

> <r_mmod_Torsional_Energy-OPLS-2005>
312.228759765625

> <r_mmod_Improper_Torsional_Energy-OPLS-2005>
5.08041954040527

> <r_mmod_Van_der_Waal_Energy-OPLS-2005>
159.05517578125

> <r_mmod_Electrostatic_Energy-OPLS-2005>
-169.933364868164

> <r_mmod_Solvation_Energy-OPLS-2005>
-453.764129638672

> <b_mmod_Minimization_Converged-OPLS-2005>
0

> <r_mmod_RMS_Derivative-OPLS-2005>
2.78326344490051

$$$$
37
                    3D
 Structure written by MMmdl.
162170  0  0  1  0            999 V2000
  -30.7146  -14.4975   20.6144 C   0  0  0  0  0  0
  -30.4321  -12.3415   19.4192 C   0  0  0  0  0  0
  -29.4977  -12.5194   18.2028 C   0  0  0  0  0  0
  -28.0189  -12.3687   18.6131 C   0  0  0  0  0  0
  -27.6616  -13.2091   19.8662 C   0  0  2  0  0  0
  -28.7030  -12.9748   20.9784 C   0  0  0  0  0  0
  -25.2624  -13.8162   20.5657 C   0  0  0  0  0  0
  -24.1862  -13.0448   20.9136 C   0  0  0  0  0  0
  -24.6401  -11.6907   20.8704 C   0  0  0  0  0  0
  -23.9045  -10.4291   21.0385 C   0  0  0  0  0  0
  -24.3604   -9.4211   21.9166 C   0  0  0  0  0  0
  -23.6280   -8.2247   22.0745 C   0  0  0  0  0  0
  -22.4260   -8.0270   21.3543 C   0  0  0  0  0  0
  -21.9895   -9.0244   20.4652 C   0  0  0  0  0  0
  -22.7210  -10.2128   20.3035 C   0  0  0  0  0  0
  -21.6851   -6.0708   22.5262 C   0  0  0  0  0  0
  -21.4027   -6.5626   23.8194 C   0  0  0  0  0  0
  -21.3660   -5.6790   24.9171 C   0  0  0  0  0  0
  -21.6037   -4.3045   24.7230 C   0  0  0  0  0  0
  -21.8817   -3.8119   23.4358 C   0  0  0  0  0  0
  -21.9209   -4.6932   22.3405 C   0  0  0  0  0  0
  -22.7877  -13.5242   21.1828 C   0  0  0  0  0  0
  -22.1651   -4.2103   21.0985 F   0  0  0  0  0  0
  -21.5638   -3.4538   25.7757 F   0  0  0  0  0  0
  -30.0297  -13.3248   20.4437 N   0  0  0  0  0  0
  -26.3032  -12.9320   20.3296 N   0  0  0  0  0  0
  -25.9331  -11.6480   20.5697 N   0  0  0  0  0  0
  -22.0552  -12.8220   22.0405 N   0  0  0  0  0  0
  -25.4432  -15.1881   20.4144 N   0  0  0  0  0  0
  -31.8292  -14.6735   20.1090 O   0  0  0  0  0  0
  -21.6648   -6.8852   21.4216 O   0  0  0  0  0  0
  -22.3519  -14.5539   20.6690 O   0  0  0  0  0  0
  -24.6164  -31.8649   23.2067 C   0  0  0  0  0  0
  -25.9041  -32.4823   23.8378 C   0  0  1  0  0  0
  -27.2350  -27.3903   20.1125 C   0  0  0  0  0  0
  -25.5948  -33.8628   24.2333 N   0  0  0  0  0  0
  -23.4089  -30.4858   21.5439 C   0  0  2  0  0  0
  -24.8607  -28.9459   20.1132 C   0  0  0  0  0  0
  -22.7431  -29.4616   22.4891 C   0  0  0  0  0  0
  -18.0295  -28.1311   22.8516 C   0  0  0  0  0  0
  -24.1486  -36.7307   23.2639 C   0  0  0  0  0  0
  -25.9416  -30.8118   21.3714 C   0  0  0  0  0  0
  -26.0179  -29.4401   20.7264 C   0  0  0  0  0  0
  -27.2062  -28.6643   20.7375 C   0  0  0  0  0  0
  -26.0653  -26.9305   19.4682 C   0  0  0  0  0  0
  -24.8808  -27.6925   19.4797 C   0  0  0  0  0  0
  -23.6238  -29.8185   20.1581 C   0  0  0  0  0  0
  -25.4117  -36.3107   24.0323 C   0  0  1  0  0  0
  -20.5891  -28.3654   23.1254 C   0  0  2  0  0  0
  -20.6755  -26.9374   22.5383 C   0  0  0  0  0  0
  -19.5746  -26.6330   21.5183 C   0  0  0  0  0  0
  -18.1929  -26.7864   22.1600 C   0  0  0  0  0  0
  -19.1539  -28.8794   23.2907 C   0  0  0  0  0  0
  -18.9477  -30.1403   23.8913 C   0  0  0  0  0  0
  -17.6478  -30.6544   24.0571 C   0  0  0  0  0  0
  -25.9047  -34.9481   23.5113 C   0  0  0  0  0  0
  -16.5375  -29.9041   23.6321 C   0  0  0  0  0  0
  -16.7276  -28.6432   23.0376 C   0  0  0  0  0  0
  -26.4476  -31.6614   25.0725 C   0  0  0  0  0  0
  -25.3748  -31.3730   26.1489 C   0  0  0  0  0  0
  -27.0284  -30.3055   24.6112 C   0  0  0  0  0  0
  -27.6042  -32.4353   25.7513 C   0  0  0  0  0  0
  -27.5592  -37.1816   24.8475 C   0  0  0  0  0  0
  -21.4135  -29.3050   22.3653 N   0  0  0  0  0  0
  -26.4304  -37.3795   23.9416 N   0  0  0  0  0  0
  -24.6739  -31.0689   22.1001 N   0  0  0  0  0  0
  -23.4187  -28.8131   23.2914 O   0  0  0  0  0  0
  -28.3614  -26.5845   20.1192 O   0  0  0  0  0  0
  -26.5559  -34.8914   22.4647 O   0  0  0  0  0  0
  -23.5331  -32.1428   23.7416 O   0  0  0  0  0  0
  -30.2692  -17.2240   19.3245 C   0  0  0  0  0  0
  -29.2944  -17.9252   21.2303 C   0  0  0  0  0  0
  -29.8944  -16.8346   20.6410 C   0  0  0  0  0  0
  -29.8593  -18.5202   19.1304 C   0  0  0  0  0  0
  -29.9708  -19.3579   17.8932 C   0  0  0  0  0  0
  -27.4500  -22.7795   18.9393 C   0  0  0  0  0  0
  -29.8268  -15.4313   22.6914 C   0  0  0  0  0  0
  -29.2606  -21.6062   20.3180 C   0  0  0  0  0  0
  -28.5050  -20.2398   20.5033 C   0  0  0  0  0  0
  -28.9892  -24.2664   20.2673 C   0  0  0  0  0  0
  -28.3041  -22.8561   20.2218 C   0  0  1  0  0  0
  -29.2433  -18.9698   20.3031 N   0  0  0  0  0  0
  -28.0439  -25.2938   20.7471 N   0  0  0  0  0  0
  -30.0760  -15.5309   21.2472 N   0  0  0  0  0  0
  -31.4718  -12.4531   19.1099 H   0  0  0  0  0  0
  -30.3527  -11.3276   19.8189 H   0  0  0  0  0  0
  -29.7480  -11.7919   17.4302 H   0  0  0  0  0  0
  -29.6572  -13.5021   17.7550 H   0  0  0  0  0  0
  -27.8378  -11.3123   18.8137 H   0  0  0  0  0  0
  -27.3623  -12.6322   17.7831 H   0  0  0  0  0  0
  -27.7112  -14.2591   19.5773 H   0  0  0  0  0  0
  -28.7014  -11.9223   21.2715 H   0  0  0  0  0  0
  -28.4272  -13.5131   21.8790 H   0  0  0  0  0  0
  -25.2770   -9.5684   22.4710 H   0  0  0  0  0  0
  -23.9996   -7.4650   22.7476 H   0  0  0  0  0  0
  -21.0806   -8.8733   19.8984 H   0  0  0  0  0  0
  -22.3647  -10.9636   19.6112 H   0  0  0  0  0  0
  -21.1984   -7.6135   23.9667 H   0  0  0  0  0  0
  -21.1478   -6.0539   25.9071 H   0  0  0  0  0  0
  -22.0595   -2.7566   23.2880 H   0  0  0  0  0  0
  -22.4203  -11.9869   22.4739 H   0  0  0  0  0  0
  -21.1172  -13.1208   22.2664 H   0  0  0  0  0  0
  -24.7039  -15.8686   20.5534 H   0  0  0  0  0  0
  -26.3246  -15.6100   20.1469 H   0  0  0  0  0  0
  -26.7103  -32.5508   23.1120 H   0  0  0  0  0  0
  -25.0260  -33.9833   25.0589 H   0  0  0  0  0  0
  -22.7011  -31.3059   21.3957 H   0  0  0  0  0  0
  -23.3729  -35.9662   23.3310 H   0  0  0  0  0  0
  -24.3595  -36.8910   22.2063 H   0  0  0  0  0  0
  -23.7232  -37.6517   23.6624 H   0  0  0  0  0  0
  -26.0578  -31.5670   20.5928 H   0  0  0  0  0  0
  -26.8274  -30.8692   21.9907 H   0  0  0  0  0  0
  -28.0952  -29.0341   21.2304 H   0  0  0  0  0  0
  -26.0679  -25.9784   18.9580 H   0  0  0  0  0  0
  -23.9989  -27.3091   18.9864 H   0  0  0  0  0  0
  -23.7376  -30.5953   19.4013 H   0  0  0  0  0  0
  -22.7462  -29.2470   19.8518 H   0  0  0  0  0  0
  -25.1272  -36.1993   25.0806 H   0  0  0  0  0  0
  -21.0073  -28.3217   24.1333 H   0  0  0  0  0  0
  -20.5611  -26.2292   23.3598 H   0  0  0  0  0  0
  -21.6626  -26.7339   22.1222 H   0  0  0  0  0  0
  -19.6949  -25.6243   21.1228 H   0  0  0  0  0  0
  -19.6663  -27.3119   20.6703 H   0  0  0  0  0  0
  -17.4221  -26.6662   21.3995 H   0  0  0  0  0  0
  -18.0346  -25.9923   22.8918 H   0  0  0  0  0  0
  -19.7974  -30.7226   24.2258 H   0  0  0  0  0  0
  -17.5049  -31.6244   24.5142 H   0  0  0  0  0  0
  -15.5395  -30.2991   23.7559 H   0  0  0  0  0  0
  -15.8682  -28.0756   22.7093 H   0  0  0  0  0  0
  -24.5980  -30.7007   25.7868 H   0  0  0  0  0  0
  -24.8863  -32.2872   26.4877 H   0  0  0  0  0  0
  -25.8138  -30.8995   27.0281 H   0  0  0  0  0  0
  -26.2818  -29.6883   24.1134 H   0  0  0  0  0  0
  -27.4000  -29.7273   25.4578 H   0  0  0  0  0  0
  -27.8677  -30.4335   23.9274 H   0  0  0  0  0  0
  -27.2654  -33.3677   26.2031 H   0  0  0  0  0  0
  -28.3885  -32.6909   25.0383 H   0  0  0  0  0  0
  -28.0661  -31.8523   26.5477 H   0  0  0  0  0  0
  -28.2592  -38.0135   24.7504 H   0  0  0  0  0  0
  -28.1081  -36.2653   24.6276 H   0  0  0  0  0  0
  -27.2305  -37.1442   25.8879 H   0  0  0  0  0  0
  -20.9276  -29.8926   21.7019 H   0  0  0  0  0  0
  -26.0182  -38.2872   24.1417 H   0  0  0  0  0  0
  -30.7667  -16.6157   18.5805 H   0  0  0  0  0  0
  -28.8570  -18.0426   22.2128 H   0  0  0  0  0  0
  -29.8926  -18.7421   16.9963 H   0  0  0  0  0  0
  -30.9350  -19.8670   17.8539 H   0  0  0  0  0  0
  -29.1843  -20.1101   17.8258 H   0  0  0  0  0  0
  -26.7042  -21.9880   18.9799 H   0  0  0  0  0  0
  -28.0761  -22.6035   18.0640 H   0  0  0  0  0  0
  -26.9059  -23.7050   18.7552 H   0  0  0  0  0  0
  -30.2915  -16.2579   23.2313 H   0  0  0  0  0  0
  -30.2131  -14.5087   23.1301 H   0  0  0  0  0  0
  -28.7555  -15.4765   22.8904 H   0  0  0  0  0  0
  -29.8922  -21.5783   19.4312 H   0  0  0  0  0  0
  -29.9468  -21.7311   21.1579 H   0  0  0  0  0  0
  -27.6617  -20.1926   19.8162 H   0  0  0  0  0  0
  -28.0544  -20.2190   21.4951 H   0  0  0  0  0  0
  -29.3664  -24.5221   19.2748 H   0  0  0  0  0  0
  -29.8498  -24.2555   20.9414 H   0  0  0  0  0  0
  -27.6358  -22.7930   21.0826 H   0  0  0  0  0  0
  -27.1162  -25.0644   20.4052 H   0  0  0  0  0  0
  1 25  1  0  0  0
  1 30  2  0  0  0
  1 84  1  0  0  0
  2  3  1  0  0  0
  2 25  1  0  0  0
  2 85  1  0  0  0
  2 86  1  0  0  0
  3  4  1  0  0  0
  3 87  1  0  0  0
  3 88  1  0  0  0
  4  5  1  0  0  0
  4 89  1  0  0  0
  4 90  1  0  0  0
  5  6  1  0  0  0
  5 26  1  0  0  0
  5 91  1  0  0  0
  6 25  1  0  0  0
  6 92  1  0  0  0
  6 93  1  0  0  0
  7  8  2  0  0  0
  7 26  1  0  0  0
  7 29  1  0  0  0
  8  9  1  0  0  0
  8 22  1  0  0  0
  9 10  1  0  0  0
  9 27  2  0  0  0
 10 11  2  0  0  0
 10 15  1  0  0  0
 11 12  1  0  0  0
 11 94  1  0  0  0
 12 13  2  0  0  0
 12 95  1  0  0  0
 13 14  1  0  0  0
 13 31  1  0  0  0
 14 15  2  0  0  0
 14 96  1  0  0  0
 15 97  1  0  0  0
 16 17  2  0  0  0
 16 21  1  0  0  0
 16 31  1  0  0  0
 17 18  1  0  0  0
 17 98  1  0  0  0
 18 19  2  0  0  0
 18 99  1  0  0  0
 19 20  1  0  0  0
 19 24  1  0  0  0
 20 21  2  0  0  0
 20100  1  0  0  0
 21 23  1  0  0  0
 22 28  1  0  0  0
 22 32  2  0  0  0
 26 27  1  0  0  0
 28101  1  0  0  0
 28102  1  0  0  0
 29103  1  0  0  0
 29104  1  0  0  0
 33 34  1  0  0  0
 33 66  1  0  0  0
 33 70  2  0  0  0
 34 36  1  0  0  0
 34 59  1  0  0  0
 34105  1  0  0  0
 35 44  2  0  0  0
 35 45  1  0  0  0
 35 68  1  0  0  0
 36 56  1  0  0  0
 36106  1  0  0  0
 37 39  1  0  0  0
 37 47  1  0  0  0
 37 66  1  0  0  0
 37107  1  0  0  0
 38 43  2  0  0  0
 38 46  1  0  0  0
 38 47  1  0  0  0
 39 64  1  0  0  0
 39 67  2  0  0  0
 40 52  1  0  0  0
 40 53  2  0  0  0
 40 58  1  0  0  0
 41108  1  0  0  0
 41109  1  0  0  0
 41110  1  0  0  0
 41 48  1  0  0  0
 42 43  1  0  0  0
 42 66  1  0  0  0
 42111  1  0  0  0
 42112  1  0  0  0
 43 44  1  0  0  0
 44113  1  0  0  0
 45 46  2  0  0  0
 45114  1  0  0  0
 46115  1  0  0  0
 47116  1  0  0  0
 47117  1  0  0  0
 48 56  1  0  0  0
 48 65  1  0  0  0
 48118  1  0  0  0
 49 50  1  0  0  0
 49 53  1  0  0  0
 49 64  1  0  0  0
 49119  1  0  0  0
 50 51  1  0  0  0
 50120  1  0  0  0
 50121  1  0  0  0
 51 52  1  0  0  0
 51122  1  0  0  0
 51123  1  0  0  0
 52124  1  0  0  0
 52125  1  0  0  0
 53 54  1  0  0  0
 54 55  2  0  0  0
 54126  1  0  0  0
 55 57  1  0  0  0
 55127  1  0  0  0
 56 69  2  0  0  0
 57 58  2  0  0  0
 57128  1  0  0  0
 58129  1  0  0  0
 59 60  1  0  0  0
 59 61  1  0  0  0
 59 62  1  0  0  0
 60130  1  0  0  0
 60131  1  0  0  0
 60132  1  0  0  0
 61133  1  0  0  0
 61134  1  0  0  0
 61135  1  0  0  0
 62136  1  0  0  0
 62137  1  0  0  0
 62138  1  0  0  0
 63 65  1  0  0  0
 63139  1  0  0  0
 63140  1  0  0  0
 63141  1  0  0  0
 64142  1  0  0  0
 65143  1  0  0  0
 68 83  1  0  0  0
 71 73  1  0  0  0
 71 74  2  0  0  0
 71144  1  0  0  0
 72 73  2  0  0  0
 72 82  1  0  0  0
 72145  1  0  0  0
 73 84  1  0  0  0
 74 75  1  0  0  0
 74 82  1  0  0  0
 75146  1  0  0  0
 75147  1  0  0  0
 75148  1  0  0  0
 76149  1  0  0  0
 76150  1  0  0  0
 76151  1  0  0  0
 76 81  1  0  0  0
 77 84  1  0  0  0
 77152  1  0  0  0
 77153  1  0  0  0
 77154  1  0  0  0
 78 79  1  0  0  0
 78 81  1  0  0  0
 78155  1  0  0  0
 78156  1  0  0  0
 79 82  1  0  0  0
 79157  1  0  0  0
 79158  1  0  0  0
 80 81  1  0  0  0
 80 83  1  0  0  0
 80159  1  0  0  0
 80160  1  0  0  0
 81161  1  0  0  0
 83162  1  0  0  0
M  ISO  4   1 100  68 101  83 101  84 100
M  END
> <chiral flag>
0

> <version>
0

> <s_m_source_file>
/data/baiqing/PycharmProjects/Reinvent-master-3.2/result/LINK_invent/BTK/process_docking_weight1_custom_sum_contain_oxygen_bond_distance_aromatic_linkinvent_7_9_3/rearranged_h_0101.sdf

> <i_m_source_file_index>
38

> <r_mmod_Potential_Energy-OPLS-2005>
128.297210693359

> <r_mmod_Stretch_Energy-OPLS-2005>
52.6577987670898

> <r_mmod_Bend_Energy-OPLS-2005>
117.88680267334

> <r_mmod_Torsional_Energy-OPLS-2005>
298.411285400391

> <r_mmod_Improper_Torsional_Energy-OPLS-2005>
3.99917507171631

> <r_mmod_Van_der_Waal_Energy-OPLS-2005>
130.552108764648

> <r_mmod_Electrostatic_Energy-OPLS-2005>
-292.42919921875

> <r_mmod_Solvation_Energy-OPLS-2005>
-201.711212158203

> <b_mmod_Minimization_Converged-OPLS-2005>
0

> <r_mmod_RMS_Derivative-OPLS-2005>
4.24166631698608

$$$$
38
                    3D
 Structure written by MMmdl.
188196  0  0  1  0            999 V2000
  -30.7606  -14.3757   20.6780 C   0  0  0  0  0  0
  -30.4161  -12.2945   19.3949 C   0  0  0  0  0  0
  -29.4827  -12.5268   18.1923 C   0  0  0  0  0  0
  -28.0077  -12.3800   18.6117 C   0  0  0  0  0  0
  -27.6660  -13.2017   19.8822 C   0  0  2  0  0  0
  -28.7052  -12.9430   20.9955 C   0  0  0  0  0  0
  -25.2602  -13.8142   20.5618 C   0  0  0  0  0  0
  -24.1858  -13.0447   20.9184 C   0  0  0  0  0  0
  -24.6394  -11.6908   20.8747 C   0  0  0  0  0  0
  -23.9046  -10.4299   21.0414 C   0  0  0  0  0  0
  -24.3599   -9.4214   21.9193 C   0  0  0  0  0  0
  -23.6280   -8.2245   22.0757 C   0  0  0  0  0  0
  -22.4267   -8.0278   21.3540 C   0  0  0  0  0  0
  -21.9898   -9.0254   20.4646 C   0  0  0  0  0  0
  -22.7220  -10.2138   20.3065 C   0  0  0  0  0  0
  -21.6852   -6.0732   22.5271 C   0  0  0  0  0  0
  -21.4014   -6.5636   23.8203 C   0  0  0  0  0  0
  -21.3657   -5.6789   24.9166 C   0  0  0  0  0  0
  -21.6044   -4.3053   24.7218 C   0  0  0  0  0  0
  -21.8817   -3.8144   23.4340 C   0  0  0  0  0  0
  -21.9189   -4.6960   22.3398 C   0  0  0  0  0  0
  -22.7889  -13.5269   21.1840 C   0  0  0  0  0  0
  -22.1663   -4.2149   21.0977 F   0  0  0  0  0  0
  -21.5625   -3.4538   25.7731 F   0  0  0  0  0  0
  -30.0441  -13.2415   20.4570 N   0  0  0  0  0  0
  -26.3048  -12.9313   20.3392 N   0  0  0  0  0  0
  -25.9319  -11.6479   20.5782 N   0  0  0  0  0  0
  -22.0518  -12.8262   22.0384 N   0  0  0  0  0  0
  -25.4300  -15.1831   20.3838 N   0  0  0  0  0  0
  -31.8009  -14.6446   20.0658 O   0  0  0  0  0  0
  -21.6638   -6.8873   21.4234 O   0  0  0  0  0  0
  -22.3591  -14.5581   20.6692 O   0  0  0  0  0  0
  -24.6126  -31.8701   23.2112 C   0  0  0  0  0  0
  -25.9036  -32.4830   23.8390 C   0  0  1  0  0  0
  -27.2375  -27.4495   20.0884 C   0  0  0  0  0  0
  -25.5908  -33.8629   24.2326 N   0  0  0  0  0  0
  -23.3986  -30.4932   21.5529 C   0  0  2  0  0  0
  -24.8422  -28.9567   20.1222 C   0  0  0  0  0  0
  -22.7394  -29.4664   22.5016 C   0  0  0  0  0  0
  -18.0275  -28.1366   22.8486 C   0  0  0  0  0  0
  -24.1492  -36.7311   23.2638 C   0  0  0  0  0  0
  -25.9256  -30.8391   21.3608 C   0  0  0  0  0  0
  -26.0017  -29.4727   20.7126 C   0  0  0  0  0  0
  -27.1994  -28.7268   20.6899 C   0  0  0  0  0  0
  -26.0526  -26.9379   19.5067 C   0  0  0  0  0  0
  -24.8612  -27.6872   19.5207 C   0  0  0  0  0  0
  -23.6062  -29.8255   20.1676 C   0  0  0  0  0  0
  -25.4116  -36.3117   24.0338 C   0  0  1  0  0  0
  -20.5861  -28.3648   23.1332 C   0  0  2  0  0  0
  -20.6774  -26.9389   22.5421 C   0  0  0  0  0  0
  -19.5754  -26.6373   21.5217 C   0  0  0  0  0  0
  -18.1923  -26.7912   22.1616 C   0  0  0  0  0  0
  -19.1524  -28.8827   23.2903 C   0  0  0  0  0  0
  -18.9459  -30.1438   23.8907 C   0  0  0  0  0  0
  -17.6464  -30.6580   24.0566 C   0  0  0  0  0  0
  -25.9044  -34.9485   23.5128 C   0  0  0  0  0  0
  -16.5353  -29.9088   23.6324 C   0  0  0  0  0  0
  -16.7265  -28.6504   23.0335 C   0  0  0  0  0  0
  -26.4473  -31.6609   25.0715 C   0  0  0  0  0  0
  -25.3744  -31.3746   26.1482 C   0  0  0  0  0  0
  -27.0294  -30.3051   24.6063 C   0  0  0  0  0  0
  -27.6050  -32.4338   25.7465 C   0  0  0  0  0  0
  -27.5591  -37.1808   24.8460 C   0  0  0  0  0  0
  -21.4125  -29.3034   22.3761 N   0  0  0  0  0  0
  -26.4297  -37.3799   23.9416 N   0  0  0  0  0  0
  -24.6640  -31.0810   22.1009 N   0  0  0  0  0  0
  -23.4181  -28.8203   23.3043 O   0  0  0  0  0  0
  -28.4484  -26.7886   20.0504 O   0  0  0  0  0  0
  -26.5590  -34.8932   22.4681 O   0  0  0  0  0  0
  -23.5330  -32.1453   23.7523 O   0  0  0  0  0  0
  -27.7211  -23.4659   23.8086 C   0  0  0  0  0  0
  -27.2356  -23.6676   21.4231 C   0  0  0  0  0  0
  -28.9014  -25.1128   22.4577 C   0  0  0  0  0  0
  -26.9987  -23.0459   22.6706 C   0  0  0  0  0  0
  -28.6854  -24.4897   23.7040 C   0  0  0  0  0  0
  -28.1824  -24.7095   21.3146 C   0  0  0  0  0  0
  -27.4316  -17.7101   22.1064 C   0  0  0  0  0  0
  -32.7689  -22.7410   24.2957 C   0  0  0  0  0  0
  -29.3212  -26.3830   25.2503 C   0  0  0  0  0  0
  -29.8975  -24.9898   19.4969 C   0  0  0  0  0  0
  -25.3689  -16.9751   23.3941 C   0  0  0  0  0  0
  -31.2838  -15.4758   22.7496 C   0  0  0  0  0  0
  -25.9810  -21.9208   22.7924 C   0  0  0  0  0  0
  -28.2396  -16.4174   22.2883 C   0  0  0  0  0  0
  -31.2757  -23.0599   24.4386 C   0  0  0  0  0  0
  -31.0096  -24.5458   24.7452 C   0  0  0  0  0  0
  -29.4678  -16.3154   21.3551 C   0  0  0  0  0  0
  -25.7227  -19.4555   22.9795 C   0  0  0  0  0  0
  -29.5142  -24.8954   24.9171 C   0  0  2  0  0  0
  -28.4869  -25.3617   19.9715 C   0  0  2  0  0  0
  -26.4216  -18.0863   23.2079 C   0  0  2  0  0  0
  -30.3246  -15.1645   21.6862 N   0  0  0  0  0  0
  -26.6501  -20.6099   22.9044 N   0  3  0  0  0  0
  -27.6107  -18.4474   21.1329 O   0  0  0  0  0  0
  -31.4592  -12.3947   19.0899 H   0  0  0  0  0  0
  -30.3131  -11.2722   19.7626 H   0  0  0  0  0  0
  -29.7144  -11.8214   17.3932 H   0  0  0  0  0  0
  -29.6508  -13.5226   17.7786 H   0  0  0  0  0  0
  -27.8168  -11.3219   18.7960 H   0  0  0  0  0  0
  -27.3511  -12.6665   17.7894 H   0  0  0  0  0  0
  -27.7228  -14.2555   19.6093 H   0  0  0  0  0  0
  -28.6709  -11.8984   21.3081 H   0  0  0  0  0  0
  -28.4618  -13.5122   21.8915 H   0  0  0  0  0  0
  -25.2743   -9.5692   22.4766 H   0  0  0  0  0  0
  -23.9990   -7.4640   22.7479 H   0  0  0  0  0  0
  -21.0827   -8.8768   19.8957 H   0  0  0  0  0  0
  -22.3675  -10.9677   19.6174 H   0  0  0  0  0  0
  -21.2017   -7.6146   23.9706 H   0  0  0  0  0  0
  -21.1480   -6.0523   25.9066 H   0  0  0  0  0  0
  -22.0598   -2.7606   23.2838 H   0  0  0  0  0  0
  -22.4110  -11.9909   22.4759 H   0  0  0  0  0  0
  -21.1142  -13.1305   22.2592 H   0  0  0  0  0  0
  -24.6329  -15.8077   20.4054 H   0  0  0  0  0  0
  -26.2437  -15.5911   19.9430 H   0  0  0  0  0  0
  -26.7102  -32.5544   23.1149 H   0  0  0  0  0  0
  -25.0117  -33.9804   25.0511 H   0  0  0  0  0  0
  -22.6863  -31.3088   21.4138 H   0  0  0  0  0  0
  -23.3769  -35.9624   23.3286 H   0  0  0  0  0  0
  -24.3592  -36.8942   22.2053 H   0  0  0  0  0  0
  -23.7224  -37.6503   23.6663 H   0  0  0  0  0  0
  -26.0326  -31.6024   20.5891 H   0  0  0  0  0  0
  -26.8158  -30.8951   21.9758 H   0  0  0  0  0  0
  -28.1000  -29.1286   21.1323 H   0  0  0  0  0  0
  -26.0224  -25.9782   19.0157 H   0  0  0  0  0  0
  -23.9685  -27.2846   19.0633 H   0  0  0  0  0  0
  -23.7170  -30.6010   19.4088 H   0  0  0  0  0  0
  -22.7287  -29.2484   19.8693 H   0  0  0  0  0  0
  -25.1290  -36.1981   25.0826 H   0  0  0  0  0  0
  -20.9943  -28.3207   24.1452 H   0  0  0  0  0  0
  -20.5698  -26.2246   23.3597 H   0  0  0  0  0  0
  -21.6647  -26.7444   22.1201 H   0  0  0  0  0  0
  -19.6921  -25.6284   21.1241 H   0  0  0  0  0  0
  -19.6706  -27.3195   20.6752 H   0  0  0  0  0  0
  -17.4199  -26.6675   21.4004 H   0  0  0  0  0  0
  -18.0309  -26.0038   22.8994 H   0  0  0  0  0  0
  -19.7942  -30.7252   24.2266 H   0  0  0  0  0  0
  -17.5025  -31.6259   24.5165 H   0  0  0  0  0  0
  -15.5359  -30.3003   23.7638 H   0  0  0  0  0  0
  -15.8659  -28.0848   22.7021 H   0  0  0  0  0  0
  -24.5866  -30.7144   25.7839 H   0  0  0  0  0  0
  -24.8994  -32.2920   26.4967 H   0  0  0  0  0  0
  -25.8086  -30.8880   27.0222 H   0  0  0  0  0  0
  -26.2817  -29.6821   24.1137 H   0  0  0  0  0  0
  -27.4119  -29.7278   25.4491 H   0  0  0  0  0  0
  -27.8622  -30.4397   23.9158 H   0  0  0  0  0  0
  -27.2676  -33.3657   26.2022 H   0  0  0  0  0  0
  -28.3859  -32.6879   25.0282 H   0  0  0  0  0  0
  -28.0703  -31.8469   26.5395 H   0  0  0  0  0  0
  -28.2597  -38.0119   24.7543 H   0  0  0  0  0  0
  -28.1105  -36.2654   24.6247 H   0  0  0  0  0  0
  -27.2312  -37.1417   25.8863 H   0  0  0  0  0  0
  -20.9286  -29.8777   21.7004 H   0  0  0  0  0  0
  -26.0193  -38.2874   24.1434 H   0  0  0  0  0  0
  -27.5473  -22.9907   24.7647 H   0  0  0  0  0  0
  -26.6926  -23.3471   20.5450 H   0  0  0  0  0  0
  -29.6405  -25.8965   22.3681 H   0  0  0  0  0  0
  -32.9198  -21.6839   24.0742 H   0  0  0  0  0  0
  -33.3148  -22.9678   25.2118 H   0  0  0  0  0  0
  -33.2205  -23.3141   23.4852 H   0  0  0  0  0  0
  -28.2669  -26.6169   25.4002 H   0  0  0  0  0  0
  -29.6942  -27.0288   24.4549 H   0  0  0  0  0  0
  -29.8500  -26.6518   26.1651 H   0  0  0  0  0  0
  -30.0020  -23.9093   19.3921 H   0  0  0  0  0  0
  -30.6622  -25.3297   20.1958 H   0  0  0  0  0  0
  -30.1141  -25.4380   18.5269 H   0  0  0  0  0  0
  -25.8216  -15.9991   23.5706 H   0  0  0  0  0  0
  -24.7222  -16.8865   22.5207 H   0  0  0  0  0  0
  -24.7281  -17.1849   24.2508 H   0  0  0  0  0  0
  -30.8153  -16.0230   23.5676 H   0  0  0  0  0  0
  -32.1092  -16.0815   22.3702 H   0  0  0  0  0  0
  -31.7049  -14.5615   23.1720 H   0  0  0  0  0  0
  -25.3179  -21.9275   21.9258 H   0  0  0  0  0  0
  -25.3535  -22.0976   23.6681 H   0  0  0  0  0  0
  -27.5737  -15.5716   22.1232 H   0  0  0  0  0  0
  -28.5526  -16.3694   23.3309 H   0  0  0  0  0  0
  -30.8492  -22.4424   25.2297 H   0  0  0  0  0  0
  -30.7694  -22.7708   23.5171 H   0  0  0  0  0  0
  -31.4359  -25.1552   23.9466 H   0  0  0  0  0  0
  -31.5457  -24.8247   25.6541 H   0  0  0  0  0  0
  -30.0597  -17.2316   21.4105 H   0  0  0  0  0  0
  -29.1215  -16.2558   20.3201 H   0  0  0  0  0  0
  -25.0226  -19.6340   23.7972 H   0  0  0  0  0  0
  -25.1227  -19.4185   22.0680 H   0  0  0  0  0  0
  -29.1451  -24.3281   25.7731 H   0  0  0  0  0  0
  -27.8082  -24.9763   19.2132 H   0  0  0  0  0  0
  -26.9946  -18.1503   24.1331 H   0  0  0  0  0  0
  -27.2285  -20.6309   23.7278 H   0  0  0  0  0  0
  -27.2483  -20.4896   22.1006 H   0  0  0  0  0  0
  1 25  1  0  0  0
  1 30  2  0  0  0
  1 92  1  0  0  0
  2  3  1  0  0  0
  2 25  1  0  0  0
  2 95  1  0  0  0
  2 96  1  0  0  0
  3  4  1  0  0  0
  3 97  1  0  0  0
  3 98  1  0  0  0
  4  5  1  0  0  0
  4 99  1  0  0  0
  4100  1  0  0  0
  5  6  1  0  0  0
  5 26  1  0  0  0
  5101  1  0  0  0
  6 25  1  0  0  0
  6102  1  0  0  0
  6103  1  0  0  0
  7  8  2  0  0  0
  7 26  1  0  0  0
  7 29  1  0  0  0
  8  9  1  0  0  0
  8 22  1  0  0  0
  9 10  1  0  0  0
  9 27  2  0  0  0
 10 11  2  0  0  0
 10 15  1  0  0  0
 11 12  1  0  0  0
 11104  1  0  0  0
 12 13  2  0  0  0
 12105  1  0  0  0
 13 14  1  0  0  0
 13 31  1  0  0  0
 14 15  2  0  0  0
 14106  1  0  0  0
 15107  1  0  0  0
 16 17  2  0  0  0
 16 21  1  0  0  0
 16 31  1  0  0  0
 17 18  1  0  0  0
 17108  1  0  0  0
 18 19  2  0  0  0
 18109  1  0  0  0
 19 20  1  0  0  0
 19 24  1  0  0  0
 20 21  2  0  0  0
 20110  1  0  0  0
 21 23  1  0  0  0
 22 28  1  0  0  0
 22 32  2  0  0  0
 26 27  1  0  0  0
 28111  1  0  0  0
 28112  1  0  0  0
 29113  1  0  0  0
 29114  1  0  0  0
 33 34  1  0  0  0
 33 66  1  0  0  0
 33 70  2  0  0  0
 34 36  1  0  0  0
 34 59  1  0  0  0
 34115  1  0  0  0
 35 44  2  0  0  0
 35 45  1  0  0  0
 35 68  1  0  0  0
 36 56  1  0  0  0
 36116  1  0  0  0
 37 39  1  0  0  0
 37 47  1  0  0  0
 37 66  1  0  0  0
 37117  1  0  0  0
 38 43  2  0  0  0
 38 46  1  0  0  0
 38 47  1  0  0  0
 39 64  1  0  0  0
 39 67  2  0  0  0
 40 52  1  0  0  0
 40 53  2  0  0  0
 40 58  1  0  0  0
 41118  1  0  0  0
 41119  1  0  0  0
 41120  1  0  0  0
 41 48  1  0  0  0
 42 43  1  0  0  0
 42 66  1  0  0  0
 42121  1  0  0  0
 42122  1  0  0  0
 43 44  1  0  0  0
 44123  1  0  0  0
 45 46  2  0  0  0
 45124  1  0  0  0
 46125  1  0  0  0
 47126  1  0  0  0
 47127  1  0  0  0
 48 56  1  0  0  0
 48 65  1  0  0  0
 48128  1  0  0  0
 49 50  1  0  0  0
 49 53  1  0  0  0
 49 64  1  0  0  0
 49129  1  0  0  0
 50 51  1  0  0  0
 50130  1  0  0  0
 50131  1  0  0  0
 51 52  1  0  0  0
 51132  1  0  0  0
 51133  1  0  0  0
 52134  1  0  0  0
 52135  1  0  0  0
 53 54  1  0  0  0
 54 55  2  0  0  0
 54136  1  0  0  0
 55 57  1  0  0  0
 55137  1  0  0  0
 56 69  2  0  0  0
 57 58  2  0  0  0
 57138  1  0  0  0
 58139  1  0  0  0
 59 60  1  0  0  0
 59 61  1  0  0  0
 59 62  1  0  0  0
 60140  1  0  0  0
 60141  1  0  0  0
 60142  1  0  0  0
 61143  1  0  0  0
 61144  1  0  0  0
 61145  1  0  0  0
 62146  1  0  0  0
 62147  1  0  0  0
 62148  1  0  0  0
 63 65  1  0  0  0
 63149  1  0  0  0
 63150  1  0  0  0
 63151  1  0  0  0
 64152  1  0  0  0
 65153  1  0  0  0
 68 90  1  0  0  0
 71 74  2  0  0  0
 71 75  1  0  0  0
 71154  1  0  0  0
 72 74  1  0  0  0
 72 76  2  0  0  0
 72155  1  0  0  0
 73 75  2  0  0  0
 73 76  1  0  0  0
 73156  1  0  0  0
 74 83  1  0  0  0
 75 89  1  0  0  0
 76 90  1  0  0  0
 77 84  1  0  0  0
 77 91  1  0  0  0
 77 94  2  0  0  0
 78 85  1  0  0  0
 78157  1  0  0  0
 78158  1  0  0  0
 78159  1  0  0  0
 79160  1  0  0  0
 79161  1  0  0  0
 79162  1  0  0  0
 79 89  1  0  0  0
 80163  1  0  0  0
 80164  1  0  0  0
 80165  1  0  0  0
 80 90  1  0  0  0
 81166  1  0  0  0
 81167  1  0  0  0
 81168  1  0  0  0
 81 91  1  0  0  0
 82 92  1  0  0  0
 82169  1  0  0  0
 82170  1  0  0  0
 82171  1  0  0  0
 83 93  1  0  0  0
 83172  1  0  0  0
 83173  1  0  0  0
 84 87  1  0  0  0
 84174  1  0  0  0
 84175  1  0  0  0
 85 86  1  0  0  0
 85176  1  0  0  0
 85177  1  0  0  0
 86 89  1  0  0  0
 86178  1  0  0  0
 86179  1  0  0  0
 87 92  1  0  0  0
 87180  1  0  0  0
 87181  1  0  0  0
 88 91  1  0  0  0
 88 93  1  0  0  0
 88182  1  0  0  0
 88183  1  0  0  0
 89184  1  0  0  0
 90185  1  0  0  0
 91186  1  0  0  0
 93187  1  0  0  0
 93188  1  0  0  0
M  CHG  1  93   1
M  ISO  4   1 100  68 101  90 101  92 100
M  END
> <chiral flag>
0

> <version>
0

> <s_m_source_file>
/data/baiqing/PycharmProjects/Reinvent-master-3.2/result/LINK_invent/BTK/process_docking_weight1_custom_sum_contain_oxygen_bond_distance_aromatic_linkinvent_7_9_3/rearranged_h_0101.sdf

> <i_m_source_file_index>
39

> <r_mmod_Potential_Energy-OPLS-2005>
-149.842819213867

> <r_mmod_Stretch_Energy-OPLS-2005>
36.525577545166

> <r_mmod_Bend_Energy-OPLS-2005>
102.089424133301

> <r_mmod_Torsional_Energy-OPLS-2005>
267.222686767578

> <r_mmod_Improper_Torsional_Energy-OPLS-2005>
7.05686855316162

> <r_mmod_Van_der_Waal_Energy-OPLS-2005>
139.47380065918

> <r_mmod_Electrostatic_Energy-OPLS-2005>
-277.586669921875

> <r_mmod_Solvation_Energy-OPLS-2005>
-432.490081787109

> <b_mmod_Minimization_Converged-OPLS-2005>
0

> <r_mmod_RMS_Derivative-OPLS-2005>
1.409343957901

$$$$
39
                    3D
 Structure written by MMmdl.
166174  0  0  1  0            999 V2000
  -30.7232  -14.5107   20.4981 C   0  0  0  0  0  0
  -30.4011  -12.3072   19.4557 C   0  0  0  0  0  0
  -29.5003  -12.5006   18.2209 C   0  0  0  0  0  0
  -28.0174  -12.3611   18.6298 C   0  0  0  0  0  0
  -27.6524  -13.2190   19.8756 C   0  0  2  0  0  0
  -28.6995  -13.0601   21.0074 C   0  0  0  0  0  0
  -25.2390  -13.7973   20.5608 C   0  0  0  0  0  0
  -24.1735  -13.0315   20.9229 C   0  0  0  0  0  0
  -24.6368  -11.6819   20.8802 C   0  0  0  0  0  0
  -23.9082  -10.4207   21.0409 C   0  0  0  0  0  0
  -24.3624   -9.4114   21.9183 C   0  0  0  0  0  0
  -23.6268   -8.2174   22.0767 C   0  0  0  0  0  0
  -22.4237   -8.0239   21.3586 C   0  0  0  0  0  0
  -21.9898   -9.0196   20.4669 C   0  0  0  0  0  0
  -22.7245  -10.2057   20.3056 C   0  0  0  0  0  0
  -21.6821   -6.0712   22.5277 C   0  0  0  0  0  0
  -21.4013   -6.5624   23.8214 C   0  0  0  0  0  0
  -21.3687   -5.6792   24.9178 C   0  0  0  0  0  0
  -21.6055   -4.3043   24.7215 C   0  0  0  0  0  0
  -21.8810   -3.8134   23.4331 C   0  0  0  0  0  0
  -21.9166   -4.6968   22.3390 C   0  0  0  0  0  0
  -22.7755  -13.5138   21.1906 C   0  0  0  0  0  0
  -22.1633   -4.2167   21.0962 F   0  0  0  0  0  0
  -21.5656   -3.4526   25.7726 F   0  0  0  0  0  0
  -30.0262  -13.3405   20.4399 N   0  0  0  0  0  0
  -26.2958  -12.9321   20.3401 N   0  0  0  0  0  0
  -25.9318  -11.6465   20.5844 N   0  0  0  0  0  0
  -22.0429  -12.8213   22.0555 N   0  0  0  0  0  0
  -25.3728  -15.1602   20.3702 N   0  0  0  0  0  0
  -31.8846  -14.5906   20.0925 O   0  0  0  0  0  0
  -21.6605   -6.8835   21.4237 O   0  0  0  0  0  0
  -22.3398  -14.5407   20.6686 O   0  0  0  0  0  0
  -24.6119  -31.8669   23.2105 C   0  0  0  0  0  0
  -25.9022  -32.4813   23.8386 C   0  0  1  0  0  0
  -27.2361  -27.4289   20.0758 C   0  0  0  0  0  0
  -25.5901  -33.8628   24.2302 N   0  0  0  0  0  0
  -23.3987  -30.4907   21.5488 C   0  0  2  0  0  0
  -24.8458  -28.9532   20.1193 C   0  0  0  0  0  0
  -22.7370  -29.4644   22.4956 C   0  0  0  0  0  0
  -18.0251  -28.1375   22.8487 C   0  0  0  0  0  0
  -24.1462  -36.7299   23.2637 C   0  0  0  0  0  0
  -25.9314  -30.8257   21.3669 C   0  0  0  0  0  0
  -26.0080  -29.4599   20.7130 C   0  0  0  0  0  0
  -27.2077  -28.7041   20.6893 C   0  0  0  0  0  0
  -26.0445  -26.9385   19.4871 C   0  0  0  0  0  0
  -24.8566  -27.6893   19.5127 C   0  0  0  0  0  0
  -23.6091  -29.8228   20.1650 C   0  0  0  0  0  0
  -25.4104  -36.3085   24.0299 C   0  0  1  0  0  0
  -20.5850  -28.3639   23.1331 C   0  0  2  0  0  0
  -20.6748  -26.9385   22.5393 C   0  0  0  0  0  0
  -19.5731  -26.6377   21.5181 C   0  0  0  0  0  0
  -18.1902  -26.7917   22.1588 C   0  0  0  0  0  0
  -19.1511  -28.8806   23.2916 C   0  0  0  0  0  0
  -18.9461  -30.1406   23.8904 C   0  0  0  0  0  0
  -17.6481  -30.6574   24.0562 C   0  0  0  0  0  0
  -25.9054  -34.9469   23.5116 C   0  0  0  0  0  0
  -16.5364  -29.9091   23.6350 C   0  0  0  0  0  0
  -16.7252  -28.6521   23.0346 C   0  0  0  0  0  0
  -26.4485  -31.6607   25.0729 C   0  0  0  0  0  0
  -25.3801  -31.3743   26.1509 C   0  0  0  0  0  0
  -27.0304  -30.3038   24.6119 C   0  0  0  0  0  0
  -27.6008  -32.4351   25.7524 C   0  0  0  0  0  0
  -27.5558  -37.1804   24.8467 C   0  0  0  0  0  0
  -21.4082  -29.3039   22.3739 N   0  0  0  0  0  0
  -26.4274  -37.3781   23.9408 N   0  0  0  0  0  0
  -24.6641  -31.0757   22.1020 N   0  0  0  0  0  0
  -23.4170  -28.8215   23.2995 O   0  0  0  0  0  0
  -28.4096  -26.6939   20.0762 O   0  0  0  0  0  0
  -26.5593  -34.8926   22.4652 O   0  0  0  0  0  0
  -23.5314  -32.1432   23.7522 O   0  0  0  0  0  0
  -30.6072  -19.4279   20.1541 C   0  0  0  0  0  0
  -28.8489  -20.1697   21.2542 C   0  0  0  0  0  0
  -29.8921  -18.3075   20.5173 C   0  0  0  0  0  0
  -28.6826  -18.8147   21.1297 C   0  0  0  0  0  0
  -27.5463  -16.7104   22.0018 C   0  0  0  0  0  0
  -26.5019  -18.1537   20.2067 C   0  0  0  0  0  0
  -26.5857  -18.9372   22.5735 C   0  0  0  0  0  0
  -30.4271  -16.9219   20.1091 C   0  0  0  0  0  0
  -29.3097  -23.0251   20.7055 C   0  0  0  0  0  0
  -29.5749  -24.4984   20.2880 C   0  0  0  0  0  0
  -30.3441  -21.9618   20.2344 C   0  0  0  0  0  0
  -28.2746  -25.2674   19.9551 C   0  0  0  0  0  0
  -27.3568  -18.1451   21.4920 C   0  0  0  0  0  0
  -29.9544  -20.5782   20.5496 N   0  0  0  0  0  0
  -30.0290  -15.6469   20.7457 N   0  0  0  0  0  0
  -31.4545  -12.3393   19.1745 H   0  0  0  0  0  0
  -30.2431  -11.3139   19.8702 H   0  0  0  0  0  0
  -29.7504  -11.7654   17.4552 H   0  0  0  0  0  0
  -29.6789  -13.4802   17.7715 H   0  0  0  0  0  0
  -27.8285  -11.3082   18.8453 H   0  0  0  0  0  0
  -27.3691  -12.6199   17.7896 H   0  0  0  0  0  0
  -27.6780  -14.2597   19.5509 H   0  0  0  0  0  0
  -28.6783  -12.0463   21.4126 H   0  0  0  0  0  0
  -28.4771  -13.7236   21.8452 H   0  0  0  0  0  0
  -25.2771   -9.5571   22.4760 H   0  0  0  0  0  0
  -23.9989   -7.4579   22.7511 H   0  0  0  0  0  0
  -21.0825   -8.8689   19.8978 H   0  0  0  0  0  0
  -22.3722  -10.9599   19.6147 H   0  0  0  0  0  0
  -21.2001   -7.6133   23.9705 H   0  0  0  0  0  0
  -21.1530   -6.0521   25.9089 H   0  0  0  0  0  0
  -22.0573   -2.7604   23.2809 H   0  0  0  0  0  0
  -22.4091  -11.9993   22.5120 H   0  0  0  0  0  0
  -21.1011  -13.1193   22.2717 H   0  0  0  0  0  0
  -24.6070  -15.7969   20.5482 H   0  0  0  0  0  0
  -26.2179  -15.6376   20.0940 H   0  0  0  0  0  0
  -26.7095  -32.5509   23.1130 H   0  0  0  0  0  0
  -25.0065  -33.9805   25.0462 H   0  0  0  0  0  0
  -22.6871  -31.3062   21.4061 H   0  0  0  0  0  0
  -23.3714  -35.9651   23.3308 H   0  0  0  0  0  0
  -24.3550  -36.8921   22.2060 H   0  0  0  0  0  0
  -23.7266  -37.6513   23.6675 H   0  0  0  0  0  0
  -26.0537  -31.5923   20.6008 H   0  0  0  0  0  0
  -26.8190  -30.8762   21.9888 H   0  0  0  0  0  0
  -28.1090  -29.0897   21.1461 H   0  0  0  0  0  0
  -26.0023  -25.9822   18.9909 H   0  0  0  0  0  0
  -23.9596  -27.2871   19.0629 H   0  0  0  0  0  0
  -23.7224  -30.5930   19.4013 H   0  0  0  0  0  0
  -22.7298  -29.2464   19.8707 H   0  0  0  0  0  0
  -25.1287  -36.1884   25.0790 H   0  0  0  0  0  0
  -20.9980  -28.3191   24.1438 H   0  0  0  0  0  0
  -20.5623  -26.2257   23.3564 H   0  0  0  0  0  0
  -21.6623  -26.7426   22.1194 H   0  0  0  0  0  0
  -19.6905  -25.6306   21.1164 H   0  0  0  0  0  0
  -19.6655  -27.3202   20.6730 H   0  0  0  0  0  0
  -17.4170  -26.6672   21.3970 H   0  0  0  0  0  0
  -18.0319  -26.0027   22.8969 H   0  0  0  0  0  0
  -19.7949  -30.7205   24.2286 H   0  0  0  0  0  0
  -17.5056  -31.6241   24.5174 H   0  0  0  0  0  0
  -15.5379  -30.3005   23.7674 H   0  0  0  0  0  0
  -15.8639  -28.0831   22.7105 H   0  0  0  0  0  0
  -24.5906  -30.7139   25.7904 H   0  0  0  0  0  0
  -24.9103  -32.2940   26.4991 H   0  0  0  0  0  0
  -25.8206  -30.8895   27.0227 H   0  0  0  0  0  0
  -26.2859  -29.6805   24.1163 H   0  0  0  0  0  0
  -27.4056  -29.7238   25.4552 H   0  0  0  0  0  0
  -27.8685  -30.4298   23.9273 H   0  0  0  0  0  0
  -27.2550  -33.3615   26.2093 H   0  0  0  0  0  0
  -28.3859  -32.6967   25.0440 H   0  0  0  0  0  0
  -28.0623  -31.8509   26.5476 H   0  0  0  0  0  0
  -28.2563  -38.0107   24.7488 H   0  0  0  0  0  0
  -28.1032  -36.2621   24.6270 H   0  0  0  0  0  0
  -27.2264  -37.1464   25.8871 H   0  0  0  0  0  0
  -20.9220  -29.8806   21.6997 H   0  0  0  0  0  0
  -26.0092  -38.2811   24.1491 H   0  0  0  0  0  0
  -31.5255  -19.4981   19.5846 H   0  0  0  0  0  0
  -28.1919  -20.9064   21.6933 H   0  0  0  0  0  0
  -28.4462  -16.6091   22.6100 H   0  0  0  0  0  0
  -27.6266  -16.0241   21.1657 H   0  0  0  0  0  0
  -26.6965  -16.3610   22.5900 H   0  0  0  0  0  0
  -26.9424  -17.5278   19.4271 H   0  0  0  0  0  0
  -26.4177  -19.1592   19.7871 H   0  0  0  0  0  0
  -25.4852  -17.8065   20.3894 H   0  0  0  0  0  0
  -27.1473  -19.0270   23.5053 H   0  0  0  0  0  0
  -25.6386  -18.4549   22.8076 H   0  0  0  0  0  0
  -26.3194  -19.9417   22.2426 H   0  0  0  0  0  0
  -31.5089  -17.0178   20.2145 H   0  0  0  0  0  0
  -30.2409  -16.8271   19.0402 H   0  0  0  0  0  0
  -28.3305  -22.7335   20.3242 H   0  0  0  0  0  0
  -29.2105  -22.9818   21.7918 H   0  0  0  0  0  0
  -30.2196  -24.5283   19.4083 H   0  0  0  0  0  0
  -30.1245  -25.0080   21.0824 H   0  0  0  0  0  0
  -31.3386  -22.1543   20.6482 H   0  0  0  0  0  0
  -30.4434  -22.0205   19.1486 H   0  0  0  0  0  0
  -27.9665  -25.0111   18.9407 H   0  0  0  0  0  0
  -27.4760  -24.9344   20.6240 H   0  0  0  0  0  0
  -29.1018  -15.5855   21.1377 H   0  0  0  0  0  0
  1 25  1  0  0  0
  1 30  2  0  0  0
  1 85  1  0  0  0
  2  3  1  0  0  0
  2 25  1  0  0  0
  2 86  1  0  0  0
  2 87  1  0  0  0
  3  4  1  0  0  0
  3 88  1  0  0  0
  3 89  1  0  0  0
  4  5  1  0  0  0
  4 90  1  0  0  0
  4 91  1  0  0  0
  5  6  1  0  0  0
  5 26  1  0  0  0
  5 92  1  0  0  0
  6 25  1  0  0  0
  6 93  1  0  0  0
  6 94  1  0  0  0
  7  8  2  0  0  0
  7 26  1  0  0  0
  7 29  1  0  0  0
  8  9  1  0  0  0
  8 22  1  0  0  0
  9 10  1  0  0  0
  9 27  2  0  0  0
 10 11  2  0  0  0
 10 15  1  0  0  0
 11 12  1  0  0  0
 11 95  1  0  0  0
 12 13  2  0  0  0
 12 96  1  0  0  0
 13 14  1  0  0  0
 13 31  1  0  0  0
 14 15  2  0  0  0
 14 97  1  0  0  0
 15 98  1  0  0  0
 16 17  2  0  0  0
 16 21  1  0  0  0
 16 31  1  0  0  0
 17 18  1  0  0  0
 17 99  1  0  0  0
 18 19  2  0  0  0
 18100  1  0  0  0
 19 20  1  0  0  0
 19 24  1  0  0  0
 20 21  2  0  0  0
 20101  1  0  0  0
 21 23  1  0  0  0
 22 28  1  0  0  0
 22 32  2  0  0  0
 26 27  1  0  0  0
 28102  1  0  0  0
 28103  1  0  0  0
 29104  1  0  0  0
 29105  1  0  0  0
 33 34  1  0  0  0
 33 66  1  0  0  0
 33 70  2  0  0  0
 34 36  1  0  0  0
 34 59  1  0  0  0
 34106  1  0  0  0
 35 44  2  0  0  0
 35 45  1  0  0  0
 35 68  1  0  0  0
 36 56  1  0  0  0
 36107  1  0  0  0
 37 39  1  0  0  0
 37 47  1  0  0  0
 37 66  1  0  0  0
 37108  1  0  0  0
 38 43  2  0  0  0
 38 46  1  0  0  0
 38 47  1  0  0  0
 39 64  1  0  0  0
 39 67  2  0  0  0
 40 52  1  0  0  0
 40 53  2  0  0  0
 40 58  1  0  0  0
 41109  1  0  0  0
 41110  1  0  0  0
 41111  1  0  0  0
 41 48  1  0  0  0
 42 43  1  0  0  0
 42 66  1  0  0  0
 42112  1  0  0  0
 42113  1  0  0  0
 43 44  1  0  0  0
 44114  1  0  0  0
 45 46  2  0  0  0
 45115  1  0  0  0
 46116  1  0  0  0
 47117  1  0  0  0
 47118  1  0  0  0
 48 56  1  0  0  0
 48 65  1  0  0  0
 48119  1  0  0  0
 49 50  1  0  0  0
 49 53  1  0  0  0
 49 64  1  0  0  0
 49120  1  0  0  0
 50 51  1  0  0  0
 50121  1  0  0  0
 50122  1  0  0  0
 51 52  1  0  0  0
 51123  1  0  0  0
 51124  1  0  0  0
 52125  1  0  0  0
 52126  1  0  0  0
 53 54  1  0  0  0
 54 55  2  0  0  0
 54127  1  0  0  0
 55 57  1  0  0  0
 55128  1  0  0  0
 56 69  2  0  0  0
 57 58  2  0  0  0
 57129  1  0  0  0
 58130  1  0  0  0
 59 60  1  0  0  0
 59 61  1  0  0  0
 59 62  1  0  0  0
 60131  1  0  0  0
 60132  1  0  0  0
 60133  1  0  0  0
 61134  1  0  0  0
 61135  1  0  0  0
 61136  1  0  0  0
 62137  1  0  0  0
 62138  1  0  0  0
 62139  1  0  0  0
 63 65  1  0  0  0
 63140  1  0  0  0
 63141  1  0  0  0
 63142  1  0  0  0
 64143  1  0  0  0
 65144  1  0  0  0
 68 82  1  0  0  0
 71 73  2  0  0  0
 71 84  1  0  0  0
 71145  1  0  0  0
 72 74  2  0  0  0
 72 84  1  0  0  0
 72146  1  0  0  0
 73 74  1  0  0  0
 73 78  1  0  0  0
 74 83  1  0  0  0
 75147  1  0  0  0
 75148  1  0  0  0
 75149  1  0  0  0
 75 83  1  0  0  0
 76 83  1  0  0  0
 76150  1  0  0  0
 76151  1  0  0  0
 76152  1  0  0  0
 77 83  1  0  0  0
 77153  1  0  0  0
 77154  1  0  0  0
 77155  1  0  0  0
 78 85  1  0  0  0
 78156  1  0  0  0
 78157  1  0  0  0
 79 80  1  0  0  0
 79 81  1  0  0  0
 79158  1  0  0  0
 79159  1  0  0  0
 80 82  1  0  0  0
 80160  1  0  0  0
 80161  1  0  0  0
 81 84  1  0  0  0
 81162  1  0  0  0
 81163  1  0  0  0
 82164  1  0  0  0
 82165  1  0  0  0
 85166  1  0  0  0
M  ISO  4   1 100  68 101  82 101  85 100
M  END
> <chiral flag>
0

> <version>
0

> <s_m_source_file>
/data/baiqing/PycharmProjects/Reinvent-master-3.2/result/LINK_invent/BTK/process_docking_weight1_custom_sum_contain_oxygen_bond_distance_aromatic_linkinvent_7_9_3/rearranged_h_0101.sdf

> <i_m_source_file_index>
40

> <r_mmod_Potential_Energy-OPLS-2005>
-47.6494789123535

> <r_mmod_Stretch_Energy-OPLS-2005>
42.4231033325195

> <r_mmod_Bend_Energy-OPLS-2005>
140.852249145508

> <r_mmod_Torsional_Energy-OPLS-2005>
246.038635253906

> <r_mmod_Improper_Torsional_Energy-OPLS-2005>
8.76236438751221

> <r_mmod_Van_der_Waal_Energy-OPLS-2005>
148.357147216797

> <r_mmod_Electrostatic_Energy-OPLS-2005>
-458.610443115234

> <r_mmod_Solvation_Energy-OPLS-2005>
-195.976852416992

> <b_mmod_Minimization_Converged-OPLS-2005>
0

> <r_mmod_RMS_Derivative-OPLS-2005>
7.04303884506226

$$$$
40
                    3D
 Structure written by MMmdl.
149156  0  0  1  0            999 V2000
  -30.2909  -15.5468   20.3700 C   0  0  0  0  0  0
  -30.4273  -13.0087   19.5700 C   0  0  0  0  0  0
  -29.5586  -12.6454   18.3337 C   0  0  0  0  0  0
  -28.1215  -12.2972   18.7586 C   0  0  0  0  0  0
  -27.5936  -13.2972   19.8132 C   0  0  2  0  0  0
  -28.5975  -13.5857   20.9471 C   0  0  0  0  0  0
  -25.2303  -13.8291   20.5729 C   0  0  0  0  0  0
  -24.1678  -13.0442   20.9286 C   0  0  0  0  0  0
  -24.6377  -11.6966   20.8768 C   0  0  0  0  0  0
  -23.9102  -10.4297   21.0413 C   0  0  0  0  0  0
  -24.3631   -9.4217   21.9216 C   0  0  0  0  0  0
  -23.6295   -8.2252   22.0773 C   0  0  0  0  0  0
  -22.4271   -8.0277   21.3562 C   0  0  0  0  0  0
  -21.9925   -9.0255   20.4659 C   0  0  0  0  0  0
  -22.7269  -10.2142   20.3076 C   0  0  0  0  0  0
  -21.6849   -6.0743   22.5288 C   0  0  0  0  0  0
  -21.4012   -6.5654   23.8229 C   0  0  0  0  0  0
  -21.3657   -5.6801   24.9184 C   0  0  0  0  0  0
  -21.6031   -4.3062   24.7220 C   0  0  0  0  0  0
  -21.8819   -3.8165   23.4337 C   0  0  0  0  0  0
  -21.9193   -4.6975   22.3402 C   0  0  0  0  0  0
  -22.7702  -13.5192   21.1902 C   0  0  0  0  0  0
  -22.1656   -4.2178   21.0964 F   0  0  0  0  0  0
  -21.5625   -3.4525   25.7730 F   0  0  0  0  0  0
  -29.7884  -14.1845   20.3129 N   0  0  0  0  0  0
  -26.2711  -12.9591   20.3132 N   0  0  0  0  0  0
  -25.9309  -11.6681   20.5657 N   0  0  0  0  0  0
  -22.0289  -12.8226   22.0449 N   0  0  0  0  0  0
  -25.3868  -15.2018   20.4214 N   0  0  0  0  0  0
  -31.5258  -15.5178   20.2096 O   0  0  0  0  0  0
  -21.6628   -6.8876   21.4245 O   0  0  0  0  0  0
  -22.3412  -14.5464   20.6686 O   0  0  0  0  0  0
  -24.6854  -31.8023   23.1516 C   0  0  0  0  0  0
  -25.9437  -32.4474   23.8085 C   0  0  1  0  0  0
  -27.2046  -26.7196   20.2329 C   0  0  0  0  0  0
  -25.6033  -33.8292   24.2019 N   0  0  0  0  0  0
  -23.5082  -30.4055   21.5045 C   0  0  2  0  0  0
  -24.9610  -28.7482   20.1224 C   0  0  0  0  0  0
  -22.7762  -29.4342   22.4728 C   0  0  0  0  0  0
  -18.0325  -28.1484   22.8462 C   0  0  0  0  0  0
  -24.1483  -36.7136   23.2636 C   0  0  0  0  0  0
  -26.0855  -30.5486   21.4014 C   0  0  0  0  0  0
  -26.1504  -29.1093   20.7657 C   0  0  0  0  0  0
  -27.2648  -28.1227   20.7841 C   0  0  0  0  0  0
  -25.9879  -26.5602   19.5282 C   0  0  0  0  0  0
  -24.9168  -27.5010   19.4797 C   0  0  0  0  0  0
  -23.7593  -29.7023   20.1386 C   0  0  0  0  0  0
  -25.4118  -36.2875   24.0295 C   0  0  1  0  0  0
  -20.5983  -28.3796   23.1165 C   0  0  2  0  0  0
  -20.6802  -26.9470   22.5402 C   0  0  0  0  0  0
  -19.5773  -26.6431   21.5230 C   0  0  0  0  0  0
  -18.1961  -26.8028   22.1634 C   0  0  0  0  0  0
  -19.1607  -28.8975   23.2787 C   0  0  0  0  0  0
  -18.9522  -30.1566   23.8845 C   0  0  0  0  0  0
  -17.6513  -30.6646   24.0613 C   0  0  0  0  0  0
  -25.9099  -34.9272   23.4974 C   0  0  0  0  0  0
  -16.5397  -29.9159   23.6372 C   0  0  0  0  0  0
  -16.7307  -28.6587   23.0372 C   0  0  0  0  0  0
  -26.4638  -31.6451   25.0680 C   0  0  0  0  0  0
  -25.3732  -31.3765   26.1318 C   0  0  0  0  0  0
  -27.0469  -30.2789   24.6457 C   0  0  0  0  0  0
  -27.6129  -32.4230   25.7517 C   0  0  0  0  0  0
  -27.5533  -37.1724   24.8479 C   0  0  0  0  0  0
  -21.4411  -29.3062   22.3498 N   0  0  0  0  0  0
  -26.4247  -37.3626   23.9408 N   0  0  0  0  0  0
  -24.7841  -30.9499   22.0751 N   0  0  0  0  0  0
  -23.4225  -28.7884   23.2996 O   0  0  0  0  0  0
  -28.1618  -25.5105   20.3141 O   0  0  0  0  0  0
  -26.5695  -34.8861   22.4565 O   0  0  0  0  0  0
  -23.5882  -32.1069   23.6489 O   0  0  0  0  0  0
  -27.3941  -20.0074   21.2821 C   0  0  0  0  0  0
  -27.9857  -20.0093   18.9027 C   0  0  0  0  0  0
  -28.8670  -22.1060   20.3928 C   0  0  0  0  0  0
  -29.6595  -18.6284   20.4690 C   0  0  0  0  0  0
  -27.9170  -23.7806   20.2937 C   0  0  0  0  0  0
  -28.5760  -20.2087   20.3072 C   0  0  0  0  0  0
  -29.4924  -16.8727   20.4329 N   0  0  0  0  0  0
  -31.4384  -13.2492   19.2394 H   0  0  0  0  0  0
  -30.5433  -12.1455   20.2292 H   0  0  0  0  0  0
  -30.0055  -11.8183   17.7827 H   0  0  0  0  0  0
  -29.5433  -13.4946   17.6503 H   0  0  0  0  0  0
  -28.1363  -11.2943   19.1810 H   0  0  0  0  0  0
  -27.4644  -12.2565   17.8897 H   0  0  0  0  0  0
  -27.4741  -14.2291   19.2605 H   0  0  0  0  0  0
  -28.8255  -12.6896   21.5293 H   0  0  0  0  0  0
  -28.1658  -14.3003   21.6481 H   0  0  0  0  0  0
  -25.2772   -9.5673   22.4805 H   0  0  0  0  0  0
  -23.9991   -7.4645   22.7514 H   0  0  0  0  0  0
  -21.0864   -8.8793   19.8982 H   0  0  0  0  0  0
  -22.3742  -10.9667   19.6176 H   0  0  0  0  0  0
  -21.2015   -7.6167   23.9742 H   0  0  0  0  0  0
  -21.1468   -6.0515   25.9082 H   0  0  0  0  0  0
  -22.0600   -2.7617   23.2823 H   0  0  0  0  0  0
  -22.3864  -11.9873   22.4879 H   0  0  0  0  0  0
  -21.0875  -13.1269   22.2584 H   0  0  0  0  0  0
  -24.6078  -15.8367   20.5509 H   0  0  0  0  0  0
  -26.1978  -15.6475   20.0150 H   0  0  0  0  0  0
  -26.7520  -32.4977   23.0816 H   0  0  0  0  0  0
  -25.0280  -33.9325   25.0253 H   0  0  0  0  0  0
  -22.8301  -31.2396   21.3095 H   0  0  0  0  0  0
  -23.3744  -35.9451   23.3297 H   0  0  0  0  0  0
  -24.3562  -36.8784   22.2039 H   0  0  0  0  0  0
  -23.7260  -37.6335   23.6713 H   0  0  0  0  0  0
  -26.2629  -31.2576   20.5924 H   0  0  0  0  0  0
  -26.9505  -30.6397   22.0456 H   0  0  0  0  0  0
  -28.1703  -28.4035   21.3080 H   0  0  0  0  0  0
  -25.8206  -25.6132   19.0338 H   0  0  0  0  0  0
  -24.0136  -27.2127   18.9632 H   0  0  0  0  0  0
  -23.9461  -30.4569   19.3733 H   0  0  0  0  0  0
  -22.8662  -29.1654   19.8142 H   0  0  0  0  0  0
  -25.1325  -36.1649   25.0778 H   0  0  0  0  0  0
  -21.0076  -28.3438   24.1298 H   0  0  0  0  0  0
  -20.5709  -26.2418   23.3640 H   0  0  0  0  0  0
  -21.6654  -26.7458   22.1212 H   0  0  0  0  0  0
  -19.6920  -25.6333   21.1287 H   0  0  0  0  0  0
  -19.6754  -27.3220   20.6752 H   0  0  0  0  0  0
  -17.4231  -26.6788   21.4039 H   0  0  0  0  0  0
  -18.0343  -26.0211   22.9065 H   0  0  0  0  0  0
  -19.7991  -30.7413   24.2203 H   0  0  0  0  0  0
  -17.5054  -31.6319   24.5237 H   0  0  0  0  0  0
  -15.5397  -30.3057   23.7718 H   0  0  0  0  0  0
  -15.8706  -28.0894   22.7117 H   0  0  0  0  0  0
  -24.6030  -30.6947   25.7711 H   0  0  0  0  0  0
  -24.8778  -32.2942   26.4460 H   0  0  0  0  0  0
  -25.7970  -30.9210   27.0269 H   0  0  0  0  0  0
  -26.3110  -29.6496   24.1437 H   0  0  0  0  0  0
  -27.3925  -29.7147   25.5128 H   0  0  0  0  0  0
  -27.9109  -30.3920   23.9906 H   0  0  0  0  0  0
  -27.2764  -33.3624   26.1904 H   0  0  0  0  0  0
  -28.4104  -32.6587   25.0464 H   0  0  0  0  0  0
  -28.0612  -31.8428   26.5591 H   0  0  0  0  0  0
  -28.2568  -38.0001   24.7458 H   0  0  0  0  0  0
  -28.1022  -36.2529   24.6406 H   0  0  0  0  0  0
  -27.2238  -37.1469   25.8880 H   0  0  0  0  0  0
  -20.9689  -29.8724   21.6591 H   0  0  0  0  0  0
  -26.0090  -38.2667   24.1433 H   0  0  0  0  0  0
  -27.0081  -18.9856   21.2663 H   0  0  0  0  0  0
  -26.5550  -20.6577   21.0183 H   0  0  0  0  0  0
  -27.6594  -20.2527   22.3100 H   0  0  0  0  0  0
  -27.4500  -19.0610   18.8330 H   0  0  0  0  0  0
  -28.7740  -19.9932   18.1509 H   0  0  0  0  0  0
  -27.2758  -20.7926   18.6323 H   0  0  0  0  0  0
  -29.6406  -22.2510   19.6423 H   0  0  0  0  0  0
  -29.4028  -22.1900   21.3386 H   0  0  0  0  0  0
  -30.1969  -18.7848   21.4075 H   0  0  0  0  0  0
  -30.4228  -18.7844   19.7095 H   0  0  0  0  0  0
  -27.2874  -23.6535   19.4154 H   0  0  0  0  0  0
  -27.2087  -23.6801   21.1192 H   0  0  0  0  0  0
  -28.5167  -16.6291   20.5106 H   0  0  0  0  0  0
  1 25  1  0  0  0
  1 30  2  0  0  0
  1 77  1  0  0  0
  2  3  1  0  0  0
  2 25  1  0  0  0
  2 78  1  0  0  0
  2 79  1  0  0  0
  3  4  1  0  0  0
  3 80  1  0  0  0
  3 81  1  0  0  0
  4  5  1  0  0  0
  4 82  1  0  0  0
  4 83  1  0  0  0
  5  6  1  0  0  0
  5 26  1  0  0  0
  5 84  1  0  0  0
  6 25  1  0  0  0
  6 85  1  0  0  0
  6 86  1  0  0  0
  7  8  2  0  0  0
  7 26  1  0  0  0
  7 29  1  0  0  0
  8  9  1  0  0  0
  8 22  1  0  0  0
  9 10  1  0  0  0
  9 27  2  0  0  0
 10 11  2  0  0  0
 10 15  1  0  0  0
 11 12  1  0  0  0
 11 87  1  0  0  0
 12 13  2  0  0  0
 12 88  1  0  0  0
 13 14  1  0  0  0
 13 31  1  0  0  0
 14 15  2  0  0  0
 14 89  1  0  0  0
 15 90  1  0  0  0
 16 17  2  0  0  0
 16 21  1  0  0  0
 16 31  1  0  0  0
 17 18  1  0  0  0
 17 91  1  0  0  0
 18 19  2  0  0  0
 18 92  1  0  0  0
 19 20  1  0  0  0
 19 24  1  0  0  0
 20 21  2  0  0  0
 20 93  1  0  0  0
 21 23  1  0  0  0
 22 28  1  0  0  0
 22 32  2  0  0  0
 26 27  1  0  0  0
 28 94  1  0  0  0
 28 95  1  0  0  0
 29 96  1  0  0  0
 29 97  1  0  0  0
 33 34  1  0  0  0
 33 66  1  0  0  0
 33 70  2  0  0  0
 34 36  1  0  0  0
 34 59  1  0  0  0
 34 98  1  0  0  0
 35 44  2  0  0  0
 35 45  1  0  0  0
 35 68  1  0  0  0
 36 56  1  0  0  0
 36 99  1  0  0  0
 37 39  1  0  0  0
 37 47  1  0  0  0
 37 66  1  0  0  0
 37100  1  0  0  0
 38 43  2  0  0  0
 38 46  1  0  0  0
 38 47  1  0  0  0
 39 64  1  0  0  0
 39 67  2  0  0  0
 40 52  1  0  0  0
 40 53  2  0  0  0
 40 58  1  0  0  0
 41101  1  0  0  0
 41102  1  0  0  0
 41103  1  0  0  0
 41 48  1  0  0  0
 42 43  1  0  0  0
 42 66  1  0  0  0
 42104  1  0  0  0
 42105  1  0  0  0
 43 44  1  0  0  0
 44106  1  0  0  0
 45 46  2  0  0  0
 45107  1  0  0  0
 46108  1  0  0  0
 47109  1  0  0  0
 47110  1  0  0  0
 48 56  1  0  0  0
 48 65  1  0  0  0
 48111  1  0  0  0
 49 50  1  0  0  0
 49 53  1  0  0  0
 49 64  1  0  0  0
 49112  1  0  0  0
 50 51  1  0  0  0
 50113  1  0  0  0
 50114  1  0  0  0
 51 52  1  0  0  0
 51115  1  0  0  0
 51116  1  0  0  0
 52117  1  0  0  0
 52118  1  0  0  0
 53 54  1  0  0  0
 54 55  2  0  0  0
 54119  1  0  0  0
 55 57  1  0  0  0
 55120  1  0  0  0
 56 69  2  0  0  0
 57 58  2  0  0  0
 57121  1  0  0  0
 58122  1  0  0  0
 59 60  1  0  0  0
 59 61  1  0  0  0
 59 62  1  0  0  0
 60123  1  0  0  0
 60124  1  0  0  0
 60125  1  0  0  0
 61126  1  0  0  0
 61127  1  0  0  0
 61128  1  0  0  0
 62129  1  0  0  0
 62130  1  0  0  0
 62131  1  0  0  0
 63 65  1  0  0  0
 63132  1  0  0  0
 63133  1  0  0  0
 63134  1  0  0  0
 64135  1  0  0  0
 65136  1  0  0  0
 68 75  1  0  0  0
 71137  1  0  0  0
 71138  1  0  0  0
 71139  1  0  0  0
 71 76  1  0  0  0
 72 76  1  0  0  0
 72140  1  0  0  0
 72141  1  0  0  0
 72142  1  0  0  0
 73 75  1  0  0  0
 73 76  1  0  0  0
 73143  1  0  0  0
 73144  1  0  0  0
 74 76  1  0  0  0
 74 77  1  0  0  0
 74145  1  0  0  0
 74146  1  0  0  0
 75147  1  0  0  0
 75148  1  0  0  0
 77149  1  0  0  0
M  ISO  4   1 100  68 101  75 101  77 100
M  END
> <chiral flag>
0

> <version>
0

> <s_m_source_file>
/data/baiqing/PycharmProjects/Reinvent-master-3.2/result/LINK_invent/BTK/process_docking_weight1_custom_sum_contain_oxygen_bond_distance_aromatic_linkinvent_7_9_3/rearranged_h_0101.sdf

> <i_m_source_file_index>
41

> <r_mmod_Potential_Energy-OPLS-2005>
2263.390625

> <r_mmod_Stretch_Energy-OPLS-2005>
1094.16040039062

> <r_mmod_Bend_Energy-OPLS-2005>
604.043151855469

> <r_mmod_Torsional_Energy-OPLS-2005>
227.648651123047

> <r_mmod_Improper_Torsional_Energy-OPLS-2005>
3.4969596862793

> <r_mmod_Van_der_Waal_Energy-OPLS-2005>
105.44490814209

> <r_mmod_Electrostatic_Energy-OPLS-2005>
-385.550170898438

> <r_mmod_Solvation_Energy-OPLS-2005>
-207.854522705078

> <b_mmod_Minimization_Converged-OPLS-2005>
0

> <r_mmod_RMS_Derivative-OPLS-2005>
5.92256784439087

$$$$
41
                    3D
 Structure written by MMmdl.
168176  0  0  1  0            999 V2000
  -30.6987  -14.5869   20.4478 C   0  0  0  0  0  0
  -30.4147  -12.3545   19.4466 C   0  0  0  0  0  0
  -29.4931  -12.4585   18.2160 C   0  0  0  0  0  0
  -28.0160  -12.3269   18.6330 C   0  0  0  0  0  0
  -27.6429  -13.2263   19.8427 C   0  0  2  0  0  0
  -28.6906  -13.1412   20.9742 C   0  0  0  0  0  0
  -25.2538  -13.8232   20.5684 C   0  0  0  0  0  0
  -24.1814  -13.0466   20.9198 C   0  0  0  0  0  0
  -24.6385  -11.6945   20.8733 C   0  0  0  0  0  0
  -23.9056  -10.4310   21.0387 C   0  0  0  0  0  0
  -24.3612   -9.4221   21.9171 C   0  0  0  0  0  0
  -23.6290   -8.2243   22.0740 C   0  0  0  0  0  0
  -22.4265   -8.0271   21.3541 C   0  0  0  0  0  0
  -21.9903   -9.0245   20.4642 C   0  0  0  0  0  0
  -22.7221  -10.2134   20.3048 C   0  0  0  0  0  0
  -21.6854   -6.0719   22.5275 C   0  0  0  0  0  0
  -21.4003   -6.5632   23.8204 C   0  0  0  0  0  0
  -21.3659   -5.6792   24.9177 C   0  0  0  0  0  0
  -21.6041   -4.3057   24.7225 C   0  0  0  0  0  0
  -21.8833   -3.8136   23.4354 C   0  0  0  0  0  0
  -21.9184   -4.6944   22.3398 C   0  0  0  0  0  0
  -22.7835  -13.5237   21.1848 C   0  0  0  0  0  0
  -22.1664   -4.2126   21.0974 F   0  0  0  0  0  0
  -21.5624   -3.4545   25.7739 F   0  0  0  0  0  0
  -30.0043  -13.4159   20.3846 N   0  0  0  0  0  0
  -26.2948  -12.9428   20.3272 N   0  0  0  0  0  0
  -25.9319  -11.6583   20.5779 N   0  0  0  0  0  0
  -22.0475  -12.8212   22.0422 N   0  0  0  0  0  0
  -25.4271  -15.1950   20.4103 N   0  0  0  0  0  0
  -31.9010  -14.6221   20.1805 O   0  0  0  0  0  0
  -21.6644   -6.8856   21.4228 O   0  0  0  0  0  0
  -22.3511  -14.5507   20.6655 O   0  0  0  0  0  0
  -24.6240  -31.8655   23.2137 C   0  0  0  0  0  0
  -25.9115  -32.4802   23.8426 C   0  0  1  0  0  0
  -27.1882  -27.3404   20.0802 C   0  0  0  0  0  0
  -25.5966  -33.8599   24.2350 N   0  0  0  0  0  0
  -23.4124  -30.4998   21.5569 C   0  0  2  0  0  0
  -24.8474  -28.9764   20.1114 C   0  0  0  0  0  0
  -22.7438  -29.4660   22.4946 C   0  0  0  0  0  0
  -18.0291  -28.1425   22.8480 C   0  0  0  0  0  0
  -24.1472  -36.7262   23.2627 C   0  0  0  0  0  0
  -25.9589  -30.7996   21.3834 C   0  0  0  0  0  0
  -26.0252  -29.4345   20.7164 C   0  0  0  0  0  0
  -27.2015  -28.6268   20.6992 C   0  0  0  0  0  0
  -25.9807  -26.9466   19.4496 C   0  0  0  0  0  0
  -24.8242  -27.7336   19.4770 C   0  0  0  0  0  0
  -23.6211  -29.8576   20.1663 C   0  0  0  0  0  0
  -25.4105  -36.3078   24.0331 C   0  0  1  0  0  0
  -20.5890  -28.3721   23.1278 C   0  0  2  0  0  0
  -20.6790  -26.9443   22.5402 C   0  0  0  0  0  0
  -19.5771  -26.6436   21.5192 C   0  0  0  0  0  0
  -18.1950  -26.7980   22.1606 C   0  0  0  0  0  0
  -19.1535  -28.8883   23.2886 C   0  0  0  0  0  0
  -18.9453  -30.1475   23.8915 C   0  0  0  0  0  0
  -17.6456  -30.6620   24.0579 C   0  0  0  0  0  0
  -25.9061  -34.9455   23.5122 C   0  0  0  0  0  0
  -16.5353  -29.9118   23.6348 C   0  0  0  0  0  0
  -16.7271  -28.6546   23.0350 C   0  0  0  0  0  0
  -26.4536  -31.6587   25.0763 C   0  0  0  0  0  0
  -25.3775  -31.3687   26.1484 C   0  0  0  0  0  0
  -27.0367  -30.3018   24.6189 C   0  0  0  0  0  0
  -27.6144  -32.4265   25.7530 C   0  0  0  0  0  0
  -27.5552  -37.1788   24.8475 C   0  0  0  0  0  0
  -21.4157  -29.3074   22.3665 N   0  0  0  0  0  0
  -26.4272  -37.3775   23.9414 N   0  0  0  0  0  0
  -24.6846  -31.0693   22.1087 N   0  0  0  0  0  0
  -23.4184  -28.8154   23.2986 O   0  0  0  0  0  0
  -28.2863  -26.4641   20.1098 O   0  0  0  0  0  0
  -26.5583  -34.8907   22.4664 O   0  0  0  0  0  0
  -23.5419  -32.1445   23.7513 O   0  0  0  0  0  0
  -30.0616  -20.8136   19.3757 C   0  0  0  0  0  0
  -28.7379  -18.7236   20.6957 C   0  0  0  0  0  0
  -30.6479  -19.5239   19.4490 C   0  0  0  0  0  0
  -28.8088  -21.1011   19.9573 C   0  0  0  0  0  0
  -28.1497  -20.0232   20.6296 C   0  0  0  0  0  0
  -29.9884  -18.4380   20.1010 C   0  0  0  0  0  0
  -32.0175  -19.3396   18.8142 C   0  0  0  0  0  0
  -25.4286  -21.1132   23.2452 C   0  0  0  0  0  0
  -27.8541  -20.5111   23.5949 C   0  0  0  0  0  0
  -28.1551  -22.4949   19.7109 C   0  0  0  0  0  0
  -26.7816  -20.2051   21.2803 C   0  0  0  0  0  0
  -30.6910  -17.0442   20.1747 C   0  0  0  0  0  0
  -28.8917  -23.8322   20.1083 C   0  0  0  0  0  0
  -27.9550  -25.0594   19.8185 C   0  0  0  0  0  0
  -26.8163  -21.0318   22.5874 C   0  0  0  0  0  0
  -30.0066  -15.7608   20.5211 N   0  0  0  0  0  0
  -31.4595  -12.4423   19.1394 H   0  0  0  0  0  0
  -30.3280  -11.3754   19.9176 H   0  0  0  0  0  0
  -29.7471  -11.6787   17.4967 H   0  0  0  0  0  0
  -29.6582  -13.4081   17.7065 H   0  0  0  0  0  0
  -27.8465  -11.2794   18.8861 H   0  0  0  0  0  0
  -27.3638  -12.5517   17.7873 H   0  0  0  0  0  0
  -27.6473  -14.2479   19.4649 H   0  0  0  0  0  0
  -28.6880  -12.1580   21.4444 H   0  0  0  0  0  0
  -28.4627  -13.8611   21.7619 H   0  0  0  0  0  0
  -25.2762   -9.5699   22.4755 H   0  0  0  0  0  0
  -23.9993   -7.4638   22.7475 H   0  0  0  0  0  0
  -21.0829   -8.8763   19.8962 H   0  0  0  0  0  0
  -22.3665  -10.9669   19.6161 H   0  0  0  0  0  0
  -21.2006   -7.6145   23.9693 H   0  0  0  0  0  0
  -21.1465   -6.0531   25.9075 H   0  0  0  0  0  0
  -22.0608   -2.7593   23.2864 H   0  0  0  0  0  0
  -22.4095  -11.9894   22.4834 H   0  0  0  0  0  0
  -21.1085  -13.1226   22.2598 H   0  0  0  0  0  0
  -24.6687  -15.8578   20.5270 H   0  0  0  0  0  0
  -26.2782  -15.6267   20.0737 H   0  0  0  0  0  0
  -26.7168  -32.5524   23.1167 H   0  0  0  0  0  0
  -25.0196  -33.9809   25.0543 H   0  0  0  0  0  0
  -22.7064  -31.3236   21.4294 H   0  0  0  0  0  0
  -23.3761  -35.9561   23.3310 H   0  0  0  0  0  0
  -24.3551  -36.8850   22.2027 H   0  0  0  0  0  0
  -23.7197  -37.6461   23.6633 H   0  0  0  0  0  0
  -26.0925  -31.5645   20.6177 H   0  0  0  0  0  0
  -26.8405  -30.8427   22.0107 H   0  0  0  0  0  0
  -28.1021  -28.9709   21.1859 H   0  0  0  0  0  0
  -25.8607  -26.0094   18.9290 H   0  0  0  0  0  0
  -23.9229  -27.3695   19.0042 H   0  0  0  0  0  0
  -23.7503  -30.6465   19.4259 H   0  0  0  0  0  0
  -22.7363  -29.3004   19.8535 H   0  0  0  0  0  0
  -25.1278  -36.1924   25.0819 H   0  0  0  0  0  0
  -21.0014  -28.3308   24.1382 H   0  0  0  0  0  0
  -20.5685  -26.2319   23.3601 H   0  0  0  0  0  0
  -21.6659  -26.7487   22.1170 H   0  0  0  0  0  0
  -19.6917  -25.6343   21.1215 H   0  0  0  0  0  0
  -19.6713  -27.3260   20.6738 H   0  0  0  0  0  0
  -17.4198  -26.6696   21.4033 H   0  0  0  0  0  0
  -18.0351  -26.0154   22.9037 H   0  0  0  0  0  0
  -19.7917  -30.7292   24.2299 H   0  0  0  0  0  0
  -17.5013  -31.6306   24.5165 H   0  0  0  0  0  0
  -15.5350  -30.3026   23.7699 H   0  0  0  0  0  0
  -15.8673  -28.0896   22.7054 H   0  0  0  0  0  0
  -24.6024  -30.6951   25.7795 H   0  0  0  0  0  0
  -24.8895  -32.2837   26.4867 H   0  0  0  0  0  0
  -25.8134  -30.8909   27.0279 H   0  0  0  0  0  0
  -26.2927  -29.6783   24.1220 H   0  0  0  0  0  0
  -27.4060  -29.7261   25.4691 H   0  0  0  0  0  0
  -27.8817  -30.4305   23.9415 H   0  0  0  0  0  0
  -27.2847  -33.3603   26.2107 H   0  0  0  0  0  0
  -28.3999  -32.6728   25.0363 H   0  0  0  0  0  0
  -28.0769  -31.8350   26.5450 H   0  0  0  0  0  0
  -28.2599  -38.0062   24.7547 H   0  0  0  0  0  0
  -28.1031  -36.2611   24.6301 H   0  0  0  0  0  0
  -27.2288  -37.1425   25.8883 H   0  0  0  0  0  0
  -20.9301  -29.8784   21.6881 H   0  0  0  0  0  0
  -26.0155  -38.2823   24.1510 H   0  0  0  0  0  0
  -30.5716  -21.6029   18.8405 H   0  0  0  0  0  0
  -28.2204  -17.9337   21.2233 H   0  0  0  0  0  0
  -31.9964  -18.5879   18.0253 H   0  0  0  0  0  0
  -32.7480  -19.0386   19.5653 H   0  0  0  0  0  0
  -32.3692  -20.2677   18.3625 H   0  0  0  0  0  0
  -25.4511  -21.7894   24.1036 H   0  0  0  0  0  0
  -25.1052  -20.1340   23.6028 H   0  0  0  0  0  0
  -24.6691  -21.4805   22.5526 H   0  0  0  0  0  0
  -27.8938  -21.1585   24.4697 H   0  0  0  0  0  0
  -28.8596  -20.4855   23.1720 H   0  0  0  0  0  0
  -27.6016  -19.5052   23.9318 H   0  0  0  0  0  0
  -27.1725  -22.5256   20.1711 H   0  0  0  0  0  0
  -27.9290  -22.5468   18.6465 H   0  0  0  0  0  0
  -26.1007  -20.6376   20.5461 H   0  0  0  0  0  0
  -26.3666  -19.2190   21.4987 H   0  0  0  0  0  0
  -31.1253  -16.8757   19.1877 H   0  0  0  0  0  0
  -31.5373  -17.1639   20.8533 H   0  0  0  0  0  0
  -29.8232  -23.9246   19.5466 H   0  0  0  0  0  0
  -29.1438  -23.8030   21.1692 H   0  0  0  0  0  0
  -27.7051  -24.9921   18.7576 H   0  0  0  0  0  0
  -27.0489  -24.8362   20.3855 H   0  0  0  0  0  0
  -27.1133  -22.0504   22.3399 H   0  0  0  0  0  0
  -29.0039  -15.7460   20.6214 H   0  0  0  0  0  0
  1 25  1  0  0  0
  1 30  2  0  0  0
  1 86  1  0  0  0
  2  3  1  0  0  0
  2 25  1  0  0  0
  2 87  1  0  0  0
  2 88  1  0  0  0
  3  4  1  0  0  0
  3 89  1  0  0  0
  3 90  1  0  0  0
  4  5  1  0  0  0
  4 91  1  0  0  0
  4 92  1  0  0  0
  5  6  1  0  0  0
  5 26  1  0  0  0
  5 93  1  0  0  0
  6 25  1  0  0  0
  6 94  1  0  0  0
  6 95  1  0  0  0
  7  8  2  0  0  0
  7 26  1  0  0  0
  7 29  1  0  0  0
  8  9  1  0  0  0
  8 22  1  0  0  0
  9 10  1  0  0  0
  9 27  2  0  0  0
 10 11  2  0  0  0
 10 15  1  0  0  0
 11 12  1  0  0  0
 11 96  1  0  0  0
 12 13  2  0  0  0
 12 97  1  0  0  0
 13 14  1  0  0  0
 13 31  1  0  0  0
 14 15  2  0  0  0
 14 98  1  0  0  0
 15 99  1  0  0  0
 16 17  2  0  0  0
 16 21  1  0  0  0
 16 31  1  0  0  0
 17 18  1  0  0  0
 17100  1  0  0  0
 18 19  2  0  0  0
 18101  1  0  0  0
 19 20  1  0  0  0
 19 24  1  0  0  0
 20 21  2  0  0  0
 20102  1  0  0  0
 21 23  1  0  0  0
 22 28  1  0  0  0
 22 32  2  0  0  0
 26 27  1  0  0  0
 28103  1  0  0  0
 28104  1  0  0  0
 29105  1  0  0  0
 29106  1  0  0  0
 33 34  1  0  0  0
 33 66  1  0  0  0
 33 70  2  0  0  0
 34 36  1  0  0  0
 34 59  1  0  0  0
 34107  1  0  0  0
 35 44  2  0  0  0
 35 45  1  0  0  0
 35 68  1  0  0  0
 36 56  1  0  0  0
 36108  1  0  0  0
 37 39  1  0  0  0
 37 47  1  0  0  0
 37 66  1  0  0  0
 37109  1  0  0  0
 38 43  2  0  0  0
 38 46  1  0  0  0
 38 47  1  0  0  0
 39 64  1  0  0  0
 39 67  2  0  0  0
 40 52  1  0  0  0
 40 53  2  0  0  0
 40 58  1  0  0  0
 41110  1  0  0  0
 41111  1  0  0  0
 41112  1  0  0  0
 41 48  1  0  0  0
 42 43  1  0  0  0
 42 66  1  0  0  0
 42113  1  0  0  0
 42114  1  0  0  0
 43 44  1  0  0  0
 44115  1  0  0  0
 45 46  2  0  0  0
 45116  1  0  0  0
 46117  1  0  0  0
 47118  1  0  0  0
 47119  1  0  0  0
 48 56  1  0  0  0
 48 65  1  0  0  0
 48120  1  0  0  0
 49 50  1  0  0  0
 49 53  1  0  0  0
 49 64  1  0  0  0
 49121  1  0  0  0
 50 51  1  0  0  0
 50122  1  0  0  0
 50123  1  0  0  0
 51 52  1  0  0  0
 51124  1  0  0  0
 51125  1  0  0  0
 52126  1  0  0  0
 52127  1  0  0  0
 53 54  1  0  0  0
 54 55  2  0  0  0
 54128  1  0  0  0
 55 57  1  0  0  0
 55129  1  0  0  0
 56 69  2  0  0  0
 57 58  2  0  0  0
 57130  1  0  0  0
 58131  1  0  0  0
 59 60  1  0  0  0
 59 61  1  0  0  0
 59 62  1  0  0  0
 60132  1  0  0  0
 60133  1  0  0  0
 60134  1  0  0  0
 61135  1  0  0  0
 61136  1  0  0  0
 61137  1  0  0  0
 62138  1  0  0  0
 62139  1  0  0  0
 62140  1  0  0  0
 63 65  1  0  0  0
 63141  1  0  0  0
 63142  1  0  0  0
 63143  1  0  0  0
 64144  1  0  0  0
 65145  1  0  0  0
 68 84  1  0  0  0
 71 73  2  0  0  0
 71 74  1  0  0  0
 71146  1  0  0  0
 72 75  1  0  0  0
 72 76  2  0  0  0
 72147  1  0  0  0
 73 76  1  0  0  0
 73 77  1  0  0  0
 74 75  2  0  0  0
 74 80  1  0  0  0
 75 81  1  0  0  0
 76 82  1  0  0  0
 77148  1  0  0  0
 77149  1  0  0  0
 77150  1  0  0  0
 78151  1  0  0  0
 78152  1  0  0  0
 78153  1  0  0  0
 78 85  1  0  0  0
 79 85  1  0  0  0
 79154  1  0  0  0
 79155  1  0  0  0
 79156  1  0  0  0
 80 83  1  0  0  0
 80157  1  0  0  0
 80158  1  0  0  0
 81 85  1  0  0  0
 81159  1  0  0  0
 81160  1  0  0  0
 82 86  1  0  0  0
 82161  1  0  0  0
 82162  1  0  0  0
 83 84  1  0  0  0
 83163  1  0  0  0
 83164  1  0  0  0
 84165  1  0  0  0
 84166  1  0  0  0
 85167  1  0  0  0
 86168  1  0  0  0
M  ISO  4   1 100  68 101  84 101  86 100
M  END
> <chiral flag>
0

> <version>
0

> <s_m_source_file>
/data/baiqing/PycharmProjects/Reinvent-master-3.2/result/LINK_invent/BTK/process_docking_weight1_custom_sum_contain_oxygen_bond_distance_aromatic_linkinvent_7_9_3/rearranged_h_0101.sdf

> <i_m_source_file_index>
42

> <r_mmod_Potential_Energy-OPLS-2005>
19.8397369384766

> <r_mmod_Stretch_Energy-OPLS-2005>
64.3795928955078

> <r_mmod_Bend_Energy-OPLS-2005>
147.94287109375

> <r_mmod_Torsional_Energy-OPLS-2005>
203.869995117188

> <r_mmod_Improper_Torsional_Energy-OPLS-2005>
7.71381616592407

> <r_mmod_Van_der_Waal_Energy-OPLS-2005>
165.240570068359

> <r_mmod_Electrostatic_Energy-OPLS-2005>
-421.312469482422

> <r_mmod_Solvation_Energy-OPLS-2005>
-198.221542358398

> <b_mmod_Minimization_Converged-OPLS-2005>
0

> <r_mmod_RMS_Derivative-OPLS-2005>
4.31625890731812

$$$$
42
                    3D
 Structure written by MMmdl.
189197  0  0  1  0            999 V2000
  -29.1687  -13.8208   21.5230 C   0  0  0  0  0  0
  -30.4534  -12.5405   19.5894 C   0  0  0  0  0  0
  -29.7088  -12.6271   18.1820 C   0  0  0  0  0  0
  -28.1747  -12.3604   18.1651 C   0  0  0  0  0  0
  -27.7112  -12.9118   19.4631 C   0  0  2  0  0  0
  -28.4336  -12.0082   20.5052 C   0  0  0  0  0  0
  -25.6311  -14.0255   20.1803 C   0  0  0  0  0  0
  -24.6424  -13.5247   20.8585 C   0  0  0  0  0  0
  -24.7058  -11.9744   20.4181 C   0  0  0  0  0  0
  -24.0504  -10.5118   20.6298 C   0  0  0  0  0  0
  -24.4961   -9.5042   21.5675 C   0  0  0  0  0  0
  -23.7433   -8.3312   21.9065 C   0  0  0  0  0  0
  -22.4918   -8.0830   21.2914 C   0  0  0  0  0  0
  -22.0582   -9.0236   20.3408 C   0  0  0  0  0  0
  -22.8300  -10.1617   19.9981 C   0  0  0  0  0  0
  -21.7412   -6.1145   22.5297 C   0  0  0  0  0  0
  -21.4470   -6.5906   23.8256 C   0  0  0  0  0  0
  -21.3859   -5.6962   24.9141 C   0  0  0  0  0  0
  -21.6105   -4.3218   24.7127 C   0  0  0  0  0  0
  -21.8840   -3.8367   23.4222 C   0  0  0  0  0  0
  -21.9405   -4.7277   22.3330 C   0  0  0  0  0  0
  -23.8121  -14.5987   21.9047 C   0  0  0  0  0  0
  -22.1710   -4.2402   21.0889 F   0  0  0  0  0  0
  -21.5605   -3.4641   25.7593 F   0  0  0  0  0  0
  -29.5508  -12.7464   20.7828 N   0  0  0  0  0  0
  -26.3608  -12.9407   19.7678 N   0  0  0  0  0  0
  -25.8522  -11.7384   19.9369 N   0  0  0  0  0  0
  -23.3924  -14.4005   23.1449 N   0  0  0  0  0  0
  -26.0306  -15.3372   20.0831 N   0  0  0  0  0  0
  -30.0668  -14.7167   21.2860 O   0  0  0  0  0  0
  -21.7119   -6.9472   21.4328 O   0  0  0  0  0  0
  -22.8603  -15.3351   21.7254 O   0  0  0  0  0  0
  -24.6633  -31.8323   23.1934 C   0  0  0  0  0  0
  -25.9359  -32.4598   23.8288 C   0  0  1  0  0  0
  -26.7917  -26.8174   20.0889 C   0  0  0  0  0  0
  -25.6051  -33.8437   24.2157 N   0  0  0  0  0  0
  -23.4508  -30.4915   21.5517 C   0  0  2  0  0  0
  -24.8231  -28.9291   20.0568 C   0  0  0  0  0  0
  -22.7564  -29.4574   22.4755 C   0  0  0  0  0  0
  -18.0323  -28.1401   22.8469 C   0  0  0  0  0  0
  -24.1500  -36.7200   23.2649 C   0  0  0  0  0  0
  -26.0290  -30.5730   21.4526 C   0  0  0  0  0  0
  -26.0117  -29.1811   20.7522 C   0  0  0  0  0  0
  -27.0153  -28.1102   20.7893 C   0  0  0  0  0  0
  -25.7310  -26.8548   19.1978 C   0  0  0  0  0  0
  -24.7139  -27.7979   19.2597 C   0  0  0  0  0  0
  -23.6590  -29.8934   20.1452 C   0  0  0  0  0  0
  -25.4146  -36.2984   24.0310 C   0  0  1  0  0  0
  -20.5937  -28.3754   23.1162 C   0  0  2  0  0  0
  -20.6797  -26.9439   22.5376 C   0  0  0  0  0  0
  -19.5754  -26.6371   21.5205 C   0  0  0  0  0  0
  -18.1947  -26.7938   22.1633 C   0  0  0  0  0  0
  -19.1579  -28.8891   23.2824 C   0  0  0  0  0  0
  -18.9503  -30.1475   23.8860 C   0  0  0  0  0  0
  -17.6496  -30.6598   24.0567 C   0  0  0  0  0  0
  -25.9117  -34.9361   23.5044 C   0  0  0  0  0  0
  -16.5386  -29.9090   23.6342 C   0  0  0  0  0  0
  -16.7305  -28.6513   23.0364 C   0  0  0  0  0  0
  -26.4567  -31.6559   25.0842 C   0  0  0  0  0  0
  -25.3671  -31.3872   26.1492 C   0  0  0  0  0  0
  -27.0479  -30.2901   24.6707 C   0  0  0  0  0  0
  -27.6053  -32.4390   25.7615 C   0  0  0  0  0  0
  -27.5573  -37.1775   24.8464 C   0  0  0  0  0  0
  -21.4257  -29.3085   22.3494 N   0  0  0  0  0  0
  -26.4286  -37.3724   23.9400 N   0  0  0  0  0  0
  -24.7407  -30.9951   22.1142 N   0  0  0  0  0  0
  -23.4180  -28.8049   23.2884 O   0  0  0  0  0  0
  -27.3038  -25.4359   20.1968 O   0  0  0  0  0  0
  -26.5705  -34.8871   22.4626 O   0  0  0  0  0  0
  -23.5725  -32.1394   23.7022 O   0  0  0  0  0  0
  -21.8797  -10.7581   23.8570 C   0  0  0  0  0  0
  -21.7900  -11.5228   22.7096 C   0  0  0  0  0  0
  -23.0981  -10.5918   24.4993 C   0  0  0  0  0  0
  -22.8859  -12.2012   22.1585 C   0  0  0  0  0  0
  -24.3291  -11.1627   24.0845 C   0  0  0  0  0  0
  -24.4470  -12.0872   22.9690 C   0  0  0  0  0  0
  -27.5945  -13.8456   25.0208 C   0  0  0  0  0  0
  -26.4243   -9.2923   28.3692 C   0  0  0  0  0  0
  -27.2829   -8.2063   26.2327 C   0  0  0  0  0  0
  -22.1380  -13.1669   20.6103 C   0  0  0  0  0  0
  -25.5644  -10.6322   24.8426 C   0  0  0  0  0  0
  -26.2723  -13.7671   24.2266 C   0  0  0  0  0  0
  -22.6561  -14.6963   19.3905 C   0  0  0  0  0  0
  -25.3258   -9.8203   26.1376 C   0  0  0  0  0  0
  -23.1748  -16.5677   19.6066 C   0  0  0  0  0  0
  -26.0170  -22.3266   20.1281 C   0  0  0  0  0  0
  -23.9698  -18.0752   18.9435 C   0  0  0  0  0  0
  -25.1352  -20.9480   19.2754 C   0  0  0  0  0  0
  -26.3813  -24.0815   19.7198 C   0  0  0  0  0  0
  -26.2967  -12.8601   22.9551 C   0  0  2  0  0  0
  -26.6357   -9.4546   26.8570 C   0  0  0  0  0  0
  -27.6917  -13.7742   22.1567 N   0  0  0  0  0  0
  -24.5661  -19.4315   19.7788 N   0  3  0  0  0  0
  -31.2882  -13.2435   19.6039 H   0  0  0  0  0  0
  -30.9100  -11.5545   19.6843 H   0  0  0  0  0  0
  -30.2077  -11.9981   17.4444 H   0  0  0  0  0  0
  -29.8551  -13.6442   17.8195 H   0  0  0  0  0  0
  -27.9490  -11.2977   18.0580 H   0  0  0  0  0  0
  -27.7070  -12.8688   17.3194 H   0  0  0  0  0  0
  -28.0069  -13.9608   19.3803 H   0  0  0  0  0  0
  -28.7053  -11.0356   20.0843 H   0  0  0  0  0  0
  -27.8903  -11.6128   21.3584 H   0  0  0  0  0  0
  -25.4418   -9.6640   22.0586 H   0  0  0  0  0  0
  -24.1529   -7.6281   22.6166 H   0  0  0  0  0  0
  -21.1299   -8.8451   19.8165 H   0  0  0  0  0  0
  -22.4671  -10.7858   19.1996 H   0  0  0  0  0  0
  -21.2566   -7.6422   23.9829 H   0  0  0  0  0  0
  -21.1687   -6.0660   25.9060 H   0  0  0  0  0  0
  -22.0414   -2.7799   23.2637 H   0  0  0  0  0  0
  -23.5915  -13.5053   23.5792 H   0  0  0  0  0  0
  -22.6816  -15.0063   23.5159 H   0  0  0  0  0  0
  -25.4813  -16.1201   20.4006 H   0  0  0  0  0  0
  -26.8447  -15.6128   19.5484 H   0  0  0  0  0  0
  -26.7372  -32.5001   23.0918 H   0  0  0  0  0  0
  -25.0104  -33.9549   25.0240 H   0  0  0  0  0  0
  -22.7678  -31.3368   21.4362 H   0  0  0  0  0  0
  -23.3788  -35.9500   23.3287 H   0  0  0  0  0  0
  -24.3576  -36.8867   22.2064 H   0  0  0  0  0  0
  -23.7215  -37.6373   23.6711 H   0  0  0  0  0  0
  -26.2616  -31.3226   20.6953 H   0  0  0  0  0  0
  -26.8808  -30.5745   22.1204 H   0  0  0  0  0  0
  -27.8619  -28.2073   21.4539 H   0  0  0  0  0  0
  -25.5581  -26.0527   18.5009 H   0  0  0  0  0  0
  -23.8301  -27.6548   18.6526 H   0  0  0  0  0  0
  -23.8454  -30.7034   19.4384 H   0  0  0  0  0  0
  -22.7429  -29.4092   19.8023 H   0  0  0  0  0  0
  -25.1337  -36.1812   25.0805 H   0  0  0  0  0  0
  -21.0076  -28.3386   24.1267 H   0  0  0  0  0  0
  -20.5687  -26.2388   23.3626 H   0  0  0  0  0  0
  -21.6660  -26.7415   22.1178 H   0  0  0  0  0  0
  -19.6909  -25.6272   21.1262 H   0  0  0  0  0  0
  -19.6684  -27.3161   20.6718 H   0  0  0  0  0  0
  -17.4206  -26.6676   21.4054 H   0  0  0  0  0  0
  -18.0355  -26.0101   22.9050 H   0  0  0  0  0  0
  -19.7987  -30.7300   24.2211 H   0  0  0  0  0  0
  -17.5066  -31.6280   24.5167 H   0  0  0  0  0  0
  -15.5388  -30.2993   23.7685 H   0  0  0  0  0  0
  -15.8709  -28.0825   22.7091 H   0  0  0  0  0  0
  -24.5826  -30.7249   25.7819 H   0  0  0  0  0  0
  -24.8888  -32.3102   26.4789 H   0  0  0  0  0  0
  -25.7868  -30.9113   27.0362 H   0  0  0  0  0  0
  -26.3162  -29.6508   24.1764 H   0  0  0  0  0  0
  -27.3955  -29.7373   25.5440 H   0  0  0  0  0  0
  -27.9147  -30.4036   24.0198 H   0  0  0  0  0  0
  -27.2613  -33.3720   26.2099 H   0  0  0  0  0  0
  -28.3898  -32.6912   25.0468 H   0  0  0  0  0  0
  -28.0687  -31.8597   26.5611 H   0  0  0  0  0  0
  -28.2581  -38.0082   24.7517 H   0  0  0  0  0  0
  -28.1087  -36.2610   24.6299 H   0  0  0  0  0  0
  -27.2284  -37.1418   25.8866 H   0  0  0  0  0  0
  -20.9422  -29.8890   21.6770 H   0  0  0  0  0  0
  -26.0143  -38.2788   24.1409 H   0  0  0  0  0  0
  -21.0019  -10.2480   24.2263 H   0  0  0  0  0  0
  -20.8303  -11.5913   22.2186 H   0  0  0  0  0  0
  -23.0326   -9.9372   25.3514 H   0  0  0  0  0  0
  -27.4178  -14.2144   26.0312 H   0  0  0  0  0  0
  -28.3046  -14.5306   24.5585 H   0  0  0  0  0  0
  -28.0734  -12.8693   25.1062 H   0  0  0  0  0  0
  -27.3670   -9.0927   28.8784 H   0  0  0  0  0  0
  -25.7364   -8.4799   28.6082 H   0  0  0  0  0  0
  -26.0171  -10.2058   28.8059 H   0  0  0  0  0  0
  -28.2493   -7.9966   26.6895 H   0  0  0  0  0  0
  -27.4577   -8.3441   25.1645 H   0  0  0  0  0  0
  -26.6588   -7.3183   26.3518 H   0  0  0  0  0  0
  -21.6689  -12.4484   19.9517 H   0  0  0  0  0  0
  -21.2321  -13.5728   21.0641 H   0  0  0  0  0  0
  -26.2059  -11.4431   25.1527 H   0  0  0  0  0  0
  -26.1456  -10.0264   24.1483 H   0  0  0  0  0  0
  -25.9733  -14.7805   23.9504 H   0  0  0  0  0  0
  -25.4949  -13.4525   24.9206 H   0  0  0  0  0  0
  -21.7977  -14.7571   18.7237 H   0  0  0  0  0  0
  -23.4134  -14.2909   18.7182 H   0  0  0  0  0  0
  -24.7719   -8.9017   25.9420 H   0  0  0  0  0  0
  -24.7037  -10.4212   26.8041 H   0  0  0  0  0  0
  -23.9603  -16.6012   20.3422 H   0  0  0  0  0  0
  -22.2876  -16.9978   20.0733 H   0  0  0  0  0  0
  -26.9927  -21.9073   20.3737 H   0  0  0  0  0  0
  -25.5180  -22.3931   21.0964 H   0  0  0  0  0  0
  -23.2725  -18.4782   18.2072 H   0  0  0  0  0  0
  -24.8226  -17.7359   18.3560 H   0  0  0  0  0  0
  -25.7706  -20.7066   18.4259 H   0  0  0  0  0  0
  -24.2609  -21.4140   18.8249 H   0  0  0  0  0  0
  -25.3596  -24.4457   19.8095 H   0  0  0  0  0  0
  -26.5748  -24.0460   18.6471 H   0  0  0  0  0  0
  -26.8710  -11.9683   23.1801 H   0  0  0  0  0  0
  -27.3305  -10.2859   26.7372 H   0  0  0  0  0  0
  -27.4574  -14.7521   22.2495 H   0  0  0  0  0  0
  -25.3065  -19.0687   20.3535 H   0  0  0  0  0  0
  -23.8317  -19.6606   20.4274 H   0  0  0  0  0  0
  1 25  1  0  0  0
  1 30  2  0  0  0
  1 92  1  0  0  0
  2  3  1  0  0  0
  2 25  1  0  0  0
  2 94  1  0  0  0
  2 95  1  0  0  0
  3  4  1  0  0  0
  3 96  1  0  0  0
  3 97  1  0  0  0
  4  5  1  0  0  0
  4 98  1  0  0  0
  4 99  1  0  0  0
  5  6  1  0  0  0
  5 26  1  0  0  0
  5100  1  0  0  0
  6 25  1  0  0  0
  6101  1  0  0  0
  6102  1  0  0  0
  7  8  2  0  0  0
  7 26  1  0  0  0
  7 29  1  0  0  0
  8  9  1  0  0  0
  8 22  1  0  0  0
  9 10  1  0  0  0
  9 27  2  0  0  0
 10 11  2  0  0  0
 10 15  1  0  0  0
 11 12  1  0  0  0
 11103  1  0  0  0
 12 13  2  0  0  0
 12104  1  0  0  0
 13 14  1  0  0  0
 13 31  1  0  0  0
 14 15  2  0  0  0
 14105  1  0  0  0
 15106  1  0  0  0
 16 17  2  0  0  0
 16 21  1  0  0  0
 16 31  1  0  0  0
 17 18  1  0  0  0
 17107  1  0  0  0
 18 19  2  0  0  0
 18108  1  0  0  0
 19 20  1  0  0  0
 19 24  1  0  0  0
 20 21  2  0  0  0
 20109  1  0  0  0
 21 23  1  0  0  0
 22 28  1  0  0  0
 22 32  2  0  0  0
 26 27  1  0  0  0
 28110  1  0  0  0
 28111  1  0  0  0
 29112  1  0  0  0
 29113  1  0  0  0
 33 34  1  0  0  0
 33 66  1  0  0  0
 33 70  2  0  0  0
 34 36  1  0  0  0
 34 59  1  0  0  0
 34114  1  0  0  0
 35 44  2  0  0  0
 35 45  1  0  0  0
 35 68  1  0  0  0
 36 56  1  0  0  0
 36115  1  0  0  0
 37 39  1  0  0  0
 37 47  1  0  0  0
 37 66  1  0  0  0
 37116  1  0  0  0
 38 43  2  0  0  0
 38 46  1  0  0  0
 38 47  1  0  0  0
 39 64  1  0  0  0
 39 67  2  0  0  0
 40 52  1  0  0  0
 40 53  2  0  0  0
 40 58  1  0  0  0
 41117  1  0  0  0
 41118  1  0  0  0
 41119  1  0  0  0
 41 48  1  0  0  0
 42 43  1  0  0  0
 42 66  1  0  0  0
 42120  1  0  0  0
 42121  1  0  0  0
 43 44  1  0  0  0
 44122  1  0  0  0
 45 46  2  0  0  0
 45123  1  0  0  0
 46124  1  0  0  0
 47125  1  0  0  0
 47126  1  0  0  0
 48 56  1  0  0  0
 48 65  1  0  0  0
 48127  1  0  0  0
 49 50  1  0  0  0
 49 53  1  0  0  0
 49 64  1  0  0  0
 49128  1  0  0  0
 50 51  1  0  0  0
 50129  1  0  0  0
 50130  1  0  0  0
 51 52  1  0  0  0
 51131  1  0  0  0
 51132  1  0  0  0
 52133  1  0  0  0
 52134  1  0  0  0
 53 54  1  0  0  0
 54 55  2  0  0  0
 54135  1  0  0  0
 55 57  1  0  0  0
 55136  1  0  0  0
 56 69  2  0  0  0
 57 58  2  0  0  0
 57137  1  0  0  0
 58138  1  0  0  0
 59 60  1  0  0  0
 59 61  1  0  0  0
 59 62  1  0  0  0
 60139  1  0  0  0
 60140  1  0  0  0
 60141  1  0  0  0
 61142  1  0  0  0
 61143  1  0  0  0
 61144  1  0  0  0
 62145  1  0  0  0
 62146  1  0  0  0
 62147  1  0  0  0
 63 65  1  0  0  0
 63148  1  0  0  0
 63149  1  0  0  0
 63150  1  0  0  0
 64151  1  0  0  0
 65152  1  0  0  0
 68 89  1  0  0  0
 71 72  2  0  0  0
 71 73  1  0  0  0
 71153  1  0  0  0
 72 74  1  0  0  0
 72154  1  0  0  0
 73 75  2  0  0  0
 73155  1  0  0  0
 74 76  2  0  0  0
 74 80  1  0  0  0
 75 76  1  0  0  0
 75 81  1  0  0  0
 76 90  1  0  0  0
 77 82  1  0  0  0
 77156  1  0  0  0
 77157  1  0  0  0
 77158  1  0  0  0
 78159  1  0  0  0
 78160  1  0  0  0
 78161  1  0  0  0
 78 91  1  0  0  0
 79 91  1  0  0  0
 79162  1  0  0  0
 79163  1  0  0  0
 79164  1  0  0  0
 80 83  1  0  0  0
 80165  1  0  0  0
 80166  1  0  0  0
 81 84  1  0  0  0
 81167  1  0  0  0
 81168  1  0  0  0
 82169  1  0  0  0
 82170  1  0  0  0
 82 90  1  0  0  0
 83 85  1  0  0  0
 83171  1  0  0  0
 83172  1  0  0  0
 84 91  1  0  0  0
 84173  1  0  0  0
 84174  1  0  0  0
 85 87  1  0  0  0
 85175  1  0  0  0
 85176  1  0  0  0
 86 88  1  0  0  0
 86 89  1  0  0  0
 86177  1  0  0  0
 86178  1  0  0  0
 87 93  1  0  0  0
 87179  1  0  0  0
 87180  1  0  0  0
 88 93  1  0  0  0
 88181  1  0  0  0
 88182  1  0  0  0
 89183  1  0  0  0
 89184  1  0  0  0
 90 92  1  0  0  0
 90185  1  0  0  0
 91186  1  0  0  0
 92187  1  0  0  0
 93188  1  0  0  0
 93189  1  0  0  0
M  CHG  1  93   1
M  ISO  4   1 100  68 101  89 101  92 100
M  END
> <chiral flag>
0

> <version>
0

> <s_m_source_file>
/data/baiqing/PycharmProjects/Reinvent-master-3.2/result/LINK_invent/BTK/process_docking_weight1_custom_sum_contain_oxygen_bond_distance_aromatic_linkinvent_7_9_3/rearranged_h_0101.sdf

> <i_m_source_file_index>
43

> <r_mmod_Potential_Energy-OPLS-2005>
7806.19677734375

> <r_mmod_Stretch_Energy-OPLS-2005>
2665.70971679688

> <r_mmod_Bend_Energy-OPLS-2005>
1506.95446777344

> <r_mmod_Torsional_Energy-OPLS-2005>
384.838012695312

> <r_mmod_Improper_Torsional_Energy-OPLS-2005>
47.0601654052734

> <r_mmod_Van_der_Waal_Energy-OPLS-2005>
1144.51916503906

> <r_mmod_Electrostatic_Energy-OPLS-2005>
-341.842712402344

> <r_mmod_Solvation_Energy-OPLS-2005>
-447.856964111328

> <b_mmod_Minimization_Converged-OPLS-2005>
0

> <r_mmod_RMS_Derivative-OPLS-2005>
4.6786675453186

$$$$
43
                    3D
 Structure written by MMmdl.
174182  0  0  1  0            999 V2000
  -30.5843  -14.7869   20.3884 C   0  0  0  0  0  0
  -30.4249  -12.4702   19.4727 C   0  0  0  0  0  0
  -29.4917  -12.4941   18.2466 C   0  0  0  0  0  0
  -28.0204  -12.3151   18.6602 C   0  0  0  0  0  0
  -27.6266  -13.2358   19.8485 C   0  0  2  0  0  0
  -28.6792  -13.2141   20.9812 C   0  0  0  0  0  0
  -25.2401  -13.8238   20.5695 C   0  0  0  0  0  0
  -24.1744  -13.0502   20.9248 C   0  0  0  0  0  0
  -24.6317  -11.6942   20.8780 C   0  0  0  0  0  0
  -23.9003  -10.4357   21.0433 C   0  0  0  0  0  0
  -24.3601   -9.4229   21.9154 C   0  0  0  0  0  0
  -23.6321   -8.2237   22.0696 C   0  0  0  0  0  0
  -22.4287   -8.0259   21.3513 C   0  0  0  0  0  0
  -21.9905   -9.0225   20.4602 C   0  0  0  0  0  0
  -22.7182  -10.2121   20.3048 C   0  0  0  0  0  0
  -21.6883   -6.0719   22.5256 C   0  0  0  0  0  0
  -21.3991   -6.5629   23.8169 C   0  0  0  0  0  0
  -21.3698   -5.6774   24.9166 C   0  0  0  0  0  0
  -21.6083   -4.3046   24.7183 C   0  0  0  0  0  0
  -21.8831   -3.8123   23.4321 C   0  0  0  0  0  0
  -21.9193   -4.6961   22.3357 C   0  0  0  0  0  0
  -22.7763  -13.5184   21.1949 C   0  0  0  0  0  0
  -22.1660   -4.2131   21.0954 F   0  0  0  0  0  0
  -21.5680   -3.4508   25.7713 F   0  0  0  0  0  0
  -29.9688  -13.5561   20.3677 N   0  0  0  0  0  0
  -26.2861  -12.9441   20.3363 N   0  0  0  0  0  0
  -25.9266  -11.6599   20.5842 N   0  0  0  0  0  0
  -22.0466  -12.8131   22.0523 N   0  0  0  0  0  0
  -25.4171  -15.1960   20.3963 N   0  0  0  0  0  0
  -31.7993  -14.8638   20.1760 O   0  0  0  0  0  0
  -21.6685   -6.8829   21.4190 O   0  0  0  0  0  0
  -22.3426  -14.5531   20.6849 O   0  0  0  0  0  0
  -24.6332  -31.8467   23.1947 C   0  0  0  0  0  0
  -25.9149  -32.4715   23.8300 C   0  0  1  0  0  0
  -27.2309  -27.2444   20.1051 C   0  0  0  0  0  0
  -25.5906  -33.8517   24.2198 N   0  0  0  0  0  0
  -23.4343  -30.4629   21.5398 C   0  0  2  0  0  0
  -24.8879  -28.9013   20.1122 C   0  0  0  0  0  0
  -22.7510  -29.4525   22.4925 C   0  0  0  0  0  0
  -18.0290  -28.1376   22.8481 C   0  0  0  0  0  0
  -24.1493  -36.7259   23.2653 C   0  0  0  0  0  0
  -25.9862  -30.7451   21.3871 C   0  0  0  0  0  0
  -26.0581  -29.3685   20.7280 C   0  0  0  0  0  0
  -27.2293  -28.5473   20.7196 C   0  0  0  0  0  0
  -26.0384  -26.8456   19.4703 C   0  0  0  0  0  0
  -24.8872  -27.6523   19.4677 C   0  0  0  0  0  0
  -23.6555  -29.7741   20.1654 C   0  0  0  0  0  0
  -25.4123  -36.3023   24.0308 C   0  0  1  0  0  0
  -20.5901  -28.3648   23.1286 C   0  0  2  0  0  0
  -20.6787  -26.9357   22.5434 C   0  0  0  0  0  0
  -19.5770  -26.6354   21.5237 C   0  0  0  0  0  0
  -18.1934  -26.7934   22.1628 C   0  0  0  0  0  0
  -19.1563  -28.8844   23.2873 C   0  0  0  0  0  0
  -18.9472  -30.1457   23.8858 C   0  0  0  0  0  0
  -17.6463  -30.6576   24.0560 C   0  0  0  0  0  0
  -25.9033  -34.9401   23.5063 C   0  0  0  0  0  0
  -16.5345  -29.9057   23.6335 C   0  0  0  0  0  0
  -16.7280  -28.6496   23.0328 C   0  0  0  0  0  0
  -26.4483  -31.6569   25.0691 C   0  0  0  0  0  0
  -25.3687  -31.3752   26.1403 C   0  0  0  0  0  0
  -27.0355  -30.2988   24.6199 C   0  0  0  0  0  0
  -27.6025  -32.4337   25.7430 C   0  0  0  0  0  0
  -27.5575  -37.1780   24.8456 C   0  0  0  0  0  0
  -21.4219  -29.2981   22.3678 N   0  0  0  0  0  0
  -26.4286  -37.3728   23.9406 N   0  0  0  0  0  0
  -24.7046  -31.0367   22.0972 N   0  0  0  0  0  0
  -23.4246  -28.8045   23.2984 O   0  0  0  0  0  0
  -28.3376  -26.3668   20.1315 O   0  0  0  0  0  0
  -26.5632  -34.8895   22.4631 O   0  0  0  0  0  0
  -23.5445  -32.1288   23.7179 O   0  0  0  0  0  0
  -30.8499  -22.2877   20.7149 C   0  0  0  0  0  0
  -29.8426  -21.4397   20.2183 C   0  0  0  0  0  0
  -32.2141  -21.9706   20.6422 C   0  0  0  0  0  0
  -31.6208  -20.0306   19.2873 C   0  0  0  0  0  0
  -30.2694  -20.1009   19.7488 C   0  0  0  0  0  0
  -32.6145  -20.8878   19.8259 C   0  0  0  0  0  0
  -32.0151  -19.0324   18.1952 C   0  0  0  0  0  0
  -34.7785  -21.4867   18.5994 C   0  0  0  0  0  0
  -33.1617  -22.0301   22.9136 C   0  0  0  0  0  0
  -32.9455  -24.2345   21.6192 C   0  0  0  0  0  0
  -28.4073  -22.0745   20.3280 C   0  0  0  0  0  0
  -34.0957  -20.5680   19.6194 C   0  0  0  0  0  0
  -29.4940  -18.6875   19.7645 C   0  0  0  0  0  0
  -28.0567  -23.6955   20.4956 C   0  0  0  0  0  0
  -30.2658  -17.4100   20.4680 C   0  0  0  0  0  0
  -28.3671  -24.9759   19.5322 C   0  0  0  0  0  0
  -33.1976  -22.7190   21.5379 C   0  0  0  0  0  0
  -29.8044  -15.9395   20.4123 N   0  0  0  0  0  0
  -31.4533  -12.6261   19.1436 H   0  0  0  0  0  0
  -30.4021  -11.5015   19.9695 H   0  0  0  0  0  0
  -29.7675  -11.7119   17.5375 H   0  0  0  0  0  0
  -29.6131  -13.4462   17.7340 H   0  0  0  0  0  0
  -27.8646  -11.2699   18.9243 H   0  0  0  0  0  0
  -27.3645  -12.5006   17.8064 H   0  0  0  0  0  0
  -27.5960  -14.2428   19.4377 H   0  0  0  0  0  0
  -28.7282  -12.2452   21.4756 H   0  0  0  0  0  0
  -28.4258  -13.9448   21.7537 H   0  0  0  0  0  0
  -25.2713   -9.5797   22.4758 H   0  0  0  0  0  0
  -24.0094   -7.4626   22.7393 H   0  0  0  0  0  0
  -21.0845   -8.8701   19.8872 H   0  0  0  0  0  0
  -22.3579  -10.9697   19.6215 H   0  0  0  0  0  0
  -21.1926   -7.6115   23.9649 H   0  0  0  0  0  0
  -21.1560   -6.0518   25.9063 H   0  0  0  0  0  0
  -22.0583   -2.7576   23.2806 H   0  0  0  0  0  0
  -22.4117  -11.9765   22.4859 H   0  0  0  0  0  0
  -21.1074  -13.1092   22.2785 H   0  0  0  0  0  0
  -24.6545  -15.8602   20.4953 H   0  0  0  0  0  0
  -26.2595  -15.6215   20.0348 H   0  0  0  0  0  0
  -26.7213  -32.5331   23.1040 H   0  0  0  0  0  0
  -25.0013  -33.9673   25.0319 H   0  0  0  0  0  0
  -22.7319  -31.2802   21.3703 H   0  0  0  0  0  0
  -23.3738  -35.9606   23.3291 H   0  0  0  0  0  0
  -24.3570  -36.8898   22.2068 H   0  0  0  0  0  0
  -23.7269  -37.6459   23.6698 H   0  0  0  0  0  0
  -26.1196  -31.4820   20.5976 H   0  0  0  0  0  0
  -26.8732  -30.8081   22.0122 H   0  0  0  0  0  0
  -28.1311  -28.8905   21.2119 H   0  0  0  0  0  0
  -25.9635  -25.8796   18.9958 H   0  0  0  0  0  0
  -23.9889  -27.2778   18.9950 H   0  0  0  0  0  0
  -23.7769  -30.5266   19.3877 H   0  0  0  0  0  0
  -22.7838  -29.1851   19.8694 H   0  0  0  0  0  0
  -25.1316  -36.1846   25.0794 H   0  0  0  0  0  0
  -21.0002  -28.3226   24.1415 H   0  0  0  0  0  0
  -20.5687  -26.2232   23.3623 H   0  0  0  0  0  0
  -21.6637  -26.7363   22.1218 H   0  0  0  0  0  0
  -19.6910  -25.6266   21.1261 H   0  0  0  0  0  0
  -19.6748  -27.3177   20.6783 H   0  0  0  0  0  0
  -17.4219  -26.6699   21.4000 H   0  0  0  0  0  0
  -18.0286  -26.0069   22.9013 H   0  0  0  0  0  0
  -19.7933  -30.7325   24.2182 H   0  0  0  0  0  0
  -17.4986  -31.6245   24.5177 H   0  0  0  0  0  0
  -15.5343  -30.2942   23.7684 H   0  0  0  0  0  0
  -15.8688  -28.0832   22.7018 H   0  0  0  0  0  0
  -24.5843  -30.7121   25.7745 H   0  0  0  0  0  0
  -24.8888  -32.2930   26.4808 H   0  0  0  0  0  0
  -25.7975  -30.8936   27.0197 H   0  0  0  0  0  0
  -26.2965  -29.6709   24.1211 H   0  0  0  0  0  0
  -27.4035  -29.7274   25.4731 H   0  0  0  0  0  0
  -27.8822  -30.4263   23.9451 H   0  0  0  0  0  0
  -27.2639  -33.3658   26.1960 H   0  0  0  0  0  0
  -28.3833  -32.6878   25.0255 H   0  0  0  0  0  0
  -28.0691  -31.8497   26.5365 H   0  0  0  0  0  0
  -28.2577  -38.0086   24.7474 H   0  0  0  0  0  0
  -28.1075  -36.2610   24.6303 H   0  0  0  0  0  0
  -27.2276  -37.1442   25.8851 H   0  0  0  0  0  0
  -20.9447  -29.8655   21.6828 H   0  0  0  0  0  0
  -26.0134  -38.2787   24.1415 H   0  0  0  0  0  0
  -30.5484  -23.1693   21.2597 H   0  0  0  0  0  0
  -31.1482  -18.6560   17.6501 H   0  0  0  0  0  0
  -32.5943  -18.1898   18.5784 H   0  0  0  0  0  0
  -32.6257  -19.5303   17.4386 H   0  0  0  0  0  0
  -35.8404  -21.2504   18.5597 H   0  0  0  0  0  0
  -34.6751  -22.5451   18.8500 H   0  0  0  0  0  0
  -34.3731  -21.3308   17.6008 H   0  0  0  0  0  0
  -33.4343  -20.9756   22.8196 H   0  0  0  0  0  0
  -32.1506  -22.0631   23.3241 H   0  0  0  0  0  0
  -33.8372  -22.4875   23.6352 H   0  0  0  0  0  0
  -33.0012  -24.6848   20.6271 H   0  0  0  0  0  0
  -33.7026  -24.7051   22.2459 H   0  0  0  0  0  0
  -31.9812  -24.4923   22.0545 H   0  0  0  0  0  0
  -28.0970  -21.6818   21.2982 H   0  0  0  0  0  0
  -27.7709  -21.5692   19.6010 H   0  0  0  0  0  0
  -34.2196  -19.5326   19.3123 H   0  0  0  0  0  0
  -34.6184  -20.6013   20.5768 H   0  0  0  0  0  0
  -29.2647  -18.4166   18.7339 H   0  0  0  0  0  0
  -28.5123  -18.8228   20.2205 H   0  0  0  0  0  0
  -28.2983  -23.9984   21.5186 H   0  0  0  0  0  0
  -26.9634  -23.6863   20.5101 H   0  0  0  0  0  0
  -31.2928  -17.3983   20.1170 H   0  0  0  0  0  0
  -30.3495  -17.6384   21.5275 H   0  0  0  0  0  0
  -27.7525  -24.9066   18.6223 H   0  0  0  0  0  0
  -29.3894  -24.8987   19.1443 H   0  0  0  0  0  0
  -34.2052  -22.6343   21.1452 H   0  0  0  0  0  0
  -28.8107  -15.7829   20.4947 H   0  0  0  0  0  0
  1 25  1  0  0  0
  1 30  2  0  0  0
  1 88  1  0  0  0
  2  3  1  0  0  0
  2 25  1  0  0  0
  2 89  1  0  0  0
  2 90  1  0  0  0
  3  4  1  0  0  0
  3 91  1  0  0  0
  3 92  1  0  0  0
  4  5  1  0  0  0
  4 93  1  0  0  0
  4 94  1  0  0  0
  5  6  1  0  0  0
  5 26  1  0  0  0
  5 95  1  0  0  0
  6 25  1  0  0  0
  6 96  1  0  0  0
  6 97  1  0  0  0
  7  8  2  0  0  0
  7 26  1  0  0  0
  7 29  1  0  0  0
  8  9  1  0  0  0
  8 22  1  0  0  0
  9 10  1  0  0  0
  9 27  2  0  0  0
 10 11  2  0  0  0
 10 15  1  0  0  0
 11 12  1  0  0  0
 11 98  1  0  0  0
 12 13  2  0  0  0
 12 99  1  0  0  0
 13 14  1  0  0  0
 13 31  1  0  0  0
 14 15  2  0  0  0
 14100  1  0  0  0
 15101  1  0  0  0
 16 17  2  0  0  0
 16 21  1  0  0  0
 16 31  1  0  0  0
 17 18  1  0  0  0
 17102  1  0  0  0
 18 19  2  0  0  0
 18103  1  0  0  0
 19 20  1  0  0  0
 19 24  1  0  0  0
 20 21  2  0  0  0
 20104  1  0  0  0
 21 23  1  0  0  0
 22 28  1  0  0  0
 22 32  2  0  0  0
 26 27  1  0  0  0
 28105  1  0  0  0
 28106  1  0  0  0
 29107  1  0  0  0
 29108  1  0  0  0
 33 34  1  0  0  0
 33 66  1  0  0  0
 33 70  2  0  0  0
 34 36  1  0  0  0
 34 59  1  0  0  0
 34109  1  0  0  0
 35 44  2  0  0  0
 35 45  1  0  0  0
 35 68  1  0  0  0
 36 56  1  0  0  0
 36110  1  0  0  0
 37 39  1  0  0  0
 37 47  1  0  0  0
 37 66  1  0  0  0
 37111  1  0  0  0
 38 43  2  0  0  0
 38 46  1  0  0  0
 38 47  1  0  0  0
 39 64  1  0  0  0
 39 67  2  0  0  0
 40 52  1  0  0  0
 40 53  2  0  0  0
 40 58  1  0  0  0
 41112  1  0  0  0
 41113  1  0  0  0
 41114  1  0  0  0
 41 48  1  0  0  0
 42 43  1  0  0  0
 42 66  1  0  0  0
 42115  1  0  0  0
 42116  1  0  0  0
 43 44  1  0  0  0
 44117  1  0  0  0
 45 46  2  0  0  0
 45118  1  0  0  0
 46119  1  0  0  0
 47120  1  0  0  0
 47121  1  0  0  0
 48 56  1  0  0  0
 48 65  1  0  0  0
 48122  1  0  0  0
 49 50  1  0  0  0
 49 53  1  0  0  0
 49 64  1  0  0  0
 49123  1  0  0  0
 50 51  1  0  0  0
 50124  1  0  0  0
 50125  1  0  0  0
 51 52  1  0  0  0
 51126  1  0  0  0
 51127  1  0  0  0
 52128  1  0  0  0
 52129  1  0  0  0
 53 54  1  0  0  0
 54 55  2  0  0  0
 54130  1  0  0  0
 55 57  1  0  0  0
 55131  1  0  0  0
 56 69  2  0  0  0
 57 58  2  0  0  0
 57132  1  0  0  0
 58133  1  0  0  0
 59 60  1  0  0  0
 59 61  1  0  0  0
 59 62  1  0  0  0
 60134  1  0  0  0
 60135  1  0  0  0
 60136  1  0  0  0
 61137  1  0  0  0
 61138  1  0  0  0
 61139  1  0  0  0
 62140  1  0  0  0
 62141  1  0  0  0
 62142  1  0  0  0
 63 65  1  0  0  0
 63143  1  0  0  0
 63144  1  0  0  0
 63145  1  0  0  0
 64146  1  0  0  0
 65147  1  0  0  0
 68 86  1  0  0  0
 71 72  2  0  0  0
 71 73  1  0  0  0
 71148  1  0  0  0
 72 75  1  0  0  0
 72 81  1  0  0  0
 73 76  2  0  0  0
 73 87  1  0  0  0
 74 75  2  0  0  0
 74 76  1  0  0  0
 74 77  1  0  0  0
 75 83  1  0  0  0
 76 82  1  0  0  0
 77149  1  0  0  0
 77150  1  0  0  0
 77151  1  0  0  0
 78 82  1  0  0  0
 78152  1  0  0  0
 78153  1  0  0  0
 78154  1  0  0  0
 79155  1  0  0  0
 79156  1  0  0  0
 79157  1  0  0  0
 79 87  1  0  0  0
 80 87  1  0  0  0
 80158  1  0  0  0
 80159  1  0  0  0
 80160  1  0  0  0
 81 84  1  0  0  0
 81161  1  0  0  0
 81162  1  0  0  0
 82163  1  0  0  0
 82164  1  0  0  0
 83 85  1  0  0  0
 83165  1  0  0  0
 83166  1  0  0  0
 84 86  1  0  0  0
 84167  1  0  0  0
 84168  1  0  0  0
 85 88  1  0  0  0
 85169  1  0  0  0
 85170  1  0  0  0
 86171  1  0  0  0
 86172  1  0  0  0
 87173  1  0  0  0
 88174  1  0  0  0
M  ISO  4   1 100  68 101  86 101  88 100
M  END
> <chiral flag>
0

> <version>
0

> <s_m_source_file>
/data/baiqing/PycharmProjects/Reinvent-master-3.2/result/LINK_invent/BTK/process_docking_weight1_custom_sum_contain_oxygen_bond_distance_aromatic_linkinvent_7_9_3/rearranged_h_0101.sdf

> <i_m_source_file_index>
44

> <r_mmod_Potential_Energy-OPLS-2005>
329.220947265625

> <r_mmod_Stretch_Energy-OPLS-2005>
163.255783081055

> <r_mmod_Bend_Energy-OPLS-2005>
251.999908447266

> <r_mmod_Torsional_Energy-OPLS-2005>
288.611419677734

> <r_mmod_Improper_Torsional_Energy-OPLS-2005>
6.48397731781006

> <r_mmod_Van_der_Waal_Energy-OPLS-2005>
152.556777954102

> <r_mmod_Electrostatic_Energy-OPLS-2005>
-433.566772460938

> <r_mmod_Solvation_Energy-OPLS-2005>
-204.982055664062

> <b_mmod_Minimization_Converged-OPLS-2005>
0

> <r_mmod_RMS_Derivative-OPLS-2005>
10.8023586273193

$$$$
44
                    3D
 Structure written by MMmdl.
166174  0  0  1  0            999 V2000
  -30.4975  -15.0475   20.4110 C   0  0  0  0  0  0
  -30.4410  -12.6618   19.4921 C   0  0  0  0  0  0
  -29.5227  -12.5471   18.2528 C   0  0  0  0  0  0
  -28.0593  -12.3110   18.6780 C   0  0  0  0  0  0
  -27.6195  -13.2558   19.8267 C   0  0  2  0  0  0
  -28.6627  -13.3255   20.9588 C   0  0  0  0  0  0
  -25.2426  -13.8223   20.5709 C   0  0  0  0  0  0
  -24.1759  -13.0442   20.9249 C   0  0  0  0  0  0
  -24.6384  -11.6925   20.8757 C   0  0  0  0  0  0
  -23.9078  -10.4291   21.0416 C   0  0  0  0  0  0
  -24.3628   -9.4208   21.9194 C   0  0  0  0  0  0
  -23.6307   -8.2237   22.0765 C   0  0  0  0  0  0
  -22.4286   -8.0276   21.3547 C   0  0  0  0  0  0
  -21.9925   -9.0248   20.4651 C   0  0  0  0  0  0
  -22.7249  -10.2132   20.3064 C   0  0  0  0  0  0
  -21.6848   -6.0735   22.5285 C   0  0  0  0  0  0
  -21.4006   -6.5640   23.8213 C   0  0  0  0  0  0
  -21.3670   -5.6793   24.9178 C   0  0  0  0  0  0
  -21.6048   -4.3051   24.7232 C   0  0  0  0  0  0
  -21.8816   -3.8149   23.4351 C   0  0  0  0  0  0
  -21.9195   -4.6967   22.3406 C   0  0  0  0  0  0
  -22.7777  -13.5204   21.1898 C   0  0  0  0  0  0
  -22.1661   -4.2158   21.0981 F   0  0  0  0  0  0
  -21.5645   -3.4535   25.7743 F   0  0  0  0  0  0
  -29.9181  -13.7739   20.3423 N   0  0  0  0  0  0
  -26.2839  -12.9463   20.3190 N   0  0  0  0  0  0
  -25.9316  -11.6594   20.5716 N   0  0  0  0  0  0
  -22.0417  -12.8196   22.0438 N   0  0  0  0  0  0
  -25.4075  -15.1959   20.4134 N   0  0  0  0  0  0
  -31.7205  -15.0941   20.2338 O   0  0  0  0  0  0
  -21.6637   -6.8880   21.4246 O   0  0  0  0  0  0
  -22.3456  -14.5506   20.6734 O   0  0  0  0  0  0
  -24.6477  -31.8375   23.1800 C   0  0  0  0  0  0
  -25.9226  -32.4651   23.8210 C   0  0  1  0  0  0
  -27.2172  -27.0673   20.1782 C   0  0  0  0  0  0
  -25.5958  -33.8461   24.2129 N   0  0  0  0  0  0
  -23.4530  -30.4514   21.5286 C   0  0  2  0  0  0
  -24.9016  -28.8511   20.1237 C   0  0  0  0  0  0
  -22.7574  -29.4518   22.4867 C   0  0  0  0  0  0
  -18.0304  -28.1384   22.8470 C   0  0  0  0  0  0
  -24.1500  -36.7244   23.2640 C   0  0  0  0  0  0
  -26.0111  -30.6892   21.3863 C   0  0  0  0  0  0
  -26.0805  -29.2886   20.7395 C   0  0  0  0  0  0
  -27.2407  -28.4177   20.7355 C   0  0  0  0  0  0
  -26.0083  -26.7323   19.5369 C   0  0  0  0  0  0
  -24.8806  -27.5884   19.5069 C   0  0  0  0  0  0
  -23.6824  -29.7643   20.1541 C   0  0  0  0  0  0
  -25.4137  -36.3007   24.0300 C   0  0  1  0  0  0
  -20.5916  -28.3717   23.1227 C   0  0  2  0  0  0
  -20.6791  -26.9417   22.5403 C   0  0  0  0  0  0
  -19.5769  -26.6374   21.5206 C   0  0  0  0  0  0
  -18.1949  -26.7924   22.1612 C   0  0  0  0  0  0
  -19.1558  -28.8875   23.2837 C   0  0  0  0  0  0
  -18.9473  -30.1471   23.8858 C   0  0  0  0  0  0
  -17.6466  -30.6581   24.0551 C   0  0  0  0  0  0
  -25.9091  -34.9383   23.5031 C   0  0  0  0  0  0
  -16.5360  -29.9066   23.6335 C   0  0  0  0  0  0
  -16.7289  -28.6490   23.0356 C   0  0  0  0  0  0
  -26.4531  -31.6544   25.0683 C   0  0  0  0  0  0
  -25.3693  -31.3750   26.1363 C   0  0  0  0  0  0
  -27.0400  -30.2928   24.6310 C   0  0  0  0  0  0
  -27.6042  -32.4326   25.7481 C   0  0  0  0  0  0
  -27.5579  -37.1781   24.8457 C   0  0  0  0  0  0
  -21.4265  -29.3034   22.3598 N   0  0  0  0  0  0
  -26.4289  -37.3731   23.9397 N   0  0  0  0  0  0
  -24.7244  -31.0171   22.0860 N   0  0  0  0  0  0
  -23.4190  -28.8086   23.3050 O   0  0  0  0  0  0
  -28.3181  -26.1252   20.0960 O   0  0  0  0  0  0
  -26.5682  -34.8893   22.4615 O   0  0  0  0  0  0
  -23.5587  -32.1276   23.6994 O   0  0  0  0  0  0
  -28.8852  -20.4676   20.8217 C   0  0  0  0  0  0
  -29.4693  -19.2805   20.2514 C   0  0  0  0  0  0
  -29.7156  -19.7664   18.9228 C   0  0  0  0  0  0
  -29.3315  -21.1029   18.7804 C   0  0  0  0  0  0
  -29.4317  -21.9477   17.5434 C   0  0  0  0  0  0
  -29.9162  -18.3036   15.3973 C   0  0  0  0  0  0
  -28.7019  -17.0620   17.2420 C   0  0  0  0  0  0
  -26.5799  -22.8086   20.5687 C   0  0  0  0  0  0
  -30.3442  -18.9304   17.8260 C   0  0  0  0  0  0
  -29.9769  -17.7812   20.8769 C   0  0  0  0  0  0
  -28.4730  -24.6177   20.5862 C   0  0  0  0  0  0
  -29.3087  -18.4064   16.8055 C   0  0  0  0  0  0
  -27.9813  -23.0806   20.0063 C   0  0  1  0  0  0
  -28.7523  -21.6363   19.9428 N   0  0  0  0  0  0
  -29.7015  -16.2469   20.4863 N   0  0  0  0  0  0
  -31.4695  -12.8464   19.1779 H   0  0  0  0  0  0
  -30.4644  -11.7246   20.0500 H   0  0  0  0  0  0
  -29.8594  -11.7398   17.6009 H   0  0  0  0  0  0
  -29.5896  -13.4646   17.6658 H   0  0  0  0  0  0
  -27.9754  -11.2731   19.0033 H   0  0  0  0  0  0
  -27.3932  -12.4164   17.8210 H   0  0  0  0  0  0
  -27.5646  -14.2489   19.3786 H   0  0  0  0  0  0
  -28.7817  -12.3579   21.4482 H   0  0  0  0  0  0
  -28.3444  -14.0280   21.7307 H   0  0  0  0  0  0
  -25.2778   -9.5673   22.4776 H   0  0  0  0  0  0
  -24.0021   -7.4614   22.7477 H   0  0  0  0  0  0
  -21.0859   -8.8762   19.8944 H   0  0  0  0  0  0
  -22.3713  -10.9674   19.6169 H   0  0  0  0  0  0
  -21.1978   -7.6146   23.9722 H   0  0  0  0  0  0
  -21.1501   -6.0517   25.9083 H   0  0  0  0  0  0
  -22.0588   -2.7617   23.2839 H   0  0  0  0  0  0
  -22.4038  -11.9875   22.4850 H   0  0  0  0  0  0
  -21.1031  -13.1213   22.2637 H   0  0  0  0  0  0
  -24.6331  -15.8424   20.5182 H   0  0  0  0  0  0
  -26.2375  -15.6354   20.0387 H   0  0  0  0  0  0
  -26.7279  -32.5233   23.0915 H   0  0  0  0  0  0
  -25.0063  -33.9560   25.0251 H   0  0  0  0  0  0
  -22.7574  -31.2778   21.3641 H   0  0  0  0  0  0
  -23.3768  -35.9568   23.3269 H   0  0  0  0  0  0
  -24.3584  -36.8921   22.2061 H   0  0  0  0  0  0
  -23.7250  -37.6423   23.6712 H   0  0  0  0  0  0
  -26.1702  -31.4353   20.6071 H   0  0  0  0  0  0
  -26.8802  -30.7455   22.0312 H   0  0  0  0  0  0
  -28.1527  -28.7655   21.1995 H   0  0  0  0  0  0
  -25.9321  -25.7725   19.0458 H   0  0  0  0  0  0
  -23.9828  -27.2505   19.0090 H   0  0  0  0  0  0
  -23.8206  -30.5288   19.3880 H   0  0  0  0  0  0
  -22.7951  -29.2060   19.8507 H   0  0  0  0  0  0
  -25.1334  -36.1814   25.0791 H   0  0  0  0  0  0
  -20.9998  -28.3308   24.1350 H   0  0  0  0  0  0
  -20.5683  -26.2329   23.3626 H   0  0  0  0  0  0
  -21.6663  -26.7421   22.1208 H   0  0  0  0  0  0
  -19.6938  -25.6277   21.1259 H   0  0  0  0  0  0
  -19.6712  -27.3163   20.6720 H   0  0  0  0  0  0
  -17.4225  -26.6658   21.4012 H   0  0  0  0  0  0
  -18.0348  -26.0067   22.9012 H   0  0  0  0  0  0
  -19.7952  -30.7305   24.2202 H   0  0  0  0  0  0
  -17.5018  -31.6257   24.5153 H   0  0  0  0  0  0
  -15.5358  -30.2953   23.7689 H   0  0  0  0  0  0
  -15.8691  -28.0798   22.7090 H   0  0  0  0  0  0
  -24.5878  -30.7098   25.7664 H   0  0  0  0  0  0
  -24.8879  -32.2940   26.4721 H   0  0  0  0  0  0
  -25.7961  -30.8953   27.0180 H   0  0  0  0  0  0
  -26.3020  -29.6635   24.1322 H   0  0  0  0  0  0
  -27.3979  -29.7256   25.4913 H   0  0  0  0  0  0
  -27.8943  -30.4132   23.9643 H   0  0  0  0  0  0
  -27.2613  -33.3643   26.1992 H   0  0  0  0  0  0
  -28.3893  -32.6865   25.0344 H   0  0  0  0  0  0
  -28.0661  -31.8495   26.5458 H   0  0  0  0  0  0
  -28.2578  -38.0097   24.7523 H   0  0  0  0  0  0
  -28.1102  -36.2630   24.6270 H   0  0  0  0  0  0
  -27.2295  -37.1398   25.8857 H   0  0  0  0  0  0
  -20.9492  -29.8710   21.6738 H   0  0  0  0  0  0
  -26.0151  -38.2792   24.1408 H   0  0  0  0  0  0
  -28.5200  -20.5867   21.8339 H   0  0  0  0  0  0
  -30.1127  -21.5217   16.8087 H   0  0  0  0  0  0
  -29.8028  -22.9455   17.7759 H   0  0  0  0  0  0
  -28.4588  -22.0470   17.0619 H   0  0  0  0  0  0
  -29.1857  -17.9340   14.6764 H   0  0  0  0  0  0
  -30.7749  -17.6314   15.3794 H   0  0  0  0  0  0
  -30.2504  -19.2790   15.0411 H   0  0  0  0  0  0
  -27.9787  -16.6964   16.5132 H   0  0  0  0  0  0
  -28.1799  -17.1628   18.1941 H   0  0  0  0  0  0
  -29.4680  -16.2946   17.3616 H   0  0  0  0  0  0
  -25.9331  -23.6776   20.4483 H   0  0  0  0  0  0
  -26.6245  -22.5770   21.6316 H   0  0  0  0  0  0
  -26.1021  -21.9692   20.0632 H   0  0  0  0  0  0
  -30.9116  -18.1043   18.2569 H   0  0  0  0  0  0
  -31.0889  -19.5497   17.3247 H   0  0  0  0  0  0
  -29.7046  -17.8328   21.9313 H   0  0  0  0  0  0
  -31.0647  -17.8617   20.8899 H   0  0  0  0  0  0
  -29.5578  -24.5215   20.6228 H   0  0  0  0  0  0
  -28.1963  -24.6487   21.6406 H   0  0  0  0  0  0
  -28.4995  -19.1358   16.7328 H   0  0  0  0  0  0
  -27.7883  -23.3124   18.9603 H   0  0  0  0  0  0
  -28.7165  -16.0352   20.4709 H   0  0  0  0  0  0
  1 25  1  0  0  0
  1 30  2  0  0  0
  1 85  1  0  0  0
  2  3  1  0  0  0
  2 25  1  0  0  0
  2 86  1  0  0  0
  2 87  1  0  0  0
  3  4  1  0  0  0
  3 88  1  0  0  0
  3 89  1  0  0  0
  4  5  1  0  0  0
  4 90  1  0  0  0
  4 91  1  0  0  0
  5  6  1  0  0  0
  5 26  1  0  0  0
  5 92  1  0  0  0
  6 25  1  0  0  0
  6 93  1  0  0  0
  6 94  1  0  0  0
  7  8  2  0  0  0
  7 26  1  0  0  0
  7 29  1  0  0  0
  8  9  1  0  0  0
  8 22  1  0  0  0
  9 10  1  0  0  0
  9 27  2  0  0  0
 10 11  2  0  0  0
 10 15  1  0  0  0
 11 12  1  0  0  0
 11 95  1  0  0  0
 12 13  2  0  0  0
 12 96  1  0  0  0
 13 14  1  0  0  0
 13 31  1  0  0  0
 14 15  2  0  0  0
 14 97  1  0  0  0
 15 98  1  0  0  0
 16 17  2  0  0  0
 16 21  1  0  0  0
 16 31  1  0  0  0
 17 18  1  0  0  0
 17 99  1  0  0  0
 18 19  2  0  0  0
 18100  1  0  0  0
 19 20  1  0  0  0
 19 24  1  0  0  0
 20 21  2  0  0  0
 20101  1  0  0  0
 21 23  1  0  0  0
 22 28  1  0  0  0
 22 32  2  0  0  0
 26 27  1  0  0  0
 28102  1  0  0  0
 28103  1  0  0  0
 29104  1  0  0  0
 29105  1  0  0  0
 33 34  1  0  0  0
 33 66  1  0  0  0
 33 70  2  0  0  0
 34 36  1  0  0  0
 34 59  1  0  0  0
 34106  1  0  0  0
 35 44  2  0  0  0
 35 45  1  0  0  0
 35 68  1  0  0  0
 36 56  1  0  0  0
 36107  1  0  0  0
 37 39  1  0  0  0
 37 47  1  0  0  0
 37 66  1  0  0  0
 37108  1  0  0  0
 38 43  2  0  0  0
 38 46  1  0  0  0
 38 47  1  0  0  0
 39 64  1  0  0  0
 39 67  2  0  0  0
 40 52  1  0  0  0
 40 53  2  0  0  0
 40 58  1  0  0  0
 41109  1  0  0  0
 41110  1  0  0  0
 41111  1  0  0  0
 41 48  1  0  0  0
 42 43  1  0  0  0
 42 66  1  0  0  0
 42112  1  0  0  0
 42113  1  0  0  0
 43 44  1  0  0  0
 44114  1  0  0  0
 45 46  2  0  0  0
 45115  1  0  0  0
 46116  1  0  0  0
 47117  1  0  0  0
 47118  1  0  0  0
 48 56  1  0  0  0
 48 65  1  0  0  0
 48119  1  0  0  0
 49 50  1  0  0  0
 49 53  1  0  0  0
 49 64  1  0  0  0
 49120  1  0  0  0
 50 51  1  0  0  0
 50121  1  0  0  0
 50122  1  0  0  0
 51 52  1  0  0  0
 51123  1  0  0  0
 51124  1  0  0  0
 52125  1  0  0  0
 52126  1  0  0  0
 53 54  1  0  0  0
 54 55  2  0  0  0
 54127  1  0  0  0
 55 57  1  0  0  0
 55128  1  0  0  0
 56 69  2  0  0  0
 57 58  2  0  0  0
 57129  1  0  0  0
 58130  1  0  0  0
 59 60  1  0  0  0
 59 61  1  0  0  0
 59 62  1  0  0  0
 60131  1  0  0  0
 60132  1  0  0  0
 60133  1  0  0  0
 61134  1  0  0  0
 61135  1  0  0  0
 61136  1  0  0  0
 62137  1  0  0  0
 62138  1  0  0  0
 62139  1  0  0  0
 63 65  1  0  0  0
 63140  1  0  0  0
 63141  1  0  0  0
 63142  1  0  0  0
 64143  1  0  0  0
 65144  1  0  0  0
 68 81  1  0  0  0
 71 72  2  0  0  0
 71 84  1  0  0  0
 71145  1  0  0  0
 72 73  1  0  0  0
 72 80  1  0  0  0
 73 74  2  0  0  0
 73 79  1  0  0  0
 74 75  1  0  0  0
 74 84  1  0  0  0
 75146  1  0  0  0
 75147  1  0  0  0
 75148  1  0  0  0
 76149  1  0  0  0
 76150  1  0  0  0
 76151  1  0  0  0
 76 82  1  0  0  0
 77 82  1  0  0  0
 77152  1  0  0  0
 77153  1  0  0  0
 77154  1  0  0  0
 78155  1  0  0  0
 78156  1  0  0  0
 78157  1  0  0  0
 78 83  1  0  0  0
 79 82  1  0  0  0
 79158  1  0  0  0
 79159  1  0  0  0
 80 85  1  0  0  0
 80160  1  0  0  0
 80161  1  0  0  0
 81 83  1  0  0  0
 81162  1  0  0  0
 81163  1  0  0  0
 82164  1  0  0  0
 83 84  1  0  0  0
 83165  1  0  0  0
 85166  1  0  0  0
M  ISO  4   1 100  68 101  81 101  85 100
M  END
> <chiral flag>
0

> <version>
0

> <s_m_source_file>
/data/baiqing/PycharmProjects/Reinvent-master-3.2/result/LINK_invent/BTK/process_docking_weight1_custom_sum_contain_oxygen_bond_distance_aromatic_linkinvent_7_9_3/rearranged_h_0101.sdf

> <i_m_source_file_index>
45

> <r_mmod_Potential_Energy-OPLS-2005>
725.675231933594

> <r_mmod_Stretch_Energy-OPLS-2005>
341.604095458984

> <r_mmod_Bend_Energy-OPLS-2005>
386.05419921875

> <r_mmod_Torsional_Energy-OPLS-2005>
269.129455566406

> <r_mmod_Improper_Torsional_Energy-OPLS-2005>
7.455078125

> <r_mmod_Van_der_Waal_Energy-OPLS-2005>
93.2431488037109

> <r_mmod_Electrostatic_Energy-OPLS-2005>
-415.873657226562

> <r_mmod_Solvation_Energy-OPLS-2005>
-208.358642578125

> <b_mmod_Minimization_Converged-OPLS-2005>
0

> <r_mmod_RMS_Derivative-OPLS-2005>
1.78619205951691

$$$$
45
                    3D
 Structure written by MMmdl.
167174  0  0  1  0            999 V2000
  -30.7085  -14.4105   20.6357 C   0  0  0  0  0  0
  -30.4212  -12.2963   19.3947 C   0  0  0  0  0  0
  -29.4803  -12.5220   18.1925 C   0  0  0  0  0  0
  -28.0023  -12.3892   18.6079 C   0  0  0  0  0  0
  -27.6630  -13.2013   19.8860 C   0  0  2  0  0  0
  -28.7038  -12.9231   20.9941 C   0  0  0  0  0  0
  -25.2563  -13.8138   20.5653 C   0  0  0  0  0  0
  -24.1825  -13.0405   20.9167 C   0  0  0  0  0  0
  -24.6371  -11.6892   20.8730 C   0  0  0  0  0  0
  -23.9034  -10.4288   21.0415 C   0  0  0  0  0  0
  -24.3599   -9.4208   21.9180 C   0  0  0  0  0  0
  -23.6295   -8.2234   22.0751 C   0  0  0  0  0  0
  -22.4269   -8.0272   21.3553 C   0  0  0  0  0  0
  -21.9893   -9.0235   20.4639 C   0  0  0  0  0  0
  -22.7215  -10.2117   20.3068 C   0  0  0  0  0  0
  -21.6832   -6.0737   22.5282 C   0  0  0  0  0  0
  -21.4001   -6.5646   23.8212 C   0  0  0  0  0  0
  -21.3657   -5.6808   24.9177 C   0  0  0  0  0  0
  -21.6044   -4.3072   24.7221 C   0  0  0  0  0  0
  -21.8819   -3.8158   23.4341 C   0  0  0  0  0  0
  -21.9189   -4.6972   22.3404 C   0  0  0  0  0  0
  -22.7845  -13.5197   21.1857 C   0  0  0  0  0  0
  -22.1668   -4.2156   21.0985 F   0  0  0  0  0  0
  -21.5631   -3.4569   25.7732 F   0  0  0  0  0  0
  -30.0385  -13.2415   20.4541 N   0  0  0  0  0  0
  -26.3015  -12.9301   20.3413 N   0  0  0  0  0  0
  -25.9299  -11.6452   20.5773 N   0  0  0  0  0  0
  -22.0527  -12.8157   22.0410 N   0  0  0  0  0  0
  -25.4275  -15.1841   20.4025 N   0  0  0  0  0  0
  -31.7916  -14.6656   20.1018 O   0  0  0  0  0  0
  -21.6642   -6.8875   21.4240 O   0  0  0  0  0  0
  -22.3526  -14.5528   20.6762 O   0  0  0  0  0  0
  -24.6126  -31.8650   23.2094 C   0  0  0  0  0  0
  -25.9018  -32.4808   23.8393 C   0  0  1  0  0  0
  -27.2492  -27.4413   20.0968 C   0  0  0  0  0  0
  -25.5852  -33.8606   24.2314 N   0  0  0  0  0  0
  -23.4008  -30.4871   21.5477 C   0  0  2  0  0  0
  -24.8501  -28.9489   20.1175 C   0  0  0  0  0  0
  -22.7402  -29.4639   22.4991 C   0  0  0  0  0  0
  -18.0265  -28.1386   22.8476 C   0  0  0  0  0  0
  -24.1481  -36.7328   23.2637 C   0  0  0  0  0  0
  -25.9264  -30.8359   21.3576 C   0  0  0  0  0  0
  -26.0073  -29.4666   20.7113 C   0  0  0  0  0  0
  -27.2063  -28.7201   20.6967 C   0  0  0  0  0  0
  -26.0691  -26.9295   19.5083 C   0  0  0  0  0  0
  -24.8752  -27.6793   19.5143 C   0  0  0  0  0  0
  -23.6098  -29.8128   20.1635 C   0  0  0  0  0  0
  -25.4095  -36.3098   24.0336 C   0  0  1  0  0  0
  -20.5860  -28.3658   23.1328 C   0  0  2  0  0  0
  -20.6756  -26.9388   22.5427 C   0  0  0  0  0  0
  -19.5746  -26.6381   21.5206 C   0  0  0  0  0  0
  -18.1926  -26.7926   22.1608 C   0  0  0  0  0  0
  -19.1522  -28.8841   23.2893 C   0  0  0  0  0  0
  -18.9442  -30.1453   23.8887 C   0  0  0  0  0  0
  -17.6447  -30.6580   24.0577 C   0  0  0  0  0  0
  -25.9012  -34.9466   23.5129 C   0  0  0  0  0  0
  -16.5340  -29.9086   23.6327 C   0  0  0  0  0  0
  -16.7258  -28.6526   23.0307 C   0  0  0  0  0  0
  -26.4458  -31.6576   25.0709 C   0  0  0  0  0  0
  -25.3734  -31.3666   26.1466 C   0  0  0  0  0  0
  -27.0298  -30.3025   24.6063 C   0  0  0  0  0  0
  -27.6030  -32.4295   25.7478 C   0  0  0  0  0  0
  -27.5578  -37.1805   24.8456 C   0  0  0  0  0  0
  -21.4136  -29.3020   22.3735 N   0  0  0  0  0  0
  -26.4277  -37.3783   23.9416 N   0  0  0  0  0  0
  -24.6646  -31.0779   22.0976 N   0  0  0  0  0  0
  -23.4177  -28.8150   23.3018 O   0  0  0  0  0  0
  -28.4510  -26.7640   20.0978 O   0  0  0  0  0  0
  -26.5600  -34.8913   22.4701 O   0  0  0  0  0  0
  -23.5327  -32.1386   23.7501 O   0  0  0  0  0  0
  -31.8775  -23.3396   18.3666 C   0  0  0  0  0  0
  -29.5494  -22.6427   17.8585 C   0  0  0  0  0  0
  -29.8348  -19.3872   18.1668 C   0  0  0  0  0  0
  -29.9031  -24.8611   20.2125 C   0  0  0  0  0  0
  -30.1516  -23.3207   20.2456 C   0  0  0  0  0  0
  -29.9504  -17.6652   20.4728 C   0  0  0  0  0  0
  -30.4716  -16.7219   21.5806 C   0  0  0  0  0  0
  -30.6186  -19.0694   20.4999 C   0  0  0  0  0  0
  -31.1559  -21.1500   19.2870 C   0  0  0  0  0  0
  -28.4665  -25.3442   19.9222 C   0  0  0  0  0  0
  -30.6435  -22.6029   18.9453 C   0  0  0  0  0  0
  -30.0551  -15.3303   21.3662 N   0  0  0  0  0  0
  -30.1576  -20.0480   19.4600 N   0  3  1  0  0  0
  -31.4597  -12.4180   19.0848 H   0  0  0  0  0  0
  -30.3439  -11.2710   19.7580 H   0  0  0  0  0  0
  -29.7043  -11.8113   17.3955 H   0  0  0  0  0  0
  -29.6501  -13.5147   17.7749 H   0  0  0  0  0  0
  -27.7940  -11.3316   18.7711 H   0  0  0  0  0  0
  -27.3550  -12.7018   17.7872 H   0  0  0  0  0  0
  -27.7218  -14.2578   19.6221 H   0  0  0  0  0  0
  -28.6708  -11.8712   21.2813 H   0  0  0  0  0  0
  -28.4618  -13.4697   21.9057 H   0  0  0  0  0  0
  -25.2756   -9.5678   22.4729 H   0  0  0  0  0  0
  -24.0011   -7.4612   22.7456 H   0  0  0  0  0  0
  -21.0835   -8.8742   19.8909 H   0  0  0  0  0  0
  -22.3702  -10.9645   19.6163 H   0  0  0  0  0  0
  -21.2006   -7.6158   23.9708 H   0  0  0  0  0  0
  -21.1472   -6.0552   25.9069 H   0  0  0  0  0  0
  -22.0604   -2.7624   23.2848 H   0  0  0  0  0  0
  -22.4190  -11.9815   22.4759 H   0  0  0  0  0  0
  -21.1124  -13.1115   22.2649 H   0  0  0  0  0  0
  -24.6593  -15.8380   20.5076 H   0  0  0  0  0  0
  -26.2838  -15.6255   20.0909 H   0  0  0  0  0  0
  -26.7074  -32.5529   23.1153 H   0  0  0  0  0  0
  -24.9965  -33.9776   25.0436 H   0  0  0  0  0  0
  -22.6875  -31.3004   21.4062 H   0  0  0  0  0  0
  -23.3721  -35.9681   23.3292 H   0  0  0  0  0  0
  -24.3569  -36.8961   22.2051 H   0  0  0  0  0  0
  -23.7258  -37.6539   23.6663 H   0  0  0  0  0  0
  -26.0283  -31.5962   20.5810 H   0  0  0  0  0  0
  -26.8183  -30.8984   21.9698 H   0  0  0  0  0  0
  -28.1026  -29.1230   21.1473 H   0  0  0  0  0  0
  -26.0591  -25.9590   19.0352 H   0  0  0  0  0  0
  -23.9845  -27.2762   19.0498 H   0  0  0  0  0  0
  -23.7144  -30.5845   19.3992 H   0  0  0  0  0  0
  -22.7358  -29.2262   19.8724 H   0  0  0  0  0  0
  -25.1269  -36.1959   25.0828 H   0  0  0  0  0  0
  -20.9944  -28.3213   24.1453 H   0  0  0  0  0  0
  -20.5647  -26.2246   23.3608 H   0  0  0  0  0  0
  -21.6629  -26.7413   22.1233 H   0  0  0  0  0  0
  -19.6905  -25.6293   21.1230 H   0  0  0  0  0  0
  -19.6709  -27.3200   20.6752 H   0  0  0  0  0  0
  -17.4187  -26.6670   21.4015 H   0  0  0  0  0  0
  -18.0324  -26.0081   22.9020 H   0  0  0  0  0  0
  -19.7923  -30.7299   24.2225 H   0  0  0  0  0  0
  -17.4995  -31.6251   24.5196 H   0  0  0  0  0  0
  -15.5343  -30.2980   23.7669 H   0  0  0  0  0  0
  -15.8663  -28.0881   22.6952 H   0  0  0  0  0  0
  -24.5912  -30.7001   25.7806 H   0  0  0  0  0  0
  -24.8925  -32.2822   26.4920 H   0  0  0  0  0  0
  -25.8105  -30.8833   27.0215 H   0  0  0  0  0  0
  -26.2849  -29.6777   24.1120 H   0  0  0  0  0  0
  -27.4090  -29.7254   25.4508 H   0  0  0  0  0  0
  -27.8665  -30.4358   23.9199 H   0  0  0  0  0  0
  -27.2637  -33.3579   26.2086 H   0  0  0  0  0  0
  -28.3833  -32.6870   25.0302 H   0  0  0  0  0  0
  -28.0700  -31.8391   26.5375 H   0  0  0  0  0  0
  -28.2564  -38.0130   24.7510 H   0  0  0  0  0  0
  -28.1095  -36.2650   24.6254 H   0  0  0  0  0  0
  -27.2301  -37.1447   25.8861 H   0  0  0  0  0  0
  -20.9275  -29.8774   21.7003 H   0  0  0  0  0  0
  -26.0160  -38.2856   24.1419 H   0  0  0  0  0  0
  -31.6391  -24.3307   17.9843 H   0  0  0  0  0  0
  -32.3007  -22.7975   17.5189 H   0  0  0  0  0  0
  -32.6716  -23.4469   19.1073 H   0  0  0  0  0  0
  -29.2761  -23.6676   17.6081 H   0  0  0  0  0  0
  -28.6349  -22.1341   18.1649 H   0  0  0  0  0  0
  -29.8990  -22.2003   16.9256 H   0  0  0  0  0  0
  -28.9658  -18.7350   18.2571 H   0  0  0  0  0  0
  -30.6774  -18.7902   17.8146 H   0  0  0  0  0  0
  -29.5946  -20.0901   17.3770 H   0  0  0  0  0  0
  -30.6049  -25.3794   19.5607 H   0  0  0  0  0  0
  -30.1430  -25.2349   21.2096 H   0  0  0  0  0  0
  -29.2664  -22.8181   20.6434 H   0  0  0  0  0  0
  -30.9213  -23.1694   21.0052 H   0  0  0  0  0  0
  -28.8637  -17.7558   20.5436 H   0  0  0  0  0  0
  -30.1654  -17.1856   19.5175 H   0  0  0  0  0  0
  -30.0989  -17.0503   22.5528 H   0  0  0  0  0  0
  -31.5601  -16.7773   21.6385 H   0  0  0  0  0  0
  -31.6925  -18.9105   20.3768 H   0  0  0  0  0  0
  -30.4901  -19.5244   21.4826 H   0  0  0  0  0  0
  -31.7512  -21.2280   20.1988 H   0  0  0  0  0  0
  -31.8726  -20.8104   18.5381 H   0  0  0  0  0  0
  -28.1592  -25.0856   18.9099 H   0  0  0  0  0  0
  -27.7705  -24.8753   20.6210 H   0  0  0  0  0  0
  -29.1705  -15.0451   21.7591 H   0  0  0  0  0  0
  -29.3028  -20.4576   19.8061 H   0  0  0  0  0  0
  1 25  1  0  0  0
  1 30  2  0  0  0
  1 82  1  0  0  0
  2  3  1  0  0  0
  2 25  1  0  0  0
  2 84  1  0  0  0
  2 85  1  0  0  0
  3  4  1  0  0  0
  3 86  1  0  0  0
  3 87  1  0  0  0
  4  5  1  0  0  0
  4 88  1  0  0  0
  4 89  1  0  0  0
  5  6  1  0  0  0
  5 26  1  0  0  0
  5 90  1  0  0  0
  6 25  1  0  0  0
  6 91  1  0  0  0
  6 92  1  0  0  0
  7  8  2  0  0  0
  7 26  1  0  0  0
  7 29  1  0  0  0
  8  9  1  0  0  0
  8 22  1  0  0  0
  9 10  1  0  0  0
  9 27  2  0  0  0
 10 11  2  0  0  0
 10 15  1  0  0  0
 11 12  1  0  0  0
 11 93  1  0  0  0
 12 13  2  0  0  0
 12 94  1  0  0  0
 13 14  1  0  0  0
 13 31  1  0  0  0
 14 15  2  0  0  0
 14 95  1  0  0  0
 15 96  1  0  0  0
 16 17  2  0  0  0
 16 21  1  0  0  0
 16 31  1  0  0  0
 17 18  1  0  0  0
 17 97  1  0  0  0
 18 19  2  0  0  0
 18 98  1  0  0  0
 19 20  1  0  0  0
 19 24  1  0  0  0
 20 21  2  0  0  0
 20 99  1  0  0  0
 21 23  1  0  0  0
 22 28  1  0  0  0
 22 32  2  0  0  0
 26 27  1  0  0  0
 28100  1  0  0  0
 28101  1  0  0  0
 29102  1  0  0  0
 29103  1  0  0  0
 33 34  1  0  0  0
 33 66  1  0  0  0
 33 70  2  0  0  0
 34 36  1  0  0  0
 34 59  1  0  0  0
 34104  1  0  0  0
 35 44  2  0  0  0
 35 45  1  0  0  0
 35 68  1  0  0  0
 36 56  1  0  0  0
 36105  1  0  0  0
 37 39  1  0  0  0
 37 47  1  0  0  0
 37 66  1  0  0  0
 37106  1  0  0  0
 38 43  2  0  0  0
 38 46  1  0  0  0
 38 47  1  0  0  0
 39 64  1  0  0  0
 39 67  2  0  0  0
 40 52  1  0  0  0
 40 53  2  0  0  0
 40 58  1  0  0  0
 41107  1  0  0  0
 41108  1  0  0  0
 41109  1  0  0  0
 41 48  1  0  0  0
 42 43  1  0  0  0
 42 66  1  0  0  0
 42110  1  0  0  0
 42111  1  0  0  0
 43 44  1  0  0  0
 44112  1  0  0  0
 45 46  2  0  0  0
 45113  1  0  0  0
 46114  1  0  0  0
 47115  1  0  0  0
 47116  1  0  0  0
 48 56  1  0  0  0
 48 65  1  0  0  0
 48117  1  0  0  0
 49 50  1  0  0  0
 49 53  1  0  0  0
 49 64  1  0  0  0
 49118  1  0  0  0
 50 51  1  0  0  0
 50119  1  0  0  0
 50120  1  0  0  0
 51 52  1  0  0  0
 51121  1  0  0  0
 51122  1  0  0  0
 52123  1  0  0  0
 52124  1  0  0  0
 53 54  1  0  0  0
 54 55  2  0  0  0
 54125  1  0  0  0
 55 57  1  0  0  0
 55126  1  0  0  0
 56 69  2  0  0  0
 57 58  2  0  0  0
 57127  1  0  0  0
 58128  1  0  0  0
 59 60  1  0  0  0
 59 61  1  0  0  0
 59 62  1  0  0  0
 60129  1  0  0  0
 60130  1  0  0  0
 60131  1  0  0  0
 61132  1  0  0  0
 61133  1  0  0  0
 61134  1  0  0  0
 62135  1  0  0  0
 62136  1  0  0  0
 62137  1  0  0  0
 63 65  1  0  0  0
 63138  1  0  0  0
 63139  1  0  0  0
 63140  1  0  0  0
 64141  1  0  0  0
 65142  1  0  0  0
 68 80  1  0  0  0
 71143  1  0  0  0
 71144  1  0  0  0
 71145  1  0  0  0
 71 81  1  0  0  0
 72 81  1  0  0  0
 72146  1  0  0  0
 72147  1  0  0  0
 72148  1  0  0  0
 73149  1  0  0  0
 73150  1  0  0  0
 73151  1  0  0  0
 73 83  1  0  0  0
 74 75  1  0  0  0
 74 80  1  0  0  0
 74152  1  0  0  0
 74153  1  0  0  0
 75 81  1  0  0  0
 75154  1  0  0  0
 75155  1  0  0  0
 76 77  1  0  0  0
 76 78  1  0  0  0
 76156  1  0  0  0
 76157  1  0  0  0
 77 82  1  0  0  0
 77158  1  0  0  0
 77159  1  0  0  0
 78 83  1  0  0  0
 78160  1  0  0  0
 78161  1  0  0  0
 79 81  1  0  0  0
 79 83  1  0  0  0
 79162  1  0  0  0
 79163  1  0  0  0
 80164  1  0  0  0
 80165  1  0  0  0
 82166  1  0  0  0
 83167  1  0  0  0
M  CHG  1  83   1
M  ISO  4   1 100  68 101  80 101  82 100
M  END
> <chiral flag>
0

> <version>
0

> <s_m_source_file>
/data/baiqing/PycharmProjects/Reinvent-master-3.2/result/LINK_invent/BTK/process_docking_weight1_custom_sum_contain_oxygen_bond_distance_aromatic_linkinvent_7_9_3/rearranged_h_0101.sdf

> <i_m_source_file_index>
46

> <r_mmod_Potential_Energy-OPLS-2005>
-124.1298828125

> <r_mmod_Stretch_Energy-OPLS-2005>
41.0421485900879

> <r_mmod_Bend_Energy-OPLS-2005>
121.84888458252

> <r_mmod_Torsional_Energy-OPLS-2005>
231.569976806641

> <r_mmod_Improper_Torsional_Energy-OPLS-2005>
2.57261943817139

> <r_mmod_Van_der_Waal_Energy-OPLS-2005>
149.184951782227

> <r_mmod_Electrostatic_Energy-OPLS-2005>
-242.307037353516

> <r_mmod_Solvation_Energy-OPLS-2005>
-436.972564697266

> <b_mmod_Minimization_Converged-OPLS-2005>
0

> <r_mmod_RMS_Derivative-OPLS-2005>
3.29396176338196

$$$$
46
                    3D
 Structure written by MMmdl.
157165  0  0  1  0            999 V2000
  -30.5477  -15.0413   20.3607 C   0  0  0  0  0  0
  -30.4592  -12.6590   19.4807 C   0  0  0  0  0  0
  -29.5135  -12.5221   18.2667 C   0  0  0  0  0  0
  -28.0713  -12.2613   18.7319 C   0  0  0  0  0  0
  -27.6331  -13.2454   19.8409 C   0  0  2  0  0  0
  -28.6885  -13.3585   20.9594 C   0  0  0  0  0  0
  -25.2558  -13.8236   20.5809 C   0  0  0  0  0  0
  -24.1833  -13.0457   20.9271 C   0  0  0  0  0  0
  -24.6444  -11.6948   20.8832 C   0  0  0  0  0  0
  -23.9113  -10.4287   21.0434 C   0  0  0  0  0  0
  -24.3643   -9.4204   21.9223 C   0  0  0  0  0  0
  -23.6304   -8.2260   22.0756 C   0  0  0  0  0  0
  -22.4303   -8.0297   21.3515 C   0  0  0  0  0  0
  -21.9953   -9.0298   20.4643 C   0  0  0  0  0  0
  -22.7291  -10.2171   20.3074 C   0  0  0  0  0  0
  -21.6848   -6.0743   22.5257 C   0  0  0  0  0  0
  -21.4020   -6.5649   23.8198 C   0  0  0  0  0  0
  -21.3657   -5.6803   24.9158 C   0  0  0  0  0  0
  -21.6016   -4.3067   24.7215 C   0  0  0  0  0  0
  -21.8834   -3.8161   23.4340 C   0  0  0  0  0  0
  -21.9204   -4.6973   22.3384 C   0  0  0  0  0  0
  -22.7847  -13.5251   21.1802 C   0  0  0  0  0  0
  -22.1675   -4.2158   21.0961 F   0  0  0  0  0  0
  -21.5604   -3.4550   25.7728 F   0  0  0  0  0  0
  -29.9455  -13.7787   20.3218 N   0  0  0  0  0  0
  -26.2963  -12.9459   20.3400 N   0  0  0  0  0  0
  -25.9393  -11.6602   20.5912 N   0  0  0  0  0  0
  -22.0463  -12.8249   22.0357 N   0  0  0  0  0  0
  -25.4301  -15.1945   20.4124 N   0  0  0  0  0  0
  -31.7724  -15.0600   20.1918 O   0  0  0  0  0  0
  -21.6642   -6.8912   21.4227 O   0  0  0  0  0  0
  -22.3555  -14.5542   20.6617 O   0  0  0  0  0  0
  -24.6408  -31.8432   23.1757 C   0  0  0  0  0  0
  -25.9213  -32.4669   23.8141 C   0  0  1  0  0  0
  -27.2167  -27.0806   20.1441 C   0  0  0  0  0  0
  -25.5954  -33.8456   24.2085 N   0  0  0  0  0  0
  -23.4497  -30.4456   21.5324 C   0  0  2  0  0  0
  -24.9008  -28.8630   20.1097 C   0  0  0  0  0  0
  -22.7607  -29.4434   22.4907 C   0  0  0  0  0  0
  -18.0300  -28.1275   22.8426 C   0  0  0  0  0  0
  -24.1535  -36.7216   23.2637 C   0  0  0  0  0  0
  -26.0053  -30.6891   21.3847 C   0  0  0  0  0  0
  -26.0784  -29.2931   20.7304 C   0  0  0  0  0  0
  -27.2337  -28.4188   20.7296 C   0  0  0  0  0  0
  -26.0063  -26.7613   19.4875 C   0  0  0  0  0  0
  -24.8765  -27.6098   19.4749 C   0  0  0  0  0  0
  -23.6780  -29.7703   20.1549 C   0  0  0  0  0  0
  -25.4154  -36.2992   24.0307 C   0  0  1  0  0  0
  -20.5894  -28.3633   23.1207 C   0  0  2  0  0  0
  -20.6790  -26.9342   22.5337 C   0  0  0  0  0  0
  -19.5788  -26.6313   21.5115 C   0  0  0  0  0  0
  -18.1982  -26.7837   22.1526 C   0  0  0  0  0  0
  -19.1554  -28.8777   23.2825 C   0  0  0  0  0  0
  -18.9478  -30.1374   23.8829 C   0  0  0  0  0  0
  -17.6487  -30.6523   24.0475 C   0  0  0  0  0  0
  -25.9087  -34.9383   23.5016 C   0  0  0  0  0  0
  -16.5379  -29.8963   23.6298 C   0  0  0  0  0  0
  -16.7295  -28.6369   23.0326 C   0  0  0  0  0  0
  -26.4526  -31.6517   25.0578 C   0  0  0  0  0  0
  -25.3640  -31.3640   26.1190 C   0  0  0  0  0  0
  -27.0427  -30.2932   24.6151 C   0  0  0  0  0  0
  -27.6062  -32.4289   25.7351 C   0  0  0  0  0  0
  -27.5617  -37.1746   24.8482 C   0  0  0  0  0  0
  -21.4291  -29.2961   22.3666 N   0  0  0  0  0  0
  -26.4320  -37.3699   23.9425 N   0  0  0  0  0  0
  -24.7192  -31.0155   22.0853 N   0  0  0  0  0  0
  -23.4242  -28.7994   23.3072 O   0  0  0  0  0  0
  -28.2732  -26.0829   20.2039 O   0  0  0  0  0  0
  -26.5713  -34.8909   22.4627 O   0  0  0  0  0  0
  -23.5519  -32.1324   23.6939 O   0  0  0  0  0  0
  -29.3007  -20.4940   20.7671 C   0  0  0  0  0  0
  -29.6564  -19.2918   20.0732 C   0  0  0  0  0  0
  -29.7099  -19.8104   18.7216 C   0  0  0  0  0  0
  -29.4220  -21.1848   18.6881 C   0  0  0  0  0  0
  -29.4883  -22.1197   17.5099 C   0  0  0  0  0  0
  -29.2811  -18.9066   16.3097 C   0  0  0  0  0  0
  -30.2147  -18.9927   17.5343 C   0  0  0  0  0  0
  -30.1971  -17.7897   20.6471 C   0  0  0  0  0  0
  -29.1395  -23.2709   20.3955 C   0  0  0  0  0  0
  -28.0611  -24.5304   19.9856 C   0  0  0  0  0  0
  -29.1840  -21.7085   19.9691 N   0  0  0  0  0  0
  -29.7980  -16.2658   20.3764 N   0  0  0  0  0  0
  -31.4686  -12.8565   19.1187 H   0  0  0  0  0  0
  -30.5261  -11.7367   20.0622 H   0  0  0  0  0  0
  -29.8460  -11.7201   17.6090 H   0  0  0  0  0  0
  -29.5416  -13.4408   17.6809 H   0  0  0  0  0  0
  -28.0352  -11.2452   19.1256 H   0  0  0  0  0  0
  -27.3748  -12.2879   17.8926 H   0  0  0  0  0  0
  -27.5741  -14.2204   19.3595 H   0  0  0  0  0  0
  -28.8120  -12.4160   21.4958 H   0  0  0  0  0  0
  -28.3871  -14.1044   21.6978 H   0  0  0  0  0  0
  -25.2799   -9.5666   22.4817 H   0  0  0  0  0  0
  -23.9968   -7.4657   22.7509 H   0  0  0  0  0  0
  -21.0877   -8.8898   19.8955 H   0  0  0  0  0  0
  -22.3815  -10.9740   19.6202 H   0  0  0  0  0  0
  -21.2035   -7.6170   23.9706 H   0  0  0  0  0  0
  -21.1429   -6.0524   25.9053 H   0  0  0  0  0  0
  -22.0610   -2.7626   23.2834 H   0  0  0  0  0  0
  -22.4077  -11.9932   22.4789 H   0  0  0  0  0  0
  -21.1080  -13.1265   22.2477 H   0  0  0  0  0  0
  -24.6769  -15.8657   20.5140 H   0  0  0  0  0  0
  -26.2826  -15.6154   20.0669 H   0  0  0  0  0  0
  -26.7288  -32.5266   23.0845 H   0  0  0  0  0  0
  -25.0078  -33.9526   25.0231 H   0  0  0  0  0  0
  -22.7471  -31.2672   21.3786 H   0  0  0  0  0  0
  -23.3814  -35.9540   23.3286 H   0  0  0  0  0  0
  -24.3597  -36.8871   22.2061 H   0  0  0  0  0  0
  -23.7281  -37.6390   23.6698 H   0  0  0  0  0  0
  -26.1561  -31.4392   20.6111 H   0  0  0  0  0  0
  -26.8723  -30.7451   22.0306 H   0  0  0  0  0  0
  -28.1341  -28.7378   21.2318 H   0  0  0  0  0  0
  -25.8985  -25.8022   19.0027 H   0  0  0  0  0  0
  -23.9655  -27.2766   18.9899 H   0  0  0  0  0  0
  -23.8108  -30.5424   19.3966 H   0  0  0  0  0  0
  -22.7913  -29.2093   19.8501 H   0  0  0  0  0  0
  -25.1325  -36.1798   25.0797 H   0  0  0  0  0  0
  -20.9930  -28.3180   24.1327 H   0  0  0  0  0  0
  -20.5641  -26.2214   23.3521 H   0  0  0  0  0  0
  -21.6657  -26.7321   22.1169 H   0  0  0  0  0  0
  -19.6971  -25.6214   21.1157 H   0  0  0  0  0  0
  -19.6738  -27.3088   20.6638 H   0  0  0  0  0  0
  -17.4234  -26.6540   21.3963 H   0  0  0  0  0  0
  -18.0433  -25.9924   22.8864 H   0  0  0  0  0  0
  -19.7983  -30.7164   24.2185 H   0  0  0  0  0  0
  -17.5046  -31.6192   24.5069 H   0  0  0  0  0  0
  -15.5366  -30.2815   23.7680 H   0  0  0  0  0  0
  -15.8713  -28.0694   22.7026 H   0  0  0  0  0  0
  -24.5926  -30.6911   25.7389 H   0  0  0  0  0  0
  -24.8652  -32.2779   26.4428 H   0  0  0  0  0  0
  -25.7797  -30.8885   27.0078 H   0  0  0  0  0  0
  -26.3043  -29.6594   24.1236 H   0  0  0  0  0  0
  -27.4181  -29.7235   25.4660 H   0  0  0  0  0  0
  -27.8880  -30.4164   23.9371 H   0  0  0  0  0  0
  -27.2726  -33.3724   26.1664 H   0  0  0  0  0  0
  -28.3946  -32.6624   25.0173 H   0  0  0  0  0  0
  -28.0632  -31.8557   26.5412 H   0  0  0  0  0  0
  -28.2545  -38.0139   24.7588 H   0  0  0  0  0  0
  -28.1215  -36.2656   24.6247 H   0  0  0  0  0  0
  -27.2332  -37.1267   25.8881 H   0  0  0  0  0  0
  -20.9519  -29.8707   21.6860 H   0  0  0  0  0  0
  -26.0205  -38.2746   24.1474 H   0  0  0  0  0  0
  -29.2211  -20.6194   21.8393 H   0  0  0  0  0  0
  -30.1811  -21.7435   16.7555 H   0  0  0  0  0  0
  -29.8405  -23.1151   17.7812 H   0  0  0  0  0  0
  -28.5138  -22.2446   17.0368 H   0  0  0  0  0  0
  -29.7419  -18.3018   15.5238 H   0  0  0  0  0  0
  -29.0833  -19.8819   15.8659 H   0  0  0  0  0  0
  -28.3230  -18.4397   16.5479 H   0  0  0  0  0  0
  -30.4362  -17.9769   17.8658 H   0  0  0  0  0  0
  -31.1742  -19.4066   17.2260 H   0  0  0  0  0  0
  -30.1397  -17.8854   21.7311 H   0  0  0  0  0  0
  -31.2681  -17.8128   20.4357 H   0  0  0  0  0  0
  -29.2388  -23.2953   21.4806 H   0  0  0  0  0  0
  -30.1043  -23.6572   20.0657 H   0  0  0  0  0  0
  -27.1365  -24.2972   20.5181 H   0  0  0  0  0  0
  -27.8216  -24.3885   18.9320 H   0  0  0  0  0  0
  -28.8044  -16.1101   20.3753 H   0  0  0  0  0  0
  1 25  1  0  0  0
  1 30  2  0  0  0
  1 82  1  0  0  0
  2  3  1  0  0  0
  2 25  1  0  0  0
  2 83  1  0  0  0
  2 84  1  0  0  0
  3  4  1  0  0  0
  3 85  1  0  0  0
  3 86  1  0  0  0
  4  5  1  0  0  0
  4 87  1  0  0  0
  4 88  1  0  0  0
  5  6  1  0  0  0
  5 26  1  0  0  0
  5 89  1  0  0  0
  6 25  1  0  0  0
  6 90  1  0  0  0
  6 91  1  0  0  0
  7  8  2  0  0  0
  7 26  1  0  0  0
  7 29  1  0  0  0
  8  9  1  0  0  0
  8 22  1  0  0  0
  9 10  1  0  0  0
  9 27  2  0  0  0
 10 11  2  0  0  0
 10 15  1  0  0  0
 11 12  1  0  0  0
 11 92  1  0  0  0
 12 13  2  0  0  0
 12 93  1  0  0  0
 13 14  1  0  0  0
 13 31  1  0  0  0
 14 15  2  0  0  0
 14 94  1  0  0  0
 15 95  1  0  0  0
 16 17  2  0  0  0
 16 21  1  0  0  0
 16 31  1  0  0  0
 17 18  1  0  0  0
 17 96  1  0  0  0
 18 19  2  0  0  0
 18 97  1  0  0  0
 19 20  1  0  0  0
 19 24  1  0  0  0
 20 21  2  0  0  0
 20 98  1  0  0  0
 21 23  1  0  0  0
 22 28  1  0  0  0
 22 32  2  0  0  0
 26 27  1  0  0  0
 28 99  1  0  0  0
 28100  1  0  0  0
 29101  1  0  0  0
 29102  1  0  0  0
 33 34  1  0  0  0
 33 66  1  0  0  0
 33 70  2  0  0  0
 34 36  1  0  0  0
 34 59  1  0  0  0
 34103  1  0  0  0
 35 44  2  0  0  0
 35 45  1  0  0  0
 35 68  1  0  0  0
 36 56  1  0  0  0
 36104  1  0  0  0
 37 39  1  0  0  0
 37 47  1  0  0  0
 37 66  1  0  0  0
 37105  1  0  0  0
 38 43  2  0  0  0
 38 46  1  0  0  0
 38 47  1  0  0  0
 39 64  1  0  0  0
 39 67  2  0  0  0
 40 52  1  0  0  0
 40 53  2  0  0  0
 40 58  1  0  0  0
 41106  1  0  0  0
 41107  1  0  0  0
 41108  1  0  0  0
 41 48  1  0  0  0
 42 43  1  0  0  0
 42 66  1  0  0  0
 42109  1  0  0  0
 42110  1  0  0  0
 43 44  1  0  0  0
 44111  1  0  0  0
 45 46  2  0  0  0
 45112  1  0  0  0
 46113  1  0  0  0
 47114  1  0  0  0
 47115  1  0  0  0
 48 56  1  0  0  0
 48 65  1  0  0  0
 48116  1  0  0  0
 49 50  1  0  0  0
 49 53  1  0  0  0
 49 64  1  0  0  0
 49117  1  0  0  0
 50 51  1  0  0  0
 50118  1  0  0  0
 50119  1  0  0  0
 51 52  1  0  0  0
 51120  1  0  0  0
 51121  1  0  0  0
 52122  1  0  0  0
 52123  1  0  0  0
 53 54  1  0  0  0
 54 55  2  0  0  0
 54124  1  0  0  0
 55 57  1  0  0  0
 55125  1  0  0  0
 56 69  2  0  0  0
 57 58  2  0  0  0
 57126  1  0  0  0
 58127  1  0  0  0
 59 60  1  0  0  0
 59 61  1  0  0  0
 59 62  1  0  0  0
 60128  1  0  0  0
 60129  1  0  0  0
 60130  1  0  0  0
 61131  1  0  0  0
 61132  1  0  0  0
 61133  1  0  0  0
 62134  1  0  0  0
 62135  1  0  0  0
 62136  1  0  0  0
 63 65  1  0  0  0
 63137  1  0  0  0
 63138  1  0  0  0
 63139  1  0  0  0
 64140  1  0  0  0
 65141  1  0  0  0
 68 80  1  0  0  0
 71 72  2  0  0  0
 71 81  1  0  0  0
 71142  1  0  0  0
 72 73  1  0  0  0
 72 78  1  0  0  0
 73 74  2  0  0  0
 73 77  1  0  0  0
 74 75  1  0  0  0
 74 81  1  0  0  0
 75143  1  0  0  0
 75144  1  0  0  0
 75145  1  0  0  0
 76 77  1  0  0  0
 76146  1  0  0  0
 76147  1  0  0  0
 76148  1  0  0  0
 77149  1  0  0  0
 77150  1  0  0  0
 78 82  1  0  0  0
 78151  1  0  0  0
 78152  1  0  0  0
 79 80  1  0  0  0
 79 81  1  0  0  0
 79153  1  0  0  0
 79154  1  0  0  0
 80155  1  0  0  0
 80156  1  0  0  0
 82157  1  0  0  0
M  ISO  4   1 100  68 101  80 101  82 100
M  END
> <chiral flag>
0

> <version>
0

> <s_m_source_file>
/data/baiqing/PycharmProjects/Reinvent-master-3.2/result/LINK_invent/BTK/process_docking_weight1_custom_sum_contain_oxygen_bond_distance_aromatic_linkinvent_7_9_3/rearranged_h_0101.sdf

> <i_m_source_file_index>
47

> <r_mmod_Potential_Energy-OPLS-2005>
594.897888183594

> <r_mmod_Stretch_Energy-OPLS-2005>
311.919158935547

> <r_mmod_Bend_Energy-OPLS-2005>
313.438415527344

> <r_mmod_Torsional_Energy-OPLS-2005>
233.25602722168

> <r_mmod_Improper_Torsional_Energy-OPLS-2005>
10.9059028625488

> <r_mmod_Van_der_Waal_Energy-OPLS-2005>
106.372001647949

> <r_mmod_Electrostatic_Energy-OPLS-2005>
-420.799438476562

> <r_mmod_Solvation_Energy-OPLS-2005>
-217.594482421875

> <b_mmod_Minimization_Converged-OPLS-2005>
0

> <r_mmod_RMS_Derivative-OPLS-2005>
6.42710876464844

$$$$
47
                    3D
 Structure written by MMmdl.
176184  0  0  1  0            999 V2000
  -30.6223  -14.8007   20.2956 C   0  0  0  0  0  0
  -30.4223  -12.4499   19.4659 C   0  0  0  0  0  0
  -29.5047  -12.3783   18.2327 C   0  0  0  0  0  0
  -28.0547  -12.1682   18.6903 C   0  0  0  0  0  0
  -27.6188  -13.1709   19.7910 C   0  0  2  0  0  0
  -28.6669  -13.3143   20.9097 C   0  0  0  0  0  0
  -25.2608  -13.7966   20.5681 C   0  0  0  0  0  0
  -24.1850  -13.0286   20.9285 C   0  0  0  0  0  0
  -24.6380  -11.6782   20.8820 C   0  0  0  0  0  0
  -23.9033  -10.4199   21.0512 C   0  0  0  0  0  0
  -24.3586   -9.4128   21.9286 C   0  0  0  0  0  0
  -23.6287   -8.2141   22.0771 C   0  0  0  0  0  0
  -22.4268   -8.0225   21.3559 C   0  0  0  0  0  0
  -21.9925   -9.0189   20.4670 C   0  0  0  0  0  0
  -22.7234  -10.2085   20.3126 C   0  0  0  0  0  0
  -21.6882   -6.0710   22.5278 C   0  0  0  0  0  0
  -21.4010   -6.5603   23.8196 C   0  0  0  0  0  0
  -21.3659   -5.6765   24.9161 C   0  0  0  0  0  0
  -21.6062   -4.3032   24.7229 C   0  0  0  0  0  0
  -21.8824   -3.8120   23.4352 C   0  0  0  0  0  0
  -21.9209   -4.6934   22.3406 C   0  0  0  0  0  0
  -22.7882  -13.5184   21.1867 C   0  0  0  0  0  0
  -22.1671   -4.2113   21.0984 F   0  0  0  0  0  0
  -21.5648   -3.4515   25.7755 F   0  0  0  0  0  0
  -29.9597  -13.5936   20.2822 N   0  0  0  0  0  0
  -26.2876  -12.9034   20.3069 N   0  0  0  0  0  0
  -25.9273  -11.6260   20.5712 N   0  0  0  0  0  0
  -22.0443  -12.8143   22.0350 N   0  0  0  0  0  0
  -25.4333  -15.1646   20.4074 N   0  0  0  0  0  0
  -31.8535  -14.8074   20.2384 O   0  0  0  0  0  0
  -21.6635   -6.8839   21.4240 O   0  0  0  0  0  0
  -22.3650  -14.5500   20.6785 O   0  0  0  0  0  0
  -24.6139  -31.8646   23.2035 C   0  0  0  0  0  0
  -25.9006  -32.4827   23.8353 C   0  0  1  0  0  0
  -27.2749  -27.4051   20.1287 C   0  0  0  0  0  0
  -25.5827  -33.8625   24.2300 N   0  0  0  0  0  0
  -23.4114  -30.4756   21.5438 C   0  0  2  0  0  0
  -24.8699  -28.9268   20.1228 C   0  0  0  0  0  0
  -22.7421  -29.4625   22.4996 C   0  0  0  0  0  0
  -18.0279  -28.1405   22.8502 C   0  0  0  0  0  0
  -24.1476  -36.7310   23.2637 C   0  0  0  0  0  0
  -25.9381  -30.8150   21.3630 C   0  0  0  0  0  0
  -26.0199  -29.4378   20.7329 C   0  0  0  0  0  0
  -27.2177  -28.6816   20.7403 C   0  0  0  0  0  0
  -26.1061  -26.9163   19.4971 C   0  0  0  0  0  0
  -24.9072  -27.6618   19.5056 C   0  0  0  0  0  0
  -23.6258  -29.7888   20.1651 C   0  0  0  0  0  0
  -25.4101  -36.3125   24.0343 C   0  0  1  0  0  0
  -20.5862  -28.3686   23.1332 C   0  0  2  0  0  0
  -20.6761  -26.9410   22.5460 C   0  0  0  0  0  0
  -19.5757  -26.6382   21.5249 C   0  0  0  0  0  0
  -18.1928  -26.7943   22.1644 C   0  0  0  0  0  0
  -19.1530  -28.8863   23.2914 C   0  0  0  0  0  0
  -18.9463  -30.1449   23.8936 C   0  0  0  0  0  0
  -17.6462  -30.6604   24.0566 C   0  0  0  0  0  0
  -25.9042  -34.9492   23.5158 C   0  0  0  0  0  0
  -16.5361  -29.9118   23.6323 C   0  0  0  0  0  0
  -16.7270  -28.6531   23.0354 C   0  0  0  0  0  0
  -26.4408  -31.6577   25.0686 C   0  0  0  0  0  0
  -25.3653  -31.3637   26.1404 C   0  0  0  0  0  0
  -27.0182  -30.3024   24.5978 C   0  0  0  0  0  0
  -27.5988  -32.4232   25.7512 C   0  0  0  0  0  0
  -27.5600  -37.1812   24.8465 C   0  0  0  0  0  0
  -21.4157  -29.3034   22.3735 N   0  0  0  0  0  0
  -26.4288  -37.3823   23.9441 N   0  0  0  0  0  0
  -24.6729  -31.0658   22.0977 N   0  0  0  0  0  0
  -23.4154  -28.8197   23.3092 O   0  0  0  0  0  0
  -28.4784  -26.7046   20.1266 O   0  0  0  0  0  0
  -26.5659  -34.8951   22.4755 O   0  0  0  0  0  0
  -23.5313  -32.1428   23.7374 O   0  0  0  0  0  0
  -28.4633  -22.2450   19.4714 C   0  0  0  0  0  0
  -29.7701  -20.8721   20.9583 C   0  0  0  0  0  0
  -29.4965  -22.1693   20.4131 C   0  0  0  0  0  0
  -27.5509  -21.1965   19.2695 C   0  0  0  0  0  0
  -28.9470  -19.7211   20.6930 C   0  0  0  0  0  0
  -27.7339  -19.9378   19.9253 C   0  0  0  0  0  0
  -26.3817  -21.5359   18.3415 C   0  0  0  0  0  0
  -25.1816  -19.2276   20.1698 C   0  0  0  0  0  0
  -27.9993  -15.7476   16.8213 C   0  0  0  0  0  0
  -31.4028  -23.3770   21.7755 C   0  0  0  0  0  0
  -29.3351  -18.3435   21.3833 C   0  0  0  0  0  0
  -26.6434  -18.8498   19.7645 C   0  0  0  0  0  0
  -29.2606  -16.0683   17.6553 C   0  0  0  0  0  0
  -30.4186  -17.3327   20.7488 C   0  0  0  0  0  0
  -28.9211  -16.3481   19.1431 C   0  0  0  0  0  0
  -29.3348  -24.7251   21.1831 C   0  0  0  0  0  0
  -30.2495  -23.5045   20.7420 C   0  0  2  0  0  0
  -28.3365  -25.2471   20.2241 N   0  0  0  0  0  0
  -29.9107  -16.0096   20.2097 N   0  0  0  0  0  0
  -31.4665  -12.5427   19.1586 H   0  0  0  0  0  0
  -30.3562  -11.5181   20.0351 H   0  0  0  0  0  0
  -29.8102  -11.5613   17.5750 H   0  0  0  0  0  0
  -29.5767  -13.2774   17.6288 H   0  0  0  0  0  0
  -27.9996  -11.1449   19.0786 H   0  0  0  0  0  0
  -27.3734  -12.1991   17.8364 H   0  0  0  0  0  0
  -27.5336  -14.1035   19.2527 H   0  0  0  0  0  0
  -28.7188  -12.4274   21.5391 H   0  0  0  0  0  0
  -28.3830  -14.1520   21.5520 H   0  0  0  0  0  0
  -25.2718   -9.5586   22.4900 H   0  0  0  0  0  0
  -24.0026   -7.4500   22.7450 H   0  0  0  0  0  0
  -21.0873   -8.8686   19.8959 H   0  0  0  0  0  0
  -22.3702  -10.9625   19.6237 H   0  0  0  0  0  0
  -21.1965   -7.6109   23.9670 H   0  0  0  0  0  0
  -21.1513   -6.0511   25.9056 H   0  0  0  0  0  0
  -22.0642   -2.7584   23.2859 H   0  0  0  0  0  0
  -22.3945  -11.9716   22.4652 H   0  0  0  0  0  0
  -21.1017  -13.1154   22.2318 H   0  0  0  0  0  0
  -24.6645  -15.8088   20.5302 H   0  0  0  0  0  0
  -26.2589  -15.6064   20.0269 H   0  0  0  0  0  0
  -26.7106  -32.5560   23.1141 H   0  0  0  0  0  0
  -24.9772  -33.9763   25.0291 H   0  0  0  0  0  0
  -22.7038  -31.2926   21.3864 H   0  0  0  0  0  0
  -23.3776  -35.9611   23.3279 H   0  0  0  0  0  0
  -24.3581  -36.8950   22.2060 H   0  0  0  0  0  0
  -23.7163  -37.6477   23.6675 H   0  0  0  0  0  0
  -26.0284  -31.5526   20.5658 H   0  0  0  0  0  0
  -26.8358  -30.9018   21.9637 H   0  0  0  0  0  0
  -28.1059  -29.0692   21.2168 H   0  0  0  0  0  0
  -26.1155  -25.9594   18.9945 H   0  0  0  0  0  0
  -24.0233  -27.2601   19.0281 H   0  0  0  0  0  0
  -23.7276  -30.5528   19.3927 H   0  0  0  0  0  0
  -22.7549  -29.1964   19.8750 H   0  0  0  0  0  0
  -25.1251  -36.2030   25.0831 H   0  0  0  0  0  0
  -20.9941  -28.3266   24.1461 H   0  0  0  0  0  0
  -20.5666  -26.2299   23.3659 H   0  0  0  0  0  0
  -21.6638  -26.7446   22.1262 H   0  0  0  0  0  0
  -19.6928  -25.6294   21.1279 H   0  0  0  0  0  0
  -19.6724  -27.3192   20.6785 H   0  0  0  0  0  0
  -17.4197  -26.6700   21.4038 H   0  0  0  0  0  0
  -18.0331  -26.0073   22.9034 H   0  0  0  0  0  0
  -19.7931  -30.7252   24.2342 H   0  0  0  0  0  0
  -17.5030  -31.6299   24.5147 H   0  0  0  0  0  0
  -15.5375  -30.3055   23.7610 H   0  0  0  0  0  0
  -15.8664  -28.0870   22.7070 H   0  0  0  0  0  0
  -24.5835  -30.6995   25.7698 H   0  0  0  0  0  0
  -24.8809  -32.2767   26.4878 H   0  0  0  0  0  0
  -25.7948  -30.8755   27.0153 H   0  0  0  0  0  0
  -26.2698  -29.6954   24.0856 H   0  0  0  0  0  0
  -27.3780  -29.7085   25.4383 H   0  0  0  0  0  0
  -27.8631  -30.4376   23.9218 H   0  0  0  0  0  0
  -27.2603  -33.3496   26.2162 H   0  0  0  0  0  0
  -28.3807  -32.6811   25.0367 H   0  0  0  0  0  0
  -28.0630  -31.8264   26.5371 H   0  0  0  0  0  0
  -28.2560  -38.0158   24.7569 H   0  0  0  0  0  0
  -28.1126  -36.2682   24.6197 H   0  0  0  0  0  0
  -27.2326  -37.1365   25.8863 H   0  0  0  0  0  0
  -20.9355  -29.8720   21.6904 H   0  0  0  0  0  0
  -26.0179  -38.2905   24.1463 H   0  0  0  0  0  0
  -28.3182  -23.1633   18.9246 H   0  0  0  0  0  0
  -30.6176  -20.7567   21.6162 H   0  0  0  0  0  0
  -25.5015  -21.8288   18.9184 H   0  0  0  0  0  0
  -26.1316  -20.7210   17.6611 H   0  0  0  0  0  0
  -26.6120  -22.4006   17.7136 H   0  0  0  0  0  0
  -24.5556  -18.3336   20.1997 H   0  0  0  0  0  0
  -24.6815  -19.8898   19.4617 H   0  0  0  0  0  0
  -25.1078  -19.6954   21.1526 H   0  0  0  0  0  0
  -27.7064  -14.7024   16.9214 H   0  0  0  0  0  0
  -28.1618  -15.9323   15.7544 H   0  0  0  0  0  0
  -27.1510  -16.3566   17.1319 H   0  0  0  0  0  0
  -32.2234  -22.7456   21.4329 H   0  0  0  0  0  0
  -31.0680  -23.0138   22.7463 H   0  0  0  0  0  0
  -31.8496  -24.3579   21.9605 H   0  0  0  0  0  0
  -28.4547  -17.7781   21.6817 H   0  0  0  0  0  0
  -29.7307  -18.6390   22.3586 H   0  0  0  0  0  0
  -26.8962  -17.9574   20.3271 H   0  0  0  0  0  0
  -26.6597  -18.5290   18.7229 H   0  0  0  0  0  0
  -29.6848  -16.9814   17.2265 H   0  0  0  0  0  0
  -30.0323  -15.3152   17.5154 H   0  0  0  0  0  0
  -31.1138  -17.0783   21.5537 H   0  0  0  0  0  0
  -31.0427  -17.8383   20.0101 H   0  0  0  0  0  0
  -27.9191  -16.0604   19.4344 H   0  0  0  0  0  0
  -28.8013  -17.4292   19.0965 H   0  0  0  0  0  0
  -29.9851  -25.5540   21.4717 H   0  0  0  0  0  0
  -28.8066  -24.4444   22.0948 H   0  0  0  0  0  0
  -30.7432  -23.8045   19.8158 H   0  0  0  0  0  0
  -27.4155  -25.0916   20.6264 H   0  0  0  0  0  0
  1 25  1  0  0  0
  1 30  2  0  0  0
  1 89  1  0  0  0
  2  3  1  0  0  0
  2 25  1  0  0  0
  2 90  1  0  0  0
  2 91  1  0  0  0
  3  4  1  0  0  0
  3 92  1  0  0  0
  3 93  1  0  0  0
  4  5  1  0  0  0
  4 94  1  0  0  0
  4 95  1  0  0  0
  5  6  1  0  0  0
  5 26  1  0  0  0
  5 96  1  0  0  0
  6 25  1  0  0  0
  6 97  1  0  0  0
  6 98  1  0  0  0
  7  8  2  0  0  0
  7 26  1  0  0  0
  7 29  1  0  0  0
  8  9  1  0  0  0
  8 22  1  0  0  0
  9 10  1  0  0  0
  9 27  2  0  0  0
 10 11  2  0  0  0
 10 15  1  0  0  0
 11 12  1  0  0  0
 11 99  1  0  0  0
 12 13  2  0  0  0
 12100  1  0  0  0
 13 14  1  0  0  0
 13 31  1  0  0  0
 14 15  2  0  0  0
 14101  1  0  0  0
 15102  1  0  0  0
 16 17  2  0  0  0
 16 21  1  0  0  0
 16 31  1  0  0  0
 17 18  1  0  0  0
 17103  1  0  0  0
 18 19  2  0  0  0
 18104  1  0  0  0
 19 20  1  0  0  0
 19 24  1  0  0  0
 20 21  2  0  0  0
 20105  1  0  0  0
 21 23  1  0  0  0
 22 28  1  0  0  0
 22 32  2  0  0  0
 26 27  1  0  0  0
 28106  1  0  0  0
 28107  1  0  0  0
 29108  1  0  0  0
 29109  1  0  0  0
 33 34  1  0  0  0
 33 66  1  0  0  0
 33 70  2  0  0  0
 34 36  1  0  0  0
 34 59  1  0  0  0
 34110  1  0  0  0
 35 44  2  0  0  0
 35 45  1  0  0  0
 35 68  1  0  0  0
 36 56  1  0  0  0
 36111  1  0  0  0
 37 39  1  0  0  0
 37 47  1  0  0  0
 37 66  1  0  0  0
 37112  1  0  0  0
 38 43  2  0  0  0
 38 46  1  0  0  0
 38 47  1  0  0  0
 39 64  1  0  0  0
 39 67  2  0  0  0
 40 52  1  0  0  0
 40 53  2  0  0  0
 40 58  1  0  0  0
 41113  1  0  0  0
 41114  1  0  0  0
 41115  1  0  0  0
 41 48  1  0  0  0
 42 43  1  0  0  0
 42 66  1  0  0  0
 42116  1  0  0  0
 42117  1  0  0  0
 43 44  1  0  0  0
 44118  1  0  0  0
 45 46  2  0  0  0
 45119  1  0  0  0
 46120  1  0  0  0
 47121  1  0  0  0
 47122  1  0  0  0
 48 56  1  0  0  0
 48 65  1  0  0  0
 48123  1  0  0  0
 49 50  1  0  0  0
 49 53  1  0  0  0
 49 64  1  0  0  0
 49124  1  0  0  0
 50 51  1  0  0  0
 50125  1  0  0  0
 50126  1  0  0  0
 51 52  1  0  0  0
 51127  1  0  0  0
 51128  1  0  0  0
 52129  1  0  0  0
 52130  1  0  0  0
 53 54  1  0  0  0
 54 55  2  0  0  0
 54131  1  0  0  0
 55 57  1  0  0  0
 55132  1  0  0  0
 56 69  2  0  0  0
 57 58  2  0  0  0
 57133  1  0  0  0
 58134  1  0  0  0
 59 60  1  0  0  0
 59 61  1  0  0  0
 59 62  1  0  0  0
 60135  1  0  0  0
 60136  1  0  0  0
 60137  1  0  0  0
 61138  1  0  0  0
 61139  1  0  0  0
 61140  1  0  0  0
 62141  1  0  0  0
 62142  1  0  0  0
 62143  1  0  0  0
 63 65  1  0  0  0
 63144  1  0  0  0
 63145  1  0  0  0
 63146  1  0  0  0
 64147  1  0  0  0
 65148  1  0  0  0
 68 88  1  0  0  0
 71 73  2  0  0  0
 71 74  1  0  0  0
 71149  1  0  0  0
 72 73  1  0  0  0
 72 75  2  0  0  0
 72150  1  0  0  0
 73 87  1  0  0  0
 74 76  2  0  0  0
 74 77  1  0  0  0
 75 76  1  0  0  0
 75 81  1  0  0  0
 76 82  1  0  0  0
 77151  1  0  0  0
 77152  1  0  0  0
 77153  1  0  0  0
 78 82  1  0  0  0
 78154  1  0  0  0
 78155  1  0  0  0
 78156  1  0  0  0
 79 83  1  0  0  0
 79157  1  0  0  0
 79158  1  0  0  0
 79159  1  0  0  0
 80160  1  0  0  0
 80161  1  0  0  0
 80162  1  0  0  0
 80 87  1  0  0  0
 81 84  1  0  0  0
 81163  1  0  0  0
 81164  1  0  0  0
 82165  1  0  0  0
 82166  1  0  0  0
 83 85  1  0  0  0
 83167  1  0  0  0
 83168  1  0  0  0
 84 89  1  0  0  0
 84169  1  0  0  0
 84170  1  0  0  0
 85 89  1  0  0  0
 85171  1  0  0  0
 85172  1  0  0  0
 86 87  1  0  0  0
 86 88  1  0  0  0
 86173  1  0  0  0
 86174  1  0  0  0
 87175  1  0  0  0
 88176  1  0  0  0
M  ISO  4   1 100  68 101  88 101  89 100
M  END
> <chiral flag>
0

> <version>
0

> <s_m_source_file>
/data/baiqing/PycharmProjects/Reinvent-master-3.2/result/LINK_invent/BTK/process_docking_weight1_custom_sum_contain_oxygen_bond_distance_aromatic_linkinvent_7_9_3/rearranged_h_0101.sdf

> <i_m_source_file_index>
48

> <r_mmod_Potential_Energy-OPLS-2005>
389.438598632812

> <r_mmod_Stretch_Energy-OPLS-2005>
98.4738540649414

> <r_mmod_Bend_Energy-OPLS-2005>
186.273513793945

> <r_mmod_Torsional_Energy-OPLS-2005>
351.381011962891

> <r_mmod_Improper_Torsional_Energy-OPLS-2005>
5.91406393051147

> <r_mmod_Van_der_Waal_Energy-OPLS-2005>
150.577438354492

> <r_mmod_Electrostatic_Energy-OPLS-2005>
-314.062347412109

> <r_mmod_Solvation_Energy-OPLS-2005>
-188.989593505859

> <b_mmod_Minimization_Converged-OPLS-2005>
0

> <r_mmod_RMS_Derivative-OPLS-2005>
9.19316005706787

$$$$
48
                    3D
 Structure written by MMmdl.
171179  0  0  1  0            999 V2000
  -30.6745  -14.5906   20.5122 C   0  0  0  0  0  0
  -30.4243  -12.3574   19.4702 C   0  0  0  0  0  0
  -29.5126  -12.4932   18.2311 C   0  0  0  0  0  0
  -28.0283  -12.3517   18.6283 C   0  0  0  0  0  0
  -27.6518  -13.2229   19.8600 C   0  0  2  0  0  0
  -28.6876  -13.0865   20.9973 C   0  0  0  0  0  0
  -25.2522  -13.8190   20.5687 C   0  0  0  0  0  0
  -24.1786  -13.0441   20.9190 C   0  0  0  0  0  0
  -24.6380  -11.6922   20.8737 C   0  0  0  0  0  0
  -23.9048  -10.4291   21.0422 C   0  0  0  0  0  0
  -24.3606   -9.4211   21.9211 C   0  0  0  0  0  0
  -23.6278   -8.2245   22.0785 C   0  0  0  0  0  0
  -22.4256   -8.0282   21.3573 C   0  0  0  0  0  0
  -21.9891   -9.0252   20.4670 C   0  0  0  0  0  0
  -22.7215  -10.2131   20.3086 C   0  0  0  0  0  0
  -21.6850   -6.0738   22.5284 C   0  0  0  0  0  0
  -21.4014   -6.5649   23.8214 C   0  0  0  0  0  0
  -21.3649   -5.6800   24.9174 C   0  0  0  0  0  0
  -21.6037   -4.3067   24.7233 C   0  0  0  0  0  0
  -21.8816   -3.8153   23.4357 C   0  0  0  0  0  0
  -21.9186   -4.6964   22.3401 C   0  0  0  0  0  0
  -22.7813  -13.5253   21.1819 C   0  0  0  0  0  0
  -22.1659   -4.2156   21.0991 F   0  0  0  0  0  0
  -21.5608   -3.4547   25.7742 F   0  0  0  0  0  0
  -30.0138  -13.3927   20.4413 N   0  0  0  0  0  0
  -26.2976  -12.9390   20.3309 N   0  0  0  0  0  0
  -25.9302  -11.6531   20.5723 N   0  0  0  0  0  0
  -22.0415  -12.8295   22.0378 N   0  0  0  0  0  0
  -25.4133  -15.1919   20.4116 N   0  0  0  0  0  0
  -31.8423  -14.6943   20.1280 O   0  0  0  0  0  0
  -21.6642   -6.8876   21.4237 O   0  0  0  0  0  0
  -22.3505  -14.5534   20.6612 O   0  0  0  0  0  0
  -24.6190  -31.8689   23.2160 C   0  0  0  0  0  0
  -25.9049  -32.4867   23.8448 C   0  0  1  0  0  0
  -27.2058  -27.3635   20.0998 C   0  0  0  0  0  0
  -25.5906  -33.8652   24.2406 N   0  0  0  0  0  0
  -23.4067  -30.4956   21.5658 C   0  0  2  0  0  0
  -24.8415  -28.9589   20.1197 C   0  0  0  0  0  0
  -22.7420  -29.4640   22.5074 C   0  0  0  0  0  0
  -18.0240  -28.1384   22.8504 C   0  0  0  0  0  0
  -24.1462  -36.7240   23.2638 C   0  0  0  0  0  0
  -25.9443  -30.8125   21.3760 C   0  0  0  0  0  0
  -26.0129  -29.4462   20.7112 C   0  0  0  0  0  0
  -27.1976  -28.6605   20.6882 C   0  0  0  0  0  0
  -26.0009  -26.9075   19.5101 C   0  0  0  0  0  0
  -24.8362  -27.6941   19.5156 C   0  0  0  0  0  0
  -23.6111  -29.8420   20.1763 C   0  0  0  0  0  0
  -25.4110  -36.3152   24.0366 C   0  0  1  0  0  0
  -20.5829  -28.3669   23.1326 C   0  0  2  0  0  0
  -20.6742  -26.9419   22.5418 C   0  0  0  0  0  0
  -19.5730  -26.6399   21.5211 C   0  0  0  0  0  0
  -18.1901  -26.7934   22.1628 C   0  0  0  0  0  0
  -19.1488  -28.8844   23.2900 C   0  0  0  0  0  0
  -18.9430  -30.1438   23.8934 C   0  0  0  0  0  0
  -17.6439  -30.6600   24.0556 C   0  0  0  0  0  0
  -25.9051  -34.9507   23.5204 C   0  0  0  0  0  0
  -16.5327  -29.9110   23.6317 C   0  0  0  0  0  0
  -16.7227  -28.6505   23.0384 C   0  0  0  0  0  0
  -26.4456  -31.6623   25.0765 C   0  0  0  0  0  0
  -25.3652  -31.3729   26.1472 C   0  0  0  0  0  0
  -27.0262  -30.3086   24.6097 C   0  0  0  0  0  0
  -27.6091  -32.4275   25.7487 C   0  0  0  0  0  0
  -27.5597  -37.1796   24.8494 C   0  0  0  0  0  0
  -21.4150  -29.3019   22.3746 N   0  0  0  0  0  0
  -26.4323  -37.3829   23.9431 N   0  0  0  0  0  0
  -24.6762  -31.0719   22.1099 N   0  0  0  0  0  0
  -23.4156  -28.8185   23.3126 O   0  0  0  0  0  0
  -28.3632  -26.5860   20.1359 O   0  0  0  0  0  0
  -26.5598  -34.8940   22.4756 O   0  0  0  0  0  0
  -23.5359  -32.1478   23.7513 O   0  0  0  0  0  0
  -30.9229  -21.8905   19.6191 C   0  0  0  0  0  0
  -32.2819  -21.7218   19.3621 C   0  0  0  0  0  0
  -30.1539  -20.9000   20.2703 C   0  0  0  0  0  0
  -32.9645  -20.5980   19.8485 C   0  0  0  0  0  0
  -32.2275  -19.5843   20.5251 C   0  0  0  0  0  0
  -30.7968  -19.6539   20.6370 C   0  0  0  0  0  0
  -33.0284  -18.4465   21.1642 C   0  0  0  0  0  0
  -35.2079  -21.8534   19.6035 C   0  0  0  0  0  0
  -34.7419  -19.7384   18.2752 C   0  0  0  0  0  0
  -28.6750  -21.2658   20.5477 C   0  0  0  0  0  0
  -30.0318  -18.3775   21.1352 C   0  0  0  0  0  0
  -28.1094  -22.6035   19.9010 C   0  0  0  0  0  0
  -28.3859  -24.0109   20.5694 C   0  0  0  0  0  0
  -30.2684  -17.0841   20.2389 C   0  0  0  0  0  0
  -28.4114  -25.2351   19.5768 C   0  0  0  0  0  0
  -34.4773  -20.4925   19.5910 C   0  0  0  0  0  0
  -29.9416  -15.7149   20.7719 N   0  0  0  0  0  0
  -31.4725  -12.4600   19.1791 H   0  0  0  0  0  0
  -30.3307  -11.3611   19.9046 H   0  0  0  0  0  0
  -29.7716  -11.7378   17.4883 H   0  0  0  0  0  0
  -29.6841  -13.4573   17.7526 H   0  0  0  0  0  0
  -27.8417  -11.2997   18.8466 H   0  0  0  0  0  0
  -27.3903  -12.6008   17.7791 H   0  0  0  0  0  0
  -27.6679  -14.2572   19.5216 H   0  0  0  0  0  0
  -28.6637  -12.0784   21.4122 H   0  0  0  0  0  0
  -28.4373  -13.7501   21.8232 H   0  0  0  0  0  0
  -25.2746   -9.5686   22.4801 H   0  0  0  0  0  0
  -23.9959   -7.4650   22.7546 H   0  0  0  0  0  0
  -21.0808   -8.8791   19.9001 H   0  0  0  0  0  0
  -22.3682  -10.9676   19.6214 H   0  0  0  0  0  0
  -21.2029   -7.6164   23.9716 H   0  0  0  0  0  0
  -21.1456   -6.0544   25.9082 H   0  0  0  0  0  0
  -22.0598   -2.7616   23.2854 H   0  0  0  0  0  0
  -22.3965  -11.9987   22.4852 H   0  0  0  0  0  0
  -21.1066  -13.1418   22.2595 H   0  0  0  0  0  0
  -24.6286  -15.8299   20.4919 H   0  0  0  0  0  0
  -26.2538  -15.6463   20.0765 H   0  0  0  0  0  0
  -26.7088  -32.5556   23.1155 H   0  0  0  0  0  0
  -25.0118  -33.9828   25.0616 H   0  0  0  0  0  0
  -22.6950  -31.3154   21.4446 H   0  0  0  0  0  0
  -23.3809  -35.9492   23.3363 H   0  0  0  0  0  0
  -24.3556  -36.8774   22.2040 H   0  0  0  0  0  0
  -23.7095  -37.6419   23.6584 H   0  0  0  0  0  0
  -26.0700  -31.5825   20.6131 H   0  0  0  0  0  0
  -26.8272  -30.8522   22.0018 H   0  0  0  0  0  0
  -28.1045  -29.0428   21.1392 H   0  0  0  0  0  0
  -25.9021  -25.9359   19.0555 H   0  0  0  0  0  0
  -23.9276  -27.3089   19.0736 H   0  0  0  0  0  0
  -23.7304  -30.6348   19.4360 H   0  0  0  0  0  0
  -22.7229  -29.2835   19.8730 H   0  0  0  0  0  0
  -25.1265  -36.2084   25.0863 H   0  0  0  0  0  0
  -20.9883  -28.3228   24.1466 H   0  0  0  0  0  0
  -20.5659  -26.2278   23.3605 H   0  0  0  0  0  0
  -21.6619  -26.7496   22.1213 H   0  0  0  0  0  0
  -19.6911  -25.6312   21.1244 H   0  0  0  0  0  0
  -19.6675  -27.3205   20.6743 H   0  0  0  0  0  0
  -17.4177  -26.6658   21.4028 H   0  0  0  0  0  0
  -18.0327  -26.0070   22.9021 H   0  0  0  0  0  0
  -19.7897  -30.7208   24.2382 H   0  0  0  0  0  0
  -17.5000  -31.6311   24.5109 H   0  0  0  0  0  0
  -15.5332  -30.3035   23.7628 H   0  0  0  0  0  0
  -15.8621  -28.0812   22.7166 H   0  0  0  0  0  0
  -24.5865  -30.7063   25.7762 H   0  0  0  0  0  0
  -24.8767  -32.2857   26.4881 H   0  0  0  0  0  0
  -25.7918  -30.8904   27.0266 H   0  0  0  0  0  0
  -26.2820  -29.6915   24.1049 H   0  0  0  0  0  0
  -27.3969  -29.7276   25.4544 H   0  0  0  0  0  0
  -27.8685  -30.4491   23.9317 H   0  0  0  0  0  0
  -27.2863  -33.3630   26.2065 H   0  0  0  0  0  0
  -28.3876  -32.6723   25.0244 H   0  0  0  0  0  0
  -28.0747  -31.8343   26.5365 H   0  0  0  0  0  0
  -28.2670  -38.0052   24.7584 H   0  0  0  0  0  0
  -28.1054  -36.2597   24.6318 H   0  0  0  0  0  0
  -27.2302  -37.1433   25.8897 H   0  0  0  0  0  0
  -20.9346  -29.8684   21.6908 H   0  0  0  0  0  0
  -26.0235  -38.2923   24.1464 H   0  0  0  0  0  0
  -30.5034  -22.8228   19.2770 H   0  0  0  0  0  0
  -32.7846  -22.5015   18.8102 H   0  0  0  0  0  0
  -33.6839  -18.8538   21.9344 H   0  0  0  0  0  0
  -33.6463  -17.9451   20.4194 H   0  0  0  0  0  0
  -32.4495  -17.6776   21.6666 H   0  0  0  0  0  0
  -34.9777  -22.4188   20.5083 H   0  0  0  0  0  0
  -34.9513  -22.4759   18.7453 H   0  0  0  0  0  0
  -36.2891  -21.7176   19.5790 H   0  0  0  0  0  0
  -34.3026  -18.7394   18.2956 H   0  0  0  0  0  0
  -35.8104  -19.6209   18.0894 H   0  0  0  0  0  0
  -34.3087  -20.2585   17.4202 H   0  0  0  0  0  0
  -28.5187  -21.2761   21.6281 H   0  0  0  0  0  0
  -28.0720  -20.4381   20.1683 H   0  0  0  0  0  0
  -30.3386  -18.1871   22.1633 H   0  0  0  0  0  0
  -28.9624  -18.5838   21.2000 H   0  0  0  0  0  0
  -27.0227  -22.5150   19.8588 H   0  0  0  0  0  0
  -28.3911  -22.6240   18.8477 H   0  0  0  0  0  0
  -27.6447  -24.1837   21.3529 H   0  0  0  0  0  0
  -29.3437  -23.9826   21.0906 H   0  0  0  0  0  0
  -29.7253  -17.2203   19.3011 H   0  0  0  0  0  0
  -31.3063  -17.0618   19.9239 H   0  0  0  0  0  0
  -29.3776  -25.1861   19.0758 H   0  0  0  0  0  0
  -27.7148  -25.0814   18.7564 H   0  0  0  0  0  0
  -34.9450  -19.9188   20.3904 H   0  0  0  0  0  0
  -29.0031  -15.5762   21.1150 H   0  0  0  0  0  0
  1 25  1  0  0  0
  1 30  2  0  0  0
  1 87  1  0  0  0
  2  3  1  0  0  0
  2 25  1  0  0  0
  2 88  1  0  0  0
  2 89  1  0  0  0
  3  4  1  0  0  0
  3 90  1  0  0  0
  3 91  1  0  0  0
  4  5  1  0  0  0
  4 92  1  0  0  0
  4 93  1  0  0  0
  5  6  1  0  0  0
  5 26  1  0  0  0
  5 94  1  0  0  0
  6 25  1  0  0  0
  6 95  1  0  0  0
  6 96  1  0  0  0
  7  8  2  0  0  0
  7 26  1  0  0  0
  7 29  1  0  0  0
  8  9  1  0  0  0
  8 22  1  0  0  0
  9 10  1  0  0  0
  9 27  2  0  0  0
 10 11  2  0  0  0
 10 15  1  0  0  0
 11 12  1  0  0  0
 11 97  1  0  0  0
 12 13  2  0  0  0
 12 98  1  0  0  0
 13 14  1  0  0  0
 13 31  1  0  0  0
 14 15  2  0  0  0
 14 99  1  0  0  0
 15100  1  0  0  0
 16 17  2  0  0  0
 16 21  1  0  0  0
 16 31  1  0  0  0
 17 18  1  0  0  0
 17101  1  0  0  0
 18 19  2  0  0  0
 18102  1  0  0  0
 19 20  1  0  0  0
 19 24  1  0  0  0
 20 21  2  0  0  0
 20103  1  0  0  0
 21 23  1  0  0  0
 22 28  1  0  0  0
 22 32  2  0  0  0
 26 27  1  0  0  0
 28104  1  0  0  0
 28105  1  0  0  0
 29106  1  0  0  0
 29107  1  0  0  0
 33 34  1  0  0  0
 33 66  1  0  0  0
 33 70  2  0  0  0
 34 36  1  0  0  0
 34 59  1  0  0  0
 34108  1  0  0  0
 35 44  2  0  0  0
 35 45  1  0  0  0
 35 68  1  0  0  0
 36 56  1  0  0  0
 36109  1  0  0  0
 37 39  1  0  0  0
 37 47  1  0  0  0
 37 66  1  0  0  0
 37110  1  0  0  0
 38 43  2  0  0  0
 38 46  1  0  0  0
 38 47  1  0  0  0
 39 64  1  0  0  0
 39 67  2  0  0  0
 40 52  1  0  0  0
 40 53  2  0  0  0
 40 58  1  0  0  0
 41111  1  0  0  0
 41112  1  0  0  0
 41113  1  0  0  0
 41 48  1  0  0  0
 42 43  1  0  0  0
 42 66  1  0  0  0
 42114  1  0  0  0
 42115  1  0  0  0
 43 44  1  0  0  0
 44116  1  0  0  0
 45 46  2  0  0  0
 45117  1  0  0  0
 46118  1  0  0  0
 47119  1  0  0  0
 47120  1  0  0  0
 48 56  1  0  0  0
 48 65  1  0  0  0
 48121  1  0  0  0
 49 50  1  0  0  0
 49 53  1  0  0  0
 49 64  1  0  0  0
 49122  1  0  0  0
 50 51  1  0  0  0
 50123  1  0  0  0
 50124  1  0  0  0
 51 52  1  0  0  0
 51125  1  0  0  0
 51126  1  0  0  0
 52127  1  0  0  0
 52128  1  0  0  0
 53 54  1  0  0  0
 54 55  2  0  0  0
 54129  1  0  0  0
 55 57  1  0  0  0
 55130  1  0  0  0
 56 69  2  0  0  0
 57 58  2  0  0  0
 57131  1  0  0  0
 58132  1  0  0  0
 59 60  1  0  0  0
 59 61  1  0  0  0
 59 62  1  0  0  0
 60133  1  0  0  0
 60134  1  0  0  0
 60135  1  0  0  0
 61136  1  0  0  0
 61137  1  0  0  0
 61138  1  0  0  0
 62139  1  0  0  0
 62140  1  0  0  0
 62141  1  0  0  0
 63 65  1  0  0  0
 63142  1  0  0  0
 63143  1  0  0  0
 63144  1  0  0  0
 64145  1  0  0  0
 65146  1  0  0  0
 68 85  1  0  0  0
 71 72  2  0  0  0
 71 73  1  0  0  0
 71147  1  0  0  0
 72 74  1  0  0  0
 72148  1  0  0  0
 73 76  2  0  0  0
 73 80  1  0  0  0
 74 75  2  0  0  0
 74 86  1  0  0  0
 75 76  1  0  0  0
 75 77  1  0  0  0
 76 81  1  0  0  0
 77149  1  0  0  0
 77150  1  0  0  0
 77151  1  0  0  0
 78152  1  0  0  0
 78153  1  0  0  0
 78154  1  0  0  0
 78 86  1  0  0  0
 79 86  1  0  0  0
 79155  1  0  0  0
 79156  1  0  0  0
 79157  1  0  0  0
 80 82  1  0  0  0
 80158  1  0  0  0
 80159  1  0  0  0
 81 84  1  0  0  0
 81160  1  0  0  0
 81161  1  0  0  0
 82 83  1  0  0  0
 82162  1  0  0  0
 82163  1  0  0  0
 83 85  1  0  0  0
 83164  1  0  0  0
 83165  1  0  0  0
 84 87  1  0  0  0
 84166  1  0  0  0
 84167  1  0  0  0
 85168  1  0  0  0
 85169  1  0  0  0
 86170  1  0  0  0
 87171  1  0  0  0
M  ISO  4   1 100  68 101  85 101  87 100
M  END
> <chiral flag>
0

> <version>
0

> <s_m_source_file>
/data/baiqing/PycharmProjects/Reinvent-master-3.2/result/LINK_invent/BTK/process_docking_weight1_custom_sum_contain_oxygen_bond_distance_aromatic_linkinvent_7_9_3/rearranged_h_0101.sdf

> <i_m_source_file_index>
49

> <r_mmod_Potential_Energy-OPLS-2005>
41.8939437866211

> <r_mmod_Stretch_Energy-OPLS-2005>
76.7527694702148

> <r_mmod_Bend_Energy-OPLS-2005>
147.047805786133

> <r_mmod_Torsional_Energy-OPLS-2005>
228.010177612305

> <r_mmod_Improper_Torsional_Energy-OPLS-2005>
6.87461948394775

> <r_mmod_Van_der_Waal_Energy-OPLS-2005>
170.052719116211

> <r_mmod_Electrostatic_Energy-OPLS-2005>
-416.983612060547

> <r_mmod_Solvation_Energy-OPLS-2005>
-203.091720581055

> <b_mmod_Minimization_Converged-OPLS-2005>
0

> <r_mmod_RMS_Derivative-OPLS-2005>
5.34171915054321

$$$$
49
                    3D
 Structure written by MMmdl.
151159  0  0  1  0            999 V2000
  -30.4306  -15.3000   20.3610 C   0  0  0  0  0  0
  -30.4344  -12.8374   19.5150 C   0  0  0  0  0  0
  -29.5317  -12.5888   18.2793 C   0  0  0  0  0  0
  -28.0886  -12.2904   18.7188 C   0  0  0  0  0  0
  -27.6075  -13.2749   19.8133 C   0  0  2  0  0  0
  -28.6411  -13.4720   20.9438 C   0  0  0  0  0  0
  -25.2395  -13.8238   20.5744 C   0  0  0  0  0  0
  -24.1746  -13.0434   20.9264 C   0  0  0  0  0  0
  -24.6399  -11.6929   20.8765 C   0  0  0  0  0  0
  -23.9084  -10.4291   21.0397 C   0  0  0  0  0  0
  -24.3625   -9.4204   21.9177 C   0  0  0  0  0  0
  -23.6301   -8.2239   22.0747 C   0  0  0  0  0  0
  -22.4289   -8.0272   21.3531 C   0  0  0  0  0  0
  -21.9930   -9.0242   20.4630 C   0  0  0  0  0  0
  -22.7257  -10.2124   20.3040 C   0  0  0  0  0  0
  -21.6853   -6.0733   22.5280 C   0  0  0  0  0  0
  -21.4021   -6.5638   23.8214 C   0  0  0  0  0  0
  -21.3670   -5.6790   24.9174 C   0  0  0  0  0  0
  -21.6047   -4.3054   24.7220 C   0  0  0  0  0  0
  -21.8815   -3.8142   23.4340 C   0  0  0  0  0  0
  -21.9190   -4.6959   22.3401 C   0  0  0  0  0  0
  -22.7769  -13.5195   21.1896 C   0  0  0  0  0  0
  -22.1658   -4.2148   21.0978 F   0  0  0  0  0  0
  -21.5623   -3.4535   25.7729 F   0  0  0  0  0  0
  -29.8658  -13.9899   20.3111 N   0  0  0  0  0  0
  -26.2804  -12.9508   20.3179 N   0  0  0  0  0  0
  -25.9330  -11.6616   20.5688 N   0  0  0  0  0  0
  -22.0408  -12.8187   22.0439 N   0  0  0  0  0  0
  -25.4046  -15.1972   20.4181 N   0  0  0  0  0  0
  -31.6556  -15.2883   20.1731 O   0  0  0  0  0  0
  -21.6643   -6.8875   21.4241 O   0  0  0  0  0  0
  -22.3460  -14.5489   20.6712 O   0  0  0  0  0  0
  -24.6626  -31.8228   23.1679 C   0  0  0  0  0  0
  -25.9289  -32.4593   23.8150 C   0  0  1  0  0  0
  -27.2218  -26.9142   20.1931 C   0  0  0  0  0  0
  -25.5950  -33.8405   24.2061 N   0  0  0  0  0  0
  -23.4800  -30.4315   21.5177 C   0  0  2  0  0  0
  -24.9342  -28.8132   20.1164 C   0  0  0  0  0  0
  -22.7682  -29.4423   22.4784 C   0  0  0  0  0  0
  -18.0327  -28.1406   22.8477 C   0  0  0  0  0  0
  -24.1508  -36.7228   23.2650 C   0  0  0  0  0  0
  -26.0489  -30.6276   21.3966 C   0  0  0  0  0  0
  -26.1188  -29.2130   20.7477 C   0  0  0  0  0  0
  -27.2571  -28.2858   20.7583 C   0  0  0  0  0  0
  -26.0052  -26.6682   19.5177 C   0  0  0  0  0  0
  -24.9035  -27.5628   19.4797 C   0  0  0  0  0  0
  -23.7206  -29.7416   20.1468 C   0  0  0  0  0  0
  -25.4146  -36.2977   24.0301 C   0  0  1  0  0  0
  -20.5955  -28.3744   23.1203 C   0  0  2  0  0  0
  -20.6801  -26.9426   22.5414 C   0  0  0  0  0  0
  -19.5767  -26.6382   21.5226 C   0  0  0  0  0  0
  -18.1950  -26.7949   22.1629 C   0  0  0  0  0  0
  -19.1590  -28.8896   23.2827 C   0  0  0  0  0  0
  -18.9489  -30.1487   23.8860 C   0  0  0  0  0  0
  -17.6478  -30.6592   24.0563 C   0  0  0  0  0  0
  -25.9094  -34.9356   23.5013 C   0  0  0  0  0  0
  -16.5369  -29.9082   23.6339 C   0  0  0  0  0  0
  -16.7309  -28.6508   23.0356 C   0  0  0  0  0  0
  -26.4529  -31.6527   25.0672 C   0  0  0  0  0  0
  -25.3652  -31.3789   26.1327 C   0  0  0  0  0  0
  -27.0413  -30.2896   24.6392 C   0  0  0  0  0  0
  -27.6049  -32.4306   25.7463 C   0  0  0  0  0  0
  -27.5575  -37.1781   24.8458 C   0  0  0  0  0  0
  -21.4353  -29.3037   22.3547 N   0  0  0  0  0  0
  -26.4297  -37.3703   23.9383 N   0  0  0  0  0  0
  -24.7525  -30.9881   22.0812 N   0  0  0  0  0  0
  -23.4228  -28.7996   23.3025 O   0  0  0  0  0  0
  -28.2318  -25.8118   20.2528 O   0  0  0  0  0  0
  -26.5722  -34.8893   22.4619 O   0  0  0  0  0  0
  -23.5682  -32.1170   23.6766 O   0  0  0  0  0  0
  -31.5188  -22.8384   20.2601 C   0  0  0  0  0  0
  -30.4151  -23.6908   20.3345 C   0  0  0  0  0  0
  -31.0892  -21.5538   20.1624 C   0  0  0  0  0  0
  -29.2470  -22.9905   20.2649 C   0  0  0  0  0  0
  -32.0730  -20.4475   19.9591 C   0  0  0  0  0  0
  -27.9789  -24.1686   20.2198 C   0  0  0  0  0  0
  -29.1133  -19.8332   20.2784 C   0  0  0  0  0  0
  -30.0318  -18.2351   20.3641 C   0  0  0  0  0  0
  -29.6754  -21.4421   20.2553 N   0  0  0  0  0  0
  -29.6789  -16.5893   20.4209 N   0  0  0  0  0  0
  -31.4511  -13.0461   19.1794 H   0  0  0  0  0  0
  -30.5053  -11.9365   20.1269 H   0  0  0  0  0  0
  -29.9245  -11.7680   17.6773 H   0  0  0  0  0  0
  -29.5422  -13.4704   17.6362 H   0  0  0  0  0  0
  -28.0692  -11.2728   19.1107 H   0  0  0  0  0  0
  -27.4136  -12.2994   17.8610 H   0  0  0  0  0  0
  -27.5143  -14.2337   19.3025 H   0  0  0  0  0  0
  -28.8229  -12.5454   21.4898 H   0  0  0  0  0  0
  -28.2729  -14.1965   21.6710 H   0  0  0  0  0  0
  -25.2756   -9.5688   22.4764 H   0  0  0  0  0  0
  -23.9999   -7.4644   22.7483 H   0  0  0  0  0  0
  -21.0856   -8.8755   19.8954 H   0  0  0  0  0  0
  -22.3703  -10.9650   19.6148 H   0  0  0  0  0  0
  -21.2023   -7.6147   23.9719 H   0  0  0  0  0  0
  -21.1504   -6.0517   25.9081 H   0  0  0  0  0  0
  -22.0590   -2.7603   23.2836 H   0  0  0  0  0  0
  -22.4025  -11.9863   22.4852 H   0  0  0  0  0  0
  -21.1008  -13.1188   22.2599 H   0  0  0  0  0  0
  -24.6329  -15.8459   20.5258 H   0  0  0  0  0  0
  -26.2345  -15.6313   20.0369 H   0  0  0  0  0  0
  -26.7365  -32.5135   23.0870 H   0  0  0  0  0  0
  -25.0022  -33.9481   25.0160 H   0  0  0  0  0  0
  -22.7923  -31.2617   21.3432 H   0  0  0  0  0  0
  -23.3765  -35.9564   23.3297 H   0  0  0  0  0  0
  -24.3603  -36.8884   22.2069 H   0  0  0  0  0  0
  -23.7273  -37.6421   23.6710 H   0  0  0  0  0  0
  -26.2220  -31.3621   20.6082 H   0  0  0  0  0  0
  -26.9129  -30.6961   22.0465 H   0  0  0  0  0  0
  -28.1551  -28.5932   21.2749 H   0  0  0  0  0  0
  -25.8736  -25.7117   19.0344 H   0  0  0  0  0  0
  -24.0040  -27.2527   18.9660 H   0  0  0  0  0  0
  -23.8731  -30.5035   19.3814 H   0  0  0  0  0  0
  -22.8317  -29.1905   19.8351 H   0  0  0  0  0  0
  -25.1354  -36.1796   25.0796 H   0  0  0  0  0  0
  -21.0040  -28.3349   24.1325 H   0  0  0  0  0  0
  -20.5675  -26.2363   23.3656 H   0  0  0  0  0  0
  -21.6665  -26.7405   22.1211 H   0  0  0  0  0  0
  -19.6925  -25.6289   21.1266 H   0  0  0  0  0  0
  -19.6701  -27.3193   20.6756 H   0  0  0  0  0  0
  -17.4224  -26.6706   21.4024 H   0  0  0  0  0  0
  -18.0324  -26.0097   22.9025 H   0  0  0  0  0  0
  -19.7957  -30.7324   24.2204 H   0  0  0  0  0  0
  -17.5021  -31.6264   24.5182 H   0  0  0  0  0  0
  -15.5365  -30.2963   23.7683 H   0  0  0  0  0  0
  -15.8718  -28.0818   22.7071 H   0  0  0  0  0  0
  -24.5873  -30.7091   25.7637 H   0  0  0  0  0  0
  -24.8780  -32.2985   26.4574 H   0  0  0  0  0  0
  -25.7867  -30.9079   27.0214 H   0  0  0  0  0  0
  -26.3062  -29.6575   24.1397 H   0  0  0  0  0  0
  -27.3950  -29.7261   25.5033 H   0  0  0  0  0  0
  -27.9002  -30.4081   23.9790 H   0  0  0  0  0  0
  -27.2671  -33.3682   26.1886 H   0  0  0  0  0  0
  -28.3935  -32.6724   25.0327 H   0  0  0  0  0  0
  -28.0619  -31.8507   26.5488 H   0  0  0  0  0  0
  -28.2590  -38.0075   24.7480 H   0  0  0  0  0  0
  -28.1070  -36.2606   24.6320 H   0  0  0  0  0  0
  -27.2291  -37.1468   25.8858 H   0  0  0  0  0  0
  -20.9599  -29.8736   21.6699 H   0  0  0  0  0  0
  -26.0156  -38.2776   24.1337 H   0  0  0  0  0  0
  -32.5564  -23.1485   20.2426 H   0  0  0  0  0  0
  -30.4800  -24.7696   20.3918 H   0  0  0  0  0  0
  -32.1510  -19.7952   20.8253 H   0  0  0  0  0  0
  -33.0745  -20.8561   19.8188 H   0  0  0  0  0  0
  -31.8701  -19.8930   19.0452 H   0  0  0  0  0  0
  -27.3119  -23.9613   21.0564 H   0  0  0  0  0  0
  -27.3823  -23.9650   19.3309 H   0  0  0  0  0  0
  -28.4038  -19.8078   21.1055 H   0  0  0  0  0  0
  -28.4808  -19.7529   19.3942 H   0  0  0  0  0  0
  -30.6644  -18.3344   21.2435 H   0  0  0  0  0  0
  -30.6985  -18.2363   19.5069 H   0  0  0  0  0  0
  -28.6882  -16.4203   20.5143 H   0  0  0  0  0  0
  1 25  1  0  0  0
  1 30  2  0  0  0
  1 80  1  0  0  0
  2  3  1  0  0  0
  2 25  1  0  0  0
  2 81  1  0  0  0
  2 82  1  0  0  0
  3  4  1  0  0  0
  3 83  1  0  0  0
  3 84  1  0  0  0
  4  5  1  0  0  0
  4 85  1  0  0  0
  4 86  1  0  0  0
  5  6  1  0  0  0
  5 26  1  0  0  0
  5 87  1  0  0  0
  6 25  1  0  0  0
  6 88  1  0  0  0
  6 89  1  0  0  0
  7  8  2  0  0  0
  7 26  1  0  0  0
  7 29  1  0  0  0
  8  9  1  0  0  0
  8 22  1  0  0  0
  9 10  1  0  0  0
  9 27  2  0  0  0
 10 11  2  0  0  0
 10 15  1  0  0  0
 11 12  1  0  0  0
 11 90  1  0  0  0
 12 13  2  0  0  0
 12 91  1  0  0  0
 13 14  1  0  0  0
 13 31  1  0  0  0
 14 15  2  0  0  0
 14 92  1  0  0  0
 15 93  1  0  0  0
 16 17  2  0  0  0
 16 21  1  0  0  0
 16 31  1  0  0  0
 17 18  1  0  0  0
 17 94  1  0  0  0
 18 19  2  0  0  0
 18 95  1  0  0  0
 19 20  1  0  0  0
 19 24  1  0  0  0
 20 21  2  0  0  0
 20 96  1  0  0  0
 21 23  1  0  0  0
 22 28  1  0  0  0
 22 32  2  0  0  0
 26 27  1  0  0  0
 28 97  1  0  0  0
 28 98  1  0  0  0
 29 99  1  0  0  0
 29100  1  0  0  0
 33 34  1  0  0  0
 33 66  1  0  0  0
 33 70  2  0  0  0
 34 36  1  0  0  0
 34 59  1  0  0  0
 34101  1  0  0  0
 35 44  2  0  0  0
 35 45  1  0  0  0
 35 68  1  0  0  0
 36 56  1  0  0  0
 36102  1  0  0  0
 37 39  1  0  0  0
 37 47  1  0  0  0
 37 66  1  0  0  0
 37103  1  0  0  0
 38 43  2  0  0  0
 38 46  1  0  0  0
 38 47  1  0  0  0
 39 64  1  0  0  0
 39 67  2  0  0  0
 40 52  1  0  0  0
 40 53  2  0  0  0
 40 58  1  0  0  0
 41104  1  0  0  0
 41105  1  0  0  0
 41106  1  0  0  0
 41 48  1  0  0  0
 42 43  1  0  0  0
 42 66  1  0  0  0
 42107  1  0  0  0
 42108  1  0  0  0
 43 44  1  0  0  0
 44109  1  0  0  0
 45 46  2  0  0  0
 45110  1  0  0  0
 46111  1  0  0  0
 47112  1  0  0  0
 47113  1  0  0  0
 48 56  1  0  0  0
 48 65  1  0  0  0
 48114  1  0  0  0
 49 50  1  0  0  0
 49 53  1  0  0  0
 49 64  1  0  0  0
 49115  1  0  0  0
 50 51  1  0  0  0
 50116  1  0  0  0
 50117  1  0  0  0
 51 52  1  0  0  0
 51118  1  0  0  0
 51119  1  0  0  0
 52120  1  0  0  0
 52121  1  0  0  0
 53 54  1  0  0  0
 54 55  2  0  0  0
 54122  1  0  0  0
 55 57  1  0  0  0
 55123  1  0  0  0
 56 69  2  0  0  0
 57 58  2  0  0  0
 57124  1  0  0  0
 58125  1  0  0  0
 59 60  1  0  0  0
 59 61  1  0  0  0
 59 62  1  0  0  0
 60126  1  0  0  0
 60127  1  0  0  0
 60128  1  0  0  0
 61129  1  0  0  0
 61130  1  0  0  0
 61131  1  0  0  0
 62132  1  0  0  0
 62133  1  0  0  0
 62134  1  0  0  0
 63 65  1  0  0  0
 63135  1  0  0  0
 63136  1  0  0  0
 63137  1  0  0  0
 64138  1  0  0  0
 65139  1  0  0  0
 68 76  1  0  0  0
 71 72  1  0  0  0
 71 73  2  0  0  0
 71140  1  0  0  0
 72 74  2  0  0  0
 72141  1  0  0  0
 73 75  1  0  0  0
 73 79  1  0  0  0
 74 76  1  0  0  0
 74 79  1  0  0  0
 75142  1  0  0  0
 75143  1  0  0  0
 75144  1  0  0  0
 76145  1  0  0  0
 76146  1  0  0  0
 77 78  1  0  0  0
 77 79  1  0  0  0
 77147  1  0  0  0
 77148  1  0  0  0
 78 80  1  0  0  0
 78149  1  0  0  0
 78150  1  0  0  0
 80151  1  0  0  0
M  ISO  4   1 100  68 101  76 101  80 100
M  END
> <chiral flag>
0

> <version>
0

> <s_m_source_file>
/data/baiqing/PycharmProjects/Reinvent-master-3.2/result/LINK_invent/BTK/process_docking_weight1_custom_sum_contain_oxygen_bond_distance_aromatic_linkinvent_7_9_3/rearranged_h_0101.sdf

> <i_m_source_file_index>
50

> <r_mmod_Potential_Energy-OPLS-2005>
1483.64221191406

> <r_mmod_Stretch_Energy-OPLS-2005>
702.710327148438

> <r_mmod_Bend_Energy-OPLS-2005>
530.179077148438

> <r_mmod_Torsional_Energy-OPLS-2005>
227.442810058594

> <r_mmod_Improper_Torsional_Energy-OPLS-2005>
4.07115507125854

> <r_mmod_Van_der_Waal_Energy-OPLS-2005>
120.150695800781

> <r_mmod_Electrostatic_Energy-OPLS-2005>
-361.252593994141

> <r_mmod_Solvation_Energy-OPLS-2005>
-226.294235229492

> <b_mmod_Minimization_Converged-OPLS-2005>
0

> <r_mmod_RMS_Derivative-OPLS-2005>
1.88243508338928

$$$$
50
                    3D
 Structure written by MMmdl.
173181  0  0  1  0            999 V2000
  -30.8154  -14.4722   20.5076 C   0  0  0  0  0  0
  -30.3922  -12.2877   19.4536 C   0  0  0  0  0  0
  -29.4864  -12.4713   18.2223 C   0  0  0  0  0  0
  -28.0061  -12.3543   18.6267 C   0  0  0  0  0  0
  -27.6587  -13.2207   19.8682 C   0  0  2  0  0  0
  -28.7121  -13.0756   20.9986 C   0  0  0  0  0  0
  -25.2592  -13.8200   20.5740 C   0  0  0  0  0  0
  -24.1884  -13.0451   20.9319 C   0  0  0  0  0  0
  -24.6449  -11.6920   20.8820 C   0  0  0  0  0  0
  -23.9105  -10.4290   21.0406 C   0  0  0  0  0  0
  -24.3635   -9.4197   21.9185 C   0  0  0  0  0  0
  -23.6305   -8.2241   22.0736 C   0  0  0  0  0  0
  -22.4288   -8.0291   21.3557 C   0  0  0  0  0  0
  -21.9953   -9.0268   20.4646 C   0  0  0  0  0  0
  -22.7281  -10.2148   20.3051 C   0  0  0  0  0  0
  -21.6858   -6.0751   22.5305 C   0  0  0  0  0  0
  -21.4006   -6.5634   23.8252 C   0  0  0  0  0  0
  -21.3664   -5.6791   24.9203 C   0  0  0  0  0  0
  -21.6045   -4.3038   24.7232 C   0  0  0  0  0  0
  -21.8813   -3.8147   23.4345 C   0  0  0  0  0  0
  -21.9192   -4.6980   22.3420 C   0  0  0  0  0  0
  -22.7901  -13.5224   21.1898 C   0  0  0  0  0  0
  -22.1633   -4.2181   21.0977 F   0  0  0  0  0  0
  -21.5663   -3.4505   25.7730 F   0  0  0  0  0  0
  -30.0431  -13.3418   20.4316 N   0  0  0  0  0  0
  -26.3032  -12.9398   20.3414 N   0  0  0  0  0  0
  -25.9377  -11.6556   20.5885 N   0  0  0  0  0  0
  -22.0468  -12.8292   22.0437 N   0  0  0  0  0  0
  -25.4242  -15.1904   20.3975 N   0  0  0  0  0  0
  -31.9361  -14.4409   20.0145 O   0  0  0  0  0  0
  -21.6608   -6.8909   21.4290 O   0  0  0  0  0  0
  -22.3596  -14.5465   20.6618 O   0  0  0  0  0  0
  -24.6180  -31.8685   23.2159 C   0  0  0  0  0  0
  -25.9065  -32.4851   23.8442 C   0  0  1  0  0  0
  -27.1937  -27.4179   20.0977 C   0  0  0  0  0  0
  -25.5935  -33.8638   24.2362 N   0  0  0  0  0  0
  -23.4005  -30.4967   21.5590 C   0  0  2  0  0  0
  -24.8387  -28.9742   20.1057 C   0  0  0  0  0  0
  -22.7465  -29.4618   22.5049 C   0  0  0  0  0  0
  -18.0297  -28.1343   22.8507 C   0  0  0  0  0  0
  -24.1472  -36.7315   23.2627 C   0  0  0  0  0  0
  -25.9348  -30.8337   21.3652 C   0  0  0  0  0  0
  -26.0032  -29.4696   20.7027 C   0  0  0  0  0  0
  -27.1925  -28.7003   20.6930 C   0  0  0  0  0  0
  -26.0152  -26.9503   19.4782 C   0  0  0  0  0  0
  -24.8395  -27.7174   19.4825 C   0  0  0  0  0  0
  -23.6023  -29.8412   20.1695 C   0  0  0  0  0  0
  -25.4108  -36.3128   24.0335 C   0  0  1  0  0  0
  -20.5892  -28.3579   23.1352 C   0  0  2  0  0  0
  -20.6755  -26.9336   22.5448 C   0  0  0  0  0  0
  -19.5737  -26.6323   21.5244 C   0  0  0  0  0  0
  -18.1931  -26.7899   22.1653 C   0  0  0  0  0  0
  -19.1547  -28.8787   23.2933 C   0  0  0  0  0  0
  -18.9491  -30.1381   23.8980 C   0  0  0  0  0  0
  -17.6483  -30.6540   24.0628 C   0  0  0  0  0  0
  -25.9007  -34.9487   23.5127 C   0  0  0  0  0  0
  -16.5371  -29.9063   23.6344 C   0  0  0  0  0  0
  -16.7281  -28.6489   23.0349 C   0  0  0  0  0  0
  -26.4470  -31.6642   25.0779 C   0  0  0  0  0  0
  -25.3735  -31.3768   26.1545 C   0  0  0  0  0  0
  -27.0307  -30.3088   24.6151 C   0  0  0  0  0  0
  -27.6055  -32.4374   25.7527 C   0  0  0  0  0  0
  -27.5576  -37.1813   24.8457 C   0  0  0  0  0  0
  -21.4194  -29.2974   22.3826 N   0  0  0  0  0  0
  -26.4281  -37.3824   23.9411 N   0  0  0  0  0  0
  -24.6707  -31.0797   22.1035 N   0  0  0  0  0  0
  -23.4286  -28.8143   23.3045 O   0  0  0  0  0  0
  -28.3042  -26.6017   20.1590 O   0  0  0  0  0  0
  -26.5546  -34.8937   22.4664 O   0  0  0  0  0  0
  -23.5381  -32.1426   23.7553 O   0  0  0  0  0  0
  -29.1315  -16.2529   21.2247 C   0  0  0  0  0  0
  -30.4166  -15.8264   21.0541 C   0  0  0  0  0  0
  -31.2637  -16.9716   21.3168 C   0  0  0  0  0  0
  -30.4378  -18.0214   21.6809 C   0  0  0  0  0  0
  -30.8770  -19.4099   22.0568 C   0  0  0  0  0  0
  -33.5900  -17.9618   22.0670 C   0  0  0  0  0  0
  -33.2461  -17.1910   19.7034 C   0  0  0  0  0  0
  -26.4861  -22.1225   19.1433 C   0  0  0  0  0  0
  -27.9142  -24.1281   19.8102 C   0  0  0  0  0  0
  -27.7943  -18.2052   21.9060 C   0  0  0  0  0  0
  -27.6575  -19.7019   22.2668 C   0  0  0  0  0  0
  -27.7464  -22.0664   21.4308 C   0  0  0  0  0  0
  -28.0493  -25.3238   20.7896 C   0  0  0  0  0  0
  -32.8048  -16.9860   21.1681 C   0  0  0  0  0  0
  -27.0541  -22.9386   20.3311 C   0  0  2  0  0  0
  -29.1053  -17.5792   21.6240 N   0  0  0  0  0  0
  -27.7935  -20.6173   21.1049 N   0  3  0  0  0  0
  -31.4370  -12.2925   19.1372 H   0  0  0  0  0  0
  -30.2412  -11.3010   19.8931 H   0  0  0  0  0  0
  -29.7241  -11.7235   17.4645 H   0  0  0  0  0  0
  -29.6748  -13.4409   17.7610 H   0  0  0  0  0  0
  -27.7916  -11.3046   18.8290 H   0  0  0  0  0  0
  -27.3685  -12.6270   17.7858 H   0  0  0  0  0  0
  -27.6830  -14.2529   19.5245 H   0  0  0  0  0  0
  -28.6926  -12.0608   21.3970 H   0  0  0  0  0  0
  -28.4871  -13.7194   21.8485 H   0  0  0  0  0  0
  -25.2735   -9.5686   22.4829 H   0  0  0  0  0  0
  -24.0015   -7.4604   22.7422 H   0  0  0  0  0  0
  -21.0907   -8.8760   19.8927 H   0  0  0  0  0  0
  -22.3682  -10.9707   19.6190 H   0  0  0  0  0  0
  -21.1951   -7.6138   23.9745 H   0  0  0  0  0  0
  -21.1521   -6.0522   25.9123 H   0  0  0  0  0  0
  -22.0588   -2.7612   23.2830 H   0  0  0  0  0  0
  -22.3998  -11.9932   22.4859 H   0  0  0  0  0  0
  -21.1053  -13.1350   22.2456 H   0  0  0  0  0  0
  -24.6303  -15.8204   20.4377 H   0  0  0  0  0  0
  -26.2274  -15.5952   19.9360 H   0  0  0  0  0  0
  -26.7169  -32.5528   23.1226 H   0  0  0  0  0  0
  -25.0275  -33.9836   25.0637 H   0  0  0  0  0  0
  -22.6865  -31.3112   21.4320 H   0  0  0  0  0  0
  -23.3758  -35.9613   23.3282 H   0  0  0  0  0  0
  -24.3587  -36.8931   22.2043 H   0  0  0  0  0  0
  -23.7180  -37.6497   23.6641 H   0  0  0  0  0  0
  -26.0450  -31.6008   20.6014 H   0  0  0  0  0  0
  -26.8235  -30.8868   21.9800 H   0  0  0  0  0  0
  -28.0895  -29.0711   21.1686 H   0  0  0  0  0  0
  -25.9805  -25.9864   18.9973 H   0  0  0  0  0  0
  -23.9469  -27.3428   19.0019 H   0  0  0  0  0  0
  -23.7047  -30.6202   19.4137 H   0  0  0  0  0  0
  -22.7251  -29.2572   19.8799 H   0  0  0  0  0  0
  -25.1277  -36.1995   25.0832 H   0  0  0  0  0  0
  -21.0000  -28.3088   24.1459 H   0  0  0  0  0  0
  -20.5644  -26.2169   23.3614 H   0  0  0  0  0  0
  -21.6609  -26.7373   22.1200 H   0  0  0  0  0  0
  -19.6861  -25.6226   21.1268 H   0  0  0  0  0  0
  -19.6665  -27.3127   20.6773 H   0  0  0  0  0  0
  -17.4210  -26.6697   21.4035 H   0  0  0  0  0  0
  -18.0322  -26.0036   22.9056 H   0  0  0  0  0  0
  -19.7986  -30.7136   24.2403 H   0  0  0  0  0  0
  -17.5065  -31.6211   24.5242 H   0  0  0  0  0  0
  -15.5377  -30.2979   23.7663 H   0  0  0  0  0  0
  -15.8675  -28.0834   22.7042 H   0  0  0  0  0  0
  -24.5874  -30.7138   25.7885 H   0  0  0  0  0  0
  -24.8966  -32.2931   26.5016 H   0  0  0  0  0  0
  -25.8081  -30.8907   27.0284 H   0  0  0  0  0  0
  -26.2846  -29.6892   24.1151 H   0  0  0  0  0  0
  -27.4022  -29.7302   25.4618 H   0  0  0  0  0  0
  -27.8706  -30.4452   23.9355 H   0  0  0  0  0  0
  -27.2679  -33.3682   26.2120 H   0  0  0  0  0  0
  -28.3845  -32.6938   25.0322 H   0  0  0  0  0  0
  -28.0761  -31.8498   26.5431 H   0  0  0  0  0  0
  -28.2590  -38.0118   24.7568 H   0  0  0  0  0  0
  -28.1085  -36.2660   24.6213 H   0  0  0  0  0  0
  -27.2317  -37.1396   25.8865 H   0  0  0  0  0  0
  -20.9312  -29.8825   21.7185 H   0  0  0  0  0  0
  -26.0172  -38.2882   24.1448 H   0  0  0  0  0  0
  -28.1940  -15.7380   21.0839 H   0  0  0  0  0  0
  -31.3530  -19.4058   23.0380 H   0  0  0  0  0  0
  -30.1044  -20.1579   22.0831 H   0  0  0  0  0  0
  -31.5839  -19.7922   21.3189 H   0  0  0  0  0  0
  -33.2817  -17.8925   23.1092 H   0  0  0  0  0  0
  -33.5077  -18.9957   21.7398 H   0  0  0  0  0  0
  -34.6583  -17.7388   22.0267 H   0  0  0  0  0  0
  -32.8080  -16.4613   19.0252 H   0  0  0  0  0  0
  -34.3284  -17.0909   19.6045 H   0  0  0  0  0  0
  -32.9617  -18.1689   19.3190 H   0  0  0  0  0  0
  -25.9078  -22.7630   18.4777 H   0  0  0  0  0  0
  -25.8003  -21.3408   19.4779 H   0  0  0  0  0  0
  -27.2707  -21.6598   18.5404 H   0  0  0  0  0  0
  -28.9015  -23.7719   19.5137 H   0  0  0  0  0  0
  -27.4745  -24.4870   18.8820 H   0  0  0  0  0  0
  -27.1438  -18.0021   21.0519 H   0  0  0  0  0  0
  -27.3624  -17.6334   22.7279 H   0  0  0  0  0  0
  -28.2972  -19.9702   23.1055 H   0  0  0  0  0  0
  -26.6439  -19.8467   22.6445 H   0  0  0  0  0  0
  -27.2049  -22.2024   22.3688 H   0  0  0  0  0  0
  -28.7651  -22.4091   21.6286 H   0  0  0  0  0  0
  -28.8605  -25.1214   21.4904 H   0  0  0  0  0  0
  -27.1524  -25.3812   21.4139 H   0  0  0  0  0  0
  -33.1460  -16.0044   21.4980 H   0  0  0  0  0  0
  -26.1685  -23.3733   20.8035 H   0  0  0  0  0  0
  -27.0325  -20.4363   20.4693 H   0  0  0  0  0  0
  -28.6474  -20.4149   20.6083 H   0  0  0  0  0  0
  1 25  1  0  0  0
  1 30  2  0  0  0
  1 72  1  0  0  0
  2  3  1  0  0  0
  2 25  1  0  0  0
  2 88  1  0  0  0
  2 89  1  0  0  0
  3  4  1  0  0  0
  3 90  1  0  0  0
  3 91  1  0  0  0
  4  5  1  0  0  0
  4 92  1  0  0  0
  4 93  1  0  0  0
  5  6  1  0  0  0
  5 26  1  0  0  0
  5 94  1  0  0  0
  6 25  1  0  0  0
  6 95  1  0  0  0
  6 96  1  0  0  0
  7  8  2  0  0  0
  7 26  1  0  0  0
  7 29  1  0  0  0
  8  9  1  0  0  0
  8 22  1  0  0  0
  9 10  1  0  0  0
  9 27  2  0  0  0
 10 11  2  0  0  0
 10 15  1  0  0  0
 11 12  1  0  0  0
 11 97  1  0  0  0
 12 13  2  0  0  0
 12 98  1  0  0  0
 13 14  1  0  0  0
 13 31  1  0  0  0
 14 15  2  0  0  0
 14 99  1  0  0  0
 15100  1  0  0  0
 16 17  2  0  0  0
 16 21  1  0  0  0
 16 31  1  0  0  0
 17 18  1  0  0  0
 17101  1  0  0  0
 18 19  2  0  0  0
 18102  1  0  0  0
 19 20  1  0  0  0
 19 24  1  0  0  0
 20 21  2  0  0  0
 20103  1  0  0  0
 21 23  1  0  0  0
 22 28  1  0  0  0
 22 32  2  0  0  0
 26 27  1  0  0  0
 28104  1  0  0  0
 28105  1  0  0  0
 29106  1  0  0  0
 29107  1  0  0  0
 33 34  1  0  0  0
 33 66  1  0  0  0
 33 70  2  0  0  0
 34 36  1  0  0  0
 34 59  1  0  0  0
 34108  1  0  0  0
 35 44  2  0  0  0
 35 45  1  0  0  0
 35 68  1  0  0  0
 36 56  1  0  0  0
 36109  1  0  0  0
 37 39  1  0  0  0
 37 47  1  0  0  0
 37 66  1  0  0  0
 37110  1  0  0  0
 38 43  2  0  0  0
 38 46  1  0  0  0
 38 47  1  0  0  0
 39 64  1  0  0  0
 39 67  2  0  0  0
 40 52  1  0  0  0
 40 53  2  0  0  0
 40 58  1  0  0  0
 41111  1  0  0  0
 41112  1  0  0  0
 41113  1  0  0  0
 41 48  1  0  0  0
 42 43  1  0  0  0
 42 66  1  0  0  0
 42114  1  0  0  0
 42115  1  0  0  0
 43 44  1  0  0  0
 44116  1  0  0  0
 45 46  2  0  0  0
 45117  1  0  0  0
 46118  1  0  0  0
 47119  1  0  0  0
 47120  1  0  0  0
 48 56  1  0  0  0
 48 65  1  0  0  0
 48121  1  0  0  0
 49 50  1  0  0  0
 49 53  1  0  0  0
 49 64  1  0  0  0
 49122  1  0  0  0
 50 51  1  0  0  0
 50123  1  0  0  0
 50124  1  0  0  0
 51 52  1  0  0  0
 51125  1  0  0  0
 51126  1  0  0  0
 52127  1  0  0  0
 52128  1  0  0  0
 53 54  1  0  0  0
 54 55  2  0  0  0
 54129  1  0  0  0
 55 57  1  0  0  0
 55130  1  0  0  0
 56 69  2  0  0  0
 57 58  2  0  0  0
 57131  1  0  0  0
 58132  1  0  0  0
 59 60  1  0  0  0
 59 61  1  0  0  0
 59 62  1  0  0  0
 60133  1  0  0  0
 60134  1  0  0  0
 60135  1  0  0  0
 61136  1  0  0  0
 61137  1  0  0  0
 61138  1  0  0  0
 62139  1  0  0  0
 62140  1  0  0  0
 62141  1  0  0  0
 63 65  1  0  0  0
 63142  1  0  0  0
 63143  1  0  0  0
 63144  1  0  0  0
 64145  1  0  0  0
 65146  1  0  0  0
 68 83  1  0  0  0
 71 72  2  0  0  0
 71 86  1  0  0  0
 71147  1  0  0  0
 72 73  1  0  0  0
 73 74  2  0  0  0
 73 84  1  0  0  0
 74 75  1  0  0  0
 74 86  1  0  0  0
 75148  1  0  0  0
 75149  1  0  0  0
 75150  1  0  0  0
 76151  1  0  0  0
 76152  1  0  0  0
 76153  1  0  0  0
 76 84  1  0  0  0
 77 84  1  0  0  0
 77154  1  0  0  0
 77155  1  0  0  0
 77156  1  0  0  0
 78157  1  0  0  0
 78158  1  0  0  0
 78159  1  0  0  0
 78 85  1  0  0  0
 79 83  1  0  0  0
 79 85  1  0  0  0
 79160  1  0  0  0
 79161  1  0  0  0
 80 81  1  0  0  0
 80 86  1  0  0  0
 80162  1  0  0  0
 80163  1  0  0  0
 81 87  1  0  0  0
 81164  1  0  0  0
 81165  1  0  0  0
 82 85  1  0  0  0
 82 87  1  0  0  0
 82166  1  0  0  0
 82167  1  0  0  0
 83168  1  0  0  0
 83169  1  0  0  0
 84170  1  0  0  0
 85171  1  0  0  0
 87172  1  0  0  0
 87173  1  0  0  0
M  CHG  1  87   1
M  ISO  4   1 100  68 101  72 100  83 101
M  END
> <chiral flag>
0

> <version>
0

> <s_m_source_file>
/data/baiqing/PycharmProjects/Reinvent-master-3.2/result/LINK_invent/BTK/process_docking_weight1_custom_sum_contain_oxygen_bond_distance_aromatic_linkinvent_7_9_3/rearranged_h_0101.sdf

> <i_m_source_file_index>
51

> <r_mmod_Potential_Energy-OPLS-2005>
-40.437385559082

> <r_mmod_Stretch_Energy-OPLS-2005>
49.482292175293

> <r_mmod_Bend_Energy-OPLS-2005>
158.660659790039

> <r_mmod_Torsional_Energy-OPLS-2005>
257.761749267578

> <r_mmod_Improper_Torsional_Energy-OPLS-2005>
4.05038499832153

> <r_mmod_Van_der_Waal_Energy-OPLS-2005>
148.33447265625

> <r_mmod_Electrostatic_Energy-OPLS-2005>
-234.369964599609

> <r_mmod_Solvation_Energy-OPLS-2005>
-455.088226318359

> <b_mmod_Minimization_Converged-OPLS-2005>
0

> <r_mmod_RMS_Derivative-OPLS-2005>
5.59174108505249

$$$$
51
                    3D
 Structure written by MMmdl.
155163  0  0  1  0            999 V2000
  -30.5802  -14.7263   20.4475 C   0  0  0  0  0  0
  -30.4381  -12.4410   19.4436 C   0  0  0  0  0  0
  -29.4995  -12.4887   18.2183 C   0  0  0  0  0  0
  -28.0298  -12.3103   18.6492 C   0  0  0  0  0  0
  -27.6410  -13.2124   19.8504 C   0  0  2  0  0  0
  -28.6944  -13.1334   20.9763 C   0  0  0  0  0  0
  -25.2521  -13.8152   20.5731 C   0  0  0  0  0  0
  -24.1798  -13.0418   20.9227 C   0  0  0  0  0  0
  -24.6368  -11.6889   20.8764 C   0  0  0  0  0  0
  -23.9040  -10.4281   21.0425 C   0  0  0  0  0  0
  -24.3588   -9.4192   21.9200 C   0  0  0  0  0  0
  -23.6274   -8.2226   22.0756 C   0  0  0  0  0  0
  -22.4262   -8.0269   21.3541 C   0  0  0  0  0  0
  -21.9898   -9.0244   20.4646 C   0  0  0  0  0  0
  -22.7218  -10.2126   20.3067 C   0  0  0  0  0  0
  -21.6851   -6.0720   22.5277 C   0  0  0  0  0  0
  -21.4019   -6.5632   23.8208 C   0  0  0  0  0  0
  -21.3654   -5.6791   24.9174 C   0  0  0  0  0  0
  -21.6041   -4.3052   24.7242 C   0  0  0  0  0  0
  -21.8813   -3.8131   23.4367 C   0  0  0  0  0  0
  -21.9193   -4.6943   22.3409 C   0  0  0  0  0  0
  -22.7826  -13.5214   21.1892 C   0  0  0  0  0  0
  -22.1657   -4.2120   21.0989 F   0  0  0  0  0  0
  -21.5627   -3.4541   25.7756 F   0  0  0  0  0  0
  -29.9855  -13.4914   20.3765 N   0  0  0  0  0  0
  -26.2932  -12.9321   20.3314 N   0  0  0  0  0  0
  -25.9290  -11.6480   20.5792 N   0  0  0  0  0  0
  -22.0459  -12.8203   22.0433 N   0  0  0  0  0  0
  -25.4236  -15.1885   20.4181 N   0  0  0  0  0  0
  -31.7878  -14.8562   20.2266 O   0  0  0  0  0  0
  -21.6631   -6.8856   21.4239 O   0  0  0  0  0  0
  -22.3528  -14.5531   20.6744 O   0  0  0  0  0  0
  -24.6306  -31.8565   23.2001 C   0  0  0  0  0  0
  -25.9140  -32.4760   23.8348 C   0  0  1  0  0  0
  -27.2190  -27.2707   20.1271 C   0  0  0  0  0  0
  -25.5945  -33.8558   24.2277 N   0  0  0  0  0  0
  -23.4277  -30.4751   21.5429 C   0  0  2  0  0  0
  -24.8746  -28.9148   20.1192 C   0  0  0  0  0  0
  -22.7500  -29.4587   22.4936 C   0  0  0  0  0  0
  -18.0286  -28.1344   22.8484 C   0  0  0  0  0  0
  -24.1490  -36.7286   23.2631 C   0  0  0  0  0  0
  -25.9709  -30.7669   21.3797 C   0  0  0  0  0  0
  -26.0441  -29.3848   20.7330 C   0  0  0  0  0  0
  -27.2209  -28.5702   20.7331 C   0  0  0  0  0  0
  -26.0321  -26.8597   19.4905 C   0  0  0  0  0  0
  -24.8707  -27.6569   19.4927 C   0  0  0  0  0  0
  -23.6482  -29.8051   20.1603 C   0  0  0  0  0  0
  -25.4119  -36.3076   24.0330 C   0  0  1  0  0  0
  -20.5904  -28.3660   23.1256 C   0  0  2  0  0  0
  -20.6781  -26.9374   22.5406 C   0  0  0  0  0  0
  -19.5751  -26.6362   21.5199 C   0  0  0  0  0  0
  -18.1925  -26.7897   22.1607 C   0  0  0  0  0  0
  -19.1548  -28.8822   23.2862 C   0  0  0  0  0  0
  -18.9467  -30.1429   23.8858 C   0  0  0  0  0  0
  -17.6471  -30.6555   24.0548 C   0  0  0  0  0  0
  -25.9040  -34.9444   23.5109 C   0  0  0  0  0  0
  -16.5364  -29.9052   23.6313 C   0  0  0  0  0  0
  -16.7280  -28.6474   23.0324 C   0  0  0  0  0  0
  -26.4497  -31.6568   25.0732 C   0  0  0  0  0  0
  -25.3715  -31.3727   26.1459 C   0  0  0  0  0  0
  -27.0349  -30.2983   24.6210 C   0  0  0  0  0  0
  -27.6077  -32.4296   25.7477 C   0  0  0  0  0  0
  -27.5581  -37.1788   24.8463 C   0  0  0  0  0  0
  -21.4215  -29.3026   22.3673 N   0  0  0  0  0  0
  -26.4283  -37.3787   23.9419 N   0  0  0  0  0  0
  -24.6952  -31.0524   22.0970 N   0  0  0  0  0  0
  -23.4185  -28.8123   23.3038 O   0  0  0  0  0  0
  -28.3177  -26.3947   20.0748 O   0  0  0  0  0  0
  -26.5615  -34.8921   22.4678 O   0  0  0  0  0  0
  -23.5466  -32.1416   23.7301 O   0  0  0  0  0  0
  -29.7455  -19.8263   22.1171 C   0  0  0  0  0  0
  -29.4541  -18.3878   20.1838 C   0  0  0  0  0  0
  -29.4125  -19.7274   20.7519 C   0  0  0  0  0  0
  -30.0796  -18.6902   22.8868 C   0  0  0  0  0  0
  -29.8282  -17.1975   20.9379 C   0  0  0  0  0  0
  -30.1174  -17.3937   22.3152 C   0  0  0  0  0  0
  -30.3641  -18.8741   24.3688 C   0  0  0  0  0  0
  -29.0423  -21.0603   19.9525 C   0  0  0  0  0  0
  -28.7578  -22.4648   20.7235 C   0  0  0  0  0  0
  -28.5258  -23.8683   19.9375 C   0  0  0  0  0  0
  -29.7225  -15.8155   20.4184 N   0  0  0  0  0  0
  -28.0856  -25.0561   20.7647 N   0  0  0  0  0  0
  -30.4270  -16.0443   23.3604 Cl  0  0  0  0  0  0
  -31.4739  -12.5841   19.1345 H   0  0  0  0  0  0
  -30.3980  -11.4613   19.9212 H   0  0  0  0  0  0
  -29.7732  -11.7119   17.5025 H   0  0  0  0  0  0
  -29.6175  -13.4399   17.6981 H   0  0  0  0  0  0
  -27.8984  -11.2627   18.9247 H   0  0  0  0  0  0
  -27.3597  -12.4857   17.8075 H   0  0  0  0  0  0
  -27.6352  -14.2327   19.4685 H   0  0  0  0  0  0
  -28.7358  -12.1311   21.4041 H   0  0  0  0  0  0
  -28.4440  -13.8075   21.7969 H   0  0  0  0  0  0
  -25.2729   -9.5671   22.4795 H   0  0  0  0  0  0
  -23.9975   -7.4612   22.7484 H   0  0  0  0  0  0
  -21.0822   -8.8762   19.8960 H   0  0  0  0  0  0
  -22.3667  -10.9669   19.6184 H   0  0  0  0  0  0
  -21.2011   -7.6141   23.9703 H   0  0  0  0  0  0
  -21.1485   -6.0528   25.9074 H   0  0  0  0  0  0
  -22.0598   -2.7602   23.2883 H   0  0  0  0  0  0
  -22.4056  -11.9835   22.4781 H   0  0  0  0  0  0
  -21.1090  -13.1253   22.2660 H   0  0  0  0  0  0
  -24.6619  -15.8425   20.5601 H   0  0  0  0  0  0
  -26.2728  -15.6411   20.1094 H   0  0  0  0  0  0
  -26.7198  -32.5420   23.1081 H   0  0  0  0  0  0
  -25.0085  -33.9679   25.0417 H   0  0  0  0  0  0
  -22.7241  -31.2962   21.3962 H   0  0  0  0  0  0
  -23.3749  -35.9607   23.3282 H   0  0  0  0  0  0
  -24.3566  -36.8952   22.2043 H   0  0  0  0  0  0
  -23.7249  -37.6478   23.6675 H   0  0  0  0  0  0
  -26.1057  -31.5196   20.6023 H   0  0  0  0  0  0
  -26.8489  -30.8237   22.0099 H   0  0  0  0  0  0
  -28.1242  -28.9252   21.2100 H   0  0  0  0  0  0
  -26.0044  -25.9005   18.9924 H   0  0  0  0  0  0
  -23.9766  -27.2906   19.0080 H   0  0  0  0  0  0
  -23.7793  -30.5792   19.4048 H   0  0  0  0  0  0
  -22.7671  -29.2411   19.8502 H   0  0  0  0  0  0
  -25.1292  -36.1918   25.0815 H   0  0  0  0  0  0
  -20.9960  -28.3232   24.1392 H   0  0  0  0  0  0
  -20.5641  -26.2265   23.3603 H   0  0  0  0  0  0
  -21.6648  -26.7380   22.1209 H   0  0  0  0  0  0
  -19.6895  -25.6270   21.1215 H   0  0  0  0  0  0
  -19.6677  -27.3160   20.6713 H   0  0  0  0  0  0
  -17.4199  -26.6629   21.4002 H   0  0  0  0  0  0
  -18.0333  -26.0017   22.8986 H   0  0  0  0  0  0
  -19.7956  -30.7250   24.2193 H   0  0  0  0  0  0
  -17.5033  -31.6212   24.5170 H   0  0  0  0  0  0
  -15.5364  -30.2935   23.7650 H   0  0  0  0  0  0
  -15.8685  -28.0790   22.7017 H   0  0  0  0  0  0
  -24.5896  -30.7057   25.7811 H   0  0  0  0  0  0
  -24.8863  -32.2882   26.4834 H   0  0  0  0  0  0
  -25.8025  -30.8953   27.0265 H   0  0  0  0  0  0
  -26.2921  -29.6703   24.1260 H   0  0  0  0  0  0
  -27.4065  -29.7290   25.4735 H   0  0  0  0  0  0
  -27.8802  -30.4282   23.9459 H   0  0  0  0  0  0
  -27.2749  -33.3703   26.1892 H   0  0  0  0  0  0
  -28.3951  -32.6661   25.0310 H   0  0  0  0  0  0
  -28.0637  -31.8484   26.5509 H   0  0  0  0  0  0
  -28.2583  -38.0085   24.7527 H   0  0  0  0  0  0
  -28.1098  -36.2622   24.6288 H   0  0  0  0  0  0
  -27.2292  -37.1473   25.8857 H   0  0  0  0  0  0
  -20.9398  -29.8819   21.6943 H   0  0  0  0  0  0
  -26.0164  -38.2865   24.1404 H   0  0  0  0  0  0
  -29.7290  -20.7900   22.6035 H   0  0  0  0  0  0
  -29.1791  -18.2709   19.1440 H   0  0  0  0  0  0
  -30.3941  -19.9265   24.6503 H   0  0  0  0  0  0
  -31.3230  -18.4288   24.6337 H   0  0  0  0  0  0
  -29.5880  -18.3899   24.9625 H   0  0  0  0  0  0
  -28.1769  -20.8315   19.3296 H   0  0  0  0  0  0
  -29.8607  -21.2265   19.2524 H   0  0  0  0  0  0
  -29.6018  -22.6449   21.3883 H   0  0  0  0  0  0
  -27.9024  -22.3034   21.3792 H   0  0  0  0  0  0
  -27.7761  -23.7191   19.1583 H   0  0  0  0  0  0
  -29.4461  -24.1297   19.4141 H   0  0  0  0  0  0
  -28.7779  -15.5455   20.1985 H   0  0  0  0  0  0
  -27.0850  -25.0093   20.9469 H   0  0  0  0  0  0
  1 25  1  0  0  0
  1 30  2  0  0  0
  1 81  1  0  0  0
  2  3  1  0  0  0
  2 25  1  0  0  0
  2 84  1  0  0  0
  2 85  1  0  0  0
  3  4  1  0  0  0
  3 86  1  0  0  0
  3 87  1  0  0  0
  4  5  1  0  0  0
  4 88  1  0  0  0
  4 89  1  0  0  0
  5  6  1  0  0  0
  5 26  1  0  0  0
  5 90  1  0  0  0
  6 25  1  0  0  0
  6 91  1  0  0  0
  6 92  1  0  0  0
  7  8  2  0  0  0
  7 26  1  0  0  0
  7 29  1  0  0  0
  8  9  1  0  0  0
  8 22  1  0  0  0
  9 10  1  0  0  0
  9 27  2  0  0  0
 10 11  2  0  0  0
 10 15  1  0  0  0
 11 12  1  0  0  0
 11 93  1  0  0  0
 12 13  2  0  0  0
 12 94  1  0  0  0
 13 14  1  0  0  0
 13 31  1  0  0  0
 14 15  2  0  0  0
 14 95  1  0  0  0
 15 96  1  0  0  0
 16 17  2  0  0  0
 16 21  1  0  0  0
 16 31  1  0  0  0
 17 18  1  0  0  0
 17 97  1  0  0  0
 18 19  2  0  0  0
 18 98  1  0  0  0
 19 20  1  0  0  0
 19 24  1  0  0  0
 20 21  2  0  0  0
 20 99  1  0  0  0
 21 23  1  0  0  0
 22 28  1  0  0  0
 22 32  2  0  0  0
 26 27  1  0  0  0
 28100  1  0  0  0
 28101  1  0  0  0
 29102  1  0  0  0
 29103  1  0  0  0
 33 34  1  0  0  0
 33 66  1  0  0  0
 33 70  2  0  0  0
 34 36  1  0  0  0
 34 59  1  0  0  0
 34104  1  0  0  0
 35 44  2  0  0  0
 35 45  1  0  0  0
 35 68  1  0  0  0
 36 56  1  0  0  0
 36105  1  0  0  0
 37 39  1  0  0  0
 37 47  1  0  0  0
 37 66  1  0  0  0
 37106  1  0  0  0
 38 43  2  0  0  0
 38 46  1  0  0  0
 38 47  1  0  0  0
 39 64  1  0  0  0
 39 67  2  0  0  0
 40 52  1  0  0  0
 40 53  2  0  0  0
 40 58  1  0  0  0
 41107  1  0  0  0
 41108  1  0  0  0
 41109  1  0  0  0
 41 48  1  0  0  0
 42 43  1  0  0  0
 42 66  1  0  0  0
 42110  1  0  0  0
 42111  1  0  0  0
 43 44  1  0  0  0
 44112  1  0  0  0
 45 46  2  0  0  0
 45113  1  0  0  0
 46114  1  0  0  0
 47115  1  0  0  0
 47116  1  0  0  0
 48 56  1  0  0  0
 48 65  1  0  0  0
 48117  1  0  0  0
 49 50  1  0  0  0
 49 53  1  0  0  0
 49 64  1  0  0  0
 49118  1  0  0  0
 50 51  1  0  0  0
 50119  1  0  0  0
 50120  1  0  0  0
 51 52  1  0  0  0
 51121  1  0  0  0
 51122  1  0  0  0
 52123  1  0  0  0
 52124  1  0  0  0
 53 54  1  0  0  0
 54 55  2  0  0  0
 54125  1  0  0  0
 55 57  1  0  0  0
 55126  1  0  0  0
 56 69  2  0  0  0
 57 58  2  0  0  0
 57127  1  0  0  0
 58128  1  0  0  0
 59 60  1  0  0  0
 59 61  1  0  0  0
 59 62  1  0  0  0
 60129  1  0  0  0
 60130  1  0  0  0
 60131  1  0  0  0
 61132  1  0  0  0
 61133  1  0  0  0
 61134  1  0  0  0
 62135  1  0  0  0
 62136  1  0  0  0
 62137  1  0  0  0
 63 65  1  0  0  0
 63138  1  0  0  0
 63139  1  0  0  0
 63140  1  0  0  0
 64141  1  0  0  0
 65142  1  0  0  0
 68 82  1  0  0  0
 71 73  2  0  0  0
 71 74  1  0  0  0
 71143  1  0  0  0
 72 73  1  0  0  0
 72 75  2  0  0  0
 72144  1  0  0  0
 73 78  1  0  0  0
 74 76  2  0  0  0
 74 77  1  0  0  0
 75 76  1  0  0  0
 75 81  1  0  0  0
 76 83  1  0  0  0
 77145  1  0  0  0
 77146  1  0  0  0
 77147  1  0  0  0
 78 79  1  0  0  0
 78148  1  0  0  0
 78149  1  0  0  0
 79 80  1  0  0  0
 79150  1  0  0  0
 79151  1  0  0  0
 80 82  1  0  0  0
 80152  1  0  0  0
 80153  1  0  0  0
 81154  1  0  0  0
 82155  1  0  0  0
M  ISO  4   1 100  68 101  81 100  82 101
M  END
> <chiral flag>
0

> <version>
0

> <s_m_source_file>
/data/baiqing/PycharmProjects/Reinvent-master-3.2/result/LINK_invent/BTK/process_docking_weight1_custom_sum_contain_oxygen_bond_distance_aromatic_linkinvent_7_9_3/rearranged_h_0101.sdf

> <i_m_source_file_index>
52

> <r_mmod_Potential_Energy-OPLS-2005>
133.927642822266

> <r_mmod_Stretch_Energy-OPLS-2005>
116.720359802246

> <r_mmod_Bend_Energy-OPLS-2005>
149.863494873047

> <r_mmod_Torsional_Energy-OPLS-2005>
241.827087402344

> <r_mmod_Improper_Torsional_Energy-OPLS-2005>
10.7604885101318

> <r_mmod_Van_der_Waal_Energy-OPLS-2005>
135.906387329102

> <r_mmod_Electrostatic_Energy-OPLS-2005>
-387.546173095703

> <r_mmod_Solvation_Energy-OPLS-2005>
-213.822906494141

> <b_mmod_Minimization_Converged-OPLS-2005>
0

> <r_mmod_RMS_Derivative-OPLS-2005>
2.97388768196106

$$$$
52
                    3D
 Structure written by MMmdl.
156164  0  0  1  0            999 V2000
  -30.6745  -14.5440   20.5017 C   0  0  0  0  0  0
  -30.4190  -12.3278   19.4492 C   0  0  0  0  0  0
  -29.5039  -12.4805   18.2171 C   0  0  0  0  0  0
  -28.0250  -12.3421   18.6286 C   0  0  0  0  0  0
  -27.6531  -13.2155   19.8586 C   0  0  2  0  0  0
  -28.6919  -13.0574   20.9915 C   0  0  0  0  0  0
  -25.2553  -13.8190   20.5669 C   0  0  0  0  0  0
  -24.1812  -13.0462   20.9176 C   0  0  0  0  0  0
  -24.6386  -11.6929   20.8742 C   0  0  0  0  0  0
  -23.9057  -10.4317   21.0422 C   0  0  0  0  0  0
  -24.3608   -9.4226   21.9196 C   0  0  0  0  0  0
  -23.6279   -8.2259   22.0765 C   0  0  0  0  0  0
  -22.4268   -8.0293   21.3554 C   0  0  0  0  0  0
  -21.9900   -9.0269   20.4660 C   0  0  0  0  0  0
  -22.7229  -10.2147   20.3071 C   0  0  0  0  0  0
  -21.6858   -6.0736   22.5287 C   0  0  0  0  0  0
  -21.4019   -6.5633   23.8222 C   0  0  0  0  0  0
  -21.3667   -5.6779   24.9179 C   0  0  0  0  0  0
  -21.6051   -4.3047   24.7225 C   0  0  0  0  0  0
  -21.8812   -3.8140   23.4346 C   0  0  0  0  0  0
  -21.9184   -4.6961   22.3407 C   0  0  0  0  0  0
  -22.7821  -13.5255   21.1810 C   0  0  0  0  0  0
  -22.1646   -4.2144   21.0986 F   0  0  0  0  0  0
  -21.5628   -3.4530   25.7741 F   0  0  0  0  0  0
  -30.0137  -13.3553   20.4276 N   0  0  0  0  0  0
  -26.2981  -12.9369   20.3279 N   0  0  0  0  0  0
  -25.9312  -11.6528   20.5731 N   0  0  0  0  0  0
  -22.0430  -12.8300   22.0392 N   0  0  0  0  0  0
  -25.4254  -15.1903   20.4081 N   0  0  0  0  0  0
  -31.8420  -14.6621   20.1209 O   0  0  0  0  0  0
  -21.6634   -6.8885   21.4253 O   0  0  0  0  0  0
  -22.3520  -14.5546   20.6622 O   0  0  0  0  0  0
  -24.6131  -31.8671   23.2066 C   0  0  0  0  0  0
  -25.9018  -32.4808   23.8371 C   0  0  1  0  0  0
  -27.2207  -27.4009   20.1158 C   0  0  0  0  0  0
  -25.5865  -33.8612   24.2288 N   0  0  0  0  0  0
  -23.4032  -30.4893   21.5466 C   0  0  2  0  0  0
  -24.8512  -28.9545   20.1106 C   0  0  0  0  0  0
  -22.7393  -29.4659   22.4953 C   0  0  0  0  0  0
  -18.0270  -28.1387   22.8500 C   0  0  0  0  0  0
  -24.1480  -36.7330   23.2644 C   0  0  0  0  0  0
  -25.9335  -30.8227   21.3664 C   0  0  0  0  0  0
  -26.0110  -29.4527   20.7200 C   0  0  0  0  0  0
  -27.2006  -28.6833   20.7219 C   0  0  0  0  0  0
  -26.0586  -26.9444   19.4661 C   0  0  0  0  0  0
  -24.8731  -27.7014   19.4763 C   0  0  0  0  0  0
  -23.6126  -29.8212   20.1612 C   0  0  0  0  0  0
  -25.4102  -36.3097   24.0333 C   0  0  1  0  0  0
  -20.5861  -28.3669   23.1308 C   0  0  2  0  0  0
  -20.6751  -26.9409   22.5411 C   0  0  0  0  0  0
  -19.5727  -26.6389   21.5205 C   0  0  0  0  0  0
  -18.1911  -26.7930   22.1632 C   0  0  0  0  0  0
  -19.1522  -28.8845   23.2906 C   0  0  0  0  0  0
  -18.9460  -30.1451   23.8910 C   0  0  0  0  0  0
  -17.6460  -30.6589   24.0575 C   0  0  0  0  0  0
  -25.9036  -34.9464   23.5113 C   0  0  0  0  0  0
  -16.5347  -29.9093   23.6345 C   0  0  0  0  0  0
  -16.7264  -28.6518   23.0365 C   0  0  0  0  0  0
  -26.4447  -31.6595   25.0706 C   0  0  0  0  0  0
  -25.3716  -31.3738   26.1461 C   0  0  0  0  0  0
  -27.0276  -30.3021   24.6115 C   0  0  0  0  0  0
  -27.6007  -32.4335   25.7478 C   0  0  0  0  0  0
  -27.5578  -37.1809   24.8463 C   0  0  0  0  0  0
  -21.4123  -29.3033   22.3701 N   0  0  0  0  0  0
  -26.4278  -37.3786   23.9413 N   0  0  0  0  0  0
  -24.6683  -31.0745   22.0980 N   0  0  0  0  0  0
  -23.4152  -28.8216   23.3024 O   0  0  0  0  0  0
  -28.3614  -26.6241   20.0830 O   0  0  0  0  0  0
  -26.5621  -34.8923   22.4689 O   0  0  0  0  0  0
  -23.5319  -32.1433   23.7437 O   0  0  0  0  0  0
  -29.2719  -19.3349   20.0126 C   0  0  0  0  0  0
  -28.2936  -19.5725   21.9253 C   0  0  0  0  0  0
  -29.5227  -18.2068   20.7794 C   0  0  0  0  0  0
  -26.2960  -24.0733   21.1161 C   0  0  0  0  0  0
  -30.4277  -17.0173   20.4642 C   0  0  0  0  0  0
  -28.5036  -22.8194   20.8742 C   0  0  0  0  0  0
  -27.8717  -21.4934   20.3262 C   0  0  0  0  0  0
  -28.4316  -25.4707   20.9619 C   0  0  0  0  0  0
  -27.7183  -24.1415   20.5148 C   0  0  2  0  0  0
  -28.8830  -18.3730   22.0097 N   0  0  0  0  0  0
  -28.4765  -20.2130   20.7586 N   0  0  0  0  0  0
  -29.9409  -15.6511   20.7786 N   0  0  0  0  0  0
  -31.4665  -12.4124   19.1539 H   0  0  0  0  0  0
  -30.3166  -11.3306   19.8811 H   0  0  0  0  0  0
  -29.7556  -11.7289   17.4663 H   0  0  0  0  0  0
  -29.6734  -13.4481   17.7432 H   0  0  0  0  0  0
  -27.8530  -11.2905   18.8620 H   0  0  0  0  0  0
  -27.3766  -12.5758   17.7841 H   0  0  0  0  0  0
  -27.6775  -14.2530   19.5230 H   0  0  0  0  0  0
  -28.6744  -12.0396   21.3834 H   0  0  0  0  0  0
  -28.4538  -13.7117   21.8325 H   0  0  0  0  0  0
  -25.2763   -9.5679   22.4763 H   0  0  0  0  0  0
  -23.9978   -7.4654   22.7495 H   0  0  0  0  0  0
  -21.0826   -8.8796   19.8972 H   0  0  0  0  0  0
  -22.3707  -10.9674   19.6165 H   0  0  0  0  0  0
  -21.2021   -7.6146   23.9721 H   0  0  0  0  0  0
  -21.1493   -6.0514   25.9081 H   0  0  0  0  0  0
  -22.0584   -2.7600   23.2848 H   0  0  0  0  0  0
  -22.3979  -11.9983   22.4873 H   0  0  0  0  0  0
  -21.1051  -13.1363   22.2549 H   0  0  0  0  0  0
  -24.6586  -15.8423   20.5286 H   0  0  0  0  0  0
  -26.2787  -15.6386   20.0984 H   0  0  0  0  0  0
  -26.7094  -32.5533   23.1140 H   0  0  0  0  0  0
  -24.9923  -33.9779   25.0365 H   0  0  0  0  0  0
  -22.6915  -31.3055   21.4057 H   0  0  0  0  0  0
  -23.3717  -35.9688   23.3300 H   0  0  0  0  0  0
  -24.3566  -36.8953   22.2057 H   0  0  0  0  0  0
  -23.7258  -37.6545   23.6671 H   0  0  0  0  0  0
  -26.0440  -31.5836   20.5921 H   0  0  0  0  0  0
  -26.8220  -30.8812   21.9836 H   0  0  0  0  0  0
  -28.0948  -29.0660   21.1928 H   0  0  0  0  0  0
  -26.0651  -25.9898   18.9601 H   0  0  0  0  0  0
  -23.9902  -27.3188   18.9824 H   0  0  0  0  0  0
  -23.7152  -30.5938   19.3979 H   0  0  0  0  0  0
  -22.7369  -29.2364   19.8727 H   0  0  0  0  0  0
  -25.1275  -36.1948   25.0825 H   0  0  0  0  0  0
  -20.9979  -28.3242   24.1418 H   0  0  0  0  0  0
  -20.5626  -26.2295   23.3606 H   0  0  0  0  0  0
  -21.6630  -26.7431   22.1227 H   0  0  0  0  0  0
  -19.6887  -25.6299   21.1236 H   0  0  0  0  0  0
  -19.6658  -27.3208   20.6740 H   0  0  0  0  0  0
  -17.4176  -26.6688   21.4032 H   0  0  0  0  0  0
  -18.0326  -26.0062   22.9028 H   0  0  0  0  0  0
  -19.7940  -30.7274   24.2264 H   0  0  0  0  0  0
  -17.5028  -31.6275   24.5177 H   0  0  0  0  0  0
  -15.5359  -30.3009   23.7656 H   0  0  0  0  0  0
  -15.8669  -28.0836   22.7074 H   0  0  0  0  0  0
  -24.5865  -30.7101   25.7815 H   0  0  0  0  0  0
  -24.8946  -32.2922   26.4896 H   0  0  0  0  0  0
  -25.8064  -30.8913   27.0223 H   0  0  0  0  0  0
  -26.2829  -29.6789   24.1149 H   0  0  0  0  0  0
  -27.3993  -29.7244   25.4588 H   0  0  0  0  0  0
  -27.8683  -30.4307   23.9298 H   0  0  0  0  0  0
  -27.2593  -33.3616   26.2077 H   0  0  0  0  0  0
  -28.3812  -32.6932   25.0315 H   0  0  0  0  0  0
  -28.0687  -31.8458   26.5386 H   0  0  0  0  0  0
  -28.2586  -38.0112   24.7501 H   0  0  0  0  0  0
  -28.1073  -36.2640   24.6278 H   0  0  0  0  0  0
  -27.2310  -37.1462   25.8869 H   0  0  0  0  0  0
  -20.9263  -29.8768   21.6948 H   0  0  0  0  0  0
  -26.0155  -38.2857   24.1409 H   0  0  0  0  0  0
  -29.5907  -19.5828   19.0079 H   0  0  0  0  0  0
  -27.6901  -19.9845   22.7228 H   0  0  0  0  0  0
  -25.6470  -23.4154   20.5383 H   0  0  0  0  0  0
  -25.8032  -25.0416   21.1519 H   0  0  0  0  0  0
  -26.3176  -23.7083   22.1442 H   0  0  0  0  0  0
  -31.3751  -17.1608   20.9865 H   0  0  0  0  0  0
  -30.6787  -17.0402   19.4018 H   0  0  0  0  0  0
  -29.5228  -22.8941   20.4918 H   0  0  0  0  0  0
  -28.5994  -22.7472   21.9589 H   0  0  0  0  0  0
  -27.8701  -21.5165   19.2359 H   0  0  0  0  0  0
  -26.8238  -21.4471   20.6206 H   0  0  0  0  0  0
  -29.4969  -25.2660   21.0554 H   0  0  0  0  0  0
  -28.1142  -25.7573   21.9669 H   0  0  0  0  0  0
  -27.6398  -24.1796   19.4272 H   0  0  0  0  0  0
  -28.9785  -15.5496   21.0612 H   0  0  0  0  0  0
  1 25  1  0  0  0
  1 30  2  0  0  0
  1 82  1  0  0  0
  2  3  1  0  0  0
  2 25  1  0  0  0
  2 83  1  0  0  0
  2 84  1  0  0  0
  3  4  1  0  0  0
  3 85  1  0  0  0
  3 86  1  0  0  0
  4  5  1  0  0  0
  4 87  1  0  0  0
  4 88  1  0  0  0
  5  6  1  0  0  0
  5 26  1  0  0  0
  5 89  1  0  0  0
  6 25  1  0  0  0
  6 90  1  0  0  0
  6 91  1  0  0  0
  7  8  2  0  0  0
  7 26  1  0  0  0
  7 29  1  0  0  0
  8  9  1  0  0  0
  8 22  1  0  0  0
  9 10  1  0  0  0
  9 27  2  0  0  0
 10 11  2  0  0  0
 10 15  1  0  0  0
 11 12  1  0  0  0
 11 92  1  0  0  0
 12 13  2  0  0  0
 12 93  1  0  0  0
 13 14  1  0  0  0
 13 31  1  0  0  0
 14 15  2  0  0  0
 14 94  1  0  0  0
 15 95  1  0  0  0
 16 17  2  0  0  0
 16 21  1  0  0  0
 16 31  1  0  0  0
 17 18  1  0  0  0
 17 96  1  0  0  0
 18 19  2  0  0  0
 18 97  1  0  0  0
 19 20  1  0  0  0
 19 24  1  0  0  0
 20 21  2  0  0  0
 20 98  1  0  0  0
 21 23  1  0  0  0
 22 28  1  0  0  0
 22 32  2  0  0  0
 26 27  1  0  0  0
 28 99  1  0  0  0
 28100  1  0  0  0
 29101  1  0  0  0
 29102  1  0  0  0
 33 34  1  0  0  0
 33 66  1  0  0  0
 33 70  2  0  0  0
 34 36  1  0  0  0
 34 59  1  0  0  0
 34103  1  0  0  0
 35 44  2  0  0  0
 35 45  1  0  0  0
 35 68  1  0  0  0
 36 56  1  0  0  0
 36104  1  0  0  0
 37 39  1  0  0  0
 37 47  1  0  0  0
 37 66  1  0  0  0
 37105  1  0  0  0
 38 43  2  0  0  0
 38 46  1  0  0  0
 38 47  1  0  0  0
 39 64  1  0  0  0
 39 67  2  0  0  0
 40 52  1  0  0  0
 40 53  2  0  0  0
 40 58  1  0  0  0
 41106  1  0  0  0
 41107  1  0  0  0
 41108  1  0  0  0
 41 48  1  0  0  0
 42 43  1  0  0  0
 42 66  1  0  0  0
 42109  1  0  0  0
 42110  1  0  0  0
 43 44  1  0  0  0
 44111  1  0  0  0
 45 46  2  0  0  0
 45112  1  0  0  0
 46113  1  0  0  0
 47114  1  0  0  0
 47115  1  0  0  0
 48 56  1  0  0  0
 48 65  1  0  0  0
 48116  1  0  0  0
 49 50  1  0  0  0
 49 53  1  0  0  0
 49 64  1  0  0  0
 49117  1  0  0  0
 50 51  1  0  0  0
 50118  1  0  0  0
 50119  1  0  0  0
 51 52  1  0  0  0
 51120  1  0  0  0
 51121  1  0  0  0
 52122  1  0  0  0
 52123  1  0  0  0
 53 54  1  0  0  0
 54 55  2  0  0  0
 54124  1  0  0  0
 55 57  1  0  0  0
 55125  1  0  0  0
 56 69  2  0  0  0
 57 58  2  0  0  0
 57126  1  0  0  0
 58127  1  0  0  0
 59 60  1  0  0  0
 59 61  1  0  0  0
 59 62  1  0  0  0
 60128  1  0  0  0
 60129  1  0  0  0
 60130  1  0  0  0
 61131  1  0  0  0
 61132  1  0  0  0
 61133  1  0  0  0
 62134  1  0  0  0
 62135  1  0  0  0
 62136  1  0  0  0
 63 65  1  0  0  0
 63137  1  0  0  0
 63138  1  0  0  0
 63139  1  0  0  0
 64140  1  0  0  0
 65141  1  0  0  0
 68 78  1  0  0  0
 71 73  2  0  0  0
 71 81  1  0  0  0
 71142  1  0  0  0
 72 80  2  0  0  0
 72 81  1  0  0  0
 72143  1  0  0  0
 73 75  1  0  0  0
 73 80  1  0  0  0
 74144  1  0  0  0
 74145  1  0  0  0
 74146  1  0  0  0
 74 79  1  0  0  0
 75 82  1  0  0  0
 75147  1  0  0  0
 75148  1  0  0  0
 76 77  1  0  0  0
 76 79  1  0  0  0
 76149  1  0  0  0
 76150  1  0  0  0
 77 81  1  0  0  0
 77151  1  0  0  0
 77152  1  0  0  0
 78 79  1  0  0  0
 78153  1  0  0  0
 78154  1  0  0  0
 79155  1  0  0  0
 82156  1  0  0  0
M  ISO  4   1 100  68 101  78 101  82 100
M  END
> <chiral flag>
0

> <version>
0

> <s_m_source_file>
/data/baiqing/PycharmProjects/Reinvent-master-3.2/result/LINK_invent/BTK/process_docking_weight1_custom_sum_contain_oxygen_bond_distance_aromatic_linkinvent_7_9_3/rearranged_h_0101.sdf

> <i_m_source_file_index>
53

> <r_mmod_Potential_Energy-OPLS-2005>
-110.524909973145

> <r_mmod_Stretch_Energy-OPLS-2005>
46.7674217224121

> <r_mmod_Bend_Energy-OPLS-2005>
118.463600158691

> <r_mmod_Torsional_Energy-OPLS-2005>
249.158172607422

> <r_mmod_Improper_Torsional_Energy-OPLS-2005>
6.41993761062622

> <r_mmod_Van_der_Waal_Energy-OPLS-2005>
121.300559997559

> <r_mmod_Electrostatic_Energy-OPLS-2005>
-459.275024414062

> <r_mmod_Solvation_Energy-OPLS-2005>
-216.845001220703

> <b_mmod_Minimization_Converged-OPLS-2005>
0

> <r_mmod_RMS_Derivative-OPLS-2005>
2.52897787094116

$$$$
53
                    3D
 Structure written by MMmdl.
158166  0  0  1  0            999 V2000
  -30.5434  -14.9666   20.4035 C   0  0  0  0  0  0
  -30.4373  -12.5982   19.5032 C   0  0  0  0  0  0
  -29.5219  -12.5319   18.2592 C   0  0  0  0  0  0
  -28.0551  -12.3200   18.6771 C   0  0  0  0  0  0
  -27.6290  -13.2533   19.8403 C   0  0  2  0  0  0
  -28.6715  -13.2950   20.9786 C   0  0  0  0  0  0
  -25.2446  -13.8234   20.5719 C   0  0  0  0  0  0
  -24.1777  -13.0446   20.9232 C   0  0  0  0  0  0
  -24.6400  -11.6936   20.8764 C   0  0  0  0  0  0
  -23.9088  -10.4295   21.0414 C   0  0  0  0  0  0
  -24.3635   -9.4204   21.9184 C   0  0  0  0  0  0
  -23.6302   -8.2244   22.0759 C   0  0  0  0  0  0
  -22.4284   -8.0279   21.3546 C   0  0  0  0  0  0
  -21.9924   -9.0258   20.4650 C   0  0  0  0  0  0
  -22.7260  -10.2135   20.3060 C   0  0  0  0  0  0
  -21.6856   -6.0734   22.5276 C   0  0  0  0  0  0
  -21.4008   -6.5638   23.8206 C   0  0  0  0  0  0
  -21.3662   -5.6795   24.9171 C   0  0  0  0  0  0
  -21.6052   -4.3057   24.7224 C   0  0  0  0  0  0
  -21.8813   -3.8144   23.4343 C   0  0  0  0  0  0
  -21.9190   -4.6961   22.3402 C   0  0  0  0  0  0
  -22.7791  -13.5200   21.1888 C   0  0  0  0  0  0
  -22.1660   -4.2144   21.0980 F   0  0  0  0  0  0
  -21.5640   -3.4545   25.7739 F   0  0  0  0  0  0
  -29.9448  -13.7061   20.3742 N   0  0  0  0  0  0
  -26.2882  -12.9483   20.3265 N   0  0  0  0  0  0
  -25.9333  -11.6604   20.5755 N   0  0  0  0  0  0
  -22.0455  -12.8180   22.0442 N   0  0  0  0  0  0
  -25.4105  -15.1964   20.4125 N   0  0  0  0  0  0
  -31.7462  -15.0164   20.1277 O   0  0  0  0  0  0
  -21.6646   -6.8877   21.4238 O   0  0  0  0  0  0
  -22.3470  -14.5509   20.6739 O   0  0  0  0  0  0
  -24.6453  -31.8442   23.1889 C   0  0  0  0  0  0
  -25.9214  -32.4701   23.8285 C   0  0  1  0  0  0
  -27.2092  -27.1180   20.1482 C   0  0  0  0  0  0
  -25.5955  -33.8507   24.2199 N   0  0  0  0  0  0
  -23.4490  -30.4654   21.5361 C   0  0  2  0  0  0
  -24.8968  -28.8897   20.1132 C   0  0  0  0  0  0
  -22.7573  -29.4556   22.4867 C   0  0  0  0  0  0
  -18.0301  -28.1396   22.8474 C   0  0  0  0  0  0
  -24.1488  -36.7252   23.2640 C   0  0  0  0  0  0
  -26.0080  -30.7097   21.3925 C   0  0  0  0  0  0
  -26.0777  -29.3194   20.7334 C   0  0  0  0  0  0
  -27.2364  -28.4510   20.7327 C   0  0  0  0  0  0
  -26.0075  -26.8043   19.4771 C   0  0  0  0  0  0
  -24.8764  -27.6456   19.4687 C   0  0  0  0  0  0
  -23.6762  -29.7970   20.1557 C   0  0  0  0  0  0
  -25.4123  -36.3031   24.0313 C   0  0  1  0  0  0
  -20.5919  -28.3723   23.1224 C   0  0  2  0  0  0
  -20.6788  -26.9426   22.5399 C   0  0  0  0  0  0
  -19.5761  -26.6380   21.5207 C   0  0  0  0  0  0
  -18.1940  -26.7939   22.1619 C   0  0  0  0  0  0
  -19.1560  -28.8877   23.2841 C   0  0  0  0  0  0
  -18.9479  -30.1472   23.8871 C   0  0  0  0  0  0
  -17.6474  -30.6591   24.0559 C   0  0  0  0  0  0
  -25.9077  -34.9408   23.5065 C   0  0  0  0  0  0
  -16.5364  -29.9085   23.6333 C   0  0  0  0  0  0
  -16.7288  -28.6503   23.0358 C   0  0  0  0  0  0
  -26.4529  -31.6576   25.0736 C   0  0  0  0  0  0
  -25.3699  -31.3770   26.1420 C   0  0  0  0  0  0
  -27.0400  -30.2965   24.6341 C   0  0  0  0  0  0
  -27.6056  -32.4350   25.7518 C   0  0  0  0  0  0
  -27.5576  -37.1786   24.8465 C   0  0  0  0  0  0
  -21.4266  -29.3049   22.3604 N   0  0  0  0  0  0
  -26.4282  -37.3750   23.9411 N   0  0  0  0  0  0
  -24.7210  -31.0284   22.0933 N   0  0  0  0  0  0
  -23.4202  -28.8091   23.3020 O   0  0  0  0  0  0
  -28.2479  -26.1111   20.1791 O   0  0  0  0  0  0
  -26.5661  -34.8902   22.4641 O   0  0  0  0  0  0
  -23.5567  -32.1327   23.7097 O   0  0  0  0  0  0
  -30.0556  -23.5194   19.3840 C   0  0  0  0  0  0
  -28.6403  -21.8567   20.4286 C   0  0  0  0  0  0
  -30.6513  -21.0896   19.3086 C   0  0  0  0  0  0
  -28.8735  -23.2939   20.1004 C   0  0  0  0  0  0
  -30.9168  -22.4657   18.9955 C   0  0  0  0  0  0
  -29.5034  -20.6904   20.0703 C   0  0  0  0  0  0
  -31.6216  -20.0832   18.8089 C   0  0  0  0  0  0
  -32.1488  -22.8736   18.1889 C   0  0  0  0  0  0
  -31.3663  -19.5633   17.4000 C   0  0  0  0  0  0
  -29.1794  -19.0800   20.4331 C   0  0  0  0  0  0
  -27.9058  -24.5971   20.4080 C   0  0  0  0  0  0
  -30.1603  -17.6906   20.2423 C   0  0  0  0  0  0
  -29.7809  -16.1690   20.5190 N   0  0  0  0  0  0
  -32.6022  -19.6954   19.4479 O   0  0  0  0  0  0
  -31.4710  -12.7506   19.1883 H   0  0  0  0  0  0
  -30.4292  -11.6506   20.0434 H   0  0  0  0  0  0
  -29.8424  -11.7290   17.5932 H   0  0  0  0  0  0
  -29.6134  -13.4587   17.6904 H   0  0  0  0  0  0
  -27.9490  -11.2794   18.9858 H   0  0  0  0  0  0
  -27.3939  -12.4530   17.8206 H   0  0  0  0  0  0
  -27.5899  -14.2534   19.4077 H   0  0  0  0  0  0
  -28.7617  -12.3259   21.4734 H   0  0  0  0  0  0
  -28.3709  -14.0090   21.7471 H   0  0  0  0  0  0
  -25.2772   -9.5684   22.4764 H   0  0  0  0  0  0
  -24.0011   -7.4634   22.7479 H   0  0  0  0  0  0
  -21.0856   -8.8770   19.8950 H   0  0  0  0  0  0
  -22.3706  -10.9678   19.6176 H   0  0  0  0  0  0
  -21.1993   -7.6144   23.9704 H   0  0  0  0  0  0
  -21.1501   -6.0532   25.9074 H   0  0  0  0  0  0
  -22.0592   -2.7605   23.2848 H   0  0  0  0  0  0
  -22.4087  -11.9846   22.4830 H   0  0  0  0  0  0
  -21.1069  -13.1196   22.2663 H   0  0  0  0  0  0
  -24.6398  -15.8480   20.5148 H   0  0  0  0  0  0
  -26.2492  -15.6312   20.0513 H   0  0  0  0  0  0
  -26.7288  -32.5308   23.1020 H   0  0  0  0  0  0
  -25.0074  -33.9634   25.0327 H   0  0  0  0  0  0
  -22.7512  -31.2912   21.3827 H   0  0  0  0  0  0
  -23.3759  -35.9573   23.3288 H   0  0  0  0  0  0
  -24.3567  -36.8905   22.2057 H   0  0  0  0  0  0
  -23.7233  -37.6437   23.6692 H   0  0  0  0  0  0
  -26.1702  -31.4641   20.6213 H   0  0  0  0  0  0
  -26.8759  -30.7589   22.0387 H   0  0  0  0  0  0
  -28.1381  -28.7750   21.2333 H   0  0  0  0  0  0
  -25.9117  -25.8707   18.9451 H   0  0  0  0  0  0
  -23.9822  -27.3161   18.9577 H   0  0  0  0  0  0
  -23.8162  -30.5729   19.4024 H   0  0  0  0  0  0
  -22.7886  -29.2441   19.8429 H   0  0  0  0  0  0
  -25.1317  -36.1863   25.0807 H   0  0  0  0  0  0
  -21.0008  -28.3323   24.1347 H   0  0  0  0  0  0
  -20.5671  -26.2348   23.3626 H   0  0  0  0  0  0
  -21.6656  -26.7432   22.1205 H   0  0  0  0  0  0
  -19.6923  -25.6280   21.1259 H   0  0  0  0  0  0
  -19.6696  -27.3167   20.6715 H   0  0  0  0  0  0
  -17.4213  -26.6669   21.4021 H   0  0  0  0  0  0
  -18.0345  -26.0090   22.9022 H   0  0  0  0  0  0
  -19.7955  -30.7288   24.2239 H   0  0  0  0  0  0
  -17.5031  -31.6274   24.5156 H   0  0  0  0  0  0
  -15.5366  -30.2976   23.7681 H   0  0  0  0  0  0
  -15.8687  -28.0811   22.7096 H   0  0  0  0  0  0
  -24.5878  -30.7128   25.7727 H   0  0  0  0  0  0
  -24.8882  -32.2949   26.4794 H   0  0  0  0  0  0
  -25.7958  -30.8966   27.0236 H   0  0  0  0  0  0
  -26.3031  -29.6681   24.1327 H   0  0  0  0  0  0
  -27.3974  -29.7284   25.4940 H   0  0  0  0  0  0
  -27.8956  -30.4195   23.9697 H   0  0  0  0  0  0
  -27.2652  -33.3676   26.2029 H   0  0  0  0  0  0
  -28.3891  -32.6874   25.0362 H   0  0  0  0  0  0
  -28.0692  -31.8522   26.5488 H   0  0  0  0  0  0
  -28.2591  -38.0087   24.7523 H   0  0  0  0  0  0
  -28.1083  -36.2621   24.6289 H   0  0  0  0  0  0
  -27.2298  -37.1429   25.8869 H   0  0  0  0  0  0
  -20.9480  -29.8771   21.6786 H   0  0  0  0  0  0
  -26.0152  -38.2820   24.1414 H   0  0  0  0  0  0
  -30.2945  -24.5361   19.1031 H   0  0  0  0  0  0
  -27.7334  -21.6369   20.9755 H   0  0  0  0  0  0
  -32.2259  -23.9562   18.0788 H   0  0  0  0  0  0
  -32.1093  -22.4550   17.1834 H   0  0  0  0  0  0
  -33.0665  -22.5364   18.6722 H   0  0  0  0  0  0
  -32.0360  -20.0461   16.6889 H   0  0  0  0  0  0
  -30.3385  -19.7676   17.0997 H   0  0  0  0  0  0
  -31.5342  -18.4885   17.3563 H   0  0  0  0  0  0
  -28.2557  -18.8643   19.8965 H   0  0  0  0  0  0
  -28.8845  -19.0958   21.4823 H   0  0  0  0  0  0
  -27.6464  -24.5179   21.4640 H   0  0  0  0  0  0
  -26.9819  -24.3547   19.8887 H   0  0  0  0  0  0
  -31.0773  -17.8684   20.8041 H   0  0  0  0  0  0
  -30.4622  -17.6601   19.1987 H   0  0  0  0  0  0
  -28.8057  -16.0104   20.7286 H   0  0  0  0  0  0
  1 25  1  0  0  0
  1 30  2  0  0  0
  1 83  1  0  0  0
  2  3  1  0  0  0
  2 25  1  0  0  0
  2 85  1  0  0  0
  2 86  1  0  0  0
  3  4  1  0  0  0
  3 87  1  0  0  0
  3 88  1  0  0  0
  4  5  1  0  0  0
  4 89  1  0  0  0
  4 90  1  0  0  0
  5  6  1  0  0  0
  5 26  1  0  0  0
  5 91  1  0  0  0
  6 25  1  0  0  0
  6 92  1  0  0  0
  6 93  1  0  0  0
  7  8  2  0  0  0
  7 26  1  0  0  0
  7 29  1  0  0  0
  8  9  1  0  0  0
  8 22  1  0  0  0
  9 10  1  0  0  0
  9 27  2  0  0  0
 10 11  2  0  0  0
 10 15  1  0  0  0
 11 12  1  0  0  0
 11 94  1  0  0  0
 12 13  2  0  0  0
 12 95  1  0  0  0
 13 14  1  0  0  0
 13 31  1  0  0  0
 14 15  2  0  0  0
 14 96  1  0  0  0
 15 97  1  0  0  0
 16 17  2  0  0  0
 16 21  1  0  0  0
 16 31  1  0  0  0
 17 18  1  0  0  0
 17 98  1  0  0  0
 18 19  2  0  0  0
 18 99  1  0  0  0
 19 20  1  0  0  0
 19 24  1  0  0  0
 20 21  2  0  0  0
 20100  1  0  0  0
 21 23  1  0  0  0
 22 28  1  0  0  0
 22 32  2  0  0  0
 26 27  1  0  0  0
 28101  1  0  0  0
 28102  1  0  0  0
 29103  1  0  0  0
 29104  1  0  0  0
 33 34  1  0  0  0
 33 66  1  0  0  0
 33 70  2  0  0  0
 34 36  1  0  0  0
 34 59  1  0  0  0
 34105  1  0  0  0
 35 44  2  0  0  0
 35 45  1  0  0  0
 35 68  1  0  0  0
 36 56  1  0  0  0
 36106  1  0  0  0
 37 39  1  0  0  0
 37 47  1  0  0  0
 37 66  1  0  0  0
 37107  1  0  0  0
 38 43  2  0  0  0
 38 46  1  0  0  0
 38 47  1  0  0  0
 39 64  1  0  0  0
 39 67  2  0  0  0
 40 52  1  0  0  0
 40 53  2  0  0  0
 40 58  1  0  0  0
 41108  1  0  0  0
 41109  1  0  0  0
 41110  1  0  0  0
 41 48  1  0  0  0
 42 43  1  0  0  0
 42 66  1  0  0  0
 42111  1  0  0  0
 42112  1  0  0  0
 43 44  1  0  0  0
 44113  1  0  0  0
 45 46  2  0  0  0
 45114  1  0  0  0
 46115  1  0  0  0
 47116  1  0  0  0
 47117  1  0  0  0
 48 56  1  0  0  0
 48 65  1  0  0  0
 48118  1  0  0  0
 49 50  1  0  0  0
 49 53  1  0  0  0
 49 64  1  0  0  0
 49119  1  0  0  0
 50 51  1  0  0  0
 50120  1  0  0  0
 50121  1  0  0  0
 51 52  1  0  0  0
 51122  1  0  0  0
 51123  1  0  0  0
 52124  1  0  0  0
 52125  1  0  0  0
 53 54  1  0  0  0
 54 55  2  0  0  0
 54126  1  0  0  0
 55 57  1  0  0  0
 55127  1  0  0  0
 56 69  2  0  0  0
 57 58  2  0  0  0
 57128  1  0  0  0
 58129  1  0  0  0
 59 60  1  0  0  0
 59 61  1  0  0  0
 59 62  1  0  0  0
 60130  1  0  0  0
 60131  1  0  0  0
 60132  1  0  0  0
 61133  1  0  0  0
 61134  1  0  0  0
 61135  1  0  0  0
 62136  1  0  0  0
 62137  1  0  0  0
 62138  1  0  0  0
 63 65  1  0  0  0
 63139  1  0  0  0
 63140  1  0  0  0
 63141  1  0  0  0
 64142  1  0  0  0
 65143  1  0  0  0
 68 81  1  0  0  0
 71 74  2  0  0  0
 71 75  1  0  0  0
 71144  1  0  0  0
 72 74  1  0  0  0
 72 76  2  0  0  0
 72145  1  0  0  0
 73 75  2  0  0  0
 73 76  1  0  0  0
 73 77  1  0  0  0
 74 81  1  0  0  0
 75 78  1  0  0  0
 76 80  1  0  0  0
 77 79  1  0  0  0
 77 84  2  0  0  0
 78146  1  0  0  0
 78147  1  0  0  0
 78148  1  0  0  0
 79149  1  0  0  0
 79150  1  0  0  0
 79151  1  0  0  0
 80 82  1  0  0  0
 80152  1  0  0  0
 80153  1  0  0  0
 81154  1  0  0  0
 81155  1  0  0  0
 82 83  1  0  0  0
 82156  1  0  0  0
 82157  1  0  0  0
 83158  1  0  0  0
M  ISO  4   1 100  68 101  81 101  83 100
M  END
> <chiral flag>
0

> <version>
0

> <s_m_source_file>
/data/baiqing/PycharmProjects/Reinvent-master-3.2/result/LINK_invent/BTK/process_docking_weight1_custom_sum_contain_oxygen_bond_distance_aromatic_linkinvent_7_9_3/rearranged_h_0101.sdf

> <i_m_source_file_index>
54

> <r_mmod_Potential_Energy-OPLS-2005>
597.402465820312

> <r_mmod_Stretch_Energy-OPLS-2005>
289.027923583984

> <r_mmod_Bend_Energy-OPLS-2005>
253.583236694336

> <r_mmod_Torsional_Energy-OPLS-2005>
269.278839111328

> <r_mmod_Improper_Torsional_Energy-OPLS-2005>
5.10705375671387

> <r_mmod_Van_der_Waal_Energy-OPLS-2005>
139.15673828125

> <r_mmod_Electrostatic_Energy-OPLS-2005>
-338.924072265625

> <r_mmod_Solvation_Energy-OPLS-2005>
-226.699340820312

> <b_mmod_Minimization_Converged-OPLS-2005>
0

> <r_mmod_RMS_Derivative-OPLS-2005>
1.4074639081955

$$$$
54
                    3D
 Structure written by MMmdl.
174182  0  0  1  0            999 V2000
  -30.5560  -14.9139   20.3591 C   0  0  0  0  0  0
  -30.4392  -12.5559   19.4668 C   0  0  0  0  0  0
  -29.5039  -12.4495   18.2398 C   0  0  0  0  0  0
  -28.0343  -12.2786   18.6709 C   0  0  0  0  0  0
  -27.6227  -13.2196   19.8341 C   0  0  2  0  0  0
  -28.6804  -13.2720   20.9534 C   0  0  0  0  0  0
  -25.2483  -13.8145   20.5775 C   0  0  0  0  0  0
  -24.1757  -13.0416   20.9244 C   0  0  0  0  0  0
  -24.6331  -11.6887   20.8787 C   0  0  0  0  0  0
  -23.9014  -10.4276   21.0425 C   0  0  0  0  0  0
  -24.3580   -9.4196   21.9195 C   0  0  0  0  0  0
  -23.6272   -8.2226   22.0750 C   0  0  0  0  0  0
  -22.4259   -8.0259   21.3532 C   0  0  0  0  0  0
  -21.9884   -9.0228   20.4636 C   0  0  0  0  0  0
  -22.7197  -10.2117   20.3061 C   0  0  0  0  0  0
  -21.6845   -6.0721   22.5278 C   0  0  0  0  0  0
  -21.4007   -6.5630   23.8208 C   0  0  0  0  0  0
  -21.3660   -5.6784   24.9172 C   0  0  0  0  0  0
  -21.6046   -4.3047   24.7225 C   0  0  0  0  0  0
  -21.8820   -3.8138   23.4347 C   0  0  0  0  0  0
  -21.9188   -4.6951   22.3403 C   0  0  0  0  0  0
  -22.7786  -13.5214   21.1887 C   0  0  0  0  0  0
  -22.1661   -4.2140   21.0979 F   0  0  0  0  0  0
  -21.5630   -3.4534   25.7738 F   0  0  0  0  0  0
  -29.9449  -13.6661   20.3195 N   0  0  0  0  0  0
  -26.2860  -12.9307   20.3332 N   0  0  0  0  0  0
  -25.9259  -11.6470   20.5833 N   0  0  0  0  0  0
  -22.0421  -12.8200   22.0431 N   0  0  0  0  0  0
  -25.4259  -15.1869   20.4246 N   0  0  0  0  0  0
  -31.7886  -14.9551   20.2897 O   0  0  0  0  0  0
  -21.6624   -6.8859   21.4237 O   0  0  0  0  0  0
  -22.3492  -14.5529   20.6733 O   0  0  0  0  0  0
  -24.6378  -31.8481   23.1935 C   0  0  0  0  0  0
  -25.9169  -32.4716   23.8303 C   0  0  1  0  0  0
  -27.2175  -27.1775   20.1452 C   0  0  0  0  0  0
  -25.5939  -33.8525   24.2219 N   0  0  0  0  0  0
  -23.4393  -30.4685   21.5376 C   0  0  2  0  0  0
  -24.8888  -28.9037   20.1087 C   0  0  0  0  0  0
  -22.7554  -29.4550   22.4883 C   0  0  0  0  0  0
  -18.0302  -28.1375   22.8486 C   0  0  0  0  0  0
  -24.1481  -36.7266   23.2644 C   0  0  0  0  0  0
  -25.9910  -30.7354   21.3867 C   0  0  0  0  0  0
  -26.0635  -29.3506   20.7261 C   0  0  0  0  0  0
  -27.2285  -28.5023   20.7298 C   0  0  0  0  0  0
  -26.0179  -26.8243   19.4858 C   0  0  0  0  0  0
  -24.8758  -27.6530   19.4740 C   0  0  0  0  0  0
  -23.6636  -29.8022   20.1544 C   0  0  0  0  0  0
  -25.4116  -36.3049   24.0318 C   0  0  1  0  0  0
  -20.5914  -28.3697   23.1254 C   0  0  2  0  0  0
  -20.6789  -26.9409   22.5409 C   0  0  0  0  0  0
  -19.5760  -26.6370   21.5217 C   0  0  0  0  0  0
  -18.1937  -26.7918   22.1621 C   0  0  0  0  0  0
  -19.1560  -28.8856   23.2855 C   0  0  0  0  0  0
  -18.9476  -30.1451   23.8876 C   0  0  0  0  0  0
  -17.6476  -30.6580   24.0552 C   0  0  0  0  0  0
  -25.9065  -34.9417   23.5078 C   0  0  0  0  0  0
  -16.5364  -29.9078   23.6325 C   0  0  0  0  0  0
  -16.7292  -28.6491   23.0361 C   0  0  0  0  0  0
  -26.4507  -31.6578   25.0730 C   0  0  0  0  0  0
  -25.3701  -31.3746   26.1435 C   0  0  0  0  0  0
  -27.0370  -30.2978   24.6281 C   0  0  0  0  0  0
  -27.6031  -32.4367   25.7501 C   0  0  0  0  0  0
  -27.5578  -37.1788   24.8471 C   0  0  0  0  0  0
  -21.4255  -29.3034   22.3635 N   0  0  0  0  0  0
  -26.4289  -37.3759   23.9417 N   0  0  0  0  0  0
  -24.7087  -31.0374   22.0948 N   0  0  0  0  0  0
  -23.4221  -28.8094   23.3012 O   0  0  0  0  0  0
  -28.2832  -26.2211   20.2326 O   0  0  0  0  0  0
  -26.5641  -34.8906   22.4649 O   0  0  0  0  0  0
  -23.5506  -32.1344   23.7181 O   0  0  0  0  0  0
  -29.4007  -16.1667   18.6596 C   0  0  0  0  0  0
  -29.9682  -17.5595   20.6200 C   0  0  0  0  0  0
  -29.6956  -17.5060   17.9641 C   0  0  0  0  0  0
  -29.1221  -18.8680   19.9775 C   0  0  1  0  0  0
  -32.9466  -23.6334   20.6035 C   0  0  0  0  0  0
  -26.9875  -20.0879   17.8016 C   0  0  0  0  0  0
  -28.6992  -19.4714   16.0978 C   0  0  0  0  0  0
  -29.5366  -20.4733   20.3244 C   0  0  0  0  0  0
  -31.5163  -23.3077   21.0430 C   0  0  0  0  0  0
  -28.5930  -21.8620   20.1385 C   0  0  0  0  0  0
  -30.4583  -23.7120   19.9995 C   0  0  0  0  0  0
  -28.0384  -24.7174   19.9968 C   0  0  0  0  0  0
  -29.0127  -23.4460   20.4696 C   0  0  1  0  0  0
  -28.4720  -19.7094   17.6087 C   0  0  0  0  0  0
  -29.7980  -16.0918   20.0817 N   0  0  0  0  0  0
  -28.8237  -18.5718   18.5250 N   0  3  1  0  0  0
  -31.4646  -12.7283   19.1346 H   0  0  0  0  0  0
  -30.4550  -11.6198   20.0268 H   0  0  0  0  0  0
  -29.8017  -11.6025   17.6203 H   0  0  0  0  0  0
  -29.6012  -13.3234   17.5998 H   0  0  0  0  0  0
  -27.9087  -11.2406   18.9817 H   0  0  0  0  0  0
  -27.3685  -12.4172   17.8176 H   0  0  0  0  0  0
  -27.5631  -14.2073   19.3951 H   0  0  0  0  0  0
  -28.7726  -12.3089   21.4568 H   0  0  0  0  0  0
  -28.3931  -13.9990   21.7148 H   0  0  0  0  0  0
  -25.2721   -9.5677   22.4769 H   0  0  0  0  0  0
  -23.9981   -7.4615   22.7461 H   0  0  0  0  0  0
  -21.0822   -8.8736   19.8937 H   0  0  0  0  0  0
  -22.3650  -10.9653   19.6171 H   0  0  0  0  0  0
  -21.1998   -7.6136   23.9714 H   0  0  0  0  0  0
  -21.1482   -6.0512   25.9074 H   0  0  0  0  0  0
  -22.0599   -2.7602   23.2849 H   0  0  0  0  0  0
  -22.4025  -11.9852   22.4809 H   0  0  0  0  0  0
  -21.1032  -13.1220   22.2632 H   0  0  0  0  0  0
  -24.6712  -15.8500   20.5625 H   0  0  0  0  0  0
  -26.3041  -15.6252   20.1867 H   0  0  0  0  0  0
  -26.7227  -32.5337   23.1028 H   0  0  0  0  0  0
  -25.0094  -33.9646   25.0369 H   0  0  0  0  0  0
  -22.7377  -31.2914   21.3877 H   0  0  0  0  0  0
  -23.3753  -35.9588   23.3300 H   0  0  0  0  0  0
  -24.3572  -36.8909   22.2062 H   0  0  0  0  0  0
  -23.7229  -37.6455   23.6683 H   0  0  0  0  0  0
  -26.1414  -31.4958   20.6199 H   0  0  0  0  0  0
  -26.8627  -30.7835   22.0276 H   0  0  0  0  0  0
  -28.1235  -28.8359   21.2360 H   0  0  0  0  0  0
  -25.9264  -25.8689   18.9907 H   0  0  0  0  0  0
  -23.9773  -27.3101   18.9807 H   0  0  0  0  0  0
  -23.7993  -30.5790   19.4014 H   0  0  0  0  0  0
  -22.7782  -29.2453   19.8433 H   0  0  0  0  0  0
  -25.1299  -36.1881   25.0807 H   0  0  0  0  0  0
  -20.9989  -28.3275   24.1387 H   0  0  0  0  0  0
  -20.5695  -26.2310   23.3622 H   0  0  0  0  0  0
  -21.6652  -26.7433   22.1192 H   0  0  0  0  0  0
  -19.6922  -25.6278   21.1256 H   0  0  0  0  0  0
  -19.6686  -27.3168   20.6730 H   0  0  0  0  0  0
  -17.4213  -26.6680   21.4010 H   0  0  0  0  0  0
  -18.0315  -26.0043   22.8997 H   0  0  0  0  0  0
  -19.7953  -30.7260   24.2249 H   0  0  0  0  0  0
  -17.5037  -31.6265   24.5145 H   0  0  0  0  0  0
  -15.5366  -30.2974   23.7665 H   0  0  0  0  0  0
  -15.8690  -28.0802   22.7098 H   0  0  0  0  0  0
  -24.5898  -30.7065   25.7772 H   0  0  0  0  0  0
  -24.8856  -32.2912   26.4805 H   0  0  0  0  0  0
  -25.7999  -30.8976   27.0255 H   0  0  0  0  0  0
  -26.2973  -29.6702   24.1295 H   0  0  0  0  0  0
  -27.4004  -29.7272   25.4838 H   0  0  0  0  0  0
  -27.8871  -30.4223   23.9571 H   0  0  0  0  0  0
  -27.2622  -33.3714   26.1966 H   0  0  0  0  0  0
  -28.3881  -32.6869   25.0350 H   0  0  0  0  0  0
  -28.0647  -31.8579   26.5510 H   0  0  0  0  0  0
  -28.2582  -38.0096   24.7534 H   0  0  0  0  0  0
  -28.1086  -36.2630   24.6279 H   0  0  0  0  0  0
  -27.2298  -37.1420   25.8872 H   0  0  0  0  0  0
  -20.9461  -29.8778   21.6844 H   0  0  0  0  0  0
  -26.0156  -38.2824   24.1437 H   0  0  0  0  0  0
  -29.9037  -15.4062   18.0618 H   0  0  0  0  0  0
  -28.3359  -15.9664   18.5649 H   0  0  0  0  0  0
  -29.7880  -17.5337   21.6951 H   0  0  0  0  0  0
  -31.0320  -17.7850   20.5265 H   0  0  0  0  0  0
  -29.5001  -17.3130   16.9122 H   0  0  0  0  0  0
  -30.7481  -17.7883   18.0314 H   0  0  0  0  0  0
  -28.1374  -18.7734   20.4375 H   0  0  0  0  0  0
  -33.6659  -23.2921   21.3486 H   0  0  0  0  0  0
  -33.0869  -24.7082   20.4781 H   0  0  0  0  0  0
  -33.1922  -23.1468   19.6596 H   0  0  0  0  0  0
  -26.7445  -21.0032   17.2598 H   0  0  0  0  0  0
  -26.7214  -20.2490   18.8462 H   0  0  0  0  0  0
  -26.3270  -19.3064   17.4223 H   0  0  0  0  0  0
  -28.3993  -20.3493   15.5249 H   0  0  0  0  0  0
  -28.1127  -18.6327   15.7203 H   0  0  0  0  0  0
  -29.7502  -19.3028   15.8607 H   0  0  0  0  0  0
  -30.4752  -20.6570   19.8019 H   0  0  0  0  0  0
  -29.8189  -20.4660   21.3770 H   0  0  0  0  0  0
  -31.3146  -23.8216   21.9838 H   0  0  0  0  0  0
  -31.4472  -22.2434   21.2622 H   0  0  0  0  0  0
  -27.6700  -21.6770   20.6891 H   0  0  0  0  0  0
  -28.2683  -21.9334   19.1083 H   0  0  0  0  0  0
  -30.6402  -23.2028   19.0517 H   0  0  0  0  0  0
  -30.5824  -24.7751   19.7877 H   0  0  0  0  0  0
  -27.0608  -24.4925   20.4244 H   0  0  0  0  0  0
  -27.9066  -24.6143   18.9196 H   0  0  0  0  0  0
  -29.0173  -23.5177   21.5582 H   0  0  0  0  0  0
  -29.1342  -20.5427   17.8224 H   0  0  0  0  0  0
  -27.9452  -18.0794   18.5809 H   0  0  0  0  0  0
  1 25  1  0  0  0
  1 30  2  0  0  0
  1 85  1  0  0  0
  2  3  1  0  0  0
  2 25  1  0  0  0
  2 87  1  0  0  0
  2 88  1  0  0  0
  3  4  1  0  0  0
  3 89  1  0  0  0
  3 90  1  0  0  0
  4  5  1  0  0  0
  4 91  1  0  0  0
  4 92  1  0  0  0
  5  6  1  0  0  0
  5 26  1  0  0  0
  5 93  1  0  0  0
  6 25  1  0  0  0
  6 94  1  0  0  0
  6 95  1  0  0  0
  7  8  2  0  0  0
  7 26  1  0  0  0
  7 29  1  0  0  0
  8  9  1  0  0  0
  8 22  1  0  0  0
  9 10  1  0  0  0
  9 27  2  0  0  0
 10 11  2  0  0  0
 10 15  1  0  0  0
 11 12  1  0  0  0
 11 96  1  0  0  0
 12 13  2  0  0  0
 12 97  1  0  0  0
 13 14  1  0  0  0
 13 31  1  0  0  0
 14 15  2  0  0  0
 14 98  1  0  0  0
 15 99  1  0  0  0
 16 17  2  0  0  0
 16 21  1  0  0  0
 16 31  1  0  0  0
 17 18  1  0  0  0
 17100  1  0  0  0
 18 19  2  0  0  0
 18101  1  0  0  0
 19 20  1  0  0  0
 19 24  1  0  0  0
 20 21  2  0  0  0
 20102  1  0  0  0
 21 23  1  0  0  0
 22 28  1  0  0  0
 22 32  2  0  0  0
 26 27  1  0  0  0
 28103  1  0  0  0
 28104  1  0  0  0
 29105  1  0  0  0
 29106  1  0  0  0
 33 34  1  0  0  0
 33 66  1  0  0  0
 33 70  2  0  0  0
 34 36  1  0  0  0
 34 59  1  0  0  0
 34107  1  0  0  0
 35 44  2  0  0  0
 35 45  1  0  0  0
 35 68  1  0  0  0
 36 56  1  0  0  0
 36108  1  0  0  0
 37 39  1  0  0  0
 37 47  1  0  0  0
 37 66  1  0  0  0
 37109  1  0  0  0
 38 43  2  0  0  0
 38 46  1  0  0  0
 38 47  1  0  0  0
 39 64  1  0  0  0
 39 67  2  0  0  0
 40 52  1  0  0  0
 40 53  2  0  0  0
 40 58  1  0  0  0
 41110  1  0  0  0
 41111  1  0  0  0
 41112  1  0  0  0
 41 48  1  0  0  0
 42 43  1  0  0  0
 42 66  1  0  0  0
 42113  1  0  0  0
 42114  1  0  0  0
 43 44  1  0  0  0
 44115  1  0  0  0
 45 46  2  0  0  0
 45116  1  0  0  0
 46117  1  0  0  0
 47118  1  0  0  0
 47119  1  0  0  0
 48 56  1  0  0  0
 48 65  1  0  0  0
 48120  1  0  0  0
 49 50  1  0  0  0
 49 53  1  0  0  0
 49 64  1  0  0  0
 49121  1  0  0  0
 50 51  1  0  0  0
 50122  1  0  0  0
 50123  1  0  0  0
 51 52  1  0  0  0
 51124  1  0  0  0
 51125  1  0  0  0
 52126  1  0  0  0
 52127  1  0  0  0
 53 54  1  0  0  0
 54 55  2  0  0  0
 54128  1  0  0  0
 55 57  1  0  0  0
 55129  1  0  0  0
 56 69  2  0  0  0
 57 58  2  0  0  0
 57130  1  0  0  0
 58131  1  0  0  0
 59 60  1  0  0  0
 59 61  1  0  0  0
 59 62  1  0  0  0
 60132  1  0  0  0
 60133  1  0  0  0
 60134  1  0  0  0
 61135  1  0  0  0
 61136  1  0  0  0
 61137  1  0  0  0
 62138  1  0  0  0
 62139  1  0  0  0
 62140  1  0  0  0
 63 65  1  0  0  0
 63141  1  0  0  0
 63142  1  0  0  0
 63143  1  0  0  0
 64144  1  0  0  0
 65145  1  0  0  0
 68 82  1  0  0  0
 71 73  1  0  0  0
 71 85  1  0  0  0
 71146  1  0  0  0
 71147  1  0  0  0
 72 74  1  0  0  0
 72 85  1  0  0  0
 72148  1  0  0  0
 72149  1  0  0  0
 73150  1  0  0  0
 73151  1  0  0  0
 73 86  1  0  0  0
 74 78  1  0  0  0
 74 86  1  0  0  0
 74152  1  0  0  0
 75 79  1  0  0  0
 75153  1  0  0  0
 75154  1  0  0  0
 75155  1  0  0  0
 76156  1  0  0  0
 76157  1  0  0  0
 76158  1  0  0  0
 76 84  1  0  0  0
 77 84  1  0  0  0
 77159  1  0  0  0
 77160  1  0  0  0
 77161  1  0  0  0
 78 80  1  0  0  0
 78162  1  0  0  0
 78163  1  0  0  0
 79 81  1  0  0  0
 79164  1  0  0  0
 79165  1  0  0  0
 80166  1  0  0  0
 80167  1  0  0  0
 80 83  1  0  0  0
 81 83  1  0  0  0
 81168  1  0  0  0
 81169  1  0  0  0
 82 83  1  0  0  0
 82170  1  0  0  0
 82171  1  0  0  0
 83172  1  0  0  0
 84 86  1  0  0  0
 84173  1  0  0  0
 86174  1  0  0  0
M  CHG  1  86   1
M  ISO  4   1 100  68 101  82 101  85 100
M  END
> <chiral flag>
0

> <version>
0

> <s_m_source_file>
/data/baiqing/PycharmProjects/Reinvent-master-3.2/result/LINK_invent/BTK/process_docking_weight1_custom_sum_contain_oxygen_bond_distance_aromatic_linkinvent_7_9_3/rearranged_h_0101.sdf

> <i_m_source_file_index>
55

> <r_mmod_Potential_Energy-OPLS-2005>
702.596313476562

> <r_mmod_Stretch_Energy-OPLS-2005>
255.727478027344

> <r_mmod_Bend_Energy-OPLS-2005>
273.359375

> <r_mmod_Torsional_Energy-OPLS-2005>
438.863861083984

> <r_mmod_Improper_Torsional_Energy-OPLS-2005>
13.710597038269

> <r_mmod_Van_der_Waal_Energy-OPLS-2005>
140.866989135742

> <r_mmod_Electrostatic_Energy-OPLS-2005>
-168.714767456055

> <r_mmod_Solvation_Energy-OPLS-2005>
-424.95654296875

> <b_mmod_Minimization_Converged-OPLS-2005>
0

> <r_mmod_RMS_Derivative-OPLS-2005>
1.66975569725037

$$$$
55
                    3D
 Structure written by MMmdl.
180188  0  0  1  0            999 V2000
  -30.7283  -14.4816   20.4555 C   0  0  0  0  0  0
  -30.4119  -12.2842   19.4323 C   0  0  0  0  0  0
  -29.4992  -12.4723   18.2087 C   0  0  0  0  0  0
  -28.0207  -12.3340   18.6307 C   0  0  0  0  0  0
  -27.6630  -13.2007   19.8693 C   0  0  2  0  0  0
  -28.7113  -13.0417   20.9932 C   0  0  0  0  0  0
  -25.2650  -13.8108   20.5659 C   0  0  0  0  0  0
  -24.1906  -13.0420   20.9124 C   0  0  0  0  0  0
  -24.6433  -11.6854   20.8758 C   0  0  0  0  0  0
  -23.9092  -10.4255   21.0407 C   0  0  0  0  0  0
  -24.3659   -9.4194   21.9216 C   0  0  0  0  0  0
  -23.6343   -8.2241   22.0796 C   0  0  0  0  0  0
  -22.4324   -8.0299   21.3585 C   0  0  0  0  0  0
  -21.9939   -9.0236   20.4672 C   0  0  0  0  0  0
  -22.7230  -10.2124   20.3066 C   0  0  0  0  0  0
  -21.6853   -6.0801   22.5313 C   0  0  0  0  0  0
  -21.3993   -6.5706   23.8243 C   0  0  0  0  0  0
  -21.3651   -5.6866   24.9190 C   0  0  0  0  0  0
  -21.6018   -4.3121   24.7210 C   0  0  0  0  0  0
  -21.8822   -3.8216   23.4329 C   0  0  0  0  0  0
  -21.9185   -4.7030   22.3405 C   0  0  0  0  0  0
  -22.7905  -13.5233   21.1759 C   0  0  0  0  0  0
  -22.1654   -4.2262   21.0950 F   0  0  0  0  0  0
  -21.5616   -3.4566   25.7693 F   0  0  0  0  0  0
  -30.0327  -13.3191   20.4050 N   0  0  0  0  0  0
  -26.3088  -12.9270   20.3355 N   0  0  0  0  0  0
  -25.9379  -11.6442   20.5843 N   0  0  0  0  0  0
  -22.0562  -12.8263   22.0307 N   0  0  0  0  0  0
  -25.4342  -15.1847   20.4074 N   0  0  0  0  0  0
  -31.9019  -14.5652   20.0880 O   0  0  0  0  0  0
  -21.6642   -6.8941   21.4295 O   0  0  0  0  0  0
  -22.3540  -14.5503   20.6533 O   0  0  0  0  0  0
  -24.6195  -31.8607   23.2061 C   0  0  0  0  0  0
  -25.9021  -32.4806   23.8441 C   0  0  1  0  0  0
  -27.2403  -27.3905   20.0895 C   0  0  0  0  0  0
  -25.5880  -33.8603   24.2338 N   0  0  0  0  0  0
  -23.4138  -30.4853   21.5469 C   0  0  2  0  0  0
  -24.8593  -28.9389   20.1144 C   0  0  0  0  0  0
  -22.7463  -29.4641   22.4938 C   0  0  0  0  0  0
  -18.0306  -28.1402   22.8507 C   0  0  0  0  0  0
  -24.1469  -36.7327   23.2661 C   0  0  0  0  0  0
  -25.9519  -30.8108   21.3646 C   0  0  0  0  0  0
  -26.0304  -29.4427   20.7116 C   0  0  0  0  0  0
  -27.2202  -28.6734   20.7025 C   0  0  0  0  0  0
  -26.0606  -26.9183   19.4736 C   0  0  0  0  0  0
  -24.8734  -27.6764   19.5039 C   0  0  0  0  0  0
  -23.6277  -29.8164   20.1660 C   0  0  0  0  0  0
  -25.4112  -36.3128   24.0331 C   0  0  1  0  0  0
  -20.5917  -28.3622   23.1338 C   0  0  2  0  0  0
  -20.6784  -26.9356   22.5425 C   0  0  0  0  0  0
  -19.5736  -26.6384   21.5219 C   0  0  0  0  0  0
  -18.1905  -26.7966   22.1632 C   0  0  0  0  0  0
  -19.1537  -28.8845   23.2908 C   0  0  0  0  0  0
  -18.9461  -30.1487   23.8833 C   0  0  0  0  0  0
  -17.6444  -30.6567   24.0596 C   0  0  0  0  0  0
  -25.9031  -34.9470   23.5140 C   0  0  0  0  0  0
  -16.5371  -29.9040   23.6373 C   0  0  0  0  0  0
  -16.7288  -28.6537   23.0270 C   0  0  0  0  0  0
  -26.4391  -31.6631   25.0816 C   0  0  0  0  0  0
  -25.3677  -31.3660   26.1607 C   0  0  0  0  0  0
  -27.0271  -30.3125   24.6206 C   0  0  0  0  0  0
  -27.6028  -32.4343   25.7507 C   0  0  0  0  0  0
  -27.5582  -37.1837   24.8475 C   0  0  0  0  0  0
  -21.4202  -29.2952   22.3702 N   0  0  0  0  0  0
  -26.4298  -37.3819   23.9415 N   0  0  0  0  0  0
  -24.6829  -31.0659   22.0988 N   0  0  0  0  0  0
  -23.4199  -28.8202   23.3021 O   0  0  0  0  0  0
  -28.3679  -26.5856   20.0675 O   0  0  0  0  0  0
  -26.5596  -34.8936   22.4711 O   0  0  0  0  0  0
  -23.5363  -32.1395   23.7388 O   0  0  0  0  0  0
  -29.5728  -19.2569   20.1755 C   0  0  0  0  0  0
  -29.7600  -18.1406   20.9479 C   0  0  0  0  0  0
  -29.0884  -18.4116   22.1809 C   0  0  0  0  0  0
  -28.2279  -19.4761   21.9397 C   0  0  0  0  0  0
  -30.8379  -19.7005   24.2715 C   0  0  0  0  0  0
  -29.2080  -16.1831   23.5490 C   0  0  0  0  0  0
  -26.8832  -19.6308   24.1920 C   0  0  0  0  0  0
  -25.7114  -19.3603   21.9816 C   0  0  0  0  0  0
  -26.6971  -23.0229   21.2214 C   0  0  0  0  0  0
  -28.9820  -22.7970   22.3629 C   0  0  0  0  0  0
  -30.6483  -16.9432   20.5974 C   0  0  0  0  0  0
  -30.7192  -18.1685   24.0997 C   0  0  0  0  0  0
  -28.4156  -21.5044   20.1601 C   0  0  0  0  0  0
  -28.6941  -24.1788   20.2748 C   0  0  0  0  0  0
  -29.3646  -17.7055   23.5197 C   0  0  1  0  0  0
  -26.9685  -19.9158   22.6760 C   0  0  0  0  0  0
  -28.2198  -22.8483   21.0113 C   0  0  0  0  0  0
  -28.7197  -20.1649   20.8005 N   0  0  0  0  0  0
  -30.0302  -15.6112   20.6977 N   0  0  0  0  0  0
  -28.1564  -25.4082   20.9209 N   0  0  0  0  0  0
  -31.4605  -12.3504   19.1428 H   0  0  0  0  0  0
  -30.2781  -11.2855   19.8510 H   0  0  0  0  0  0
  -29.7461  -11.7429   17.4344 H   0  0  0  0  0  0
  -29.6644  -13.4549   17.7638 H   0  0  0  0  0  0
  -27.8459  -11.2798   18.8508 H   0  0  0  0  0  0
  -27.3689  -12.5859   17.7934 H   0  0  0  0  0  0
  -27.6947  -14.2371   19.5435 H   0  0  0  0  0  0
  -28.6926  -12.0230   21.3842 H   0  0  0  0  0  0
  -28.5008  -13.6963   21.8441 H   0  0  0  0  0  0
  -25.2806   -9.5682   22.4792 H   0  0  0  0  0  0
  -24.0076   -7.4626   22.7503 H   0  0  0  0  0  0
  -21.0900   -8.8705   19.8961 H   0  0  0  0  0  0
  -22.3698  -10.9670   19.6192 H   0  0  0  0  0  0
  -21.2003   -7.6229   23.9775 H   0  0  0  0  0  0
  -21.1458   -6.0575   25.9113 H   0  0  0  0  0  0
  -22.0625   -2.7691   23.2750 H   0  0  0  0  0  0
  -22.4163  -11.9911   22.4713 H   0  0  0  0  0  0
  -21.1218  -13.1310   22.2579 H   0  0  0  0  0  0
  -24.6617  -15.8302   20.5153 H   0  0  0  0  0  0
  -26.2938  -15.6362   20.1252 H   0  0  0  0  0  0
  -26.7152  -32.5517   23.1276 H   0  0  0  0  0  0
  -25.0072  -33.9799   25.0512 H   0  0  0  0  0  0
  -22.7114  -31.3084   21.3992 H   0  0  0  0  0  0
  -23.3713  -35.9677   23.3312 H   0  0  0  0  0  0
  -24.3604  -36.8952   22.2099 H   0  0  0  0  0  0
  -23.7206  -37.6531   23.6647 H   0  0  0  0  0  0
  -26.0863  -31.5728   20.5908 H   0  0  0  0  0  0
  -26.8391  -30.8663   21.9867 H   0  0  0  0  0  0
  -28.1270  -29.0534   21.1525 H   0  0  0  0  0  0
  -26.0643  -25.9592   18.9723 H   0  0  0  0  0  0
  -23.9782  -27.2938   19.0322 H   0  0  0  0  0  0
  -23.7410  -30.5876   19.4051 H   0  0  0  0  0  0
  -22.7563  -29.2395   19.8642 H   0  0  0  0  0  0
  -25.1273  -36.2053   25.0810 H   0  0  0  0  0  0
  -21.0006  -28.3155   24.1470 H   0  0  0  0  0  0
  -20.5600  -26.2237   23.3582 H   0  0  0  0  0  0
  -21.6660  -26.7347   22.1219 H   0  0  0  0  0  0
  -19.6807  -25.6262   21.1261 H   0  0  0  0  0  0
  -19.6688  -27.3188   20.6709 H   0  0  0  0  0  0
  -17.4185  -26.6744   21.4014 H   0  0  0  0  0  0
  -18.0277  -26.0133   22.9053 H   0  0  0  0  0  0
  -19.7911  -30.7408   24.2071 H   0  0  0  0  0  0
  -17.4955  -31.6212   24.5253 H   0  0  0  0  0  0
  -15.5341  -30.2865   23.7699 H   0  0  0  0  0  0
  -15.8748  -28.0849   22.6835 H   0  0  0  0  0  0
  -24.5896  -30.6920   25.7960 H   0  0  0  0  0  0
  -24.8788  -32.2755   26.5147 H   0  0  0  0  0  0
  -25.8140  -30.8857   27.0346 H   0  0  0  0  0  0
  -26.2871  -29.6877   24.1235 H   0  0  0  0  0  0
  -27.4044  -29.7372   25.4654 H   0  0  0  0  0  0
  -27.8642  -30.4483   23.9367 H   0  0  0  0  0  0
  -27.2745  -33.3686   26.2060 H   0  0  0  0  0  0
  -28.3800  -32.6854   25.0264 H   0  0  0  0  0  0
  -28.0710  -31.8493   26.5424 H   0  0  0  0  0  0
  -28.2621  -38.0099   24.7569 H   0  0  0  0  0  0
  -28.1050  -36.2694   24.6232 H   0  0  0  0  0  0
  -27.2356  -37.1435   25.8877 H   0  0  0  0  0  0
  -20.9317  -29.8800   21.7082 H   0  0  0  0  0  0
  -26.0183  -38.2898   24.1392 H   0  0  0  0  0  0
  -29.9972  -19.4974   19.2064 H   0  0  0  0  0  0
  -31.8759  -20.0235   24.3464 H   0  0  0  0  0  0
  -30.3259  -20.0236   25.1779 H   0  0  0  0  0  0
  -30.4135  -20.2659   23.4430 H   0  0  0  0  0  0
  -28.2958  -15.8906   23.0284 H   0  0  0  0  0  0
  -29.1009  -15.8590   24.5850 H   0  0  0  0  0  0
  -30.0638  -15.6320   23.1597 H   0  0  0  0  0  0
  -26.1619  -20.2895   24.6792 H   0  0  0  0  0  0
  -27.8297  -19.8192   24.7015 H   0  0  0  0  0  0
  -26.5667  -18.6009   24.3894 H   0  0  0  0  0  0
  -25.7335  -19.5453   20.9050 H   0  0  0  0  0  0
  -24.8073  -19.8271   22.3751 H   0  0  0  0  0  0
  -25.6197  -18.2794   22.1236 H   0  0  0  0  0  0
  -26.1555  -22.0935   21.0641 H   0  0  0  0  0  0
  -26.2540  -23.7237   20.5044 H   0  0  0  0  0  0
  -26.4673  -23.3859   22.2234 H   0  0  0  0  0  0
  -30.0503  -22.6317   22.2079 H   0  0  0  0  0  0
  -28.6381  -22.0258   23.0504 H   0  0  0  0  0  0
  -28.8835  -23.7354   22.9105 H   0  0  0  0  0  0
  -31.5076  -16.9703   21.2650 H   0  0  0  0  0  0
  -31.0551  -17.0500   19.5891 H   0  0  0  0  0  0
  -30.9000  -17.6966   25.0667 H   0  0  0  0  0  0
  -31.5252  -17.8199   23.4538 H   0  0  0  0  0  0
  -29.2506  -21.6997   19.4793 H   0  0  0  0  0  0
  -27.5757  -21.3642   19.4760 H   0  0  0  0  0  0
  -29.7837  -24.2267   20.2679 H   0  0  0  0  0  0
  -28.3869  -24.1578   19.2290 H   0  0  0  0  0  0
  -28.6309  -17.9862   24.2496 H   0  0  0  0  0  0
  -26.8925  -20.9846   22.6191 H   0  0  0  0  0  0
  -29.0680  -15.5624   20.9824 H   0  0  0  0  0  0
  -28.6459  -25.5994   21.7893 H   0  0  0  0  0  0
  1 25  1  0  0  0
  1 30  2  0  0  0
  1 89  1  0  0  0
  2  3  1  0  0  0
  2 25  1  0  0  0
  2 91  1  0  0  0
  2 92  1  0  0  0
  3  4  1  0  0  0
  3 93  1  0  0  0
  3 94  1  0  0  0
  4  5  1  0  0  0
  4 95  1  0  0  0
  4 96  1  0  0  0
  5  6  1  0  0  0
  5 26  1  0  0  0
  5 97  1  0  0  0
  6 25  1  0  0  0
  6 98  1  0  0  0
  6 99  1  0  0  0
  7  8  2  0  0  0
  7 26  1  0  0  0
  7 29  1  0  0  0
  8  9  1  0  0  0
  8 22  1  0  0  0
  9 10  1  0  0  0
  9 27  2  0  0  0
 10 11  2  0  0  0
 10 15  1  0  0  0
 11 12  1  0  0  0
 11100  1  0  0  0
 12 13  2  0  0  0
 12101  1  0  0  0
 13 14  1  0  0  0
 13 31  1  0  0  0
 14 15  2  0  0  0
 14102  1  0  0  0
 15103  1  0  0  0
 16 17  2  0  0  0
 16 21  1  0  0  0
 16 31  1  0  0  0
 17 18  1  0  0  0
 17104  1  0  0  0
 18 19  2  0  0  0
 18105  1  0  0  0
 19 20  1  0  0  0
 19 24  1  0  0  0
 20 21  2  0  0  0
 20106  1  0  0  0
 21 23  1  0  0  0
 22 28  1  0  0  0
 22 32  2  0  0  0
 26 27  1  0  0  0
 28107  1  0  0  0
 28108  1  0  0  0
 29109  1  0  0  0
 29110  1  0  0  0
 33 34  1  0  0  0
 33 66  1  0  0  0
 33 70  2  0  0  0
 34 36  1  0  0  0
 34 59  1  0  0  0
 34111  1  0  0  0
 35 44  2  0  0  0
 35 45  1  0  0  0
 35 68  1  0  0  0
 36 56  1  0  0  0
 36112  1  0  0  0
 37 39  1  0  0  0
 37 47  1  0  0  0
 37 66  1  0  0  0
 37113  1  0  0  0
 38 43  2  0  0  0
 38 46  1  0  0  0
 38 47  1  0  0  0
 39 64  1  0  0  0
 39 67  2  0  0  0
 40 52  1  0  0  0
 40 53  2  0  0  0
 40 58  1  0  0  0
 41114  1  0  0  0
 41115  1  0  0  0
 41116  1  0  0  0
 41 48  1  0  0  0
 42 43  1  0  0  0
 42 66  1  0  0  0
 42117  1  0  0  0
 42118  1  0  0  0
 43 44  1  0  0  0
 44119  1  0  0  0
 45 46  2  0  0  0
 45120  1  0  0  0
 46121  1  0  0  0
 47122  1  0  0  0
 47123  1  0  0  0
 48 56  1  0  0  0
 48 65  1  0  0  0
 48124  1  0  0  0
 49 50  1  0  0  0
 49 53  1  0  0  0
 49 64  1  0  0  0
 49125  1  0  0  0
 50 51  1  0  0  0
 50126  1  0  0  0
 50127  1  0  0  0
 51 52  1  0  0  0
 51128  1  0  0  0
 51129  1  0  0  0
 52130  1  0  0  0
 52131  1  0  0  0
 53 54  1  0  0  0
 54 55  2  0  0  0
 54132  1  0  0  0
 55 57  1  0  0  0
 55133  1  0  0  0
 56 69  2  0  0  0
 57 58  2  0  0  0
 57134  1  0  0  0
 58135  1  0  0  0
 59 60  1  0  0  0
 59 61  1  0  0  0
 59 62  1  0  0  0
 60136  1  0  0  0
 60137  1  0  0  0
 60138  1  0  0  0
 61139  1  0  0  0
 61140  1  0  0  0
 61141  1  0  0  0
 62142  1  0  0  0
 62143  1  0  0  0
 62144  1  0  0  0
 63 65  1  0  0  0
 63145  1  0  0  0
 63146  1  0  0  0
 63147  1  0  0  0
 64148  1  0  0  0
 65149  1  0  0  0
 68 90  1  0  0  0
 71 72  2  0  0  0
 71 88  1  0  0  0
 71150  1  0  0  0
 72 73  1  0  0  0
 72 81  1  0  0  0
 73 74  2  0  0  0
 73 85  1  0  0  0
 74 86  1  0  0  0
 74 88  1  0  0  0
 75 82  1  0  0  0
 75151  1  0  0  0
 75152  1  0  0  0
 75153  1  0  0  0
 76154  1  0  0  0
 76155  1  0  0  0
 76156  1  0  0  0
 76 85  1  0  0  0
 77157  1  0  0  0
 77158  1  0  0  0
 77159  1  0  0  0
 77 86  1  0  0  0
 78 86  1  0  0  0
 78160  1  0  0  0
 78161  1  0  0  0
 78162  1  0  0  0
 79163  1  0  0  0
 79164  1  0  0  0
 79165  1  0  0  0
 79 87  1  0  0  0
 80 87  1  0  0  0
 80166  1  0  0  0
 80167  1  0  0  0
 80168  1  0  0  0
 81 89  1  0  0  0
 81169  1  0  0  0
 81170  1  0  0  0
 82 85  1  0  0  0
 82171  1  0  0  0
 82172  1  0  0  0
 83 87  1  0  0  0
 83 88  1  0  0  0
 83173  1  0  0  0
 83174  1  0  0  0
 84 87  1  0  0  0
 84 90  1  0  0  0
 84175  1  0  0  0
 84176  1  0  0  0
 85177  1  0  0  0
 86178  1  0  0  0
 89179  1  0  0  0
 90180  1  0  0  0
M  ISO  4   1 100  68 101  89 100  90 101
M  END
> <chiral flag>
0

> <version>
0

> <s_m_source_file>
/data/baiqing/PycharmProjects/Reinvent-master-3.2/result/LINK_invent/BTK/process_docking_weight1_custom_sum_contain_oxygen_bond_distance_aromatic_linkinvent_7_9_3/rearranged_h_0101.sdf

> <i_m_source_file_index>
56

> <r_mmod_Potential_Energy-OPLS-2005>
31.6206474304199

> <r_mmod_Stretch_Energy-OPLS-2005>
66.2283325195312

> <r_mmod_Bend_Energy-OPLS-2005>
158.076248168945

> <r_mmod_Torsional_Energy-OPLS-2005>
302.515716552734

> <r_mmod_Improper_Torsional_Energy-OPLS-2005>
6.3688645362854

> <r_mmod_Van_der_Waal_Energy-OPLS-2005>
140.220687866211

> <r_mmod_Electrostatic_Energy-OPLS-2005>
-475.914794921875

> <r_mmod_Solvation_Energy-OPLS-2005>
-190.917587280273

> <b_mmod_Minimization_Converged-OPLS-2005>
0

> <r_mmod_RMS_Derivative-OPLS-2005>
10.0822477340698

$$$$
56
                    3D
 Structure written by MMmdl.
162170  0  0  1  0            999 V2000
  -30.4739  -15.0625   20.4034 C   0  0  0  0  0  0
  -30.4503  -12.6626   19.5085 C   0  0  0  0  0  0
  -29.5312  -12.5616   18.2658 C   0  0  0  0  0  0
  -28.0653  -12.3283   18.6804 C   0  0  0  0  0  0
  -27.6295  -13.2570   19.8413 C   0  0  2  0  0  0
  -28.6730  -13.3054   20.9785 C   0  0  0  0  0  0
  -25.2457  -13.8243   20.5713 C   0  0  0  0  0  0
  -24.1782  -13.0445   20.9236 C   0  0  0  0  0  0
  -24.6416  -11.6937   20.8767 C   0  0  0  0  0  0
  -23.9099  -10.4300   21.0424 C   0  0  0  0  0  0
  -24.3648   -9.4207   21.9192 C   0  0  0  0  0  0
  -23.6319   -8.2248   22.0751 C   0  0  0  0  0  0
  -22.4299   -8.0292   21.3542 C   0  0  0  0  0  0
  -21.9942   -9.0275   20.4646 C   0  0  0  0  0  0
  -22.7278  -10.2145   20.3063 C   0  0  0  0  0  0
  -21.6856   -6.0756   22.5284 C   0  0  0  0  0  0
  -21.4018   -6.5658   23.8215 C   0  0  0  0  0  0
  -21.3647   -5.6804   24.9176 C   0  0  0  0  0  0
  -21.6044   -4.3071   24.7222 C   0  0  0  0  0  0
  -21.8814   -3.8158   23.4343 C   0  0  0  0  0  0
  -21.9192   -4.6987   22.3396 C   0  0  0  0  0  0
  -22.7791  -13.5201   21.1874 C   0  0  0  0  0  0
  -22.1664   -4.2173   21.0979 F   0  0  0  0  0  0
  -21.5616   -3.4548   25.7729 F   0  0  0  0  0  0
  -29.9325  -13.7659   20.3763 N   0  0  0  0  0  0
  -26.2889  -12.9471   20.3268 N   0  0  0  0  0  0
  -25.9354  -11.6598   20.5759 N   0  0  0  0  0  0
  -22.0467  -12.8182   22.0449 N   0  0  0  0  0  0
  -25.4119  -15.1959   20.4091 N   0  0  0  0  0  0
  -31.6779  -15.1536   20.1376 O   0  0  0  0  0  0
  -21.6645   -6.8903   21.4241 O   0  0  0  0  0  0
  -22.3470  -14.5506   20.6732 O   0  0  0  0  0  0
  -24.6534  -31.8396   23.1870 C   0  0  0  0  0  0
  -25.9280  -32.4665   23.8289 C   0  0  1  0  0  0
  -27.1801  -27.0139   20.1347 C   0  0  0  0  0  0
  -25.6011  -33.8482   24.2199 N   0  0  0  0  0  0
  -23.4600  -30.4619   21.5361 C   0  0  2  0  0  0
  -24.9019  -28.8863   20.1042 C   0  0  0  0  0  0
  -22.7591  -29.4542   22.4834 C   0  0  0  0  0  0
  -18.0316  -28.1282   22.8447 C   0  0  0  0  0  0
  -24.1503  -36.7235   23.2632 C   0  0  0  0  0  0
  -26.0279  -30.6655   21.4150 C   0  0  0  0  0  0
  -26.0847  -29.2690   20.7497 C   0  0  0  0  0  0
  -27.2177  -28.3470   20.7571 C   0  0  0  0  0  0
  -25.9981  -26.8221   19.3883 C   0  0  0  0  0  0
  -24.8770  -27.6782   19.4077 C   0  0  0  0  0  0
  -23.6893  -29.8041   20.1536 C   0  0  0  0  0  0
  -25.4144  -36.3016   24.0300 C   0  0  1  0  0  0
  -20.5917  -28.3733   23.1112 C   0  0  2  0  0  0
  -20.6807  -26.9383   22.5410 C   0  0  0  0  0  0
  -19.5757  -26.6096   21.5319 C   0  0  0  0  0  0
  -18.1991  -26.7721   22.1785 C   0  0  0  0  0  0
  -19.1541  -28.8856   23.2738 C   0  0  0  0  0  0
  -18.9419  -30.1456   23.8726 C   0  0  0  0  0  0
  -17.6382  -30.6519   24.0433 C   0  0  0  0  0  0
  -25.9089  -34.9388   23.5051 C   0  0  0  0  0  0
  -16.5308  -29.8937   23.6281 C   0  0  0  0  0  0
  -16.7290  -28.6338   23.0354 C   0  0  0  0  0  0
  -26.4551  -31.6556   25.0768 C   0  0  0  0  0  0
  -25.3684  -31.3766   26.1423 C   0  0  0  0  0  0
  -27.0439  -30.2929   24.6452 C   0  0  0  0  0  0
  -27.6073  -32.4359   25.7529 C   0  0  0  0  0  0
  -27.5598  -37.1788   24.8463 C   0  0  0  0  0  0
  -21.4289  -29.3024   22.3455 N   0  0  0  0  0  0
  -26.4316  -37.3732   23.9388 N   0  0  0  0  0  0
  -24.7346  -31.0148   22.0974 N   0  0  0  0  0  0
  -23.4140  -28.8151   23.3111 O   0  0  0  0  0  0
  -28.1697  -25.9161   20.2147 O   0  0  0  0  0  0
  -26.5664  -34.8879   22.4628 O   0  0  0  0  0  0
  -23.5626  -32.1362   23.7010 O   0  0  0  0  0  0
  -29.9809  -20.4487   21.3949 C   0  0  0  0  0  0
  -28.9377  -20.3181   19.2136 C   0  0  0  0  0  0
  -29.7837  -18.8413   21.6749 C   0  0  0  0  0  0
  -29.5967  -18.7948   19.2072 C   0  0  0  0  0  0
  -28.9550  -21.2988   20.4974 C   0  0  2  0  0  0
  -29.4501  -17.8368   20.4785 C   0  0  1  0  0  0
  -25.4100  -24.4027   21.1643 C   0  0  0  0  0  0
  -27.4434  -23.8720   18.7444 C   0  0  0  0  0  0
  -29.0992  -23.0505   20.4067 C   0  0  0  0  0  0
  -26.8761  -23.9503   21.2733 C   0  0  0  0  0  0
  -27.9151  -24.3013   20.1585 C   0  0  1  0  0  0
  -29.6102  -16.2114   20.5403 N   0  0  0  0  0  0
  -31.4792  -12.8458   19.1955 H   0  0  0  0  0  0
  -30.4707  -11.7180   20.0559 H   0  0  0  0  0  0
  -29.8672  -11.7649   17.6027 H   0  0  0  0  0  0
  -29.6003  -13.4860   17.6906 H   0  0  0  0  0  0
  -27.9725  -11.2873   18.9907 H   0  0  0  0  0  0
  -27.4000  -12.4548   17.8242 H   0  0  0  0  0  0
  -27.5841  -14.2555   19.4053 H   0  0  0  0  0  0
  -28.7891  -12.3273   21.4509 H   0  0  0  0  0  0
  -28.3529  -13.9908   21.7648 H   0  0  0  0  0  0
  -25.2801   -9.5675   22.4769 H   0  0  0  0  0  0
  -24.0029   -7.4625   22.7463 H   0  0  0  0  0  0
  -21.0877   -8.8798   19.8951 H   0  0  0  0  0  0
  -22.3752  -10.9688   19.6169 H   0  0  0  0  0  0
  -21.2022   -7.6168   23.9728 H   0  0  0  0  0  0
  -21.1471   -6.0536   25.9075 H   0  0  0  0  0  0
  -22.0605   -2.7632   23.2834 H   0  0  0  0  0  0
  -22.4106  -11.9837   22.4798 H   0  0  0  0  0  0
  -21.1075  -13.1166   22.2668 H   0  0  0  0  0  0
  -24.6384  -15.8461   20.4951 H   0  0  0  0  0  0
  -26.2474  -15.6296   20.0389 H   0  0  0  0  0  0
  -26.7345  -32.5224   23.1006 H   0  0  0  0  0  0
  -25.0182  -33.9572   25.0363 H   0  0  0  0  0  0
  -22.7674  -31.2914   21.3835 H   0  0  0  0  0  0
  -23.3787  -35.9544   23.3287 H   0  0  0  0  0  0
  -24.3569  -36.8883   22.2044 H   0  0  0  0  0  0
  -23.7234  -37.6414   23.6687 H   0  0  0  0  0  0
  -26.2171  -31.4195   20.6492 H   0  0  0  0  0  0
  -26.8872  -30.7022   22.0730 H   0  0  0  0  0  0
  -28.1044  -28.6269   21.3065 H   0  0  0  0  0  0
  -25.8647  -25.9497   18.7906 H   0  0  0  0  0  0
  -23.9863  -27.3969   18.8593 H   0  0  0  0  0  0
  -23.8339  -30.5884   19.4091 H   0  0  0  0  0  0
  -22.7994  -29.2590   19.8334 H   0  0  0  0  0  0
  -25.1343  -36.1844   25.0795 H   0  0  0  0  0  0
  -20.9989  -28.3453   24.1243 H   0  0  0  0  0  0
  -20.5736  -26.2427   23.3755 H   0  0  0  0  0  0
  -21.6650  -26.7305   22.1180 H   0  0  0  0  0  0
  -19.6857  -25.5877   21.1679 H   0  0  0  0  0  0
  -19.6604  -27.2615   20.6619 H   0  0  0  0  0  0
  -17.4185  -26.6205   21.4310 H   0  0  0  0  0  0
  -18.0555  -25.9987   22.9346 H   0  0  0  0  0  0
  -19.7856  -30.7357   24.2017 H   0  0  0  0  0  0
  -17.4861  -31.6196   24.5008 H   0  0  0  0  0  0
  -15.5283  -30.2744   23.7667 H   0  0  0  0  0  0
  -15.8714  -28.0556   22.7161 H   0  0  0  0  0  0
  -24.5900  -30.7075   25.7740 H   0  0  0  0  0  0
  -24.8806  -32.2931   26.4747 H   0  0  0  0  0  0
  -25.7920  -30.9009   27.0274 H   0  0  0  0  0  0
  -26.3085  -29.6626   24.1437 H   0  0  0  0  0  0
  -27.3973  -29.7270   25.5087 H   0  0  0  0  0  0
  -27.9041  -30.4144   23.9865 H   0  0  0  0  0  0
  -27.2679  -33.3731   26.1960 H   0  0  0  0  0  0
  -28.3925  -32.6818   25.0364 H   0  0  0  0  0  0
  -28.0695  -31.8585   26.5542 H   0  0  0  0  0  0
  -28.2610  -38.0098   24.7529 H   0  0  0  0  0  0
  -28.1120  -36.2628   24.6304 H   0  0  0  0  0  0
  -27.2300  -37.1428   25.8863 H   0  0  0  0  0  0
  -20.9587  -29.8596   21.6458 H   0  0  0  0  0  0
  -26.0189  -38.2804   24.1394 H   0  0  0  0  0  0
  -30.9663  -20.5671   20.9423 H   0  0  0  0  0  0
  -30.0661  -20.9405   22.3625 H   0  0  0  0  0  0
  -27.8928  -20.2239   18.9126 H   0  0  0  0  0  0
  -29.4027  -20.8655   18.3914 H   0  0  0  0  0  0
  -28.9954  -18.7366   22.4215 H   0  0  0  0  0  0
  -30.6872  -18.4777   22.1683 H   0  0  0  0  0  0
  -30.6667  -18.9006   19.0173 H   0  0  0  0  0  0
  -29.2104  -18.2722   18.3324 H   0  0  0  0  0  0
  -28.0001  -21.1316   20.9914 H   0  0  0  0  0  0
  -28.3608  -17.8169   20.5385 H   0  0  0  0  0  0
  -24.9828  -24.2262   20.1772 H   0  0  0  0  0  0
  -25.2886  -25.4507   21.4319 H   0  0  0  0  0  0
  -24.7922  -23.8463   21.8683 H   0  0  0  0  0  0
  -26.4298  -24.1221   18.4616 H   0  0  0  0  0  0
  -28.1238  -24.2388   17.9754 H   0  0  0  0  0  0
  -27.4423  -22.7832   18.6643 H   0  0  0  0  0  0
  -29.9015  -23.2441   19.6964 H   0  0  0  0  0  0
  -29.5505  -23.3153   21.3613 H   0  0  0  0  0  0
  -26.8084  -22.8693   21.3520 H   0  0  0  0  0  0
  -27.2778  -24.2761   22.2335 H   0  0  0  0  0  0
  -28.6959  -15.8283   20.7356 H   0  0  0  0  0  0
  1 25  1  0  0  0
  1 30  2  0  0  0
  1 82  1  0  0  0
  2  3  1  0  0  0
  2 25  1  0  0  0
  2 83  1  0  0  0
  2 84  1  0  0  0
  3  4  1  0  0  0
  3 85  1  0  0  0
  3 86  1  0  0  0
  4  5  1  0  0  0
  4 87  1  0  0  0
  4 88  1  0  0  0
  5  6  1  0  0  0
  5 26  1  0  0  0
  5 89  1  0  0  0
  6 25  1  0  0  0
  6 90  1  0  0  0
  6 91  1  0  0  0
  7  8  2  0  0  0
  7 26  1  0  0  0
  7 29  1  0  0  0
  8  9  1  0  0  0
  8 22  1  0  0  0
  9 10  1  0  0  0
  9 27  2  0  0  0
 10 11  2  0  0  0
 10 15  1  0  0  0
 11 12  1  0  0  0
 11 92  1  0  0  0
 12 13  2  0  0  0
 12 93  1  0  0  0
 13 14  1  0  0  0
 13 31  1  0  0  0
 14 15  2  0  0  0
 14 94  1  0  0  0
 15 95  1  0  0  0
 16 17  2  0  0  0
 16 21  1  0  0  0
 16 31  1  0  0  0
 17 18  1  0  0  0
 17 96  1  0  0  0
 18 19  2  0  0  0
 18 97  1  0  0  0
 19 20  1  0  0  0
 19 24  1  0  0  0
 20 21  2  0  0  0
 20 98  1  0  0  0
 21 23  1  0  0  0
 22 28  1  0  0  0
 22 32  2  0  0  0
 26 27  1  0  0  0
 28 99  1  0  0  0
 28100  1  0  0  0
 29101  1  0  0  0
 29102  1  0  0  0
 33 34  1  0  0  0
 33 66  1  0  0  0
 33 70  2  0  0  0
 34 36  1  0  0  0
 34 59  1  0  0  0
 34103  1  0  0  0
 35 44  2  0  0  0
 35 45  1  0  0  0
 35 68  1  0  0  0
 36 56  1  0  0  0
 36104  1  0  0  0
 37 39  1  0  0  0
 37 47  1  0  0  0
 37 66  1  0  0  0
 37105  1  0  0  0
 38 43  2  0  0  0
 38 46  1  0  0  0
 38 47  1  0  0  0
 39 64  1  0  0  0
 39 67  2  0  0  0
 40 52  1  0  0  0
 40 53  2  0  0  0
 40 58  1  0  0  0
 41106  1  0  0  0
 41107  1  0  0  0
 41108  1  0  0  0
 41 48  1  0  0  0
 42 43  1  0  0  0
 42 66  1  0  0  0
 42109  1  0  0  0
 42110  1  0  0  0
 43 44  1  0  0  0
 44111  1  0  0  0
 45 46  2  0  0  0
 45112  1  0  0  0
 46113  1  0  0  0
 47114  1  0  0  0
 47115  1  0  0  0
 48 56  1  0  0  0
 48 65  1  0  0  0
 48116  1  0  0  0
 49 50  1  0  0  0
 49 53  1  0  0  0
 49 64  1  0  0  0
 49117  1  0  0  0
 50 51  1  0  0  0
 50118  1  0  0  0
 50119  1  0  0  0
 51 52  1  0  0  0
 51120  1  0  0  0
 51121  1  0  0  0
 52122  1  0  0  0
 52123  1  0  0  0
 53 54  1  0  0  0
 54 55  2  0  0  0
 54124  1  0  0  0
 55 57  1  0  0  0
 55125  1  0  0  0
 56 69  2  0  0  0
 57 58  2  0  0  0
 57126  1  0  0  0
 58127  1  0  0  0
 59 60  1  0  0  0
 59 61  1  0  0  0
 59 62  1  0  0  0
 60128  1  0  0  0
 60129  1  0  0  0
 60130  1  0  0  0
 61131  1  0  0  0
 61132  1  0  0  0
 61133  1  0  0  0
 62134  1  0  0  0
 62135  1  0  0  0
 62136  1  0  0  0
 63 65  1  0  0  0
 63137  1  0  0  0
 63138  1  0  0  0
 63139  1  0  0  0
 64140  1  0  0  0
 65141  1  0  0  0
 68 81  1  0  0  0
 71 73  1  0  0  0
 71 75  1  0  0  0
 71142  1  0  0  0
 71143  1  0  0  0
 72 74  1  0  0  0
 72 75  1  0  0  0
 72144  1  0  0  0
 72145  1  0  0  0
 73 76  1  0  0  0
 73146  1  0  0  0
 73147  1  0  0  0
 74 76  1  0  0  0
 74148  1  0  0  0
 74149  1  0  0  0
 75 79  1  0  0  0
 75150  1  0  0  0
 76 82  1  0  0  0
 76151  1  0  0  0
 77 80  1  0  0  0
 77152  1  0  0  0
 77153  1  0  0  0
 77154  1  0  0  0
 78155  1  0  0  0
 78156  1  0  0  0
 78157  1  0  0  0
 78 81  1  0  0  0
 79 81  1  0  0  0
 79158  1  0  0  0
 79159  1  0  0  0
 80 81  1  0  0  0
 80160  1  0  0  0
 80161  1  0  0  0
 82162  1  0  0  0
M  ISO  4   1 100  68 101  81 101  82 100
M  END
> <chiral flag>
0

> <version>
0

> <s_m_source_file>
/data/baiqing/PycharmProjects/Reinvent-master-3.2/result/LINK_invent/BTK/process_docking_weight1_custom_sum_contain_oxygen_bond_distance_aromatic_linkinvent_7_9_3/rearranged_h_0101.sdf

> <i_m_source_file_index>
57

> <r_mmod_Potential_Energy-OPLS-2005>
973.893920898438

> <r_mmod_Stretch_Energy-OPLS-2005>
401.407684326172

> <r_mmod_Bend_Energy-OPLS-2005>
452.260894775391

> <r_mmod_Torsional_Energy-OPLS-2005>
260.143585205078

> <r_mmod_Improper_Torsional_Energy-OPLS-2005>
4.20732545852661

> <r_mmod_Van_der_Waal_Energy-OPLS-2005>
127.694953918457

> <r_mmod_Electrostatic_Energy-OPLS-2005>
-377.837310791016

> <r_mmod_Solvation_Energy-OPLS-2005>
-199.800231933594

> <b_mmod_Minimization_Converged-OPLS-2005>
0

> <r_mmod_RMS_Derivative-OPLS-2005>
3.94792890548706

$$$$
57
                    3D
 Structure written by MMmdl.
164172  0  0  1  0            999 V2000
  -30.8697  -14.4731   20.5633 C   0  0  0  0  0  0
  -30.3934  -12.3113   19.4629 C   0  0  0  0  0  0
  -29.4946  -12.4941   18.2252 C   0  0  0  0  0  0
  -28.0237  -12.3428   18.6477 C   0  0  0  0  0  0
  -27.6545  -13.2446   19.8551 C   0  0  2  0  0  0
  -28.7058  -13.1576   20.9966 C   0  0  0  0  0  0
  -25.2545  -13.8255   20.5779 C   0  0  0  0  0  0
  -24.1859  -13.0488   20.9209 C   0  0  0  0  0  0
  -24.6434  -11.6932   20.8737 C   0  0  0  0  0  0
  -23.9136  -10.4274   21.0358 C   0  0  0  0  0  0
  -24.3670   -9.4185   21.9142 C   0  0  0  0  0  0
  -23.6310   -8.2246   22.0736 C   0  0  0  0  0  0
  -22.4287   -8.0319   21.3544 C   0  0  0  0  0  0
  -21.9955   -9.0273   20.4621 C   0  0  0  0  0  0
  -22.7316  -10.2119   20.2995 C   0  0  0  0  0  0
  -21.6864   -6.0700   22.5240 C   0  0  0  0  0  0
  -21.4045   -6.5581   23.8198 C   0  0  0  0  0  0
  -21.3673   -5.6740   24.9152 C   0  0  0  0  0  0
  -21.6056   -4.3003   24.7208 C   0  0  0  0  0  0
  -21.8836   -3.8099   23.4324 C   0  0  0  0  0  0
  -21.9194   -4.6906   22.3383 C   0  0  0  0  0  0
  -22.7846  -13.5206   21.1863 C   0  0  0  0  0  0
  -22.1651   -4.2088   21.0950 F   0  0  0  0  0  0
  -21.5629   -3.4485   25.7718 F   0  0  0  0  0  0
  -30.0616  -13.3709   20.4408 N   0  0  0  0  0  0
  -26.3025  -12.9498   20.3378 N   0  0  0  0  0  0
  -25.9375  -11.6611   20.5752 N   0  0  0  0  0  0
  -22.0541  -12.8160   22.0407 N   0  0  0  0  0  0
  -25.4219  -15.2039   20.4228 N   0  0  0  0  0  0
  -31.9506  -14.5565   19.9864 O   0  0  0  0  0  0
  -21.6668   -6.8886   21.4234 O   0  0  0  0  0  0
  -22.3471  -14.5503   20.6669 O   0  0  0  0  0  0
  -24.6111  -31.8690   23.2135 C   0  0  0  0  0  0
  -25.9014  -32.4838   23.8411 C   0  0  1  0  0  0
  -27.2131  -27.4158   20.1273 C   0  0  0  0  0  0
  -25.5864  -33.8634   24.2349 N   0  0  0  0  0  0
  -23.3994  -30.4960   21.5559 C   0  0  2  0  0  0
  -24.8440  -28.9753   20.1058 C   0  0  0  0  0  0
  -22.7399  -29.4629   22.4970 C   0  0  0  0  0  0
  -18.0229  -28.1409   22.8454 C   0  0  0  0  0  0
  -24.1484  -36.7285   23.2653 C   0  0  0  0  0  0
  -25.9342  -30.8337   21.3742 C   0  0  0  0  0  0
  -26.0049  -29.4733   20.7111 C   0  0  0  0  0  0
  -27.1942  -28.7038   20.7141 C   0  0  0  0  0  0
  -26.0422  -26.9427   19.4981 C   0  0  0  0  0  0
  -24.8602  -27.7127   19.4873 C   0  0  0  0  0  0
  -23.6025  -29.8429   20.1637 C   0  0  0  0  0  0
  -25.4127  -36.3135   24.0351 C   0  0  1  0  0  0
  -20.5835  -28.3675   23.1301 C   0  0  2  0  0  0
  -20.6762  -26.9409   22.5436 C   0  0  0  0  0  0
  -19.5756  -26.6380   21.5244 C   0  0  0  0  0  0
  -18.1901  -26.7934   22.1614 C   0  0  0  0  0  0
  -19.1482  -28.8852   23.2853 C   0  0  0  0  0  0
  -18.9430  -30.1447   23.8897 C   0  0  0  0  0  0
  -17.6447  -30.6603   24.0553 C   0  0  0  0  0  0
  -25.9054  -34.9497   23.5157 C   0  0  0  0  0  0
  -16.5323  -29.9113   23.6367 C   0  0  0  0  0  0
  -16.7215  -28.6531   23.0361 C   0  0  0  0  0  0
  -26.4445  -31.6610   25.0745 C   0  0  0  0  0  0
  -25.3666  -31.3690   26.1448 C   0  0  0  0  0  0
  -27.0303  -30.3046   24.6176 C   0  0  0  0  0  0
  -27.6059  -32.4306   25.7462 C   0  0  0  0  0  0
  -27.5581  -37.1798   24.8469 C   0  0  0  0  0  0
  -21.4123  -29.3007   22.3700 N   0  0  0  0  0  0
  -26.4306  -37.3822   23.9403 N   0  0  0  0  0  0
  -24.6664  -31.0806   22.1046 N   0  0  0  0  0  0
  -23.4182  -28.8163   23.2992 O   0  0  0  0  0  0
  -28.3422  -26.6183   20.1690 O   0  0  0  0  0  0
  -26.5644  -34.8915   22.4747 O   0  0  0  0  0  0
  -23.5295  -32.1460   23.7535 O   0  0  0  0  0  0
  -29.8871  -20.5121   20.9903 C   0  0  0  0  0  0
  -31.5225  -22.2646   21.2012 C   0  0  0  0  0  0
  -30.1767  -21.8946   21.1658 C   0  0  0  0  0  0
  -30.9198  -19.5281   20.8417 C   0  0  0  0  0  0
  -32.2517  -20.0569   20.9376 C   0  0  0  0  0  0
  -33.5440  -19.2494   20.9328 C   0  0  0  0  0  0
  -31.0256  -17.7894   19.0267 C   0  0  0  0  0  0
  -29.0061  -17.8066   20.4357 C   0  0  0  0  0  0
  -29.0988  -22.9692   21.4131 C   0  0  0  0  0  0
  -29.1817  -24.2775   20.5448 C   0  0  0  0  0  0
  -31.0994  -16.8781   21.4309 C   0  0  0  0  0  0
  -28.1911  -25.4050   20.9481 C   0  0  0  0  0  0
  -30.5446  -18.0243   20.4778 C   0  0  0  0  0  0
  -32.5211  -21.3748   21.1026 N   0  0  0  0  0  0
  -30.4491  -15.5266   21.2869 N   0  0  0  0  0  0
  -31.4469  -12.2921   19.1706 H   0  0  0  0  0  0
  -30.2062  -11.3313   19.9023 H   0  0  0  0  0  0
  -29.7488  -11.7443   17.4705 H   0  0  0  0  0  0
  -29.6677  -13.4721   17.7740 H   0  0  0  0  0  0
  -27.8703  -11.2933   18.9104 H   0  0  0  0  0  0
  -27.3548  -12.5376   17.8086 H   0  0  0  0  0  0
  -27.6535  -14.2711   19.4832 H   0  0  0  0  0  0
  -28.6544  -12.1855   21.4851 H   0  0  0  0  0  0
  -28.4546  -13.8793   21.7743 H   0  0  0  0  0  0
  -25.2827   -9.5593   22.4706 H   0  0  0  0  0  0
  -23.9996   -7.4598   22.7419 H   0  0  0  0  0  0
  -21.0939   -8.8823   19.8865 H   0  0  0  0  0  0
  -22.3891  -10.9651   19.6057 H   0  0  0  0  0  0
  -21.2094   -7.6106   23.9706 H   0  0  0  0  0  0
  -21.1487   -6.0443   25.9056 H   0  0  0  0  0  0
  -22.0635   -2.7555   23.2843 H   0  0  0  0  0  0
  -22.4164  -11.9851   22.4865 H   0  0  0  0  0  0
  -21.1049  -13.0975   22.2461 H   0  0  0  0  0  0
  -24.6718  -15.8660   20.5943 H   0  0  0  0  0  0
  -26.2867  -15.6568   20.1520 H   0  0  0  0  0  0
  -26.7075  -32.5536   23.1155 H   0  0  0  0  0  0
  -24.9946  -33.9817   25.0427 H   0  0  0  0  0  0
  -22.6863  -31.3117   21.4325 H   0  0  0  0  0  0
  -23.3795  -35.9562   23.3354 H   0  0  0  0  0  0
  -24.3552  -36.8876   22.2055 H   0  0  0  0  0  0
  -23.7161  -37.6467   23.6639 H   0  0  0  0  0  0
  -26.0711  -31.6122   20.6213 H   0  0  0  0  0  0
  -26.8088  -30.8620   22.0107 H   0  0  0  0  0  0
  -28.0823  -29.0852   21.1975 H   0  0  0  0  0  0
  -26.0331  -25.9715   19.0257 H   0  0  0  0  0  0
  -23.9734  -27.3352   19.0018 H   0  0  0  0  0  0
  -23.6803  -30.6270   19.4098 H   0  0  0  0  0  0
  -22.7284  -29.2558   19.8790 H   0  0  0  0  0  0
  -25.1301  -36.2060   25.0847 H   0  0  0  0  0  0
  -20.9876  -28.3300   24.1444 H   0  0  0  0  0  0
  -20.5769  -26.2284   23.3641 H   0  0  0  0  0  0
  -21.6622  -26.7526   22.1192 H   0  0  0  0  0  0
  -19.6963  -25.6303   21.1263 H   0  0  0  0  0  0
  -19.6737  -27.3208   20.6803 H   0  0  0  0  0  0
  -17.4204  -26.6623   21.3986 H   0  0  0  0  0  0
  -18.0270  -26.0104   22.9038 H   0  0  0  0  0  0
  -19.7905  -30.7198   24.2317 H   0  0  0  0  0  0
  -17.5023  -31.6310   24.5102 H   0  0  0  0  0  0
  -15.5330  -30.3027   23.7730 H   0  0  0  0  0  0
  -15.8590  -28.0865   22.7142 H   0  0  0  0  0  0
  -24.5868  -30.7057   25.7691 H   0  0  0  0  0  0
  -24.8813  -32.2835   26.4869 H   0  0  0  0  0  0
  -25.7930  -30.8815   27.0227 H   0  0  0  0  0  0
  -26.2894  -29.6783   24.1217 H   0  0  0  0  0  0
  -27.4041  -29.7299   25.4661 H   0  0  0  0  0  0
  -27.8723  -30.4354   23.9380 H   0  0  0  0  0  0
  -27.2762  -33.3638   26.2025 H   0  0  0  0  0  0
  -28.3828  -32.6817   25.0229 H   0  0  0  0  0  0
  -28.0776  -31.8446   26.5363 H   0  0  0  0  0  0
  -28.2646  -38.0060   24.7547 H   0  0  0  0  0  0
  -28.1029  -36.2602   24.6291 H   0  0  0  0  0  0
  -27.2265  -37.1436   25.8860 H   0  0  0  0  0  0
  -20.9324  -29.8624   21.6814 H   0  0  0  0  0  0
  -26.0236  -38.2904   24.1422 H   0  0  0  0  0  0
  -28.8521  -20.2232   20.9485 H   0  0  0  0  0  0
  -31.8119  -23.2946   21.3594 H   0  0  0  0  0  0
  -33.5661  -18.4302   20.2310 H   0  0  0  0  0  0
  -33.7588  -18.8561   21.9261 H   0  0  0  0  0  0
  -34.3900  -19.8837   20.6609 H   0  0  0  0  0  0
  -30.5693  -18.4989   18.3346 H   0  0  0  0  0  0
  -30.7735  -16.7945   18.6672 H   0  0  0  0  0  0
  -32.0982  -17.9023   18.9063 H   0  0  0  0  0  0
  -28.5261  -18.3844   19.6489 H   0  0  0  0  0  0
  -28.5353  -18.0274   21.3935 H   0  0  0  0  0  0
  -28.7321  -16.7807   20.1944 H   0  0  0  0  0  0
  -29.2419  -23.2627   22.4548 H   0  0  0  0  0  0
  -28.1091  -22.5087   21.3625 H   0  0  0  0  0  0
  -29.0578  -24.0650   19.4853 H   0  0  0  0  0  0
  -30.1779  -24.7022   20.6407 H   0  0  0  0  0  0
  -30.9359  -17.1317   22.4794 H   0  0  0  0  0  0
  -32.1803  -16.7904   21.3160 H   0  0  0  0  0  0
  -28.3712  -25.6618   21.9918 H   0  0  0  0  0  0
  -27.1707  -25.0201   20.9140 H   0  0  0  0  0  0
  -29.5608  -15.4034   21.7440 H   0  0  0  0  0  0
  1 25  1  0  0  0
  1 30  2  0  0  0
  1 85  1  0  0  0
  2  3  1  0  0  0
  2 25  1  0  0  0
  2 86  1  0  0  0
  2 87  1  0  0  0
  3  4  1  0  0  0
  3 88  1  0  0  0
  3 89  1  0  0  0
  4  5  1  0  0  0
  4 90  1  0  0  0
  4 91  1  0  0  0
  5  6  1  0  0  0
  5 26  1  0  0  0
  5 92  1  0  0  0
  6 25  1  0  0  0
  6 93  1  0  0  0
  6 94  1  0  0  0
  7  8  2  0  0  0
  7 26  1  0  0  0
  7 29  1  0  0  0
  8  9  1  0  0  0
  8 22  1  0  0  0
  9 10  1  0  0  0
  9 27  2  0  0  0
 10 11  2  0  0  0
 10 15  1  0  0  0
 11 12  1  0  0  0
 11 95  1  0  0  0
 12 13  2  0  0  0
 12 96  1  0  0  0
 13 14  1  0  0  0
 13 31  1  0  0  0
 14 15  2  0  0  0
 14 97  1  0  0  0
 15 98  1  0  0  0
 16 17  2  0  0  0
 16 21  1  0  0  0
 16 31  1  0  0  0
 17 18  1  0  0  0
 17 99  1  0  0  0
 18 19  2  0  0  0
 18100  1  0  0  0
 19 20  1  0  0  0
 19 24  1  0  0  0
 20 21  2  0  0  0
 20101  1  0  0  0
 21 23  1  0  0  0
 22 28  1  0  0  0
 22 32  2  0  0  0
 26 27  1  0  0  0
 28102  1  0  0  0
 28103  1  0  0  0
 29104  1  0  0  0
 29105  1  0  0  0
 33 34  1  0  0  0
 33 66  1  0  0  0
 33 70  2  0  0  0
 34 36  1  0  0  0
 34 59  1  0  0  0
 34106  1  0  0  0
 35 44  2  0  0  0
 35 45  1  0  0  0
 35 68  1  0  0  0
 36 56  1  0  0  0
 36107  1  0  0  0
 37 39  1  0  0  0
 37 47  1  0  0  0
 37 66  1  0  0  0
 37108  1  0  0  0
 38 43  2  0  0  0
 38 46  1  0  0  0
 38 47  1  0  0  0
 39 64  1  0  0  0
 39 67  2  0  0  0
 40 52  1  0  0  0
 40 53  2  0  0  0
 40 58  1  0  0  0
 41109  1  0  0  0
 41110  1  0  0  0
 41111  1  0  0  0
 41 48  1  0  0  0
 42 43  1  0  0  0
 42 66  1  0  0  0
 42112  1  0  0  0
 42113  1  0  0  0
 43 44  1  0  0  0
 44114  1  0  0  0
 45 46  2  0  0  0
 45115  1  0  0  0
 46116  1  0  0  0
 47117  1  0  0  0
 47118  1  0  0  0
 48 56  1  0  0  0
 48 65  1  0  0  0
 48119  1  0  0  0
 49 50  1  0  0  0
 49 53  1  0  0  0
 49 64  1  0  0  0
 49120  1  0  0  0
 50 51  1  0  0  0
 50121  1  0  0  0
 50122  1  0  0  0
 51 52  1  0  0  0
 51123  1  0  0  0
 51124  1  0  0  0
 52125  1  0  0  0
 52126  1  0  0  0
 53 54  1  0  0  0
 54 55  2  0  0  0
 54127  1  0  0  0
 55 57  1  0  0  0
 55128  1  0  0  0
 56 69  2  0  0  0
 57 58  2  0  0  0
 57129  1  0  0  0
 58130  1  0  0  0
 59 60  1  0  0  0
 59 61  1  0  0  0
 59 62  1  0  0  0
 60131  1  0  0  0
 60132  1  0  0  0
 60133  1  0  0  0
 61134  1  0  0  0
 61135  1  0  0  0
 61136  1  0  0  0
 62137  1  0  0  0
 62138  1  0  0  0
 62139  1  0  0  0
 63 65  1  0  0  0
 63140  1  0  0  0
 63141  1  0  0  0
 63142  1  0  0  0
 64143  1  0  0  0
 65144  1  0  0  0
 68 82  1  0  0  0
 71 73  2  0  0  0
 71 74  1  0  0  0
 71145  1  0  0  0
 72 73  1  0  0  0
 72 84  2  0  0  0
 72146  1  0  0  0
 73 79  1  0  0  0
 74 75  2  0  0  0
 74 83  1  0  0  0
 75 76  1  0  0  0
 75 84  1  0  0  0
 76147  1  0  0  0
 76148  1  0  0  0
 76149  1  0  0  0
 77150  1  0  0  0
 77151  1  0  0  0
 77152  1  0  0  0
 77 83  1  0  0  0
 78 83  1  0  0  0
 78153  1  0  0  0
 78154  1  0  0  0
 78155  1  0  0  0
 79 80  1  0  0  0
 79156  1  0  0  0
 79157  1  0  0  0
 80 82  1  0  0  0
 80158  1  0  0  0
 80159  1  0  0  0
 81 83  1  0  0  0
 81 85  1  0  0  0
 81160  1  0  0  0
 81161  1  0  0  0
 82162  1  0  0  0
 82163  1  0  0  0
 85164  1  0  0  0
M  ISO  4   1 100  68 101  82 101  85 100
M  END
> <chiral flag>
0

> <version>
0

> <s_m_source_file>
/data/baiqing/PycharmProjects/Reinvent-master-3.2/result/LINK_invent/BTK/process_docking_weight1_custom_sum_contain_oxygen_bond_distance_aromatic_linkinvent_7_9_3/rearranged_h_0101.sdf

> <i_m_source_file_index>
58

> <r_mmod_Potential_Energy-OPLS-2005>
-178.906875610352

> <r_mmod_Stretch_Energy-OPLS-2005>
66.5646209716797

> <r_mmod_Bend_Energy-OPLS-2005>
137.388137817383

> <r_mmod_Torsional_Energy-OPLS-2005>
229.033477783203

> <r_mmod_Improper_Torsional_Energy-OPLS-2005>
2.37375068664551

> <r_mmod_Van_der_Waal_Energy-OPLS-2005>
161.156326293945

> <r_mmod_Electrostatic_Energy-OPLS-2005>
-585.193054199219

> <r_mmod_Solvation_Energy-OPLS-2005>
-219.396270751953

> <b_mmod_Minimization_Converged-OPLS-2005>
0

> <r_mmod_RMS_Derivative-OPLS-2005>
9.48149681091309

$$$$
58
                    3D
 Structure written by MMmdl.
164172  0  0  1  0            999 V2000
  -30.6636  -14.7025   20.4666 C   0  0  0  0  0  0
  -30.4224  -12.4304   19.4819 C   0  0  0  0  0  0
  -29.5079  -12.5121   18.2411 C   0  0  0  0  0  0
  -28.0347  -12.3395   18.6530 C   0  0  0  0  0  0
  -27.6439  -13.2388   19.8563 C   0  0  2  0  0  0
  -28.6887  -13.1784   20.9947 C   0  0  0  0  0  0
  -25.2530  -13.8223   20.5732 C   0  0  0  0  0  0
  -24.1822  -13.0464   20.9220 C   0  0  0  0  0  0
  -24.6418  -11.6937   20.8758 C   0  0  0  0  0  0
  -23.9090  -10.4304   21.0408 C   0  0  0  0  0  0
  -24.3632   -9.4208   21.9182 C   0  0  0  0  0  0
  -23.6301   -8.2245   22.0749 C   0  0  0  0  0  0
  -22.4286   -8.0282   21.3536 C   0  0  0  0  0  0
  -21.9921   -9.0261   20.4645 C   0  0  0  0  0  0
  -22.7259  -10.2137   20.3058 C   0  0  0  0  0  0
  -21.6857   -6.0730   22.5280 C   0  0  0  0  0  0
  -21.4017   -6.5641   23.8210 C   0  0  0  0  0  0
  -21.3663   -5.6794   24.9175 C   0  0  0  0  0  0
  -21.6042   -4.3055   24.7228 C   0  0  0  0  0  0
  -21.8820   -3.8145   23.4352 C   0  0  0  0  0  0
  -21.9195   -4.6958   22.3402 C   0  0  0  0  0  0
  -22.7834  -13.5229   21.1862 C   0  0  0  0  0  0
  -22.1666   -4.2144   21.0978 F   0  0  0  0  0  0
  -21.5619   -3.4542   25.7739 F   0  0  0  0  0  0
  -29.9983  -13.4996   20.4160 N   0  0  0  0  0  0
  -26.2967  -12.9447   20.3331 N   0  0  0  0  0  0
  -25.9357  -11.6577   20.5772 N   0  0  0  0  0  0
  -22.0485  -12.8221   22.0421 N   0  0  0  0  0  0
  -25.4202  -15.1946   20.4158 N   0  0  0  0  0  0
  -31.8422  -14.7614   20.1102 O   0  0  0  0  0  0
  -21.6650   -6.8880   21.4239 O   0  0  0  0  0  0
  -22.3517  -14.5527   20.6690 O   0  0  0  0  0  0
  -24.6297  -31.8591   23.2024 C   0  0  0  0  0  0
  -25.9138  -32.4771   23.8346 C   0  0  1  0  0  0
  -27.2111  -27.2746   20.1116 C   0  0  0  0  0  0
  -25.5945  -33.8576   24.2263 N   0  0  0  0  0  0
  -23.4223  -30.4878   21.5481 C   0  0  2  0  0  0
  -24.8655  -28.9455   20.1080 C   0  0  0  0  0  0
  -22.7485  -29.4644   22.4934 C   0  0  0  0  0  0
  -18.0288  -28.1400   22.8489 C   0  0  0  0  0  0
  -24.1497  -36.7298   23.2630 C   0  0  0  0  0  0
  -25.9698  -30.7755   21.3803 C   0  0  0  0  0  0
  -26.0400  -29.4009   20.7205 C   0  0  0  0  0  0
  -27.2129  -28.5775   20.7151 C   0  0  0  0  0  0
  -26.0094  -26.9036   19.4576 C   0  0  0  0  0  0
  -24.8570  -27.7045   19.4639 C   0  0  0  0  0  0
  -23.6353  -29.8293   20.1628 C   0  0  0  0  0  0
  -25.4118  -36.3089   24.0322 C   0  0  1  0  0  0
  -20.5892  -28.3718   23.1273 C   0  0  2  0  0  0
  -20.6781  -26.9438   22.5409 C   0  0  0  0  0  0
  -19.5753  -26.6400   21.5215 C   0  0  0  0  0  0
  -18.1933  -26.7943   22.1639 C   0  0  0  0  0  0
  -19.1541  -28.8874   23.2880 C   0  0  0  0  0  0
  -18.9463  -30.1473   23.8906 C   0  0  0  0  0  0
  -17.6463  -30.6603   24.0569 C   0  0  0  0  0  0
  -25.9056  -34.9457   23.5094 C   0  0  0  0  0  0
  -16.5349  -29.9100   23.6335 C   0  0  0  0  0  0
  -16.7273  -28.6521   23.0347 C   0  0  0  0  0  0
  -26.4503  -31.6576   25.0716 C   0  0  0  0  0  0
  -25.3717  -31.3725   26.1428 C   0  0  0  0  0  0
  -27.0321  -30.2984   24.6181 C   0  0  0  0  0  0
  -27.6062  -32.4293   25.7500 C   0  0  0  0  0  0
  -27.5583  -37.1806   24.8462 C   0  0  0  0  0  0
  -21.4197  -29.3071   22.3668 N   0  0  0  0  0  0
  -26.4294  -37.3783   23.9409 N   0  0  0  0  0  0
  -24.6934  -31.0570   22.1002 N   0  0  0  0  0  0
  -23.4190  -28.8168   23.3017 O   0  0  0  0  0  0
  -28.3084  -26.3738   20.1838 O   0  0  0  0  0  0
  -26.5626  -34.8926   22.4662 O   0  0  0  0  0  0
  -23.5457  -32.1432   23.7337 O   0  0  0  0  0  0
  -29.8300  -19.7916   19.7528 C   0  0  0  0  0  0
  -29.9219  -18.6650   20.5646 C   0  0  0  0  0  0
  -29.6600  -19.1985   21.8700 C   0  0  0  0  0  0
  -29.5018  -20.5759   21.7980 C   0  0  0  0  0  0
  -29.3305  -21.5784   22.8969 C   0  0  0  0  0  0
  -27.5679  -17.2895   23.0688 C   0  0  0  0  0  0
  -28.3038  -24.8700   18.2582 C   0  0  0  0  0  0
  -30.3866  -17.2176   20.0962 C   0  0  0  0  0  0
  -28.9261  -23.6974   20.5163 C   0  0  0  0  0  0
  -29.6766  -22.3921   19.8835 C   0  0  0  0  0  0
  -28.4468  -18.3685   23.7085 C   0  0  0  0  0  0
  -28.1286  -24.9304   19.7945 C   0  0  1  0  0  0
  -29.6037  -20.9841   20.4720 N   0  0  0  0  0  0
  -29.9568  -15.8738   20.6660 N   0  0  0  0  0  0
  -29.6910  -18.4645   23.0266 O   0  0  0  0  0  0
  -31.4679  -12.5258   19.1824 H   0  0  0  0  0  0
  -30.3398  -11.4533   19.9591 H   0  0  0  0  0  0
  -29.7847  -11.7497   17.5122 H   0  0  0  0  0  0
  -29.6415  -13.4740   17.7439 H   0  0  0  0  0  0
  -27.8915  -11.2907   18.9147 H   0  0  0  0  0  0
  -27.3779  -12.5330   17.8043 H   0  0  0  0  0  0
  -27.6383  -14.2598   19.4751 H   0  0  0  0  0  0
  -28.7098  -12.1896   21.4546 H   0  0  0  0  0  0
  -28.4331  -13.8806   21.7904 H   0  0  0  0  0  0
  -25.2775   -9.5684   22.4772 H   0  0  0  0  0  0
  -24.0002   -7.4644   22.7484 H   0  0  0  0  0  0
  -21.0838   -8.8784   19.8971 H   0  0  0  0  0  0
  -22.3707  -10.9674   19.6173 H   0  0  0  0  0  0
  -21.2017   -7.6153   23.9713 H   0  0  0  0  0  0
  -21.1482   -6.0526   25.9075 H   0  0  0  0  0  0
  -22.0598   -2.7609   23.2852 H   0  0  0  0  0  0
  -22.4098  -11.9895   22.4822 H   0  0  0  0  0  0
  -21.1102  -13.1230   22.2616 H   0  0  0  0  0  0
  -24.6496  -15.8451   20.5257 H   0  0  0  0  0  0
  -26.2670  -15.6380   20.0840 H   0  0  0  0  0  0
  -26.7190  -32.5433   23.1070 H   0  0  0  0  0  0
  -25.0067  -33.9707   25.0393 H   0  0  0  0  0  0
  -22.7188  -31.3112   21.4087 H   0  0  0  0  0  0
  -23.3761  -35.9630   23.3294 H   0  0  0  0  0  0
  -24.3580  -36.8920   22.2042 H   0  0  0  0  0  0
  -23.7251  -37.6501   23.6654 H   0  0  0  0  0  0
  -26.1028  -31.5362   20.6104 H   0  0  0  0  0  0
  -26.8511  -30.8255   22.0087 H   0  0  0  0  0  0
  -28.1089  -28.9198   21.2135 H   0  0  0  0  0  0
  -25.9028  -25.9705   18.9290 H   0  0  0  0  0  0
  -23.9628  -27.3540   18.9659 H   0  0  0  0  0  0
  -23.7552  -30.6110   19.4118 H   0  0  0  0  0  0
  -22.7517  -29.2643   19.8582 H   0  0  0  0  0  0
  -25.1302  -36.1936   25.0812 H   0  0  0  0  0  0
  -20.9987  -28.3312   24.1396 H   0  0  0  0  0  0
  -20.5701  -26.2331   23.3618 H   0  0  0  0  0  0
  -21.6643  -26.7480   22.1191 H   0  0  0  0  0  0
  -19.6918  -25.6314   21.1243 H   0  0  0  0  0  0
  -19.6681  -27.3218   20.6750 H   0  0  0  0  0  0
  -17.4197  -26.6687   21.4048 H   0  0  0  0  0  0
  -18.0348  -26.0083   22.9042 H   0  0  0  0  0  0
  -19.7931  -30.7287   24.2281 H   0  0  0  0  0  0
  -17.5013  -31.6277   24.5175 H   0  0  0  0  0  0
  -15.5354  -30.3003   23.7653 H   0  0  0  0  0  0
  -15.8676  -28.0842   22.7054 H   0  0  0  0  0  0
  -24.5924  -30.7028   25.7762 H   0  0  0  0  0  0
  -24.8857  -32.2890   26.4794 H   0  0  0  0  0  0
  -25.8036  -30.8959   27.0238 H   0  0  0  0  0  0
  -26.2890  -29.6757   24.1175 H   0  0  0  0  0  0
  -27.3967  -29.7224   25.4698 H   0  0  0  0  0  0
  -27.8804  -30.4234   23.9443 H   0  0  0  0  0  0
  -27.2680  -33.3606   26.2062 H   0  0  0  0  0  0
  -28.3904  -32.6818   25.0346 H   0  0  0  0  0  0
  -28.0694  -31.8402   26.5428 H   0  0  0  0  0  0
  -28.2598  -38.0105   24.7508 H   0  0  0  0  0  0
  -28.1088  -36.2637   24.6298 H   0  0  0  0  0  0
  -27.2298  -37.1464   25.8862 H   0  0  0  0  0  0
  -20.9378  -29.8778   21.6868 H   0  0  0  0  0  0
  -26.0185  -38.2867   24.1393 H   0  0  0  0  0  0
  -29.9884  -19.8606   18.6843 H   0  0  0  0  0  0
  -28.3105  -21.9624   22.9177 H   0  0  0  0  0  0
  -30.0073  -22.4247   22.7752 H   0  0  0  0  0  0
  -29.5436  -21.1337   23.8689 H   0  0  0  0  0  0
  -26.6322  -17.1776   23.6156 H   0  0  0  0  0  0
  -28.0710  -16.3241   23.0702 H   0  0  0  0  0  0
  -27.3218  -17.5404   22.0380 H   0  0  0  0  0  0
  -27.9639  -23.9148   17.8583 H   0  0  0  0  0  0
  -29.3483  -24.9972   17.9730 H   0  0  0  0  0  0
  -27.7469  -25.6467   17.7379 H   0  0  0  0  0  0
  -31.4753  -17.2628   20.1447 H   0  0  0  0  0  0
  -30.1631  -17.1625   19.0316 H   0  0  0  0  0  0
  -28.0931  -23.0888   20.1612 H   0  0  0  0  0  0
  -29.7783  -24.2265   20.0911 H   0  0  0  0  0  0
  -30.7532  -22.5846   19.8400 H   0  0  0  0  0  0
  -29.4008  -22.2996   18.8297 H   0  0  0  0  0  0
  -28.6452  -18.1085   24.7482 H   0  0  0  0  0  0
  -27.9175  -19.3222   23.7273 H   0  0  0  0  0  0
  -27.0851  -24.7106   20.0278 H   0  0  0  0  0  0
  -28.9955  -15.7904   20.9561 H   0  0  0  0  0  0
  1 25  1  0  0  0
  1 30  2  0  0  0
  1 84  1  0  0  0
  2  3  1  0  0  0
  2 25  1  0  0  0
  2 86  1  0  0  0
  2 87  1  0  0  0
  3  4  1  0  0  0
  3 88  1  0  0  0
  3 89  1  0  0  0
  4  5  1  0  0  0
  4 90  1  0  0  0
  4 91  1  0  0  0
  5  6  1  0  0  0
  5 26  1  0  0  0
  5 92  1  0  0  0
  6 25  1  0  0  0
  6 93  1  0  0  0
  6 94  1  0  0  0
  7  8  2  0  0  0
  7 26  1  0  0  0
  7 29  1  0  0  0
  8  9  1  0  0  0
  8 22  1  0  0  0
  9 10  1  0  0  0
  9 27  2  0  0  0
 10 11  2  0  0  0
 10 15  1  0  0  0
 11 12  1  0  0  0
 11 95  1  0  0  0
 12 13  2  0  0  0
 12 96  1  0  0  0
 13 14  1  0  0  0
 13 31  1  0  0  0
 14 15  2  0  0  0
 14 97  1  0  0  0
 15 98  1  0  0  0
 16 17  2  0  0  0
 16 21  1  0  0  0
 16 31  1  0  0  0
 17 18  1  0  0  0
 17 99  1  0  0  0
 18 19  2  0  0  0
 18100  1  0  0  0
 19 20  1  0  0  0
 19 24  1  0  0  0
 20 21  2  0  0  0
 20101  1  0  0  0
 21 23  1  0  0  0
 22 28  1  0  0  0
 22 32  2  0  0  0
 26 27  1  0  0  0
 28102  1  0  0  0
 28103  1  0  0  0
 29104  1  0  0  0
 29105  1  0  0  0
 33 34  1  0  0  0
 33 66  1  0  0  0
 33 70  2  0  0  0
 34 36  1  0  0  0
 34 59  1  0  0  0
 34106  1  0  0  0
 35 44  2  0  0  0
 35 45  1  0  0  0
 35 68  1  0  0  0
 36 56  1  0  0  0
 36107  1  0  0  0
 37 39  1  0  0  0
 37 47  1  0  0  0
 37 66  1  0  0  0
 37108  1  0  0  0
 38 43  2  0  0  0
 38 46  1  0  0  0
 38 47  1  0  0  0
 39 64  1  0  0  0
 39 67  2  0  0  0
 40 52  1  0  0  0
 40 53  2  0  0  0
 40 58  1  0  0  0
 41109  1  0  0  0
 41110  1  0  0  0
 41111  1  0  0  0
 41 48  1  0  0  0
 42 43  1  0  0  0
 42 66  1  0  0  0
 42112  1  0  0  0
 42113  1  0  0  0
 43 44  1  0  0  0
 44114  1  0  0  0
 45 46  2  0  0  0
 45115  1  0  0  0
 46116  1  0  0  0
 47117  1  0  0  0
 47118  1  0  0  0
 48 56  1  0  0  0
 48 65  1  0  0  0
 48119  1  0  0  0
 49 50  1  0  0  0
 49 53  1  0  0  0
 49 64  1  0  0  0
 49120  1  0  0  0
 50 51  1  0  0  0
 50121  1  0  0  0
 50122  1  0  0  0
 51 52  1  0  0  0
 51123  1  0  0  0
 51124  1  0  0  0
 52125  1  0  0  0
 52126  1  0  0  0
 53 54  1  0  0  0
 54 55  2  0  0  0
 54127  1  0  0  0
 55 57  1  0  0  0
 55128  1  0  0  0
 56 69  2  0  0  0
 57 58  2  0  0  0
 57129  1  0  0  0
 58130  1  0  0  0
 59 60  1  0  0  0
 59 61  1  0  0  0
 59 62  1  0  0  0
 60131  1  0  0  0
 60132  1  0  0  0
 60133  1  0  0  0
 61134  1  0  0  0
 61135  1  0  0  0
 61136  1  0  0  0
 62137  1  0  0  0
 62138  1  0  0  0
 62139  1  0  0  0
 63 65  1  0  0  0
 63140  1  0  0  0
 63141  1  0  0  0
 63142  1  0  0  0
 64143  1  0  0  0
 65144  1  0  0  0
 68 82  1  0  0  0
 71 72  2  0  0  0
 71 83  1  0  0  0
 71145  1  0  0  0
 72 73  1  0  0  0
 72 78  1  0  0  0
 73 74  2  0  0  0
 73 85  1  0  0  0
 74 75  1  0  0  0
 74 83  1  0  0  0
 75146  1  0  0  0
 75147  1  0  0  0
 75148  1  0  0  0
 76 81  1  0  0  0
 76149  1  0  0  0
 76150  1  0  0  0
 76151  1  0  0  0
 77152  1  0  0  0
 77153  1  0  0  0
 77154  1  0  0  0
 77 82  1  0  0  0
 78 84  1  0  0  0
 78155  1  0  0  0
 78156  1  0  0  0
 79 80  1  0  0  0
 79 82  1  0  0  0
 79157  1  0  0  0
 79158  1  0  0  0
 80 83  1  0  0  0
 80159  1  0  0  0
 80160  1  0  0  0
 81 85  1  0  0  0
 81161  1  0  0  0
 81162  1  0  0  0
 82163  1  0  0  0
 84164  1  0  0  0
M  ISO  4   1 100  68 101  82 101  84 100
M  END
> <chiral flag>
0

> <version>
0

> <s_m_source_file>
/data/baiqing/PycharmProjects/Reinvent-master-3.2/result/LINK_invent/BTK/process_docking_weight1_custom_sum_contain_oxygen_bond_distance_aromatic_linkinvent_7_9_3/rearranged_h_0101.sdf

> <i_m_source_file_index>
59

> <r_mmod_Potential_Energy-OPLS-2005>
325.269622802734

> <r_mmod_Stretch_Energy-OPLS-2005>
117.051231384277

> <r_mmod_Bend_Energy-OPLS-2005>
409.666229248047

> <r_mmod_Torsional_Energy-OPLS-2005>
242.439544677734

> <r_mmod_Improper_Torsional_Energy-OPLS-2005>
9.03899955749512

> <r_mmod_Van_der_Waal_Energy-OPLS-2005>
137.839157104492

> <r_mmod_Electrostatic_Energy-OPLS-2005>
-446.124450683594

> <r_mmod_Solvation_Energy-OPLS-2005>
-219.264053344727

> <b_mmod_Minimization_Converged-OPLS-2005>
0

> <r_mmod_RMS_Derivative-OPLS-2005>
2.09300589561462

$$$$
59
                    3D
 Structure written by MMmdl.
159167  0  0  1  0            999 V2000
  -30.5307  -15.0248   20.4089 C   0  0  0  0  0  0
  -30.4539  -12.6390   19.5215 C   0  0  0  0  0  0
  -29.5631  -12.5400   18.2626 C   0  0  0  0  0  0
  -28.0607  -12.3854   18.6269 C   0  0  0  0  0  0
  -27.6370  -13.2811   19.8325 C   0  0  2  0  0  0
  -28.6750  -13.3201   20.9748 C   0  0  0  0  0  0
  -25.2531  -13.8220   20.5681 C   0  0  0  0  0  0
  -24.1872  -13.0347   20.9252 C   0  0  0  0  0  0
  -24.6563  -11.6882   20.8728 C   0  0  0  0  0  0
  -23.9246  -10.4217   21.0320 C   0  0  0  0  0  0
  -24.3750   -9.4121   21.9090 C   0  0  0  0  0  0
  -23.6407   -8.2160   22.0661 C   0  0  0  0  0  0
  -22.4351   -8.0231   21.3489 C   0  0  0  0  0  0
  -22.0032   -9.0211   20.4568 C   0  0  0  0  0  0
  -22.7387  -10.2085   20.3004 C   0  0  0  0  0  0
  -21.6858   -6.0753   22.5299 C   0  0  0  0  0  0
  -21.3980   -6.5660   23.8229 C   0  0  0  0  0  0
  -21.3722   -5.6828   24.9220 C   0  0  0  0  0  0
  -21.6113   -4.3066   24.7237 C   0  0  0  0  0  0
  -21.8834   -3.8149   23.4359 C   0  0  0  0  0  0
  -21.9214   -4.7005   22.3431 C   0  0  0  0  0  0
  -22.7864  -13.5088   21.1878 C   0  0  0  0  0  0
  -22.1649   -4.2152   21.0986 F   0  0  0  0  0  0
  -21.5674   -3.4570   25.7754 F   0  0  0  0  0  0
  -29.9411  -13.7542   20.3642 N   0  0  0  0  0  0
  -26.3051  -12.9526   20.3279 N   0  0  0  0  0  0
  -25.9526  -11.6575   20.5765 N   0  0  0  0  0  0
  -22.0628  -12.7951   22.0477 N   0  0  0  0  0  0
  -25.3933  -15.1941   20.3894 N   0  0  0  0  0  0
  -31.7430  -15.0761   20.1630 O   0  0  0  0  0  0
  -21.6621   -6.8906   21.4238 O   0  0  0  0  0  0
  -22.3498  -14.5343   20.6698 O   0  0  0  0  0  0
  -24.6504  -31.8417   23.1851 C   0  0  0  0  0  0
  -25.9228  -32.4646   23.8277 C   0  0  1  0  0  0
  -27.2121  -27.1284   20.1459 C   0  0  0  0  0  0
  -25.5973  -33.8472   24.2176 N   0  0  0  0  0  0
  -23.4521  -30.4583   21.5317 C   0  0  2  0  0  0
  -24.8962  -28.8854   20.1130 C   0  0  0  0  0  0
  -22.7626  -29.4518   22.4877 C   0  0  0  0  0  0
  -18.0295  -28.1428   22.8465 C   0  0  0  0  0  0
  -24.1465  -36.7272   23.2653 C   0  0  0  0  0  0
  -26.0078  -30.7111   21.3848 C   0  0  0  0  0  0
  -26.0764  -29.3221   20.7294 C   0  0  0  0  0  0
  -27.2381  -28.4641   20.7192 C   0  0  0  0  0  0
  -26.0070  -26.7852   19.5006 C   0  0  0  0  0  0
  -24.8768  -27.6307   19.4804 C   0  0  0  0  0  0
  -23.6808  -29.7973   20.1489 C   0  0  0  0  0  0
  -25.4105  -36.3029   24.0335 C   0  0  1  0  0  0
  -20.5916  -28.3752   23.1250 C   0  0  2  0  0  0
  -20.6778  -26.9457   22.5429 C   0  0  0  0  0  0
  -19.5756  -26.6382   21.5241 C   0  0  0  0  0  0
  -18.1920  -26.7963   22.1613 C   0  0  0  0  0  0
  -19.1554  -28.8926   23.2815 C   0  0  0  0  0  0
  -18.9455  -30.1509   23.8864 C   0  0  0  0  0  0
  -17.6451  -30.6609   24.0585 C   0  0  0  0  0  0
  -25.9086  -34.9403   23.5064 C   0  0  0  0  0  0
  -16.5343  -29.9127   23.6326 C   0  0  0  0  0  0
  -16.7272  -28.6554   23.0321 C   0  0  0  0  0  0
  -26.4553  -31.6541   25.0735 C   0  0  0  0  0  0
  -25.3702  -31.3761   26.1392 C   0  0  0  0  0  0
  -27.0418  -30.2941   24.6315 C   0  0  0  0  0  0
  -27.6053  -32.4348   25.7520 C   0  0  0  0  0  0
  -27.5559  -37.1812   24.8472 C   0  0  0  0  0  0
  -21.4326  -29.3037   22.3621 N   0  0  0  0  0  0
  -26.4270  -37.3754   23.9414 N   0  0  0  0  0  0
  -24.7245  -31.0275   22.0863 N   0  0  0  0  0  0
  -23.4314  -28.8105   23.3018 O   0  0  0  0  0  0
  -28.2728  -26.1524   20.1627 O   0  0  0  0  0  0
  -26.5672  -34.8890   22.4638 O   0  0  0  0  0  0
  -23.5608  -32.1305   23.7039 O   0  0  0  0  0  0
  -27.7332  -18.9114   20.4890 C   0  0  0  0  0  0
  -27.2097  -21.3299   20.2080 C   0  0  0  0  0  0
  -29.4897  -20.5447   20.1325 C   0  0  0  0  0  0
  -26.7996  -19.9831   20.3980 C   0  0  0  0  0  0
  -29.1248  -19.1078   20.3211 C   0  0  0  0  0  0
  -28.5615  -21.7079   20.0812 C   0  0  0  0  0  0
  -25.3144  -19.6649   20.3801 C   0  0  0  0  0  0
  -29.0239  -22.4486   17.1713 C   0  0  0  0  0  0
  -30.1272  -17.7729   20.3039 C   0  0  0  0  0  0
  -28.5658  -23.5239   18.1844 C   0  0  0  0  0  0
  -28.0311  -24.6313   20.4266 C   0  0  0  0  0  0
  -28.8260  -23.3110   19.7093 C   0  0  1  0  0  0
  -29.7556  -16.2260   20.4924 N   0  0  0  0  0  0
  -31.4808  -12.8243   19.2102 H   0  0  0  0  0  0
  -30.4767  -11.7013   20.0825 H   0  0  0  0  0  0
  -29.9047  -11.7089   17.6422 H   0  0  0  0  0  0
  -29.7093  -13.4405   17.6612 H   0  0  0  0  0  0
  -27.8683  -11.3377   18.8476 H   0  0  0  0  0  0
  -27.4411  -12.6306   17.7643 H   0  0  0  0  0  0
  -27.5935  -14.2956   19.4324 H   0  0  0  0  0  0
  -28.7540  -12.3473   21.4599 H   0  0  0  0  0  0
  -28.3744  -14.0234   21.7522 H   0  0  0  0  0  0
  -25.2923   -9.5572   22.4653 H   0  0  0  0  0  0
  -24.0131   -7.4585   22.7353 H   0  0  0  0  0  0
  -21.0993   -8.8746   19.8894 H   0  0  0  0  0  0
  -22.3806  -10.9596   19.6118 H   0  0  0  0  0  0
  -21.1753   -7.6113   23.9762 H   0  0  0  0  0  0
  -21.1619   -6.0480   25.9167 H   0  0  0  0  0  0
  -22.0521   -2.7588   23.2850 H   0  0  0  0  0  0
  -22.4347  -11.9562   22.4783 H   0  0  0  0  0  0
  -21.1210  -13.0736   22.2794 H   0  0  0  0  0  0
  -24.5459  -15.7461   20.3516 H   0  0  0  0  0  0
  -26.1565  -15.6056   19.8712 H   0  0  0  0  0  0
  -26.7315  -32.5218   23.1019 H   0  0  0  0  0  0
  -25.0100  -33.9614   25.0320 H   0  0  0  0  0  0
  -22.7521  -31.2807   21.3823 H   0  0  0  0  0  0
  -23.3701  -35.9622   23.3331 H   0  0  0  0  0  0
  -24.3558  -36.8892   22.2058 H   0  0  0  0  0  0
  -23.7216  -37.6491   23.6675 H   0  0  0  0  0  0
  -26.1652  -31.4679   20.6180 H   0  0  0  0  0  0
  -26.8849  -30.7710   22.0204 H   0  0  0  0  0  0
  -28.1415  -28.8004   21.2096 H   0  0  0  0  0  0
  -25.9026  -25.8270   19.0101 H   0  0  0  0  0  0
  -23.9946  -27.3053   18.9524 H   0  0  0  0  0  0
  -23.8228  -30.5781   19.3989 H   0  0  0  0  0  0
  -22.7959  -29.2457   19.8300 H   0  0  0  0  0  0
  -25.1252  -36.1908   25.0838 H   0  0  0  0  0  0
  -20.9915  -28.3327   24.1410 H   0  0  0  0  0  0
  -20.5671  -26.2374   23.3634 H   0  0  0  0  0  0
  -21.6632  -26.7444   22.1217 H   0  0  0  0  0  0
  -19.6906  -25.6286   21.1288 H   0  0  0  0  0  0
  -19.6702  -27.3171   20.6750 H   0  0  0  0  0  0
  -17.4187  -26.6702   21.3997 H   0  0  0  0  0  0
  -18.0304  -26.0141   22.9035 H   0  0  0  0  0  0
  -19.7923  -30.7324   24.2226 H   0  0  0  0  0  0
  -17.4998  -31.6269   24.5213 H   0  0  0  0  0  0
  -15.5347  -30.3008   23.7678 H   0  0  0  0  0  0
  -15.8657  -28.0874   22.7025 H   0  0  0  0  0  0
  -24.5915  -30.7073   25.7712 H   0  0  0  0  0  0
  -24.8841  -32.2931   26.4738 H   0  0  0  0  0  0
  -25.7960  -30.9006   27.0229 H   0  0  0  0  0  0
  -26.3029  -29.6643   24.1333 H   0  0  0  0  0  0
  -27.4043  -29.7277   25.4911 H   0  0  0  0  0  0
  -27.8923  -30.4193   23.9597 H   0  0  0  0  0  0
  -27.2620  -33.3684   26.1997 H   0  0  0  0  0  0
  -28.3872  -32.6879   25.0340 H   0  0  0  0  0  0
  -28.0674  -31.8547   26.5522 H   0  0  0  0  0  0
  -28.2587  -38.0098   24.7470 H   0  0  0  0  0  0
  -28.1030  -36.2634   24.6303 H   0  0  0  0  0  0
  -27.2299  -37.1438   25.8885 H   0  0  0  0  0  0
  -20.9613  -29.8771   21.6764 H   0  0  0  0  0  0
  -26.0136  -38.2836   24.1394 H   0  0  0  0  0  0
  -27.3631  -17.9126   20.6586 H   0  0  0  0  0  0
  -26.4555  -22.0981   20.0923 H   0  0  0  0  0  0
  -30.5473  -20.7557   19.9787 H   0  0  0  0  0  0
  -24.9383  -19.8144   19.3732 H   0  0  0  0  0  0
  -24.7300  -20.2945   21.0508 H   0  0  0  0  0  0
  -25.1197  -18.6366   20.6676 H   0  0  0  0  0  0
  -28.7472  -21.4364   17.4518 H   0  0  0  0  0  0
  -30.1017  -22.4713   17.0250 H   0  0  0  0  0  0
  -28.5536  -22.6249   16.2047 H   0  0  0  0  0  0
  -30.9155  -17.9947   21.0282 H   0  0  0  0  0  0
  -30.6444  -17.8174   19.3425 H   0  0  0  0  0  0
  -27.4842  -23.6263   18.0660 H   0  0  0  0  0  0
  -28.9828  -24.4862   17.8758 H   0  0  0  0  0  0
  -28.1537  -24.5280   21.5080 H   0  0  0  0  0  0
  -26.9623  -24.4492   20.3136 H   0  0  0  0  0  0
  -29.8903  -23.4667   19.8936 H   0  0  0  0  0  0
  -28.7695  -16.0647   20.6288 H   0  0  0  0  0  0
  1 25  1  0  0  0
  1 30  2  0  0  0
  1 83  1  0  0  0
  2  3  1  0  0  0
  2 25  1  0  0  0
  2 84  1  0  0  0
  2 85  1  0  0  0
  3  4  1  0  0  0
  3 86  1  0  0  0
  3 87  1  0  0  0
  4  5  1  0  0  0
  4 88  1  0  0  0
  4 89  1  0  0  0
  5  6  1  0  0  0
  5 26  1  0  0  0
  5 90  1  0  0  0
  6 25  1  0  0  0
  6 91  1  0  0  0
  6 92  1  0  0  0
  7  8  2  0  0  0
  7 26  1  0  0  0
  7 29  1  0  0  0
  8  9  1  0  0  0
  8 22  1  0  0  0
  9 10  1  0  0  0
  9 27  2  0  0  0
 10 11  2  0  0  0
 10 15  1  0  0  0
 11 12  1  0  0  0
 11 93  1  0  0  0
 12 13  2  0  0  0
 12 94  1  0  0  0
 13 14  1  0  0  0
 13 31  1  0  0  0
 14 15  2  0  0  0
 14 95  1  0  0  0
 15 96  1  0  0  0
 16 17  2  0  0  0
 16 21  1  0  0  0
 16 31  1  0  0  0
 17 18  1  0  0  0
 17 97  1  0  0  0
 18 19  2  0  0  0
 18 98  1  0  0  0
 19 20  1  0  0  0
 19 24  1  0  0  0
 20 21  2  0  0  0
 20 99  1  0  0  0
 21 23  1  0  0  0
 22 28  1  0  0  0
 22 32  2  0  0  0
 26 27  1  0  0  0
 28100  1  0  0  0
 28101  1  0  0  0
 29102  1  0  0  0
 29103  1  0  0  0
 33 34  1  0  0  0
 33 66  1  0  0  0
 33 70  2  0  0  0
 34 36  1  0  0  0
 34 59  1  0  0  0
 34104  1  0  0  0
 35 44  2  0  0  0
 35 45  1  0  0  0
 35 68  1  0  0  0
 36 56  1  0  0  0
 36105  1  0  0  0
 37 39  1  0  0  0
 37 47  1  0  0  0
 37 66  1  0  0  0
 37106  1  0  0  0
 38 43  2  0  0  0
 38 46  1  0  0  0
 38 47  1  0  0  0
 39 64  1  0  0  0
 39 67  2  0  0  0
 40 52  1  0  0  0
 40 53  2  0  0  0
 40 58  1  0  0  0
 41107  1  0  0  0
 41108  1  0  0  0
 41109  1  0  0  0
 41 48  1  0  0  0
 42 43  1  0  0  0
 42 66  1  0  0  0
 42110  1  0  0  0
 42111  1  0  0  0
 43 44  1  0  0  0
 44112  1  0  0  0
 45 46  2  0  0  0
 45113  1  0  0  0
 46114  1  0  0  0
 47115  1  0  0  0
 47116  1  0  0  0
 48 56  1  0  0  0
 48 65  1  0  0  0
 48117  1  0  0  0
 49 50  1  0  0  0
 49 53  1  0  0  0
 49 64  1  0  0  0
 49118  1  0  0  0
 50 51  1  0  0  0
 50119  1  0  0  0
 50120  1  0  0  0
 51 52  1  0  0  0
 51121  1  0  0  0
 51122  1  0  0  0
 52123  1  0  0  0
 52124  1  0  0  0
 53 54  1  0  0  0
 54 55  2  0  0  0
 54125  1  0  0  0
 55 57  1  0  0  0
 55126  1  0  0  0
 56 69  2  0  0  0
 57 58  2  0  0  0
 57127  1  0  0  0
 58128  1  0  0  0
 59 60  1  0  0  0
 59 61  1  0  0  0
 59 62  1  0  0  0
 60129  1  0  0  0
 60130  1  0  0  0
 60131  1  0  0  0
 61132  1  0  0  0
 61133  1  0  0  0
 61134  1  0  0  0
 62135  1  0  0  0
 62136  1  0  0  0
 62137  1  0  0  0
 63 65  1  0  0  0
 63138  1  0  0  0
 63139  1  0  0  0
 63140  1  0  0  0
 64141  1  0  0  0
 65142  1  0  0  0
 68 81  1  0  0  0
 71 74  2  0  0  0
 71 75  1  0  0  0
 71143  1  0  0  0
 72 74  1  0  0  0
 72 76  2  0  0  0
 72144  1  0  0  0
 73 75  2  0  0  0
 73 76  1  0  0  0
 73145  1  0  0  0
 74 77  1  0  0  0
 75 79  1  0  0  0
 76 82  1  0  0  0
 77146  1  0  0  0
 77147  1  0  0  0
 77148  1  0  0  0
 78 80  1  0  0  0
 78149  1  0  0  0
 78150  1  0  0  0
 78151  1  0  0  0
 79 83  1  0  0  0
 79152  1  0  0  0
 79153  1  0  0  0
 80154  1  0  0  0
 80155  1  0  0  0
 80 82  1  0  0  0
 81 82  1  0  0  0
 81156  1  0  0  0
 81157  1  0  0  0
 82158  1  0  0  0
 83159  1  0  0  0
M  ISO  4   1 100  68 101  81 101  83 100
M  END
> <chiral flag>
0

> <version>
0

> <s_m_source_file>
/data/baiqing/PycharmProjects/Reinvent-master-3.2/result/LINK_invent/BTK/process_docking_weight1_custom_sum_contain_oxygen_bond_distance_aromatic_linkinvent_7_9_3/rearranged_h_0101.sdf

> <i_m_source_file_index>
60

> <r_mmod_Potential_Energy-OPLS-2005>
528.518798828125

> <r_mmod_Stretch_Energy-OPLS-2005>
284.719573974609

> <r_mmod_Bend_Energy-OPLS-2005>
259.219940185547

> <r_mmod_Torsional_Energy-OPLS-2005>
225.016693115234

> <r_mmod_Improper_Torsional_Energy-OPLS-2005>
8.38798141479492

> <r_mmod_Van_der_Waal_Energy-OPLS-2005>
120.926856994629

> <r_mmod_Electrostatic_Energy-OPLS-2005>
-391.516906738281

> <r_mmod_Solvation_Energy-OPLS-2005>
-201.982574462891

> <b_mmod_Minimization_Converged-OPLS-2005>
0

> <r_mmod_RMS_Derivative-OPLS-2005>
13.6862926483154

$$$$
60
                    3D
 Structure written by MMmdl.
166174  0  0  1  0            999 V2000
  -30.6154  -14.7222   20.4598 C   0  0  0  0  0  0
  -30.4327  -12.4354   19.4776 C   0  0  0  0  0  0
  -29.5109  -12.4980   18.2389 C   0  0  0  0  0  0
  -28.0382  -12.3187   18.6547 C   0  0  0  0  0  0
  -27.6439  -13.2250   19.8514 C   0  0  2  0  0  0
  -28.6865  -13.1503   20.9893 C   0  0  0  0  0  0
  -25.2519  -13.8179   20.5680 C   0  0  0  0  0  0
  -24.1800  -13.0435   20.9191 C   0  0  0  0  0  0
  -24.6382  -11.6912   20.8737 C   0  0  0  0  0  0
  -23.9054  -10.4291   21.0398 C   0  0  0  0  0  0
  -24.3609   -9.4210   21.9177 C   0  0  0  0  0  0
  -23.6291   -8.2242   22.0751 C   0  0  0  0  0  0
  -22.4273   -8.0273   21.3543 C   0  0  0  0  0  0
  -21.9904   -9.0242   20.4644 C   0  0  0  0  0  0
  -22.7225  -10.2127   20.3051 C   0  0  0  0  0  0
  -21.6850   -6.0731   22.5281 C   0  0  0  0  0  0
  -21.4012   -6.5637   23.8214 C   0  0  0  0  0  0
  -21.3661   -5.6792   24.9178 C   0  0  0  0  0  0
  -21.6043   -4.3053   24.7232 C   0  0  0  0  0  0
  -21.8818   -3.8144   23.4353 C   0  0  0  0  0  0
  -21.9196   -4.6959   22.3408 C   0  0  0  0  0  0
  -22.7829  -13.5222   21.1862 C   0  0  0  0  0  0
  -22.1661   -4.2145   21.0985 F   0  0  0  0  0  0
  -21.5634   -3.4537   25.7745 F   0  0  0  0  0  0
  -29.9931  -13.4953   20.4142 N   0  0  0  0  0  0
  -26.2943  -12.9377   20.3274 N   0  0  0  0  0  0
  -25.9311  -11.6525   20.5740 N   0  0  0  0  0  0
  -22.0480  -12.8212   22.0424 N   0  0  0  0  0  0
  -25.4207  -15.1901   20.4094 N   0  0  0  0  0  0
  -31.7945  -14.8317   20.1147 O   0  0  0  0  0  0
  -21.6639   -6.8871   21.4242 O   0  0  0  0  0  0
  -22.3516  -14.5532   20.6715 O   0  0  0  0  0  0
  -24.6315  -31.8555   23.1981 C   0  0  0  0  0  0
  -25.9156  -32.4729   23.8316 C   0  0  1  0  0  0
  -27.2157  -27.2664   20.1214 C   0  0  0  0  0  0
  -25.5959  -33.8533   24.2242 N   0  0  0  0  0  0
  -23.4244  -30.4791   21.5421 C   0  0  2  0  0  0
  -24.8695  -28.9286   20.1061 C   0  0  0  0  0  0
  -22.7494  -29.4607   22.4922 C   0  0  0  0  0  0
  -18.0296  -28.1361   22.8480 C   0  0  0  0  0  0
  -24.1489  -36.7284   23.2634 C   0  0  0  0  0  0
  -25.9698  -30.7692   21.3769 C   0  0  0  0  0  0
  -26.0418  -29.3937   20.7170 C   0  0  0  0  0  0
  -27.2159  -28.5750   20.7141 C   0  0  0  0  0  0
  -26.0192  -26.8717   19.4793 C   0  0  0  0  0  0
  -24.8646  -27.6757   19.4770 C   0  0  0  0  0  0
  -23.6395  -29.8140   20.1575 C   0  0  0  0  0  0
  -25.4114  -36.3043   24.0316 C   0  0  1  0  0  0
  -20.5902  -28.3678   23.1257 C   0  0  2  0  0  0
  -20.6779  -26.9393   22.5394 C   0  0  0  0  0  0
  -19.5755  -26.6369   21.5195 C   0  0  0  0  0  0
  -18.1938  -26.7907   22.1611 C   0  0  0  0  0  0
  -19.1554  -28.8840   23.2852 C   0  0  0  0  0  0
  -18.9478  -30.1447   23.8857 C   0  0  0  0  0  0
  -17.6477  -30.6563   24.0563 C   0  0  0  0  0  0
  -25.9060  -34.9421   23.5069 C   0  0  0  0  0  0
  -16.5366  -29.9062   23.6327 C   0  0  0  0  0  0
  -16.7282  -28.6483   23.0336 C   0  0  0  0  0  0
  -26.4523  -31.6555   25.0708 C   0  0  0  0  0  0
  -25.3743  -31.3724   26.1434 C   0  0  0  0  0  0
  -27.0379  -30.2960   24.6212 C   0  0  0  0  0  0
  -27.6052  -32.4316   25.7493 C   0  0  0  0  0  0
  -27.5567  -37.1786   24.8458 C   0  0  0  0  0  0
  -21.4205  -29.3040   22.3661 N   0  0  0  0  0  0
  -26.4275  -37.3754   23.9414 N   0  0  0  0  0  0
  -24.6943  -31.0529   22.0952 N   0  0  0  0  0  0
  -23.4198  -28.8144   23.3006 O   0  0  0  0  0  0
  -28.3106  -26.3728   20.1890 O   0  0  0  0  0  0
  -26.5625  -34.8905   22.4637 O   0  0  0  0  0  0
  -23.5472  -32.1394   23.7289 O   0  0  0  0  0  0
  -29.2221  -21.1726   20.8744 C   0  0  0  0  0  0
  -29.1363  -19.9597   20.1837 C   0  0  0  0  0  0
  -28.9303  -20.3804   18.8261 C   0  0  0  0  0  0
  -28.9033  -21.7634   18.7635 C   0  0  0  0  0  0
  -28.7355  -22.6362   17.5569 C   0  0  0  0  0  0
  -27.2442  -18.7748   15.7038 C   0  0  0  0  0  0
  -26.3544  -18.6924   18.0646 C   0  0  0  0  0  0
  -29.0967  -18.4565   20.7357 C   0  0  0  0  0  0
  -28.7507  -19.4628   17.6324 C   0  0  0  0  0  0
  -29.1745  -23.7950   20.4111 C   0  0  0  0  0  0
  -30.1771  -17.3114   20.3623 C   0  0  0  0  0  0
  -28.0864  -24.9026   19.9542 C   0  0  0  0  0  0
  -27.3033  -19.4173   17.0979 C   0  0  0  0  0  0
  -29.0539  -22.3076   20.0364 N   0  0  0  0  0  0
  -29.8420  -15.8500   20.6724 N   0  0  0  0  0  0
  -31.4753  -12.5526   19.1780 H   0  0  0  0  0  0
  -30.3711  -11.4563   19.9552 H   0  0  0  0  0  0
  -29.7927  -11.7282   17.5188 H   0  0  0  0  0  0
  -29.6365  -13.4557   17.7301 H   0  0  0  0  0  0
  -27.9042  -11.2714   18.9282 H   0  0  0  0  0  0
  -27.3772  -12.4962   17.8056 H   0  0  0  0  0  0
  -27.6422  -14.2453   19.4679 H   0  0  0  0  0  0
  -28.7144  -12.1488   21.4225 H   0  0  0  0  0  0
  -28.4227  -13.8271   21.8033 H   0  0  0  0  0  0
  -25.2752   -9.5696   22.4754 H   0  0  0  0  0  0
  -24.0008   -7.4635   22.7468 H   0  0  0  0  0  0
  -21.0838   -8.8747   19.8949 H   0  0  0  0  0  0
  -22.3670  -10.9660   19.6162 H   0  0  0  0  0  0
  -21.1994   -7.6143   23.9716 H   0  0  0  0  0  0
  -21.1485   -6.0521   25.9081 H   0  0  0  0  0  0
  -22.0597   -2.7607   23.2853 H   0  0  0  0  0  0
  -22.4107  -11.9874   22.4803 H   0  0  0  0  0  0
  -21.1099  -13.1231   22.2640 H   0  0  0  0  0  0
  -24.6451  -15.8361   20.5040 H   0  0  0  0  0  0
  -26.2633  -15.6312   20.0650 H   0  0  0  0  0  0
  -26.7216  -32.5372   23.1046 H   0  0  0  0  0  0
  -25.0103  -33.9652   25.0386 H   0  0  0  0  0  0
  -22.7201  -31.3013   21.3973 H   0  0  0  0  0  0
  -23.3728  -35.9630   23.3288 H   0  0  0  0  0  0
  -24.3576  -36.8933   22.2046 H   0  0  0  0  0  0
  -23.7267  -37.6494   23.6679 H   0  0  0  0  0  0
  -26.1101  -31.5321   20.6097 H   0  0  0  0  0  0
  -26.8472  -30.8154   22.0099 H   0  0  0  0  0  0
  -28.1104  -28.9255   21.2106 H   0  0  0  0  0  0
  -25.9409  -25.9159   18.9840 H   0  0  0  0  0  0
  -23.9689  -27.3146   18.9898 H   0  0  0  0  0  0
  -23.7571  -30.5919   19.4022 H   0  0  0  0  0  0
  -22.7571  -29.2463   19.8551 H   0  0  0  0  0  0
  -25.1286  -36.1874   25.0803 H   0  0  0  0  0  0
  -20.9982  -28.3258   24.1385 H   0  0  0  0  0  0
  -20.5670  -26.2290   23.3596 H   0  0  0  0  0  0
  -21.6645  -26.7407   22.1193 H   0  0  0  0  0  0
  -19.6918  -25.6281   21.1223 H   0  0  0  0  0  0
  -19.6689  -27.3178   20.6723 H   0  0  0  0  0  0
  -17.4204  -26.6648   21.4017 H   0  0  0  0  0  0
  -18.0347  -26.0035   22.8995 H   0  0  0  0  0  0
  -19.7958  -30.7274   24.2189 H   0  0  0  0  0  0
  -17.5035  -31.6238   24.5170 H   0  0  0  0  0  0
  -15.5366  -30.2950   23.7669 H   0  0  0  0  0  0
  -15.8684  -28.0799   22.7044 H   0  0  0  0  0  0
  -24.5907  -30.7070   25.7792 H   0  0  0  0  0  0
  -24.8944  -32.2898   26.4834 H   0  0  0  0  0  0
  -25.8065  -30.8932   27.0223 H   0  0  0  0  0  0
  -26.2977  -29.6683   24.1231 H   0  0  0  0  0  0
  -27.4049  -29.7238   25.4747 H   0  0  0  0  0  0
  -27.8853  -30.4212   23.9468 H   0  0  0  0  0  0
  -27.2623  -33.3614   26.2042 H   0  0  0  0  0  0
  -28.3881  -32.6891   25.0346 H   0  0  0  0  0  0
  -28.0697  -31.8472   26.5441 H   0  0  0  0  0  0
  -28.2561  -38.0103   24.7515 H   0  0  0  0  0  0
  -28.1089  -36.2632   24.6266 H   0  0  0  0  0  0
  -27.2294  -37.1423   25.8863 H   0  0  0  0  0  0
  -20.9390  -29.8778   21.6879 H   0  0  0  0  0  0
  -26.0141  -38.2818   24.1432 H   0  0  0  0  0  0
  -29.3761  -21.3368   21.9334 H   0  0  0  0  0  0
  -27.7002  -22.9634   17.4601 H   0  0  0  0  0  0
  -28.9914  -22.1030   16.6420 H   0  0  0  0  0  0
  -29.3761  -23.5163   17.6018 H   0  0  0  0  0  0
  -26.2250  -18.7747   15.3150 H   0  0  0  0  0  0
  -27.5916  -17.7412   15.7253 H   0  0  0  0  0  0
  -27.8629  -19.3199   14.9895 H   0  0  0  0  0  0
  -25.3363  -18.6664   17.6758 H   0  0  0  0  0  0
  -26.3180  -19.1947   19.0315 H   0  0  0  0  0  0
  -26.6725  -17.6627   18.2317 H   0  0  0  0  0  0
  -28.1200  -18.0782   20.4332 H   0  0  0  0  0  0
  -29.0396  -18.5210   21.8230 H   0  0  0  0  0  0
  -29.0855  -18.4567   17.8752 H   0  0  0  0  0  0
  -29.4249  -19.8111   16.8491 H   0  0  0  0  0  0
  -29.2664  -23.8453   21.4961 H   0  0  0  0  0  0
  -30.1427  -24.1236   20.0312 H   0  0  0  0  0  0
  -31.1258  -17.5549   20.8428 H   0  0  0  0  0  0
  -30.3799  -17.3547   19.2933 H   0  0  0  0  0  0
  -27.1492  -24.6162   20.4329 H   0  0  0  0  0  0
  -27.9196  -24.8019   18.8845 H   0  0  0  0  0  0
  -26.9493  -20.4432   16.9838 H   0  0  0  0  0  0
  -28.8898  -15.6671   20.9506 H   0  0  0  0  0  0
  1 25  1  0  0  0
  1 30  2  0  0  0
  1 85  1  0  0  0
  2  3  1  0  0  0
  2 25  1  0  0  0
  2 86  1  0  0  0
  2 87  1  0  0  0
  3  4  1  0  0  0
  3 88  1  0  0  0
  3 89  1  0  0  0
  4  5  1  0  0  0
  4 90  1  0  0  0
  4 91  1  0  0  0
  5  6  1  0  0  0
  5 26  1  0  0  0
  5 92  1  0  0  0
  6 25  1  0  0  0
  6 93  1  0  0  0
  6 94  1  0  0  0
  7  8  2  0  0  0
  7 26  1  0  0  0
  7 29  1  0  0  0
  8  9  1  0  0  0
  8 22  1  0  0  0
  9 10  1  0  0  0
  9 27  2  0  0  0
 10 11  2  0  0  0
 10 15  1  0  0  0
 11 12  1  0  0  0
 11 95  1  0  0  0
 12 13  2  0  0  0
 12 96  1  0  0  0
 13 14  1  0  0  0
 13 31  1  0  0  0
 14 15  2  0  0  0
 14 97  1  0  0  0
 15 98  1  0  0  0
 16 17  2  0  0  0
 16 21  1  0  0  0
 16 31  1  0  0  0
 17 18  1  0  0  0
 17 99  1  0  0  0
 18 19  2  0  0  0
 18100  1  0  0  0
 19 20  1  0  0  0
 19 24  1  0  0  0
 20 21  2  0  0  0
 20101  1  0  0  0
 21 23  1  0  0  0
 22 28  1  0  0  0
 22 32  2  0  0  0
 26 27  1  0  0  0
 28102  1  0  0  0
 28103  1  0  0  0
 29104  1  0  0  0
 29105  1  0  0  0
 33 34  1  0  0  0
 33 66  1  0  0  0
 33 70  2  0  0  0
 34 36  1  0  0  0
 34 59  1  0  0  0
 34106  1  0  0  0
 35 44  2  0  0  0
 35 45  1  0  0  0
 35 68  1  0  0  0
 36 56  1  0  0  0
 36107  1  0  0  0
 37 39  1  0  0  0
 37 47  1  0  0  0
 37 66  1  0  0  0
 37108  1  0  0  0
 38 43  2  0  0  0
 38 46  1  0  0  0
 38 47  1  0  0  0
 39 64  1  0  0  0
 39 67  2  0  0  0
 40 52  1  0  0  0
 40 53  2  0  0  0
 40 58  1  0  0  0
 41109  1  0  0  0
 41110  1  0  0  0
 41111  1  0  0  0
 41 48  1  0  0  0
 42 43  1  0  0  0
 42 66  1  0  0  0
 42112  1  0  0  0
 42113  1  0  0  0
 43 44  1  0  0  0
 44114  1  0  0  0
 45 46  2  0  0  0
 45115  1  0  0  0
 46116  1  0  0  0
 47117  1  0  0  0
 47118  1  0  0  0
 48 56  1  0  0  0
 48 65  1  0  0  0
 48119  1  0  0  0
 49 50  1  0  0  0
 49 53  1  0  0  0
 49 64  1  0  0  0
 49120  1  0  0  0
 50 51  1  0  0  0
 50121  1  0  0  0
 50122  1  0  0  0
 51 52  1  0  0  0
 51123  1  0  0  0
 51124  1  0  0  0
 52125  1  0  0  0
 52126  1  0  0  0
 53 54  1  0  0  0
 54 55  2  0  0  0
 54127  1  0  0  0
 55 57  1  0  0  0
 55128  1  0  0  0
 56 69  2  0  0  0
 57 58  2  0  0  0
 57129  1  0  0  0
 58130  1  0  0  0
 59 60  1  0  0  0
 59 61  1  0  0  0
 59 62  1  0  0  0
 60131  1  0  0  0
 60132  1  0  0  0
 60133  1  0  0  0
 61134  1  0  0  0
 61135  1  0  0  0
 61136  1  0  0  0
 62137  1  0  0  0
 62138  1  0  0  0
 62139  1  0  0  0
 63 65  1  0  0  0
 63140  1  0  0  0
 63141  1  0  0  0
 63142  1  0  0  0
 64143  1  0  0  0
 65144  1  0  0  0
 68 82  1  0  0  0
 71 72  2  0  0  0
 71 84  1  0  0  0
 71145  1  0  0  0
 72 73  1  0  0  0
 72 78  1  0  0  0
 73 74  2  0  0  0
 73 79  1  0  0  0
 74 75  1  0  0  0
 74 84  1  0  0  0
 75146  1  0  0  0
 75147  1  0  0  0
 75148  1  0  0  0
 76149  1  0  0  0
 76150  1  0  0  0
 76151  1  0  0  0
 76 83  1  0  0  0
 77 83  1  0  0  0
 77152  1  0  0  0
 77153  1  0  0  0
 77154  1  0  0  0
 78 81  1  0  0  0
 78155  1  0  0  0
 78156  1  0  0  0
 79 83  1  0  0  0
 79157  1  0  0  0
 79158  1  0  0  0
 80 82  1  0  0  0
 80 84  1  0  0  0
 80159  1  0  0  0
 80160  1  0  0  0
 81 85  1  0  0  0
 81161  1  0  0  0
 81162  1  0  0  0
 82163  1  0  0  0
 82164  1  0  0  0
 83165  1  0  0  0
 85166  1  0  0  0
M  ISO  4   1 100  68 101  82 101  85 100
M  END
> <chiral flag>
0

> <version>
0

> <s_m_source_file>
/data/baiqing/PycharmProjects/Reinvent-master-3.2/result/LINK_invent/BTK/process_docking_weight1_custom_sum_contain_oxygen_bond_distance_aromatic_linkinvent_7_9_3/rearranged_h_0101.sdf

> <i_m_source_file_index>
61

> <r_mmod_Potential_Energy-OPLS-2005>
97.9375534057617

> <r_mmod_Stretch_Energy-OPLS-2005>
118.011459350586

> <r_mmod_Bend_Energy-OPLS-2005>
167.519897460938

> <r_mmod_Torsional_Energy-OPLS-2005>
218.1513671875

> <r_mmod_Improper_Torsional_Energy-OPLS-2005>
6.69289064407349

> <r_mmod_Van_der_Waal_Energy-OPLS-2005>
110.935829162598

> <r_mmod_Electrostatic_Energy-OPLS-2005>
-391.307678222656

> <r_mmod_Solvation_Energy-OPLS-2005>
-211.518203735352

> <b_mmod_Minimization_Converged-OPLS-2005>
0

> <r_mmod_RMS_Derivative-OPLS-2005>
1.60887145996094

$$$$
61
                    3D
 Structure written by MMmdl.
169177  0  0  1  0            999 V2000
  -30.7152  -14.5362   20.5846 C   0  0  0  0  0  0
  -30.4240  -12.3529   19.4478 C   0  0  0  0  0  0
  -29.5003  -12.5107   18.2214 C   0  0  0  0  0  0
  -28.0199  -12.3662   18.6270 C   0  0  0  0  0  0
  -27.6567  -13.2159   19.8730 C   0  0  2  0  0  0
  -28.6964  -13.0110   20.9933 C   0  0  0  0  0  0
  -25.2557  -13.8163   20.5682 C   0  0  0  0  0  0
  -24.1822  -13.0428   20.9168 C   0  0  0  0  0  0
  -24.6394  -11.6899   20.8738 C   0  0  0  0  0  0
  -23.9068  -10.4285   21.0411 C   0  0  0  0  0  0
  -24.3618   -9.4202   21.9194 C   0  0  0  0  0  0
  -23.6295   -8.2236   22.0764 C   0  0  0  0  0  0
  -22.4284   -8.0273   21.3544 C   0  0  0  0  0  0
  -21.9915   -9.0245   20.4650 C   0  0  0  0  0  0
  -22.7238  -10.2126   20.3064 C   0  0  0  0  0  0
  -21.6851   -6.0736   22.5278 C   0  0  0  0  0  0
  -21.4020   -6.5642   23.8212 C   0  0  0  0  0  0
  -21.3660   -5.6792   24.9171 C   0  0  0  0  0  0
  -21.6044   -4.3054   24.7216 C   0  0  0  0  0  0
  -21.8822   -3.8150   23.4335 C   0  0  0  0  0  0
  -21.9189   -4.6967   22.3395 C   0  0  0  0  0  0
  -22.7841  -13.5215   21.1820 C   0  0  0  0  0  0
  -22.1659   -4.2156   21.0972 F   0  0  0  0  0  0
  -21.5627   -3.4535   25.7727 F   0  0  0  0  0  0
  -30.0179  -13.3625   20.4477 N   0  0  0  0  0  0
  -26.3004  -12.9356   20.3361 N   0  0  0  0  0  0
  -25.9327  -11.6507   20.5776 N   0  0  0  0  0  0
  -22.0497  -12.8218   22.0390 N   0  0  0  0  0  0
  -25.4251  -15.1884   20.4098 N   0  0  0  0  0  0
  -31.8465  -14.6462   20.1020 O   0  0  0  0  0  0
  -21.6643   -6.8874   21.4239 O   0  0  0  0  0  0
  -22.3527  -14.5513   20.6657 O   0  0  0  0  0  0
  -24.6173  -31.8651   23.2090 C   0  0  0  0  0  0
  -25.9047  -32.4823   23.8382 C   0  0  1  0  0  0
  -27.2267  -27.3919   20.0933 C   0  0  0  0  0  0
  -25.5895  -33.8620   24.2310 N   0  0  0  0  0  0
  -23.4077  -30.4909   21.5493 C   0  0  2  0  0  0
  -24.8536  -28.9570   20.1094 C   0  0  0  0  0  0
  -22.7423  -29.4645   22.4956 C   0  0  0  0  0  0
  -18.0274  -28.1367   22.8478 C   0  0  0  0  0  0
  -24.1485  -36.7300   23.2642 C   0  0  0  0  0  0
  -25.9416  -30.8193   21.3686 C   0  0  0  0  0  0
  -26.0186  -29.4529   20.7082 C   0  0  0  0  0  0
  -27.2080  -28.6788   20.6947 C   0  0  0  0  0  0
  -26.0380  -26.9264   19.4833 C   0  0  0  0  0  0
  -24.8611  -27.6959   19.4924 C   0  0  0  0  0  0
  -23.6190  -29.8297   20.1617 C   0  0  0  0  0  0
  -25.4113  -36.3115   24.0338 C   0  0  1  0  0  0
  -20.5866  -28.3657   23.1298 C   0  0  2  0  0  0
  -20.6769  -26.9387   22.5413 C   0  0  0  0  0  0
  -19.5755  -26.6370   21.5199 C   0  0  0  0  0  0
  -18.1927  -26.7911   22.1603 C   0  0  0  0  0  0
  -19.1527  -28.8823   23.2884 C   0  0  0  0  0  0
  -18.9463  -30.1423   23.8898 C   0  0  0  0  0  0
  -17.6474  -30.6580   24.0558 C   0  0  0  0  0  0
  -25.9042  -34.9475   23.5125 C   0  0  0  0  0  0
  -16.5355  -29.9090   23.6330 C   0  0  0  0  0  0
  -16.7262  -28.6504   23.0345 C   0  0  0  0  0  0
  -26.4457  -31.6615   25.0725 C   0  0  0  0  0  0
  -25.3723  -31.3721   26.1479 C   0  0  0  0  0  0
  -27.0290  -30.3062   24.6100 C   0  0  0  0  0  0
  -27.6031  -32.4341   25.7482 C   0  0  0  0  0  0
  -27.5579  -37.1809   24.8468 C   0  0  0  0  0  0
  -21.4147  -29.3029   22.3705 N   0  0  0  0  0  0
  -26.4292  -37.3802   23.9412 N   0  0  0  0  0  0
  -24.6743  -31.0718   22.1007 N   0  0  0  0  0  0
  -23.4178  -28.8174   23.3002 O   0  0  0  0  0  0
  -28.3707  -26.5951   20.1398 O   0  0  0  0  0  0
  -26.5613  -34.8925   22.4696 O   0  0  0  0  0  0
  -23.5358  -32.1403   23.7471 O   0  0  0  0  0  0
  -29.8630  -20.4888   17.4934 C   0  0  0  0  0  0
  -29.9751  -19.2763   16.7677 C   0  0  0  0  0  0
  -29.5471  -20.2191   18.7968 C   0  0  0  0  0  0
  -29.7225  -18.2631   17.6506 C   0  0  0  0  0  0
  -30.3018  -19.1570   15.3000 C   0  0  0  0  0  0
  -29.6606  -16.7857   17.3733 C   0  0  0  0  0  0
  -30.0819  -24.0920   21.3039 C   0  0  0  0  0  0
  -29.5107  -15.7612   22.3608 C   0  0  0  0  0  0
  -29.2781  -21.2354   19.8995 C   0  0  0  0  0  0
  -29.0750  -22.7139   19.3933 C   0  0  0  0  0  0
  -29.2865  -17.9966   20.1335 C   0  0  0  0  0  0
  -30.4556  -17.0116   20.4829 C   0  0  0  0  0  0
  -28.2246  -25.1742   19.8437 C   0  0  0  0  0  0
  -28.8169  -23.8346   20.4595 C   0  0  1  0  0  0
  -29.5293  -18.8125   18.9239 N   0  0  0  0  0  0
  -30.0480  -15.6648   20.9962 N   0  0  0  0  0  0
  -31.4678  -12.4484   19.1447 H   0  0  0  0  0  0
  -30.3380  -11.3498   19.8697 H   0  0  0  0  0  0
  -29.7523  -11.7689   17.4630 H   0  0  0  0  0  0
  -29.6621  -13.4879   17.7632 H   0  0  0  0  0  0
  -27.8373  -11.3115   18.8373 H   0  0  0  0  0  0
  -27.3694  -12.6253   17.7906 H   0  0  0  0  0  0
  -27.6942  -14.2632   19.5711 H   0  0  0  0  0  0
  -28.6992  -11.9693   21.3169 H   0  0  0  0  0  0
  -28.4173  -13.5676   21.8816 H   0  0  0  0  0  0
  -25.2757   -9.5672   22.4774 H   0  0  0  0  0  0
  -23.9993   -7.4631   22.7495 H   0  0  0  0  0  0
  -21.0841   -8.8762   19.8957 H   0  0  0  0  0  0
  -22.3691  -10.9669   19.6180 H   0  0  0  0  0  0
  -21.2028   -7.6156   23.9709 H   0  0  0  0  0  0
  -21.1482   -6.0531   25.9070 H   0  0  0  0  0  0
  -22.0604   -2.7614   23.2831 H   0  0  0  0  0  0
  -22.4114  -11.9866   22.4753 H   0  0  0  0  0  0
  -21.1129  -13.1268   22.2625 H   0  0  0  0  0  0
  -24.6576  -15.8407   20.5223 H   0  0  0  0  0  0
  -26.2778  -15.6282   20.0890 H   0  0  0  0  0  0
  -26.7112  -32.5518   23.1136 H   0  0  0  0  0  0
  -25.0056  -33.9780   25.0461 H   0  0  0  0  0  0
  -22.6991  -31.3102   21.4115 H   0  0  0  0  0  0
  -23.3759  -35.9627   23.3327 H   0  0  0  0  0  0
  -24.3580  -36.8898   22.2056 H   0  0  0  0  0  0
  -23.7218  -37.6502   23.6643 H   0  0  0  0  0  0
  -26.0608  -31.5880   20.6040 H   0  0  0  0  0  0
  -26.8265  -30.8690   21.9916 H   0  0  0  0  0  0
  -28.1044  -29.0510   21.1717 H   0  0  0  0  0  0
  -25.9957  -25.9596   19.0033 H   0  0  0  0  0  0
  -23.9656  -27.3098   19.0253 H   0  0  0  0  0  0
  -23.7333  -30.6094   19.4067 H   0  0  0  0  0  0
  -22.7398  -29.2578   19.8596 H   0  0  0  0  0  0
  -25.1292  -36.1986   25.0834 H   0  0  0  0  0  0
  -20.9947  -28.3222   24.1420 H   0  0  0  0  0  0
  -20.5662  -26.2257   23.3599 H   0  0  0  0  0  0
  -21.6648  -26.7434   22.1212 H   0  0  0  0  0  0
  -19.6933  -25.6284   21.1225 H   0  0  0  0  0  0
  -19.6711  -27.3183   20.6731 H   0  0  0  0  0  0
  -17.4200  -26.6632   21.4003 H   0  0  0  0  0  0
  -18.0346  -26.0041   22.8992 H   0  0  0  0  0  0
  -19.7948  -30.7216   24.2277 H   0  0  0  0  0  0
  -17.5048  -31.6275   24.5144 H   0  0  0  0  0  0
  -15.5362  -30.3011   23.7660 H   0  0  0  0  0  0
  -15.8647  -28.0843   22.7065 H   0  0  0  0  0  0
  -24.5919  -30.7036   25.7822 H   0  0  0  0  0  0
  -24.8877  -32.2869   26.4901 H   0  0  0  0  0  0
  -25.8084  -30.8923   27.0246 H   0  0  0  0  0  0
  -26.2829  -29.6835   24.1152 H   0  0  0  0  0  0
  -27.4066  -29.7290   25.4545 H   0  0  0  0  0  0
  -27.8658  -30.4393   23.9245 H   0  0  0  0  0  0
  -27.2660  -33.3655   26.2036 H   0  0  0  0  0  0
  -28.3841  -32.6875   25.0306 H   0  0  0  0  0  0
  -28.0681  -31.8474   26.5412 H   0  0  0  0  0  0
  -28.2608  -38.0093   24.7537 H   0  0  0  0  0  0
  -28.1054  -36.2630   24.6278 H   0  0  0  0  0  0
  -27.2292  -37.1457   25.8867 H   0  0  0  0  0  0
  -20.9295  -29.8781   21.6968 H   0  0  0  0  0  0
  -26.0183  -38.2876   24.1448 H   0  0  0  0  0  0
  -29.9920  -21.4796   17.0782 H   0  0  0  0  0  0
  -31.3819  -19.1238   15.1558 H   0  0  0  0  0  0
  -29.9129  -20.0176   14.7533 H   0  0  0  0  0  0
  -29.8711  -18.2575   14.8618 H   0  0  0  0  0  0
  -29.2450  -16.5880   16.3858 H   0  0  0  0  0  0
  -29.0323  -16.2531   18.0858 H   0  0  0  0  0  0
  -30.6548  -16.3398   17.3999 H   0  0  0  0  0  0
  -30.9082  -24.4505   20.6893 H   0  0  0  0  0  0
  -30.4131  -23.1865   21.8121 H   0  0  0  0  0  0
  -29.8966  -24.8410   22.0746 H   0  0  0  0  0  0
  -29.8308  -14.9326   22.9946 H   0  0  0  0  0  0
  -29.8308  -16.6718   22.8696 H   0  0  0  0  0  0
  -28.4205  -15.7780   22.3380 H   0  0  0  0  0  0
  -30.1052  -21.2020   20.6084 H   0  0  0  0  0  0
  -28.3913  -20.9285   20.4538 H   0  0  0  0  0  0
  -28.2347  -22.7095   18.6976 H   0  0  0  0  0  0
  -29.9419  -23.0102   18.8018 H   0  0  0  0  0  0
  -29.1013  -18.6569   20.9817 H   0  0  0  0  0  0
  -28.3549  -17.4498   19.9810 H   0  0  0  0  0  0
  -31.1201  -17.4934   21.2011 H   0  0  0  0  0  0
  -31.0881  -16.8982   19.6037 H   0  0  0  0  0  0
  -29.1698  -25.3601   19.3327 H   0  0  0  0  0  0
  -27.9391  -25.3239   20.8874 H   0  0  0  0  0  0
  -28.0691  -23.4028   21.1320 H   0  0  0  0  0  0
  1 25  1  0  0  0
  1 30  2  0  0  0
  1 86  1  0  0  0
  2  3  1  0  0  0
  2 25  1  0  0  0
  2 87  1  0  0  0
  2 88  1  0  0  0
  3  4  1  0  0  0
  3 89  1  0  0  0
  3 90  1  0  0  0
  4  5  1  0  0  0
  4 91  1  0  0  0
  4 92  1  0  0  0
  5  6  1  0  0  0
  5 26  1  0  0  0
  5 93  1  0  0  0
  6 25  1  0  0  0
  6 94  1  0  0  0
  6 95  1  0  0  0
  7  8  2  0  0  0
  7 26  1  0  0  0
  7 29  1  0  0  0
  8  9  1  0  0  0
  8 22  1  0  0  0
  9 10  1  0  0  0
  9 27  2  0  0  0
 10 11  2  0  0  0
 10 15  1  0  0  0
 11 12  1  0  0  0
 11 96  1  0  0  0
 12 13  2  0  0  0
 12 97  1  0  0  0
 13 14  1  0  0  0
 13 31  1  0  0  0
 14 15  2  0  0  0
 14 98  1  0  0  0
 15 99  1  0  0  0
 16 17  2  0  0  0
 16 21  1  0  0  0
 16 31  1  0  0  0
 17 18  1  0  0  0
 17100  1  0  0  0
 18 19  2  0  0  0
 18101  1  0  0  0
 19 20  1  0  0  0
 19 24  1  0  0  0
 20 21  2  0  0  0
 20102  1  0  0  0
 21 23  1  0  0  0
 22 28  1  0  0  0
 22 32  2  0  0  0
 26 27  1  0  0  0
 28103  1  0  0  0
 28104  1  0  0  0
 29105  1  0  0  0
 29106  1  0  0  0
 33 34  1  0  0  0
 33 66  1  0  0  0
 33 70  2  0  0  0
 34 36  1  0  0  0
 34 59  1  0  0  0
 34107  1  0  0  0
 35 44  2  0  0  0
 35 45  1  0  0  0
 35 68  1  0  0  0
 36 56  1  0  0  0
 36108  1  0  0  0
 37 39  1  0  0  0
 37 47  1  0  0  0
 37 66  1  0  0  0
 37109  1  0  0  0
 38 43  2  0  0  0
 38 46  1  0  0  0
 38 47  1  0  0  0
 39 64  1  0  0  0
 39 67  2  0  0  0
 40 52  1  0  0  0
 40 53  2  0  0  0
 40 58  1  0  0  0
 41110  1  0  0  0
 41111  1  0  0  0
 41112  1  0  0  0
 41 48  1  0  0  0
 42 43  1  0  0  0
 42 66  1  0  0  0
 42113  1  0  0  0
 42114  1  0  0  0
 43 44  1  0  0  0
 44115  1  0  0  0
 45 46  2  0  0  0
 45116  1  0  0  0
 46117  1  0  0  0
 47118  1  0  0  0
 47119  1  0  0  0
 48 56  1  0  0  0
 48 65  1  0  0  0
 48120  1  0  0  0
 49 50  1  0  0  0
 49 53  1  0  0  0
 49 64  1  0  0  0
 49121  1  0  0  0
 50 51  1  0  0  0
 50122  1  0  0  0
 50123  1  0  0  0
 51 52  1  0  0  0
 51124  1  0  0  0
 51125  1  0  0  0
 52126  1  0  0  0
 52127  1  0  0  0
 53 54  1  0  0  0
 54 55  2  0  0  0
 54128  1  0  0  0
 55 57  1  0  0  0
 55129  1  0  0  0
 56 69  2  0  0  0
 57 58  2  0  0  0
 57130  1  0  0  0
 58131  1  0  0  0
 59 60  1  0  0  0
 59 61  1  0  0  0
 59 62  1  0  0  0
 60132  1  0  0  0
 60133  1  0  0  0
 60134  1  0  0  0
 61135  1  0  0  0
 61136  1  0  0  0
 61137  1  0  0  0
 62138  1  0  0  0
 62139  1  0  0  0
 62140  1  0  0  0
 63 65  1  0  0  0
 63141  1  0  0  0
 63142  1  0  0  0
 63143  1  0  0  0
 64144  1  0  0  0
 65145  1  0  0  0
 68 83  1  0  0  0
 71 72  1  0  0  0
 71 73  2  0  0  0
 71146  1  0  0  0
 72 74  2  0  0  0
 72 75  1  0  0  0
 73 79  1  0  0  0
 73 85  1  0  0  0
 74 76  1  0  0  0
 74 85  1  0  0  0
 75147  1  0  0  0
 75148  1  0  0  0
 75149  1  0  0  0
 76150  1  0  0  0
 76151  1  0  0  0
 76152  1  0  0  0
 77153  1  0  0  0
 77154  1  0  0  0
 77155  1  0  0  0
 77 84  1  0  0  0
 78 86  1  0  0  0
 78156  1  0  0  0
 78157  1  0  0  0
 78158  1  0  0  0
 79 80  1  0  0  0
 79159  1  0  0  0
 79160  1  0  0  0
 80 84  1  0  0  0
 80161  1  0  0  0
 80162  1  0  0  0
 81 82  1  0  0  0
 81 85  1  0  0  0
 81163  1  0  0  0
 81164  1  0  0  0
 82 86  1  0  0  0
 82165  1  0  0  0
 82166  1  0  0  0
 83 84  1  0  0  0
 83167  1  0  0  0
 83168  1  0  0  0
 84169  1  0  0  0
M  ISO  4   1 100  68 101  83 101  86 100
M  END
> <chiral flag>
0

> <version>
0

> <s_m_source_file>
/data/baiqing/PycharmProjects/Reinvent-master-3.2/result/LINK_invent/BTK/process_docking_weight1_custom_sum_contain_oxygen_bond_distance_aromatic_linkinvent_7_9_3/rearranged_h_0101.sdf

> <i_m_source_file_index>
62

> <r_mmod_Potential_Energy-OPLS-2005>
337.853851318359

> <r_mmod_Stretch_Energy-OPLS-2005>
60.3731803894043

> <r_mmod_Bend_Energy-OPLS-2005>
343.784698486328

> <r_mmod_Torsional_Energy-OPLS-2005>
289.519378662109

> <r_mmod_Improper_Torsional_Energy-OPLS-2005>
9.49866008758545

> <r_mmod_Van_der_Waal_Energy-OPLS-2005>
145.445602416992

> <r_mmod_Electrostatic_Energy-OPLS-2005>
-336.481903076172

> <r_mmod_Solvation_Energy-OPLS-2005>
-196.703414916992

> <b_mmod_Minimization_Converged-OPLS-2005>
0

> <r_mmod_RMS_Derivative-OPLS-2005>
1.80829060077667

$$$$
62
                    3D
 Structure written by MMmdl.
157165  0  0  1  0            999 V2000
  -30.6176  -14.7243   20.4578 C   0  0  0  0  0  0
  -30.4286  -12.4374   19.4875 C   0  0  0  0  0  0
  -29.5123  -12.5095   18.2453 C   0  0  0  0  0  0
  -28.0348  -12.3439   18.6491 C   0  0  0  0  0  0
  -27.6444  -13.2336   19.8596 C   0  0  2  0  0  0
  -28.6856  -13.1552   20.9991 C   0  0  0  0  0  0
  -25.2502  -13.8205   20.5699 C   0  0  0  0  0  0
  -24.1790  -13.0444   20.9199 C   0  0  0  0  0  0
  -24.6387  -11.6924   20.8745 C   0  0  0  0  0  0
  -23.9068  -10.4296   21.0402 C   0  0  0  0  0  0
  -24.3619   -9.4213   21.9182 C   0  0  0  0  0  0
  -23.6294   -8.2247   22.0755 C   0  0  0  0  0  0
  -22.4277   -8.0282   21.3544 C   0  0  0  0  0  0
  -21.9910   -9.0255   20.4646 C   0  0  0  0  0  0
  -22.7240  -10.2134   20.3053 C   0  0  0  0  0  0
  -21.6857   -6.0732   22.5276 C   0  0  0  0  0  0
  -21.4017   -6.5637   23.8209 C   0  0  0  0  0  0
  -21.3661   -5.6791   24.9170 C   0  0  0  0  0  0
  -21.6043   -4.3052   24.7222 C   0  0  0  0  0  0
  -21.8821   -3.8144   23.4343 C   0  0  0  0  0  0
  -21.9192   -4.6958   22.3399 C   0  0  0  0  0  0
  -22.7810  -13.5224   21.1855 C   0  0  0  0  0  0
  -22.1661   -4.2143   21.0976 F   0  0  0  0  0  0
  -21.5627   -3.4539   25.7735 F   0  0  0  0  0  0
  -29.9938  -13.4975   20.4272 N   0  0  0  0  0  0
  -26.2941  -12.9420   20.3315 N   0  0  0  0  0  0
  -25.9324  -11.6557   20.5766 N   0  0  0  0  0  0
  -22.0464  -12.8211   22.0416 N   0  0  0  0  0  0
  -25.4189  -15.1925   20.4119 N   0  0  0  0  0  0
  -31.7929  -14.8210   20.0941 O   0  0  0  0  0  0
  -21.6643   -6.8875   21.4240 O   0  0  0  0  0  0
  -22.3489  -14.5528   20.6702 O   0  0  0  0  0  0
  -24.6299  -31.8552   23.1994 C   0  0  0  0  0  0
  -25.9128  -32.4749   23.8337 C   0  0  1  0  0  0
  -27.2123  -27.2681   20.1426 C   0  0  0  0  0  0
  -25.5927  -33.8552   24.2257 N   0  0  0  0  0  0
  -23.4263  -30.4783   21.5407 C   0  0  2  0  0  0
  -24.8764  -28.9313   20.1023 C   0  0  0  0  0  0
  -22.7500  -29.4596   22.4904 C   0  0  0  0  0  0
  -18.0293  -28.1385   22.8484 C   0  0  0  0  0  0
  -24.1493  -36.7287   23.2643 C   0  0  0  0  0  0
  -25.9719  -30.7702   21.3806 C   0  0  0  0  0  0
  -26.0447  -29.3944   20.7238 C   0  0  0  0  0  0
  -27.2168  -28.5730   20.7375 C   0  0  0  0  0  0
  -26.0432  -26.8939   19.4475 C   0  0  0  0  0  0
  -24.8813  -27.6885   19.4502 C   0  0  0  0  0  0
  -23.6441  -29.8139   20.1554 C   0  0  0  0  0  0
  -25.4118  -36.3066   24.0330 C   0  0  1  0  0  0
  -20.5899  -28.3697   23.1269 C   0  0  2  0  0  0
  -20.6777  -26.9414   22.5406 C   0  0  0  0  0  0
  -19.5753  -26.6381   21.5210 C   0  0  0  0  0  0
  -18.1936  -26.7927   22.1624 C   0  0  0  0  0  0
  -19.1549  -28.8861   23.2869 C   0  0  0  0  0  0
  -18.9467  -30.1458   23.8883 C   0  0  0  0  0  0
  -17.6467  -30.6583   24.0570 C   0  0  0  0  0  0
  -25.9060  -34.9439   23.5101 C   0  0  0  0  0  0
  -16.5358  -29.9081   23.6332 C   0  0  0  0  0  0
  -16.7281  -28.6503   23.0351 C   0  0  0  0  0  0
  -26.4494  -31.6570   25.0725 C   0  0  0  0  0  0
  -25.3720  -31.3723   26.1452 C   0  0  0  0  0  0
  -27.0337  -30.2984   24.6211 C   0  0  0  0  0  0
  -27.6044  -32.4316   25.7491 C   0  0  0  0  0  0
  -27.5572  -37.1798   24.8466 C   0  0  0  0  0  0
  -21.4208  -29.3043   22.3651 N   0  0  0  0  0  0
  -26.4288  -37.3767   23.9413 N   0  0  0  0  0  0
  -24.6947  -31.0531   22.0958 N   0  0  0  0  0  0
  -23.4204  -28.8152   23.3009 O   0  0  0  0  0  0
  -28.2766  -26.3400   20.2095 O   0  0  0  0  0  0
  -26.5641  -34.8921   22.4672 O   0  0  0  0  0  0
  -23.5453  -32.1365   23.7293 O   0  0  0  0  0  0
  -30.2506  -19.2074   21.7449 C   0  0  0  0  0  0
  -28.9951  -19.7007   20.0023 C   0  0  0  0  0  0
  -29.7258  -18.6374   20.5458 C   0  0  0  0  0  0
  -29.8506  -20.5216   21.8799 C   0  0  0  0  0  0
  -30.1311  -21.4837   22.9910 C   0  0  0  0  0  0
  -26.6482  -24.7015   21.3665 C   0  0  0  0  0  0
  -30.0405  -17.1999   19.9351 C   0  0  0  0  0  0
  -28.8271  -23.6385   20.3304 C   0  0  0  0  0  0
  -28.2276  -22.1651   20.6754 C   0  0  0  0  0  0
  -28.0920  -24.9924   20.8846 C   0  0  1  0  0  0
  -29.0460  -20.8759   20.7999 N   0  0  0  0  0  0
  -29.8489  -15.8623   20.6433 N   0  0  0  0  0  0
  -31.4727  -12.5487   19.1905 H   0  0  0  0  0  0
  -30.3591  -11.4581   19.9634 H   0  0  0  0  0  0
  -29.7914  -11.7401   17.5243 H   0  0  0  0  0  0
  -29.6497  -13.4673   17.7411 H   0  0  0  0  0  0
  -27.8760  -11.2935   18.8948 H   0  0  0  0  0  0
  -27.3848  -12.5575   17.7999 H   0  0  0  0  0  0
  -27.6444  -14.2589   19.4902 H   0  0  0  0  0  0
  -28.7101  -12.1554   21.4341 H   0  0  0  0  0  0
  -28.4235  -13.8349   21.8114 H   0  0  0  0  0  0
  -25.2766   -9.5683   22.4756 H   0  0  0  0  0  0
  -23.9998   -7.4638   22.7477 H   0  0  0  0  0  0
  -21.0841   -8.8773   19.8952 H   0  0  0  0  0  0
  -22.3700  -10.9669   19.6156 H   0  0  0  0  0  0
  -21.2019   -7.6147   23.9708 H   0  0  0  0  0  0
  -21.1479   -6.0523   25.9071 H   0  0  0  0  0  0
  -22.0600   -2.7607   23.2847 H   0  0  0  0  0  0
  -22.4096  -11.9880   22.4803 H   0  0  0  0  0  0
  -21.1077  -13.1216   22.2628 H   0  0  0  0  0  0
  -24.6519  -15.8460   20.5258 H   0  0  0  0  0  0
  -26.2654  -15.6340   20.0775 H   0  0  0  0  0  0
  -26.7200  -32.5416   23.1084 H   0  0  0  0  0  0
  -25.0066  -33.9692   25.0397 H   0  0  0  0  0  0
  -22.7233  -31.3013   21.3944 H   0  0  0  0  0  0
  -23.3752  -35.9622   23.3306 H   0  0  0  0  0  0
  -24.3582  -36.8906   22.2056 H   0  0  0  0  0  0
  -23.7257  -37.6492   23.6668 H   0  0  0  0  0  0
  -26.1148  -31.5295   20.6104 H   0  0  0  0  0  0
  -26.8488  -30.8198   22.0148 H   0  0  0  0  0  0
  -28.1050  -28.9136   21.2494 H   0  0  0  0  0  0
  -26.0127  -25.9430   18.9357 H   0  0  0  0  0  0
  -23.9942  -27.3357   18.9430 H   0  0  0  0  0  0
  -23.7634  -30.5913   19.4004 H   0  0  0  0  0  0
  -22.7630  -29.2459   19.8500 H   0  0  0  0  0  0
  -25.1301  -36.1907   25.0822 H   0  0  0  0  0  0
  -21.0003  -28.3277   24.1384 H   0  0  0  0  0  0
  -20.5677  -26.2300   23.3609 H   0  0  0  0  0  0
  -21.6648  -26.7443   22.1201 H   0  0  0  0  0  0
  -19.6922  -25.6291   21.1243 H   0  0  0  0  0  0
  -19.6690  -27.3193   20.6744 H   0  0  0  0  0  0
  -17.4204  -26.6672   21.4026 H   0  0  0  0  0  0
  -18.0327  -26.0069   22.9024 H   0  0  0  0  0  0
  -19.7948  -30.7282   24.2225 H   0  0  0  0  0  0
  -17.5033  -31.6259   24.5179 H   0  0  0  0  0  0
  -15.5364  -30.2991   23.7659 H   0  0  0  0  0  0
  -15.8681  -28.0830   22.7058 H   0  0  0  0  0  0
  -24.5911  -30.7038   25.7808 H   0  0  0  0  0  0
  -24.8895  -32.2891   26.4850 H   0  0  0  0  0  0
  -25.8050  -30.8935   27.0244 H   0  0  0  0  0  0
  -26.2910  -29.6748   24.1221 H   0  0  0  0  0  0
  -27.3999  -29.7219   25.4718 H   0  0  0  0  0  0
  -27.8805  -30.4267   23.9469 H   0  0  0  0  0  0
  -27.2632  -33.3630   26.2023 H   0  0  0  0  0  0
  -28.3864  -32.6860   25.0321 H   0  0  0  0  0  0
  -28.0704  -31.8475   26.5437 H   0  0  0  0  0  0
  -28.2587  -38.0097   24.7504 H   0  0  0  0  0  0
  -28.1070  -36.2623   24.6298 H   0  0  0  0  0  0
  -27.2293  -37.1453   25.8871 H   0  0  0  0  0  0
  -20.9393  -29.8769   21.6862 H   0  0  0  0  0  0
  -26.0162  -38.2841   24.1403 H   0  0  0  0  0  0
  -30.8900  -18.6943   22.4509 H   0  0  0  0  0  0
  -28.4124  -19.7215   19.0897 H   0  0  0  0  0  0
  -30.8570  -21.0711   23.6919 H   0  0  0  0  0  0
  -29.2247  -21.7081   23.5544 H   0  0  0  0  0  0
  -30.5348  -22.4230   22.6135 H   0  0  0  0  0  0
  -26.1729  -25.5725   21.8185 H   0  0  0  0  0  0
  -26.0140  -24.3394   20.5577 H   0  0  0  0  0  0
  -26.6274  -23.9538   22.1562 H   0  0  0  0  0  0
  -31.0792  -17.2563   19.6074 H   0  0  0  0  0  0
  -29.4667  -17.1291   19.0104 H   0  0  0  0  0  0
  -28.8818  -23.7084   19.2443 H   0  0  0  0  0  0
  -29.8653  -23.6715   20.6601 H   0  0  0  0  0  0
  -27.4195  -21.9668   19.9706 H   0  0  0  0  0  0
  -27.7265  -22.2339   21.6373 H   0  0  0  0  0  0
  -28.6139  -25.1762   21.8242 H   0  0  0  0  0  0
  -28.9179  -15.6940   20.9927 H   0  0  0  0  0  0
  1 25  1  0  0  0
  1 30  2  0  0  0
  1 82  1  0  0  0
  2  3  1  0  0  0
  2 25  1  0  0  0
  2 83  1  0  0  0
  2 84  1  0  0  0
  3  4  1  0  0  0
  3 85  1  0  0  0
  3 86  1  0  0  0
  4  5  1  0  0  0
  4 87  1  0  0  0
  4 88  1  0  0  0
  5  6  1  0  0  0
  5 26  1  0  0  0
  5 89  1  0  0  0
  6 25  1  0  0  0
  6 90  1  0  0  0
  6 91  1  0  0  0
  7  8  2  0  0  0
  7 26  1  0  0  0
  7 29  1  0  0  0
  8  9  1  0  0  0
  8 22  1  0  0  0
  9 10  1  0  0  0
  9 27  2  0  0  0
 10 11  2  0  0  0
 10 15  1  0  0  0
 11 12  1  0  0  0
 11 92  1  0  0  0
 12 13  2  0  0  0
 12 93  1  0  0  0
 13 14  1  0  0  0
 13 31  1  0  0  0
 14 15  2  0  0  0
 14 94  1  0  0  0
 15 95  1  0  0  0
 16 17  2  0  0  0
 16 21  1  0  0  0
 16 31  1  0  0  0
 17 18  1  0  0  0
 17 96  1  0  0  0
 18 19  2  0  0  0
 18 97  1  0  0  0
 19 20  1  0  0  0
 19 24  1  0  0  0
 20 21  2  0  0  0
 20 98  1  0  0  0
 21 23  1  0  0  0
 22 28  1  0  0  0
 22 32  2  0  0  0
 26 27  1  0  0  0
 28 99  1  0  0  0
 28100  1  0  0  0
 29101  1  0  0  0
 29102  1  0  0  0
 33 34  1  0  0  0
 33 66  1  0  0  0
 33 70  2  0  0  0
 34 36  1  0  0  0
 34 59  1  0  0  0
 34103  1  0  0  0
 35 44  2  0  0  0
 35 45  1  0  0  0
 35 68  1  0  0  0
 36 56  1  0  0  0
 36104  1  0  0  0
 37 39  1  0  0  0
 37 47  1  0  0  0
 37 66  1  0  0  0
 37105  1  0  0  0
 38 43  2  0  0  0
 38 46  1  0  0  0
 38 47  1  0  0  0
 39 64  1  0  0  0
 39 67  2  0  0  0
 40 52  1  0  0  0
 40 53  2  0  0  0
 40 58  1  0  0  0
 41106  1  0  0  0
 41107  1  0  0  0
 41108  1  0  0  0
 41 48  1  0  0  0
 42 43  1  0  0  0
 42 66  1  0  0  0
 42109  1  0  0  0
 42110  1  0  0  0
 43 44  1  0  0  0
 44111  1  0  0  0
 45 46  2  0  0  0
 45112  1  0  0  0
 46113  1  0  0  0
 47114  1  0  0  0
 47115  1  0  0  0
 48 56  1  0  0  0
 48 65  1  0  0  0
 48116  1  0  0  0
 49 50  1  0  0  0
 49 53  1  0  0  0
 49 64  1  0  0  0
 49117  1  0  0  0
 50 51  1  0  0  0
 50118  1  0  0  0
 50119  1  0  0  0
 51 52  1  0  0  0
 51120  1  0  0  0
 51121  1  0  0  0
 52122  1  0  0  0
 52123  1  0  0  0
 53 54  1  0  0  0
 54 55  2  0  0  0
 54124  1  0  0  0
 55 57  1  0  0  0
 55125  1  0  0  0
 56 69  2  0  0  0
 57 58  2  0  0  0
 57126  1  0  0  0
 58127  1  0  0  0
 59 60  1  0  0  0
 59 61  1  0  0  0
 59 62  1  0  0  0
 60128  1  0  0  0
 60129  1  0  0  0
 60130  1  0  0  0
 61131  1  0  0  0
 61132  1  0  0  0
 61133  1  0  0  0
 62134  1  0  0  0
 62135  1  0  0  0
 62136  1  0  0  0
 63 65  1  0  0  0
 63137  1  0  0  0
 63138  1  0  0  0
 63139  1  0  0  0
 64140  1  0  0  0
 65141  1  0  0  0
 68 80  1  0  0  0
 71 73  1  0  0  0
 71 74  2  0  0  0
 71142  1  0  0  0
 72 73  2  0  0  0
 72 81  1  0  0  0
 72143  1  0  0  0
 73 77  1  0  0  0
 74 75  1  0  0  0
 74 81  1  0  0  0
 75144  1  0  0  0
 75145  1  0  0  0
 75146  1  0  0  0
 76147  1  0  0  0
 76148  1  0  0  0
 76149  1  0  0  0
 76 80  1  0  0  0
 77 82  1  0  0  0
 77150  1  0  0  0
 77151  1  0  0  0
 78 79  1  0  0  0
 78 80  1  0  0  0
 78152  1  0  0  0
 78153  1  0  0  0
 79 81  1  0  0  0
 79154  1  0  0  0
 79155  1  0  0  0
 80156  1  0  0  0
 82157  1  0  0  0
M  ISO  4   1 100  68 101  80 101  82 100
M  END
> <chiral flag>
0

> <version>
0

> <s_m_source_file>
/data/baiqing/PycharmProjects/Reinvent-master-3.2/result/LINK_invent/BTK/process_docking_weight1_custom_sum_contain_oxygen_bond_distance_aromatic_linkinvent_7_9_3/rearranged_h_0101.sdf

> <i_m_source_file_index>
63

> <r_mmod_Potential_Energy-OPLS-2005>
154.646667480469

> <r_mmod_Stretch_Energy-OPLS-2005>
122.280303955078

> <r_mmod_Bend_Energy-OPLS-2005>
188.020065307617

> <r_mmod_Torsional_Energy-OPLS-2005>
269.820220947266

> <r_mmod_Improper_Torsional_Energy-OPLS-2005>
9.47101593017578

> <r_mmod_Van_der_Waal_Energy-OPLS-2005>
124.198104858398

> <r_mmod_Electrostatic_Energy-OPLS-2005>
-428.853576660156

> <r_mmod_Solvation_Energy-OPLS-2005>
-213.265686035156

> <b_mmod_Minimization_Converged-OPLS-2005>
0

> <r_mmod_RMS_Derivative-OPLS-2005>
1.29303240776062

$$$$
63
                    3D
 Structure written by MMmdl.
157165  0  0  1  0            999 V2000
  -30.5148  -14.9286   20.3645 C   0  0  0  0  0  0
  -30.4521  -12.5475   19.5154 C   0  0  0  0  0  0
  -29.5377  -12.4893   18.2665 C   0  0  0  0  0  0
  -28.0562  -12.3163   18.6640 C   0  0  0  0  0  0
  -27.6326  -13.2345   19.8413 C   0  0  2  0  0  0
  -28.6764  -13.2515   20.9757 C   0  0  0  0  0  0
  -25.2497  -13.8172   20.5717 C   0  0  0  0  0  0
  -24.1790  -13.0422   20.9222 C   0  0  0  0  0  0
  -24.6391  -11.6901   20.8755 C   0  0  0  0  0  0
  -23.9067  -10.4285   21.0419 C   0  0  0  0  0  0
  -24.3617   -9.4204   21.9200 C   0  0  0  0  0  0
  -23.6289   -8.2241   22.0762 C   0  0  0  0  0  0
  -22.4271   -8.0283   21.3546 C   0  0  0  0  0  0
  -21.9910   -9.0254   20.4650 C   0  0  0  0  0  0
  -22.7241  -10.2130   20.3066 C   0  0  0  0  0  0
  -21.6851   -6.0736   22.5275 C   0  0  0  0  0  0
  -21.4018   -6.5638   23.8211 C   0  0  0  0  0  0
  -21.3662   -5.6790   24.9173 C   0  0  0  0  0  0
  -21.6039   -4.3053   24.7228 C   0  0  0  0  0  0
  -21.8816   -3.8148   23.4350 C   0  0  0  0  0  0
  -21.9196   -4.6965   22.3403 C   0  0  0  0  0  0
  -22.7814  -13.5215   21.1876 C   0  0  0  0  0  0
  -22.1664   -4.2145   21.0983 F   0  0  0  0  0  0
  -21.5632   -3.4545   25.7749 F   0  0  0  0  0  0
  -29.9675  -13.6458   20.3954 N   0  0  0  0  0  0
  -26.2907  -12.9366   20.3261 N   0  0  0  0  0  0
  -25.9315  -11.6514   20.5743 N   0  0  0  0  0  0
  -22.0447  -12.8204   22.0426 N   0  0  0  0  0  0
  -25.4196  -15.1909   20.4165 N   0  0  0  0  0  0
  -31.7327  -15.0041   20.1627 O   0  0  0  0  0  0
  -21.6631   -6.8884   21.4240 O   0  0  0  0  0  0
  -22.3503  -14.5521   20.6725 O   0  0  0  0  0  0
  -24.6397  -31.8459   23.1883 C   0  0  0  0  0  0
  -25.9188  -32.4697   23.8263 C   0  0  1  0  0  0
  -27.2264  -27.1671   20.1528 C   0  0  0  0  0  0
  -25.5945  -33.8503   24.2185 N   0  0  0  0  0  0
  -23.4418  -30.4638   21.5341 C   0  0  2  0  0  0
  -24.8937  -28.8940   20.1096 C   0  0  0  0  0  0
  -22.7543  -29.4557   22.4883 C   0  0  0  0  0  0
  -18.0302  -28.1384   22.8472 C   0  0  0  0  0  0
  -24.1498  -36.7266   23.2641 C   0  0  0  0  0  0
  -25.9947  -30.7302   21.3824 C   0  0  0  0  0  0
  -26.0685  -29.3438   20.7255 C   0  0  0  0  0  0
  -27.2351  -28.4959   20.7306 C   0  0  0  0  0  0
  -26.0276  -26.8134   19.4927 C   0  0  0  0  0  0
  -24.8850  -27.6414   19.4775 C   0  0  0  0  0  0
  -23.6646  -29.7873   20.1548 C   0  0  0  0  0  0
  -25.4129  -36.3035   24.0311 C   0  0  1  0  0  0
  -20.5906  -28.3709   23.1241 C   0  0  2  0  0  0
  -20.6787  -26.9416   22.5401 C   0  0  0  0  0  0
  -19.5766  -26.6374   21.5203 C   0  0  0  0  0  0
  -18.1948  -26.7921   22.1614 C   0  0  0  0  0  0
  -19.1556  -28.8866   23.2844 C   0  0  0  0  0  0
  -18.9473  -30.1465   23.8865 C   0  0  0  0  0  0
  -17.6472  -30.6583   24.0553 C   0  0  0  0  0  0
  -25.9074  -34.9412   23.5061 C   0  0  0  0  0  0
  -16.5361  -29.9071   23.6335 C   0  0  0  0  0  0
  -16.7283  -28.6491   23.0354 C   0  0  0  0  0  0
  -26.4516  -31.6552   25.0697 C   0  0  0  0  0  0
  -25.3701  -31.3741   26.1391 C   0  0  0  0  0  0
  -27.0375  -30.2945   24.6266 C   0  0  0  0  0  0
  -27.6041  -32.4316   25.7492 C   0  0  0  0  0  0
  -27.5580  -37.1789   24.8460 C   0  0  0  0  0  0
  -21.4241  -29.3038   22.3618 N   0  0  0  0  0  0
  -26.4293  -37.3743   23.9399 N   0  0  0  0  0  0
  -24.7116  -31.0338   22.0902 N   0  0  0  0  0  0
  -23.4200  -28.8122   23.3036 O   0  0  0  0  0  0
  -28.2912  -26.2044   20.2404 O   0  0  0  0  0  0
  -26.5661  -34.8905   22.4639 O   0  0  0  0  0  0
  -23.5525  -32.1326   23.7126 O   0  0  0  0  0  0
  -30.7374  -20.6176   21.2480 C   0  0  0  0  0  0
  -31.1697  -18.1626   21.2873 C   0  0  0  0  0  0
  -29.1756  -19.0662   20.2536 C   0  0  0  0  0  0
  -31.5373  -19.4983   21.6047 C   0  0  0  0  0  0
  -29.5180  -20.4710   20.5547 C   0  0  0  0  0  0
  -29.9779  -17.8647   20.5938 C   0  0  0  0  0  0
  -32.8377  -19.7299   22.3511 C   0  0  0  0  0  0
  -29.1442  -16.3730   18.7377 C   0  0  0  0  0  0
  -28.6384  -21.8011   20.1637 C   0  0  0  0  0  0
  -29.0216  -23.4039   20.4741 C   0  0  0  0  0  0
  -28.0279  -24.6900   20.0643 C   0  0  0  0  0  0
  -29.5865  -16.3097   20.2162 C   0  0  1  0  0  0
  -31.4895  -12.6966   19.2135 H   0  0  0  0  0  0
  -30.4335  -11.5965   20.0499 H   0  0  0  0  0  0
  -29.8419  -11.6648   17.6210 H   0  0  0  0  0  0
  -29.6684  -13.3913   17.6699 H   0  0  0  0  0  0
  -27.9155  -11.2725   18.9464 H   0  0  0  0  0  0
  -27.4125  -12.4868   17.8005 H   0  0  0  0  0  0
  -27.5824  -14.2373   19.4304 H   0  0  0  0  0  0
  -28.7496  -12.2733   21.4534 H   0  0  0  0  0  0
  -28.3825  -13.9527   21.7587 H   0  0  0  0  0  0
  -25.2765   -9.5685   22.4769 H   0  0  0  0  0  0
  -24.0002   -7.4630   22.7477 H   0  0  0  0  0  0
  -21.0853   -8.8776   19.8941 H   0  0  0  0  0  0
  -22.3717  -10.9672   19.6173 H   0  0  0  0  0  0
  -21.2006   -7.6144   23.9722 H   0  0  0  0  0  0
  -21.1487   -6.0518   25.9075 H   0  0  0  0  0  0
  -22.0597   -2.7609   23.2851 H   0  0  0  0  0  0
  -22.4062  -11.9866   22.4804 H   0  0  0  0  0  0
  -21.1067  -13.1239   22.2633 H   0  0  0  0  0  0
  -24.6559  -15.8470   20.5364 H   0  0  0  0  0  0
  -26.2720  -15.6337   20.0989 H   0  0  0  0  0  0
  -26.7253  -32.5313   23.0992 H   0  0  0  0  0  0
  -25.0060  -33.9617   25.0310 H   0  0  0  0  0  0
  -22.7428  -31.2882   21.3786 H   0  0  0  0  0  0
  -23.3757  -35.9600   23.3290 H   0  0  0  0  0  0
  -24.3580  -36.8914   22.2057 H   0  0  0  0  0  0
  -23.7260  -37.6463   23.6685 H   0  0  0  0  0  0
  -26.1459  -31.4859   20.6107 H   0  0  0  0  0  0
  -26.8657  -30.7797   22.0235 H   0  0  0  0  0  0
  -28.1288  -28.8354   21.2356 H   0  0  0  0  0  0
  -25.9407  -25.8560   19.0013 H   0  0  0  0  0  0
  -23.9890  -27.2908   18.9845 H   0  0  0  0  0  0
  -23.7868  -30.5566   19.3913 H   0  0  0  0  0  0
  -22.7824  -29.2178   19.8556 H   0  0  0  0  0  0
  -25.1321  -36.1865   25.0801 H   0  0  0  0  0  0
  -20.9991  -28.3294   24.1363 H   0  0  0  0  0  0
  -20.5681  -26.2321   23.3614 H   0  0  0  0  0  0
  -21.6657  -26.7429   22.1204 H   0  0  0  0  0  0
  -19.6936  -25.6281   21.1248 H   0  0  0  0  0  0
  -19.6705  -27.3170   20.6721 H   0  0  0  0  0  0
  -17.4215  -26.6652   21.4018 H   0  0  0  0  0  0
  -18.0356  -26.0065   22.9015 H   0  0  0  0  0  0
  -19.7950  -30.7285   24.2215 H   0  0  0  0  0  0
  -17.5027  -31.6262   24.5157 H   0  0  0  0  0  0
  -15.5363  -30.2964   23.7683 H   0  0  0  0  0  0
  -15.8684  -28.0803   22.7088 H   0  0  0  0  0  0
  -24.5878  -30.7094   25.7708 H   0  0  0  0  0  0
  -24.8894  -32.2925   26.4769 H   0  0  0  0  0  0
  -25.7984  -30.8938   27.0197 H   0  0  0  0  0  0
  -26.2983  -29.6669   24.1272 H   0  0  0  0  0  0
  -27.3983  -29.7245   25.4840 H   0  0  0  0  0  0
  -27.8895  -30.4176   23.9576 H   0  0  0  0  0  0
  -27.2618  -33.3625   26.2026 H   0  0  0  0  0  0
  -28.3878  -32.6861   25.0345 H   0  0  0  0  0  0
  -28.0671  -31.8467   26.5449 H   0  0  0  0  0  0
  -28.2587  -38.0098   24.7511 H   0  0  0  0  0  0
  -28.1091  -36.2625   24.6286 H   0  0  0  0  0  0
  -27.2293  -37.1437   25.8862 H   0  0  0  0  0  0
  -20.9453  -29.8727   21.6775 H   0  0  0  0  0  0
  -26.0165  -38.2817   24.1383 H   0  0  0  0  0  0
  -31.0691  -21.6130   21.5138 H   0  0  0  0  0  0
  -31.8241  -17.3525   21.5808 H   0  0  0  0  0  0
  -28.2453  -18.9070   19.7262 H   0  0  0  0  0  0
  -33.0723  -20.7924   22.4314 H   0  0  0  0  0  0
  -33.6666  -19.2421   21.8360 H   0  0  0  0  0  0
  -32.7760  -19.3214   23.3604 H   0  0  0  0  0  0
  -28.2102  -16.9222   18.6227 H   0  0  0  0  0  0
  -28.9899  -15.3981   18.2858 H   0  0  0  0  0  0
  -29.9009  -16.8724   18.1321 H   0  0  0  0  0  0
  -27.6516  -21.6288   20.5940 H   0  0  0  0  0  0
  -28.4812  -21.7312   19.0866 H   0  0  0  0  0  0
  -29.9897  -23.5934   20.0103 H   0  0  0  0  0  0
  -29.2049  -23.4824   21.5459 H   0  0  0  0  0  0
  -27.0847  -24.4948   20.5762 H   0  0  0  0  0  0
  -27.8090  -24.5612   19.0040 H   0  0  0  0  0  0
  -28.7010  -16.1035   20.8169 H   0  0  0  0  0  0
  1 25  1  0  0  0
  1 30  2  0  0  0
  1 82  1  0  0  0
  2  3  1  0  0  0
  2 25  1  0  0  0
  2 83  1  0  0  0
  2 84  1  0  0  0
  3  4  1  0  0  0
  3 85  1  0  0  0
  3 86  1  0  0  0
  4  5  1  0  0  0
  4 87  1  0  0  0
  4 88  1  0  0  0
  5  6  1  0  0  0
  5 26  1  0  0  0
  5 89  1  0  0  0
  6 25  1  0  0  0
  6 90  1  0  0  0
  6 91  1  0  0  0
  7  8  2  0  0  0
  7 26  1  0  0  0
  7 29  1  0  0  0
  8  9  1  0  0  0
  8 22  1  0  0  0
  9 10  1  0  0  0
  9 27  2  0  0  0
 10 11  2  0  0  0
 10 15  1  0  0  0
 11 12  1  0  0  0
 11 92  1  0  0  0
 12 13  2  0  0  0
 12 93  1  0  0  0
 13 14  1  0  0  0
 13 31  1  0  0  0
 14 15  2  0  0  0
 14 94  1  0  0  0
 15 95  1  0  0  0
 16 17  2  0  0  0
 16 21  1  0  0  0
 16 31  1  0  0  0
 17 18  1  0  0  0
 17 96  1  0  0  0
 18 19  2  0  0  0
 18 97  1  0  0  0
 19 20  1  0  0  0
 19 24  1  0  0  0
 20 21  2  0  0  0
 20 98  1  0  0  0
 21 23  1  0  0  0
 22 28  1  0  0  0
 22 32  2  0  0  0
 26 27  1  0  0  0
 28 99  1  0  0  0
 28100  1  0  0  0
 29101  1  0  0  0
 29102  1  0  0  0
 33 34  1  0  0  0
 33 66  1  0  0  0
 33 70  2  0  0  0
 34 36  1  0  0  0
 34 59  1  0  0  0
 34103  1  0  0  0
 35 44  2  0  0  0
 35 45  1  0  0  0
 35 68  1  0  0  0
 36 56  1  0  0  0
 36104  1  0  0  0
 37 39  1  0  0  0
 37 47  1  0  0  0
 37 66  1  0  0  0
 37105  1  0  0  0
 38 43  2  0  0  0
 38 46  1  0  0  0
 38 47  1  0  0  0
 39 64  1  0  0  0
 39 67  2  0  0  0
 40 52  1  0  0  0
 40 53  2  0  0  0
 40 58  1  0  0  0
 41106  1  0  0  0
 41107  1  0  0  0
 41108  1  0  0  0
 41 48  1  0  0  0
 42 43  1  0  0  0
 42 66  1  0  0  0
 42109  1  0  0  0
 42110  1  0  0  0
 43 44  1  0  0  0
 44111  1  0  0  0
 45 46  2  0  0  0
 45112  1  0  0  0
 46113  1  0  0  0
 47114  1  0  0  0
 47115  1  0  0  0
 48 56  1  0  0  0
 48 65  1  0  0  0
 48116  1  0  0  0
 49 50  1  0  0  0
 49 53  1  0  0  0
 49 64  1  0  0  0
 49117  1  0  0  0
 50 51  1  0  0  0
 50118  1  0  0  0
 50119  1  0  0  0
 51 52  1  0  0  0
 51120  1  0  0  0
 51121  1  0  0  0
 52122  1  0  0  0
 52123  1  0  0  0
 53 54  1  0  0  0
 54 55  2  0  0  0
 54124  1  0  0  0
 55 57  1  0  0  0
 55125  1  0  0  0
 56 69  2  0  0  0
 57 58  2  0  0  0
 57126  1  0  0  0
 58127  1  0  0  0
 59 60  1  0  0  0
 59 61  1  0  0  0
 59 62  1  0  0  0
 60128  1  0  0  0
 60129  1  0  0  0
 60130  1  0  0  0
 61131  1  0  0  0
 61132  1  0  0  0
 61133  1  0  0  0
 62134  1  0  0  0
 62135  1  0  0  0
 62136  1  0  0  0
 63 65  1  0  0  0
 63137  1  0  0  0
 63138  1  0  0  0
 63139  1  0  0  0
 64140  1  0  0  0
 65141  1  0  0  0
 68 81  1  0  0  0
 71 74  2  0  0  0
 71 75  1  0  0  0
 71142  1  0  0  0
 72 74  1  0  0  0
 72 76  2  0  0  0
 72143  1  0  0  0
 73 75  2  0  0  0
 73 76  1  0  0  0
 73144  1  0  0  0
 74 77  1  0  0  0
 75 79  1  0  0  0
 76 82  1  0  0  0
 77145  1  0  0  0
 77146  1  0  0  0
 77147  1  0  0  0
 78148  1  0  0  0
 78149  1  0  0  0
 78150  1  0  0  0
 78 82  1  0  0  0
 79 80  1  0  0  0
 79151  1  0  0  0
 79152  1  0  0  0
 80 81  1  0  0  0
 80153  1  0  0  0
 80154  1  0  0  0
 81155  1  0  0  0
 81156  1  0  0  0
 82157  1  0  0  0
M  ISO  4   1 100  68 101  81 101  82 100
M  END
> <chiral flag>
0

> <version>
0

> <s_m_source_file>
/data/baiqing/PycharmProjects/Reinvent-master-3.2/result/LINK_invent/BTK/process_docking_weight1_custom_sum_contain_oxygen_bond_distance_aromatic_linkinvent_7_9_3/rearranged_h_0101.sdf

> <i_m_source_file_index>
64

> <r_mmod_Potential_Energy-OPLS-2005>
493.729766845703

> <r_mmod_Stretch_Energy-OPLS-2005>
237.804428100586

> <r_mmod_Bend_Energy-OPLS-2005>
233.793762207031

> <r_mmod_Torsional_Energy-OPLS-2005>
197.035858154297

> <r_mmod_Improper_Torsional_Energy-OPLS-2005>
8.23527526855469

> <r_mmod_Van_der_Waal_Energy-OPLS-2005>
129.297729492188

> <r_mmod_Electrostatic_Energy-OPLS-2005>
-292.6044921875

> <r_mmod_Solvation_Energy-OPLS-2005>
-194.513031005859

> <b_mmod_Minimization_Converged-OPLS-2005>
0

> <r_mmod_RMS_Derivative-OPLS-2005>
1.36992061138153

$$$$
64
                    3D
 Structure written by MMmdl.
175183  0  0  1  0            999 V2000
  -30.6518  -14.6750   20.4817 C   0  0  0  0  0  0
  -30.4301  -12.4128   19.4672 C   0  0  0  0  0  0
  -29.5088  -12.4995   18.2314 C   0  0  0  0  0  0
  -28.0319  -12.3404   18.6415 C   0  0  0  0  0  0
  -27.6472  -13.2319   19.8532 C   0  0  2  0  0  0
  -28.6921  -13.1418   20.9881 C   0  0  0  0  0  0
  -25.2542  -13.8213   20.5714 C   0  0  0  0  0  0
  -24.1830  -13.0457   20.9226 C   0  0  0  0  0  0
  -24.6414  -11.6933   20.8757 C   0  0  0  0  0  0
  -23.9089  -10.4310   21.0414 C   0  0  0  0  0  0
  -24.3635   -9.4215   21.9188 C   0  0  0  0  0  0
  -23.6313   -8.2250   22.0752 C   0  0  0  0  0  0
  -22.4289   -8.0291   21.3543 C   0  0  0  0  0  0
  -21.9937   -9.0265   20.4645 C   0  0  0  0  0  0
  -22.7269  -10.2145   20.3061 C   0  0  0  0  0  0
  -21.6856   -6.0749   22.5284 C   0  0  0  0  0  0
  -21.4004   -6.5649   23.8218 C   0  0  0  0  0  0
  -21.3654   -5.6793   24.9180 C   0  0  0  0  0  0
  -21.6044   -4.3057   24.7212 C   0  0  0  0  0  0
  -21.8825   -3.8153   23.4336 C   0  0  0  0  0  0
  -21.9187   -4.6977   22.3396 C   0  0  0  0  0  0
  -22.7840  -13.5228   21.1868 C   0  0  0  0  0  0
  -22.1663   -4.2169   21.0974 F   0  0  0  0  0  0
  -21.5629   -3.4525   25.7719 F   0  0  0  0  0  0
  -30.0033  -13.4674   20.4132 N   0  0  0  0  0  0
  -26.2969  -12.9427   20.3301 N   0  0  0  0  0  0
  -25.9343  -11.6561   20.5754 N   0  0  0  0  0  0
  -22.0469  -12.8218   22.0422 N   0  0  0  0  0  0
  -25.4218  -15.1943   20.4141 N   0  0  0  0  0  0
  -31.8311  -14.7729   20.1332 O   0  0  0  0  0  0
  -21.6639   -6.8895   21.4249 O   0  0  0  0  0  0
  -22.3518  -14.5511   20.6687 O   0  0  0  0  0  0
  -24.6312  -31.8579   23.2020 C   0  0  0  0  0  0
  -25.9150  -32.4763   23.8352 C   0  0  1  0  0  0
  -27.2123  -27.2893   20.1146 C   0  0  0  0  0  0
  -25.5991  -33.8567   24.2283 N   0  0  0  0  0  0
  -23.4236  -30.4852   21.5418 C   0  0  2  0  0  0
  -24.8643  -28.9371   20.1062 C   0  0  0  0  0  0
  -22.7504  -29.4612   22.4883 C   0  0  0  0  0  0
  -18.0304  -28.1384   22.8477 C   0  0  0  0  0  0
  -24.1503  -36.7263   23.2634 C   0  0  0  0  0  0
  -25.9686  -30.7787   21.3776 C   0  0  0  0  0  0
  -26.0346  -29.4060   20.7136 C   0  0  0  0  0  0
  -27.2081  -28.5936   20.7075 C   0  0  0  0  0  0
  -26.0118  -26.8743   19.4937 C   0  0  0  0  0  0
  -24.8569  -27.6791   19.4865 C   0  0  0  0  0  0
  -23.6404  -29.8268   20.1539 C   0  0  0  0  0  0
  -25.4127  -36.3062   24.0334 C   0  0  1  0  0  0
  -20.5909  -28.3692   23.1254 C   0  0  2  0  0  0
  -20.6793  -26.9412   22.5382 C   0  0  0  0  0  0
  -19.5774  -26.6385   21.5186 C   0  0  0  0  0  0
  -18.1952  -26.7937   22.1596 C   0  0  0  0  0  0
  -19.1558  -28.8854   23.2867 C   0  0  0  0  0  0
  -18.9474  -30.1449   23.8896 C   0  0  0  0  0  0
  -17.6469  -30.6576   24.0556 C   0  0  0  0  0  0
  -25.9071  -34.9439   23.5092 C   0  0  0  0  0  0
  -16.5359  -29.9080   23.6322 C   0  0  0  0  0  0
  -16.7291  -28.6491   23.0362 C   0  0  0  0  0  0
  -26.4539  -31.6591   25.0734 C   0  0  0  0  0  0
  -25.3778  -31.3728   26.1462 C   0  0  0  0  0  0
  -27.0354  -30.3003   24.6208 C   0  0  0  0  0  0
  -27.6110  -32.4330   25.7494 C   0  0  0  0  0  0
  -27.5587  -37.1784   24.8466 C   0  0  0  0  0  0
  -21.4217  -29.3048   22.3634 N   0  0  0  0  0  0
  -26.4288  -37.3770   23.9423 N   0  0  0  0  0  0
  -24.6922  -31.0591   22.0954 N   0  0  0  0  0  0
  -23.4224  -28.8143   23.2953 O   0  0  0  0  0  0
  -28.3404  -26.4511   20.1997 O   0  0  0  0  0  0
  -26.5594  -34.8911   22.4633 O   0  0  0  0  0  0
  -23.5466  -32.1361   23.7354 O   0  0  0  0  0  0
  -29.5597  -19.7338   20.1896 C   0  0  0  0  0  0
  -28.1754  -20.8966   21.7849 C   0  0  0  0  0  0
  -28.8948  -20.9643   20.5730 C   0  0  0  0  0  0
  -29.5389  -18.5108   20.9587 C   0  0  0  0  0  0
  -28.8484  -18.5550   22.1982 C   0  0  0  0  0  0
  -28.1595  -19.7319   22.6017 C   0  0  0  0  0  0
  -28.8875  -17.3534   23.1383 C   0  0  0  0  0  0
  -25.4758  -19.4164   25.9364 C   0  0  0  0  0  0
  -27.6599  -20.5053   26.6566 C   0  0  0  0  0  0
  -30.3740  -17.2377   20.5053 C   0  0  0  0  0  0
  -28.6242  -23.7535   20.4703 C   0  0  0  0  0  0
  -30.0935  -22.4329   18.7697 C   0  0  0  0  0  0
  -28.4272  -25.0947   19.5892 C   0  0  0  0  0  0
  -26.8110  -20.8340   24.2883 C   0  0  0  0  0  0
  -28.8710  -22.3269   19.7247 C   0  0  1  0  0  0
  -26.4167  -20.6186   25.7598 C   0  0  0  0  0  0
  -29.9131  -15.8095   20.7257 N   0  0  0  0  0  0
  -30.0189  -21.5283   17.6079 N   0  3  0  0  0  0
  -27.5070  -19.6841   23.8174 O   0  0  0  0  0  0
  -31.4741  -12.5196   19.1659 H   0  0  0  0  0  0
  -30.3562  -11.4307   19.9356 H   0  0  0  0  0  0
  -29.7820  -11.7328   17.5052 H   0  0  0  0  0  0
  -29.6507  -13.4572   17.7299 H   0  0  0  0  0  0
  -27.8746  -11.2910   18.8897 H   0  0  0  0  0  0
  -27.3781  -12.5520   17.7943 H   0  0  0  0  0  0
  -27.6499  -14.2583   19.4855 H   0  0  0  0  0  0
  -28.7121  -12.1407   21.4192 H   0  0  0  0  0  0
  -28.4411  -13.8217   21.8042 H   0  0  0  0  0  0
  -25.2783   -9.5677   22.4749 H   0  0  0  0  0  0
  -24.0016   -7.4638   22.7470 H   0  0  0  0  0  0
  -21.0861   -8.8783   19.8958 H   0  0  0  0  0  0
  -22.3732  -10.9670   19.6155 H   0  0  0  0  0  0
  -21.1992   -7.6155   23.9726 H   0  0  0  0  0  0
  -21.1473   -6.0520   25.9087 H   0  0  0  0  0  0
  -22.0604   -2.7616   23.2812 H   0  0  0  0  0  0
  -22.4068  -11.9873   22.4800 H   0  0  0  0  0  0
  -21.1076  -13.1240   22.2597 H   0  0  0  0  0  0
  -24.6534  -15.8450   20.5357 H   0  0  0  0  0  0
  -26.2617  -15.6365   20.0629 H   0  0  0  0  0  0
  -26.7219  -32.5401   23.1093 H   0  0  0  0  0  0
  -25.0302  -33.9727   25.0543 H   0  0  0  0  0  0
  -22.7169  -31.3055   21.4013 H   0  0  0  0  0  0
  -23.3787  -35.9573   23.3285 H   0  0  0  0  0  0
  -24.3601  -36.8882   22.2047 H   0  0  0  0  0  0
  -23.7227  -37.6451   23.6662 H   0  0  0  0  0  0
  -26.1191  -31.5469   20.6176 H   0  0  0  0  0  0
  -26.8422  -30.8122   22.0173 H   0  0  0  0  0  0
  -28.1064  -28.9507   21.1916 H   0  0  0  0  0  0
  -25.9083  -25.9076   19.0289 H   0  0  0  0  0  0
  -23.9581  -27.3115   19.0087 H   0  0  0  0  0  0
  -23.7766  -30.6089   19.4055 H   0  0  0  0  0  0
  -22.7569  -29.2701   19.8383 H   0  0  0  0  0  0
  -25.1313  -36.1897   25.0827 H   0  0  0  0  0  0
  -21.0011  -28.3263   24.1372 H   0  0  0  0  0  0
  -20.5681  -26.2308   23.3583 H   0  0  0  0  0  0
  -21.6664  -26.7438   22.1182 H   0  0  0  0  0  0
  -19.6938  -25.6294   21.1228 H   0  0  0  0  0  0
  -19.6730  -27.3174   20.6701 H   0  0  0  0  0  0
  -17.4229  -26.6698   21.3987 H   0  0  0  0  0  0
  -18.0348  -26.0064   22.8980 H   0  0  0  0  0  0
  -19.7951  -30.7259   24.2280 H   0  0  0  0  0  0
  -17.5028  -31.6259   24.5159 H   0  0  0  0  0  0
  -15.5359  -30.2984   23.7638 H   0  0  0  0  0  0
  -15.8700  -28.0793   22.7105 H   0  0  0  0  0  0
  -24.6006  -30.7015   25.7803 H   0  0  0  0  0  0
  -24.8912  -32.2877   26.4850 H   0  0  0  0  0  0
  -25.8118  -30.8962   27.0259 H   0  0  0  0  0  0
  -26.2892  -29.6759   24.1274 H   0  0  0  0  0  0
  -27.4065  -29.7275   25.4715 H   0  0  0  0  0  0
  -27.8794  -30.4276   23.9421 H   0  0  0  0  0  0
  -27.2752  -33.3664   26.2036 H   0  0  0  0  0  0
  -28.3937  -32.6823   25.0315 H   0  0  0  0  0  0
  -28.0773  -31.8474   26.5428 H   0  0  0  0  0  0
  -28.2579  -38.0100   24.7529 H   0  0  0  0  0  0
  -28.1098  -36.2628   24.6272 H   0  0  0  0  0  0
  -27.2310  -37.1400   25.8865 H   0  0  0  0  0  0
  -20.9386  -29.8782   21.6863 H   0  0  0  0  0  0
  -26.0163  -38.2841   24.1434 H   0  0  0  0  0  0
  -30.1376  -19.6911   19.2836 H   0  0  0  0  0  0
  -27.6329  -21.7747   22.0909 H   0  0  0  0  0  0
  -29.9167  -17.0205   23.2728 H   0  0  0  0  0  0
  -28.2988  -16.5291   22.7371 H   0  0  0  0  0  0
  -28.5032  -17.5648   24.1352 H   0  0  0  0  0  0
  -25.1647  -19.3052   26.9756 H   0  0  0  0  0  0
  -25.9543  -18.4835   25.6342 H   0  0  0  0  0  0
  -24.5743  -19.5344   25.3340 H   0  0  0  0  0  0
  -27.3905  -20.4356   27.7107 H   0  0  0  0  0  0
  -28.3052  -21.3768   26.5415 H   0  0  0  0  0  0
  -28.2516  -19.6238   26.4065 H   0  0  0  0  0  0
  -31.3472  -17.3352   20.9913 H   0  0  0  0  0  0
  -30.5811  -17.3427   19.4394 H   0  0  0  0  0  0
  -27.7286  -23.6743   21.0847 H   0  0  0  0  0  0
  -29.4428  -23.9202   21.1709 H   0  0  0  0  0  0
  -31.0203  -22.2678   19.3225 H   0  0  0  0  0  0
  -30.1798  -23.4240   18.3369 H   0  0  0  0  0  0
  -27.6533  -24.9055   18.8508 H   0  0  0  0  0  0
  -29.3202  -25.2105   18.9809 H   0  0  0  0  0  0
  -27.4364  -21.7257   24.2282 H   0  0  0  0  0  0
  -25.9233  -21.0021   23.6760 H   0  0  0  0  0  0
  -27.9908  -22.2177   19.0886 H   0  0  0  0  0  0
  -25.8698  -21.5089   26.0737 H   0  0  0  0  0  0
  -28.9419  -15.6758   20.9605 H   0  0  0  0  0  0
  -30.0138  -20.5679   17.8969 H   0  0  0  0  0  0
  -30.8187  -21.6768   17.0170 H   0  0  0  0  0  0
  -29.1933  -21.7093   17.0655 H   0  0  0  0  0  0
  1 25  1  0  0  0
  1 30  2  0  0  0
  1 87  1  0  0  0
  2  3  1  0  0  0
  2 25  1  0  0  0
  2 90  1  0  0  0
  2 91  1  0  0  0
  3  4  1  0  0  0
  3 92  1  0  0  0
  3 93  1  0  0  0
  4  5  1  0  0  0
  4 94  1  0  0  0
  4 95  1  0  0  0
  5  6  1  0  0  0
  5 26  1  0  0  0
  5 96  1  0  0  0
  6 25  1  0  0  0
  6 97  1  0  0  0
  6 98  1  0  0  0
  7  8  2  0  0  0
  7 26  1  0  0  0
  7 29  1  0  0  0
  8  9  1  0  0  0
  8 22  1  0  0  0
  9 10  1  0  0  0
  9 27  2  0  0  0
 10 11  2  0  0  0
 10 15  1  0  0  0
 11 12  1  0  0  0
 11 99  1  0  0  0
 12 13  2  0  0  0
 12100  1  0  0  0
 13 14  1  0  0  0
 13 31  1  0  0  0
 14 15  2  0  0  0
 14101  1  0  0  0
 15102  1  0  0  0
 16 17  2  0  0  0
 16 21  1  0  0  0
 16 31  1  0  0  0
 17 18  1  0  0  0
 17103  1  0  0  0
 18 19  2  0  0  0
 18104  1  0  0  0
 19 20  1  0  0  0
 19 24  1  0  0  0
 20 21  2  0  0  0
 20105  1  0  0  0
 21 23  1  0  0  0
 22 28  1  0  0  0
 22 32  2  0  0  0
 26 27  1  0  0  0
 28106  1  0  0  0
 28107  1  0  0  0
 29108  1  0  0  0
 29109  1  0  0  0
 33 34  1  0  0  0
 33 66  1  0  0  0
 33 70  2  0  0  0
 34 36  1  0  0  0
 34 59  1  0  0  0
 34110  1  0  0  0
 35 44  2  0  0  0
 35 45  1  0  0  0
 35 68  1  0  0  0
 36 56  1  0  0  0
 36111  1  0  0  0
 37 39  1  0  0  0
 37 47  1  0  0  0
 37 66  1  0  0  0
 37112  1  0  0  0
 38 43  2  0  0  0
 38 46  1  0  0  0
 38 47  1  0  0  0
 39 64  1  0  0  0
 39 67  2  0  0  0
 40 52  1  0  0  0
 40 53  2  0  0  0
 40 58  1  0  0  0
 41113  1  0  0  0
 41114  1  0  0  0
 41115  1  0  0  0
 41 48  1  0  0  0
 42 43  1  0  0  0
 42 66  1  0  0  0
 42116  1  0  0  0
 42117  1  0  0  0
 43 44  1  0  0  0
 44118  1  0  0  0
 45 46  2  0  0  0
 45119  1  0  0  0
 46120  1  0  0  0
 47121  1  0  0  0
 47122  1  0  0  0
 48 56  1  0  0  0
 48 65  1  0  0  0
 48123  1  0  0  0
 49 50  1  0  0  0
 49 53  1  0  0  0
 49 64  1  0  0  0
 49124  1  0  0  0
 50 51  1  0  0  0
 50125  1  0  0  0
 50126  1  0  0  0
 51 52  1  0  0  0
 51127  1  0  0  0
 51128  1  0  0  0
 52129  1  0  0  0
 52130  1  0  0  0
 53 54  1  0  0  0
 54 55  2  0  0  0
 54131  1  0  0  0
 55 57  1  0  0  0
 55132  1  0  0  0
 56 69  2  0  0  0
 57 58  2  0  0  0
 57133  1  0  0  0
 58134  1  0  0  0
 59 60  1  0  0  0
 59 61  1  0  0  0
 59 62  1  0  0  0
 60135  1  0  0  0
 60136  1  0  0  0
 60137  1  0  0  0
 61138  1  0  0  0
 61139  1  0  0  0
 61140  1  0  0  0
 62141  1  0  0  0
 62142  1  0  0  0
 62143  1  0  0  0
 63 65  1  0  0  0
 63144  1  0  0  0
 63145  1  0  0  0
 63146  1  0  0  0
 64147  1  0  0  0
 65148  1  0  0  0
 68 83  1  0  0  0
 71 73  2  0  0  0
 71 74  1  0  0  0
 71149  1  0  0  0
 72 73  1  0  0  0
 72 76  2  0  0  0
 72150  1  0  0  0
 73 85  1  0  0  0
 74 75  2  0  0  0
 74 80  1  0  0  0
 75 76  1  0  0  0
 75 77  1  0  0  0
 76 89  1  0  0  0
 77151  1  0  0  0
 77152  1  0  0  0
 77153  1  0  0  0
 78154  1  0  0  0
 78155  1  0  0  0
 78156  1  0  0  0
 78 86  1  0  0  0
 79 86  1  0  0  0
 79157  1  0  0  0
 79158  1  0  0  0
 79159  1  0  0  0
 80 87  1  0  0  0
 80160  1  0  0  0
 80161  1  0  0  0
 81 83  1  0  0  0
 81162  1  0  0  0
 81163  1  0  0  0
 81 85  1  0  0  0
 82 85  1  0  0  0
 82 88  1  0  0  0
 82164  1  0  0  0
 82165  1  0  0  0
 83166  1  0  0  0
 83167  1  0  0  0
 84 86  1  0  0  0
 84 89  1  0  0  0
 84168  1  0  0  0
 84169  1  0  0  0
 85170  1  0  0  0
 86171  1  0  0  0
 87172  1  0  0  0
 88173  1  0  0  0
 88174  1  0  0  0
 88175  1  0  0  0
M  CHG  1  88   1
M  ISO  4   1 100  68 101  83 101  87 100
M  END
> <chiral flag>
0

> <version>
0

> <s_m_source_file>
/data/baiqing/PycharmProjects/Reinvent-master-3.2/result/LINK_invent/BTK/process_docking_weight1_custom_sum_contain_oxygen_bond_distance_aromatic_linkinvent_7_9_3/rearranged_h_0101.sdf

> <i_m_source_file_index>
65

> <r_mmod_Potential_Energy-OPLS-2005>
-166.642593383789

> <r_mmod_Stretch_Energy-OPLS-2005>
112.078407287598

> <r_mmod_Bend_Energy-OPLS-2005>
178.783599853516

> <r_mmod_Torsional_Energy-OPLS-2005>
218.400909423828

> <r_mmod_Improper_Torsional_Energy-OPLS-2005>
5.65309906005859

> <r_mmod_Van_der_Waal_Energy-OPLS-2005>
156.229721069336

> <r_mmod_Electrostatic_Energy-OPLS-2005>
-387.494964599609

> <r_mmod_Solvation_Energy-OPLS-2005>
-512.71337890625

> <b_mmod_Minimization_Converged-OPLS-2005>
0

> <r_mmod_RMS_Derivative-OPLS-2005>
2.4507839679718

$$$$
65
                    3D
 Structure written by MMmdl.
197206  0  0  1  0            999 V2000
  -30.7354  -14.4128   20.6165 C   0  0  0  0  0  0
  -30.4149  -12.2917   19.4019 C   0  0  0  0  0  0
  -29.4852  -12.5173   18.1939 C   0  0  0  0  0  0
  -28.0073  -12.3808   18.6096 C   0  0  0  0  0  0
  -27.6633  -13.2056   19.8791 C   0  0  2  0  0  0
  -28.7047  -12.9595   20.9933 C   0  0  0  0  0  0
  -25.2586  -13.8168   20.5680 C   0  0  0  0  0  0
  -24.1830  -13.0437   20.9172 C   0  0  0  0  0  0
  -24.6384  -11.6910   20.8729 C   0  0  0  0  0  0
  -23.9046  -10.4294   21.0397 C   0  0  0  0  0  0
  -24.3599   -9.4212   21.9179 C   0  0  0  0  0  0
  -23.6289   -8.2249   22.0751 C   0  0  0  0  0  0
  -22.4268   -8.0278   21.3541 C   0  0  0  0  0  0
  -21.9900   -9.0242   20.4637 C   0  0  0  0  0  0
  -22.7227  -10.2133   20.3049 C   0  0  0  0  0  0
  -21.6847   -6.0729   22.5275 C   0  0  0  0  0  0
  -21.4011   -6.5630   23.8209 C   0  0  0  0  0  0
  -21.3663   -5.6789   24.9173 C   0  0  0  0  0  0
  -21.6048   -4.3054   24.7222 C   0  0  0  0  0  0
  -21.8823   -3.8144   23.4346 C   0  0  0  0  0  0
  -21.9192   -4.6959   22.3401 C   0  0  0  0  0  0
  -22.7857  -13.5243   21.1841 C   0  0  0  0  0  0
  -22.1661   -4.2143   21.0981 F   0  0  0  0  0  0
  -21.5632   -3.4545   25.7738 F   0  0  0  0  0  0
  -30.0385  -13.2590   20.4429 N   0  0  0  0  0  0
  -26.3028  -12.9331   20.3388 N   0  0  0  0  0  0
  -25.9310  -11.6488   20.5767 N   0  0  0  0  0  0
  -22.0493  -12.8222   22.0387 N   0  0  0  0  0  0
  -25.4324  -15.1881   20.4103 N   0  0  0  0  0  0
  -31.8216  -14.6283   20.0712 O   0  0  0  0  0  0
  -21.6637   -6.8871   21.4238 O   0  0  0  0  0  0
  -22.3546  -14.5549   20.6699 O   0  0  0  0  0  0
  -24.6144  -31.8681   23.2084 C   0  0  0  0  0  0
  -25.9058  -32.4805   23.8380 C   0  0  1  0  0  0
  -27.2387  -27.4475   20.0971 C   0  0  0  0  0  0
  -25.5946  -33.8606   24.2323 N   0  0  0  0  0  0
  -23.4003  -30.4908   21.5481 C   0  0  2  0  0  0
  -24.8485  -28.9579   20.1102 C   0  0  0  0  0  0
  -22.7403  -29.4660   22.4985 C   0  0  0  0  0  0
  -18.0279  -28.1338   22.8438 C   0  0  0  0  0  0
  -24.1490  -36.7314   23.2635 C   0  0  0  0  0  0
  -25.9259  -30.8401   21.3552 C   0  0  0  0  0  0
  -26.0066  -29.4748   20.7042 C   0  0  0  0  0  0
  -27.2054  -28.7283   20.6900 C   0  0  0  0  0  0
  -26.0672  -26.9480   19.4831 C   0  0  0  0  0  0
  -24.8746  -27.6947   19.4926 C   0  0  0  0  0  0
  -23.6067  -29.8189   20.1623 C   0  0  0  0  0  0
  -25.4115  -36.3097   24.0325 C   0  0  1  0  0  0
  -20.5857  -28.3642   23.1279 C   0  0  2  0  0  0
  -20.6741  -26.9362   22.5407 C   0  0  0  0  0  0
  -19.5755  -26.6352   21.5157 C   0  0  0  0  0  0
  -18.1921  -26.7889   22.1551 C   0  0  0  0  0  0
  -19.1522  -28.8806   23.2852 C   0  0  0  0  0  0
  -18.9459  -30.1408   23.8869 C   0  0  0  0  0  0
  -17.6467  -30.6535   24.0548 C   0  0  0  0  0  0
  -25.9055  -34.9463   23.5112 C   0  0  0  0  0  0
  -16.5358  -29.9036   23.6310 C   0  0  0  0  0  0
  -16.7272  -28.6466   23.0299 C   0  0  0  0  0  0
  -26.4521  -31.6563   25.0683 C   0  0  0  0  0  0
  -25.3820  -31.3618   26.1443 C   0  0  0  0  0  0
  -27.0352  -30.3022   24.5997 C   0  0  0  0  0  0
  -27.6085  -32.4288   25.7466 C   0  0  0  0  0  0
  -27.5577  -37.1800   24.8457 C   0  0  0  0  0  0
  -21.4132  -29.3037   22.3716 N   0  0  0  0  0  0
  -26.4288  -37.3787   23.9408 N   0  0  0  0  0  0
  -24.6648  -31.0804   22.0969 N   0  0  0  0  0  0
  -23.4176  -28.8194   23.3012 O   0  0  0  0  0  0
  -28.4069  -26.7160   20.1276 O   0  0  0  0  0  0
  -26.5581  -34.8911   22.4651 O   0  0  0  0  0  0
  -23.5348  -32.1427   23.7501 O   0  0  0  0  0  0
  -28.4891  -20.8372   22.3492 C   0  0  0  0  0  0
  -27.8437  -21.8936   21.6615 C   0  0  0  0  0  0
  -29.5011  -20.3483   21.5816 C   0  0  0  0  0  0
  -28.4613  -22.0409   20.4402 C   0  0  0  0  0  0
  -31.7219  -17.8930   23.7079 C   0  0  0  0  0  0
  -31.0544  -16.5868   23.2755 C   0  0  0  0  0  0
  -29.7976  -17.8266   21.4745 C   0  0  0  0  0  0
  -30.4236  -19.1823   21.9075 C   0  0  2  0  0  0
  -30.8458  -19.1329   23.4100 C   0  0  2  0  0  0
  -30.7242  -16.6266   21.7809 C   0  0  2  0  0  0
  -26.6679  -22.6540   22.2228 C   0  0  0  0  0  0
  -27.9249  -22.3852   17.9121 C   0  0  0  0  0  0
  -32.7285  -21.8353   25.6027 C   0  0  0  0  0  0
  -30.6670  -20.5260   26.2450 C   0  0  0  0  0  0
  -31.9062  -22.5546   18.0407 C   0  0  0  0  0  0
  -31.8902  -22.6983   20.5537 C   0  0  0  0  0  0
  -33.0444  -20.8206   19.4007 C   0  0  0  0  0  0
  -31.5720  -20.4322   23.8490 C   0  0  0  0  0  0
  -28.6249  -24.4178   19.2751 C   0  0  0  0  0  0
  -30.4946  -20.8770   19.3180 C   0  0  0  0  0  0
  -28.2769  -25.3257   20.4675 C   0  0  0  0  0  0
  -28.0082  -22.9915   19.3239 C   0  0  2  0  0  0
  -31.9174  -20.5561   25.3504 C   0  0  0  0  0  0
  -31.8050  -21.7392   19.3460 C   0  0  0  0  0  0
  -29.5251  -21.1060   20.4012 N   0  0  0  0  0  0
  -30.1428  -15.3387   21.3858 N   0  0  0  0  0  0
  -31.4588  -12.3859   19.0973 H   0  0  0  0  0  0
  -30.3087  -11.2736   19.7809 H   0  0  0  0  0  0
  -29.7156  -11.8066   17.3991 H   0  0  0  0  0  0
  -29.6566  -13.5102   17.7748 H   0  0  0  0  0  0
  -27.8090  -11.3233   18.7901 H   0  0  0  0  0  0
  -27.3558  -12.6754   17.7850 H   0  0  0  0  0  0
  -27.7175  -14.2585   19.6007 H   0  0  0  0  0  0
  -28.6738  -11.9168   21.3151 H   0  0  0  0  0  0
  -28.4655  -13.5421   21.8832 H   0  0  0  0  0  0
  -25.2744   -9.5698   22.4749 H   0  0  0  0  0  0
  -23.9995   -7.4646   22.7480 H   0  0  0  0  0  0
  -21.0831   -8.8761   19.8943 H   0  0  0  0  0  0
  -22.3681  -10.9662   19.6153 H   0  0  0  0  0  0
  -21.2002   -7.6135   23.9706 H   0  0  0  0  0  0
  -21.1481   -6.0520   25.9073 H   0  0  0  0  0  0
  -22.0599   -2.7607   23.2851 H   0  0  0  0  0  0
  -22.4096  -11.9870   22.4744 H   0  0  0  0  0  0
  -21.1117  -13.1246   22.2599 H   0  0  0  0  0  0
  -24.6708  -15.8488   20.5215 H   0  0  0  0  0  0
  -26.2946  -15.6255   20.1087 H   0  0  0  0  0  0
  -26.7114  -32.5541   23.1138 H   0  0  0  0  0  0
  -25.0159  -33.9786   25.0504 H   0  0  0  0  0  0
  -22.6861  -31.3052   21.4068 H   0  0  0  0  0  0
  -23.3743  -35.9652   23.3308 H   0  0  0  0  0  0
  -24.3580  -36.8942   22.2045 H   0  0  0  0  0  0
  -23.7255  -37.6520   23.6668 H   0  0  0  0  0  0
  -26.0283  -31.6021   20.5814 H   0  0  0  0  0  0
  -26.8164  -30.9022   21.9677 H   0  0  0  0  0  0
  -28.1002  -29.1218   21.1512 H   0  0  0  0  0  0
  -26.0690  -25.9829   18.9949 H   0  0  0  0  0  0
  -23.9868  -27.2949   19.0236 H   0  0  0  0  0  0
  -23.7077  -30.5906   19.3986 H   0  0  0  0  0  0
  -22.7328  -29.2317   19.8734 H   0  0  0  0  0  0
  -25.1290  -36.1952   25.0813 H   0  0  0  0  0  0
  -20.9929  -28.3204   24.1408 H   0  0  0  0  0  0
  -20.5545  -26.2256   23.3606 H   0  0  0  0  0  0
  -21.6627  -26.7347   22.1271 H   0  0  0  0  0  0
  -19.6923  -25.6256   21.1196 H   0  0  0  0  0  0
  -19.6709  -27.3144   20.6664 H   0  0  0  0  0  0
  -17.4192  -26.6625   21.3948 H   0  0  0  0  0  0
  -18.0346  -26.0012   22.8930 H   0  0  0  0  0  0
  -19.7943  -30.7215   24.2222 H   0  0  0  0  0  0
  -17.5030  -31.6214   24.5153 H   0  0  0  0  0  0
  -15.5358  -30.2928   23.7659 H   0  0  0  0  0  0
  -15.8667  -28.0812   22.6973 H   0  0  0  0  0  0
  -24.6075  -30.6858   25.7815 H   0  0  0  0  0  0
  -24.8918  -32.2731   26.4867 H   0  0  0  0  0  0
  -25.8246  -30.8862   27.0202 H   0  0  0  0  0  0
  -26.2839  -29.6731   24.1205 H   0  0  0  0  0  0
  -27.4334  -29.7302   25.4390 H   0  0  0  0  0  0
  -27.8582  -30.4370   23.8973 H   0  0  0  0  0  0
  -27.2702  -33.3592   26.2040 H   0  0  0  0  0  0
  -28.3919  -32.6834   25.0317 H   0  0  0  0  0  0
  -28.0725  -31.8406   26.5398 H   0  0  0  0  0  0
  -28.2585  -38.0101   24.7509 H   0  0  0  0  0  0
  -28.1083  -36.2633   24.6280 H   0  0  0  0  0  0
  -27.2303  -37.1456   25.8860 H   0  0  0  0  0  0
  -20.9286  -29.8835   21.7003 H   0  0  0  0  0  0
  -26.0174  -38.2863   24.1404 H   0  0  0  0  0  0
  -28.2253  -20.4581   23.3277 H   0  0  0  0  0  0
  -32.6869  -17.9911   23.2084 H   0  0  0  0  0  0
  -31.9328  -17.8172   24.7736 H   0  0  0  0  0  0
  -30.1502  -16.4197   23.8628 H   0  0  0  0  0  0
  -31.7211  -15.7510   23.4929 H   0  0  0  0  0  0
  -29.5771  -17.8541   20.4066 H   0  0  0  0  0  0
  -28.8401  -17.6945   21.9808 H   0  0  0  0  0  0
  -31.3513  -19.2986   21.3533 H   0  0  0  0  0  0
  -29.9323  -19.0289   23.9949 H   0  0  0  0  0  0
  -31.6558  -16.7923   21.2356 H   0  0  0  0  0  0
  -26.2420  -22.1198   23.0736 H   0  0  0  0  0  0
  -25.8767  -22.7831   21.4854 H   0  0  0  0  0  0
  -26.9859  -23.6304   22.5832 H   0  0  0  0  0  0
  -27.5534  -21.3598   17.9333 H   0  0  0  0  0  0
  -28.8785  -22.4141   17.3889 H   0  0  0  0  0  0
  -27.2353  -22.9597   17.2917 H   0  0  0  0  0  0
  -33.0230  -21.9193   26.6495 H   0  0  0  0  0  0
  -32.1574  -22.7281   25.3450 H   0  0  0  0  0  0
  -33.6435  -21.8439   25.0083 H   0  0  0  0  0  0
  -30.9281  -20.6629   27.2947 H   0  0  0  0  0  0
  -30.1429  -19.5728   26.1739 H   0  0  0  0  0  0
  -29.9641  -21.3144   25.9723 H   0  0  0  0  0  0
  -32.8183  -23.1519   18.0062 H   0  0  0  0  0  0
  -31.0704  -23.2386   17.9190 H   0  0  0  0  0  0
  -31.9154  -21.9017   17.1660 H   0  0  0  0  0  0
  -32.8055  -23.2903   20.5308 H   0  0  0  0  0  0
  -31.8859  -22.1495   21.4940 H   0  0  0  0  0  0
  -31.0565  -23.3954   20.5842 H   0  0  0  0  0  0
  -33.9688  -21.3987   19.3680 H   0  0  0  0  0  0
  -33.0700  -20.1268   18.5597 H   0  0  0  0  0  0
  -33.0750  -20.2323   20.3171 H   0  0  0  0  0  0
  -30.9708  -21.2991   23.5762 H   0  0  0  0  0  0
  -32.4901  -20.5229   23.2670 H   0  0  0  0  0  0
  -29.7020  -24.3905   19.1404 H   0  0  0  0  0  0
  -28.2401  -24.9106   18.3801 H   0  0  0  0  0  0
  -30.7510  -19.8181   19.3199 H   0  0  0  0  0  0
  -29.9926  -20.9592   18.3637 H   0  0  0  0  0  0
  -28.9446  -25.1075   21.3021 H   0  0  0  0  0  0
  -27.2768  -25.0981   20.8343 H   0  0  0  0  0  0
  -26.9556  -23.1794   19.5334 H   0  0  0  0  0  0
  -32.5606  -19.7251   25.6421 H   0  0  0  0  0  0
  -29.2470  -15.0890   21.7780 H   0  0  0  0  0  0
  1 25  1  0  0  0
  1 30  2  0  0  0
  1 96  1  0  0  0
  2  3  1  0  0  0
  2 25  1  0  0  0
  2 97  1  0  0  0
  2 98  1  0  0  0
  3  4  1  0  0  0
  3 99  1  0  0  0
  3100  1  0  0  0
  4  5  1  0  0  0
  4101  1  0  0  0
  4102  1  0  0  0
  5  6  1  0  0  0
  5 26  1  0  0  0
  5103  1  0  0  0
  6 25  1  0  0  0
  6104  1  0  0  0
  6105  1  0  0  0
  7  8  2  0  0  0
  7 26  1  0  0  0
  7 29  1  0  0  0
  8  9  1  0  0  0
  8 22  1  0  0  0
  9 10  1  0  0  0
  9 27  2  0  0  0
 10 11  2  0  0  0
 10 15  1  0  0  0
 11 12  1  0  0  0
 11106  1  0  0  0
 12 13  2  0  0  0
 12107  1  0  0  0
 13 14  1  0  0  0
 13 31  1  0  0  0
 14 15  2  0  0  0
 14108  1  0  0  0
 15109  1  0  0  0
 16 17  2  0  0  0
 16 21  1  0  0  0
 16 31  1  0  0  0
 17 18  1  0  0  0
 17110  1  0  0  0
 18 19  2  0  0  0
 18111  1  0  0  0
 19 20  1  0  0  0
 19 24  1  0  0  0
 20 21  2  0  0  0
 20112  1  0  0  0
 21 23  1  0  0  0
 22 28  1  0  0  0
 22 32  2  0  0  0
 26 27  1  0  0  0
 28113  1  0  0  0
 28114  1  0  0  0
 29115  1  0  0  0
 29116  1  0  0  0
 33 34  1  0  0  0
 33 66  1  0  0  0
 33 70  2  0  0  0
 34 36  1  0  0  0
 34 59  1  0  0  0
 34117  1  0  0  0
 35 44  2  0  0  0
 35 45  1  0  0  0
 35 68  1  0  0  0
 36 56  1  0  0  0
 36118  1  0  0  0
 37 39  1  0  0  0
 37 47  1  0  0  0
 37 66  1  0  0  0
 37119  1  0  0  0
 38 43  2  0  0  0
 38 46  1  0  0  0
 38 47  1  0  0  0
 39 64  1  0  0  0
 39 67  2  0  0  0
 40 52  1  0  0  0
 40 53  2  0  0  0
 40 58  1  0  0  0
 41120  1  0  0  0
 41121  1  0  0  0
 41122  1  0  0  0
 41 48  1  0  0  0
 42 43  1  0  0  0
 42 66  1  0  0  0
 42123  1  0  0  0
 42124  1  0  0  0
 43 44  1  0  0  0
 44125  1  0  0  0
 45 46  2  0  0  0
 45126  1  0  0  0
 46127  1  0  0  0
 47128  1  0  0  0
 47129  1  0  0  0
 48 56  1  0  0  0
 48 65  1  0  0  0
 48130  1  0  0  0
 49 50  1  0  0  0
 49 53  1  0  0  0
 49 64  1  0  0  0
 49131  1  0  0  0
 50 51  1  0  0  0
 50132  1  0  0  0
 50133  1  0  0  0
 51 52  1  0  0  0
 51134  1  0  0  0
 51135  1  0  0  0
 52136  1  0  0  0
 52137  1  0  0  0
 53 54  1  0  0  0
 54 55  2  0  0  0
 54138  1  0  0  0
 55 57  1  0  0  0
 55139  1  0  0  0
 56 69  2  0  0  0
 57 58  2  0  0  0
 57140  1  0  0  0
 58141  1  0  0  0
 59 60  1  0  0  0
 59 61  1  0  0  0
 59 62  1  0  0  0
 60142  1  0  0  0
 60143  1  0  0  0
 60144  1  0  0  0
 61145  1  0  0  0
 61146  1  0  0  0
 61147  1  0  0  0
 62148  1  0  0  0
 62149  1  0  0  0
 62150  1  0  0  0
 63 65  1  0  0  0
 63151  1  0  0  0
 63152  1  0  0  0
 63153  1  0  0  0
 64154  1  0  0  0
 65155  1  0  0  0
 68 91  1  0  0  0
 71 72  1  0  0  0
 71 73  2  0  0  0
 71156  1  0  0  0
 72 74  2  0  0  0
 72 81  1  0  0  0
 73 95  1  0  0  0
 73 78  1  0  0  0
 74 92  1  0  0  0
 74 95  1  0  0  0
 75 76  1  0  0  0
 75 79  1  0  0  0
 75157  1  0  0  0
 75158  1  0  0  0
 76 80  1  0  0  0
 76159  1  0  0  0
 76160  1  0  0  0
 77 78  1  0  0  0
 77 80  1  0  0  0
 77161  1  0  0  0
 77162  1  0  0  0
 78 79  1  0  0  0
 78163  1  0  0  0
 79 88  1  0  0  0
 79164  1  0  0  0
 80 96  1  0  0  0
 80165  1  0  0  0
 81166  1  0  0  0
 81167  1  0  0  0
 81168  1  0  0  0
 82169  1  0  0  0
 82170  1  0  0  0
 82171  1  0  0  0
 82 92  1  0  0  0
 83172  1  0  0  0
 83173  1  0  0  0
 83174  1  0  0  0
 83 93  1  0  0  0
 84 93  1  0  0  0
 84175  1  0  0  0
 84176  1  0  0  0
 84177  1  0  0  0
 85178  1  0  0  0
 85179  1  0  0  0
 85180  1  0  0  0
 85 94  1  0  0  0
 86 94  1  0  0  0
 86181  1  0  0  0
 86182  1  0  0  0
 86183  1  0  0  0
 87 94  1  0  0  0
 87184  1  0  0  0
 87185  1  0  0  0
 87186  1  0  0  0
 88 93  1  0  0  0
 88187  1  0  0  0
 88188  1  0  0  0
 89 91  1  0  0  0
 89 92  1  0  0  0
 89189  1  0  0  0
 89190  1  0  0  0
 90 94  1  0  0  0
 90 95  1  0  0  0
 90191  1  0  0  0
 90192  1  0  0  0
 91193  1  0  0  0
 91194  1  0  0  0
 92195  1  0  0  0
 93196  1  0  0  0
 96197  1  0  0  0
M  ISO  4   1 100  68 101  91 101  96 100
M  END
> <chiral flag>
0

> <version>
0

> <s_m_source_file>
/data/baiqing/PycharmProjects/Reinvent-master-3.2/result/LINK_invent/BTK/process_docking_weight1_custom_sum_contain_oxygen_bond_distance_aromatic_linkinvent_7_9_3/rearranged_h_0101.sdf

> <i_m_source_file_index>
66

> <r_mmod_Potential_Energy-OPLS-2005>
15.4105195999146

> <r_mmod_Stretch_Energy-OPLS-2005>
46.8334197998047

> <r_mmod_Bend_Energy-OPLS-2005>
138.82975769043

> <r_mmod_Torsional_Energy-OPLS-2005>
272.098114013672

> <r_mmod_Improper_Torsional_Energy-OPLS-2005>
2.12839269638062

> <r_mmod_Van_der_Waal_Energy-OPLS-2005>
129.661468505859

> <r_mmod_Electrostatic_Energy-OPLS-2005>
-403.544525146484

> <r_mmod_Solvation_Energy-OPLS-2005>
-179.829528808594

> <b_mmod_Minimization_Converged-OPLS-2005>
0

> <r_mmod_RMS_Derivative-OPLS-2005>
2.06811928749084

$$$$
66
                    3D
 Structure written by MMmdl.
171179  0  0  1  0            999 V2000
  -30.6333  -14.6948   20.4659 C   0  0  0  0  0  0
  -30.4346  -12.4215   19.4687 C   0  0  0  0  0  0
  -29.5118  -12.5057   18.2329 C   0  0  0  0  0  0
  -28.0359  -12.3411   18.6455 C   0  0  0  0  0  0
  -27.6486  -13.2300   19.8584 C   0  0  2  0  0  0
  -28.6974  -13.1351   20.9916 C   0  0  0  0  0  0
  -25.2531  -13.8176   20.5752 C   0  0  0  0  0  0
  -24.1817  -13.0431   20.9250 C   0  0  0  0  0  0
  -24.6403  -11.6908   20.8760 C   0  0  0  0  0  0
  -23.9073  -10.4286   21.0402 C   0  0  0  0  0  0
  -24.3624   -9.4204   21.9176 C   0  0  0  0  0  0
  -23.6305   -8.2235   22.0733 C   0  0  0  0  0  0
  -22.4279   -8.0274   21.3536 C   0  0  0  0  0  0
  -21.9922   -9.0245   20.4627 C   0  0  0  0  0  0
  -22.7247  -10.2130   20.3043 C   0  0  0  0  0  0
  -21.6845   -6.0740   22.5288 C   0  0  0  0  0  0
  -21.4004   -6.5641   23.8219 C   0  0  0  0  0  0
  -21.3668   -5.6795   24.9184 C   0  0  0  0  0  0
  -21.6053   -4.3056   24.7234 C   0  0  0  0  0  0
  -21.8819   -3.8151   23.4354 C   0  0  0  0  0  0
  -21.9189   -4.6968   22.3412 C   0  0  0  0  0  0
  -22.7832  -13.5202   21.1913 C   0  0  0  0  0  0
  -22.1653   -4.2161   21.0987 F   0  0  0  0  0  0
  -21.5643   -3.4540   25.7745 F   0  0  0  0  0  0
  -30.0059  -13.4736   20.4166 N   0  0  0  0  0  0
  -26.2977  -12.9395   20.3329 N   0  0  0  0  0  0
  -25.9334  -11.6541   20.5764 N   0  0  0  0  0  0
  -22.0471  -12.8177   22.0450 N   0  0  0  0  0  0
  -25.4229  -15.1886   20.4209 N   0  0  0  0  0  0
  -31.8034  -14.8136   20.0939 O   0  0  0  0  0  0
  -21.6639   -6.8876   21.4239 O   0  0  0  0  0  0
  -22.3515  -14.5514   20.6758 O   0  0  0  0  0  0
  -24.6299  -31.8570   23.2011 C   0  0  0  0  0  0
  -25.9131  -32.4769   23.8344 C   0  0  1  0  0  0
  -27.2235  -27.2782   20.1253 C   0  0  0  0  0  0
  -25.5926  -33.8570   24.2269 N   0  0  0  0  0  0
  -23.4259  -30.4817   21.5429 C   0  0  2  0  0  0
  -24.8738  -28.9335   20.1087 C   0  0  0  0  0  0
  -22.7492  -29.4622   22.4912 C   0  0  0  0  0  0
  -18.0296  -28.1387   22.8488 C   0  0  0  0  0  0
  -24.1480  -36.7291   23.2639 C   0  0  0  0  0  0
  -25.9703  -30.7751   21.3791 C   0  0  0  0  0  0
  -26.0435  -29.3990   20.7215 C   0  0  0  0  0  0
  -27.2186  -28.5823   20.7236 C   0  0  0  0  0  0
  -26.0319  -26.8880   19.4676 C   0  0  0  0  0  0
  -24.8723  -27.6850   19.4712 C   0  0  0  0  0  0
  -23.6428  -29.8167   20.1583 C   0  0  0  0  0  0
  -25.4105  -36.3083   24.0333 C   0  0  1  0  0  0
  -20.5897  -28.3702   23.1266 C   0  0  2  0  0  0
  -20.6779  -26.9419   22.5405 C   0  0  0  0  0  0
  -19.5755  -26.6381   21.5209 C   0  0  0  0  0  0
  -18.1938  -26.7930   22.1624 C   0  0  0  0  0  0
  -19.1550  -28.8860   23.2875 C   0  0  0  0  0  0
  -18.9472  -30.1461   23.8894 C   0  0  0  0  0  0
  -17.6471  -30.6588   24.0563 C   0  0  0  0  0  0
  -25.9049  -34.9450   23.5106 C   0  0  0  0  0  0
  -16.5362  -29.9086   23.6331 C   0  0  0  0  0  0
  -16.7283  -28.6502   23.0356 C   0  0  0  0  0  0
  -26.4495  -31.6595   25.0733 C   0  0  0  0  0  0
  -25.3709  -31.3759   26.1450 C   0  0  0  0  0  0
  -27.0338  -30.3010   24.6222 C   0  0  0  0  0  0
  -27.6052  -32.4328   25.7505 C   0  0  0  0  0  0
  -27.5579  -37.1796   24.8463 C   0  0  0  0  0  0
  -21.4202  -29.3055   22.3652 N   0  0  0  0  0  0
  -26.4281  -37.3782   23.9420 N   0  0  0  0  0  0
  -24.6943  -31.0549   22.0977 N   0  0  0  0  0  0
  -23.4195  -28.8156   23.3003 O   0  0  0  0  0  0
  -28.3204  -26.3880   20.2102 O   0  0  0  0  0  0
  -26.5623  -34.8924   22.4676 O   0  0  0  0  0  0
  -23.5451  -32.1379   23.7317 O   0  0  0  0  0  0
  -29.1099  -21.0147   20.4425 C   0  0  0  0  0  0
  -28.3474  -22.1635   18.4678 C   0  0  0  0  0  0
  -28.8303  -22.2734   19.7787 C   0  0  0  0  0  0
  -28.8190  -19.7058   19.8731 C   0  0  0  0  0  0
  -28.0178  -20.9292   17.8753 C   0  0  0  0  0  0
  -28.1601  -19.6948   18.5902 C   0  0  0  0  0  0
  -30.5582  -24.1158   20.0997 C   0  0  0  0  0  0
  -26.1272  -18.1202   18.6676 C   0  0  0  0  0  0
  -28.3387  -17.1958   17.7721 C   0  0  0  0  0  0
  -29.0315  -18.3633   20.7122 C   0  0  0  0  0  0
  -27.4804  -21.0293   16.4429 C   0  0  0  0  0  0
  -30.1755  -17.2702   20.3997 C   0  0  0  0  0  0
  -28.1212  -24.9428   19.8622 C   0  0  0  0  0  0
  -29.0930  -23.7392   20.3548 C   0  0  1  0  0  0
  -27.4723  -18.4382   17.9883 C   0  0  0  0  0  0
  -29.8652  -15.8101   20.7199 N   0  0  0  0  0  0
  -26.0126  -21.1021   16.4138 N   0  3  0  0  0  0
  -31.4773  -12.5342   19.1666 H   0  0  0  0  0  0
  -30.3648  -11.4392   19.9382 H   0  0  0  0  0  0
  -29.7860  -11.7409   17.5051 H   0  0  0  0  0  0
  -29.6506  -13.4668   17.7343 H   0  0  0  0  0  0
  -27.8831  -11.2907   18.8953 H   0  0  0  0  0  0
  -27.3805  -12.5498   17.7992 H   0  0  0  0  0  0
  -27.6487  -14.2577   19.4961 H   0  0  0  0  0  0
  -28.7224  -12.1294   21.4130 H   0  0  0  0  0  0
  -28.4452  -13.8043   21.8159 H   0  0  0  0  0  0
  -25.2763   -9.5695   22.4759 H   0  0  0  0  0  0
  -24.0035   -7.4619   22.7430 H   0  0  0  0  0  0
  -21.0866   -8.8752   19.8921 H   0  0  0  0  0  0
  -22.3694  -10.9672   19.6162 H   0  0  0  0  0  0
  -21.1970   -7.6143   23.9736 H   0  0  0  0  0  0
  -21.1499   -6.0515   25.9093 H   0  0  0  0  0  0
  -22.0589   -2.7610   23.2850 H   0  0  0  0  0  0
  -22.4078  -11.9841   22.4854 H   0  0  0  0  0  0
  -21.1074  -13.1175   22.2632 H   0  0  0  0  0  0
  -24.6560  -15.8410   20.5406 H   0  0  0  0  0  0
  -26.2650  -15.6251   20.0722 H   0  0  0  0  0  0
  -26.7201  -32.5427   23.1090 H   0  0  0  0  0  0
  -25.0053  -33.9698   25.0402 H   0  0  0  0  0  0
  -22.7228  -31.3046   21.3982 H   0  0  0  0  0  0
  -23.3752  -35.9612   23.3278 H   0  0  0  0  0  0
  -24.3580  -36.8935   22.2059 H   0  0  0  0  0  0
  -23.7210  -37.6479   23.6673 H   0  0  0  0  0  0
  -26.1049  -31.5360   20.6086 H   0  0  0  0  0  0
  -26.8495  -30.8259   22.0098 H   0  0  0  0  0  0
  -28.1100  -28.9317   21.2255 H   0  0  0  0  0  0
  -25.9564  -25.9434   18.9514 H   0  0  0  0  0  0
  -23.9787  -27.3272   18.9785 H   0  0  0  0  0  0
  -23.7627  -30.5926   19.4012 H   0  0  0  0  0  0
  -22.7621  -29.2471   19.8565 H   0  0  0  0  0  0
  -25.1279  -36.1931   25.0825 H   0  0  0  0  0  0
  -21.0003  -28.3280   24.1381 H   0  0  0  0  0  0
  -20.5666  -26.2316   23.3614 H   0  0  0  0  0  0
  -21.6648  -26.7430   22.1206 H   0  0  0  0  0  0
  -19.6913  -25.6287   21.1250 H   0  0  0  0  0  0
  -19.6692  -27.3182   20.6732 H   0  0  0  0  0  0
  -17.4205  -26.6684   21.4028 H   0  0  0  0  0  0
  -18.0342  -26.0067   22.9016 H   0  0  0  0  0  0
  -19.7949  -30.7282   24.2256 H   0  0  0  0  0  0
  -17.5026  -31.6273   24.5160 H   0  0  0  0  0  0
  -15.5363  -30.2989   23.7656 H   0  0  0  0  0  0
  -15.8683  -28.0819   22.7072 H   0  0  0  0  0  0
  -24.5890  -30.7100   25.7783 H   0  0  0  0  0  0
  -24.8891  -32.2935   26.4837 H   0  0  0  0  0  0
  -25.8010  -30.8964   27.0252 H   0  0  0  0  0  0
  -26.2928  -29.6763   24.1222 H   0  0  0  0  0  0
  -27.3992  -29.7271   25.4748 H   0  0  0  0  0  0
  -27.8816  -30.4285   23.9486 H   0  0  0  0  0  0
  -27.2673  -33.3640   26.2063 H   0  0  0  0  0  0
  -28.3877  -32.6864   25.0342 H   0  0  0  0  0  0
  -28.0702  -31.8461   26.5438 H   0  0  0  0  0  0
  -28.2586  -38.0106   24.7536 H   0  0  0  0  0  0
  -28.1087  -36.2642   24.6246 H   0  0  0  0  0  0
  -27.2312  -37.1395   25.8869 H   0  0  0  0  0  0
  -20.9379  -29.8788   21.6871 H   0  0  0  0  0  0
  -26.0164  -38.2856   24.1433 H   0  0  0  0  0  0
  -29.5316  -21.0528   21.4376 H   0  0  0  0  0  0
  -28.2047  -23.0572   17.8817 H   0  0  0  0  0  0
  -31.2340  -23.3698   20.5190 H   0  0  0  0  0  0
  -30.8034  -25.0755   20.5560 H   0  0  0  0  0  0
  -30.7659  -24.1907   19.0319 H   0  0  0  0  0  0
  -25.4665  -18.9869   18.6620 H   0  0  0  0  0  0
  -26.2303  -17.8124   19.7039 H   0  0  0  0  0  0
  -25.6045  -17.3172   18.1455 H   0  0  0  0  0  0
  -29.3368  -17.4564   17.4199 H   0  0  0  0  0  0
  -27.8883  -16.5525   17.0145 H   0  0  0  0  0  0
  -28.4097  -16.5856   18.6644 H   0  0  0  0  0  0
  -28.0813  -17.8409   20.7334 H   0  0  0  0  0  0
  -29.1684  -18.6682   21.7503 H   0  0  0  0  0  0
  -27.8560  -20.2258   15.8096 H   0  0  0  0  0  0
  -27.8669  -21.9338   15.9717 H   0  0  0  0  0  0
  -31.0844  -17.5562   20.9298 H   0  0  0  0  0  0
  -30.4638  -17.3222   19.3515 H   0  0  0  0  0  0
  -27.1292  -24.6403   20.1978 H   0  0  0  0  0  0
  -28.0936  -24.9446   18.7746 H   0  0  0  0  0  0
  -28.9640  -23.6633   21.4352 H   0  0  0  0  0  0
  -27.1766  -18.6482   16.9690 H   0  0  0  0  0  0
  -28.9261  -15.6159   21.0324 H   0  0  0  0  0  0
  -25.6032  -20.2750   16.8039 H   0  0  0  0  0  0
  -25.6985  -21.1973   15.4649 H   0  0  0  0  0  0
  -25.6962  -21.8984   16.9359 H   0  0  0  0  0  0
  1 25  1  0  0  0
  1 30  2  0  0  0
  1 86  1  0  0  0
  2  3  1  0  0  0
  2 25  1  0  0  0
  2 88  1  0  0  0
  2 89  1  0  0  0
  3  4  1  0  0  0
  3 90  1  0  0  0
  3 91  1  0  0  0
  4  5  1  0  0  0
  4 92  1  0  0  0
  4 93  1  0  0  0
  5  6  1  0  0  0
  5 26  1  0  0  0
  5 94  1  0  0  0
  6 25  1  0  0  0
  6 95  1  0  0  0
  6 96  1  0  0  0
  7  8  2  0  0  0
  7 26  1  0  0  0
  7 29  1  0  0  0
  8  9  1  0  0  0
  8 22  1  0  0  0
  9 10  1  0  0  0
  9 27  2  0  0  0
 10 11  2  0  0  0
 10 15  1  0  0  0
 11 12  1  0  0  0
 11 97  1  0  0  0
 12 13  2  0  0  0
 12 98  1  0  0  0
 13 14  1  0  0  0
 13 31  1  0  0  0
 14 15  2  0  0  0
 14 99  1  0  0  0
 15100  1  0  0  0
 16 17  2  0  0  0
 16 21  1  0  0  0
 16 31  1  0  0  0
 17 18  1  0  0  0
 17101  1  0  0  0
 18 19  2  0  0  0
 18102  1  0  0  0
 19 20  1  0  0  0
 19 24  1  0  0  0
 20 21  2  0  0  0
 20103  1  0  0  0
 21 23  1  0  0  0
 22 28  1  0  0  0
 22 32  2  0  0  0
 26 27  1  0  0  0
 28104  1  0  0  0
 28105  1  0  0  0
 29106  1  0  0  0
 29107  1  0  0  0
 33 34  1  0  0  0
 33 66  1  0  0  0
 33 70  2  0  0  0
 34 36  1  0  0  0
 34 59  1  0  0  0
 34108  1  0  0  0
 35 44  2  0  0  0
 35 45  1  0  0  0
 35 68  1  0  0  0
 36 56  1  0  0  0
 36109  1  0  0  0
 37 39  1  0  0  0
 37 47  1  0  0  0
 37 66  1  0  0  0
 37110  1  0  0  0
 38 43  2  0  0  0
 38 46  1  0  0  0
 38 47  1  0  0  0
 39 64  1  0  0  0
 39 67  2  0  0  0
 40 52  1  0  0  0
 40 53  2  0  0  0
 40 58  1  0  0  0
 41111  1  0  0  0
 41112  1  0  0  0
 41113  1  0  0  0
 41 48  1  0  0  0
 42 43  1  0  0  0
 42 66  1  0  0  0
 42114  1  0  0  0
 42115  1  0  0  0
 43 44  1  0  0  0
 44116  1  0  0  0
 45 46  2  0  0  0
 45117  1  0  0  0
 46118  1  0  0  0
 47119  1  0  0  0
 47120  1  0  0  0
 48 56  1  0  0  0
 48 65  1  0  0  0
 48121  1  0  0  0
 49 50  1  0  0  0
 49 53  1  0  0  0
 49 64  1  0  0  0
 49122  1  0  0  0
 50 51  1  0  0  0
 50123  1  0  0  0
 50124  1  0  0  0
 51 52  1  0  0  0
 51125  1  0  0  0
 51126  1  0  0  0
 52127  1  0  0  0
 52128  1  0  0  0
 53 54  1  0  0  0
 54 55  2  0  0  0
 54129  1  0  0  0
 55 57  1  0  0  0
 55130  1  0  0  0
 56 69  2  0  0  0
 57 58  2  0  0  0
 57131  1  0  0  0
 58132  1  0  0  0
 59 60  1  0  0  0
 59 61  1  0  0  0
 59 62  1  0  0  0
 60133  1  0  0  0
 60134  1  0  0  0
 60135  1  0  0  0
 61136  1  0  0  0
 61137  1  0  0  0
 61138  1  0  0  0
 62139  1  0  0  0
 62140  1  0  0  0
 62141  1  0  0  0
 63 65  1  0  0  0
 63142  1  0  0  0
 63143  1  0  0  0
 63144  1  0  0  0
 64145  1  0  0  0
 65146  1  0  0  0
 68 83  1  0  0  0
 71 73  2  0  0  0
 71 74  1  0  0  0
 71147  1  0  0  0
 72 73  1  0  0  0
 72 75  2  0  0  0
 72148  1  0  0  0
 73 84  1  0  0  0
 74 76  2  0  0  0
 74 80  1  0  0  0
 75 76  1  0  0  0
 75 81  1  0  0  0
 76 85  1  0  0  0
 77149  1  0  0  0
 77150  1  0  0  0
 77151  1  0  0  0
 77 84  1  0  0  0
 78152  1  0  0  0
 78153  1  0  0  0
 78154  1  0  0  0
 78 85  1  0  0  0
 79 85  1  0  0  0
 79155  1  0  0  0
 79156  1  0  0  0
 79157  1  0  0  0
 80 82  1  0  0  0
 80158  1  0  0  0
 80159  1  0  0  0
 81 87  1  0  0  0
 81160  1  0  0  0
 81161  1  0  0  0
 82 86  1  0  0  0
 82162  1  0  0  0
 82163  1  0  0  0
 83 84  1  0  0  0
 83164  1  0  0  0
 83165  1  0  0  0
 84166  1  0  0  0
 85167  1  0  0  0
 86168  1  0  0  0
 87169  1  0  0  0
 87170  1  0  0  0
 87171  1  0  0  0
M  CHG  1  87   1
M  ISO  4   1 100  68 101  83 101  86 100
M  END
> <chiral flag>
0

> <version>
0

> <s_m_source_file>
/data/baiqing/PycharmProjects/Reinvent-master-3.2/result/LINK_invent/BTK/process_docking_weight1_custom_sum_contain_oxygen_bond_distance_aromatic_linkinvent_7_9_3/rearranged_h_0101.sdf

> <i_m_source_file_index>
67

> <r_mmod_Potential_Energy-OPLS-2005>
-146.366317749023

> <r_mmod_Stretch_Energy-OPLS-2005>
123.743392944336

> <r_mmod_Bend_Energy-OPLS-2005>
171.925567626953

> <r_mmod_Torsional_Energy-OPLS-2005>
219.892288208008

> <r_mmod_Improper_Torsional_Energy-OPLS-2005>
6.58976459503174

> <r_mmod_Van_der_Waal_Energy-OPLS-2005>
146.911605834961

> <r_mmod_Electrostatic_Energy-OPLS-2005>
-381.194458007812

> <r_mmod_Solvation_Energy-OPLS-2005>
-505.200317382812

> <b_mmod_Minimization_Converged-OPLS-2005>
0

> <r_mmod_RMS_Derivative-OPLS-2005>
1.57373702526093

$$$$
67
                    3D
 Structure written by MMmdl.
172180  0  0  1  0            999 V2000
  -30.5399  -14.9352   20.4176 C   0  0  0  0  0  0
  -30.4385  -12.5818   19.4850 C   0  0  0  0  0  0
  -29.5147  -12.5178   18.2478 C   0  0  0  0  0  0
  -28.0511  -12.3004   18.6760 C   0  0  0  0  0  0
  -27.6274  -13.2396   19.8351 C   0  0  2  0  0  0
  -28.6714  -13.2697   20.9696 C   0  0  0  0  0  0
  -25.2481  -13.8147   20.5719 C   0  0  0  0  0  0
  -24.1780  -13.0409   20.9231 C   0  0  0  0  0  0
  -24.6385  -11.6892   20.8757 C   0  0  0  0  0  0
  -23.9066  -10.4271   21.0417 C   0  0  0  0  0  0
  -24.3617   -9.4192   21.9193 C   0  0  0  0  0  0
  -23.6293   -8.2227   22.0754 C   0  0  0  0  0  0
  -22.4274   -8.0271   21.3540 C   0  0  0  0  0  0
  -21.9908   -9.0249   20.4644 C   0  0  0  0  0  0
  -22.7238  -10.2130   20.3068 C   0  0  0  0  0  0
  -21.6854   -6.0736   22.5281 C   0  0  0  0  0  0
  -21.4011   -6.5640   23.8213 C   0  0  0  0  0  0
  -21.3656   -5.6793   24.9174 C   0  0  0  0  0  0
  -21.6045   -4.3058   24.7224 C   0  0  0  0  0  0
  -21.8818   -3.8148   23.4345 C   0  0  0  0  0  0
  -21.9188   -4.6963   22.3403 C   0  0  0  0  0  0
  -22.7816  -13.5215   21.1900 C   0  0  0  0  0  0
  -22.1659   -4.2150   21.0984 F   0  0  0  0  0  0
  -21.5628   -3.4542   25.7739 F   0  0  0  0  0  0
  -29.9438  -13.6788   20.3619 N   0  0  0  0  0  0
  -26.2886  -12.9376   20.3245 N   0  0  0  0  0  0
  -25.9312  -11.6515   20.5745 N   0  0  0  0  0  0
  -22.0466  -12.8193   22.0451 N   0  0  0  0  0  0
  -25.4195  -15.1830   20.4172 N   0  0  0  0  0  0
  -31.7506  -15.0012   20.1863 O   0  0  0  0  0  0
  -21.6633   -6.8874   21.4242 O   0  0  0  0  0  0
  -22.3510  -14.5538   20.6770 O   0  0  0  0  0  0
  -24.6423  -31.8442   23.1872 C   0  0  0  0  0  0
  -25.9198  -32.4696   23.8252 C   0  0  1  0  0  0
  -27.2179  -27.1426   20.1489 C   0  0  0  0  0  0
  -25.5956  -33.8506   24.2174 N   0  0  0  0  0  0
  -23.4453  -30.4647   21.5319 C   0  0  2  0  0  0
  -24.8955  -28.8919   20.1093 C   0  0  0  0  0  0
  -22.7562  -29.4554   22.4839 C   0  0  0  0  0  0
  -18.0301  -28.1389   22.8462 C   0  0  0  0  0  0
  -24.1492  -36.7261   23.2645 C   0  0  0  0  0  0
  -26.0017  -30.7219   21.3828 C   0  0  0  0  0  0
  -26.0728  -29.3328   20.7266 C   0  0  0  0  0  0
  -27.2345  -28.4734   20.7294 C   0  0  0  0  0  0
  -26.0153  -26.8038   19.4888 C   0  0  0  0  0  0
  -24.8799  -27.6419   19.4747 C   0  0  0  0  0  0
  -23.6721  -29.7933   20.1521 C   0  0  0  0  0  0
  -25.4114  -36.3022   24.0320 C   0  0  1  0  0  0
  -20.5909  -28.3717   23.1228 C   0  0  2  0  0  0
  -20.6789  -26.9419   22.5400 C   0  0  0  0  0  0
  -19.5774  -26.6365   21.5209 C   0  0  0  0  0  0
  -18.1944  -26.7919   22.1614 C   0  0  0  0  0  0
  -19.1556  -28.8866   23.2837 C   0  0  0  0  0  0
  -18.9491  -30.1459   23.8862 C   0  0  0  0  0  0
  -17.6492  -30.6586   24.0550 C   0  0  0  0  0  0
  -25.9067  -34.9408   23.5044 C   0  0  0  0  0  0
  -16.5379  -29.9085   23.6338 C   0  0  0  0  0  0
  -16.7283  -28.6513   23.0337 C   0  0  0  0  0  0
  -26.4517  -31.6562   25.0689 C   0  0  0  0  0  0
  -25.3714  -31.3774   26.1395 C   0  0  0  0  0  0
  -27.0384  -30.2963   24.6255 C   0  0  0  0  0  0
  -27.6043  -32.4331   25.7475 C   0  0  0  0  0  0
  -27.5571  -37.1778   24.8466 C   0  0  0  0  0  0
  -21.4251  -29.3063   22.3616 N   0  0  0  0  0  0
  -26.4271  -37.3745   23.9424 N   0  0  0  0  0  0
  -24.7167  -31.0316   22.0897 N   0  0  0  0  0  0
  -23.4211  -28.8095   23.2977 O   0  0  0  0  0  0
  -28.2701  -26.1580   20.2282 O   0  0  0  0  0  0
  -26.5652  -34.8914   22.4621 O   0  0  0  0  0  0
  -23.5547  -32.1313   23.7106 O   0  0  0  0  0  0
  -26.7027  -18.4963   19.3864 C   0  0  0  0  0  0
  -27.0336  -18.7060   21.5838 C   0  0  0  0  0  0
  -27.6951  -18.7099   20.3857 C   0  0  0  0  0  0
  -25.4777  -18.4141   19.9855 C   0  0  0  0  0  0
  -24.1264  -18.2237   19.3698 C   0  0  0  0  0  0
  -24.3724  -21.1214   22.1427 C   0  0  0  0  0  0
  -24.8438  -17.4101   23.3839 C   0  0  0  0  0  0
  -24.5622  -19.9337   23.1002 C   0  0  0  0  0  0
  -28.9851  -23.3195   20.3892 C   0  0  0  0  0  0
  -30.1139  -17.6491   20.6629 C   0  0  0  0  0  0
  -28.6123  -21.7008   20.0631 C   0  0  0  0  0  0
  -27.9940  -24.6376   20.0334 C   0  0  0  0  0  0
  -29.1692  -18.9512   20.1423 C   0  0  2  0  0  0
  -24.6430  -18.5649   22.3922 C   0  0  1  0  0  0
  -25.6746  -18.5522   21.3542 N   0  0  0  0  0  0
  -29.7557  -16.1133   20.5293 N   0  0  0  0  0  0
  -29.5086  -20.4615   20.4916 N   0  3  0  0  0  0
  -31.4699  -12.7455   19.1692 H   0  0  0  0  0  0
  -30.4360  -11.6314   20.0209 H   0  0  0  0  0  0
  -29.8318  -11.7153   17.5805 H   0  0  0  0  0  0
  -29.5950  -13.4429   17.6755 H   0  0  0  0  0  0
  -27.9582  -11.2618   18.9959 H   0  0  0  0  0  0
  -27.3797  -12.4158   17.8239 H   0  0  0  0  0  0
  -27.5893  -14.2391   19.4028 H   0  0  0  0  0  0
  -28.7606  -12.2955   21.4520 H   0  0  0  0  0  0
  -28.3730  -13.9750   21.7471 H   0  0  0  0  0  0
  -25.2766   -9.5665   22.4755 H   0  0  0  0  0  0
  -24.0002   -7.4617   22.7465 H   0  0  0  0  0  0
  -21.0839   -8.8765   19.8947 H   0  0  0  0  0  0
  -22.3696  -10.9671   19.6172 H   0  0  0  0  0  0
  -21.2008   -7.6149   23.9717 H   0  0  0  0  0  0
  -21.1478   -6.0526   25.9078 H   0  0  0  0  0  0
  -22.0601   -2.7611   23.2849 H   0  0  0  0  0  0
  -22.4095  -11.9828   22.4778 H   0  0  0  0  0  0
  -21.1099  -13.1210   22.2701 H   0  0  0  0  0  0
  -24.6693  -15.8431   20.5779 H   0  0  0  0  0  0
  -26.2702  -15.6439   20.1245 H   0  0  0  0  0  0
  -26.7256  -32.5306   23.0972 H   0  0  0  0  0  0
  -25.0111  -33.9623   25.0328 H   0  0  0  0  0  0
  -22.7477  -31.2904   21.3748 H   0  0  0  0  0  0
  -23.3764  -35.9587   23.3264 H   0  0  0  0  0  0
  -24.3581  -36.8925   22.2068 H   0  0  0  0  0  0
  -23.7239  -37.6446   23.6704 H   0  0  0  0  0  0
  -26.1489  -31.4750   20.6068 H   0  0  0  0  0  0
  -26.8771  -30.7770   22.0191 H   0  0  0  0  0  0
  -28.1298  -28.8052   21.2361 H   0  0  0  0  0  0
  -25.9172  -25.8493   18.9949 H   0  0  0  0  0  0
  -23.9818  -27.2994   18.9795 H   0  0  0  0  0  0
  -23.8113  -30.5679   19.3971 H   0  0  0  0  0  0
  -22.7871  -29.2376   19.8384 H   0  0  0  0  0  0
  -25.1297  -36.1831   25.0813 H   0  0  0  0  0  0
  -20.9988  -28.3291   24.1354 H   0  0  0  0  0  0
  -20.5678  -26.2332   23.3618 H   0  0  0  0  0  0
  -21.6650  -26.7415   22.1208 H   0  0  0  0  0  0
  -19.6951  -25.6276   21.1250 H   0  0  0  0  0  0
  -19.6707  -27.3158   20.6730 H   0  0  0  0  0  0
  -17.4214  -26.6652   21.4013 H   0  0  0  0  0  0
  -18.0335  -26.0059   22.9008 H   0  0  0  0  0  0
  -19.7979  -30.7275   24.2189 H   0  0  0  0  0  0
  -17.5069  -31.6259   24.5169 H   0  0  0  0  0  0
  -15.5388  -30.2995   23.7689 H   0  0  0  0  0  0
  -15.8675  -28.0847   22.7049 H   0  0  0  0  0  0
  -24.5895  -30.7097   25.7743 H   0  0  0  0  0  0
  -24.8914  -32.2983   26.4733 H   0  0  0  0  0  0
  -25.8010  -30.9023   27.0223 H   0  0  0  0  0  0
  -26.3001  -29.6678   24.1263 H   0  0  0  0  0  0
  -27.4018  -29.7249   25.4808 H   0  0  0  0  0  0
  -27.8884  -30.4209   23.9541 H   0  0  0  0  0  0
  -27.2627  -33.3676   26.1935 H   0  0  0  0  0  0
  -28.3910  -32.6807   25.0334 H   0  0  0  0  0  0
  -28.0633  -31.8528   26.5485 H   0  0  0  0  0  0
  -28.2544  -38.0114   24.7508 H   0  0  0  0  0  0
  -28.1091  -36.2631   24.6252 H   0  0  0  0  0  0
  -27.2298  -37.1371   25.8873 H   0  0  0  0  0  0
  -20.9441  -29.8818   21.6845 H   0  0  0  0  0  0
  -26.0122  -38.2803   24.1453 H   0  0  0  0  0  0
  -26.8686  -18.4353   18.3192 H   0  0  0  0  0  0
  -27.4029  -18.8381   22.5928 H   0  0  0  0  0  0
  -24.2105  -18.0139   18.3033 H   0  0  0  0  0  0
  -23.5141  -19.1183   19.4843 H   0  0  0  0  0  0
  -23.5944  -17.3873   19.8240 H   0  0  0  0  0  0
  -24.2481  -22.0525   22.6952 H   0  0  0  0  0  0
  -23.4895  -20.9842   21.5180 H   0  0  0  0  0  0
  -25.2308  -21.2454   21.4824 H   0  0  0  0  0  0
  -24.0363  -17.3809   24.1153 H   0  0  0  0  0  0
  -25.7820  -17.5027   23.9297 H   0  0  0  0  0  0
  -24.8524  -16.4490   22.8703 H   0  0  0  0  0  0
  -23.7340  -19.9183   23.8094 H   0  0  0  0  0  0
  -25.4616  -20.0973   23.6944 H   0  0  0  0  0  0
  -29.9407  -23.5193   19.9042 H   0  0  0  0  0  0
  -29.1995  -23.3798   21.4568 H   0  0  0  0  0  0
  -30.2421  -17.7848   21.7368 H   0  0  0  0  0  0
  -31.1141  -17.7828   20.2495 H   0  0  0  0  0  0
  -28.4816  -21.6167   18.9836 H   0  0  0  0  0  0
  -27.6198  -21.5184   20.4764 H   0  0  0  0  0  0
  -27.0631  -24.4433   20.5683 H   0  0  0  0  0  0
  -27.7399  -24.5290   18.9794 H   0  0  0  0  0  0
  -29.2660  -18.9288   19.0557 H   0  0  0  0  0  0
  -23.6765  -18.4011   21.9172 H   0  0  0  0  0  0
  -28.7668  -15.9294   20.6122 H   0  0  0  0  0  0
  -29.5817  -20.4984   21.4937 H   0  0  0  0  0  0
  -30.4351  -20.6263   20.1350 H   0  0  0  0  0  0
  1 25  1  0  0  0
  1 30  2  0  0  0
  1 86  1  0  0  0
  2  3  1  0  0  0
  2 25  1  0  0  0
  2 88  1  0  0  0
  2 89  1  0  0  0
  3  4  1  0  0  0
  3 90  1  0  0  0
  3 91  1  0  0  0
  4  5  1  0  0  0
  4 92  1  0  0  0
  4 93  1  0  0  0
  5  6  1  0  0  0
  5 26  1  0  0  0
  5 94  1  0  0  0
  6 25  1  0  0  0
  6 95  1  0  0  0
  6 96  1  0  0  0
  7  8  2  0  0  0
  7 26  1  0  0  0
  7 29  1  0  0  0
  8  9  1  0  0  0
  8 22  1  0  0  0
  9 10  1  0  0  0
  9 27  2  0  0  0
 10 11  2  0  0  0
 10 15  1  0  0  0
 11 12  1  0  0  0
 11 97  1  0  0  0
 12 13  2  0  0  0
 12 98  1  0  0  0
 13 14  1  0  0  0
 13 31  1  0  0  0
 14 15  2  0  0  0
 14 99  1  0  0  0
 15100  1  0  0  0
 16 17  2  0  0  0
 16 21  1  0  0  0
 16 31  1  0  0  0
 17 18  1  0  0  0
 17101  1  0  0  0
 18 19  2  0  0  0
 18102  1  0  0  0
 19 20  1  0  0  0
 19 24  1  0  0  0
 20 21  2  0  0  0
 20103  1  0  0  0
 21 23  1  0  0  0
 22 28  1  0  0  0
 22 32  2  0  0  0
 26 27  1  0  0  0
 28104  1  0  0  0
 28105  1  0  0  0
 29106  1  0  0  0
 29107  1  0  0  0
 33 34  1  0  0  0
 33 66  1  0  0  0
 33 70  2  0  0  0
 34 36  1  0  0  0
 34 59  1  0  0  0
 34108  1  0  0  0
 35 44  2  0  0  0
 35 45  1  0  0  0
 35 68  1  0  0  0
 36 56  1  0  0  0
 36109  1  0  0  0
 37 39  1  0  0  0
 37 47  1  0  0  0
 37 66  1  0  0  0
 37110  1  0  0  0
 38 43  2  0  0  0
 38 46  1  0  0  0
 38 47  1  0  0  0
 39 64  1  0  0  0
 39 67  2  0  0  0
 40 52  1  0  0  0
 40 53  2  0  0  0
 40 58  1  0  0  0
 41111  1  0  0  0
 41112  1  0  0  0
 41113  1  0  0  0
 41 48  1  0  0  0
 42 43  1  0  0  0
 42 66  1  0  0  0
 42114  1  0  0  0
 42115  1  0  0  0
 43 44  1  0  0  0
 44116  1  0  0  0
 45 46  2  0  0  0
 45117  1  0  0  0
 46118  1  0  0  0
 47119  1  0  0  0
 47120  1  0  0  0
 48 56  1  0  0  0
 48 65  1  0  0  0
 48121  1  0  0  0
 49 50  1  0  0  0
 49 53  1  0  0  0
 49 64  1  0  0  0
 49122  1  0  0  0
 50 51  1  0  0  0
 50123  1  0  0  0
 50124  1  0  0  0
 51 52  1  0  0  0
 51125  1  0  0  0
 51126  1  0  0  0
 52127  1  0  0  0
 52128  1  0  0  0
 53 54  1  0  0  0
 54 55  2  0  0  0
 54129  1  0  0  0
 55 57  1  0  0  0
 55130  1  0  0  0
 56 69  2  0  0  0
 57 58  2  0  0  0
 57131  1  0  0  0
 58132  1  0  0  0
 59 60  1  0  0  0
 59 61  1  0  0  0
 59 62  1  0  0  0
 60133  1  0  0  0
 60134  1  0  0  0
 60135  1  0  0  0
 61136  1  0  0  0
 61137  1  0  0  0
 61138  1  0  0  0
 62139  1  0  0  0
 62140  1  0  0  0
 62141  1  0  0  0
 63 65  1  0  0  0
 63142  1  0  0  0
 63143  1  0  0  0
 63144  1  0  0  0
 64145  1  0  0  0
 65146  1  0  0  0
 68 82  1  0  0  0
 71 73  1  0  0  0
 71 74  2  0  0  0
 71147  1  0  0  0
 72 73  2  0  0  0
 72 85  1  0  0  0
 72148  1  0  0  0
 73 83  1  0  0  0
 74 75  1  0  0  0
 74 85  1  0  0  0
 75149  1  0  0  0
 75150  1  0  0  0
 75151  1  0  0  0
 76 78  1  0  0  0
 76152  1  0  0  0
 76153  1  0  0  0
 76154  1  0  0  0
 77155  1  0  0  0
 77156  1  0  0  0
 77157  1  0  0  0
 77 84  1  0  0  0
 78 84  1  0  0  0
 78158  1  0  0  0
 78159  1  0  0  0
 79 81  1  0  0  0
 79 82  1  0  0  0
 79160  1  0  0  0
 79161  1  0  0  0
 80 86  1  0  0  0
 80162  1  0  0  0
 80163  1  0  0  0
 80 83  1  0  0  0
 81 87  1  0  0  0
 81164  1  0  0  0
 81165  1  0  0  0
 82166  1  0  0  0
 82167  1  0  0  0
 83 87  1  0  0  0
 83168  1  0  0  0
 84 85  1  0  0  0
 84169  1  0  0  0
 86170  1  0  0  0
 87171  1  0  0  0
 87172  1  0  0  0
M  CHG  1  87   1
M  ISO  4   1 100  68 101  82 101  86 100
M  END
> <chiral flag>
0

> <version>
0

> <s_m_source_file>
/data/baiqing/PycharmProjects/Reinvent-master-3.2/result/LINK_invent/BTK/process_docking_weight1_custom_sum_contain_oxygen_bond_distance_aromatic_linkinvent_7_9_3/rearranged_h_0101.sdf

> <i_m_source_file_index>
68

> <r_mmod_Potential_Energy-OPLS-2005>
188.294296264648

> <r_mmod_Stretch_Energy-OPLS-2005>
259.568176269531

> <r_mmod_Bend_Energy-OPLS-2005>
260.099243164062

> <r_mmod_Torsional_Energy-OPLS-2005>
227.691848754883

> <r_mmod_Improper_Torsional_Energy-OPLS-2005>
4.19760894775391

> <r_mmod_Van_der_Waal_Energy-OPLS-2005>
90.7865295410156

> <r_mmod_Electrostatic_Energy-OPLS-2005>
-382.915618896484

> <r_mmod_Solvation_Energy-OPLS-2005>
-459.057159423828

> <b_mmod_Minimization_Converged-OPLS-2005>
0

> <r_mmod_RMS_Derivative-OPLS-2005>
1.69910216331482

$$$$
68
                    3D
 Structure written by MMmdl.
172180  0  0  1  0            999 V2000
  -30.5620  -14.7614   20.4726 C   0  0  0  0  0  0
  -30.4579  -12.4738   19.4487 C   0  0  0  0  0  0
  -29.5187  -12.5088   18.2210 C   0  0  0  0  0  0
  -28.0395  -12.3470   18.6369 C   0  0  0  0  0  0
  -27.6485  -13.2295   19.8510 C   0  0  2  0  0  0
  -28.6980  -13.1086   20.9745 C   0  0  0  0  0  0
  -25.2526  -13.8190   20.5681 C   0  0  0  0  0  0
  -24.1816  -13.0449   20.9219 C   0  0  0  0  0  0
  -24.6390  -11.6907   20.8738 C   0  0  0  0  0  0
  -23.9047  -10.4287   21.0404 C   0  0  0  0  0  0
  -24.3606   -9.4188   21.9170 C   0  0  0  0  0  0
  -23.6267   -8.2234   22.0734 C   0  0  0  0  0  0
  -22.4238   -8.0272   21.3538 C   0  0  0  0  0  0
  -21.9885   -9.0254   20.4638 C   0  0  0  0  0  0
  -22.7217  -10.2118   20.3043 C   0  0  0  0  0  0
  -21.6848   -6.0686   22.5267 C   0  0  0  0  0  0
  -21.4007   -6.5607   23.8191 C   0  0  0  0  0  0
  -21.3661   -5.6776   24.9179 C   0  0  0  0  0  0
  -21.6051   -4.3041   24.7249 C   0  0  0  0  0  0
  -21.8817   -3.8098   23.4388 C   0  0  0  0  0  0
  -21.9186   -4.6908   22.3411 C   0  0  0  0  0  0
  -22.7822  -13.5215   21.1929 C   0  0  0  0  0  0
  -22.1660   -4.2089   21.0993 F   0  0  0  0  0  0
  -21.5639   -3.4522   25.7770 F   0  0  0  0  0  0
  -29.9930  -13.5066   20.4057 N   0  0  0  0  0  0
  -26.2962  -12.9384   20.3234 N   0  0  0  0  0  0
  -25.9327  -11.6532   20.5727 N   0  0  0  0  0  0
  -22.0468  -12.8201   22.0481 N   0  0  0  0  0  0
  -25.4243  -15.1920   20.4103 N   0  0  0  0  0  0
  -31.7369  -14.9190   20.1304 O   0  0  0  0  0  0
  -21.6622   -6.8841   21.4221 O   0  0  0  0  0  0
  -22.3475  -14.5521   20.6777 O   0  0  0  0  0  0
  -24.6326  -31.8545   23.1950 C   0  0  0  0  0  0
  -25.9154  -32.4735   23.8305 C   0  0  1  0  0  0
  -27.2042  -27.2422   20.1450 C   0  0  0  0  0  0
  -25.5972  -33.8542   24.2247 N   0  0  0  0  0  0
  -23.4285  -30.4761   21.5393 C   0  0  2  0  0  0
  -24.8757  -28.9260   20.1027 C   0  0  0  0  0  0
  -22.7505  -29.4614   22.4924 C   0  0  0  0  0  0
  -18.0338  -28.1331   22.8430 C   0  0  0  0  0  0
  -24.1480  -36.7245   23.2632 C   0  0  0  0  0  0
  -25.9734  -30.7619   21.3796 C   0  0  0  0  0  0
  -26.0455  -29.3827   20.7235 C   0  0  0  0  0  0
  -27.2141  -28.5544   20.7351 C   0  0  0  0  0  0
  -26.0205  -26.8640   19.4765 C   0  0  0  0  0  0
  -24.8723  -27.6787   19.4590 C   0  0  0  0  0  0
  -23.6415  -29.8055   20.1560 C   0  0  0  0  0  0
  -25.4112  -36.3039   24.0312 C   0  0  1  0  0  0
  -20.5910  -28.3729   23.1280 C   0  0  2  0  0  0
  -20.6858  -26.9472   22.5383 C   0  0  0  0  0  0
  -19.5872  -26.6426   21.5146 C   0  0  0  0  0  0
  -18.2052  -26.7877   22.1554 C   0  0  0  0  0  0
  -19.1548  -28.8839   23.2848 C   0  0  0  0  0  0
  -18.9425  -30.1435   23.8873 C   0  0  0  0  0  0
  -17.6411  -30.6535   24.0477 C   0  0  0  0  0  0
  -25.9058  -34.9423   23.5085 C   0  0  0  0  0  0
  -16.5333  -29.8996   23.6252 C   0  0  0  0  0  0
  -16.7290  -28.6403   23.0294 C   0  0  0  0  0  0
  -26.4528  -31.6568   25.0701 C   0  0  0  0  0  0
  -25.3717  -31.3769   26.1412 C   0  0  0  0  0  0
  -27.0351  -30.2955   24.6216 C   0  0  0  0  0  0
  -27.6088  -32.4305   25.7483 C   0  0  0  0  0  0
  -27.5573  -37.1770   24.8472 C   0  0  0  0  0  0
  -21.4207  -29.3088   22.3691 N   0  0  0  0  0  0
  -26.4287  -37.3742   23.9412 N   0  0  0  0  0  0
  -24.6974  -31.0500   22.0939 N   0  0  0  0  0  0
  -23.4210  -28.8152   23.3041 O   0  0  0  0  0  0
  -28.2719  -26.3143   20.1925 O   0  0  0  0  0  0
  -26.5630  -34.8897   22.4645 O   0  0  0  0  0  0
  -23.5480  -32.1402   23.7259 O   0  0  0  0  0  0
  -27.9100  -18.1121   24.0363 C   0  0  0  0  0  0
  -27.7450  -20.1297   22.7570 C   0  0  0  0  0  0
  -27.4031  -19.3945   23.8885 C   0  0  0  0  0  0
  -28.7606  -17.5651   23.0664 C   0  0  0  0  0  0
  -29.0772  -18.2551   21.8336 C   0  0  0  0  0  0
  -28.6262  -19.6864   21.7251 C   0  0  0  0  0  0
  -29.3501  -16.2328   23.5223 C   0  0  0  0  0  0
  -22.8909  -19.2045   26.0598 C   0  0  0  0  0  0
  -24.4915  -20.9404   27.0039 C   0  0  0  0  0  0
  -26.5382  -20.0233   24.9687 C   0  0  0  0  0  0
  -29.8964  -17.3694   20.7753 C   0  0  0  0  0  0
  -25.2457  -19.2416   25.2207 C   0  0  0  0  0  0
  -28.7647  -23.5549   20.2129 C   0  0  0  0  0  0
  -27.9779  -24.9107   20.6823 C   0  0  0  0  0  0
  -28.4147  -22.1576   20.9826 C   0  0  0  0  0  0
  -24.0985  -20.1035   25.7721 C   0  0  0  0  0  0
  -29.7174  -15.8331   20.7459 N   0  0  0  0  0  0
  -28.9539  -20.7327   20.7778 O   0  0  0  0  0  0
  -31.4925  -12.6417   19.1366 H   0  0  0  0  0  0
  -30.4538  -11.4880   19.9160 H   0  0  0  0  0  0
  -29.7909  -11.7212   17.5134 H   0  0  0  0  0  0
  -29.6514  -13.4509   17.6845 H   0  0  0  0  0  0
  -27.8852  -11.2973   18.8930 H   0  0  0  0  0  0
  -27.3848  -12.5616   17.7906 H   0  0  0  0  0  0
  -27.6592  -14.2599   19.4999 H   0  0  0  0  0  0
  -28.7456  -12.0792   21.3369 H   0  0  0  0  0  0
  -28.4290  -13.7194   21.8329 H   0  0  0  0  0  0
  -25.2764   -9.5648   22.4737 H   0  0  0  0  0  0
  -23.9967   -7.4610   22.7465 H   0  0  0  0  0  0
  -21.0791   -8.8774   19.8983 H   0  0  0  0  0  0
  -22.3670  -10.9650   19.6148 H   0  0  0  0  0  0
  -21.1989   -7.6110   23.9685 H   0  0  0  0  0  0
  -21.1491   -6.0512   25.9080 H   0  0  0  0  0  0
  -22.0595   -2.7556   23.2916 H   0  0  0  0  0  0
  -22.4093  -11.9883   22.4904 H   0  0  0  0  0  0
  -21.1087  -13.1215   22.2710 H   0  0  0  0  0  0
  -24.6725  -15.8591   20.5477 H   0  0  0  0  0  0
  -26.2662  -15.6191   20.0449 H   0  0  0  0  0  0
  -26.7210  -32.5374   23.1026 H   0  0  0  0  0  0
  -25.0112  -33.9670   25.0395 H   0  0  0  0  0  0
  -22.7263  -31.2987   21.3916 H   0  0  0  0  0  0
  -23.3740  -35.9580   23.3307 H   0  0  0  0  0  0
  -24.3583  -36.8862   22.2051 H   0  0  0  0  0  0
  -23.7248  -37.6441   23.6659 H   0  0  0  0  0  0
  -26.1190  -31.5203   20.6112 H   0  0  0  0  0  0
  -26.8504  -30.8066   22.0150 H   0  0  0  0  0  0
  -28.1061  -28.8941   21.2422 H   0  0  0  0  0  0
  -25.9710  -25.9090   18.9713 H   0  0  0  0  0  0
  -23.9832  -27.3392   18.9439 H   0  0  0  0  0  0
  -23.7378  -30.5754   19.3904 H   0  0  0  0  0  0
  -22.7613  -29.2265   19.8670 H   0  0  0  0  0  0
  -25.1287  -36.1869   25.0800 H   0  0  0  0  0  0
  -20.9981  -28.3305   24.1402 H   0  0  0  0  0  0
  -20.5826  -26.2288   23.3526 H   0  0  0  0  0  0
  -21.6750  -26.7609   22.1149 H   0  0  0  0  0  0
  -19.7106  -25.6361   21.1133 H   0  0  0  0  0  0
  -19.6806  -27.3275   20.6712 H   0  0  0  0  0  0
  -17.4325  -26.6581   21.3954 H   0  0  0  0  0  0
  -18.0552  -26.0007   22.8951 H   0  0  0  0  0  0
  -19.7882  -30.7265   24.2257 H   0  0  0  0  0  0
  -17.4927  -31.6218   24.5040 H   0  0  0  0  0  0
  -15.5325  -30.2852   23.7536 H   0  0  0  0  0  0
  -15.8710  -28.0680   22.7024 H   0  0  0  0  0  0
  -24.5893  -30.7111   25.7764 H   0  0  0  0  0  0
  -24.8884  -32.2932   26.4768 H   0  0  0  0  0  0
  -25.7996  -30.9004   27.0229 H   0  0  0  0  0  0
  -26.2922  -29.6736   24.1184 H   0  0  0  0  0  0
  -27.3935  -29.7223   25.4783 H   0  0  0  0  0  0
  -27.8870  -30.4203   23.9529 H   0  0  0  0  0  0
  -27.2683  -33.3610   26.2037 H   0  0  0  0  0  0
  -28.3896  -32.6852   25.0305 H   0  0  0  0  0  0
  -28.0726  -31.8421   26.5401 H   0  0  0  0  0  0
  -28.2582  -38.0069   24.7479 H   0  0  0  0  0  0
  -28.1055  -36.2587   24.6311 H   0  0  0  0  0  0
  -27.2286  -37.1454   25.8874 H   0  0  0  0  0  0
  -20.9411  -29.8831   21.6898 H   0  0  0  0  0  0
  -26.0148  -38.2810   24.1399 H   0  0  0  0  0  0
  -27.6591  -17.5490   24.9267 H   0  0  0  0  0  0
  -27.2854  -21.0985   22.7534 H   0  0  0  0  0  0
  -28.6610  -15.4136   23.3142 H   0  0  0  0  0  0
  -29.4957  -16.2476   24.6037 H   0  0  0  0  0  0
  -30.3385  -16.0083   23.1211 H   0  0  0  0  0  0
  -22.0041  -19.7864   26.3103 H   0  0  0  0  0  0
  -23.0931  -18.5228   26.8874 H   0  0  0  0  0  0
  -22.6487  -18.5934   25.1891 H   0  0  0  0  0  0
  -23.6476  -21.5257   27.3706 H   0  0  0  0  0  0
  -25.2806  -21.6556   26.7689 H   0  0  0  0  0  0
  -24.8459  -20.3155   27.8237 H   0  0  0  0  0  0
  -26.2881  -21.0438   24.6753 H   0  0  0  0  0  0
  -27.1192  -20.1040   25.8886 H   0  0  0  0  0  0
  -30.9521  -17.5844   20.9445 H   0  0  0  0  0  0
  -29.6750  -17.7503   19.7770 H   0  0  0  0  0  0
  -25.4442  -18.3887   25.8692 H   0  0  0  0  0  0
  -24.9075  -18.8253   24.2687 H   0  0  0  0  0  0
  -29.8351  -23.7397   20.3063 H   0  0  0  0  0  0
  -28.5720  -23.4204   19.1480 H   0  0  0  0  0  0
  -28.0955  -24.9766   21.7657 H   0  0  0  0  0  0
  -26.9174  -24.6951   20.5627 H   0  0  0  0  0  0
  -27.3293  -22.0744   20.8956 H   0  0  0  0  0  0
  -28.6372  -22.4234   22.0171 H   0  0  0  0  0  0
  -23.8119  -20.8047   24.9864 H   0  0  0  0  0  0
  -28.7927  -15.5403   21.0215 H   0  0  0  0  0  0
  1 25  1  0  0  0
  1 30  2  0  0  0
  1 87  1  0  0  0
  2  3  1  0  0  0
  2 25  1  0  0  0
  2 89  1  0  0  0
  2 90  1  0  0  0
  3  4  1  0  0  0
  3 91  1  0  0  0
  3 92  1  0  0  0
  4  5  1  0  0  0
  4 93  1  0  0  0
  4 94  1  0  0  0
  5  6  1  0  0  0
  5 26  1  0  0  0
  5 95  1  0  0  0
  6 25  1  0  0  0
  6 96  1  0  0  0
  6 97  1  0  0  0
  7  8  2  0  0  0
  7 26  1  0  0  0
  7 29  1  0  0  0
  8  9  1  0  0  0
  8 22  1  0  0  0
  9 10  1  0  0  0
  9 27  2  0  0  0
 10 11  2  0  0  0
 10 15  1  0  0  0
 11 12  1  0  0  0
 11 98  1  0  0  0
 12 13  2  0  0  0
 12 99  1  0  0  0
 13 14  1  0  0  0
 13 31  1  0  0  0
 14 15  2  0  0  0
 14100  1  0  0  0
 15101  1  0  0  0
 16 17  2  0  0  0
 16 21  1  0  0  0
 16 31  1  0  0  0
 17 18  1  0  0  0
 17102  1  0  0  0
 18 19  2  0  0  0
 18103  1  0  0  0
 19 20  1  0  0  0
 19 24  1  0  0  0
 20 21  2  0  0  0
 20104  1  0  0  0
 21 23  1  0  0  0
 22 28  1  0  0  0
 22 32  2  0  0  0
 26 27  1  0  0  0
 28105  1  0  0  0
 28106  1  0  0  0
 29107  1  0  0  0
 29108  1  0  0  0
 33 34  1  0  0  0
 33 66  1  0  0  0
 33 70  2  0  0  0
 34 36  1  0  0  0
 34 59  1  0  0  0
 34109  1  0  0  0
 35 44  2  0  0  0
 35 45  1  0  0  0
 35 68  1  0  0  0
 36 56  1  0  0  0
 36110  1  0  0  0
 37 39  1  0  0  0
 37 47  1  0  0  0
 37 66  1  0  0  0
 37111  1  0  0  0
 38 43  2  0  0  0
 38 46  1  0  0  0
 38 47  1  0  0  0
 39 64  1  0  0  0
 39 67  2  0  0  0
 40 52  1  0  0  0
 40 53  2  0  0  0
 40 58  1  0  0  0
 41112  1  0  0  0
 41113  1  0  0  0
 41114  1  0  0  0
 41 48  1  0  0  0
 42 43  1  0  0  0
 42 66  1  0  0  0
 42115  1  0  0  0
 42116  1  0  0  0
 43 44  1  0  0  0
 44117  1  0  0  0
 45 46  2  0  0  0
 45118  1  0  0  0
 46119  1  0  0  0
 47120  1  0  0  0
 47121  1  0  0  0
 48 56  1  0  0  0
 48 65  1  0  0  0
 48122  1  0  0  0
 49 50  1  0  0  0
 49 53  1  0  0  0
 49 64  1  0  0  0
 49123  1  0  0  0
 50 51  1  0  0  0
 50124  1  0  0  0
 50125  1  0  0  0
 51 52  1  0  0  0
 51126  1  0  0  0
 51127  1  0  0  0
 52128  1  0  0  0
 52129  1  0  0  0
 53 54  1  0  0  0
 54 55  2  0  0  0
 54130  1  0  0  0
 55 57  1  0  0  0
 55131  1  0  0  0
 56 69  2  0  0  0
 57 58  2  0  0  0
 57132  1  0  0  0
 58133  1  0  0  0
 59 60  1  0  0  0
 59 61  1  0  0  0
 59 62  1  0  0  0
 60134  1  0  0  0
 60135  1  0  0  0
 60136  1  0  0  0
 61137  1  0  0  0
 61138  1  0  0  0
 61139  1  0  0  0
 62140  1  0  0  0
 62141  1  0  0  0
 62142  1  0  0  0
 63 65  1  0  0  0
 63143  1  0  0  0
 63144  1  0  0  0
 63145  1  0  0  0
 64146  1  0  0  0
 65147  1  0  0  0
 68 84  1  0  0  0
 71 73  2  0  0  0
 71 74  1  0  0  0
 71148  1  0  0  0
 72 73  1  0  0  0
 72 76  2  0  0  0
 72149  1  0  0  0
 73 80  1  0  0  0
 74 75  2  0  0  0
 74 77  1  0  0  0
 75 76  1  0  0  0
 75 81  1  0  0  0
 76 88  1  0  0  0
 77150  1  0  0  0
 77151  1  0  0  0
 77152  1  0  0  0
 78153  1  0  0  0
 78154  1  0  0  0
 78155  1  0  0  0
 78 86  1  0  0  0
 79 86  1  0  0  0
 79156  1  0  0  0
 79157  1  0  0  0
 79158  1  0  0  0
 80 82  1  0  0  0
 80159  1  0  0  0
 80160  1  0  0  0
 81 87  1  0  0  0
 81161  1  0  0  0
 81162  1  0  0  0
 82 86  1  0  0  0
 82163  1  0  0  0
 82164  1  0  0  0
 83 84  1  0  0  0
 83 85  1  0  0  0
 83165  1  0  0  0
 83166  1  0  0  0
 84167  1  0  0  0
 84168  1  0  0  0
 85 88  1  0  0  0
 85169  1  0  0  0
 85170  1  0  0  0
 86171  1  0  0  0
 87172  1  0  0  0
M  ISO  4   1 100  68 101  84 101  87 100
M  END
> <chiral flag>
0

> <version>
0

> <s_m_source_file>
/data/baiqing/PycharmProjects/Reinvent-master-3.2/result/LINK_invent/BTK/process_docking_weight1_custom_sum_contain_oxygen_bond_distance_aromatic_linkinvent_7_9_3/rearranged_h_0101.sdf

> <i_m_source_file_index>
69

> <r_mmod_Potential_Energy-OPLS-2005>
312.427062988281

> <r_mmod_Stretch_Energy-OPLS-2005>
180.345672607422

> <r_mmod_Bend_Energy-OPLS-2005>
232.193359375

> <r_mmod_Torsional_Energy-OPLS-2005>
235.377593994141

> <r_mmod_Improper_Torsional_Energy-OPLS-2005>
4.49256420135498

> <r_mmod_Van_der_Waal_Energy-OPLS-2005>
170.769393920898

> <r_mmod_Electrostatic_Energy-OPLS-2005>
-403.735412597656

> <r_mmod_Solvation_Energy-OPLS-2005>
-203.942459106445

> <b_mmod_Minimization_Converged-OPLS-2005>
0

> <r_mmod_RMS_Derivative-OPLS-2005>
5.89918279647827

$$$$
69
                    3D
 Structure written by MMmdl.
155163  0  0  1  0            999 V2000
  -30.5465  -14.9967   20.3929 C   0  0  0  0  0  0
  -30.4396  -12.6163   19.5162 C   0  0  0  0  0  0
  -29.5256  -12.5424   18.2699 C   0  0  0  0  0  0
  -28.0669  -12.3019   18.6977 C   0  0  0  0  0  0
  -27.6307  -13.2535   19.8406 C   0  0  2  0  0  0
  -28.6706  -13.3202   20.9827 C   0  0  0  0  0  0
  -25.2484  -13.8237   20.5730 C   0  0  0  0  0  0
  -24.1801  -13.0454   20.9214 C   0  0  0  0  0  0
  -24.6433  -11.6936   20.8773 C   0  0  0  0  0  0
  -23.9102  -10.4294   21.0433 C   0  0  0  0  0  0
  -24.3640   -9.4206   21.9210 C   0  0  0  0  0  0
  -23.6287   -8.2259   22.0771 C   0  0  0  0  0  0
  -22.4275   -8.0315   21.3554 C   0  0  0  0  0  0
  -21.9935   -9.0299   20.4652 C   0  0  0  0  0  0
  -22.7283  -10.2157   20.3068 C   0  0  0  0  0  0
  -21.6854   -6.0755   22.5265 C   0  0  0  0  0  0
  -21.4020   -6.5643   23.8199 C   0  0  0  0  0  0
  -21.3655   -5.6806   24.9163 C   0  0  0  0  0  0
  -21.6046   -4.3067   24.7214 C   0  0  0  0  0  0
  -21.8811   -3.8153   23.4330 C   0  0  0  0  0  0
  -21.9189   -4.6981   22.3394 C   0  0  0  0  0  0
  -22.7809  -13.5221   21.1852 C   0  0  0  0  0  0
  -22.1654   -4.2166   21.0973 F   0  0  0  0  0  0
  -21.5633   -3.4552   25.7715 F   0  0  0  0  0  0
  -29.9496  -13.7301   20.3861 N   0  0  0  0  0  0
  -26.2914  -12.9473   20.3288 N   0  0  0  0  0  0
  -25.9368  -11.6596   20.5777 N   0  0  0  0  0  0
  -22.0431  -12.8236   22.0414 N   0  0  0  0  0  0
  -25.4144  -15.1955   20.4139 N   0  0  0  0  0  0
  -31.7417  -15.0293   20.0787 O   0  0  0  0  0  0
  -21.6638   -6.8911   21.4232 O   0  0  0  0  0  0
  -22.3510  -14.5540   20.6708 O   0  0  0  0  0  0
  -24.6482  -31.8373   23.1799 C   0  0  0  0  0  0
  -25.9195  -32.4648   23.8284 C   0  0  1  0  0  0
  -27.2318  -27.0987   20.1497 C   0  0  0  0  0  0
  -25.5926  -33.8484   24.2155 N   0  0  0  0  0  0
  -23.4575  -30.4489   21.5226 C   0  0  2  0  0  0
  -24.9110  -28.8677   20.1012 C   0  0  0  0  0  0
  -22.7633  -29.4499   22.4836 C   0  0  0  0  0  0
  -18.0314  -28.1376   22.8478 C   0  0  0  0  0  0
  -24.1494  -36.7261   23.2658 C   0  0  0  0  0  0
  -26.0126  -30.6975   21.3824 C   0  0  0  0  0  0
  -26.0825  -29.3038   20.7293 C   0  0  0  0  0  0
  -27.2367  -28.4297   20.7425 C   0  0  0  0  0  0
  -26.0357  -26.7684   19.4813 C   0  0  0  0  0  0
  -24.9023  -27.6156   19.4621 C   0  0  0  0  0  0
  -23.6855  -29.7707   20.1449 C   0  0  0  0  0  0
  -25.4119  -36.3004   24.0303 C   0  0  1  0  0  0
  -20.5944  -28.3713   23.1226 C   0  0  2  0  0  0
  -20.6796  -26.9399   22.5409 C   0  0  0  0  0  0
  -19.5749  -26.6343   21.5248 C   0  0  0  0  0  0
  -18.1924  -26.7906   22.1634 C   0  0  0  0  0  0
  -19.1581  -28.8861   23.2854 C   0  0  0  0  0  0
  -18.9514  -30.1459   23.8863 C   0  0  0  0  0  0
  -17.6507  -30.6569   24.0567 C   0  0  0  0  0  0
  -25.9095  -34.9373   23.5051 C   0  0  0  0  0  0
  -16.5394  -29.9063   23.6338 C   0  0  0  0  0  0
  -16.7310  -28.6489   23.0338 C   0  0  0  0  0  0
  -26.4510  -31.6555   25.0764 C   0  0  0  0  0  0
  -25.3676  -31.3722   26.1437 C   0  0  0  0  0  0
  -27.0464  -30.2986   24.6351 C   0  0  0  0  0  0
  -27.6073  -32.4331   25.7522 C   0  0  0  0  0  0
  -27.5549  -37.1766   24.8453 C   0  0  0  0  0  0
  -21.4321  -29.3048   22.3611 N   0  0  0  0  0  0
  -26.4263  -37.3724   23.9404 N   0  0  0  0  0  0
  -24.7270  -31.0181   22.0840 N   0  0  0  0  0  0
  -23.4244  -28.8074   23.3048 O   0  0  0  0  0  0
  -28.2903  -26.1167   20.2872 O   0  0  0  0  0  0
  -26.5745  -34.8877   22.4660 O   0  0  0  0  0  0
  -23.5573  -32.1260   23.6940 O   0  0  0  0  0  0
  -30.6258  -17.9066   18.9158 C   0  0  0  0  0  0
  -29.3724  -18.9409   20.6791 C   0  0  0  0  0  0
  -29.9349  -17.6691   20.1249 C   0  0  0  0  0  0
  -30.7075  -19.1959   18.3379 C   0  0  0  0  0  0
  -29.4876  -20.2867   20.0399 C   0  0  0  0  0  0
  -32.7955  -20.1217   17.1918 C   0  0  0  0  0  0
  -31.4588  -19.3807   17.0266 C   0  0  0  0  0  0
  -29.1993  -21.8225   20.6331 C   0  0  0  0  0  0
  -28.1804  -23.0647   20.0590 C   0  0  0  0  0  0
  -28.4471  -24.7017   19.6231 C   0  0  0  0  0  0
  -30.1589  -20.3225   18.8664 N   0  0  0  0  0  0
  -29.8042  -16.2048   20.6176 N   0  0  0  0  0  0
  -31.4751  -12.7601   19.2075 H   0  0  0  0  0  0
  -30.4238  -11.6730   20.0627 H   0  0  0  0  0  0
  -29.8593  -11.7454   17.6041 H   0  0  0  0  0  0
  -29.5970  -13.4707   17.7002 H   0  0  0  0  0  0
  -27.9984  -11.2675   19.0398 H   0  0  0  0  0  0
  -27.3922  -12.3879   17.8447 H   0  0  0  0  0  0
  -27.5855  -14.2455   19.3937 H   0  0  0  0  0  0
  -28.7637  -12.3620   21.4935 H   0  0  0  0  0  0
  -28.3554  -14.0418   21.7389 H   0  0  0  0  0  0
  -25.2779   -9.5691   22.4792 H   0  0  0  0  0  0
  -23.9987   -7.4662   22.7515 H   0  0  0  0  0  0
  -21.0859   -8.8846   19.8953 H   0  0  0  0  0  0
  -22.3769  -10.9720   19.6178 H   0  0  0  0  0  0
  -21.2012   -7.6146   23.9712 H   0  0  0  0  0  0
  -21.1481   -6.0524   25.9068 H   0  0  0  0  0  0
  -22.0590   -2.7617   23.2816 H   0  0  0  0  0  0
  -22.4014  -11.9877   22.4798 H   0  0  0  0  0  0
  -21.1066  -13.1308   22.2609 H   0  0  0  0  0  0
  -24.6390  -15.8430   20.4984 H   0  0  0  0  0  0
  -26.2652  -15.6392   20.0903 H   0  0  0  0  0  0
  -26.7248  -32.5247   23.1021 H   0  0  0  0  0  0
  -25.0024  -33.9645   25.0255 H   0  0  0  0  0  0
  -22.7645  -31.2764   21.3545 H   0  0  0  0  0  0
  -23.3757  -35.9606   23.3275 H   0  0  0  0  0  0
  -24.3594  -36.8945   22.2089 H   0  0  0  0  0  0
  -23.7232  -37.6425   23.6758 H   0  0  0  0  0  0
  -26.1719  -31.4422   20.6024 H   0  0  0  0  0  0
  -26.8844  -30.7583   22.0228 H   0  0  0  0  0  0
  -28.1273  -28.7489   21.2611 H   0  0  0  0  0  0
  -25.9448  -25.8056   19.0011 H   0  0  0  0  0  0
  -24.0082  -27.2732   18.9645 H   0  0  0  0  0  0
  -23.8198  -30.5404   19.3843 H   0  0  0  0  0  0
  -22.8039  -29.2099   19.8325 H   0  0  0  0  0  0
  -25.1276  -36.1859   25.0788 H   0  0  0  0  0  0
  -21.0049  -28.3272   24.1352 H   0  0  0  0  0  0
  -20.5718  -26.2336   23.3656 H   0  0  0  0  0  0
  -21.6635  -26.7394   22.1178 H   0  0  0  0  0  0
  -19.6946  -25.6281   21.1245 H   0  0  0  0  0  0
  -19.6644  -27.3196   20.6819 H   0  0  0  0  0  0
  -17.4211  -26.6723   21.4012 H   0  0  0  0  0  0
  -18.0243  -26.0044   22.9009 H   0  0  0  0  0  0
  -19.8017  -30.7287   24.2167 H   0  0  0  0  0  0
  -17.5064  -31.6233   24.5190 H   0  0  0  0  0  0
  -15.5391  -30.2946   23.7662 H   0  0  0  0  0  0
  -15.8713  -28.0803   22.7024 H   0  0  0  0  0  0
  -24.5889  -30.7030   25.7691 H   0  0  0  0  0  0
  -24.8851  -32.2911   26.4811 H   0  0  0  0  0  0
  -25.7918  -30.8909   27.0261 H   0  0  0  0  0  0
  -26.3138  -29.6634   24.1344 H   0  0  0  0  0  0
  -27.4116  -29.7318   25.4934 H   0  0  0  0  0  0
  -27.8983  -30.4277   23.9667 H   0  0  0  0  0  0
  -27.2716  -33.3690   26.1986 H   0  0  0  0  0  0
  -28.3921  -32.6754   25.0342 H   0  0  0  0  0  0
  -28.0698  -31.8530   26.5507 H   0  0  0  0  0  0
  -28.2492  -38.0126   24.7514 H   0  0  0  0  0  0
  -28.1086  -36.2639   24.6225 H   0  0  0  0  0  0
  -27.2295  -37.1323   25.8862 H   0  0  0  0  0  0
  -20.9555  -29.8828   21.6841 H   0  0  0  0  0  0
  -26.0118  -38.2780   24.1442 H   0  0  0  0  0  0
  -31.0927  -17.0788   18.4008 H   0  0  0  0  0  0
  -28.8751  -18.8923   21.6396 H   0  0  0  0  0  0
  -33.3263  -20.1909   16.2412 H   0  0  0  0  0  0
  -33.4526  -19.6141   17.9004 H   0  0  0  0  0  0
  -32.6288  -21.1365   17.5552 H   0  0  0  0  0  0
  -30.8206  -19.9152   16.3222 H   0  0  0  0  0  0
  -31.6499  -18.4056   16.5744 H   0  0  0  0  0  0
  -30.1844  -22.2780   20.7326 H   0  0  0  0  0  0
  -28.8993  -21.6520   21.6686 H   0  0  0  0  0  0
  -27.2888  -23.0556   20.6834 H   0  0  0  0  0  0
  -27.8172  -22.6270   19.1266 H   0  0  0  0  0  0
  -27.8756  -24.8166   18.7024 H   0  0  0  0  0  0
  -29.4736  -24.7138   19.2524 H   0  0  0  0  0  0
  -28.9323  -16.0248   21.0893 H   0  0  0  0  0  0
  1 25  1  0  0  0
  1 30  2  0  0  0
  1 82  1  0  0  0
  2  3  1  0  0  0
  2 25  1  0  0  0
  2 83  1  0  0  0
  2 84  1  0  0  0
  3  4  1  0  0  0
  3 85  1  0  0  0
  3 86  1  0  0  0
  4  5  1  0  0  0
  4 87  1  0  0  0
  4 88  1  0  0  0
  5  6  1  0  0  0
  5 26  1  0  0  0
  5 89  1  0  0  0
  6 25  1  0  0  0
  6 90  1  0  0  0
  6 91  1  0  0  0
  7  8  2  0  0  0
  7 26  1  0  0  0
  7 29  1  0  0  0
  8  9  1  0  0  0
  8 22  1  0  0  0
  9 10  1  0  0  0
  9 27  2  0  0  0
 10 11  2  0  0  0
 10 15  1  0  0  0
 11 12  1  0  0  0
 11 92  1  0  0  0
 12 13  2  0  0  0
 12 93  1  0  0  0
 13 14  1  0  0  0
 13 31  1  0  0  0
 14 15  2  0  0  0
 14 94  1  0  0  0
 15 95  1  0  0  0
 16 17  2  0  0  0
 16 21  1  0  0  0
 16 31  1  0  0  0
 17 18  1  0  0  0
 17 96  1  0  0  0
 18 19  2  0  0  0
 18 97  1  0  0  0
 19 20  1  0  0  0
 19 24  1  0  0  0
 20 21  2  0  0  0
 20 98  1  0  0  0
 21 23  1  0  0  0
 22 28  1  0  0  0
 22 32  2  0  0  0
 26 27  1  0  0  0
 28 99  1  0  0  0
 28100  1  0  0  0
 29101  1  0  0  0
 29102  1  0  0  0
 33 34  1  0  0  0
 33 66  1  0  0  0
 33 70  2  0  0  0
 34 36  1  0  0  0
 34 59  1  0  0  0
 34103  1  0  0  0
 35 44  2  0  0  0
 35 45  1  0  0  0
 35 68  1  0  0  0
 36 56  1  0  0  0
 36104  1  0  0  0
 37 39  1  0  0  0
 37 47  1  0  0  0
 37 66  1  0  0  0
 37105  1  0  0  0
 38 43  2  0  0  0
 38 46  1  0  0  0
 38 47  1  0  0  0
 39 64  1  0  0  0
 39 67  2  0  0  0
 40 52  1  0  0  0
 40 53  2  0  0  0
 40 58  1  0  0  0
 41106  1  0  0  0
 41107  1  0  0  0
 41108  1  0  0  0
 41 48  1  0  0  0
 42 43  1  0  0  0
 42 66  1  0  0  0
 42109  1  0  0  0
 42110  1  0  0  0
 43 44  1  0  0  0
 44111  1  0  0  0
 45 46  2  0  0  0
 45112  1  0  0  0
 46113  1  0  0  0
 47114  1  0  0  0
 47115  1  0  0  0
 48 56  1  0  0  0
 48 65  1  0  0  0
 48116  1  0  0  0
 49 50  1  0  0  0
 49 53  1  0  0  0
 49 64  1  0  0  0
 49117  1  0  0  0
 50 51  1  0  0  0
 50118  1  0  0  0
 50119  1  0  0  0
 51 52  1  0  0  0
 51120  1  0  0  0
 51121  1  0  0  0
 52122  1  0  0  0
 52123  1  0  0  0
 53 54  1  0  0  0
 54 55  2  0  0  0
 54124  1  0  0  0
 55 57  1  0  0  0
 55125  1  0  0  0
 56 69  2  0  0  0
 57 58  2  0  0  0
 57126  1  0  0  0
 58127  1  0  0  0
 59 60  1  0  0  0
 59 61  1  0  0  0
 59 62  1  0  0  0
 60128  1  0  0  0
 60129  1  0  0  0
 60130  1  0  0  0
 61131  1  0  0  0
 61132  1  0  0  0
 61133  1  0  0  0
 62134  1  0  0  0
 62135  1  0  0  0
 62136  1  0  0  0
 63 65  1  0  0  0
 63137  1  0  0  0
 63138  1  0  0  0
 63139  1  0  0  0
 64140  1  0  0  0
 65141  1  0  0  0
 68 80  1  0  0  0
 71 73  2  0  0  0
 71 74  1  0  0  0
 71142  1  0  0  0
 72 73  1  0  0  0
 72 75  2  0  0  0
 72143  1  0  0  0
 73 82  1  0  0  0
 74 77  1  0  0  0
 74 81  2  0  0  0
 75 78  1  0  0  0
 75 81  1  0  0  0
 76 77  1  0  0  0
 76144  1  0  0  0
 76145  1  0  0  0
 76146  1  0  0  0
 77147  1  0  0  0
 77148  1  0  0  0
 78 79  1  0  0  0
 78149  1  0  0  0
 78150  1  0  0  0
 79 80  1  0  0  0
 79151  1  0  0  0
 79152  1  0  0  0
 80153  1  0  0  0
 80154  1  0  0  0
 82155  1  0  0  0
M  ISO  4   1 100  68 101  80 101  82 100
M  END
> <chiral flag>
0

> <version>
0

> <s_m_source_file>
/data/baiqing/PycharmProjects/Reinvent-master-3.2/result/LINK_invent/BTK/process_docking_weight1_custom_sum_contain_oxygen_bond_distance_aromatic_linkinvent_7_9_3/rearranged_h_0101.sdf

> <i_m_source_file_index>
70

> <r_mmod_Potential_Energy-OPLS-2005>
496.412017822266

> <r_mmod_Stretch_Energy-OPLS-2005>
303.409515380859

> <r_mmod_Bend_Energy-OPLS-2005>
344.384246826172

> <r_mmod_Torsional_Energy-OPLS-2005>
226.947860717773

> <r_mmod_Improper_Torsional_Energy-OPLS-2005>
4.68592834472656

> <r_mmod_Van_der_Waal_Energy-OPLS-2005>
128.292938232422

> <r_mmod_Electrostatic_Energy-OPLS-2005>
-517.970825195312

> <r_mmod_Solvation_Energy-OPLS-2005>
-221.376281738281

> <b_mmod_Minimization_Converged-OPLS-2005>
0

> <r_mmod_RMS_Derivative-OPLS-2005>
4.66318273544312

$$$$
70
                    3D
 Structure written by MMmdl.
165173  0  0  1  0            999 V2000
  -30.7461  -14.4979   20.4978 C   0  0  0  0  0  0
  -30.3961  -12.3044   19.4462 C   0  0  0  0  0  0
  -29.4875  -12.4787   18.2146 C   0  0  0  0  0  0
  -28.0100  -12.3503   18.6269 C   0  0  0  0  0  0
  -27.6495  -13.2242   19.8593 C   0  0  2  0  0  0
  -28.6939  -13.0900   20.9908 C   0  0  0  0  0  0
  -25.2536  -13.8205   20.5695 C   0  0  0  0  0  0
  -24.1815  -13.0456   20.9192 C   0  0  0  0  0  0
  -24.6395  -11.6927   20.8750 C   0  0  0  0  0  0
  -23.9073  -10.4304   21.0412 C   0  0  0  0  0  0
  -24.3625   -9.4215   21.9185 C   0  0  0  0  0  0
  -23.6299   -8.2253   22.0756 C   0  0  0  0  0  0
  -22.4282   -8.0289   21.3548 C   0  0  0  0  0  0
  -21.9917   -9.0264   20.4651 C   0  0  0  0  0  0
  -22.7247  -10.2141   20.3059 C   0  0  0  0  0  0
  -21.6853   -6.0739   22.5277 C   0  0  0  0  0  0
  -21.4015   -6.5642   23.8210 C   0  0  0  0  0  0
  -21.3657   -5.6795   24.9173 C   0  0  0  0  0  0
  -21.6043   -4.3058   24.7224 C   0  0  0  0  0  0
  -21.8819   -3.8149   23.4347 C   0  0  0  0  0  0
  -21.9194   -4.6966   22.3403 C   0  0  0  0  0  0
  -22.7838  -13.5236   21.1854 C   0  0  0  0  0  0
  -22.1661   -4.2150   21.0980 F   0  0  0  0  0  0
  -21.5628   -3.4539   25.7738 F   0  0  0  0  0  0
  -30.0190  -13.3497   20.4153 N   0  0  0  0  0  0
  -26.2974  -12.9405   20.3333 N   0  0  0  0  0  0
  -25.9326  -11.6552   20.5783 N   0  0  0  0  0  0
  -22.0487  -12.8224   22.0413 N   0  0  0  0  0  0
  -25.4245  -15.1924   20.4112 N   0  0  0  0  0  0
  -31.9319  -14.4983   20.1789 O   0  0  0  0  0  0
  -21.6644   -6.8883   21.4242 O   0  0  0  0  0  0
  -22.3519  -14.5538   20.6698 O   0  0  0  0  0  0
  -24.6150  -31.8674   23.2100 C   0  0  0  0  0  0
  -25.9039  -32.4821   23.8389 C   0  0  1  0  0  0
  -27.2275  -27.4257   20.1029 C   0  0  0  0  0  0
  -25.5894  -33.8621   24.2318 N   0  0  0  0  0  0
  -23.4040  -30.4902   21.5503 C   0  0  2  0  0  0
  -24.8518  -28.9574   20.1118 C   0  0  0  0  0  0
  -22.7416  -29.4650   22.4988 C   0  0  0  0  0  0
  -18.0272  -28.1359   22.8490 C   0  0  0  0  0  0
  -24.1485  -36.7313   23.2638 C   0  0  0  0  0  0
  -25.9332  -30.8297   21.3666 C   0  0  0  0  0  0
  -26.0116  -29.4635   20.7147 C   0  0  0  0  0  0
  -27.2052  -28.7018   20.7137 C   0  0  0  0  0  0
  -26.0584  -26.9421   19.4810 C   0  0  0  0  0  0
  -24.8695  -27.6958   19.4913 C   0  0  0  0  0  0
  -23.6130  -29.8244   20.1638 C   0  0  0  0  0  0
  -25.4109  -36.3111   24.0330 C   0  0  1  0  0  0
  -20.5861  -28.3659   23.1303 C   0  0  2  0  0  0
  -20.6762  -26.9394   22.5410 C   0  0  0  0  0  0
  -19.5743  -26.6372   21.5201 C   0  0  0  0  0  0
  -18.1920  -26.7909   22.1610 C   0  0  0  0  0  0
  -19.1523  -28.8823   23.2893 C   0  0  0  0  0  0
  -18.9454  -30.1426   23.8905 C   0  0  0  0  0  0
  -17.6459  -30.6578   24.0552 C   0  0  0  0  0  0
  -25.9033  -34.9475   23.5124 C   0  0  0  0  0  0
  -16.5344  -29.9079   23.6314 C   0  0  0  0  0  0
  -16.7261  -28.6486   23.0352 C   0  0  0  0  0  0
  -26.4473  -31.6606   25.0721 C   0  0  0  0  0  0
  -25.3734  -31.3707   26.1471 C   0  0  0  0  0  0
  -27.0300  -30.3044   24.6101 C   0  0  0  0  0  0
  -27.6057  -32.4322   25.7478 C   0  0  0  0  0  0
  -27.5584  -37.1815   24.8462 C   0  0  0  0  0  0
  -21.4143  -29.3028   22.3719 N   0  0  0  0  0  0
  -26.4296  -37.3796   23.9400 N   0  0  0  0  0  0
  -24.6686  -31.0763   22.1010 N   0  0  0  0  0  0
  -23.4182  -28.8198   23.3042 O   0  0  0  0  0  0
  -28.3571  -26.6384   20.1076 O   0  0  0  0  0  0
  -26.5602  -34.8923   22.4693 O   0  0  0  0  0  0
  -23.5336  -32.1444   23.7480 O   0  0  0  0  0  0
  -31.7436  -17.3358   19.8720 C   0  0  0  0  0  0
  -31.2961  -19.7102   19.9592 C   0  0  0  0  0  0
  -29.6645  -18.1236   20.8379 C   0  0  0  0  0  0
  -32.1626  -18.6546   19.6134 C   0  0  0  0  0  0
  -30.5068  -17.0241   20.4978 C   0  0  0  0  0  0
  -30.0377  -19.4734   20.5645 C   0  0  0  0  0  0
  -33.4706  -18.3524   17.4929 C   0  0  0  0  0  0
  -34.6512  -18.1696   19.7065 C   0  0  0  0  0  0
  -33.9186  -20.3869   18.8637 C   0  0  0  0  0  0
  -28.5410  -22.9622   20.8943 C   0  0  0  0  0  0
  -28.8947  -24.3539   20.2913 C   0  0  0  0  0  0
  -29.5337  -21.8519   20.4731 C   0  0  0  0  0  0
  -33.5274  -18.8942   18.9336 C   0  0  0  0  0  0
  -30.0777  -15.6558   20.7542 N   0  0  0  0  0  0
  -28.0946  -25.4292   20.8805 N   0  0  0  0  0  0
  -29.1713  -20.5161   20.8902 O   0  0  0  0  0  0
  -31.4450  -12.3500   19.1471 H   0  0  0  0  0  0
  -30.2585  -11.3167   19.8886 H   0  0  0  0  0  0
  -29.7291  -11.7308   17.4577 H   0  0  0  0  0  0
  -29.6625  -13.4518   17.7527 H   0  0  0  0  0  0
  -27.8246  -11.2988   18.8505 H   0  0  0  0  0  0
  -27.3603  -12.5987   17.7867 H   0  0  0  0  0  0
  -27.6695  -14.2585   19.5164 H   0  0  0  0  0  0
  -28.6688  -12.0894   21.4243 H   0  0  0  0  0  0
  -28.4714  -13.7795   21.8070 H   0  0  0  0  0  0
  -25.2769   -9.5682   22.4761 H   0  0  0  0  0  0
  -23.9996   -7.4646   22.7479 H   0  0  0  0  0  0
  -21.0847   -8.8796   19.8959 H   0  0  0  0  0  0
  -22.3711  -10.9688   19.6171 H   0  0  0  0  0  0
  -21.2012   -7.6150   23.9712 H   0  0  0  0  0  0
  -21.1474   -6.0527   25.9075 H   0  0  0  0  0  0
  -22.0601   -2.7613   23.2850 H   0  0  0  0  0  0
  -22.4108  -11.9874   22.4783 H   0  0  0  0  0  0
  -21.1112  -13.1256   22.2644 H   0  0  0  0  0  0
  -24.6583  -15.8480   20.5196 H   0  0  0  0  0  0
  -26.2764  -15.6321   20.0865 H   0  0  0  0  0  0
  -26.7120  -32.5529   23.1159 H   0  0  0  0  0  0
  -25.0043  -33.9786   25.0466 H   0  0  0  0  0  0
  -22.6926  -31.3068   21.4121 H   0  0  0  0  0  0
  -23.3746  -35.9648   23.3303 H   0  0  0  0  0  0
  -24.3588  -36.8928   22.2052 H   0  0  0  0  0  0
  -23.7233  -37.6515   23.6663 H   0  0  0  0  0  0
  -26.0455  -31.5972   20.5993 H   0  0  0  0  0  0
  -26.8198  -30.8841   21.9865 H   0  0  0  0  0  0
  -28.0999  -29.0812   21.1874 H   0  0  0  0  0  0
  -26.0671  -25.9700   19.0083 H   0  0  0  0  0  0
  -23.9807  -27.3007   19.0199 H   0  0  0  0  0  0
  -23.7206  -30.6005   19.4045 H   0  0  0  0  0  0
  -22.7377  -29.2432   19.8685 H   0  0  0  0  0  0
  -25.1287  -36.1985   25.0822 H   0  0  0  0  0  0
  -20.9944  -28.3230   24.1428 H   0  0  0  0  0  0
  -20.5648  -26.2270   23.3607 H   0  0  0  0  0  0
  -21.6638  -26.7434   22.1214 H   0  0  0  0  0  0
  -19.6901  -25.6286   21.1231 H   0  0  0  0  0  0
  -19.6670  -27.3186   20.6732 H   0  0  0  0  0  0
  -17.4188  -26.6647   21.4012 H   0  0  0  0  0  0
  -18.0314  -26.0049   22.8997 H   0  0  0  0  0  0
  -19.7938  -30.7220   24.2294 H   0  0  0  0  0  0
  -17.5026  -31.6266   24.5148 H   0  0  0  0  0  0
  -15.5347  -30.2982   23.7645 H   0  0  0  0  0  0
  -15.8657  -28.0806   22.7070 H   0  0  0  0  0  0
  -24.5899  -30.7070   25.7799 H   0  0  0  0  0  0
  -24.8940  -32.2859   26.4949 H   0  0  0  0  0  0
  -25.8083  -30.8848   27.0210 H   0  0  0  0  0  0
  -26.2834  -29.6797   24.1182 H   0  0  0  0  0  0
  -27.4087  -29.7293   25.4560 H   0  0  0  0  0  0
  -27.8667  -30.4345   23.9231 H   0  0  0  0  0  0
  -27.2694  -33.3623   26.2061 H   0  0  0  0  0  0
  -28.3864  -32.6869   25.0301 H   0  0  0  0  0  0
  -28.0726  -31.8435   26.5383 H   0  0  0  0  0  0
  -28.2612  -38.0108   24.7526 H   0  0  0  0  0  0
  -28.1072  -36.2643   24.6279 H   0  0  0  0  0  0
  -27.2303  -37.1448   25.8867 H   0  0  0  0  0  0
  -20.9316  -29.8756   21.6943 H   0  0  0  0  0  0
  -26.0186  -38.2870   24.1419 H   0  0  0  0  0  0
  -32.4263  -16.5761   19.5432 H   0  0  0  0  0  0
  -31.6114  -20.7152   19.7421 H   0  0  0  0  0  0
  -28.7070  -17.9355   21.3035 H   0  0  0  0  0  0
  -33.2549  -17.2840   17.4658 H   0  0  0  0  0  0
  -34.4174  -18.5016   16.9728 H   0  0  0  0  0  0
  -32.6960  -18.8552   16.9126 H   0  0  0  0  0  0
  -34.5303  -17.0869   19.7135 H   0  0  0  0  0  0
  -34.6962  -18.5014   20.7443 H   0  0  0  0  0  0
  -35.6275  -18.3657   19.2620 H   0  0  0  0  0  0
  -33.2194  -20.9667   18.2608 H   0  0  0  0  0  0
  -34.8997  -20.5184   18.4063 H   0  0  0  0  0  0
  -33.9670  -20.8371   19.8561 H   0  0  0  0  0  0
  -27.5316  -22.6845   20.5879 H   0  0  0  0  0  0
  -28.5296  -23.0194   21.9833 H   0  0  0  0  0  0
  -28.7301  -24.3298   19.2133 H   0  0  0  0  0  0
  -29.9519  -24.5768   20.4442 H   0  0  0  0  0  0
  -30.5028  -22.1143   20.9028 H   0  0  0  0  0  0
  -29.6366  -21.8704   19.3863 H   0  0  0  0  0  0
  -29.1214  -15.5368   21.0516 H   0  0  0  0  0  0
  -28.4238  -25.6301   21.8214 H   0  0  0  0  0  0
  1 25  1  0  0  0
  1 30  2  0  0  0
  1 84  1  0  0  0
  2  3  1  0  0  0
  2 25  1  0  0  0
  2 87  1  0  0  0
  2 88  1  0  0  0
  3  4  1  0  0  0
  3 89  1  0  0  0
  3 90  1  0  0  0
  4  5  1  0  0  0
  4 91  1  0  0  0
  4 92  1  0  0  0
  5  6  1  0  0  0
  5 26  1  0  0  0
  5 93  1  0  0  0
  6 25  1  0  0  0
  6 94  1  0  0  0
  6 95  1  0  0  0
  7  8  2  0  0  0
  7 26  1  0  0  0
  7 29  1  0  0  0
  8  9  1  0  0  0
  8 22  1  0  0  0
  9 10  1  0  0  0
  9 27  2  0  0  0
 10 11  2  0  0  0
 10 15  1  0  0  0
 11 12  1  0  0  0
 11 96  1  0  0  0
 12 13  2  0  0  0
 12 97  1  0  0  0
 13 14  1  0  0  0
 13 31  1  0  0  0
 14 15  2  0  0  0
 14 98  1  0  0  0
 15 99  1  0  0  0
 16 17  2  0  0  0
 16 21  1  0  0  0
 16 31  1  0  0  0
 17 18  1  0  0  0
 17100  1  0  0  0
 18 19  2  0  0  0
 18101  1  0  0  0
 19 20  1  0  0  0
 19 24  1  0  0  0
 20 21  2  0  0  0
 20102  1  0  0  0
 21 23  1  0  0  0
 22 28  1  0  0  0
 22 32  2  0  0  0
 26 27  1  0  0  0
 28103  1  0  0  0
 28104  1  0  0  0
 29105  1  0  0  0
 29106  1  0  0  0
 33 34  1  0  0  0
 33 66  1  0  0  0
 33 70  2  0  0  0
 34 36  1  0  0  0
 34 59  1  0  0  0
 34107  1  0  0  0
 35 44  2  0  0  0
 35 45  1  0  0  0
 35 68  1  0  0  0
 36 56  1  0  0  0
 36108  1  0  0  0
 37 39  1  0  0  0
 37 47  1  0  0  0
 37 66  1  0  0  0
 37109  1  0  0  0
 38 43  2  0  0  0
 38 46  1  0  0  0
 38 47  1  0  0  0
 39 64  1  0  0  0
 39 67  2  0  0  0
 40 52  1  0  0  0
 40 53  2  0  0  0
 40 58  1  0  0  0
 41110  1  0  0  0
 41111  1  0  0  0
 41112  1  0  0  0
 41 48  1  0  0  0
 42 43  1  0  0  0
 42 66  1  0  0  0
 42113  1  0  0  0
 42114  1  0  0  0
 43 44  1  0  0  0
 44115  1  0  0  0
 45 46  2  0  0  0
 45116  1  0  0  0
 46117  1  0  0  0
 47118  1  0  0  0
 47119  1  0  0  0
 48 56  1  0  0  0
 48 65  1  0  0  0
 48120  1  0  0  0
 49 50  1  0  0  0
 49 53  1  0  0  0
 49 64  1  0  0  0
 49121  1  0  0  0
 50 51  1  0  0  0
 50122  1  0  0  0
 50123  1  0  0  0
 51 52  1  0  0  0
 51124  1  0  0  0
 51125  1  0  0  0
 52126  1  0  0  0
 52127  1  0  0  0
 53 54  1  0  0  0
 54 55  2  0  0  0
 54128  1  0  0  0
 55 57  1  0  0  0
 55129  1  0  0  0
 56 69  2  0  0  0
 57 58  2  0  0  0
 57130  1  0  0  0
 58131  1  0  0  0
 59 60  1  0  0  0
 59 61  1  0  0  0
 59 62  1  0  0  0
 60132  1  0  0  0
 60133  1  0  0  0
 60134  1  0  0  0
 61135  1  0  0  0
 61136  1  0  0  0
 61137  1  0  0  0
 62138  1  0  0  0
 62139  1  0  0  0
 62140  1  0  0  0
 63 65  1  0  0  0
 63141  1  0  0  0
 63142  1  0  0  0
 63143  1  0  0  0
 64144  1  0  0  0
 65145  1  0  0  0
 68 85  1  0  0  0
 71 74  2  0  0  0
 71 75  1  0  0  0
 71146  1  0  0  0
 72 74  1  0  0  0
 72 76  2  0  0  0
 72147  1  0  0  0
 73 75  2  0  0  0
 73 76  1  0  0  0
 73148  1  0  0  0
 74 83  1  0  0  0
 75 84  1  0  0  0
 76 86  1  0  0  0
 77149  1  0  0  0
 77150  1  0  0  0
 77151  1  0  0  0
 77 83  1  0  0  0
 78 83  1  0  0  0
 78152  1  0  0  0
 78153  1  0  0  0
 78154  1  0  0  0
 79 83  1  0  0  0
 79155  1  0  0  0
 79156  1  0  0  0
 79157  1  0  0  0
 80 81  1  0  0  0
 80 82  1  0  0  0
 80158  1  0  0  0
 80159  1  0  0  0
 81 85  1  0  0  0
 81160  1  0  0  0
 81161  1  0  0  0
 82 86  1  0  0  0
 82162  1  0  0  0
 82163  1  0  0  0
 84164  1  0  0  0
 85165  1  0  0  0
M  ISO  4   1 100  68 101  84 100  85 101
M  END
> <chiral flag>
0

> <version>
0

> <s_m_source_file>
/data/baiqing/PycharmProjects/Reinvent-master-3.2/result/LINK_invent/BTK/process_docking_weight1_custom_sum_contain_oxygen_bond_distance_aromatic_linkinvent_7_9_3/rearranged_h_0101.sdf

> <i_m_source_file_index>
71

> <r_mmod_Potential_Energy-OPLS-2005>
-35.1344261169434

> <r_mmod_Stretch_Energy-OPLS-2005>
47.8541526794434

> <r_mmod_Bend_Energy-OPLS-2005>
109.48462677002

> <r_mmod_Torsional_Energy-OPLS-2005>
209.971572875977

> <r_mmod_Improper_Torsional_Energy-OPLS-2005>
4.22954845428467

> <r_mmod_Van_der_Waal_Energy-OPLS-2005>
177.524917602539

> <r_mmod_Electrostatic_Energy-OPLS-2005>
-401.509826660156

> <r_mmod_Solvation_Energy-OPLS-2005>
-209.083312988281

> <b_mmod_Minimization_Converged-OPLS-2005>
0

> <r_mmod_RMS_Derivative-OPLS-2005>
1.42106056213379

$$$$
71
                    3D
 Structure written by MMmdl.
168176  0  0  1  0            999 V2000
  -30.2916  -15.6421   20.3156 C   0  0  0  0  0  0
  -30.4151  -13.0791   19.5582 C   0  0  0  0  0  0
  -29.5512  -12.6729   18.3291 C   0  0  0  0  0  0
  -28.1229  -12.3131   18.7623 C   0  0  0  0  0  0
  -27.5902  -13.3156   19.8107 C   0  0  2  0  0  0
  -28.5987  -13.6464   20.9371 C   0  0  0  0  0  0
  -25.2274  -13.8292   20.5764 C   0  0  0  0  0  0
  -24.1676  -13.0433   20.9273 C   0  0  0  0  0  0
  -24.6393  -11.6949   20.8739 C   0  0  0  0  0  0
  -23.9096  -10.4293   21.0384 C   0  0  0  0  0  0
  -24.3642   -9.4201   21.9170 C   0  0  0  0  0  0
  -23.6298   -8.2236   22.0748 C   0  0  0  0  0  0
  -22.4268   -8.0276   21.3547 C   0  0  0  0  0  0
  -21.9928   -9.0247   20.4647 C   0  0  0  0  0  0
  -22.7258  -10.2121   20.3036 C   0  0  0  0  0  0
  -21.6861   -6.0723   22.5273 C   0  0  0  0  0  0
  -21.4029   -6.5625   23.8209 C   0  0  0  0  0  0
  -21.3664   -5.6777   24.9182 C   0  0  0  0  0  0
  -21.6050   -4.3035   24.7232 C   0  0  0  0  0  0
  -21.8807   -3.8126   23.4346 C   0  0  0  0  0  0
  -21.9196   -4.6952   22.3407 C   0  0  0  0  0  0
  -22.7690  -13.5158   21.1914 C   0  0  0  0  0  0
  -22.1647   -4.2138   21.0982 F   0  0  0  0  0  0
  -21.5629   -3.4523   25.7738 F   0  0  0  0  0  0
  -29.7802  -14.2686   20.2937 N   0  0  0  0  0  0
  -26.2720  -12.9637   20.3181 N   0  0  0  0  0  0
  -25.9336  -11.6701   20.5648 N   0  0  0  0  0  0
  -22.0358  -12.8146   22.0481 N   0  0  0  0  0  0
  -25.3858  -15.2037   20.4189 N   0  0  0  0  0  0
  -31.5225  -15.5646   20.1285 O   0  0  0  0  0  0
  -21.6627   -6.8868   21.4234 O   0  0  0  0  0  0
  -22.3361  -14.5449   20.6743 O   0  0  0  0  0  0
  -24.6875  -31.7945   23.1459 C   0  0  0  0  0  0
  -25.9433  -32.4437   23.8026 C   0  0  1  0  0  0
  -27.2358  -26.6629   20.2365 C   0  0  0  0  0  0
  -25.5982  -33.8253   24.1922 N   0  0  0  0  0  0
  -23.5178  -30.3949   21.4992 C   0  0  2  0  0  0
  -24.9756  -28.7182   20.1292 C   0  0  0  0  0  0
  -22.7796  -29.4296   22.4683 C   0  0  0  0  0  0
  -18.0343  -28.1438   22.8429 C   0  0  0  0  0  0
  -24.1494  -36.7148   23.2662 C   0  0  0  0  0  0
  -26.0992  -30.5165   21.4155 C   0  0  0  0  0  0
  -26.1675  -29.0741   20.7729 C   0  0  0  0  0  0
  -27.2815  -28.0771   20.7901 C   0  0  0  0  0  0
  -26.0069  -26.5234   19.5400 C   0  0  0  0  0  0
  -24.9350  -27.4674   19.4897 C   0  0  0  0  0  0
  -23.7770  -29.6818   20.1406 C   0  0  0  0  0  0
  -25.4141  -36.2872   24.0290 C   0  0  1  0  0  0
  -20.5979  -28.3787   23.1122 C   0  0  2  0  0  0
  -20.6796  -26.9448   22.5393 C   0  0  0  0  0  0
  -19.5768  -26.6379   21.5210 C   0  0  0  0  0  0
  -18.1963  -26.7960   22.1620 C   0  0  0  0  0  0
  -19.1615  -28.8933   23.2757 C   0  0  0  0  0  0
  -18.9526  -30.1522   23.8791 C   0  0  0  0  0  0
  -17.6511  -30.6606   24.0565 C   0  0  0  0  0  0
  -25.9120  -34.9270   23.4940 C   0  0  0  0  0  0
  -16.5401  -29.9082   23.6369 C   0  0  0  0  0  0
  -16.7325  -28.6529   23.0343 C   0  0  0  0  0  0
  -26.4580  -31.6484   25.0677 C   0  0  0  0  0  0
  -25.3628  -31.3845   26.1299 C   0  0  0  0  0  0
  -27.0530  -30.2808   24.6634 C   0  0  0  0  0  0
  -27.6029  -32.4348   25.7493 C   0  0  0  0  0  0
  -27.5566  -37.1742   24.8463 C   0  0  0  0  0  0
  -21.4443  -29.3039   22.3444 N   0  0  0  0  0  0
  -26.4255  -37.3650   23.9422 N   0  0  0  0  0  0
  -24.7920  -30.9367   22.0721 N   0  0  0  0  0  0
  -23.4222  -28.7921   23.3068 O   0  0  0  0  0  0
  -28.2237  -25.4506   20.2294 O   0  0  0  0  0  0
  -26.5771  -34.8854   22.4571 O   0  0  0  0  0  0
  -23.5896  -32.1020   23.6397 O   0  0  0  0  0  0
  -30.2148  -20.4991   21.5520 C   0  0  0  0  0  0
  -31.5629  -20.3648   21.1115 C   0  0  0  0  0  0
  -29.2113  -20.1976   20.6090 C   0  0  0  0  0  0
  -31.8356  -19.7219   19.8653 C   0  0  0  0  0  0
  -30.8456  -18.8799   19.3058 C   0  0  0  0  0  0
  -29.6717  -18.7040   20.0619 C   0  0  0  0  0  0
  -33.1945  -19.8199   19.1752 C   0  0  0  0  0  0
  -31.1588  -17.9928   18.1082 C   0  0  0  0  0  0
  -35.7395  -19.6128   23.9419 C   0  0  0  0  0  0
  -35.9347  -21.1015   21.9240 C   0  0  0  0  0  0
  -32.6824  -21.0031   21.9290 C   0  0  0  0  0  0
  -28.8467  -21.9298   19.9609 C   0  0  0  0  0  0
  -33.7050  -19.9724   22.4629 C   0  0  0  0  0  0
  -28.1332  -23.6859   20.4953 C   0  0  0  0  0  0
  -34.9916  -20.6053   23.0365 C   0  0  0  0  0  0
  -29.5354  -17.0177   20.4207 N   0  0  0  0  0  0
  -31.4176  -13.3260   19.2084 H   0  0  0  0  0  0
  -30.5554  -12.2309   20.2306 H   0  0  0  0  0  0
  -30.0106  -11.8430   17.7920 H   0  0  0  0  0  0
  -29.5178  -13.5069   17.6257 H   0  0  0  0  0  0
  -28.1454  -11.3114   19.1929 H   0  0  0  0  0  0
  -27.4581  -12.2646   17.8982 H   0  0  0  0  0  0
  -27.4527  -14.2384   19.2459 H   0  0  0  0  0  0
  -28.8470  -12.7660   21.5301 H   0  0  0  0  0  0
  -28.1598  -14.3670   21.6278 H   0  0  0  0  0  0
  -25.2799   -9.5680   22.4732 H   0  0  0  0  0  0
  -24.0012   -7.4639   22.7470 H   0  0  0  0  0  0
  -21.0852   -8.8769   19.8961 H   0  0  0  0  0  0
  -22.3720  -10.9653   19.6122 H   0  0  0  0  0  0
  -21.2029   -7.6135   23.9723 H   0  0  0  0  0  0
  -21.1497   -6.0503   25.9085 H   0  0  0  0  0  0
  -22.0594   -2.7586   23.2845 H   0  0  0  0  0  0
  -22.3968  -11.9839   22.4928 H   0  0  0  0  0  0
  -21.0966  -13.1163   22.2667 H   0  0  0  0  0  0
  -24.6108  -15.8500   20.5213 H   0  0  0  0  0  0
  -26.2260  -15.6455   20.0723 H   0  0  0  0  0  0
  -26.7540  -32.4913   23.0765 H   0  0  0  0  0  0
  -25.0003  -33.9255   24.9989 H   0  0  0  0  0  0
  -22.8468  -31.2346   21.3024 H   0  0  0  0  0  0
  -23.3754  -35.9475   23.3245 H   0  0  0  0  0  0
  -24.3582  -36.8883   22.2096 H   0  0  0  0  0  0
  -23.7258  -37.6314   23.6774 H   0  0  0  0  0  0
  -26.3045  -31.2339   20.6203 H   0  0  0  0  0  0
  -26.9467  -30.5912   22.0839 H   0  0  0  0  0  0
  -28.1783  -28.3650   21.3214 H   0  0  0  0  0  0
  -25.8428  -25.5808   19.0391 H   0  0  0  0  0  0
  -24.0400  -27.1797   18.9564 H   0  0  0  0  0  0
  -23.9626  -30.4348   19.3729 H   0  0  0  0  0  0
  -22.8799  -29.1517   19.8148 H   0  0  0  0  0  0
  -25.1363  -36.1616   25.0779 H   0  0  0  0  0  0
  -21.0062  -28.3418   24.1244 H   0  0  0  0  0  0
  -20.5625  -26.2452   23.3676 H   0  0  0  0  0  0
  -21.6675  -26.7375   22.1261 H   0  0  0  0  0  0
  -19.6929  -25.6267   21.1303 H   0  0  0  0  0  0
  -19.6700  -27.3141   20.6698 H   0  0  0  0  0  0
  -17.4248  -26.6691   21.4025 H   0  0  0  0  0  0
  -18.0340  -26.0131   22.9035 H   0  0  0  0  0  0
  -19.8002  -30.7380   24.2096 H   0  0  0  0  0  0
  -17.5064  -31.6264   24.5215 H   0  0  0  0  0  0
  -15.5391  -30.2959   23.7734 H   0  0  0  0  0  0
  -15.8736  -28.0833   22.7048 H   0  0  0  0  0  0
  -24.5818  -30.7164   25.7650 H   0  0  0  0  0  0
  -24.8792  -32.3068   26.4506 H   0  0  0  0  0  0
  -25.7793  -30.9187   27.0231 H   0  0  0  0  0  0
  -26.3261  -29.6390   24.1637 H   0  0  0  0  0  0
  -27.3932  -29.7309   25.5424 H   0  0  0  0  0  0
  -27.9249  -30.3929   24.0189 H   0  0  0  0  0  0
  -27.2561  -33.3721   26.1850 H   0  0  0  0  0  0
  -28.3935  -32.6784   25.0385 H   0  0  0  0  0  0
  -28.0559  -31.8606   26.5584 H   0  0  0  0  0  0
  -28.2561  -38.0065   24.7517 H   0  0  0  0  0  0
  -28.1078  -36.2591   24.6245 H   0  0  0  0  0  0
  -27.2291  -37.1349   25.8868 H   0  0  0  0  0  0
  -20.9740  -29.8733   21.6538 H   0  0  0  0  0  0
  -26.0061  -38.2698   24.1392 H   0  0  0  0  0  0
  -30.0298  -21.2467   22.3136 H   0  0  0  0  0  0
  -33.7113  -18.8595   19.2094 H   0  0  0  0  0  0
  -33.8543  -20.5651   19.6109 H   0  0  0  0  0  0
  -33.0647  -20.1029   18.1303 H   0  0  0  0  0  0
  -32.0113  -17.3484   18.3206 H   0  0  0  0  0  0
  -31.4032  -18.5912   17.2322 H   0  0  0  0  0  0
  -30.3074  -17.3664   17.8389 H   0  0  0  0  0  0
  -36.6275  -20.0686   24.3826 H   0  0  0  0  0  0
  -36.0632  -18.7286   23.3906 H   0  0  0  0  0  0
  -35.1103  -19.2711   24.7631 H   0  0  0  0  0  0
  -36.7973  -21.6252   22.3376 H   0  0  0  0  0  0
  -35.4414  -21.7922   21.2423 H   0  0  0  0  0  0
  -36.3149  -20.2728   21.3248 H   0  0  0  0  0  0
  -32.2557  -21.5451   22.7745 H   0  0  0  0  0  0
  -33.1672  -21.7669   21.3232 H   0  0  0  0  0  0
  -28.3009  -21.7077   19.0441 H   0  0  0  0  0  0
  -29.8338  -22.2087   19.5890 H   0  0  0  0  0  0
  -33.9962  -19.2706   21.6816 H   0  0  0  0  0  0
  -33.2142  -19.3646   23.2250 H   0  0  0  0  0  0
  -28.3575  -23.6773   21.5621 H   0  0  0  0  0  0
  -27.0578  -23.5160   20.4672 H   0  0  0  0  0  0
  -34.7056  -21.4602   23.6515 H   0  0  0  0  0  0
  -28.6046  -16.8147   20.7596 H   0  0  0  0  0  0
  1 25  1  0  0  0
  1 30  2  0  0  0
  1 86  1  0  0  0
  2  3  1  0  0  0
  2 25  1  0  0  0
  2 87  1  0  0  0
  2 88  1  0  0  0
  3  4  1  0  0  0
  3 89  1  0  0  0
  3 90  1  0  0  0
  4  5  1  0  0  0
  4 91  1  0  0  0
  4 92  1  0  0  0
  5  6  1  0  0  0
  5 26  1  0  0  0
  5 93  1  0  0  0
  6 25  1  0  0  0
  6 94  1  0  0  0
  6 95  1  0  0  0
  7  8  2  0  0  0
  7 26  1  0  0  0
  7 29  1  0  0  0
  8  9  1  0  0  0
  8 22  1  0  0  0
  9 10  1  0  0  0
  9 27  2  0  0  0
 10 11  2  0  0  0
 10 15  1  0  0  0
 11 12  1  0  0  0
 11 96  1  0  0  0
 12 13  2  0  0  0
 12 97  1  0  0  0
 13 14  1  0  0  0
 13 31  1  0  0  0
 14 15  2  0  0  0
 14 98  1  0  0  0
 15 99  1  0  0  0
 16 17  2  0  0  0
 16 21  1  0  0  0
 16 31  1  0  0  0
 17 18  1  0  0  0
 17100  1  0  0  0
 18 19  2  0  0  0
 18101  1  0  0  0
 19 20  1  0  0  0
 19 24  1  0  0  0
 20 21  2  0  0  0
 20102  1  0  0  0
 21 23  1  0  0  0
 22 28  1  0  0  0
 22 32  2  0  0  0
 26 27  1  0  0  0
 28103  1  0  0  0
 28104  1  0  0  0
 29105  1  0  0  0
 29106  1  0  0  0
 33 34  1  0  0  0
 33 66  1  0  0  0
 33 70  2  0  0  0
 34 36  1  0  0  0
 34 59  1  0  0  0
 34107  1  0  0  0
 35 44  2  0  0  0
 35 45  1  0  0  0
 35 68  1  0  0  0
 36 56  1  0  0  0
 36108  1  0  0  0
 37 39  1  0  0  0
 37 47  1  0  0  0
 37 66  1  0  0  0
 37109  1  0  0  0
 38 43  2  0  0  0
 38 46  1  0  0  0
 38 47  1  0  0  0
 39 64  1  0  0  0
 39 67  2  0  0  0
 40 52  1  0  0  0
 40 53  2  0  0  0
 40 58  1  0  0  0
 41110  1  0  0  0
 41111  1  0  0  0
 41112  1  0  0  0
 41 48  1  0  0  0
 42 43  1  0  0  0
 42 66  1  0  0  0
 42113  1  0  0  0
 42114  1  0  0  0
 43 44  1  0  0  0
 44115  1  0  0  0
 45 46  2  0  0  0
 45116  1  0  0  0
 46117  1  0  0  0
 47118  1  0  0  0
 47119  1  0  0  0
 48 56  1  0  0  0
 48 65  1  0  0  0
 48120  1  0  0  0
 49 50  1  0  0  0
 49 53  1  0  0  0
 49 64  1  0  0  0
 49121  1  0  0  0
 50 51  1  0  0  0
 50122  1  0  0  0
 50123  1  0  0  0
 51 52  1  0  0  0
 51124  1  0  0  0
 51125  1  0  0  0
 52126  1  0  0  0
 52127  1  0  0  0
 53 54  1  0  0  0
 54 55  2  0  0  0
 54128  1  0  0  0
 55 57  1  0  0  0
 55129  1  0  0  0
 56 69  2  0  0  0
 57 58  2  0  0  0
 57130  1  0  0  0
 58131  1  0  0  0
 59 60  1  0  0  0
 59 61  1  0  0  0
 59 62  1  0  0  0
 60132  1  0  0  0
 60133  1  0  0  0
 60134  1  0  0  0
 61135  1  0  0  0
 61136  1  0  0  0
 61137  1  0  0  0
 62138  1  0  0  0
 62139  1  0  0  0
 62140  1  0  0  0
 63 65  1  0  0  0
 63141  1  0  0  0
 63142  1  0  0  0
 63143  1  0  0  0
 64144  1  0  0  0
 65145  1  0  0  0
 68 84  1  0  0  0
 71 72  2  0  0  0
 71 73  1  0  0  0
 71146  1  0  0  0
 72 74  1  0  0  0
 72 81  1  0  0  0
 73 76  2  0  0  0
 73 82  1  0  0  0
 74 75  2  0  0  0
 74 77  1  0  0  0
 75 76  1  0  0  0
 75 78  1  0  0  0
 76 86  1  0  0  0
 77147  1  0  0  0
 77148  1  0  0  0
 77149  1  0  0  0
 78150  1  0  0  0
 78151  1  0  0  0
 78152  1  0  0  0
 79153  1  0  0  0
 79154  1  0  0  0
 79155  1  0  0  0
 79 85  1  0  0  0
 80 85  1  0  0  0
 80156  1  0  0  0
 80157  1  0  0  0
 80158  1  0  0  0
 81 83  1  0  0  0
 81159  1  0  0  0
 81160  1  0  0  0
 82 84  1  0  0  0
 82161  1  0  0  0
 82162  1  0  0  0
 83 85  1  0  0  0
 83163  1  0  0  0
 83164  1  0  0  0
 84165  1  0  0  0
 84166  1  0  0  0
 85167  1  0  0  0
 86168  1  0  0  0
M  ISO  4   1 100  68 101  84 101  86 100
M  END
> <chiral flag>
0

> <version>
0

> <s_m_source_file>
/data/baiqing/PycharmProjects/Reinvent-master-3.2/result/LINK_invent/BTK/process_docking_weight1_custom_sum_contain_oxygen_bond_distance_aromatic_linkinvent_7_9_3/rearranged_h_0101.sdf

> <i_m_source_file_index>
72

> <r_mmod_Potential_Energy-OPLS-2005>
2916.84399414062

> <r_mmod_Stretch_Energy-OPLS-2005>
1219.27575683594

> <r_mmod_Bend_Energy-OPLS-2005>
714.919311523438

> <r_mmod_Torsional_Energy-OPLS-2005>
483.772735595703

> <r_mmod_Improper_Torsional_Energy-OPLS-2005>
36.2763328552246

> <r_mmod_Van_der_Waal_Energy-OPLS-2005>
138.611557006836

> <r_mmod_Electrostatic_Energy-OPLS-2005>
-406.181793212891

> <r_mmod_Solvation_Energy-OPLS-2005>
-202.522186279297

> <b_mmod_Minimization_Converged-OPLS-2005>
0

> <r_mmod_RMS_Derivative-OPLS-2005>
3.46396088600159

$$$$
72
                    3D
 Structure written by MMmdl.
162170  0  0  1  0            999 V2000
  -30.7189  -14.5173   20.5896 C   0  0  0  0  0  0
  -30.4227  -12.3461   19.4387 C   0  0  0  0  0  0
  -29.5026  -12.5089   18.2137 C   0  0  0  0  0  0
  -28.0261  -12.3586   18.6253 C   0  0  0  0  0  0
  -27.6575  -13.2156   19.8684 C   0  0  2  0  0  0
  -28.6984  -13.0406   20.9982 C   0  0  0  0  0  0
  -25.2603  -13.8168   20.5715 C   0  0  0  0  0  0
  -24.1874  -13.0444   20.9198 C   0  0  0  0  0  0
  -24.6419  -11.6902   20.8723 C   0  0  0  0  0  0
  -23.9079  -10.4299   21.0387 C   0  0  0  0  0  0
  -24.3634   -9.4219   21.9172 C   0  0  0  0  0  0
  -23.6317   -8.2251   22.0753 C   0  0  0  0  0  0
  -22.4284   -8.0296   21.3560 C   0  0  0  0  0  0
  -21.9917   -9.0256   20.4644 C   0  0  0  0  0  0
  -22.7240  -10.2140   20.3046 C   0  0  0  0  0  0
  -21.6852   -6.0756   22.5287 C   0  0  0  0  0  0
  -21.4007   -6.5659   23.8219 C   0  0  0  0  0  0
  -21.3657   -5.6805   24.9188 C   0  0  0  0  0  0
  -21.6036   -4.3064   24.7218 C   0  0  0  0  0  0
  -21.8814   -3.8165   23.4340 C   0  0  0  0  0  0
  -21.9202   -4.6991   22.3409 C   0  0  0  0  0  0
  -22.7898  -13.5243   21.1857 C   0  0  0  0  0  0
  -22.1667   -4.2192   21.0977 F   0  0  0  0  0  0
  -21.5615   -3.4537   25.7715 F   0  0  0  0  0  0
  -30.0251  -13.3501   20.4433 N   0  0  0  0  0  0
  -26.3017  -12.9348   20.3327 N   0  0  0  0  0  0
  -25.9342  -11.6488   20.5726 N   0  0  0  0  0  0
  -22.0512  -12.8250   22.0383 N   0  0  0  0  0  0
  -25.4322  -15.1896   20.4137 N   0  0  0  0  0  0
  -31.8347  -14.6734   20.0874 O   0  0  0  0  0  0
  -21.6639   -6.8898   21.4257 O   0  0  0  0  0  0
  -22.3591  -14.5559   20.6706 O   0  0  0  0  0  0
  -24.6193  -31.8631   23.2056 C   0  0  0  0  0  0
  -25.9062  -32.4805   23.8375 C   0  0  1  0  0  0
  -27.2337  -27.3864   20.1165 C   0  0  0  0  0  0
  -25.5893  -33.8605   24.2302 N   0  0  0  0  0  0
  -23.4110  -30.4875   21.5443 C   0  0  2  0  0  0
  -24.8593  -28.9458   20.1138 C   0  0  0  0  0  0
  -22.7434  -29.4646   22.4933 C   0  0  0  0  0  0
  -18.0279  -28.1412   22.8492 C   0  0  0  0  0  0
  -24.1481  -36.7290   23.2641 C   0  0  0  0  0  0
  -25.9430  -30.8170   21.3647 C   0  0  0  0  0  0
  -26.0213  -29.4466   20.7136 C   0  0  0  0  0  0
  -27.2125  -28.6767   20.7081 C   0  0  0  0  0  0
  -26.0550  -26.9155   19.4980 C   0  0  0  0  0  0
  -24.8727  -27.6813   19.4997 C   0  0  0  0  0  0
  -23.6242  -29.8175   20.1597 C   0  0  0  0  0  0
  -25.4109  -36.3102   24.0336 C   0  0  1  0  0  0
  -20.5877  -28.3706   23.1292 C   0  0  2  0  0  0
  -20.6769  -26.9432   22.5414 C   0  0  0  0  0  0
  -19.5743  -26.6404   21.5216 C   0  0  0  0  0  0
  -18.1923  -26.7951   22.1621 C   0  0  0  0  0  0
  -19.1533  -28.8870   23.2898 C   0  0  0  0  0  0
  -18.9457  -30.1473   23.8924 C   0  0  0  0  0  0
  -17.6464  -30.6611   24.0577 C   0  0  0  0  0  0
  -25.9041  -34.9472   23.5117 C   0  0  0  0  0  0
  -16.5354  -29.9126   23.6328 C   0  0  0  0  0  0
  -16.7262  -28.6537   23.0341 C   0  0  0  0  0  0
  -26.4482  -31.6606   25.0727 C   0  0  0  0  0  0
  -25.3745  -31.3734   26.1477 C   0  0  0  0  0  0
  -27.0334  -30.3056   24.6135 C   0  0  0  0  0  0
  -27.6040  -32.4355   25.7483 C   0  0  0  0  0  0
  -27.5575  -37.1813   24.8470 C   0  0  0  0  0  0
  -21.4158  -29.3055   22.3682 N   0  0  0  0  0  0
  -26.4287  -37.3792   23.9416 N   0  0  0  0  0  0
  -24.6758  -31.0725   22.0954 N   0  0  0  0  0  0
  -23.4180  -28.8177   23.2991 O   0  0  0  0  0  0
  -28.3861  -26.6132   20.1261 O   0  0  0  0  0  0
  -26.5597  -34.8915   22.4678 O   0  0  0  0  0  0
  -23.5379  -32.1372   23.7439 O   0  0  0  0  0  0
  -30.9981  -19.1669   22.3564 C   0  0  0  0  0  0
  -29.4182  -18.6455   20.6331 C   0  0  0  0  0  0
  -30.3585  -18.1804   21.5798 C   0  0  0  0  0  0
  -30.7211  -20.5376   22.1705 C   0  0  0  0  0  0
  -29.7913  -20.9060   21.1707 C   0  0  0  0  0  0
  -30.6090  -22.4947   23.8435 C   0  0  0  0  0  0
  -32.5185  -22.3250   22.1637 C   0  0  0  0  0  0
  -30.8268  -16.7145   21.8058 C   0  0  0  0  0  0
  -28.9205  -24.2306   19.5000 C   0  0  0  0  0  0
  -28.2604  -25.2128   20.5096 C   0  0  0  0  0  0
  -28.8098  -22.6928   19.7871 C   0  0  0  0  0  0
  -31.4979  -21.5553   23.0120 C   0  0  0  0  0  0
  -29.1457  -19.9676   20.4274 N   0  0  0  0  0  0
  -30.1145  -15.5315   21.2572 N   0  0  0  0  0  0
  -29.5615  -22.2594   20.9291 O   0  0  0  0  0  0
  -31.4653  -12.4442   19.1331 H   0  0  0  0  0  0
  -30.3374  -11.3402   19.8500 H   0  0  0  0  0  0
  -29.7592  -11.7694   17.4545 H   0  0  0  0  0  0
  -29.6666  -13.4881   17.7591 H   0  0  0  0  0  0
  -27.8586  -11.3038   18.8408 H   0  0  0  0  0  0
  -27.3787  -12.6008   17.7820 H   0  0  0  0  0  0
  -27.6880  -14.2590   19.5529 H   0  0  0  0  0  0
  -28.6865  -12.0158   21.3748 H   0  0  0  0  0  0
  -28.4470  -13.6719   21.8502 H   0  0  0  0  0  0
  -25.2765   -9.5711   22.4757 H   0  0  0  0  0  0
  -24.0041   -7.4632   22.7459 H   0  0  0  0  0  0
  -21.0849   -8.8754   19.8935 H   0  0  0  0  0  0
  -22.3684  -10.9688   19.6154 H   0  0  0  0  0  0
  -21.1997   -7.6152   23.9752 H   0  0  0  0  0  0
  -21.1478   -6.0518   25.9101 H   0  0  0  0  0  0
  -22.0606   -2.7630   23.2809 H   0  0  0  0  0  0
  -22.4104  -11.9932   22.4838 H   0  0  0  0  0  0
  -21.1128  -13.1298   22.2520 H   0  0  0  0  0  0
  -24.6625  -15.8432   20.5122 H   0  0  0  0  0  0
  -26.2841  -15.6281   20.0887 H   0  0  0  0  0  0
  -26.7133  -32.5511   23.1140 H   0  0  0  0  0  0
  -25.0097  -33.9768   25.0482 H   0  0  0  0  0  0
  -22.7039  -31.3067   21.4010 H   0  0  0  0  0  0
  -23.3748  -35.9618   23.3310 H   0  0  0  0  0  0
  -24.3570  -36.8901   22.2055 H   0  0  0  0  0  0
  -23.7238  -37.6493   23.6653 H   0  0  0  0  0  0
  -26.0669  -31.5802   20.5947 H   0  0  0  0  0  0
  -26.8246  -30.8683   21.9909 H   0  0  0  0  0  0
  -28.1073  -29.0558   21.1829 H   0  0  0  0  0  0
  -26.0448  -25.9517   19.0091 H   0  0  0  0  0  0
  -23.9808  -27.2929   19.0281 H   0  0  0  0  0  0
  -23.7448  -30.5893   19.3989 H   0  0  0  0  0  0
  -22.7468  -29.2434   19.8552 H   0  0  0  0  0  0
  -25.1307  -36.1946   25.0832 H   0  0  0  0  0  0
  -20.9981  -28.3281   24.1406 H   0  0  0  0  0  0
  -20.5692  -26.2308   23.3616 H   0  0  0  0  0  0
  -21.6641  -26.7485   22.1207 H   0  0  0  0  0  0
  -19.6906  -25.6316   21.1245 H   0  0  0  0  0  0
  -19.6689  -27.3219   20.6752 H   0  0  0  0  0  0
  -17.4202  -26.6695   21.4016 H   0  0  0  0  0  0
  -18.0321  -26.0112   22.9033 H   0  0  0  0  0  0
  -19.7933  -30.7280   24.2295 H   0  0  0  0  0  0
  -17.5020  -31.6282   24.5194 H   0  0  0  0  0  0
  -15.5357  -30.3040   23.7648 H   0  0  0  0  0  0
  -15.8646  -28.0878   22.7035 H   0  0  0  0  0  0
  -24.5889  -30.7131   25.7803 H   0  0  0  0  0  0
  -24.8985  -32.2906   26.4949 H   0  0  0  0  0  0
  -25.8082  -30.8872   27.0222 H   0  0  0  0  0  0
  -26.2896  -29.6809   24.1187 H   0  0  0  0  0  0
  -27.4095  -29.7324   25.4610 H   0  0  0  0  0  0
  -27.8721  -30.4381   23.9306 H   0  0  0  0  0  0
  -27.2630  -33.3635   26.2078 H   0  0  0  0  0  0
  -28.3815  -32.6956   25.0295 H   0  0  0  0  0  0
  -28.0742  -31.8495   26.5385 H   0  0  0  0  0  0
  -28.2617  -38.0089   24.7517 H   0  0  0  0  0  0
  -28.1050  -36.2630   24.6297 H   0  0  0  0  0  0
  -27.2294  -37.1464   25.8872 H   0  0  0  0  0  0
  -20.9315  -29.8788   21.6921 H   0  0  0  0  0  0
  -26.0164  -38.2861   24.1425 H   0  0  0  0  0  0
  -31.7391  -18.8656   23.0830 H   0  0  0  0  0  0
  -28.8888  -17.9494   19.9978 H   0  0  0  0  0  0
  -30.0173  -23.1684   23.2255 H   0  0  0  0  0  0
  -31.2245  -23.1230   24.4891 H   0  0  0  0  0  0
  -29.9262  -21.9405   24.4903 H   0  0  0  0  0  0
  -32.0384  -22.8698   21.3506 H   0  0  0  0  0  0
  -33.2424  -21.6379   21.7208 H   0  0  0  0  0  0
  -33.0735  -23.0462   22.7689 H   0  0  0  0  0  0
  -30.8571  -16.5568   22.8857 H   0  0  0  0  0  0
  -31.8735  -16.6997   21.4967 H   0  0  0  0  0  0
  -29.9721  -24.4910   19.3691 H   0  0  0  0  0  0
  -28.4546  -24.4135   18.5310 H   0  0  0  0  0  0
  -27.2263  -24.9109   20.6806 H   0  0  0  0  0  0
  -28.7476  -25.0933   21.4779 H   0  0  0  0  0  0
  -29.1962  -22.1681   18.9109 H   0  0  0  0  0  0
  -27.7677  -22.3941   19.9008 H   0  0  0  0  0  0
  -32.0773  -20.9849   23.7403 H   0  0  0  0  0  0
  -29.2043  -15.3234   21.6391 H   0  0  0  0  0  0
  1 25  1  0  0  0
  1 30  2  0  0  0
  1 84  1  0  0  0
  2  3  1  0  0  0
  2 25  1  0  0  0
  2 86  1  0  0  0
  2 87  1  0  0  0
  3  4  1  0  0  0
  3 88  1  0  0  0
  3 89  1  0  0  0
  4  5  1  0  0  0
  4 90  1  0  0  0
  4 91  1  0  0  0
  5  6  1  0  0  0
  5 26  1  0  0  0
  5 92  1  0  0  0
  6 25  1  0  0  0
  6 93  1  0  0  0
  6 94  1  0  0  0
  7  8  2  0  0  0
  7 26  1  0  0  0
  7 29  1  0  0  0
  8  9  1  0  0  0
  8 22  1  0  0  0
  9 10  1  0  0  0
  9 27  2  0  0  0
 10 11  2  0  0  0
 10 15  1  0  0  0
 11 12  1  0  0  0
 11 95  1  0  0  0
 12 13  2  0  0  0
 12 96  1  0  0  0
 13 14  1  0  0  0
 13 31  1  0  0  0
 14 15  2  0  0  0
 14 97  1  0  0  0
 15 98  1  0  0  0
 16 17  2  0  0  0
 16 21  1  0  0  0
 16 31  1  0  0  0
 17 18  1  0  0  0
 17 99  1  0  0  0
 18 19  2  0  0  0
 18100  1  0  0  0
 19 20  1  0  0  0
 19 24  1  0  0  0
 20 21  2  0  0  0
 20101  1  0  0  0
 21 23  1  0  0  0
 22 28  1  0  0  0
 22 32  2  0  0  0
 26 27  1  0  0  0
 28102  1  0  0  0
 28103  1  0  0  0
 29104  1  0  0  0
 29105  1  0  0  0
 33 34  1  0  0  0
 33 66  1  0  0  0
 33 70  2  0  0  0
 34 36  1  0  0  0
 34 59  1  0  0  0
 34106  1  0  0  0
 35 44  2  0  0  0
 35 45  1  0  0  0
 35 68  1  0  0  0
 36 56  1  0  0  0
 36107  1  0  0  0
 37 39  1  0  0  0
 37 47  1  0  0  0
 37 66  1  0  0  0
 37108  1  0  0  0
 38 43  2  0  0  0
 38 46  1  0  0  0
 38 47  1  0  0  0
 39 64  1  0  0  0
 39 67  2  0  0  0
 40 52  1  0  0  0
 40 53  2  0  0  0
 40 58  1  0  0  0
 41109  1  0  0  0
 41110  1  0  0  0
 41111  1  0  0  0
 41 48  1  0  0  0
 42 43  1  0  0  0
 42 66  1  0  0  0
 42112  1  0  0  0
 42113  1  0  0  0
 43 44  1  0  0  0
 44114  1  0  0  0
 45 46  2  0  0  0
 45115  1  0  0  0
 46116  1  0  0  0
 47117  1  0  0  0
 47118  1  0  0  0
 48 56  1  0  0  0
 48 65  1  0  0  0
 48119  1  0  0  0
 49 50  1  0  0  0
 49 53  1  0  0  0
 49 64  1  0  0  0
 49120  1  0  0  0
 50 51  1  0  0  0
 50121  1  0  0  0
 50122  1  0  0  0
 51 52  1  0  0  0
 51123  1  0  0  0
 51124  1  0  0  0
 52125  1  0  0  0
 52126  1  0  0  0
 53 54  1  0  0  0
 54 55  2  0  0  0
 54127  1  0  0  0
 55 57  1  0  0  0
 55128  1  0  0  0
 56 69  2  0  0  0
 57 58  2  0  0  0
 57129  1  0  0  0
 58130  1  0  0  0
 59 60  1  0  0  0
 59 61  1  0  0  0
 59 62  1  0  0  0
 60131  1  0  0  0
 60132  1  0  0  0
 60133  1  0  0  0
 61134  1  0  0  0
 61135  1  0  0  0
 61136  1  0  0  0
 62137  1  0  0  0
 62138  1  0  0  0
 62139  1  0  0  0
 63 65  1  0  0  0
 63140  1  0  0  0
 63141  1  0  0  0
 63142  1  0  0  0
 64143  1  0  0  0
 65144  1  0  0  0
 68 80  1  0  0  0
 71 73  2  0  0  0
 71 74  1  0  0  0
 71145  1  0  0  0
 72 73  1  0  0  0
 72 83  2  0  0  0
 72146  1  0  0  0
 73 78  1  0  0  0
 74 75  2  0  0  0
 74 82  1  0  0  0
 75 83  1  0  0  0
 75 85  1  0  0  0
 76147  1  0  0  0
 76148  1  0  0  0
 76149  1  0  0  0
 76 82  1  0  0  0
 77 82  1  0  0  0
 77150  1  0  0  0
 77151  1  0  0  0
 77152  1  0  0  0
 78 84  1  0  0  0
 78153  1  0  0  0
 78154  1  0  0  0
 79 80  1  0  0  0
 79 81  1  0  0  0
 79155  1  0  0  0
 79156  1  0  0  0
 80157  1  0  0  0
 80158  1  0  0  0
 81 85  1  0  0  0
 81159  1  0  0  0
 81160  1  0  0  0
 82161  1  0  0  0
 84162  1  0  0  0
M  ISO  4   1 100  68 101  80 101  84 100
M  END
> <chiral flag>
0

> <version>
0

> <s_m_source_file>
/data/baiqing/PycharmProjects/Reinvent-master-3.2/result/LINK_invent/BTK/process_docking_weight1_custom_sum_contain_oxygen_bond_distance_aromatic_linkinvent_7_9_3/rearranged_h_0101.sdf

> <i_m_source_file_index>
73

> <r_mmod_Potential_Energy-OPLS-2005>
-163.760726928711

> <r_mmod_Stretch_Energy-OPLS-2005>
50.0006790161133

> <r_mmod_Bend_Energy-OPLS-2005>
135.31282043457

> <r_mmod_Torsional_Energy-OPLS-2005>
197.045913696289

> <r_mmod_Improper_Torsional_Energy-OPLS-2005>
3.16550350189209

> <r_mmod_Van_der_Waal_Energy-OPLS-2005>
151.452362060547

> <r_mmod_Electrostatic_Energy-OPLS-2005>
-504.718719482422

> <r_mmod_Solvation_Energy-OPLS-2005>
-216.245819091797

> <b_mmod_Minimization_Converged-OPLS-2005>
0

> <r_mmod_RMS_Derivative-OPLS-2005>
4.04409742355347

$$$$
73
                    3D
 Structure written by MMmdl.
172180  0  0  1  0            999 V2000
  -30.5554  -14.9193   20.4889 C   0  0  0  0  0  0
  -30.4428  -12.5817   19.4856 C   0  0  0  0  0  0
  -29.5156  -12.5621   18.2426 C   0  0  0  0  0  0
  -28.0422  -12.3535   18.6468 C   0  0  0  0  0  0
  -27.6358  -13.2445   19.8474 C   0  0  2  0  0  0
  -28.6845  -13.1584   20.9697 C   0  0  0  0  0  0
  -25.2432  -13.8189   20.5649 C   0  0  0  0  0  0
  -24.1770  -13.0409   20.9219 C   0  0  0  0  0  0
  -24.6411  -11.6911   20.8767 C   0  0  0  0  0  0
  -23.9097  -10.4286   21.0426 C   0  0  0  0  0  0
  -24.3644   -9.4198   21.9199 C   0  0  0  0  0  0
  -23.6313   -8.2237   22.0762 C   0  0  0  0  0  0
  -22.4287   -8.0290   21.3563 C   0  0  0  0  0  0
  -21.9934   -9.0263   20.4657 C   0  0  0  0  0  0
  -22.7277  -10.2134   20.3066 C   0  0  0  0  0  0
  -21.6853   -6.0749   22.5293 C   0  0  0  0  0  0
  -21.4018   -6.5650   23.8226 C   0  0  0  0  0  0
  -21.3656   -5.6802   24.9188 C   0  0  0  0  0  0
  -21.6036   -4.3066   24.7233 C   0  0  0  0  0  0
  -21.8824   -3.8156   23.4358 C   0  0  0  0  0  0
  -21.9194   -4.6977   22.3412 C   0  0  0  0  0  0
  -22.7799  -13.5183   21.1898 C   0  0  0  0  0  0
  -22.1666   -4.2168   21.0987 F   0  0  0  0  0  0
  -21.5618   -3.4538   25.7735 F   0  0  0  0  0  0
  -29.9611  -13.6488   20.4194 N   0  0  0  0  0  0
  -26.2911  -12.9444   20.3261 N   0  0  0  0  0  0
  -25.9343  -11.6577   20.5747 N   0  0  0  0  0  0
  -22.0462  -12.8149   22.0453 N   0  0  0  0  0  0
  -25.3966  -15.1899   20.3945 N   0  0  0  0  0  0
  -31.7174  -14.9657   20.0677 O   0  0  0  0  0  0
  -21.6640   -6.8896   21.4259 O   0  0  0  0  0  0
  -22.3484  -14.5502   20.6771 O   0  0  0  0  0  0
  -24.6383  -31.8470   23.1924 C   0  0  0  0  0  0
  -25.9161  -32.4718   23.8311 C   0  0  1  0  0  0
  -27.2198  -27.1624   20.1393 C   0  0  0  0  0  0
  -25.5918  -33.8522   24.2231 N   0  0  0  0  0  0
  -23.4427  -30.4676   21.5377 C   0  0  2  0  0  0
  -24.8945  -28.9053   20.1107 C   0  0  0  0  0  0
  -22.7550  -29.4540   22.4862 C   0  0  0  0  0  0
  -18.0303  -28.1409   22.8479 C   0  0  0  0  0  0
  -24.1500  -36.7270   23.2642 C   0  0  0  0  0  0
  -25.9979  -30.7309   21.3899 C   0  0  0  0  0  0
  -26.0721  -29.3443   20.7285 C   0  0  0  0  0  0
  -27.2379  -28.4889   20.7274 C   0  0  0  0  0  0
  -26.0179  -26.8289   19.4753 C   0  0  0  0  0  0
  -24.8805  -27.6618   19.4655 C   0  0  0  0  0  0
  -23.6670  -29.8004   20.1564 C   0  0  0  0  0  0
  -25.4128  -36.3057   24.0323 C   0  0  1  0  0  0
  -20.5905  -28.3716   23.1248 C   0  0  2  0  0  0
  -20.6791  -26.9417   22.5408 C   0  0  0  0  0  0
  -19.5780  -26.6386   21.5212 C   0  0  0  0  0  0
  -18.1952  -26.7946   22.1612 C   0  0  0  0  0  0
  -19.1556  -28.8878   23.2859 C   0  0  0  0  0  0
  -18.9462  -30.1480   23.8885 C   0  0  0  0  0  0
  -17.6458  -30.6602   24.0561 C   0  0  0  0  0  0
  -25.9060  -34.9417   23.5088 C   0  0  0  0  0  0
  -16.5352  -29.9092   23.6345 C   0  0  0  0  0  0
  -16.7282  -28.6515   23.0352 C   0  0  0  0  0  0
  -26.4510  -31.6575   25.0726 C   0  0  0  0  0  0
  -25.3697  -31.3686   26.1412 C   0  0  0  0  0  0
  -27.0390  -30.2992   24.6274 C   0  0  0  0  0  0
  -27.6066  -32.4310   25.7499 C   0  0  0  0  0  0
  -27.5591  -37.1782   24.8454 C   0  0  0  0  0  0
  -21.4240  -29.3046   22.3618 N   0  0  0  0  0  0
  -26.4311  -37.3755   23.9383 N   0  0  0  0  0  0
  -24.7128  -31.0340   22.0958 N   0  0  0  0  0  0
  -23.4206  -28.8056   23.2994 O   0  0  0  0  0  0
  -28.2846  -26.1941   20.1766 O   0  0  0  0  0  0
  -26.5645  -34.8897   22.4672 O   0  0  0  0  0  0
  -23.5500  -32.1340   23.7131 O   0  0  0  0  0  0
  -30.5350  -20.5383   19.2354 C   0  0  0  0  0  0
  -31.0198  -18.1046   19.3558 C   0  0  0  0  0  0
  -29.2656  -19.0898   20.6956 C   0  0  0  0  0  0
  -31.2740  -19.3982   18.8218 C   0  0  0  0  0  0
  -29.4858  -20.4524   20.1669 C   0  0  0  0  0  0
  -30.0269  -17.8644   20.3340 C   0  0  0  0  0  0
  -28.6099  -16.2502   21.8379 C   0  0  0  0  0  0
  -29.7187  -20.8878   13.7479 C   0  0  0  0  0  0
  -29.7328  -22.4384   15.6476 C   0  0  0  0  0  0
  -32.3998  -19.5600   17.8031 C   0  0  0  0  0  0
  -28.6219  -21.8044   20.5083 C   0  0  0  0  0  0
  -32.1199  -20.5642   16.6641 C   0  0  0  0  0  0
  -29.0508  -23.3906   20.1783 C   0  0  0  0  0  0
  -30.8583  -20.2419   15.8337 C   0  0  0  0  0  0
  -27.9903  -24.6769   20.3128 C   0  0  0  0  0  0
  -29.9207  -16.3725   21.0475 C   0  0  1  0  0  0
  -30.4637  -21.3596   14.9371 N   0  3  0  0  0  0
  -31.4763  -12.7349   19.1729 H   0  0  0  0  0  0
  -30.4425  -11.6080   19.9785 H   0  0  0  0  0  0
  -29.8295  -11.7819   17.5489 H   0  0  0  0  0  0
  -29.6117  -13.5073   17.7044 H   0  0  0  0  0  0
  -27.9147  -11.3019   18.9080 H   0  0  0  0  0  0
  -27.3848  -12.5396   17.7977 H   0  0  0  0  0  0
  -27.6239  -14.2698   19.4788 H   0  0  0  0  0  0
  -28.7816  -12.1234   21.3023 H   0  0  0  0  0  0
  -28.3560  -13.6690   21.8618 H   0  0  0  0  0  0
  -25.2796   -9.5653   22.4781 H   0  0  0  0  0  0
  -24.0020   -7.4613   22.7471 H   0  0  0  0  0  0
  -21.0871   -8.8802   19.8946 H   0  0  0  0  0  0
  -22.3774  -10.9679   19.6172 H   0  0  0  0  0  0
  -21.2030   -7.6159   23.9740 H   0  0  0  0  0  0
  -21.1462   -6.0525   25.9090 H   0  0  0  0  0  0
  -22.0606   -2.7616   23.2845 H   0  0  0  0  0  0
  -22.4080  -11.9782   22.4771 H   0  0  0  0  0  0
  -21.1095  -13.1169   22.2716 H   0  0  0  0  0  0
  -24.6211  -15.8358   20.5003 H   0  0  0  0  0  0
  -26.2397  -15.6343   20.0548 H   0  0  0  0  0  0
  -26.7218  -32.5350   23.1037 H   0  0  0  0  0  0
  -25.0002  -33.9670   25.0327 H   0  0  0  0  0  0
  -22.7472  -31.2955   21.3875 H   0  0  0  0  0  0
  -23.3773  -35.9595   23.3288 H   0  0  0  0  0  0
  -24.3579  -36.8921   22.2060 H   0  0  0  0  0  0
  -23.7253  -37.6454   23.6700 H   0  0  0  0  0  0
  -26.1453  -31.4902   20.6209 H   0  0  0  0  0  0
  -26.8689  -30.7847   22.0300 H   0  0  0  0  0  0
  -28.1369  -28.8188   21.2287 H   0  0  0  0  0  0
  -25.9237  -25.8938   18.9472 H   0  0  0  0  0  0
  -23.9868  -27.3341   18.9520 H   0  0  0  0  0  0
  -23.7885  -30.5758   19.4009 H   0  0  0  0  0  0
  -22.7851  -29.2349   19.8502 H   0  0  0  0  0  0
  -25.1317  -36.1909   25.0820 H   0  0  0  0  0  0
  -21.0024  -28.3317   24.1357 H   0  0  0  0  0  0
  -20.5714  -26.2310   23.3617 H   0  0  0  0  0  0
  -21.6656  -26.7454   22.1190 H   0  0  0  0  0  0
  -19.6941  -25.6290   21.1258 H   0  0  0  0  0  0
  -19.6736  -27.3190   20.6738 H   0  0  0  0  0  0
  -17.4222  -26.6690   21.4019 H   0  0  0  0  0  0
  -18.0349  -26.0104   22.9019 H   0  0  0  0  0  0
  -19.7932  -30.7299   24.2260 H   0  0  0  0  0  0
  -17.5005  -31.6288   24.5153 H   0  0  0  0  0  0
  -15.5349  -30.2975   23.7704 H   0  0  0  0  0  0
  -15.8678  -28.0841   22.7060 H   0  0  0  0  0  0
  -24.5956  -30.6972   25.7679 H   0  0  0  0  0  0
  -24.8778  -32.2815   26.4778 H   0  0  0  0  0  0
  -25.7987  -30.8903   27.0227 H   0  0  0  0  0  0
  -26.3010  -29.6689   24.1306 H   0  0  0  0  0  0
  -27.4047  -29.7319   25.4836 H   0  0  0  0  0  0
  -27.8898  -30.4248   23.9577 H   0  0  0  0  0  0
  -27.2732  -33.3653   26.2029 H   0  0  0  0  0  0
  -28.3914  -32.6774   25.0336 H   0  0  0  0  0  0
  -28.0707  -31.8452   26.5447 H   0  0  0  0  0  0
  -28.2571  -38.0109   24.7512 H   0  0  0  0  0  0
  -28.1133  -36.2626   24.6300 H   0  0  0  0  0  0
  -27.2284  -37.1430   25.8851 H   0  0  0  0  0  0
  -20.9436  -29.8740   21.6781 H   0  0  0  0  0  0
  -26.0189  -38.2829   24.1395 H   0  0  0  0  0  0
  -30.7635  -21.5085   18.8220 H   0  0  0  0  0  0
  -31.6382  -17.2823   19.0260 H   0  0  0  0  0  0
  -28.4743  -19.0100   21.4259 H   0  0  0  0  0  0
  -27.7620  -16.0646   21.1858 H   0  0  0  0  0  0
  -28.3968  -17.1510   22.4089 H   0  0  0  0  0  0
  -28.6717  -15.4895   22.6094 H   0  0  0  0  0  0
  -29.4555  -21.7203   13.0948 H   0  0  0  0  0  0
  -28.7987  -20.3793   14.0396 H   0  0  0  0  0  0
  -30.3223  -20.1929   13.1619 H   0  0  0  0  0  0
  -29.4989  -23.2617   14.9713 H   0  0  0  0  0  0
  -30.3157  -22.8589   16.4659 H   0  0  0  0  0  0
  -28.7932  -22.0727   16.0659 H   0  0  0  0  0  0
  -32.6384  -18.5883   17.3693 H   0  0  0  0  0  0
  -33.2938  -19.8715   18.3449 H   0  0  0  0  0  0
  -28.3958  -21.7523   21.5736 H   0  0  0  0  0  0
  -27.6590  -21.6447   20.0216 H   0  0  0  0  0  0
  -32.9850  -20.5839   16.0016 H   0  0  0  0  0  0
  -32.0667  -21.5677   17.0797 H   0  0  0  0  0  0
  -29.4254  -23.4120   19.1556 H   0  0  0  0  0  0
  -29.9189  -23.6195   20.7971 H   0  0  0  0  0  0
  -30.0121  -19.9822   16.4712 H   0  0  0  0  0  0
  -31.0662  -19.3461   15.2461 H   0  0  0  0  0  0
  -27.5267  -24.5783   21.2958 H   0  0  0  0  0  0
  -27.2032  -24.4216   19.6073 H   0  0  0  0  0  0
  -30.6371  -16.5354   21.8541 H   0  0  0  0  0  0
  -31.3137  -21.7680   14.5775 H   0  0  0  0  0  0
  1 25  1  0  0  0
  1 30  2  0  0  0
  1 86  1  0  0  0
  2  3  1  0  0  0
  2 25  1  0  0  0
  2 88  1  0  0  0
  2 89  1  0  0  0
  3  4  1  0  0  0
  3 90  1  0  0  0
  3 91  1  0  0  0
  4  5  1  0  0  0
  4 92  1  0  0  0
  4 93  1  0  0  0
  5  6  1  0  0  0
  5 26  1  0  0  0
  5 94  1  0  0  0
  6 25  1  0  0  0
  6 95  1  0  0  0
  6 96  1  0  0  0
  7  8  2  0  0  0
  7 26  1  0  0  0
  7 29  1  0  0  0
  8  9  1  0  0  0
  8 22  1  0  0  0
  9 10  1  0  0  0
  9 27  2  0  0  0
 10 11  2  0  0  0
 10 15  1  0  0  0
 11 12  1  0  0  0
 11 97  1  0  0  0
 12 13  2  0  0  0
 12 98  1  0  0  0
 13 14  1  0  0  0
 13 31  1  0  0  0
 14 15  2  0  0  0
 14 99  1  0  0  0
 15100  1  0  0  0
 16 17  2  0  0  0
 16 21  1  0  0  0
 16 31  1  0  0  0
 17 18  1  0  0  0
 17101  1  0  0  0
 18 19  2  0  0  0
 18102  1  0  0  0
 19 20  1  0  0  0
 19 24  1  0  0  0
 20 21  2  0  0  0
 20103  1  0  0  0
 21 23  1  0  0  0
 22 28  1  0  0  0
 22 32  2  0  0  0
 26 27  1  0  0  0
 28104  1  0  0  0
 28105  1  0  0  0
 29106  1  0  0  0
 29107  1  0  0  0
 33 34  1  0  0  0
 33 66  1  0  0  0
 33 70  2  0  0  0
 34 36  1  0  0  0
 34 59  1  0  0  0
 34108  1  0  0  0
 35 44  2  0  0  0
 35 45  1  0  0  0
 35 68  1  0  0  0
 36 56  1  0  0  0
 36109  1  0  0  0
 37 39  1  0  0  0
 37 47  1  0  0  0
 37 66  1  0  0  0
 37110  1  0  0  0
 38 43  2  0  0  0
 38 46  1  0  0  0
 38 47  1  0  0  0
 39 64  1  0  0  0
 39 67  2  0  0  0
 40 52  1  0  0  0
 40 53  2  0  0  0
 40 58  1  0  0  0
 41111  1  0  0  0
 41112  1  0  0  0
 41113  1  0  0  0
 41 48  1  0  0  0
 42 43  1  0  0  0
 42 66  1  0  0  0
 42114  1  0  0  0
 42115  1  0  0  0
 43 44  1  0  0  0
 44116  1  0  0  0
 45 46  2  0  0  0
 45117  1  0  0  0
 46118  1  0  0  0
 47119  1  0  0  0
 47120  1  0  0  0
 48 56  1  0  0  0
 48 65  1  0  0  0
 48121  1  0  0  0
 49 50  1  0  0  0
 49 53  1  0  0  0
 49 64  1  0  0  0
 49122  1  0  0  0
 50 51  1  0  0  0
 50123  1  0  0  0
 50124  1  0  0  0
 51 52  1  0  0  0
 51125  1  0  0  0
 51126  1  0  0  0
 52127  1  0  0  0
 52128  1  0  0  0
 53 54  1  0  0  0
 54 55  2  0  0  0
 54129  1  0  0  0
 55 57  1  0  0  0
 55130  1  0  0  0
 56 69  2  0  0  0
 57 58  2  0  0  0
 57131  1  0  0  0
 58132  1  0  0  0
 59 60  1  0  0  0
 59 61  1  0  0  0
 59 62  1  0  0  0
 60133  1  0  0  0
 60134  1  0  0  0
 60135  1  0  0  0
 61136  1  0  0  0
 61137  1  0  0  0
 61138  1  0  0  0
 62139  1  0  0  0
 62140  1  0  0  0
 62141  1  0  0  0
 63 65  1  0  0  0
 63142  1  0  0  0
 63143  1  0  0  0
 63144  1  0  0  0
 64145  1  0  0  0
 65146  1  0  0  0
 68 85  1  0  0  0
 71 74  2  0  0  0
 71 75  1  0  0  0
 71147  1  0  0  0
 72 74  1  0  0  0
 72 76  2  0  0  0
 72148  1  0  0  0
 73 75  2  0  0  0
 73 76  1  0  0  0
 73149  1  0  0  0
 74 80  1  0  0  0
 75 81  1  0  0  0
 76 86  1  0  0  0
 77150  1  0  0  0
 77151  1  0  0  0
 77152  1  0  0  0
 77 86  1  0  0  0
 78153  1  0  0  0
 78154  1  0  0  0
 78155  1  0  0  0
 78 87  1  0  0  0
 79 87  1  0  0  0
 79156  1  0  0  0
 79157  1  0  0  0
 79158  1  0  0  0
 80 82  1  0  0  0
 80159  1  0  0  0
 80160  1  0  0  0
 81 83  1  0  0  0
 81161  1  0  0  0
 81162  1  0  0  0
 82 84  1  0  0  0
 82163  1  0  0  0
 82164  1  0  0  0
 83 85  1  0  0  0
 83165  1  0  0  0
 83166  1  0  0  0
 84 87  1  0  0  0
 84167  1  0  0  0
 84168  1  0  0  0
 85169  1  0  0  0
 85170  1  0  0  0
 86171  1  0  0  0
 87172  1  0  0  0
M  CHG  1  87   1
M  ISO  4   1 100  68 101  85 101  86 100
M  END
> <chiral flag>
0

> <version>
0

> <s_m_source_file>
/data/baiqing/PycharmProjects/Reinvent-master-3.2/result/LINK_invent/BTK/process_docking_weight1_custom_sum_contain_oxygen_bond_distance_aromatic_linkinvent_7_9_3/rearranged_h_0101.sdf

> <i_m_source_file_index>
74

> <r_mmod_Potential_Energy-OPLS-2005>
410.127319335938

> <r_mmod_Stretch_Energy-OPLS-2005>
253.562210083008

> <r_mmod_Bend_Energy-OPLS-2005>
274.477294921875

> <r_mmod_Torsional_Energy-OPLS-2005>
201.189056396484

> <r_mmod_Improper_Torsional_Energy-OPLS-2005>
2.30856704711914

> <r_mmod_Van_der_Waal_Energy-OPLS-2005>
144.563385009766

> <r_mmod_Electrostatic_Energy-OPLS-2005>
-203.166549682617

> <r_mmod_Solvation_Energy-OPLS-2005>
-420.018432617188

> <b_mmod_Minimization_Converged-OPLS-2005>
0

> <r_mmod_RMS_Derivative-OPLS-2005>
2.76136183738708

$$$$
74
                    3D
 Structure written by MMmdl.
162170  0  0  1  0            999 V2000
  -30.5259  -15.1069   20.3947 C   0  0  0  0  0  0
  -30.4321  -12.6941   19.5298 C   0  0  0  0  0  0
  -29.5350  -12.5575   18.2770 C   0  0  0  0  0  0
  -28.0727  -12.3125   18.6892 C   0  0  0  0  0  0
  -27.6188  -13.2642   19.8254 C   0  0  2  0  0  0
  -28.6491  -13.3933   20.9636 C   0  0  0  0  0  0
  -25.2461  -13.8237   20.5714 C   0  0  0  0  0  0
  -24.1799  -13.0459   20.9227 C   0  0  0  0  0  0
  -24.6409  -11.6933   20.8747 C   0  0  0  0  0  0
  -23.9076  -10.4313   21.0417 C   0  0  0  0  0  0
  -24.3639   -9.4220   21.9193 C   0  0  0  0  0  0
  -23.6324   -8.2245   22.0757 C   0  0  0  0  0  0
  -22.4303   -8.0286   21.3544 C   0  0  0  0  0  0
  -21.9946   -9.0248   20.4626 C   0  0  0  0  0  0
  -22.7257  -10.2139   20.3047 C   0  0  0  0  0  0
  -21.6842   -6.0755   22.5282 C   0  0  0  0  0  0
  -21.3996   -6.5656   23.8215 C   0  0  0  0  0  0
  -21.3666   -5.6805   24.9184 C   0  0  0  0  0  0
  -21.6054   -4.3069   24.7225 C   0  0  0  0  0  0
  -21.8819   -3.8158   23.4345 C   0  0  0  0  0  0
  -21.9198   -4.6983   22.3407 C   0  0  0  0  0  0
  -22.7824  -13.5226   21.1909 C   0  0  0  0  0  0
  -22.1680   -4.2166   21.0988 F   0  0  0  0  0  0
  -21.5641   -3.4560   25.7743 F   0  0  0  0  0  0
  -29.9111  -13.8352   20.3580 N   0  0  0  0  0  0
  -26.2852  -12.9477   20.3185 N   0  0  0  0  0  0
  -25.9334  -11.6590   20.5682 N   0  0  0  0  0  0
  -22.0474  -12.8172   22.0421 N   0  0  0  0  0  0
  -25.4247  -15.1956   20.4175 N   0  0  0  0  0  0
  -31.7434  -15.0609   20.1689 O   0  0  0  0  0  0
  -21.6656   -6.8892   21.4241 O   0  0  0  0  0  0
  -22.3501  -14.5544   20.6777 O   0  0  0  0  0  0
  -24.6567  -31.8337   23.1772 C   0  0  0  0  0  0
  -25.9288  -32.4635   23.8212 C   0  0  1  0  0  0
  -27.2015  -26.9989   20.1835 C   0  0  0  0  0  0
  -25.5989  -33.8444   24.2121 N   0  0  0  0  0  0
  -23.4655  -30.4493   21.5287 C   0  0  2  0  0  0
  -24.9123  -28.8448   20.1172 C   0  0  0  0  0  0
  -22.7603  -29.4513   22.4838 C   0  0  0  0  0  0
  -18.0299  -28.1395   22.8451 C   0  0  0  0  0  0
  -24.1492  -36.7213   23.2647 C   0  0  0  0  0  0
  -26.0304  -30.6589   21.4002 C   0  0  0  0  0  0
  -26.0963  -29.2561   20.7446 C   0  0  0  0  0  0
  -27.2434  -28.3552   20.7493 C   0  0  0  0  0  0
  -25.9921  -26.7189   19.5110 C   0  0  0  0  0  0
  -24.8799  -27.5938   19.4810 C   0  0  0  0  0  0
  -23.6975  -29.7686   20.1533 C   0  0  0  0  0  0
  -25.4132  -36.2984   24.0298 C   0  0  1  0  0  0
  -20.5916  -28.3751   23.1169 C   0  0  2  0  0  0
  -20.6789  -26.9443   22.5382 C   0  0  0  0  0  0
  -19.5777  -26.6378   21.5186 C   0  0  0  0  0  0
  -18.1948  -26.7928   22.1592 C   0  0  0  0  0  0
  -19.1558  -28.8889   23.2803 C   0  0  0  0  0  0
  -18.9487  -30.1471   23.8850 C   0  0  0  0  0  0
  -17.6498  -30.6608   24.0536 C   0  0  0  0  0  0
  -25.9096  -34.9365   23.5023 C   0  0  0  0  0  0
  -16.5379  -29.9097   23.6335 C   0  0  0  0  0  0
  -16.7289  -28.6501   23.0370 C   0  0  0  0  0  0
  -26.4562  -31.6562   25.0724 C   0  0  0  0  0  0
  -25.3707  -31.3783   26.1405 C   0  0  0  0  0  0
  -27.0452  -30.2923   24.6430 C   0  0  0  0  0  0
  -27.6057  -32.4377   25.7511 C   0  0  0  0  0  0
  -27.5577  -37.1754   24.8459 C   0  0  0  0  0  0
  -21.4288  -29.3059   22.3542 N   0  0  0  0  0  0
  -26.4279  -37.3724   23.9407 N   0  0  0  0  0  0
  -24.7386  -31.0051   22.0880 N   0  0  0  0  0  0
  -23.4169  -28.8085   23.3072 O   0  0  0  0  0  0
  -28.2209  -25.9395   20.2093 O   0  0  0  0  0  0
  -26.5709  -34.8878   22.4620 O   0  0  0  0  0  0
  -23.5648  -32.1305   23.6892 O   0  0  0  0  0  0
  -28.9603  -18.8444   19.4778 C   0  0  0  0  0  0
  -29.3067  -17.4096   19.3988 C   0  0  0  0  0  0
  -29.1636  -19.7035   20.6215 C   0  0  0  0  0  0
  -29.8703  -16.6305   20.4944 C   0  0  0  0  0  0
  -29.7654  -18.8522   21.6415 C   0  0  0  0  0  0
  -29.1009  -16.7225   18.0555 C   0  0  0  0  0  0
  -30.0910  -19.4460   23.0024 C   0  0  0  0  0  0
  -26.7112  -21.7194   16.8193 C   0  0  0  0  0  0
  -28.6053  -21.3135   20.8843 C   0  0  0  0  0  0
  -26.9640  -22.0459   18.2974 C   0  0  0  0  0  0
  -28.3889  -22.5804   18.5669 C   0  0  0  0  0  0
  -27.9429  -24.3786   20.5204 C   0  0  0  0  0  0
  -28.7000  -22.8524   20.0542 C   0  0  1  0  0  0
  -30.0912  -17.4807   21.5694 N   0  0  0  0  0  0
  -31.4653  -12.8447   19.2166 H   0  0  0  0  0  0
  -30.4395  -11.7690   20.1066 H   0  0  0  0  0  0
  -29.8860  -11.7461   17.6386 H   0  0  0  0  0  0
  -29.6027  -13.4715   17.6832 H   0  0  0  0  0  0
  -27.9918  -11.2755   19.0219 H   0  0  0  0  0  0
  -27.4142  -12.4141   17.8255 H   0  0  0  0  0  0
  -27.5484  -14.2431   19.3574 H   0  0  0  0  0  0
  -28.7735  -12.4505   21.4989 H   0  0  0  0  0  0
  -28.3136  -14.1248   21.7002 H   0  0  0  0  0  0
  -25.2785   -9.5714   22.4770 H   0  0  0  0  0  0
  -24.0035   -7.4638   22.7471 H   0  0  0  0  0  0
  -21.0886   -8.8744   19.8907 H   0  0  0  0  0  0
  -22.3706  -10.9682   19.6154 H   0  0  0  0  0  0
  -21.1951   -7.6154   23.9714 H   0  0  0  0  0  0
  -21.1505   -6.0548   25.9086 H   0  0  0  0  0  0
  -22.0586   -2.7620   23.2843 H   0  0  0  0  0  0
  -22.4123  -11.9829   22.4774 H   0  0  0  0  0  0
  -21.1096  -13.1160   22.2622 H   0  0  0  0  0  0
  -24.6749  -15.8678   20.5316 H   0  0  0  0  0  0
  -26.2944  -15.6198   20.1179 H   0  0  0  0  0  0
  -26.7355  -32.5179   23.0931 H   0  0  0  0  0  0
  -25.0073  -33.9556   25.0227 H   0  0  0  0  0  0
  -22.7759  -31.2797   21.3658 H   0  0  0  0  0  0
  -23.3779  -35.9523   23.3277 H   0  0  0  0  0  0
  -24.3562  -36.8906   22.2071 H   0  0  0  0  0  0
  -23.7240  -37.6378   23.6732 H   0  0  0  0  0  0
  -26.2089  -31.4044   20.6257 H   0  0  0  0  0  0
  -26.8885  -30.7054   22.0574 H   0  0  0  0  0  0
  -28.1462  -28.6670   21.2536 H   0  0  0  0  0  0
  -25.8834  -25.7658   19.0131 H   0  0  0  0  0  0
  -23.9777  -27.2719   18.9801 H   0  0  0  0  0  0
  -23.8488  -30.5401   19.3989 H   0  0  0  0  0  0
  -22.8049  -29.2247   19.8401 H   0  0  0  0  0  0
  -25.1330  -36.1789   25.0791 H   0  0  0  0  0  0
  -20.9987  -28.3383   24.1306 H   0  0  0  0  0  0
  -20.5645  -26.2398   23.3633 H   0  0  0  0  0  0
  -21.6661  -26.7439   22.1216 H   0  0  0  0  0  0
  -19.6956  -25.6269   21.1269 H   0  0  0  0  0  0
  -19.6711  -27.3130   20.6662 H   0  0  0  0  0  0
  -17.4216  -26.6632   21.4002 H   0  0  0  0  0  0
  -18.0373  -26.0076   22.8993 H   0  0  0  0  0  0
  -19.7980  -30.7256   24.2234 H   0  0  0  0  0  0
  -17.5073  -31.6283   24.5140 H   0  0  0  0  0  0
  -15.5379  -30.2993   23.7710 H   0  0  0  0  0  0
  -15.8669  -28.0802   22.7156 H   0  0  0  0  0  0
  -24.5883  -30.7152   25.7715 H   0  0  0  0  0  0
  -24.8909  -32.2968   26.4771 H   0  0  0  0  0  0
  -25.7969  -30.8993   27.0233 H   0  0  0  0  0  0
  -26.3112  -29.6596   24.1431 H   0  0  0  0  0  0
  -27.3979  -29.7291   25.5083 H   0  0  0  0  0  0
  -27.9050  -30.4105   23.9833 H   0  0  0  0  0  0
  -27.2630  -33.3708   26.1988 H   0  0  0  0  0  0
  -28.3901  -32.6912   25.0370 H   0  0  0  0  0  0
  -28.0689  -31.8594   26.5516 H   0  0  0  0  0  0
  -28.2567  -38.0076   24.7535 H   0  0  0  0  0  0
  -28.1106  -36.2610   24.6255 H   0  0  0  0  0  0
  -27.2285  -37.1347   25.8857 H   0  0  0  0  0  0
  -20.9546  -29.8764   21.6672 H   0  0  0  0  0  0
  -26.0129  -38.2777   24.1452 H   0  0  0  0  0  0
  -28.5150  -19.3015   18.6051 H   0  0  0  0  0  0
  -28.8160  -17.4356   17.2812 H   0  0  0  0  0  0
  -28.3143  -15.9729   18.1174 H   0  0  0  0  0  0
  -30.0167  -16.2310   17.7219 H   0  0  0  0  0  0
  -29.1743  -19.6348   23.5625 H   0  0  0  0  0  0
  -30.6374  -20.3832   22.9021 H   0  0  0  0  0  0
  -30.7175  -18.7798   23.5977 H   0  0  0  0  0  0
  -25.7227  -21.2780   16.6877 H   0  0  0  0  0  0
  -27.4403  -21.0047   16.4350 H   0  0  0  0  0  0
  -26.7578  -22.6139   16.1965 H   0  0  0  0  0  0
  -28.9358  -21.5618   21.8911 H   0  0  0  0  0  0
  -27.5372  -21.1543   21.0258 H   0  0  0  0  0  0
  -26.7961  -21.1334   18.8697 H   0  0  0  0  0  0
  -26.2109  -22.7582   18.6365 H   0  0  0  0  0  0
  -28.5619  -23.4893   17.9888 H   0  0  0  0  0  0
  -29.1082  -21.8526   18.1901 H   0  0  0  0  0  0
  -28.0093  -24.3634   21.6089 H   0  0  0  0  0  0
  -26.8787  -24.2343   20.3412 H   0  0  0  0  0  0
  -29.7642  -23.0858   20.0949 H   0  0  0  0  0  0
  1 25  1  0  0  0
  1 30  2  0  0  0
  1 74  1  0  0  0
  2  3  1  0  0  0
  2 25  1  0  0  0
  2 85  1  0  0  0
  2 86  1  0  0  0
  3  4  1  0  0  0
  3 87  1  0  0  0
  3 88  1  0  0  0
  4  5  1  0  0  0
  4 89  1  0  0  0
  4 90  1  0  0  0
  5  6  1  0  0  0
  5 26  1  0  0  0
  5 91  1  0  0  0
  6 25  1  0  0  0
  6 92  1  0  0  0
  6 93  1  0  0  0
  7  8  2  0  0  0
  7 26  1  0  0  0
  7 29  1  0  0  0
  8  9  1  0  0  0
  8 22  1  0  0  0
  9 10  1  0  0  0
  9 27  2  0  0  0
 10 11  2  0  0  0
 10 15  1  0  0  0
 11 12  1  0  0  0
 11 94  1  0  0  0
 12 13  2  0  0  0
 12 95  1  0  0  0
 13 14  1  0  0  0
 13 31  1  0  0  0
 14 15  2  0  0  0
 14 96  1  0  0  0
 15 97  1  0  0  0
 16 17  2  0  0  0
 16 21  1  0  0  0
 16 31  1  0  0  0
 17 18  1  0  0  0
 17 98  1  0  0  0
 18 19  2  0  0  0
 18 99  1  0  0  0
 19 20  1  0  0  0
 19 24  1  0  0  0
 20 21  2  0  0  0
 20100  1  0  0  0
 21 23  1  0  0  0
 22 28  1  0  0  0
 22 32  2  0  0  0
 26 27  1  0  0  0
 28101  1  0  0  0
 28102  1  0  0  0
 29103  1  0  0  0
 29104  1  0  0  0
 33 34  1  0  0  0
 33 66  1  0  0  0
 33 70  2  0  0  0
 34 36  1  0  0  0
 34 59  1  0  0  0
 34105  1  0  0  0
 35 44  2  0  0  0
 35 45  1  0  0  0
 35 68  1  0  0  0
 36 56  1  0  0  0
 36106  1  0  0  0
 37 39  1  0  0  0
 37 47  1  0  0  0
 37 66  1  0  0  0
 37107  1  0  0  0
 38 43  2  0  0  0
 38 46  1  0  0  0
 38 47  1  0  0  0
 39 64  1  0  0  0
 39 67  2  0  0  0
 40 52  1  0  0  0
 40 53  2  0  0  0
 40 58  1  0  0  0
 41108  1  0  0  0
 41109  1  0  0  0
 41110  1  0  0  0
 41 48  1  0  0  0
 42 43  1  0  0  0
 42 66  1  0  0  0
 42111  1  0  0  0
 42112  1  0  0  0
 43 44  1  0  0  0
 44113  1  0  0  0
 45 46  2  0  0  0
 45114  1  0  0  0
 46115  1  0  0  0
 47116  1  0  0  0
 47117  1  0  0  0
 48 56  1  0  0  0
 48 65  1  0  0  0
 48118  1  0  0  0
 49 50  1  0  0  0
 49 53  1  0  0  0
 49 64  1  0  0  0
 49119  1  0  0  0
 50 51  1  0  0  0
 50120  1  0  0  0
 50121  1  0  0  0
 51 52  1  0  0  0
 51122  1  0  0  0
 51123  1  0  0  0
 52124  1  0  0  0
 52125  1  0  0  0
 53 54  1  0  0  0
 54 55  2  0  0  0
 54126  1  0  0  0
 55 57  1  0  0  0
 55127  1  0  0  0
 56 69  2  0  0  0
 57 58  2  0  0  0
 57128  1  0  0  0
 58129  1  0  0  0
 59 60  1  0  0  0
 59 61  1  0  0  0
 59 62  1  0  0  0
 60130  1  0  0  0
 60131  1  0  0  0
 60132  1  0  0  0
 61133  1  0  0  0
 61134  1  0  0  0
 61135  1  0  0  0
 62136  1  0  0  0
 62137  1  0  0  0
 62138  1  0  0  0
 63 65  1  0  0  0
 63139  1  0  0  0
 63140  1  0  0  0
 63141  1  0  0  0
 64142  1  0  0  0
 65143  1  0  0  0
 68 82  1  0  0  0
 71 72  2  0  0  0
 71 73  1  0  0  0
 71144  1  0  0  0
 72 74  1  0  0  0
 72 76  1  0  0  0
 73 75  2  0  0  0
 73 79  1  0  0  0
 74 84  2  0  0  0
 75 77  1  0  0  0
 75 84  1  0  0  0
 76145  1  0  0  0
 76146  1  0  0  0
 76147  1  0  0  0
 77148  1  0  0  0
 77149  1  0  0  0
 77150  1  0  0  0
 78 80  1  0  0  0
 78151  1  0  0  0
 78152  1  0  0  0
 78153  1  0  0  0
 79154  1  0  0  0
 79155  1  0  0  0
 79 83  1  0  0  0
 80 81  1  0  0  0
 80156  1  0  0  0
 80157  1  0  0  0
 81 83  1  0  0  0
 81158  1  0  0  0
 81159  1  0  0  0
 82 83  1  0  0  0
 82160  1  0  0  0
 82161  1  0  0  0
 83162  1  0  0  0
M  ISO  4   1 100  68 101  74 100  82 101
M  END
> <chiral flag>
0

> <version>
0

> <s_m_source_file>
/data/baiqing/PycharmProjects/Reinvent-master-3.2/result/LINK_invent/BTK/process_docking_weight1_custom_sum_contain_oxygen_bond_distance_aromatic_linkinvent_7_9_3/rearranged_h_0101.sdf

> <i_m_source_file_index>
75

> <r_mmod_Potential_Energy-OPLS-2005>
939.663696289062

> <r_mmod_Stretch_Energy-OPLS-2005>
418.823760986328

> <r_mmod_Bend_Energy-OPLS-2005>
384.417083740234

> <r_mmod_Torsional_Energy-OPLS-2005>
237.785720825195

> <r_mmod_Improper_Torsional_Energy-OPLS-2005>
6.78080701828003

> <r_mmod_Van_der_Waal_Energy-OPLS-2005>
121.350936889648

> <r_mmod_Electrostatic_Energy-OPLS-2005>
-348.293609619141

> <r_mmod_Solvation_Energy-OPLS-2005>
-203.757064819336

> <b_mmod_Minimization_Converged-OPLS-2005>
0

> <r_mmod_RMS_Derivative-OPLS-2005>
3.29318308830261

$$$$
75
                    3D
 Structure written by MMmdl.
184192  0  0  1  0            999 V2000
  -30.4702  -14.4763   19.5805 C   0  0  0  0  0  0
  -30.6818  -12.1760   19.6721 C   0  0  0  0  0  0
  -29.5531  -11.7109   18.7769 C   0  0  0  0  0  0
  -28.3336  -11.7910   19.7352 C   0  0  0  0  0  0
  -27.9690  -13.2090   20.3874 C   0  0  2  0  0  0
  -29.1308  -13.3990   21.2855 C   0  0  0  0  0  0
  -25.8270  -14.6521   21.1219 C   0  0  0  0  0  0
  -24.7660  -14.1399   21.8472 C   0  0  0  0  0  0
  -25.0197  -13.1468   20.9446 C   0  0  0  0  0  0
  -23.4241  -11.0620   19.3736 C   0  0  0  0  0  0
  -23.7877   -9.4920   19.6162 C   0  0  0  0  0  0
  -23.5568   -8.5242   20.7338 C   0  0  0  0  0  0
  -22.2100   -8.2876   20.9935 C   0  0  0  0  0  0
  -21.4777   -9.3437   20.3596 C   0  0  0  0  0  0
  -22.0665  -10.5191   19.6346 C   0  0  0  0  0  0
  -21.7512   -6.2130   22.4484 C   0  0  0  0  0  0
  -21.4573   -6.6675   23.7579 C   0  0  0  0  0  0
  -21.3880   -5.7688   24.8551 C   0  0  0  0  0  0
  -21.6119   -4.3899   24.6715 C   0  0  0  0  0  0
  -21.9036   -3.9130   23.3833 C   0  0  0  0  0  0
  -21.9585   -4.8076   22.2888 C   0  0  0  0  0  0
  -23.3963  -14.6421   22.3259 C   0  0  0  0  0  0
  -22.1753   -4.2864   21.0582 F   0  0  0  0  0  0
  -21.5577   -3.5281   25.7212 F   0  0  0  0  0  0
  -30.2332  -13.4072   20.3215 N   0  0  0  0  0  0
  -26.7047  -13.5760   20.9248 N   0  0  0  0  0  0
  -26.1373  -12.8545   21.7025 N   0  0  0  0  0  0
  -22.7161  -13.7752   23.0992 N   0  0  0  0  0  0
  -26.1312  -15.8661   20.6057 N   0  0  0  0  0  0
  -31.5490  -15.0411   19.7813 O   0  0  0  0  0  0
  -21.6213   -7.0358   21.3138 O   0  0  0  0  0  0
  -22.7510  -15.4878   21.6985 O   0  0  0  0  0  0
  -24.7542  -31.6878   23.0980 C   0  0  0  0  0  0
  -25.9799  -32.3852   23.7688 C   0  0  1  0  0  0
  -26.2030  -25.5959   20.1610 C   0  0  0  0  0  0
  -25.6056  -33.7782   24.1431 N   0  0  0  0  0  0
  -23.5542  -30.3267   21.4861 C   0  0  2  0  0  0
  -24.8156  -28.5123   20.0367 C   0  0  0  0  0  0
  -22.7807  -29.3817   22.4474 C   0  0  0  0  0  0
  -18.0326  -28.1434   22.8449 C   0  0  0  0  0  0
  -24.1510  -36.6904   23.2672 C   0  0  0  0  0  0
  -26.1128  -29.9670   21.5297 C   0  0  0  0  0  0
  -25.9520  -28.4670   20.8252 C   0  0  0  0  0  0
  -26.6455  -27.0359   20.8511 C   0  0  0  0  0  0
  -25.3259  -26.1612   19.2067 C   0  0  0  0  0  0
  -24.6361  -27.4206   19.1793 C   0  0  0  0  0  0
  -23.7873  -29.6660   20.0942 C   0  0  0  0  0  0
  -25.4199  -36.2552   24.0207 C   0  0  1  0  0  0
  -20.5940  -28.3763   23.1091 C   0  0  2  0  0  0
  -20.6739  -26.9381   22.5446 C   0  0  0  0  0  0
  -19.5733  -26.6324   21.5250 C   0  0  0  0  0  0
  -18.1913  -26.7955   22.1622 C   0  0  0  0  0  0
  -19.1596  -28.8949   23.2732 C   0  0  0  0  0  0
  -18.9500  -30.1532   23.8783 C   0  0  0  0  0  0
  -17.6481  -30.6602   24.0552 C   0  0  0  0  0  0
  -25.9247  -34.8964   23.4734 C   0  0  0  0  0  0
  -16.5371  -29.9077   23.6352 C   0  0  0  0  0  0
  -16.7307  -28.6504   23.0368 C   0  0  0  0  0  0
  -26.4733  -31.6388   25.0715 C   0  0  0  0  0  0
  -25.3589  -31.3978   26.1182 C   0  0  0  0  0  0
  -27.0796  -30.2649   24.7364 C   0  0  0  0  0  0
  -27.6034  -32.4520   25.7455 C   0  0  0  0  0  0
  -27.5552  -37.1585   24.8444 C   0  0  0  0  0  0
  -21.4433  -29.2888   22.3313 N   0  0  0  0  0  0
  -26.4236  -37.3431   23.9404 N   0  0  0  0  0  0
  -24.8624  -30.7314   22.0791 N   0  0  0  0  0  0
  -23.4031  -28.7426   23.3010 O   0  0  0  0  0  0
  -26.3343  -23.7918   20.1435 O   0  0  0  0  0  0
  -26.6010  -34.8717   22.4439 O   0  0  0  0  0  0
  -23.6467  -32.0564   23.5428 O   0  0  0  0  0  0
  -24.6746  -13.4220   18.6044 C   0  0  0  0  0  0
  -23.6616  -14.4763   19.4187 C   0  0  0  0  0  0
  -22.7708  -13.1081   20.4093 C   0  0  0  0  0  0
  -23.6015  -11.5872   21.5033 C   0  0  0  0  0  0
  -25.5345  -11.9866   19.0314 C   0  0  0  0  0  0
  -23.1381   -9.9065   25.0653 C   0  0  0  0  0  0
  -25.2900  -10.5124   23.9467 C   0  0  0  0  0  0
  -17.4870  -12.2105   20.6971 C   0  0  0  0  0  0
  -19.1961  -11.9258   22.5340 C   0  0  0  0  0  0
  -23.9354  -16.8743   19.4204 C   0  0  0  0  0  0
  -21.2254  -13.4989   20.5802 C   0  0  0  0  0  0
  -23.0130  -10.9084   22.7679 C   0  0  0  0  0  0
  -25.0132  -19.1833   19.8152 C   0  0  0  0  0  0
  -19.9559  -12.6503   20.2374 C   0  0  0  0  0  0
  -27.3527  -13.0615   17.2230 C   0  0  0  0  0  0
  -28.2734  -14.3937   17.7539 C   0  0  0  0  0  0
  -25.3541  -21.7376   19.8570 C   0  0  0  0  0  0
  -23.8112  -10.8977   24.0967 C   0  0  0  0  0  0
  -18.8101  -12.7391   21.2773 C   0  0  0  0  0  0
  -25.2659  -10.9942   20.6046 N   0  0  0  0  0  0
  -26.5283  -11.9400   17.9585 N   0  0  0  0  0  0
  -29.7506  -14.5461   18.3490 N   0  0  0  0  0  0
  -31.6053  -12.3056   19.1035 H   0  0  0  0  0  0
  -30.9225  -11.4480   20.4504 H   0  0  0  0  0  0
  -29.7347  -10.6601   18.5449 H   0  0  0  0  0  0
  -29.5540  -12.1908   17.8096 H   0  0  0  0  0  0
  -28.6852  -11.2318   20.6050 H   0  0  0  0  0  0
  -27.6346  -10.9635   19.6834 H   0  0  0  0  0  0
  -27.9810  -14.0915   19.8587 H   0  0  0  0  0  0
  -29.2628  -12.6370   22.0564 H   0  0  0  0  0  0
  -29.0677  -14.3613   21.8046 H   0  0  0  0  0  0
  -24.7363   -9.2447   19.1593 H   0  0  0  0  0  0
  -24.2576   -7.7208   20.9042 H   0  0  0  0  0  0
  -20.4086   -9.2097   20.2918 H   0  0  0  0  0  0
  -21.3924  -11.0247   18.9646 H   0  0  0  0  0  0
  -21.2396   -7.7131   23.9165 H   0  0  0  0  0  0
  -21.1464   -6.1409   25.8438 H   0  0  0  0  0  0
  -22.0691   -2.8548   23.2245 H   0  0  0  0  0  0
  -23.2324  -13.0455   23.5646 H   0  0  0  0  0  0
  -21.7611  -13.9733   23.3564 H   0  0  0  0  0  0
  -25.5460  -16.6822   20.7513 H   0  0  0  0  0  0
  -26.9911  -16.1053   20.1327 H   0  0  0  0  0  0
  -26.7905  -32.4034   23.0370 H   0  0  0  0  0  0
  -24.9930  -33.8691   24.9399 H   0  0  0  0  0  0
  -22.9369  -31.2104   21.3130 H   0  0  0  0  0  0
  -23.3835  -35.9156   23.3142 H   0  0  0  0  0  0
  -24.3570  -36.8832   22.2130 H   0  0  0  0  0  0
  -23.7214  -37.5960   23.6978 H   0  0  0  0  0  0
  -26.5470  -30.6163   20.7659 H   0  0  0  0  0  0
  -26.8969  -29.8788   22.2654 H   0  0  0  0  0  0
  -27.4566  -26.9492   21.5573 H   0  0  0  0  0  0
  -24.9286  -25.4501   18.4949 H   0  0  0  0  0  0
  -23.8399  -27.5073   18.4523 H   0  0  0  0  0  0
  -24.1164  -30.4338   19.3926 H   0  0  0  0  0  0
  -22.8328  -29.3034   19.7067 H   0  0  0  0  0  0
  -25.1453  -36.1168   25.0694 H   0  0  0  0  0  0
  -21.0037  -28.3427   24.1212 H   0  0  0  0  0  0
  -20.5554  -26.2400   23.3750 H   0  0  0  0  0  0
  -21.6597  -26.7237   22.1299 H   0  0  0  0  0  0
  -19.6850  -25.6200   21.1365 H   0  0  0  0  0  0
  -19.6693  -27.3074   20.6739 H   0  0  0  0  0  0
  -17.4193  -26.6759   21.4002 H   0  0  0  0  0  0
  -18.0212  -26.0121   22.9030 H   0  0  0  0  0  0
  -19.7973  -30.7392   24.2079 H   0  0  0  0  0  0
  -17.5017  -31.6264   24.5187 H   0  0  0  0  0  0
  -15.5357  -30.2939   23.7742 H   0  0  0  0  0  0
  -15.8712  -28.0800   22.7123 H   0  0  0  0  0  0
  -24.5824  -30.7278   25.7464 H   0  0  0  0  0  0
  -24.8718  -32.3272   26.4135 H   0  0  0  0  0  0
  -25.7556  -30.9417   27.0251 H   0  0  0  0  0  0
  -26.3376  -29.5726   24.3365 H   0  0  0  0  0  0
  -27.4716  -29.7868   25.6352 H   0  0  0  0  0  0
  -27.9232  -30.3519   24.0520 H   0  0  0  0  0  0
  -27.2490  -33.4019   26.1449 H   0  0  0  0  0  0
  -28.4035  -32.6757   25.0399 H   0  0  0  0  0  0
  -28.0491  -31.9104   26.5791 H   0  0  0  0  0  0
  -28.2413  -38.0019   24.7576 H   0  0  0  0  0  0
  -28.1200  -36.2536   24.6163 H   0  0  0  0  0  0
  -27.2277  -37.1057   25.8840 H   0  0  0  0  0  0
  -20.9827  -29.8506   21.6298 H   0  0  0  0  0  0
  -25.9967  -38.2414   24.1493 H   0  0  0  0  0  0
  -25.0723  -13.9514   17.7616 H   0  0  0  0  0  0
  -23.6010   -9.9247   26.0502 H   0  0  0  0  0  0
  -23.2211   -8.8846   24.6910 H   0  0  0  0  0  0
  -22.0768  -10.1196   25.1921 H   0  0  0  0  0  0
  -25.7061  -10.1617   24.8909 H   0  0  0  0  0  0
  -25.8849  -11.3728   23.6573 H   0  0  0  0  0  0
  -25.4346   -9.7288   23.1979 H   0  0  0  0  0  0
  -16.6884  -12.2316   21.4397 H   0  0  0  0  0  0
  -17.5837  -11.1789   20.3617 H   0  0  0  0  0  0
  -17.1466  -12.8065   19.8498 H   0  0  0  0  0  0
  -18.3333  -11.6419   23.1376 H   0  0  0  0  0  0
  -19.8739  -12.4918   23.1705 H   0  0  0  0  0  0
  -19.7048  -10.9942   22.2774 H   0  0  0  0  0  0
  -22.9300  -17.1157   19.7571 H   0  0  0  0  0  0
  -23.8697  -16.9640   18.3391 H   0  0  0  0  0  0
  -21.1383  -14.3637   19.9206 H   0  0  0  0  0  0
  -20.9640  -13.9182   21.5412 H   0  0  0  0  0  0
  -22.8322   -9.8697   22.6094 H   0  0  0  0  0  0
  -22.0153  -11.3078   22.9400 H   0  0  0  0  0  0
  -25.9772  -18.9390   19.3766 H   0  0  0  0  0  0
  -25.1540  -19.0571   20.8858 H   0  0  0  0  0  0
  -20.0634  -11.5881   20.2580 H   0  0  0  0  0  0
  -19.6249  -12.9020   19.2268 H   0  0  0  0  0  0
  -27.9811  -12.5319   16.5075 H   0  0  0  0  0  0
  -26.6181  -13.5005   16.5482 H   0  0  0  0  0  0
  -27.6158  -15.1397   18.2040 H   0  0  0  0  0  0
  -28.4577  -14.8967   16.8078 H   0  0  0  0  0  0
  -24.5739  -21.9245   20.5957 H   0  0  0  0  0  0
  -24.8648  -21.9686   18.9090 H   0  0  0  0  0  0
  -23.7743  -11.8830   24.5577 H   0  0  0  0  0  0
  -18.6358  -13.7756   21.5655 H   0  0  0  0  0  0
  -27.0817  -11.0924   18.0216 H   0  0  0  0  0  0
  -30.3095  -15.0838   17.6983 H   0  0  0  0  0  0
  1 25  1  0  0  0
  1 30  2  0  0  0
  1 92  1  0  0  0
  2  3  1  0  0  0
  2 25  1  0  0  0
  2 93  1  0  0  0
  2 94  1  0  0  0
  3  4  1  0  0  0
  3 95  1  0  0  0
  3 96  1  0  0  0
  4  5  1  0  0  0
  4 97  1  0  0  0
  4 98  1  0  0  0
  5  6  1  0  0  0
  5 26  1  0  0  0
  5 99  1  0  0  0
  6 25  1  0  0  0
  6100  1  0  0  0
  6101  1  0  0  0
  7  8  2  0  0  0
  7 26  1  0  0  0
  7 29  1  0  0  0
  8  9  1  0  0  0
  8 22  1  0  0  0
  9 10  1  0  0  0
  9 27  2  0  0  0
 10 11  2  0  0  0
 10 15  1  0  0  0
 11 12  1  0  0  0
 11102  1  0  0  0
 12 13  2  0  0  0
 12103  1  0  0  0
 13 14  1  0  0  0
 13 31  1  0  0  0
 14 15  2  0  0  0
 14104  1  0  0  0
 15105  1  0  0  0
 16 17  2  0  0  0
 16 21  1  0  0  0
 16 31  1  0  0  0
 17 18  1  0  0  0
 17106  1  0  0  0
 18 19  2  0  0  0
 18107  1  0  0  0
 19 20  1  0  0  0
 19 24  1  0  0  0
 20 21  2  0  0  0
 20108  1  0  0  0
 21 23  1  0  0  0
 22 28  1  0  0  0
 22 32  2  0  0  0
 26 27  1  0  0  0
 28109  1  0  0  0
 28110  1  0  0  0
 29111  1  0  0  0
 29112  1  0  0  0
 33 34  1  0  0  0
 33 66  1  0  0  0
 33 70  2  0  0  0
 34 36  1  0  0  0
 34 59  1  0  0  0
 34113  1  0  0  0
 35 44  2  0  0  0
 35 45  1  0  0  0
 35 68  1  0  0  0
 36 56  1  0  0  0
 36114  1  0  0  0
 37 39  1  0  0  0
 37 47  1  0  0  0
 37 66  1  0  0  0
 37115  1  0  0  0
 38 43  2  0  0  0
 38 46  1  0  0  0
 38 47  1  0  0  0
 39 64  1  0  0  0
 39 67  2  0  0  0
 40 52  1  0  0  0
 40 53  2  0  0  0
 40 58  1  0  0  0
 41116  1  0  0  0
 41117  1  0  0  0
 41118  1  0  0  0
 41 48  1  0  0  0
 42 43  1  0  0  0
 42 66  1  0  0  0
 42119  1  0  0  0
 42120  1  0  0  0
 43 44  1  0  0  0
 44121  1  0  0  0
 45 46  2  0  0  0
 45122  1  0  0  0
 46123  1  0  0  0
 47124  1  0  0  0
 47125  1  0  0  0
 48 56  1  0  0  0
 48 65  1  0  0  0
 48126  1  0  0  0
 49 50  1  0  0  0
 49 53  1  0  0  0
 49 64  1  0  0  0
 49127  1  0  0  0
 50 51  1  0  0  0
 50128  1  0  0  0
 50129  1  0  0  0
 51 52  1  0  0  0
 51130  1  0  0  0
 51131  1  0  0  0
 52132  1  0  0  0
 52133  1  0  0  0
 53 54  1  0  0  0
 54 55  2  0  0  0
 54134  1  0  0  0
 55 57  1  0  0  0
 55135  1  0  0  0
 56 69  2  0  0  0
 57 58  2  0  0  0
 57136  1  0  0  0
 58137  1  0  0  0
 59 60  1  0  0  0
 59 61  1  0  0  0
 59 62  1  0  0  0
 60138  1  0  0  0
 60139  1  0  0  0
 60140  1  0  0  0
 61141  1  0  0  0
 61142  1  0  0  0
 61143  1  0  0  0
 62144  1  0  0  0
 62145  1  0  0  0
 62146  1  0  0  0
 63 65  1  0  0  0
 63147  1  0  0  0
 63148  1  0  0  0
 63149  1  0  0  0
 64150  1  0  0  0
 65151  1  0  0  0
 68 87  1  0  0  0
 71 72  2  0  0  0
 71 75  1  0  0  0
 71152  1  0  0  0
 72 73  1  0  0  0
 72 80  1  0  0  0
 73 74  2  0  0  0
 73 81  1  0  0  0
 74 82  1  0  0  0
 74 90  1  0  0  0
 75 90  2  0  0  0
 75 91  1  0  0  0
 76153  1  0  0  0
 76154  1  0  0  0
 76155  1  0  0  0
 76 88  1  0  0  0
 77 88  1  0  0  0
 77156  1  0  0  0
 77157  1  0  0  0
 77158  1  0  0  0
 78159  1  0  0  0
 78160  1  0  0  0
 78161  1  0  0  0
 78 89  1  0  0  0
 79 89  1  0  0  0
 79162  1  0  0  0
 79163  1  0  0  0
 79164  1  0  0  0
 80 83  1  0  0  0
 80165  1  0  0  0
 80166  1  0  0  0
 81 84  1  0  0  0
 81167  1  0  0  0
 81168  1  0  0  0
 82 88  1  0  0  0
 82169  1  0  0  0
 82170  1  0  0  0
 83 87  1  0  0  0
 83171  1  0  0  0
 83172  1  0  0  0
 84 89  1  0  0  0
 84173  1  0  0  0
 84174  1  0  0  0
 85 86  1  0  0  0
 85 91  1  0  0  0
 85175  1  0  0  0
 85176  1  0  0  0
 86 92  1  0  0  0
 86177  1  0  0  0
 86178  1  0  0  0
 87179  1  0  0  0
 87180  1  0  0  0
 88181  1  0  0  0
 89182  1  0  0  0
 91183  1  0  0  0
 92184  1  0  0  0
M  ISO  4   1 100  68 101  87 101  92 100
M  END
> <chiral flag>
0

> <version>
0

> <s_m_source_file>
/data/baiqing/PycharmProjects/Reinvent-master-3.2/result/LINK_invent/BTK/process_docking_weight1_custom_sum_contain_oxygen_bond_distance_aromatic_linkinvent_7_9_3/rearranged_h_0101.sdf

> <i_m_source_file_index>
76

> <r_mmod_Potential_Energy-OPLS-2005>
24313.8359375

> <r_mmod_Stretch_Energy-OPLS-2005>
12317.201171875

> <r_mmod_Bend_Energy-OPLS-2005>
2222.49389648438

> <r_mmod_Torsional_Energy-OPLS-2005>
910.680969238281

> <r_mmod_Improper_Torsional_Energy-OPLS-2005>
121.935043334961

> <r_mmod_Van_der_Waal_Energy-OPLS-2005>
3366.462890625

> <r_mmod_Electrostatic_Energy-OPLS-2005>
-557.361694335938

> <r_mmod_Solvation_Energy-OPLS-2005>
-233.590148925781

> <b_mmod_Minimization_Converged-OPLS-2005>
0

> <r_mmod_RMS_Derivative-OPLS-2005>
13.4171495437622

$$$$
76
                    3D
 Structure written by MMmdl.
174182  0  0  1  0            999 V2000
  -30.7207  -14.4278   20.6667 C   0  0  0  0  0  0
  -30.4225  -12.3093   19.4355 C   0  0  0  0  0  0
  -29.4943  -12.5208   18.2202 C   0  0  0  0  0  0
  -28.0198  -12.3679   18.6309 C   0  0  0  0  0  0
  -27.6633  -13.2036   19.8867 C   0  0  2  0  0  0
  -28.6922  -12.9674   21.0122 C   0  0  0  0  0  0
  -25.2557  -13.8160   20.5664 C   0  0  0  0  0  0
  -24.1819  -13.0421   20.9191 C   0  0  0  0  0  0
  -24.6381  -11.6903   20.8741 C   0  0  0  0  0  0
  -23.9050  -10.4281   21.0406 C   0  0  0  0  0  0
  -24.3606   -9.4198   21.9188 C   0  0  0  0  0  0
  -23.6288   -8.2230   22.0746 C   0  0  0  0  0  0
  -22.4262   -8.0274   21.3536 C   0  0  0  0  0  0
  -21.9899   -9.0249   20.4633 C   0  0  0  0  0  0
  -22.7224  -10.2134   20.3050 C   0  0  0  0  0  0
  -21.6850   -6.0728   22.5282 C   0  0  0  0  0  0
  -21.4008   -6.5634   23.8212 C   0  0  0  0  0  0
  -21.3662   -5.6790   24.9175 C   0  0  0  0  0  0
  -21.6041   -4.3052   24.7230 C   0  0  0  0  0  0
  -21.8820   -3.8143   23.4349 C   0  0  0  0  0  0
  -21.9191   -4.6960   22.3402 C   0  0  0  0  0  0
  -22.7847  -13.5227   21.1870 C   0  0  0  0  0  0
  -22.1667   -4.2142   21.0987 F   0  0  0  0  0  0
  -21.5640   -3.4541   25.7748 F   0  0  0  0  0  0
  -30.0345  -13.2694   20.4823 N   0  0  0  0  0  0
  -26.2999  -12.9318   20.3374 N   0  0  0  0  0  0
  -25.9298  -11.6481   20.5798 N   0  0  0  0  0  0
  -22.0496  -12.8178   22.0426 N   0  0  0  0  0  0
  -25.4262  -15.1858   20.4016 N   0  0  0  0  0  0
  -31.7812  -14.6778   20.0846 O   0  0  0  0  0  0
  -21.6625   -6.8863   21.4237 O   0  0  0  0  0  0
  -22.3515  -14.5530   20.6734 O   0  0  0  0  0  0
  -24.6129  -31.8710   23.2135 C   0  0  0  0  0  0
  -25.9038  -32.4837   23.8422 C   0  0  1  0  0  0
  -27.2324  -27.4399   20.0980 C   0  0  0  0  0  0
  -25.5935  -33.8641   24.2379 N   0  0  0  0  0  0
  -23.3986  -30.4950   21.5544 C   0  0  2  0  0  0
  -24.8411  -28.9602   20.1200 C   0  0  0  0  0  0
  -22.7402  -29.4665   22.5020 C   0  0  0  0  0  0
  -18.0287  -28.1407   22.8449 C   0  0  0  0  0  0
  -24.1505  -36.7338   23.2627 C   0  0  0  0  0  0
  -25.9267  -30.8362   21.3666 C   0  0  0  0  0  0
  -25.9999  -29.4696   20.7173 C   0  0  0  0  0  0
  -27.1934  -28.7155   20.7047 C   0  0  0  0  0  0
  -26.0541  -26.9463   19.4900 C   0  0  0  0  0  0
  -24.8637  -27.6985   19.5021 C   0  0  0  0  0  0
  -23.6069  -29.8286   20.1697 C   0  0  0  0  0  0
  -25.4119  -36.3134   24.0341 C   0  0  1  0  0  0
  -20.5864  -28.3664   23.1348 C   0  0  2  0  0  0
  -20.6812  -26.9432   22.5374 C   0  0  0  0  0  0
  -19.5808  -26.6505   21.5112 C   0  0  0  0  0  0
  -18.1953  -26.8000   22.1482 C   0  0  0  0  0  0
  -19.1527  -28.8812   23.2943 C   0  0  0  0  0  0
  -18.9475  -30.1391   23.9017 C   0  0  0  0  0  0
  -17.6483  -30.6548   24.0672 C   0  0  0  0  0  0
  -25.9040  -34.9495   23.5137 C   0  0  0  0  0  0
  -16.5368  -29.9101   23.6381 C   0  0  0  0  0  0
  -16.7284  -28.6553   23.0312 C   0  0  0  0  0  0
  -26.4474  -31.6590   25.0727 C   0  0  0  0  0  0
  -25.3753  -31.3673   26.1465 C   0  0  0  0  0  0
  -27.0302  -30.3052   24.6072 C   0  0  0  0  0  0
  -27.6068  -32.4271   25.7485 C   0  0  0  0  0  0
  -27.5598  -37.1818   24.8459 C   0  0  0  0  0  0
  -21.4115  -29.3100   22.3822 N   0  0  0  0  0  0
  -26.4322  -37.3807   23.9385 N   0  0  0  0  0  0
  -24.6639  -31.0818   22.1038 N   0  0  0  0  0  0
  -23.4204  -28.8121   23.2966 O   0  0  0  0  0  0
  -28.4362  -26.7647   20.0872 O   0  0  0  0  0  0
  -26.5579  -34.8919   22.4691 O   0  0  0  0  0  0
  -23.5322  -32.1478   23.7534 O   0  0  0  0  0  0
  -27.4038  -24.6563   22.3071 C   0  0  0  0  0  0
  -29.4759  -23.4131   21.5398 C   0  0  0  0  0  0
  -26.4718  -23.5198   21.8225 C   0  0  0  0  0  0
  -28.5971  -22.1551   21.7746 C   0  0  0  0  0  0
  -28.7072  -24.7654   21.5005 C   0  0  1  0  0  0
  -27.1947  -22.3110   21.1506 C   0  0  1  0  0  0
  -24.9051  -21.0868   21.5974 C   0  0  0  0  0  0
  -26.7014  -18.5218   19.1487 C   0  0  0  0  0  0
  -28.4753  -25.3299   20.0725 C   0  0  0  0  0  0
  -29.4113  -17.7283   21.8859 C   0  0  0  0  0  0
  -28.2336  -17.5907   20.8999 C   0  0  0  0  0  0
  -30.5707  -16.7268   21.6404 C   0  0  0  0  0  0
  -26.3146  -21.0130   20.9715 C   0  0  2  0  0  0
  -27.6390  -18.9093   20.3215 C   0  0  2  0  0  0
  -30.1401  -15.3271   21.4822 N   0  0  0  0  0  0
  -26.9644  -19.7302   21.3761 N   0  3  0  0  0  0
  -31.4656  -12.4213   19.1354 H   0  0  0  0  0  0
  -30.3286  -11.2936   19.8214 H   0  0  0  0  0  0
  -29.7433  -11.8125   17.4288 H   0  0  0  0  0  0
  -29.6474  -13.5152   17.8022 H   0  0  0  0  0  0
  -27.8440  -11.3101   18.8315 H   0  0  0  0  0  0
  -27.3614  -12.6361   17.8045 H   0  0  0  0  0  0
  -27.7135  -14.2563   19.6045 H   0  0  0  0  0  0
  -28.6604  -11.9255   21.3370 H   0  0  0  0  0  0
  -28.4313  -13.5535   21.8945 H   0  0  0  0  0  0
  -25.2756   -9.5679   22.4747 H   0  0  0  0  0  0
  -24.0002   -7.4621   22.7450 H   0  0  0  0  0  0
  -21.0833   -8.8766   19.8935 H   0  0  0  0  0  0
  -22.3696  -10.9665   19.6155 H   0  0  0  0  0  0
  -21.2005   -7.6151   23.9714 H   0  0  0  0  0  0
  -21.1478   -6.0524   25.9076 H   0  0  0  0  0  0
  -22.0597   -2.7602   23.2856 H   0  0  0  0  0  0
  -22.4100  -11.9831   22.4793 H   0  0  0  0  0  0
  -21.1124  -13.1187   22.2656 H   0  0  0  0  0  0
  -24.6514  -15.8345   20.4702 H   0  0  0  0  0  0
  -26.2764  -15.6039   20.0487 H   0  0  0  0  0  0
  -26.7137  -32.5556   23.1203 H   0  0  0  0  0  0
  -25.0124  -33.9813   25.0552 H   0  0  0  0  0  0
  -22.6855  -31.3108   21.4195 H   0  0  0  0  0  0
  -23.3757  -35.9684   23.3296 H   0  0  0  0  0  0
  -24.3617  -36.8936   22.2043 H   0  0  0  0  0  0
  -23.7245  -37.6550   23.6633 H   0  0  0  0  0  0
  -26.0356  -31.5931   20.5887 H   0  0  0  0  0  0
  -26.8167  -30.8895   21.9842 H   0  0  0  0  0  0
  -28.0871  -29.1100   21.1665 H   0  0  0  0  0  0
  -26.0278  -26.0016   18.9694 H   0  0  0  0  0  0
  -23.9751  -27.3076   19.0240 H   0  0  0  0  0  0
  -23.7269  -30.6049   19.4134 H   0  0  0  0  0  0
  -22.7281  -29.2564   19.8710 H   0  0  0  0  0  0
  -25.1281  -36.2024   25.0843 H   0  0  0  0  0  0
  -20.9937  -28.3146   24.1472 H   0  0  0  0  0  0
  -20.5716  -26.2247   23.3512 H   0  0  0  0  0  0
  -21.6708  -26.7592   22.1158 H   0  0  0  0  0  0
  -19.6980  -25.6490   21.0936 H   0  0  0  0  0  0
  -19.6772  -27.3416   20.6734 H   0  0  0  0  0  0
  -17.4281  -26.6819   21.3833 H   0  0  0  0  0  0
  -18.0305  -26.0077   22.8795 H   0  0  0  0  0  0
  -19.7964  -30.7152   24.2441 H   0  0  0  0  0  0
  -17.5086  -31.6189   24.5359 H   0  0  0  0  0  0
  -15.5380  -30.3054   23.7721 H   0  0  0  0  0  0
  -15.8693  -28.0914   22.6935 H   0  0  0  0  0  0
  -24.5942  -30.6999   25.7800 H   0  0  0  0  0  0
  -24.8917  -32.2816   26.4922 H   0  0  0  0  0  0
  -25.8097  -30.8847   27.0219 H   0  0  0  0  0  0
  -26.2847  -29.6799   24.1147 H   0  0  0  0  0  0
  -27.4119  -29.7268   25.4489 H   0  0  0  0  0  0
  -27.8657  -30.4382   23.9191 H   0  0  0  0  0  0
  -27.2732  -33.3538   26.2146 H   0  0  0  0  0  0
  -28.3850  -32.6853   25.0300 H   0  0  0  0  0  0
  -28.0784  -31.8340   26.5325 H   0  0  0  0  0  0
  -28.2609  -38.0122   24.7515 H   0  0  0  0  0  0
  -28.1095  -36.2646   24.6280 H   0  0  0  0  0  0
  -27.2315  -37.1460   25.8863 H   0  0  0  0  0  0
  -20.9221  -29.9012   21.7252 H   0  0  0  0  0  0
  -26.0219  -38.2894   24.1371 H   0  0  0  0  0  0
  -27.6693  -24.4778   23.3510 H   0  0  0  0  0  0
  -26.8696  -25.6066   22.3042 H   0  0  0  0  0  0
  -30.0572  -23.2904   20.6255 H   0  0  0  0  0  0
  -30.2146  -23.4548   22.3431 H   0  0  0  0  0  0
  -25.7343  -23.9288   21.1296 H   0  0  0  0  0  0
  -25.9113  -23.1922   22.6982 H   0  0  0  0  0  0
  -28.4930  -21.9903   22.8469 H   0  0  0  0  0  0
  -29.1339  -21.2933   21.3771 H   0  0  0  0  0  0
  -29.3513  -25.4901   22.0047 H   0  0  0  0  0  0
  -27.3982  -22.6181   20.1241 H   0  0  0  0  0  0
  -24.3556  -21.9589   21.2455 H   0  0  0  0  0  0
  -24.9445  -21.1275   22.6870 H   0  0  0  0  0  0
  -24.3003  -20.2234   21.3169 H   0  0  0  0  0  0
  -26.4140  -19.3663   18.5233 H   0  0  0  0  0  0
  -25.7944  -18.0306   19.4970 H   0  0  0  0  0  0
  -27.1943  -17.8188   18.4734 H   0  0  0  0  0  0
  -27.6197  -24.8529   19.6020 H   0  0  0  0  0  0
  -29.3187  -25.0699   19.4343 H   0  0  0  0  0  0
  -29.0355  -17.6279   22.9058 H   0  0  0  0  0  0
  -29.8269  -18.7353   21.8294 H   0  0  0  0  0  0
  -28.5879  -17.0002   20.0545 H   0  0  0  0  0  0
  -27.4504  -16.9874   21.3623 H   0  0  0  0  0  0
  -31.2948  -16.7956   22.4533 H   0  0  0  0  0  0
  -31.1039  -17.0473   20.7433 H   0  0  0  0  0  0
  -26.1074  -20.9668   19.9058 H   0  0  0  0  0  0
  -28.4604  -19.4992   19.9106 H   0  0  0  0  0  0
  -29.3160  -15.0295   21.9804 H   0  0  0  0  0  0
  -26.2460  -19.1536   21.7847 H   0  0  0  0  0  0
  -27.6173  -19.9288   22.1158 H   0  0  0  0  0  0
  1 25  1  0  0  0
  1 30  2  0  0  0
  1 85  1  0  0  0
  2  3  1  0  0  0
  2 25  1  0  0  0
  2 87  1  0  0  0
  2 88  1  0  0  0
  3  4  1  0  0  0
  3 89  1  0  0  0
  3 90  1  0  0  0
  4  5  1  0  0  0
  4 91  1  0  0  0
  4 92  1  0  0  0
  5  6  1  0  0  0
  5 26  1  0  0  0
  5 93  1  0  0  0
  6 25  1  0  0  0
  6 94  1  0  0  0
  6 95  1  0  0  0
  7  8  2  0  0  0
  7 26  1  0  0  0
  7 29  1  0  0  0
  8  9  1  0  0  0
  8 22  1  0  0  0
  9 10  1  0  0  0
  9 27  2  0  0  0
 10 11  2  0  0  0
 10 15  1  0  0  0
 11 12  1  0  0  0
 11 96  1  0  0  0
 12 13  2  0  0  0
 12 97  1  0  0  0
 13 14  1  0  0  0
 13 31  1  0  0  0
 14 15  2  0  0  0
 14 98  1  0  0  0
 15 99  1  0  0  0
 16 17  2  0  0  0
 16 21  1  0  0  0
 16 31  1  0  0  0
 17 18  1  0  0  0
 17100  1  0  0  0
 18 19  2  0  0  0
 18101  1  0  0  0
 19 20  1  0  0  0
 19 24  1  0  0  0
 20 21  2  0  0  0
 20102  1  0  0  0
 21 23  1  0  0  0
 22 28  1  0  0  0
 22 32  2  0  0  0
 26 27  1  0  0  0
 28103  1  0  0  0
 28104  1  0  0  0
 29105  1  0  0  0
 29106  1  0  0  0
 33 34  1  0  0  0
 33 66  1  0  0  0
 33 70  2  0  0  0
 34 36  1  0  0  0
 34 59  1  0  0  0
 34107  1  0  0  0
 35 44  2  0  0  0
 35 45  1  0  0  0
 35 68  1  0  0  0
 36 56  1  0  0  0
 36108  1  0  0  0
 37 39  1  0  0  0
 37 47  1  0  0  0
 37 66  1  0  0  0
 37109  1  0  0  0
 38 43  2  0  0  0
 38 46  1  0  0  0
 38 47  1  0  0  0
 39 64  1  0  0  0
 39 67  2  0  0  0
 40 52  1  0  0  0
 40 53  2  0  0  0
 40 58  1  0  0  0
 41110  1  0  0  0
 41111  1  0  0  0
 41112  1  0  0  0
 41 48  1  0  0  0
 42 43  1  0  0  0
 42 66  1  0  0  0
 42113  1  0  0  0
 42114  1  0  0  0
 43 44  1  0  0  0
 44115  1  0  0  0
 45 46  2  0  0  0
 45116  1  0  0  0
 46117  1  0  0  0
 47118  1  0  0  0
 47119  1  0  0  0
 48 56  1  0  0  0
 48 65  1  0  0  0
 48120  1  0  0  0
 49 50  1  0  0  0
 49 53  1  0  0  0
 49 64  1  0  0  0
 49121  1  0  0  0
 50 51  1  0  0  0
 50122  1  0  0  0
 50123  1  0  0  0
 51 52  1  0  0  0
 51124  1  0  0  0
 51125  1  0  0  0
 52126  1  0  0  0
 52127  1  0  0  0
 53 54  1  0  0  0
 54 55  2  0  0  0
 54128  1  0  0  0
 55 57  1  0  0  0
 55129  1  0  0  0
 56 69  2  0  0  0
 57 58  2  0  0  0
 57130  1  0  0  0
 58131  1  0  0  0
 59 60  1  0  0  0
 59 61  1  0  0  0
 59 62  1  0  0  0
 60132  1  0  0  0
 60133  1  0  0  0
 60134  1  0  0  0
 61135  1  0  0  0
 61136  1  0  0  0
 61137  1  0  0  0
 62138  1  0  0  0
 62139  1  0  0  0
 62140  1  0  0  0
 63 65  1  0  0  0
 63141  1  0  0  0
 63142  1  0  0  0
 63143  1  0  0  0
 64144  1  0  0  0
 65145  1  0  0  0
 68 79  1  0  0  0
 71 73  1  0  0  0
 71 75  1  0  0  0
 71146  1  0  0  0
 71147  1  0  0  0
 72 74  1  0  0  0
 72 75  1  0  0  0
 72148  1  0  0  0
 72149  1  0  0  0
 73150  1  0  0  0
 73151  1  0  0  0
 73 76  1  0  0  0
 74 76  1  0  0  0
 74152  1  0  0  0
 74153  1  0  0  0
 75 79  1  0  0  0
 75154  1  0  0  0
 76 83  1  0  0  0
 76155  1  0  0  0
 77156  1  0  0  0
 77157  1  0  0  0
 77158  1  0  0  0
 77 83  1  0  0  0
 78159  1  0  0  0
 78160  1  0  0  0
 78161  1  0  0  0
 78 84  1  0  0  0
 79162  1  0  0  0
 79163  1  0  0  0
 80 81  1  0  0  0
 80 82  1  0  0  0
 80164  1  0  0  0
 80165  1  0  0  0
 81 84  1  0  0  0
 81166  1  0  0  0
 81167  1  0  0  0
 82 85  1  0  0  0
 82168  1  0  0  0
 82169  1  0  0  0
 83 86  1  0  0  0
 83170  1  0  0  0
 84 86  1  0  0  0
 84171  1  0  0  0
 85172  1  0  0  0
 86173  1  0  0  0
 86174  1  0  0  0
M  CHG  1  86   1
M  ISO  4   1 100  68 101  79 101  85 100
M  END
> <chiral flag>
0

> <version>
0

> <s_m_source_file>
/data/baiqing/PycharmProjects/Reinvent-master-3.2/result/LINK_invent/BTK/process_docking_weight1_custom_sum_contain_oxygen_bond_distance_aromatic_linkinvent_7_9_3/rearranged_h_0101.sdf

> <i_m_source_file_index>
77

> <r_mmod_Potential_Energy-OPLS-2005>
-58.3102531433105

> <r_mmod_Stretch_Energy-OPLS-2005>
42.0444679260254

> <r_mmod_Bend_Energy-OPLS-2005>
130.415390014648

> <r_mmod_Torsional_Energy-OPLS-2005>
313.643493652344

> <r_mmod_Improper_Torsional_Energy-OPLS-2005>
2.38979268074036

> <r_mmod_Van_der_Waal_Energy-OPLS-2005>
141.616424560547

> <r_mmod_Electrostatic_Energy-OPLS-2005>
-248.421112060547

> <r_mmod_Solvation_Energy-OPLS-2005>
-449.762878417969

> <b_mmod_Minimization_Converged-OPLS-2005>
0

> <r_mmod_RMS_Derivative-OPLS-2005>
4.39537763595581

$$$$
77
                    3D
 Structure written by MMmdl.
166174  0  0  1  0            999 V2000
  -30.5122  -14.9926   20.4518 C   0  0  0  0  0  0
  -30.4461  -12.6188   19.5289 C   0  0  0  0  0  0
  -29.5344  -12.5503   18.2789 C   0  0  0  0  0  0
  -28.0660  -12.3267   18.6843 C   0  0  0  0  0  0
  -27.6315  -13.2524   19.8510 C   0  0  2  0  0  0
  -28.6649  -13.2789   20.9979 C   0  0  0  0  0  0
  -25.2421  -13.8222   20.5669 C   0  0  0  0  0  0
  -24.1759  -13.0418   20.9226 C   0  0  0  0  0  0
  -24.6371  -11.6922   20.8721 C   0  0  0  0  0  0
  -23.9061  -10.4278   21.0372 C   0  0  0  0  0  0
  -24.3611   -9.4205   21.9165 C   0  0  0  0  0  0
  -23.6292   -8.2250   22.0738 C   0  0  0  0  0  0
  -22.4281   -8.0264   21.3514 C   0  0  0  0  0  0
  -21.9908   -9.0219   20.4608 C   0  0  0  0  0  0
  -22.7237  -10.2100   20.3016 C   0  0  0  0  0  0
  -21.6840   -6.0737   22.5267 C   0  0  0  0  0  0
  -21.4000   -6.5645   23.8187 C   0  0  0  0  0  0
  -21.3652   -5.6796   24.9146 C   0  0  0  0  0  0
  -21.6043   -4.3051   24.7203 C   0  0  0  0  0  0
  -21.8801   -3.8135   23.4325 C   0  0  0  0  0  0
  -21.9182   -4.6963   22.3382 C   0  0  0  0  0  0
  -22.7779  -13.5183   21.1924 C   0  0  0  0  0  0
  -22.1667   -4.2152   21.0959 F   0  0  0  0  0  0
  -21.5666   -3.4528   25.7714 F   0  0  0  0  0  0
  -29.9462  -13.7118   20.4224 N   0  0  0  0  0  0
  -26.2880  -12.9466   20.3268 N   0  0  0  0  0  0
  -25.9308  -11.6587   20.5743 N   0  0  0  0  0  0
  -22.0464  -12.8058   22.0439 N   0  0  0  0  0  0
  -25.3998  -15.1947   20.3963 N   0  0  0  0  0  0
  -31.6870  -15.0834   20.0787 O   0  0  0  0  0  0
  -21.6633   -6.8869   21.4225 O   0  0  0  0  0  0
  -22.3447  -14.5509   20.6853 O   0  0  0  0  0  0
  -24.6464  -31.8400   23.1847 C   0  0  0  0  0  0
  -25.9237  -32.4682   23.8227 C   0  0  1  0  0  0
  -27.2107  -27.0742   20.1905 C   0  0  0  0  0  0
  -25.5980  -33.8482   24.2160 N   0  0  0  0  0  0
  -23.4514  -30.4557   21.5326 C   0  0  2  0  0  0
  -24.9065  -28.8684   20.1209 C   0  0  0  0  0  0
  -22.7568  -29.4503   22.4865 C   0  0  0  0  0  0
  -18.0309  -28.1379   22.8487 C   0  0  0  0  0  0
  -24.1503  -36.7226   23.2631 C   0  0  0  0  0  0
  -26.0100  -30.6978   21.3901 C   0  0  0  0  0  0
  -26.0857  -29.2979   20.7437 C   0  0  0  0  0  0
  -27.2441  -28.4207   20.7527 C   0  0  0  0  0  0
  -26.0076  -26.7560   19.5280 C   0  0  0  0  0  0
  -24.8867  -27.6139   19.4914 C   0  0  0  0  0  0
  -23.6839  -29.7766   20.1546 C   0  0  0  0  0  0
  -25.4142  -36.3012   24.0311 C   0  0  1  0  0  0
  -20.5916  -28.3705   23.1238 C   0  0  2  0  0  0
  -20.6775  -26.9397   22.5424 C   0  0  0  0  0  0
  -19.5766  -26.6374   21.5210 C   0  0  0  0  0  0
  -18.1951  -26.7926   22.1624 C   0  0  0  0  0  0
  -19.1561  -28.8865   23.2853 C   0  0  0  0  0  0
  -18.9475  -30.1455   23.8893 C   0  0  0  0  0  0
  -17.6466  -30.6585   24.0548 C   0  0  0  0  0  0
  -25.9095  -34.9397   23.5042 C   0  0  0  0  0  0
  -16.5362  -29.9076   23.6319 C   0  0  0  0  0  0
  -16.7287  -28.6483   23.0374 C   0  0  0  0  0  0
  -26.4566  -31.6539   25.0654 C   0  0  0  0  0  0
  -25.3739  -31.3733   26.1332 C   0  0  0  0  0  0
  -27.0404  -30.2932   24.6196 C   0  0  0  0  0  0
  -27.6111  -32.4278   25.7470 C   0  0  0  0  0  0
  -27.5590  -37.1776   24.8465 C   0  0  0  0  0  0
  -21.4271  -29.3025   22.3612 N   0  0  0  0  0  0
  -26.4302  -37.3736   23.9402 N   0  0  0  0  0  0
  -24.7229  -31.0203   22.0916 N   0  0  0  0  0  0
  -23.4179  -28.8064   23.3050 O   0  0  0  0  0  0
  -28.2387  -26.0478   20.1806 O   0  0  0  0  0  0
  -26.5656  -34.8902   22.4608 O   0  0  0  0  0  0
  -23.5582  -32.1326   23.7031 O   0  0  0  0  0  0
  -29.1865  -21.9449   21.0375 C   0  0  0  0  0  0
  -27.6090  -22.2759   19.6004 C   0  0  0  0  0  0
  -28.3550  -23.0523   20.4642 C   0  0  0  0  0  0
  -28.9068  -20.6051   20.6144 C   0  0  0  0  0  0
  -25.5188  -17.7229   17.5493 C   0  0  0  0  0  0
  -26.7598  -18.4524   15.4720 C   0  0  0  0  0  0
  -30.4020  -19.2184   22.2083 C   0  0  0  0  0  0
  -28.0766  -24.6658   20.9200 C   0  0  0  0  0  0
  -27.4041  -19.4883   17.6927 C   0  0  0  0  0  0
  -26.9905  -19.8754   19.1211 C   0  0  0  0  0  0
  -29.7854  -17.6893   20.2327 C   0  0  0  0  0  0
  -26.2525  -18.8865   16.8558 C   0  0  0  0  0  0
  -29.3171  -19.0581   21.1336 C   0  0  2  0  0  0
  -27.8517  -20.8810   19.7358 N   0  0  0  0  0  0
  -29.7286  -16.1614   20.7084 N   0  0  0  0  0  0
  -28.2759  -18.5672   21.8094 F   0  0  0  0  0  0
  -31.4788  -12.7880   19.2204 H   0  0  0  0  0  0
  -30.4547  -11.6631   20.0531 H   0  0  0  0  0  0
  -29.8626  -11.7505   17.6128 H   0  0  0  0  0  0
  -29.6208  -13.4793   17.7128 H   0  0  0  0  0  0
  -27.9625  -11.2825   18.9849 H   0  0  0  0  0  0
  -27.4100  -12.4630   17.8225 H   0  0  0  0  0  0
  -27.5947  -14.2551   19.4273 H   0  0  0  0  0  0
  -28.7498  -12.2979   21.4696 H   0  0  0  0  0  0
  -28.3467  -13.9708   21.7780 H   0  0  0  0  0  0
  -25.2753   -9.5652   22.4747 H   0  0  0  0  0  0
  -23.9992   -7.4671   22.7491 H   0  0  0  0  0  0
  -21.0837   -8.8699   19.8924 H   0  0  0  0  0  0
  -22.3690  -10.9616   19.6115 H   0  0  0  0  0  0
  -21.1996   -7.6154   23.9690 H   0  0  0  0  0  0
  -21.1512   -6.0532   25.9053 H   0  0  0  0  0  0
  -22.0595   -2.7596   23.2821 H   0  0  0  0  0  0
  -22.4119  -11.9718   22.4773 H   0  0  0  0  0  0
  -21.1058  -13.0968   22.2709 H   0  0  0  0  0  0
  -24.6034  -15.8216   20.4390 H   0  0  0  0  0  0
  -26.2079  -15.6133   19.9568 H   0  0  0  0  0  0
  -26.7259  -32.5300   23.0906 H   0  0  0  0  0  0
  -25.0117  -33.9577   25.0301 H   0  0  0  0  0  0
  -22.7547  -31.2824   21.3721 H   0  0  0  0  0  0
  -23.3793  -35.9531   23.3288 H   0  0  0  0  0  0
  -24.3573  -36.8864   22.2041 H   0  0  0  0  0  0
  -23.7246  -37.6415   23.6676 H   0  0  0  0  0  0
  -26.1514  -31.4441   20.6078 H   0  0  0  0  0  0
  -26.8858  -30.7680   22.0234 H   0  0  0  0  0  0
  -28.1486  -28.7466   21.2459 H   0  0  0  0  0  0
  -25.9179  -25.7883   19.0532 H   0  0  0  0  0  0
  -23.9917  -27.2846   18.9841 H   0  0  0  0  0  0
  -23.8239  -30.5468   19.3950 H   0  0  0  0  0  0
  -22.7983  -29.2170   19.8440 H   0  0  0  0  0  0
  -25.1328  -36.1839   25.0809 H   0  0  0  0  0  0
  -21.0014  -28.3305   24.1355 H   0  0  0  0  0  0
  -20.5641  -26.2298   23.3638 H   0  0  0  0  0  0
  -21.6639  -26.7392   22.1224 H   0  0  0  0  0  0
  -19.6920  -25.6275   21.1250 H   0  0  0  0  0  0
  -19.6710  -27.3180   20.6730 H   0  0  0  0  0  0
  -17.4203  -26.6675   21.4039 H   0  0  0  0  0  0
  -18.0359  -26.0062   22.9016 H   0  0  0  0  0  0
  -19.7944  -30.7272   24.2286 H   0  0  0  0  0  0
  -17.5011  -31.6276   24.5123 H   0  0  0  0  0  0
  -15.5353  -30.2962   23.7655 H   0  0  0  0  0  0
  -15.8696  -28.0776   22.7125 H   0  0  0  0  0  0
  -24.5957  -30.7043   25.7634 H   0  0  0  0  0  0
  -24.8878  -32.2901   26.4666 H   0  0  0  0  0  0
  -25.8008  -30.8966   27.0156 H   0  0  0  0  0  0
  -26.2999  -29.6684   24.1177 H   0  0  0  0  0  0
  -27.3992  -29.7198   25.4749 H   0  0  0  0  0  0
  -27.8919  -30.4157   23.9503 H   0  0  0  0  0  0
  -27.2737  -33.3611   26.1986 H   0  0  0  0  0  0
  -28.3982  -32.6768   25.0347 H   0  0  0  0  0  0
  -28.0684  -31.8401   26.5435 H   0  0  0  0  0  0
  -28.2591  -38.0082   24.7506 H   0  0  0  0  0  0
  -28.1109  -36.2613   24.6323 H   0  0  0  0  0  0
  -27.2279  -37.1436   25.8855 H   0  0  0  0  0  0
  -20.9506  -29.8719   21.6768 H   0  0  0  0  0  0
  -26.0172  -38.2803   24.1427 H   0  0  0  0  0  0
  -29.8955  -22.1218   21.8348 H   0  0  0  0  0  0
  -26.7889  -22.5876   18.9680 H   0  0  0  0  0  0
  -24.7140  -17.3478   16.9142 H   0  0  0  0  0  0
  -25.0522  -18.0405   18.4824 H   0  0  0  0  0  0
  -26.1839  -16.8873   17.7742 H   0  0  0  0  0  0
  -25.9476  -18.0795   14.8472 H   0  0  0  0  0  0
  -27.5070  -17.6599   15.5456 H   0  0  0  0  0  0
  -27.2168  -19.2866   14.9394 H   0  0  0  0  0  0
  -30.0714  -19.8692   23.0172 H   0  0  0  0  0  0
  -31.3063  -19.6575   21.7848 H   0  0  0  0  0  0
  -30.6734  -18.2606   22.6537 H   0  0  0  0  0  0
  -28.6941  -24.7874   21.8111 H   0  0  0  0  0  0
  -27.0599  -24.6581   21.3142 H   0  0  0  0  0  0
  -28.2477  -18.8011   17.7204 H   0  0  0  0  0  0
  -27.7703  -20.3790   17.1838 H   0  0  0  0  0  0
  -26.9440  -18.9881   19.7553 H   0  0  0  0  0  0
  -25.9770  -20.2763   19.1132 H   0  0  0  0  0  0
  -30.7821  -17.8719   19.8293 H   0  0  0  0  0  0
  -29.1359  -17.6755   19.3633 H   0  0  0  0  0  0
  -25.5201  -19.6820   16.7034 H   0  0  0  0  0  0
  -28.8309  -15.9298   21.1065 H   0  0  0  0  0  0
  1 25  1  0  0  0
  1 30  2  0  0  0
  1 85  1  0  0  0
  2  3  1  0  0  0
  2 25  1  0  0  0
  2 87  1  0  0  0
  2 88  1  0  0  0
  3  4  1  0  0  0
  3 89  1  0  0  0
  3 90  1  0  0  0
  4  5  1  0  0  0
  4 91  1  0  0  0
  4 92  1  0  0  0
  5  6  1  0  0  0
  5 26  1  0  0  0
  5 93  1  0  0  0
  6 25  1  0  0  0
  6 94  1  0  0  0
  6 95  1  0  0  0
  7  8  2  0  0  0
  7 26  1  0  0  0
  7 29  1  0  0  0
  8  9  1  0  0  0
  8 22  1  0  0  0
  9 10  1  0  0  0
  9 27  2  0  0  0
 10 11  2  0  0  0
 10 15  1  0  0  0
 11 12  1  0  0  0
 11 96  1  0  0  0
 12 13  2  0  0  0
 12 97  1  0  0  0
 13 14  1  0  0  0
 13 31  1  0  0  0
 14 15  2  0  0  0
 14 98  1  0  0  0
 15 99  1  0  0  0
 16 17  2  0  0  0
 16 21  1  0  0  0
 16 31  1  0  0  0
 17 18  1  0  0  0
 17100  1  0  0  0
 18 19  2  0  0  0
 18101  1  0  0  0
 19 20  1  0  0  0
 19 24  1  0  0  0
 20 21  2  0  0  0
 20102  1  0  0  0
 21 23  1  0  0  0
 22 28  1  0  0  0
 22 32  2  0  0  0
 26 27  1  0  0  0
 28103  1  0  0  0
 28104  1  0  0  0
 29105  1  0  0  0
 29106  1  0  0  0
 33 34  1  0  0  0
 33 66  1  0  0  0
 33 70  2  0  0  0
 34 36  1  0  0  0
 34 59  1  0  0  0
 34107  1  0  0  0
 35 44  2  0  0  0
 35 45  1  0  0  0
 35 68  1  0  0  0
 36 56  1  0  0  0
 36108  1  0  0  0
 37 39  1  0  0  0
 37 47  1  0  0  0
 37 66  1  0  0  0
 37109  1  0  0  0
 38 43  2  0  0  0
 38 46  1  0  0  0
 38 47  1  0  0  0
 39 64  1  0  0  0
 39 67  2  0  0  0
 40 52  1  0  0  0
 40 53  2  0  0  0
 40 58  1  0  0  0
 41110  1  0  0  0
 41111  1  0  0  0
 41112  1  0  0  0
 41 48  1  0  0  0
 42 43  1  0  0  0
 42 66  1  0  0  0
 42113  1  0  0  0
 42114  1  0  0  0
 43 44  1  0  0  0
 44115  1  0  0  0
 45 46  2  0  0  0
 45116  1  0  0  0
 46117  1  0  0  0
 47118  1  0  0  0
 47119  1  0  0  0
 48 56  1  0  0  0
 48 65  1  0  0  0
 48120  1  0  0  0
 49 50  1  0  0  0
 49 53  1  0  0  0
 49 64  1  0  0  0
 49121  1  0  0  0
 50 51  1  0  0  0
 50122  1  0  0  0
 50123  1  0  0  0
 51 52  1  0  0  0
 51124  1  0  0  0
 51125  1  0  0  0
 52126  1  0  0  0
 52127  1  0  0  0
 53 54  1  0  0  0
 54 55  2  0  0  0
 54128  1  0  0  0
 55 57  1  0  0  0
 55129  1  0  0  0
 56 69  2  0  0  0
 57 58  2  0  0  0
 57130  1  0  0  0
 58131  1  0  0  0
 59 60  1  0  0  0
 59 61  1  0  0  0
 59 62  1  0  0  0
 60132  1  0  0  0
 60133  1  0  0  0
 60134  1  0  0  0
 61135  1  0  0  0
 61136  1  0  0  0
 61137  1  0  0  0
 62138  1  0  0  0
 62139  1  0  0  0
 62140  1  0  0  0
 63 65  1  0  0  0
 63141  1  0  0  0
 63142  1  0  0  0
 63143  1  0  0  0
 64144  1  0  0  0
 65145  1  0  0  0
 68 78  1  0  0  0
 71 73  1  0  0  0
 71 74  2  0  0  0
 71146  1  0  0  0
 72 73  2  0  0  0
 72 84  1  0  0  0
 72147  1  0  0  0
 73 78  1  0  0  0
 74 83  1  0  0  0
 74 84  1  0  0  0
 75148  1  0  0  0
 75149  1  0  0  0
 75150  1  0  0  0
 75 82  1  0  0  0
 76 82  1  0  0  0
 76151  1  0  0  0
 76152  1  0  0  0
 76153  1  0  0  0
 77154  1  0  0  0
 77155  1  0  0  0
 77156  1  0  0  0
 77 83  1  0  0  0
 78157  1  0  0  0
 78158  1  0  0  0
 79 80  1  0  0  0
 79 82  1  0  0  0
 79159  1  0  0  0
 79160  1  0  0  0
 80 84  1  0  0  0
 80161  1  0  0  0
 80162  1  0  0  0
 81 83  1  0  0  0
 81 85  1  0  0  0
 81163  1  0  0  0
 81164  1  0  0  0
 82165  1  0  0  0
 83 86  1  0  0  0
 85166  1  0  0  0
M  ISO  4   1 100  68 101  78 101  85 100
M  END
> <chiral flag>
0

> <version>
0

> <s_m_source_file>
/data/baiqing/PycharmProjects/Reinvent-master-3.2/result/LINK_invent/BTK/process_docking_weight1_custom_sum_contain_oxygen_bond_distance_aromatic_linkinvent_7_9_3/rearranged_h_0101.sdf

> <i_m_source_file_index>
78

> <r_mmod_Potential_Energy-OPLS-2005>
653.983642578125

> <r_mmod_Stretch_Energy-OPLS-2005>
312.582763671875

> <r_mmod_Bend_Energy-OPLS-2005>
314.006774902344

> <r_mmod_Torsional_Energy-OPLS-2005>
291.443969726562

> <r_mmod_Improper_Torsional_Energy-OPLS-2005>
10.6281585693359

> <r_mmod_Van_der_Waal_Energy-OPLS-2005>
98.6783065795898

> <r_mmod_Electrostatic_Energy-OPLS-2005>
-407.554595947266

> <r_mmod_Solvation_Energy-OPLS-2005>
-201.079010009766

> <b_mmod_Minimization_Converged-OPLS-2005>
0

> <r_mmod_RMS_Derivative-OPLS-2005>
3.71596837043762

$$$$
78
                    3D
 Structure written by MMmdl.
152159  0  0  1  0            999 V2000
  -30.1664  -16.0117   20.3085 C   0  0  0  0  0  0
  -30.3930  -13.3760   19.5203 C   0  0  0  0  0  0
  -29.5607  -12.7627   18.3452 C   0  0  0  0  0  0
  -28.1682  -12.3185   18.8100 C   0  0  0  0  0  0
  -27.5832  -13.3453   19.7995 C   0  0  2  0  0  0
  -28.5763  -13.8446   20.8863 C   0  0  0  0  0  0
  -25.2279  -13.8323   20.5851 C   0  0  0  0  0  0
  -24.1698  -13.0428   20.9314 C   0  0  0  0  0  0
  -24.6442  -11.6961   20.8755 C   0  0  0  0  0  0
  -23.9134  -10.4298   21.0379 C   0  0  0  0  0  0
  -24.3670   -9.4214   21.9165 C   0  0  0  0  0  0
  -23.6326   -8.2258   22.0761 C   0  0  0  0  0  0
  -22.4303   -8.0293   21.3561 C   0  0  0  0  0  0
  -21.9945   -9.0262   20.4654 C   0  0  0  0  0  0
  -22.7286  -10.2137   20.3043 C   0  0  0  0  0  0
  -21.6861   -6.0741   22.5288 C   0  0  0  0  0  0
  -21.4005   -6.5638   23.8223 C   0  0  0  0  0  0
  -21.3667   -5.6788   24.9183 C   0  0  0  0  0  0
  -21.6052   -4.3055   24.7233 C   0  0  0  0  0  0
  -21.8814   -3.8146   23.4350 C   0  0  0  0  0  0
  -21.9194   -4.6969   22.3405 C   0  0  0  0  0  0
  -22.7701  -13.5147   21.1922 C   0  0  0  0  0  0
  -22.1659   -4.2151   21.0985 F   0  0  0  0  0  0
  -21.5646   -3.4536   25.7747 F   0  0  0  0  0  0
  -29.6799  -14.5871   20.1963 N   0  0  0  0  0  0
  -26.2768  -12.9720   20.3262 N   0  0  0  0  0  0
  -25.9404  -11.6748   20.5648 N   0  0  0  0  0  0
  -22.0348  -12.8141   22.0470 N   0  0  0  0  0  0
  -25.3828  -15.2073   20.4324 N   0  0  0  0  0  0
  -31.4135  -15.8762   20.2673 O   0  0  0  0  0  0
  -21.6657   -6.8894   21.4253 O   0  0  0  0  0  0
  -22.3389  -14.5440   20.6736 O   0  0  0  0  0  0
  -24.7086  -31.7688   23.1319 C   0  0  0  0  0  0
  -25.9545  -32.4312   23.7946 C   0  0  1  0  0  0
  -27.2382  -26.4385   20.2497 C   0  0  0  0  0  0
  -25.6018  -33.8145   24.1815 N   0  0  0  0  0  0
  -23.5468  -30.3601   21.4923 C   0  0  2  0  0  0
  -25.0054  -28.6420   20.1413 C   0  0  0  0  0  0
  -22.7885  -29.4143   22.4650 C   0  0  0  0  0  0
  -18.0359  -28.1432   22.8446 C   0  0  0  0  0  0
  -24.1505  -36.7074   23.2656 C   0  0  0  0  0  0
  -26.1388  -30.4176   21.4348 C   0  0  0  0  0  0
  -26.2025  -28.9502   20.7972 C   0  0  0  0  0  0
  -27.2946  -27.8891   20.8048 C   0  0  0  0  0  0
  -26.0009  -26.4089   19.5358 C   0  0  0  0  0  0
  -24.9586  -27.3982   19.4859 C   0  0  0  0  0  0
  -23.8171  -29.6311   20.1420 C   0  0  0  0  0  0
  -25.4162  -36.2798   24.0270 C   0  0  1  0  0  0
  -20.6005  -28.3801   23.1101 C   0  0  2  0  0  0
  -20.6802  -26.9435   22.5407 C   0  0  0  0  0  0
  -19.5781  -26.6369   21.5214 C   0  0  0  0  0  0
  -18.1967  -26.7956   22.1613 C   0  0  0  0  0  0
  -19.1628  -28.8945   23.2747 C   0  0  0  0  0  0
  -18.9524  -30.1519   23.8810 C   0  0  0  0  0  0
  -17.6508  -30.6604   24.0543 C   0  0  0  0  0  0
  -25.9153  -34.9194   23.4895 C   0  0  0  0  0  0
  -16.5398  -29.9079   23.6357 C   0  0  0  0  0  0
  -16.7332  -28.6501   23.0375 C   0  0  0  0  0  0
  -26.4639  -31.6448   25.0673 C   0  0  0  0  0  0
  -25.3649  -31.3848   26.1256 C   0  0  0  0  0  0
  -27.0590  -30.2749   24.6761 C   0  0  0  0  0  0
  -27.6059  -32.4343   25.7487 C   0  0  0  0  0  0
  -27.5558  -37.1702   24.8464 C   0  0  0  0  0  0
  -21.4510  -29.3001   22.3401 N   0  0  0  0  0  0
  -26.4267  -37.3583   23.9397 N   0  0  0  0  0  0
  -24.8251  -30.8881   22.0709 N   0  0  0  0  0  0
  -23.4208  -28.7750   23.3089 O   0  0  0  0  0  0
  -28.2005  -25.1250   20.1823 O   0  0  0  0  0  0
  -26.5811  -34.8825   22.4526 O   0  0  0  0  0  0
  -23.6054  -32.0865   23.6122 O   0  0  0  0  0  0
  -28.8767  -24.4513   22.8031 C   0  0  0  0  0  0
  -30.7246  -23.5846   21.2872 C   0  0  0  0  0  0
  -29.4240  -19.3754   20.5673 C   0  0  0  0  0  0
  -29.2767  -23.3829   21.7663 C   0  0  0  0  0  0
  -28.7091  -21.2710   19.9917 C   0  0  2  0  0  0
  -28.3019  -23.2630   20.5701 C   0  0  2  0  0  0
  -29.4182  -17.4806   20.2919 N   0  0  0  0  0  0
  -27.5412  -20.9145   19.1654 N   0  3  0  0  0  0
  -31.3489  -13.7030   19.1082 H   0  0  0  0  0  0
  -30.6583  -12.6075   20.2486 H   0  0  0  0  0  0
  -30.0951  -11.9310   17.8829 H   0  0  0  0  0  0
  -29.4499  -13.5202   17.5681 H   0  0  0  0  0  0
  -28.2643  -11.3493   19.3005 H   0  0  0  0  0  0
  -27.5042  -12.1723   17.9569 H   0  0  0  0  0  0
  -27.3878  -14.2112   19.1649 H   0  0  0  0  0  0
  -28.9287  -13.0315   21.5231 H   0  0  0  0  0  0
  -28.0695  -14.5479   21.5486 H   0  0  0  0  0  0
  -25.2824   -9.5691   22.4731 H   0  0  0  0  0  0
  -24.0047   -7.4650   22.7478 H   0  0  0  0  0  0
  -21.0879   -8.8764   19.8955 H   0  0  0  0  0  0
  -22.3733  -10.9666   19.6148 H   0  0  0  0  0  0
  -21.1979   -7.6143   23.9722 H   0  0  0  0  0  0
  -21.1500   -6.0523   25.9091 H   0  0  0  0  0  0
  -22.0586   -2.7609   23.2849 H   0  0  0  0  0  0
  -22.3979  -11.9840   22.4906 H   0  0  0  0  0  0
  -21.0936  -13.1125   22.2602 H   0  0  0  0  0  0
  -24.6118  -15.8532   20.5624 H   0  0  0  0  0  0
  -26.2282  -15.6544   20.1055 H   0  0  0  0  0  0
  -26.7639  -32.4738   23.0661 H   0  0  0  0  0  0
  -25.0076  -33.9123   24.9913 H   0  0  0  0  0  0
  -22.8895  -31.2055   21.2782 H   0  0  0  0  0  0
  -23.3790  -35.9380   23.3250 H   0  0  0  0  0  0
  -24.3570  -36.8807   22.2082 H   0  0  0  0  0  0
  -23.7250  -37.6226   23.6785 H   0  0  0  0  0  0
  -26.3648  -31.1231   20.6347 H   0  0  0  0  0  0
  -26.9819  -30.4994   22.1076 H   0  0  0  0  0  0
  -28.2025  -28.1531   21.3285 H   0  0  0  0  0  0
  -25.7975  -25.4934   18.9987 H   0  0  0  0  0  0
  -24.0647  -27.1501   18.9305 H   0  0  0  0  0  0
  -24.0227  -30.3770   19.3735 H   0  0  0  0  0  0
  -22.9188  -29.1114   19.8036 H   0  0  0  0  0  0
  -25.1385  -36.1519   25.0762 H   0  0  0  0  0  0
  -21.0075  -28.3429   24.1232 H   0  0  0  0  0  0
  -20.5629  -26.2420   23.3682 H   0  0  0  0  0  0
  -21.6660  -26.7322   22.1243 H   0  0  0  0  0  0
  -19.6920  -25.6258   21.1290 H   0  0  0  0  0  0
  -19.6729  -27.3143   20.6715 H   0  0  0  0  0  0
  -17.4234  -26.6706   21.4017 H   0  0  0  0  0  0
  -18.0348  -26.0116   22.9025 H   0  0  0  0  0  0
  -19.7992  -30.7364   24.2138 H   0  0  0  0  0  0
  -17.5050  -31.6278   24.5162 H   0  0  0  0  0  0
  -15.5389  -30.2947   23.7734 H   0  0  0  0  0  0
  -15.8735  -28.0787   22.7141 H   0  0  0  0  0  0
  -24.5900  -30.7108   25.7577 H   0  0  0  0  0  0
  -24.8777  -32.3096   26.4360 H   0  0  0  0  0  0
  -25.7811  -30.9245   27.0231 H   0  0  0  0  0  0
  -26.3356  -29.6313   24.1761 H   0  0  0  0  0  0
  -27.3890  -29.7268   25.5593 H   0  0  0  0  0  0
  -27.9385  -30.3787   24.0414 H   0  0  0  0  0  0
  -27.2587  -33.3735   26.1799 H   0  0  0  0  0  0
  -28.4015  -32.6747   25.0423 H   0  0  0  0  0  0
  -28.0571  -31.8646   26.5620 H   0  0  0  0  0  0
  -28.2533  -38.0030   24.7495 H   0  0  0  0  0  0
  -28.1096  -36.2549   24.6317 H   0  0  0  0  0  0
  -27.2268  -37.1364   25.8865 H   0  0  0  0  0  0
  -20.9869  -29.8644   21.6419 H   0  0  0  0  0  0
  -26.0069  -38.2620   24.1409 H   0  0  0  0  0  0
  -29.3945  -24.2898   23.7485 H   0  0  0  0  0  0
  -27.8053  -24.4300   23.0057 H   0  0  0  0  0  0
  -29.1348  -25.4561   22.4686 H   0  0  0  0  0  0
  -31.4094  -23.7168   22.1255 H   0  0  0  0  0  0
  -30.8134  -24.4594   20.6420 H   0  0  0  0  0  0
  -31.0746  -22.7233   20.7174 H   0  0  0  0  0  0
  -29.0958  -19.3700   21.6064 H   0  0  0  0  0  0
  -30.4946  -19.5611   20.6644 H   0  0  0  0  0  0
  -29.2410  -22.4280   22.2913 H   0  0  0  0  0  0
  -29.4742  -21.4972   19.2487 H   0  0  0  0  0  0
  -27.3077  -23.1327   20.9995 H   0  0  0  0  0  0
  -28.4462  -17.2339   20.1677 H   0  0  0  0  0  0
  -26.7462  -20.7089   19.7445 H   0  0  0  0  0  0
  -27.7433  -20.1047   18.6071 H   0  0  0  0  0  0
  -27.2940  -21.6651   18.5438 H   0  0  0  0  0  0
  1 25  1  0  0  0
  1 30  2  0  0  0
  1 77  1  0  0  0
  2  3  1  0  0  0
  2 25  1  0  0  0
  2 79  1  0  0  0
  2 80  1  0  0  0
  3  4  1  0  0  0
  3 81  1  0  0  0
  3 82  1  0  0  0
  4  5  1  0  0  0
  4 83  1  0  0  0
  4 84  1  0  0  0
  5  6  1  0  0  0
  5 26  1  0  0  0
  5 85  1  0  0  0
  6 25  1  0  0  0
  6 86  1  0  0  0
  6 87  1  0  0  0
  7  8  2  0  0  0
  7 26  1  0  0  0
  7 29  1  0  0  0
  8  9  1  0  0  0
  8 22  1  0  0  0
  9 10  1  0  0  0
  9 27  2  0  0  0
 10 11  2  0  0  0
 10 15  1  0  0  0
 11 12  1  0  0  0
 11 88  1  0  0  0
 12 13  2  0  0  0
 12 89  1  0  0  0
 13 14  1  0  0  0
 13 31  1  0  0  0
 14 15  2  0  0  0
 14 90  1  0  0  0
 15 91  1  0  0  0
 16 17  2  0  0  0
 16 21  1  0  0  0
 16 31  1  0  0  0
 17 18  1  0  0  0
 17 92  1  0  0  0
 18 19  2  0  0  0
 18 93  1  0  0  0
 19 20  1  0  0  0
 19 24  1  0  0  0
 20 21  2  0  0  0
 20 94  1  0  0  0
 21 23  1  0  0  0
 22 28  1  0  0  0
 22 32  2  0  0  0
 26 27  1  0  0  0
 28 95  1  0  0  0
 28 96  1  0  0  0
 29 97  1  0  0  0
 29 98  1  0  0  0
 33 34  1  0  0  0
 33 66  1  0  0  0
 33 70  2  0  0  0
 34 36  1  0  0  0
 34 59  1  0  0  0
 34 99  1  0  0  0
 35 44  2  0  0  0
 35 45  1  0  0  0
 35 68  1  0  0  0
 36 56  1  0  0  0
 36100  1  0  0  0
 37 39  1  0  0  0
 37 47  1  0  0  0
 37 66  1  0  0  0
 37101  1  0  0  0
 38 43  2  0  0  0
 38 46  1  0  0  0
 38 47  1  0  0  0
 39 64  1  0  0  0
 39 67  2  0  0  0
 40 52  1  0  0  0
 40 53  2  0  0  0
 40 58  1  0  0  0
 41102  1  0  0  0
 41103  1  0  0  0
 41104  1  0  0  0
 41 48  1  0  0  0
 42 43  1  0  0  0
 42 66  1  0  0  0
 42105  1  0  0  0
 42106  1  0  0  0
 43 44  1  0  0  0
 44107  1  0  0  0
 45 46  2  0  0  0
 45108  1  0  0  0
 46109  1  0  0  0
 47110  1  0  0  0
 47111  1  0  0  0
 48 56  1  0  0  0
 48 65  1  0  0  0
 48112  1  0  0  0
 49 50  1  0  0  0
 49 53  1  0  0  0
 49 64  1  0  0  0
 49113  1  0  0  0
 50 51  1  0  0  0
 50114  1  0  0  0
 50115  1  0  0  0
 51 52  1  0  0  0
 51116  1  0  0  0
 51117  1  0  0  0
 52118  1  0  0  0
 52119  1  0  0  0
 53 54  1  0  0  0
 54 55  2  0  0  0
 54120  1  0  0  0
 55 57  1  0  0  0
 55121  1  0  0  0
 56 69  2  0  0  0
 57 58  2  0  0  0
 57122  1  0  0  0
 58123  1  0  0  0
 59 60  1  0  0  0
 59 61  1  0  0  0
 59 62  1  0  0  0
 60124  1  0  0  0
 60125  1  0  0  0
 60126  1  0  0  0
 61127  1  0  0  0
 61128  1  0  0  0
 61129  1  0  0  0
 62130  1  0  0  0
 62131  1  0  0  0
 62132  1  0  0  0
 63 65  1  0  0  0
 63133  1  0  0  0
 63134  1  0  0  0
 63135  1  0  0  0
 64136  1  0  0  0
 65137  1  0  0  0
 68 76  1  0  0  0
 71138  1  0  0  0
 71139  1  0  0  0
 71140  1  0  0  0
 71 74  1  0  0  0
 72 74  1  0  0  0
 72141  1  0  0  0
 72142  1  0  0  0
 72143  1  0  0  0
 73 75  1  0  0  0
 73 77  1  0  0  0
 73144  1  0  0  0
 73145  1  0  0  0
 74 76  1  0  0  0
 74146  1  0  0  0
 75 76  1  0  0  0
 75 78  1  0  0  0
 75147  1  0  0  0
 76148  1  0  0  0
 77149  1  0  0  0
 78150  1  0  0  0
 78151  1  0  0  0
 78152  1  0  0  0
M  CHG  1  78   1
M  ISO  4   1 100  68 101  76 101  77 100
M  END
> <chiral flag>
0

> <version>
0

> <s_m_source_file>
/data/baiqing/PycharmProjects/Reinvent-master-3.2/result/LINK_invent/BTK/process_docking_weight1_custom_sum_contain_oxygen_bond_distance_aromatic_linkinvent_7_9_3/rearranged_h_0101.sdf

> <i_m_source_file_index>
79

> <r_mmod_Potential_Energy-OPLS-2005>
4009.46752929688

> <r_mmod_Stretch_Energy-OPLS-2005>
1945.44250488281

> <r_mmod_Bend_Energy-OPLS-2005>
906.107482910156

> <r_mmod_Torsional_Energy-OPLS-2005>
293.205047607422

> <r_mmod_Improper_Torsional_Energy-OPLS-2005>
4.86672163009644

> <r_mmod_Van_der_Waal_Energy-OPLS-2005>
109.95027923584

> <r_mmod_Electrostatic_Energy-OPLS-2005>
-265.903350830078

> <r_mmod_Solvation_Energy-OPLS-2005>
-523.66015625

> <b_mmod_Minimization_Converged-OPLS-2005>
0

> <r_mmod_RMS_Derivative-OPLS-2005>
2.14965009689331

$$$$
79
                    3D
 Structure written by MMmdl.
158166  0  0  1  0            999 V2000
  -30.5320  -14.9608   20.4048 C   0  0  0  0  0  0
  -30.4323  -12.5948   19.4850 C   0  0  0  0  0  0
  -29.5130  -12.5282   18.2438 C   0  0  0  0  0  0
  -28.0429  -12.3256   18.6620 C   0  0  0  0  0  0
  -27.6232  -13.2518   19.8332 C   0  0  2  0  0  0
  -28.6708  -13.2794   20.9648 C   0  0  0  0  0  0
  -25.2430  -13.8231   20.5718 C   0  0  0  0  0  0
  -24.1756  -13.0427   20.9241 C   0  0  0  0  0  0
  -24.6391  -11.6920   20.8774 C   0  0  0  0  0  0
  -23.9073  -10.4274   21.0405 C   0  0  0  0  0  0
  -24.3625   -9.4191   21.9179 C   0  0  0  0  0  0
  -23.6291   -8.2230   22.0759 C   0  0  0  0  0  0
  -22.4274   -8.0273   21.3532 C   0  0  0  0  0  0
  -21.9910   -9.0250   20.4639 C   0  0  0  0  0  0
  -22.7246  -10.2121   20.3044 C   0  0  0  0  0  0
  -21.6854   -6.0721   22.5266 C   0  0  0  0  0  0
  -21.4013   -6.5631   23.8197 C   0  0  0  0  0  0
  -21.3666   -5.6788   24.9163 C   0  0  0  0  0  0
  -21.6051   -4.3051   24.7218 C   0  0  0  0  0  0
  -21.8819   -3.8138   23.4342 C   0  0  0  0  0  0
  -21.9191   -4.6947   22.3391 C   0  0  0  0  0  0
  -22.7767  -13.5179   21.1896 C   0  0  0  0  0  0
  -22.1657   -4.2136   21.0971 F   0  0  0  0  0  0
  -21.5639   -3.4539   25.7732 F   0  0  0  0  0  0
  -29.9366  -13.7009   20.3522 N   0  0  0  0  0  0
  -26.2844  -12.9464   20.3231 N   0  0  0  0  0  0
  -25.9313  -11.6587   20.5737 N   0  0  0  0  0  0
  -22.0437  -12.8148   22.0464 N   0  0  0  0  0  0
  -25.4085  -15.1954   20.4118 N   0  0  0  0  0  0
  -31.7484  -15.0132   20.1930 O   0  0  0  0  0  0
  -21.6645   -6.8864   21.4226 O   0  0  0  0  0  0
  -22.3423  -14.5476   20.6751 O   0  0  0  0  0  0
  -24.6492  -31.8397   23.1815 C   0  0  0  0  0  0
  -25.9233  -32.4665   23.8233 C   0  0  1  0  0  0
  -27.2070  -27.1022   20.1282 C   0  0  0  0  0  0
  -25.5972  -33.8480   24.2150 N   0  0  0  0  0  0
  -23.4548  -30.4613   21.5281 C   0  0  2  0  0  0
  -24.9000  -28.8830   20.1076 C   0  0  0  0  0  0
  -22.7598  -29.4549   22.4809 C   0  0  0  0  0  0
  -18.0346  -28.1445   22.8457 C   0  0  0  0  0  0
  -24.1508  -36.7232   23.2647 C   0  0  0  0  0  0
  -26.0166  -30.7005   21.3893 C   0  0  0  0  0  0
  -26.0822  -29.3112   20.7259 C   0  0  0  0  0  0
  -27.2373  -28.4354   20.7182 C   0  0  0  0  0  0
  -25.9958  -26.7878   19.4738 C   0  0  0  0  0  0
  -24.8723  -27.6389   19.4666 C   0  0  0  0  0  0
  -23.6808  -29.7890   20.1485 C   0  0  0  0  0  0
  -25.4141  -36.3012   24.0308 C   0  0  1  0  0  0
  -20.5953  -28.3769   23.1222 C   0  0  2  0  0  0
  -20.6823  -26.9467   22.5413 C   0  0  0  0  0  0
  -19.5795  -26.6417   21.5232 C   0  0  0  0  0  0
  -18.1976  -26.7981   22.1627 C   0  0  0  0  0  0
  -19.1604  -28.8931   23.2834 C   0  0  0  0  0  0
  -18.9490  -30.1513   23.8865 C   0  0  0  0  0  0
  -17.6484  -30.6600   24.0571 C   0  0  0  0  0  0
  -25.9097  -34.9390   23.5039 C   0  0  0  0  0  0
  -16.5382  -29.9089   23.6353 C   0  0  0  0  0  0
  -16.7330  -28.6545   23.0319 C   0  0  0  0  0  0
  -26.4544  -31.6539   25.0690 C   0  0  0  0  0  0
  -25.3684  -31.3704   26.1335 C   0  0  0  0  0  0
  -27.0413  -30.2934   24.6309 C   0  0  0  0  0  0
  -27.6092  -32.4309   25.7448 C   0  0  0  0  0  0
  -27.5581  -37.1764   24.8455 C   0  0  0  0  0  0
  -21.4299  -29.3056   22.3541 N   0  0  0  0  0  0
  -26.4297  -37.3730   23.9410 N   0  0  0  0  0  0
  -24.7267  -31.0231   22.0865 N   0  0  0  0  0  0
  -23.4212  -28.8126   23.3011 O   0  0  0  0  0  0
  -28.2512  -26.0960   20.1636 O   0  0  0  0  0  0
  -26.5688  -34.8883   22.4614 O   0  0  0  0  0  0
  -23.5600  -32.1305   23.7004 O   0  0  0  0  0  0
  -28.2717  -18.8816   19.3233 C   0  0  0  0  0  0
  -27.5640  -19.9919   18.8169 C   0  0  0  0  0  0
  -29.3271  -19.0451   20.2362 C   0  0  0  0  0  0
  -29.5614  -20.4914   20.5764 C   0  0  0  0  0  0
  -28.7686  -21.6295   20.0070 C   0  0  0  0  0  0
  -30.9230  -20.0429   22.7665 C   0  0  0  0  0  0
  -29.9948  -23.5507   18.8262 C   0  0  0  0  0  0
  -30.7103  -20.8921   21.5107 C   0  0  0  0  0  0
  -30.1321  -17.6730   20.7192 C   0  0  0  0  0  0
  -27.9609  -24.5491   20.0704 C   0  0  0  0  0  0
  -29.0837  -23.2758   20.0371 C   0  0  1  0  0  0
  -27.7997  -21.2928   19.1280 N   0  0  0  0  0  0
  -29.7540  -16.1523   20.4951 N   0  0  0  0  0  0
  -31.4652  -12.7527   19.1740 H   0  0  0  0  0  0
  -30.4246  -11.6449   20.0222 H   0  0  0  0  0  0
  -29.8260  -11.7210   17.5801 H   0  0  0  0  0  0
  -29.6073  -13.4514   17.6697 H   0  0  0  0  0  0
  -27.9249  -11.2830   18.9580 H   0  0  0  0  0  0
  -27.3819  -12.4762   17.8077 H   0  0  0  0  0  0
  -27.5825  -14.2560   19.4109 H   0  0  0  0  0  0
  -28.7638  -12.2996   21.4396 H   0  0  0  0  0  0
  -28.3734  -13.9760   21.7503 H   0  0  0  0  0  0
  -25.2773   -9.5667   22.4751 H   0  0  0  0  0  0
  -24.0002   -7.4619   22.7478 H   0  0  0  0  0  0
  -21.0848   -8.8757   19.8939 H   0  0  0  0  0  0
  -22.3708  -10.9654   19.6156 H   0  0  0  0  0  0
  -21.2010   -7.6140   23.9687 H   0  0  0  0  0  0
  -21.1494   -6.0526   25.9060 H   0  0  0  0  0  0
  -22.0600   -2.7600   23.2842 H   0  0  0  0  0  0
  -22.4093  -11.9804   22.4815 H   0  0  0  0  0  0
  -21.1053  -13.1133   22.2706 H   0  0  0  0  0  0
  -24.6386  -15.8468   20.5194 H   0  0  0  0  0  0
  -26.2440  -15.6295   20.0444 H   0  0  0  0  0  0
  -26.7283  -32.5239   23.0931 H   0  0  0  0  0  0
  -25.0096  -33.9603   25.0282 H   0  0  0  0  0  0
  -22.7638  -31.2915   21.3684 H   0  0  0  0  0  0
  -23.3778  -35.9554   23.3299 H   0  0  0  0  0  0
  -24.3603  -36.8878   22.2066 H   0  0  0  0  0  0
  -23.7258  -37.6422   23.6691 H   0  0  0  0  0  0
  -26.1942  -31.4572   20.6222 H   0  0  0  0  0  0
  -26.8746  -30.7376   22.0462 H   0  0  0  0  0  0
  -28.1383  -28.7585   21.2229 H   0  0  0  0  0  0
  -25.8702  -25.8478   18.9626 H   0  0  0  0  0  0
  -23.9728  -27.3141   18.9627 H   0  0  0  0  0  0
  -23.8237  -30.5585   19.3892 H   0  0  0  0  0  0
  -22.7940  -29.2338   19.8375 H   0  0  0  0  0  0
  -25.1345  -36.1827   25.0805 H   0  0  0  0  0  0
  -21.0084  -28.3366   24.1333 H   0  0  0  0  0  0
  -20.5799  -26.2369   23.3635 H   0  0  0  0  0  0
  -21.6675  -26.7517   22.1159 H   0  0  0  0  0  0
  -19.6958  -25.6332   21.1267 H   0  0  0  0  0  0
  -19.6720  -27.3214   20.6758 H   0  0  0  0  0  0
  -17.4260  -26.6771   21.4004 H   0  0  0  0  0  0
  -18.0321  -26.0151   22.9055 H   0  0  0  0  0  0
  -19.7958  -30.7363   24.2199 H   0  0  0  0  0  0
  -17.5021  -31.6268   24.5196 H   0  0  0  0  0  0
  -15.5366  -30.2957   23.7701 H   0  0  0  0  0  0
  -15.8751  -28.0850   22.6993 H   0  0  0  0  0  0
  -24.5962  -30.6989   25.7573 H   0  0  0  0  0  0
  -24.8772  -32.2865   26.4642 H   0  0  0  0  0  0
  -25.7941  -30.8941   27.0181 H   0  0  0  0  0  0
  -26.3033  -29.6624   24.1368 H   0  0  0  0  0  0
  -27.4059  -29.7305   25.4911 H   0  0  0  0  0  0
  -27.8921  -30.4168   23.9612 H   0  0  0  0  0  0
  -27.2742  -33.3681   26.1902 H   0  0  0  0  0  0
  -28.3914  -32.6739   25.0240 H   0  0  0  0  0  0
  -28.0721  -31.8502   26.5440 H   0  0  0  0  0  0
  -28.2553  -38.0102   24.7561 H   0  0  0  0  0  0
  -28.1138  -36.2645   24.6231 H   0  0  0  0  0  0
  -27.2313  -37.1320   25.8858 H   0  0  0  0  0  0
  -20.9556  -29.8701   21.6622 H   0  0  0  0  0  0
  -26.0158  -38.2794   24.1441 H   0  0  0  0  0  0
  -28.0097  -17.8913   18.9803 H   0  0  0  0  0  0
  -26.7771  -19.8176   18.0964 H   0  0  0  0  0  0
  -29.9807  -19.7871   23.2516 H   0  0  0  0  0  0
  -31.5118  -20.6067   23.4902 H   0  0  0  0  0  0
  -31.4916  -19.1396   22.5600 H   0  0  0  0  0  0
  -29.4428  -23.4089   17.8956 H   0  0  0  0  0  0
  -30.8483  -22.8715   18.8126 H   0  0  0  0  0  0
  -30.3818  -24.5692   18.8256 H   0  0  0  0  0  0
  -30.5231  -21.8865   21.9028 H   0  0  0  0  0  0
  -31.6370  -20.9672   20.9403 H   0  0  0  0  0  0
  -30.1213  -17.7197   21.8035 H   0  0  0  0  0  0
  -31.1767  -17.7919   20.4299 H   0  0  0  0  0  0
  -27.2764  -24.3279   20.8890 H   0  0  0  0  0  0
  -27.3706  -24.3975   19.1690 H   0  0  0  0  0  0
  -29.6775  -23.4626   20.9251 H   0  0  0  0  0  0
  -28.7629  -15.9827   20.5507 H   0  0  0  0  0  0
  1 25  1  0  0  0
  1 30  2  0  0  0
  1 83  1  0  0  0
  2  3  1  0  0  0
  2 25  1  0  0  0
  2 84  1  0  0  0
  2 85  1  0  0  0
  3  4  1  0  0  0
  3 86  1  0  0  0
  3 87  1  0  0  0
  4  5  1  0  0  0
  4 88  1  0  0  0
  4 89  1  0  0  0
  5  6  1  0  0  0
  5 26  1  0  0  0
  5 90  1  0  0  0
  6 25  1  0  0  0
  6 91  1  0  0  0
  6 92  1  0  0  0
  7  8  2  0  0  0
  7 26  1  0  0  0
  7 29  1  0  0  0
  8  9  1  0  0  0
  8 22  1  0  0  0
  9 10  1  0  0  0
  9 27  2  0  0  0
 10 11  2  0  0  0
 10 15  1  0  0  0
 11 12  1  0  0  0
 11 93  1  0  0  0
 12 13  2  0  0  0
 12 94  1  0  0  0
 13 14  1  0  0  0
 13 31  1  0  0  0
 14 15  2  0  0  0
 14 95  1  0  0  0
 15 96  1  0  0  0
 16 17  2  0  0  0
 16 21  1  0  0  0
 16 31  1  0  0  0
 17 18  1  0  0  0
 17 97  1  0  0  0
 18 19  2  0  0  0
 18 98  1  0  0  0
 19 20  1  0  0  0
 19 24  1  0  0  0
 20 21  2  0  0  0
 20 99  1  0  0  0
 21 23  1  0  0  0
 22 28  1  0  0  0
 22 32  2  0  0  0
 26 27  1  0  0  0
 28100  1  0  0  0
 28101  1  0  0  0
 29102  1  0  0  0
 29103  1  0  0  0
 33 34  1  0  0  0
 33 66  1  0  0  0
 33 70  2  0  0  0
 34 36  1  0  0  0
 34 59  1  0  0  0
 34104  1  0  0  0
 35 44  2  0  0  0
 35 45  1  0  0  0
 35 68  1  0  0  0
 36 56  1  0  0  0
 36105  1  0  0  0
 37 39  1  0  0  0
 37 47  1  0  0  0
 37 66  1  0  0  0
 37106  1  0  0  0
 38 43  2  0  0  0
 38 46  1  0  0  0
 38 47  1  0  0  0
 39 64  1  0  0  0
 39 67  2  0  0  0
 40 52  1  0  0  0
 40 53  2  0  0  0
 40 58  1  0  0  0
 41107  1  0  0  0
 41108  1  0  0  0
 41109  1  0  0  0
 41 48  1  0  0  0
 42 43  1  0  0  0
 42 66  1  0  0  0
 42110  1  0  0  0
 42111  1  0  0  0
 43 44  1  0  0  0
 44112  1  0  0  0
 45 46  2  0  0  0
 45113  1  0  0  0
 46114  1  0  0  0
 47115  1  0  0  0
 47116  1  0  0  0
 48 56  1  0  0  0
 48 65  1  0  0  0
 48117  1  0  0  0
 49 50  1  0  0  0
 49 53  1  0  0  0
 49 64  1  0  0  0
 49118  1  0  0  0
 50 51  1  0  0  0
 50119  1  0  0  0
 50120  1  0  0  0
 51 52  1  0  0  0
 51121  1  0  0  0
 51122  1  0  0  0
 52123  1  0  0  0
 52124  1  0  0  0
 53 54  1  0  0  0
 54 55  2  0  0  0
 54125  1  0  0  0
 55 57  1  0  0  0
 55126  1  0  0  0
 56 69  2  0  0  0
 57 58  2  0  0  0
 57127  1  0  0  0
 58128  1  0  0  0
 59 60  1  0  0  0
 59 61  1  0  0  0
 59 62  1  0  0  0
 60129  1  0  0  0
 60130  1  0  0  0
 60131  1  0  0  0
 61132  1  0  0  0
 61133  1  0  0  0
 61134  1  0  0  0
 62135  1  0  0  0
 62136  1  0  0  0
 62137  1  0  0  0
 63 65  1  0  0  0
 63138  1  0  0  0
 63139  1  0  0  0
 63140  1  0  0  0
 64141  1  0  0  0
 65142  1  0  0  0
 68 80  1  0  0  0
 71 72  2  0  0  0
 71 73  1  0  0  0
 71143  1  0  0  0
 72 82  1  0  0  0
 72144  1  0  0  0
 73 74  2  0  0  0
 73 79  1  0  0  0
 74 75  1  0  0  0
 74 78  1  0  0  0
 75 81  1  0  0  0
 75 82  2  0  0  0
 76 78  1  0  0  0
 76145  1  0  0  0
 76146  1  0  0  0
 76147  1  0  0  0
 77148  1  0  0  0
 77149  1  0  0  0
 77150  1  0  0  0
 77 81  1  0  0  0
 78151  1  0  0  0
 78152  1  0  0  0
 79 83  1  0  0  0
 79153  1  0  0  0
 79154  1  0  0  0
 80 81  1  0  0  0
 80155  1  0  0  0
 80156  1  0  0  0
 81157  1  0  0  0
 83158  1  0  0  0
M  ISO  4   1 100  68 101  80 101  83 100
M  END
> <chiral flag>
0

> <version>
0

> <s_m_source_file>
/data/baiqing/PycharmProjects/Reinvent-master-3.2/result/LINK_invent/BTK/process_docking_weight1_custom_sum_contain_oxygen_bond_distance_aromatic_linkinvent_7_9_3/rearranged_h_0101.sdf

> <i_m_source_file_index>
80

> <r_mmod_Potential_Energy-OPLS-2005>
301.36181640625

> <r_mmod_Stretch_Energy-OPLS-2005>
288.136322021484

> <r_mmod_Bend_Energy-OPLS-2005>
268.330352783203

> <r_mmod_Torsional_Energy-OPLS-2005>
205.494934082031

> <r_mmod_Improper_Torsional_Energy-OPLS-2005>
5.8189001083374

> <r_mmod_Van_der_Waal_Energy-OPLS-2005>
136.763702392578

> <r_mmod_Electrostatic_Energy-OPLS-2005>
-590.64111328125

> <r_mmod_Solvation_Energy-OPLS-2005>
-224.767272949219

> <b_mmod_Minimization_Converged-OPLS-2005>
0

> <r_mmod_RMS_Derivative-OPLS-2005>
3.47118234634399

$$$$
80
                    3D
 Structure written by MMmdl.
161169  0  0  1  0            999 V2000
  -30.5219  -14.9745   20.4098 C   0  0  0  0  0  0
  -30.4429  -12.6016   19.5068 C   0  0  0  0  0  0
  -29.5249  -12.5335   18.2631 C   0  0  0  0  0  0
  -28.0582  -12.3155   18.6795 C   0  0  0  0  0  0
  -27.6305  -13.2494   19.8415 C   0  0  2  0  0  0
  -28.6717  -13.2822   20.9812 C   0  0  0  0  0  0
  -25.2463  -13.8216   20.5717 C   0  0  0  0  0  0
  -24.1780  -13.0438   20.9230 C   0  0  0  0  0  0
  -24.6397  -11.6925   20.8756 C   0  0  0  0  0  0
  -23.9081  -10.4294   21.0408 C   0  0  0  0  0  0
  -24.3628   -9.4206   21.9185 C   0  0  0  0  0  0
  -23.6300   -8.2243   22.0754 C   0  0  0  0  0  0
  -22.4281   -8.0282   21.3544 C   0  0  0  0  0  0
  -21.9920   -9.0257   20.4646 C   0  0  0  0  0  0
  -22.7252  -10.2135   20.3057 C   0  0  0  0  0  0
  -21.6855   -6.0738   22.5278 C   0  0  0  0  0  0
  -21.4016   -6.5642   23.8212 C   0  0  0  0  0  0
  -21.3659   -5.6794   24.9174 C   0  0  0  0  0  0
  -21.6044   -4.3057   24.7224 C   0  0  0  0  0  0
  -21.8819   -3.8149   23.4345 C   0  0  0  0  0  0
  -21.9193   -4.6966   22.3402 C   0  0  0  0  0  0
  -22.7800  -13.5208   21.1884 C   0  0  0  0  0  0
  -22.1662   -4.2152   21.0979 F   0  0  0  0  0  0
  -21.5627   -3.4540   25.7737 F   0  0  0  0  0  0
  -29.9471  -13.7016   20.3860 N   0  0  0  0  0  0
  -26.2890  -12.9450   20.3258 N   0  0  0  0  0  0
  -25.9331  -11.6578   20.5746 N   0  0  0  0  0  0
  -22.0452  -12.8193   22.0438 N   0  0  0  0  0  0
  -25.4119  -15.1945   20.4134 N   0  0  0  0  0  0
  -31.7185  -15.0525   20.1114 O   0  0  0  0  0  0
  -21.6642   -6.8882   21.4241 O   0  0  0  0  0  0
  -22.3480  -14.5510   20.6727 O   0  0  0  0  0  0
  -24.6456  -31.8411   23.1857 C   0  0  0  0  0  0
  -25.9217  -32.4678   23.8256 C   0  0  1  0  0  0
  -27.2185  -27.1106   20.1560 C   0  0  0  0  0  0
  -25.5955  -33.8486   24.2170 N   0  0  0  0  0  0
  -23.4506  -30.4588   21.5318 C   0  0  2  0  0  0
  -24.9011  -28.8801   20.1087 C   0  0  0  0  0  0
  -22.7577  -29.4528   22.4853 C   0  0  0  0  0  0
  -18.0305  -28.1392   22.8474 C   0  0  0  0  0  0
  -24.1491  -36.7248   23.2642 C   0  0  0  0  0  0
  -26.0078  -30.7058   21.3888 C   0  0  0  0  0  0
  -26.0784  -29.3146   20.7306 C   0  0  0  0  0  0
  -27.2363  -28.4461   20.7365 C   0  0  0  0  0  0
  -26.0170  -26.7848   19.4892 C   0  0  0  0  0  0
  -24.8848  -27.6298   19.4717 C   0  0  0  0  0  0
  -23.6784  -29.7852   20.1519 C   0  0  0  0  0  0
  -25.4124  -36.3022   24.0312 C   0  0  1  0  0  0
  -20.5918  -28.3722   23.1229 C   0  0  2  0  0  0
  -20.6788  -26.9423   22.5403 C   0  0  0  0  0  0
  -19.5763  -26.6377   21.5210 C   0  0  0  0  0  0
  -18.1943  -26.7929   22.1621 C   0  0  0  0  0  0
  -19.1562  -28.8876   23.2840 C   0  0  0  0  0  0
  -18.9480  -30.1472   23.8866 C   0  0  0  0  0  0
  -17.6476  -30.6589   24.0557 C   0  0  0  0  0  0
  -25.9078  -34.9398   23.5052 C   0  0  0  0  0  0
  -16.5367  -29.9081   23.6336 C   0  0  0  0  0  0
  -16.7290  -28.6499   23.0357 C   0  0  0  0  0  0
  -26.4532  -31.6559   25.0711 C   0  0  0  0  0  0
  -25.3709  -31.3755   26.1400 C   0  0  0  0  0  0
  -27.0407  -30.2951   24.6318 C   0  0  0  0  0  0
  -27.6052  -32.4338   25.7501 C   0  0  0  0  0  0
  -27.5574  -37.1779   24.8466 C   0  0  0  0  0  0
  -21.4267  -29.3043   22.3600 N   0  0  0  0  0  0
  -26.4285  -37.3738   23.9408 N   0  0  0  0  0  0
  -24.7213  -31.0240   22.0904 N   0  0  0  0  0  0
  -23.4206  -28.8081   23.3019 O   0  0  0  0  0  0
  -28.2648  -26.1121   20.2439 O   0  0  0  0  0  0
  -26.5671  -34.8902   22.4636 O   0  0  0  0  0  0
  -23.5568  -32.1305   23.7058 O   0  0  0  0  0  0
  -29.0791  -18.2535   22.5283 C   0  0  0  0  0  0
  -28.2893  -20.8433   22.3959 C   0  0  0  0  0  0
  -29.2640  -18.8625   21.2624 C   0  0  0  0  0  0
  -28.8803  -20.3471   21.2080 C   0  0  0  0  0  0
  -28.5269  -18.9206   23.6237 C   0  0  0  0  0  0
  -26.8664  -18.0702   25.3416 C   0  0  0  0  0  0
  -29.1718  -18.8849   26.0765 C   0  0  0  0  0  0
  -28.8659  -21.5867   20.1153 C   0  0  0  0  0  0
  -29.8706  -17.7060   20.2637 C   0  0  0  0  0  0
  -28.9842  -23.2613   20.5102 C   0  0  0  0  0  0
  -28.0233  -24.5765   20.0155 C   0  0  0  0  0  0
  -28.3491  -18.2147   24.9647 C   0  0  0  0  0  0
  -28.1161  -20.1891   23.5515 N   0  0  0  0  0  0
  -29.7159  -16.1411   20.5561 N   0  0  0  0  0  0
  -31.4760  -12.7634   19.1953 H   0  0  0  0  0  0
  -30.4410  -11.6514   20.0432 H   0  0  0  0  0  0
  -29.8481  -11.7334   17.5957 H   0  0  0  0  0  0
  -29.6099  -13.4609   17.6944 H   0  0  0  0  0  0
  -27.9572  -11.2748   18.9897 H   0  0  0  0  0  0
  -27.3953  -12.4437   17.8229 H   0  0  0  0  0  0
  -27.5923  -14.2503   19.4108 H   0  0  0  0  0  0
  -28.7621  -12.3065   21.4610 H   0  0  0  0  0  0
  -28.3665  -13.9824   21.7606 H   0  0  0  0  0  0
  -25.2770   -9.5682   22.4763 H   0  0  0  0  0  0
  -24.0007   -7.4634   22.7474 H   0  0  0  0  0  0
  -21.0851   -8.8779   19.8951 H   0  0  0  0  0  0
  -22.3710  -10.9676   19.6169 H   0  0  0  0  0  0
  -21.2010   -7.6150   23.9717 H   0  0  0  0  0  0
  -21.1480   -6.0523   25.9077 H   0  0  0  0  0  0
  -22.0598   -2.7612   23.2845 H   0  0  0  0  0  0
  -22.4082  -11.9860   22.4826 H   0  0  0  0  0  0
  -21.1066  -13.1205   22.2644 H   0  0  0  0  0  0
  -24.6396  -15.8425   20.5230 H   0  0  0  0  0  0
  -26.2490  -15.6367   20.0577 H   0  0  0  0  0  0
  -26.7281  -32.5277   23.0980 H   0  0  0  0  0  0
  -25.0077  -33.9596   25.0300 H   0  0  0  0  0  0
  -22.7545  -31.2854   21.3748 H   0  0  0  0  0  0
  -23.3760  -35.9573   23.3292 H   0  0  0  0  0  0
  -24.3573  -36.8899   22.2059 H   0  0  0  0  0  0
  -23.7242  -37.6436   23.6696 H   0  0  0  0  0  0
  -26.1668  -31.4583   20.6152 H   0  0  0  0  0  0
  -26.8767  -30.7563   22.0333 H   0  0  0  0  0  0
  -28.1310  -28.7721   21.2481 H   0  0  0  0  0  0
  -25.9206  -25.8290   18.9959 H   0  0  0  0  0  0
  -23.9869  -27.2932   18.9715 H   0  0  0  0  0  0
  -23.8162  -30.5589   19.3957 H   0  0  0  0  0  0
  -22.7926  -29.2281   19.8416 H   0  0  0  0  0  0
  -25.1313  -36.1844   25.0803 H   0  0  0  0  0  0
  -21.0006  -28.3316   24.1351 H   0  0  0  0  0  0
  -20.5677  -26.2337   23.3625 H   0  0  0  0  0  0
  -21.6654  -26.7422   22.1204 H   0  0  0  0  0  0
  -19.6927  -25.6281   21.1258 H   0  0  0  0  0  0
  -19.6700  -27.3172   20.6728 H   0  0  0  0  0  0
  -17.4213  -26.6672   21.4025 H   0  0  0  0  0  0
  -18.0343  -26.0073   22.9020 H   0  0  0  0  0  0
  -19.7957  -30.7294   24.2222 H   0  0  0  0  0  0
  -17.5030  -31.6267   24.5165 H   0  0  0  0  0  0
  -15.5366  -30.2974   23.7678 H   0  0  0  0  0  0
  -15.8689  -28.0809   22.7090 H   0  0  0  0  0  0
  -24.5896  -30.7095   25.7720 H   0  0  0  0  0  0
  -24.8888  -32.2938   26.4763 H   0  0  0  0  0  0
  -25.7980  -30.8969   27.0221 H   0  0  0  0  0  0
  -26.3035  -29.6662   24.1315 H   0  0  0  0  0  0
  -27.4000  -29.7263   25.4905 H   0  0  0  0  0  0
  -27.8950  -30.4181   23.9656 H   0  0  0  0  0  0
  -27.2638  -33.3665   26.2005 H   0  0  0  0  0  0
  -28.3900  -32.6861   25.0356 H   0  0  0  0  0  0
  -28.0682  -31.8516   26.5478 H   0  0  0  0  0  0
  -28.2580  -38.0085   24.7512 H   0  0  0  0  0  0
  -28.1081  -36.2614   24.6294 H   0  0  0  0  0  0
  -27.2291  -37.1426   25.8868 H   0  0  0  0  0  0
  -20.9487  -29.8753   21.6769 H   0  0  0  0  0  0
  -26.0149  -38.2805   24.1413 H   0  0  0  0  0  0
  -29.3734  -17.2287   22.6956 H   0  0  0  0  0  0
  -27.8925  -21.8442   22.4387 H   0  0  0  0  0  0
  -26.3192  -17.5354   24.5648 H   0  0  0  0  0  0
  -26.3928  -19.0436   25.4717 H   0  0  0  0  0  0
  -26.7486  -17.5149   26.2719 H   0  0  0  0  0  0
  -30.2285  -18.9198   25.8102 H   0  0  0  0  0  0
  -29.0846  -18.3385   27.0156 H   0  0  0  0  0  0
  -28.8404  -19.9083   26.2544 H   0  0  0  0  0  0
  -27.9343  -21.4667   19.5611 H   0  0  0  0  0  0
  -29.6424  -21.3636   19.3831 H   0  0  0  0  0  0
  -30.9369  -17.9091   20.1570 H   0  0  0  0  0  0
  -29.4452  -17.8874   19.2765 H   0  0  0  0  0  0
  -29.9894  -23.5314   20.1863 H   0  0  0  0  0  0
  -29.0693  -23.3573   21.5906 H   0  0  0  0  0  0
  -27.0340  -24.3701   20.4248 H   0  0  0  0  0  0
  -27.9058  -24.4703   18.9368 H   0  0  0  0  0  0
  -28.7420  -17.2027   24.8563 H   0  0  0  0  0  0
  -28.7687  -15.9093   20.8108 H   0  0  0  0  0  0
  1 25  1  0  0  0
  1 30  2  0  0  0
  1 84  1  0  0  0
  2  3  1  0  0  0
  2 25  1  0  0  0
  2 85  1  0  0  0
  2 86  1  0  0  0
  3  4  1  0  0  0
  3 87  1  0  0  0
  3 88  1  0  0  0
  4  5  1  0  0  0
  4 89  1  0  0  0
  4 90  1  0  0  0
  5  6  1  0  0  0
  5 26  1  0  0  0
  5 91  1  0  0  0
  6 25  1  0  0  0
  6 92  1  0  0  0
  6 93  1  0  0  0
  7  8  2  0  0  0
  7 26  1  0  0  0
  7 29  1  0  0  0
  8  9  1  0  0  0
  8 22  1  0  0  0
  9 10  1  0  0  0
  9 27  2  0  0  0
 10 11  2  0  0  0
 10 15  1  0  0  0
 11 12  1  0  0  0
 11 94  1  0  0  0
 12 13  2  0  0  0
 12 95  1  0  0  0
 13 14  1  0  0  0
 13 31  1  0  0  0
 14 15  2  0  0  0
 14 96  1  0  0  0
 15 97  1  0  0  0
 16 17  2  0  0  0
 16 21  1  0  0  0
 16 31  1  0  0  0
 17 18  1  0  0  0
 17 98  1  0  0  0
 18 19  2  0  0  0
 18 99  1  0  0  0
 19 20  1  0  0  0
 19 24  1  0  0  0
 20 21  2  0  0  0
 20100  1  0  0  0
 21 23  1  0  0  0
 22 28  1  0  0  0
 22 32  2  0  0  0
 26 27  1  0  0  0
 28101  1  0  0  0
 28102  1  0  0  0
 29103  1  0  0  0
 29104  1  0  0  0
 33 34  1  0  0  0
 33 66  1  0  0  0
 33 70  2  0  0  0
 34 36  1  0  0  0
 34 59  1  0  0  0
 34105  1  0  0  0
 35 44  2  0  0  0
 35 45  1  0  0  0
 35 68  1  0  0  0
 36 56  1  0  0  0
 36106  1  0  0  0
 37 39  1  0  0  0
 37 47  1  0  0  0
 37 66  1  0  0  0
 37107  1  0  0  0
 38 43  2  0  0  0
 38 46  1  0  0  0
 38 47  1  0  0  0
 39 64  1  0  0  0
 39 67  2  0  0  0
 40 52  1  0  0  0
 40 53  2  0  0  0
 40 58  1  0  0  0
 41108  1  0  0  0
 41109  1  0  0  0
 41110  1  0  0  0
 41 48  1  0  0  0
 42 43  1  0  0  0
 42 66  1  0  0  0
 42111  1  0  0  0
 42112  1  0  0  0
 43 44  1  0  0  0
 44113  1  0  0  0
 45 46  2  0  0  0
 45114  1  0  0  0
 46115  1  0  0  0
 47116  1  0  0  0
 47117  1  0  0  0
 48 56  1  0  0  0
 48 65  1  0  0  0
 48118  1  0  0  0
 49 50  1  0  0  0
 49 53  1  0  0  0
 49 64  1  0  0  0
 49119  1  0  0  0
 50 51  1  0  0  0
 50120  1  0  0  0
 50121  1  0  0  0
 51 52  1  0  0  0
 51122  1  0  0  0
 51123  1  0  0  0
 52124  1  0  0  0
 52125  1  0  0  0
 53 54  1  0  0  0
 54 55  2  0  0  0
 54126  1  0  0  0
 55 57  1  0  0  0
 55127  1  0  0  0
 56 69  2  0  0  0
 57 58  2  0  0  0
 57128  1  0  0  0
 58129  1  0  0  0
 59 60  1  0  0  0
 59 61  1  0  0  0
 59 62  1  0  0  0
 60130  1  0  0  0
 60131  1  0  0  0
 60132  1  0  0  0
 61133  1  0  0  0
 61134  1  0  0  0
 61135  1  0  0  0
 62136  1  0  0  0
 62137  1  0  0  0
 62138  1  0  0  0
 63 65  1  0  0  0
 63139  1  0  0  0
 63140  1  0  0  0
 63141  1  0  0  0
 64142  1  0  0  0
 65143  1  0  0  0
 68 81  1  0  0  0
 71 73  2  0  0  0
 71 75  1  0  0  0
 71144  1  0  0  0
 72 74  2  0  0  0
 72 83  1  0  0  0
 72145  1  0  0  0
 73 74  1  0  0  0
 73 79  1  0  0  0
 74 78  1  0  0  0
 75 82  1  0  0  0
 75 83  2  0  0  0
 76146  1  0  0  0
 76147  1  0  0  0
 76148  1  0  0  0
 76 82  1  0  0  0
 77 82  1  0  0  0
 77149  1  0  0  0
 77150  1  0  0  0
 77151  1  0  0  0
 78 80  1  0  0  0
 78152  1  0  0  0
 78153  1  0  0  0
 79 84  1  0  0  0
 79154  1  0  0  0
 79155  1  0  0  0
 80 81  1  0  0  0
 80156  1  0  0  0
 80157  1  0  0  0
 81158  1  0  0  0
 81159  1  0  0  0
 82160  1  0  0  0
 84161  1  0  0  0
M  ISO  4   1 100  68 101  81 101  84 100
M  END
> <chiral flag>
0

> <version>
0

> <s_m_source_file>
/data/baiqing/PycharmProjects/Reinvent-master-3.2/result/LINK_invent/BTK/process_docking_weight1_custom_sum_contain_oxygen_bond_distance_aromatic_linkinvent_7_9_3/rearranged_h_0101.sdf

> <i_m_source_file_index>
81

> <r_mmod_Potential_Energy-OPLS-2005>
365.645233154297

> <r_mmod_Stretch_Energy-OPLS-2005>
313.728942871094

> <r_mmod_Bend_Energy-OPLS-2005>
332.434265136719

> <r_mmod_Torsional_Energy-OPLS-2005>
200.753036499023

> <r_mmod_Improper_Torsional_Energy-OPLS-2005>
5.05226135253906

> <r_mmod_Van_der_Waal_Energy-OPLS-2005>
141.529495239258

> <r_mmod_Electrostatic_Energy-OPLS-2005>
-618.236511230469

> <r_mmod_Solvation_Energy-OPLS-2005>
-224.003860473633

> <b_mmod_Minimization_Converged-OPLS-2005>
0

> <r_mmod_RMS_Derivative-OPLS-2005>
0.287373512983322

$$$$
81
                    3D
 Structure written by MMmdl.
183191  0  0  1  0            999 V2000
  -30.0390  -15.0506   20.5675 C   0  0  0  0  0  0
  -30.4183  -12.6916   19.5735 C   0  0  0  0  0  0
  -29.5276  -12.5636   18.3045 C   0  0  0  0  0  0
  -28.0577  -12.2785   18.6805 C   0  0  0  0  0  0
  -27.5882  -13.1858   19.8435 C   0  0  2  0  0  0
  -28.5642  -13.1062   21.0243 C   0  0  0  0  0  0
  -25.2259  -13.8027   20.5576 C   0  0  0  0  0  0
  -24.1582  -13.0324   20.9232 C   0  0  0  0  0  0
  -24.6148  -11.6803   20.8749 C   0  0  0  0  0  0
  -23.8890  -10.4210   21.0443 C   0  0  0  0  0  0
  -24.3522   -9.4146   21.9193 C   0  0  0  0  0  0
  -23.6231   -8.2168   22.0752 C   0  0  0  0  0  0
  -22.4209   -8.0215   21.3547 C   0  0  0  0  0  0
  -21.9816   -9.0160   20.4633 C   0  0  0  0  0  0
  -22.7103  -10.2054   20.3052 C   0  0  0  0  0  0
  -21.6818   -6.0696   22.5295 C   0  0  0  0  0  0
  -21.3979   -6.5607   23.8227 C   0  0  0  0  0  0
  -21.3659   -5.6768   24.9194 C   0  0  0  0  0  0
  -21.6056   -4.3034   24.7245 C   0  0  0  0  0  0
  -21.8818   -3.8119   23.4366 C   0  0  0  0  0  0
  -21.9179   -4.6929   22.3419 C   0  0  0  0  0  0
  -22.7665  -13.5190   21.1945 C   0  0  0  0  0  0
  -22.1652   -4.2120   21.0995 F   0  0  0  0  0  0
  -21.5649   -3.4522   25.7761 F   0  0  0  0  0  0
  -29.7915  -13.6792   20.5166 N   0  0  0  0  0  0
  -26.2478  -12.9086   20.2960 N   0  0  0  0  0  0
  -25.8984  -11.6304   20.5580 N   0  0  0  0  0  0
  -22.0308  -12.8187   22.0513 N   0  0  0  0  0  0
  -25.4027  -15.1726   20.4009 N   0  0  0  0  0  0
  -31.1785  -15.3664   20.1587 O   0  0  0  0  0  0
  -21.6585   -6.8818   21.4250 O   0  0  0  0  0  0
  -22.3400  -14.5511   20.6809 O   0  0  0  0  0  0
  -24.6651  -31.9424   23.2108 C   0  0  0  0  0  0
  -25.9513  -32.5082   23.8568 C   0  0  1  0  0  0
  -26.9927  -27.3619   20.0521 C   0  0  0  0  0  0
  -25.6406  -33.8841   24.2575 N   0  0  0  0  0  0
  -23.4617  -30.6257   21.5491 C   0  0  2  0  0  0
  -24.8300  -29.0850   20.0620 C   0  0  0  0  0  0
  -22.9135  -29.6443   22.5723 C   0  0  0  0  0  0
  -18.0762  -27.8053   22.8012 C   0  0  0  0  0  0
  -24.1514  -36.7358   23.2595 C   0  0  0  0  0  0
  -25.9963  -30.8309   21.4051 C   0  0  0  0  0  0
  -26.0001  -29.4741   20.7263 C   0  0  0  0  0  0
  -27.0999  -28.5784   20.7755 C   0  0  0  0  0  0
  -25.9674  -27.2009   19.1140 C   0  0  0  0  0  0
  -24.8089  -27.9538   19.2504 C   0  0  0  0  0  0
  -23.6205  -29.9602   20.1654 C   0  0  0  0  0  0
  -25.4123  -36.3220   24.0337 C   0  0  1  0  0  0
  -21.0462  -28.4420   23.3648 C   0  0  2  0  0  0
  -21.9940  -26.9166   22.7238 C   0  0  0  0  0  0
  -19.6912  -25.1005   21.4671 C   0  0  0  0  0  0
  -18.0589  -26.1718   21.9297 C   0  0  0  0  0  0
  -19.2824  -28.6899   23.3420 C   0  0  0  0  0  0
  -18.9687  -29.9659   23.8914 C   0  0  0  0  0  0
  -17.6660  -30.4788   23.9880 C   0  0  0  0  0  0
  -25.9160  -34.9626   23.5154 C   0  0  0  0  0  0
  -16.5892  -29.7058   23.5398 C   0  0  0  0  0  0
  -16.7988  -28.4220   22.9712 C   0  0  0  0  0  0
  -26.4577  -31.6652   25.0890 C   0  0  0  0  0  0
  -25.3680  -31.3762   26.1476 C   0  0  0  0  0  0
  -27.0352  -30.3051   24.6327 C   0  0  0  0  0  0
  -27.6126  -32.4235   25.7824 C   0  0  0  0  0  0
  -27.5621  -37.1846   24.8436 C   0  0  0  0  0  0
  -21.6073  -29.5003   22.6002 N   0  0  0  0  0  0
  -26.4282  -37.3917   23.9471 N   0  0  0  0  0  0
  -24.7269  -31.1833   22.0804 N   0  0  0  0  0  0
  -23.6601  -29.0359   23.3471 O   0  0  0  0  0  0
  -27.5890  -26.1881   20.4086 O   0  0  0  0  0  0
  -26.5523  -34.9010   22.4597 O   0  0  0  0  0  0
  -23.5830  -32.2310   23.7488 O   0  0  0  0  0  0
  -20.0152  -26.2269   23.3076 C   0  0  0  0  0  0
  -21.3847  -26.4783   20.4786 C   0  0  0  0  0  0
  -20.2307  -27.2173   21.4190 C   0  0  0  0  0  0
  -21.0149  -24.8756   23.4643 C   0  0  0  0  0  0
  -22.2513  -25.2018   20.9814 C   0  0  0  0  0  0
  -22.0605  -24.3601   22.3056 C   0  0  0  0  0  0
  -21.0961  -24.2384   24.8354 C   0  0  0  0  0  0
  -19.7399  -29.6863   20.3148 C   0  0  0  0  0  0
  -28.0062  -18.7746   22.9009 C   0  0  0  0  0  0
  -28.9548  -18.2168   19.6580 C   0  0  0  0  0  0
  -19.4174  -28.1912   20.4497 C   0  0  0  0  0  0
  -23.6836  -24.9870   20.3149 C   0  0  0  0  0  0
  -22.8470  -22.7952   22.2899 C   0  0  0  0  0  0
  -25.0421  -25.3257   21.1540 C   0  0  0  0  0  0
  -24.4600  -22.0509   22.4932 C   0  0  0  0  0  0
  -25.7370  -19.4602   21.4517 C   0  0  0  0  0  0
  -26.5410  -25.0855   20.5228 C   0  0  0  0  0  0
  -27.1571  -18.3839   21.6856 C   0  0  1  0  0  0
  -28.1337  -17.3524   20.6218 C   0  0  2  0  0  0
  -28.9249  -15.9399   20.9611 N   0  0  0  0  0  0
  -25.4258  -21.0781   21.5601 N   0  3  0  0  0  0
  -31.4276  -12.9980   19.2962 H   0  0  0  0  0  0
  -30.5283  -11.7223   20.0646 H   0  0  0  0  0  0
  -29.9109  -11.7838   17.6451 H   0  0  0  0  0  0
  -29.5755  -13.4931   17.7372 H   0  0  0  0  0  0
  -27.9873  -11.2337   18.9870 H   0  0  0  0  0  0
  -27.4082  -12.3868   17.8114 H   0  0  0  0  0  0
  -27.5713  -14.1944   19.4329 H   0  0  0  0  0  0
  -28.7036  -12.0752   21.3543 H   0  0  0  0  0  0
  -28.1919  -13.6482   21.8953 H   0  0  0  0  0  0
  -25.2683   -9.5636   22.4740 H   0  0  0  0  0  0
  -23.9961   -7.4547   22.7449 H   0  0  0  0  0  0
  -21.0758   -8.8640   19.8924 H   0  0  0  0  0  0
  -22.3564  -10.9582   19.6145 H   0  0  0  0  0  0
  -21.1937   -7.6109   23.9728 H   0  0  0  0  0  0
  -21.1499   -6.0492   25.9104 H   0  0  0  0  0  0
  -22.0599   -2.7579   23.2871 H   0  0  0  0  0  0
  -22.3903  -11.9821   22.4868 H   0  0  0  0  0  0
  -21.0936  -13.1228   22.2740 H   0  0  0  0  0  0
  -24.6161  -15.8098   20.4642 H   0  0  0  0  0  0
  -26.2049  -15.5743   19.9357 H   0  0  0  0  0  0
  -26.7658  -32.5641   23.1382 H   0  0  0  0  0  0
  -25.0717  -33.9965   25.0837 H   0  0  0  0  0  0
  -22.7368  -31.4350   21.4399 H   0  0  0  0  0  0
  -23.3839  -35.9623   23.3183 H   0  0  0  0  0  0
  -24.3663  -36.9041   22.2033 H   0  0  0  0  0  0
  -23.7172  -37.6507   23.6632 H   0  0  0  0  0  0
  -26.2097  -31.5942   20.6554 H   0  0  0  0  0  0
  -26.8496  -30.8080   22.0702 H   0  0  0  0  0  0
  -27.9161  -28.7532   21.4616 H   0  0  0  0  0  0
  -25.9506  -26.3687   18.4228 H   0  0  0  0  0  0
  -23.9242  -27.6998   18.6843 H   0  0  0  0  0  0
  -23.7042  -30.7344   19.4012 H   0  0  0  0  0  0
  -22.7494  -29.3658   19.9093 H   0  0  0  0  0  0
  -25.1261  -36.2078   25.0823 H   0  0  0  0  0  0
  -21.3350  -28.5824   24.4106 H   0  0  0  0  0  0
  -22.5627  -26.5799   23.5990 H   0  0  0  0  0  0
  -22.8596  -27.1894   22.1103 H   0  0  0  0  0  0
  -19.5053  -24.0946   21.8638 H   0  0  0  0  0  0
  -19.6687  -24.8816   20.3886 H   0  0  0  0  0  0
  -17.4128  -26.2313   21.0539 H   0  0  0  0  0  0
  -17.4704  -25.5366   22.5960 H   0  0  0  0  0  0
  -19.7794  -30.5836   24.2510 H   0  0  0  0  0  0
  -17.4969  -31.4594   24.4150 H   0  0  0  0  0  0
  -15.5837  -30.0980   23.6172 H   0  0  0  0  0  0
  -15.9271  -27.8822   22.6262 H   0  0  0  0  0  0
  -24.5798  -30.7282   25.7610 H   0  0  0  0  0  0
  -24.8970  -32.2939   26.5019 H   0  0  0  0  0  0
  -25.7864  -30.8724   27.0205 H   0  0  0  0  0  0
  -26.2967  -29.6956   24.1110 H   0  0  0  0  0  0
  -27.3758  -29.7158   25.4853 H   0  0  0  0  0  0
  -27.8998  -30.4296   23.9802 H   0  0  0  0  0  0
  -27.2749  -33.3469   26.2541 H   0  0  0  0  0  0
  -28.3990  -32.6881   25.0747 H   0  0  0  0  0  0
  -28.0729  -31.8226   26.5679 H   0  0  0  0  0  0
  -28.2497  -38.0280   24.7735 H   0  0  0  0  0  0
  -28.1268  -36.2853   24.5951 H   0  0  0  0  0  0
  -27.2397  -37.1107   25.8831 H   0  0  0  0  0  0
  -21.0183  -29.9682   21.9283 H   0  0  0  0  0  0
  -26.0170  -38.2954   24.1636 H   0  0  0  0  0  0
  -19.3620  -26.4114   24.1600 H   0  0  0  0  0  0
  -21.6073  -26.9107   19.5152 H   0  0  0  0  0  0
  -20.7824  -24.9607   25.5899 H   0  0  0  0  0  0
  -22.1360  -23.9910   25.0621 H   0  0  0  0  0  0
  -20.4815  -23.3443   24.9180 H   0  0  0  0  0  0
  -19.0602  -30.1190   19.5806 H   0  0  0  0  0  0
  -20.7383  -29.8601   19.9319 H   0  0  0  0  0  0
  -19.5826  -30.2558   21.2261 H   0  0  0  0  0  0
  -27.3802  -19.0602   23.7464 H   0  0  0  0  0  0
  -28.6942  -19.5902   22.6832 H   0  0  0  0  0  0
  -28.6062  -17.9203   23.2220 H   0  0  0  0  0  0
  -28.3281  -18.9988   19.2236 H   0  0  0  0  0  0
  -29.3269  -17.6197   18.8236 H   0  0  0  0  0  0
  -29.8027  -18.6974   20.1432 H   0  0  0  0  0  0
  -18.3350  -28.1038   20.4554 H   0  0  0  0  0  0
  -19.5979  -27.7955   19.4515 H   0  0  0  0  0  0
  -23.6954  -25.5902   19.4161 H   0  0  0  0  0  0
  -23.7407  -23.9557   19.9651 H   0  0  0  0  0  0
  -22.3407  -22.2290   21.5128 H   0  0  0  0  0  0
  -22.3790  -22.4041   23.1916 H   0  0  0  0  0  0
  -25.0034  -24.7199   22.0415 H   0  0  0  0  0  0
  -24.9660  -26.3125   21.6136 H   0  0  0  0  0  0
  -24.4372  -21.5687   23.4668 H   0  0  0  0  0  0
  -25.1311  -22.8647   22.7339 H   0  0  0  0  0  0
  -24.8950  -18.9848   21.9562 H   0  0  0  0  0  0
  -25.5253  -19.3014   20.3950 H   0  0  0  0  0  0
  -26.3924  -24.6237   19.5420 H   0  0  0  0  0  0
  -27.0135  -24.2664   21.0663 H   0  0  0  0  0  0
  -26.5815  -17.5535   22.1004 H   0  0  0  0  0  0
  -27.3618  -16.9553   19.9635 H   0  0  0  0  0  0
  -28.2718  -15.3418   21.4476 H   0  0  0  0  0  0
  -26.3451  -21.4871   21.6422 H   0  0  0  0  0  0
  -25.1384  -21.3154   20.6244 H   0  0  0  0  0  0
  1 25  1  0  0  0
  1 30  2  0  0  0
  1 90  1  0  0  0
  2  3  1  0  0  0
  2 25  1  0  0  0
  2 92  1  0  0  0
  2 93  1  0  0  0
  3  4  1  0  0  0
  3 94  1  0  0  0
  3 95  1  0  0  0
  4  5  1  0  0  0
  4 96  1  0  0  0
  4 97  1  0  0  0
  5  6  1  0  0  0
  5 26  1  0  0  0
  5 98  1  0  0  0
  6 25  1  0  0  0
  6 99  1  0  0  0
  6100  1  0  0  0
  7  8  2  0  0  0
  7 26  1  0  0  0
  7 29  1  0  0  0
  8  9  1  0  0  0
  8 22  1  0  0  0
  9 10  1  0  0  0
  9 27  2  0  0  0
 10 11  2  0  0  0
 10 15  1  0  0  0
 11 12  1  0  0  0
 11101  1  0  0  0
 12 13  2  0  0  0
 12102  1  0  0  0
 13 14  1  0  0  0
 13 31  1  0  0  0
 14 15  2  0  0  0
 14103  1  0  0  0
 15104  1  0  0  0
 16 17  2  0  0  0
 16 21  1  0  0  0
 16 31  1  0  0  0
 17 18  1  0  0  0
 17105  1  0  0  0
 18 19  2  0  0  0
 18106  1  0  0  0
 19 20  1  0  0  0
 19 24  1  0  0  0
 20 21  2  0  0  0
 20107  1  0  0  0
 21 23  1  0  0  0
 22 28  1  0  0  0
 22 32  2  0  0  0
 26 27  1  0  0  0
 28108  1  0  0  0
 28109  1  0  0  0
 29110  1  0  0  0
 29111  1  0  0  0
 33 34  1  0  0  0
 33 66  1  0  0  0
 33 70  2  0  0  0
 34 36  1  0  0  0
 34 59  1  0  0  0
 34112  1  0  0  0
 35 44  2  0  0  0
 35 45  1  0  0  0
 35 68  1  0  0  0
 36 56  1  0  0  0
 36113  1  0  0  0
 37 39  1  0  0  0
 37 47  1  0  0  0
 37 66  1  0  0  0
 37114  1  0  0  0
 38 43  2  0  0  0
 38 46  1  0  0  0
 38 47  1  0  0  0
 39 64  1  0  0  0
 39 67  2  0  0  0
 40 52  1  0  0  0
 40 53  2  0  0  0
 40 58  1  0  0  0
 41115  1  0  0  0
 41116  1  0  0  0
 41117  1  0  0  0
 41 48  1  0  0  0
 42 43  1  0  0  0
 42 66  1  0  0  0
 42118  1  0  0  0
 42119  1  0  0  0
 43 44  1  0  0  0
 44120  1  0  0  0
 45 46  2  0  0  0
 45121  1  0  0  0
 46122  1  0  0  0
 47123  1  0  0  0
 47124  1  0  0  0
 48 56  1  0  0  0
 48 65  1  0  0  0
 48125  1  0  0  0
 49 50  1  0  0  0
 49 53  1  0  0  0
 49 64  1  0  0  0
 49126  1  0  0  0
 50 51  1  0  0  0
 50127  1  0  0  0
 50128  1  0  0  0
 51 52  1  0  0  0
 51129  1  0  0  0
 51130  1  0  0  0
 52131  1  0  0  0
 52132  1  0  0  0
 53 54  1  0  0  0
 54 55  2  0  0  0
 54133  1  0  0  0
 55 57  1  0  0  0
 55134  1  0  0  0
 56 69  2  0  0  0
 57 58  2  0  0  0
 57135  1  0  0  0
 58136  1  0  0  0
 59 60  1  0  0  0
 59 61  1  0  0  0
 59 62  1  0  0  0
 60137  1  0  0  0
 60138  1  0  0  0
 60139  1  0  0  0
 61140  1  0  0  0
 61141  1  0  0  0
 61142  1  0  0  0
 62143  1  0  0  0
 62144  1  0  0  0
 62145  1  0  0  0
 63 65  1  0  0  0
 63146  1  0  0  0
 63147  1  0  0  0
 63148  1  0  0  0
 64149  1  0  0  0
 65150  1  0  0  0
 68 87  1  0  0  0
 71 73  2  0  0  0
 71 74  1  0  0  0
 71151  1  0  0  0
 72 73  1  0  0  0
 72 75  2  0  0  0
 72152  1  0  0  0
 73 81  1  0  0  0
 74 76  2  0  0  0
 74 77  1  0  0  0
 75 76  1  0  0  0
 75 82  1  0  0  0
 76 83  1  0  0  0
 77153  1  0  0  0
 77154  1  0  0  0
 77155  1  0  0  0
 78 81  1  0  0  0
 78156  1  0  0  0
 78157  1  0  0  0
 78158  1  0  0  0
 79159  1  0  0  0
 79160  1  0  0  0
 79161  1  0  0  0
 79 88  1  0  0  0
 80162  1  0  0  0
 80163  1  0  0  0
 80164  1  0  0  0
 80 89  1  0  0  0
 81165  1  0  0  0
 81166  1  0  0  0
 82 84  1  0  0  0
 82167  1  0  0  0
 82168  1  0  0  0
 83 85  1  0  0  0
 83169  1  0  0  0
 83170  1  0  0  0
 84 87  1  0  0  0
 84171  1  0  0  0
 84172  1  0  0  0
 85 91  1  0  0  0
 85173  1  0  0  0
 85174  1  0  0  0
 86 88  1  0  0  0
 86 91  1  0  0  0
 86175  1  0  0  0
 86176  1  0  0  0
 87177  1  0  0  0
 87178  1  0  0  0
 88 89  1  0  0  0
 88179  1  0  0  0
 89 90  1  0  0  0
 89180  1  0  0  0
 90181  1  0  0  0
 91182  1  0  0  0
 91183  1  0  0  0
M  CHG  1  91   1
M  ISO  4   1 100  68 101  87 101  90 100
M  END
> <chiral flag>
0

> <version>
0

> <s_m_source_file>
/data/baiqing/PycharmProjects/Reinvent-master-3.2/result/LINK_invent/BTK/process_docking_weight1_custom_sum_contain_oxygen_bond_distance_aromatic_linkinvent_7_9_3/rearranged_h_0101.sdf

> <i_m_source_file_index>
82

> <r_mmod_Potential_Energy-OPLS-2005>
10390.9384765625

> <r_mmod_Stretch_Energy-OPLS-2005>
6103.07275390625

> <r_mmod_Bend_Energy-OPLS-2005>
842.300598144531

> <r_mmod_Torsional_Energy-OPLS-2005>
449.750915527344

> <r_mmod_Improper_Torsional_Energy-OPLS-2005>
18.6931571960449

> <r_mmod_Van_der_Waal_Energy-OPLS-2005>
2751.10620117188

> <r_mmod_Electrostatic_Energy-OPLS-2005>
-289.355682373047

> <r_mmod_Solvation_Energy-OPLS-2005>
-474.539031982422

> <b_mmod_Minimization_Converged-OPLS-2005>
0

> <r_mmod_RMS_Derivative-OPLS-2005>
11.946870803833

$$$$
82
                    3D
 Structure written by MMmdl.
168176  0  0  1  0            999 V2000
  -30.4813  -15.1793   20.3719 C   0  0  0  0  0  0
  -30.4354  -12.7492   19.5101 C   0  0  0  0  0  0
  -29.5248  -12.5550   18.2732 C   0  0  0  0  0  0
  -28.0704  -12.2975   18.7052 C   0  0  0  0  0  0
  -27.6130  -13.2691   19.8218 C   0  0  2  0  0  0
  -28.6530  -13.4144   20.9527 C   0  0  0  0  0  0
  -25.2394  -13.8245   20.5742 C   0  0  0  0  0  0
  -24.1747  -13.0435   20.9256 C   0  0  0  0  0  0
  -24.6405  -11.6933   20.8768 C   0  0  0  0  0  0
  -23.9103  -10.4292   21.0413 C   0  0  0  0  0  0
  -24.3645   -9.4203   21.9190 C   0  0  0  0  0  0
  -23.6307   -8.2243   22.0763 C   0  0  0  0  0  0
  -22.4287   -8.0287   21.3553 C   0  0  0  0  0  0
  -21.9934   -9.0263   20.4651 C   0  0  0  0  0  0
  -22.7272  -10.2135   20.3058 C   0  0  0  0  0  0
  -21.6856   -6.0745   22.5279 C   0  0  0  0  0  0
  -21.4015   -6.5646   23.8216 C   0  0  0  0  0  0
  -21.3657   -5.6792   24.9175 C   0  0  0  0  0  0
  -21.6045   -4.3057   24.7220 C   0  0  0  0  0  0
  -21.8816   -3.8151   23.4338 C   0  0  0  0  0  0
  -21.9192   -4.6972   22.3397 C   0  0  0  0  0  0
  -22.7760  -13.5185   21.1893 C   0  0  0  0  0  0
  -22.1660   -4.2159   21.0975 F   0  0  0  0  0  0
  -21.5625   -3.4539   25.7731 F   0  0  0  0  0  0
  -29.8942  -13.8923   20.3249 N   0  0  0  0  0  0
  -26.2823  -12.9514   20.3217 N   0  0  0  0  0  0
  -25.9340  -11.6627   20.5739 N   0  0  0  0  0  0
  -22.0430  -12.8162   22.0454 N   0  0  0  0  0  0
  -25.4012  -15.1979   20.4175 N   0  0  0  0  0  0
  -31.7019  -15.1765   20.1658 O   0  0  0  0  0  0
  -21.6646   -6.8888   21.4243 O   0  0  0  0  0  0
  -22.3437  -14.5482   20.6731 O   0  0  0  0  0  0
  -24.6602  -31.8280   23.1759 C   0  0  0  0  0  0
  -25.9303  -32.4610   23.8207 C   0  0  1  0  0  0
  -27.2132  -26.9729   20.1743 C   0  0  0  0  0  0
  -25.5994  -33.8424   24.2117 N   0  0  0  0  0  0
  -23.4716  -30.4444   21.5238 C   0  0  2  0  0  0
  -24.9226  -28.8439   20.1103 C   0  0  0  0  0  0
  -22.7653  -29.4478   22.4802 C   0  0  0  0  0  0
  -18.0316  -28.1418   22.8471 C   0  0  0  0  0  0
  -24.1488  -36.7220   23.2651 C   0  0  0  0  0  0
  -26.0399  -30.6490   21.4003 C   0  0  0  0  0  0
  -26.1066  -29.2449   20.7424 C   0  0  0  0  0  0
  -27.2479  -28.3294   20.7533 C   0  0  0  0  0  0
  -26.0005  -26.7197   19.4925 C   0  0  0  0  0  0
  -24.8934  -27.5994   19.4654 C   0  0  0  0  0  0
  -23.7076  -29.7662   20.1469 C   0  0  0  0  0  0
  -25.4124  -36.2979   24.0306 C   0  0  1  0  0  0
  -20.5943  -28.3761   23.1195 C   0  0  2  0  0  0
  -20.6798  -26.9447   22.5402 C   0  0  0  0  0  0
  -19.5769  -26.6380   21.5223 C   0  0  0  0  0  0
  -18.1947  -26.7954   22.1616 C   0  0  0  0  0  0
  -19.1578  -28.8905   23.2822 C   0  0  0  0  0  0
  -18.9498  -30.1500   23.8849 C   0  0  0  0  0  0
  -17.6490  -30.6613   24.0552 C   0  0  0  0  0  0
  -25.9089  -34.9358   23.5022 C   0  0  0  0  0  0
  -16.5379  -29.9098   23.6345 C   0  0  0  0  0  0
  -16.7297  -28.6515   23.0367 C   0  0  0  0  0  0
  -26.4567  -31.6540   25.0718 C   0  0  0  0  0  0
  -25.3706  -31.3785   26.1385 C   0  0  0  0  0  0
  -27.0469  -30.2913   24.6424 C   0  0  0  0  0  0
  -27.6058  -32.4357   25.7511 C   0  0  0  0  0  0
  -27.5566  -37.1767   24.8467 C   0  0  0  0  0  0
  -21.4325  -29.3067   22.3555 N   0  0  0  0  0  0
  -26.4268  -37.3720   23.9419 N   0  0  0  0  0  0
  -24.7453  -30.9993   22.0865 N   0  0  0  0  0  0
  -23.4220  -28.8033   23.3018 O   0  0  0  0  0  0
  -28.2047  -25.8708   20.2541 O   0  0  0  0  0  0
  -26.5689  -34.8890   22.4613 O   0  0  0  0  0  0
  -23.5677  -32.1220   23.6867 O   0  0  0  0  0  0
  -28.7946  -21.9368   21.3915 C   0  0  0  0  0  0
  -28.8178  -21.8486   19.1000 C   0  0  0  0  0  0
  -28.5819  -22.7589   20.2098 C   0  0  0  0  0  0
  -29.1975  -20.5030   21.4565 C   0  0  0  0  0  0
  -29.2235  -20.4195   19.1343 C   0  0  0  0  0  0
  -29.4438  -19.6023   20.3273 C   0  0  0  0  0  0
  -30.7655  -20.2732   23.4366 C   0  0  0  0  0  0
  -27.6283  -16.8981   15.8572 C   0  0  0  0  0  0
  -28.1542  -19.1672   14.8788 C   0  0  0  0  0  0
  -29.3886  -19.9331   22.8528 C   0  0  0  0  0  0
  -29.4453  -19.7671   17.7753 C   0  0  0  0  0  0
  -30.1917  -18.0278   20.3870 C   0  0  0  0  0  0
  -27.8056  -24.3056   20.0756 C   0  0  0  0  0  0
  -28.3234  -18.7832   17.4018 C   0  0  0  0  0  0
  -28.4871  -18.1639   15.9982 C   0  0  0  0  0  0
  -29.7433  -16.4479   20.4454 N   0  0  0  0  0  0
  -31.4579  -12.9339   19.1789 H   0  0  0  0  0  0
  -30.4816  -11.8353   20.1043 H   0  0  0  0  0  0
  -29.8857  -11.7281   17.6602 H   0  0  0  0  0  0
  -29.5664  -13.4447   17.6435 H   0  0  0  0  0  0
  -28.0153  -11.2710   19.0693 H   0  0  0  0  0  0
  -27.3984  -12.3529   17.8481 H   0  0  0  0  0  0
  -27.5360  -14.2424   19.3355 H   0  0  0  0  0  0
  -28.8022  -12.4712   21.4808 H   0  0  0  0  0  0
  -28.3109  -14.1372   21.6944 H   0  0  0  0  0  0
  -25.2794   -9.5671   22.4766 H   0  0  0  0  0  0
  -24.0010   -7.4631   22.7484 H   0  0  0  0  0  0
  -21.0866   -8.8787   19.8954 H   0  0  0  0  0  0
  -22.3741  -10.9677   19.6163 H   0  0  0  0  0  0
  -21.2017   -7.6157   23.9721 H   0  0  0  0  0  0
  -21.1479   -6.0527   25.9079 H   0  0  0  0  0  0
  -22.0600   -2.7617   23.2833 H   0  0  0  0  0  0
  -22.4074  -11.9831   22.4831 H   0  0  0  0  0  0
  -21.1047  -13.1171   22.2681 H   0  0  0  0  0  0
  -24.6269  -15.8429   20.5307 H   0  0  0  0  0  0
  -26.2380  -15.6442   20.0679 H   0  0  0  0  0  0
  -26.7364  -32.5151   23.0921 H   0  0  0  0  0  0
  -25.0128  -33.9514   25.0256 H   0  0  0  0  0  0
  -22.7832  -31.2754   21.3574 H   0  0  0  0  0  0
  -23.3757  -35.9543   23.3272 H   0  0  0  0  0  0
  -24.3568  -36.8895   22.2074 H   0  0  0  0  0  0
  -23.7228  -37.6395   23.6720 H   0  0  0  0  0  0
  -26.2168  -31.3920   20.6217 H   0  0  0  0  0  0
  -26.9032  -30.7016   22.0520 H   0  0  0  0  0  0
  -28.1407  -28.6318   21.2809 H   0  0  0  0  0  0
  -25.8610  -25.7742   18.9917 H   0  0  0  0  0  0
  -23.9940  -27.2867   18.9528 H   0  0  0  0  0  0
  -23.8603  -30.5374   19.3911 H   0  0  0  0  0  0
  -22.8171  -29.2214   19.8284 H   0  0  0  0  0  0
  -25.1314  -36.1775   25.0794 H   0  0  0  0  0  0
  -21.0027  -28.3358   24.1317 H   0  0  0  0  0  0
  -20.5699  -26.2385   23.3647 H   0  0  0  0  0  0
  -21.6658  -26.7442   22.1192 H   0  0  0  0  0  0
  -19.6932  -25.6280   21.1280 H   0  0  0  0  0  0
  -19.6695  -27.3162   20.6729 H   0  0  0  0  0  0
  -17.4225  -26.6711   21.4012 H   0  0  0  0  0  0
  -18.0316  -26.0115   22.9021 H   0  0  0  0  0  0
  -19.7982  -30.7326   24.2194 H   0  0  0  0  0  0
  -17.5050  -31.6284   24.5173 H   0  0  0  0  0  0
  -15.5384  -30.2987   23.7709 H   0  0  0  0  0  0
  -15.8694  -28.0814   22.7122 H   0  0  0  0  0  0
  -24.5898  -30.7117   25.7714 H   0  0  0  0  0  0
  -24.8892  -32.2988   26.4707 H   0  0  0  0  0  0
  -25.7960  -30.9031   27.0232 H   0  0  0  0  0  0
  -26.3137  -29.6595   24.1402 H   0  0  0  0  0  0
  -27.3996  -29.7269   25.5071 H   0  0  0  0  0  0
  -27.9075  -30.4125   23.9839 H   0  0  0  0  0  0
  -27.2619  -33.3706   26.1955 H   0  0  0  0  0  0
  -28.3938  -32.6846   25.0388 H   0  0  0  0  0  0
  -28.0648  -31.8573   26.5545 H   0  0  0  0  0  0
  -28.2564  -38.0085   24.7522 H   0  0  0  0  0  0
  -28.1079  -36.2614   24.6266 H   0  0  0  0  0  0
  -27.2289  -37.1364   25.8871 H   0  0  0  0  0  0
  -20.9580  -29.8776   21.6698 H   0  0  0  0  0  0
  -26.0110  -38.2771   24.1443 H   0  0  0  0  0  0
  -28.6115  -22.4281   22.3370 H   0  0  0  0  0  0
  -28.6441  -22.2776   18.1228 H   0  0  0  0  0  0
  -30.8958  -19.8167   24.4183 H   0  0  0  0  0  0
  -30.8879  -21.3500   23.5546 H   0  0  0  0  0  0
  -31.5721  -19.9128   22.7974 H   0  0  0  0  0  0
  -27.7708  -16.4312   14.8817 H   0  0  0  0  0  0
  -26.5666  -17.1212   15.9661 H   0  0  0  0  0  0
  -27.8904  -16.1550   16.6115 H   0  0  0  0  0  0
  -28.2852  -18.7166   13.8940 H   0  0  0  0  0  0
  -28.7973  -20.0466   14.9123 H   0  0  0  0  0  0
  -27.1207  -19.5103   14.9477 H   0  0  0  0  0  0
  -29.2433  -18.8530   22.8387 H   0  0  0  0  0  0
  -28.6087  -20.3228   23.5080 H   0  0  0  0  0  0
  -30.4119  -19.2643   17.7594 H   0  0  0  0  0  0
  -29.5243  -20.5441   17.0156 H   0  0  0  0  0  0
  -30.8557  -18.1054   21.2469 H   0  0  0  0  0  0
  -30.8964  -18.0417   19.5570 H   0  0  0  0  0  0
  -26.9227  -24.1889   20.7045 H   0  0  0  0  0  0
  -27.4206  -24.2610   19.0577 H   0  0  0  0  0  0
  -27.3556  -19.2827   17.4714 H   0  0  0  0  0  0
  -28.3015  -17.9866   18.1466 H   0  0  0  0  0  0
  -29.5283  -17.8579   15.8805 H   0  0  0  0  0  0
  -28.7487  -16.3155   20.5496 H   0  0  0  0  0  0
  1 25  1  0  0  0
  1 30  2  0  0  0
  1 86  1  0  0  0
  2  3  1  0  0  0
  2 25  1  0  0  0
  2 87  1  0  0  0
  2 88  1  0  0  0
  3  4  1  0  0  0
  3 89  1  0  0  0
  3 90  1  0  0  0
  4  5  1  0  0  0
  4 91  1  0  0  0
  4 92  1  0  0  0
  5  6  1  0  0  0
  5 26  1  0  0  0
  5 93  1  0  0  0
  6 25  1  0  0  0
  6 94  1  0  0  0
  6 95  1  0  0  0
  7  8  2  0  0  0
  7 26  1  0  0  0
  7 29  1  0  0  0
  8  9  1  0  0  0
  8 22  1  0  0  0
  9 10  1  0  0  0
  9 27  2  0  0  0
 10 11  2  0  0  0
 10 15  1  0  0  0
 11 12  1  0  0  0
 11 96  1  0  0  0
 12 13  2  0  0  0
 12 97  1  0  0  0
 13 14  1  0  0  0
 13 31  1  0  0  0
 14 15  2  0  0  0
 14 98  1  0  0  0
 15 99  1  0  0  0
 16 17  2  0  0  0
 16 21  1  0  0  0
 16 31  1  0  0  0
 17 18  1  0  0  0
 17100  1  0  0  0
 18 19  2  0  0  0
 18101  1  0  0  0
 19 20  1  0  0  0
 19 24  1  0  0  0
 20 21  2  0  0  0
 20102  1  0  0  0
 21 23  1  0  0  0
 22 28  1  0  0  0
 22 32  2  0  0  0
 26 27  1  0  0  0
 28103  1  0  0  0
 28104  1  0  0  0
 29105  1  0  0  0
 29106  1  0  0  0
 33 34  1  0  0  0
 33 66  1  0  0  0
 33 70  2  0  0  0
 34 36  1  0  0  0
 34 59  1  0  0  0
 34107  1  0  0  0
 35 44  2  0  0  0
 35 45  1  0  0  0
 35 68  1  0  0  0
 36 56  1  0  0  0
 36108  1  0  0  0
 37 39  1  0  0  0
 37 47  1  0  0  0
 37 66  1  0  0  0
 37109  1  0  0  0
 38 43  2  0  0  0
 38 46  1  0  0  0
 38 47  1  0  0  0
 39 64  1  0  0  0
 39 67  2  0  0  0
 40 52  1  0  0  0
 40 53  2  0  0  0
 40 58  1  0  0  0
 41110  1  0  0  0
 41111  1  0  0  0
 41112  1  0  0  0
 41 48  1  0  0  0
 42 43  1  0  0  0
 42 66  1  0  0  0
 42113  1  0  0  0
 42114  1  0  0  0
 43 44  1  0  0  0
 44115  1  0  0  0
 45 46  2  0  0  0
 45116  1  0  0  0
 46117  1  0  0  0
 47118  1  0  0  0
 47119  1  0  0  0
 48 56  1  0  0  0
 48 65  1  0  0  0
 48120  1  0  0  0
 49 50  1  0  0  0
 49 53  1  0  0  0
 49 64  1  0  0  0
 49121  1  0  0  0
 50 51  1  0  0  0
 50122  1  0  0  0
 50123  1  0  0  0
 51 52  1  0  0  0
 51124  1  0  0  0
 51125  1  0  0  0
 52126  1  0  0  0
 52127  1  0  0  0
 53 54  1  0  0  0
 54 55  2  0  0  0
 54128  1  0  0  0
 55 57  1  0  0  0
 55129  1  0  0  0
 56 69  2  0  0  0
 57 58  2  0  0  0
 57130  1  0  0  0
 58131  1  0  0  0
 59 60  1  0  0  0
 59 61  1  0  0  0
 59 62  1  0  0  0
 60132  1  0  0  0
 60133  1  0  0  0
 60134  1  0  0  0
 61135  1  0  0  0
 61136  1  0  0  0
 61137  1  0  0  0
 62138  1  0  0  0
 62139  1  0  0  0
 62140  1  0  0  0
 63 65  1  0  0  0
 63141  1  0  0  0
 63142  1  0  0  0
 63143  1  0  0  0
 64144  1  0  0  0
 65145  1  0  0  0
 68 83  1  0  0  0
 71 73  2  0  0  0
 71 74  1  0  0  0
 71146  1  0  0  0
 72 73  1  0  0  0
 72 75  2  0  0  0
 72147  1  0  0  0
 73 83  1  0  0  0
 74 76  2  0  0  0
 74 80  1  0  0  0
 75 76  1  0  0  0
 75 81  1  0  0  0
 76 82  1  0  0  0
 77 80  1  0  0  0
 77148  1  0  0  0
 77149  1  0  0  0
 77150  1  0  0  0
 78151  1  0  0  0
 78152  1  0  0  0
 78153  1  0  0  0
 78 85  1  0  0  0
 79 85  1  0  0  0
 79154  1  0  0  0
 79155  1  0  0  0
 79156  1  0  0  0
 80157  1  0  0  0
 80158  1  0  0  0
 81 84  1  0  0  0
 81159  1  0  0  0
 81160  1  0  0  0
 82 86  1  0  0  0
 82161  1  0  0  0
 82162  1  0  0  0
 83163  1  0  0  0
 83164  1  0  0  0
 84 85  1  0  0  0
 84165  1  0  0  0
 84166  1  0  0  0
 85167  1  0  0  0
 86168  1  0  0  0
M  ISO  4   1 100  68 101  83 101  86 100
M  END
> <chiral flag>
0

> <version>
0

> <s_m_source_file>
/data/baiqing/PycharmProjects/Reinvent-master-3.2/result/LINK_invent/BTK/process_docking_weight1_custom_sum_contain_oxygen_bond_distance_aromatic_linkinvent_7_9_3/rearranged_h_0101.sdf

> <i_m_source_file_index>
83

> <r_mmod_Potential_Energy-OPLS-2005>
1022.55065917969

> <r_mmod_Stretch_Energy-OPLS-2005>
450.597564697266

> <r_mmod_Bend_Energy-OPLS-2005>
410.785064697266

> <r_mmod_Torsional_Energy-OPLS-2005>
235.619125366211

> <r_mmod_Improper_Torsional_Energy-OPLS-2005>
9.86766338348389

> <r_mmod_Van_der_Waal_Energy-OPLS-2005>
125.729606628418

> <r_mmod_Electrostatic_Energy-OPLS-2005>
-395.105590820312

> <r_mmod_Solvation_Energy-OPLS-2005>
-200.422698974609

> <b_mmod_Minimization_Converged-OPLS-2005>
0

> <r_mmod_RMS_Derivative-OPLS-2005>
1.45202195644379

$$$$
83
                    3D
 Structure written by MMmdl.
177185  0  0  1  0            999 V2000
  -30.5132  -15.0037   20.3908 C   0  0  0  0  0  0
  -30.4382  -12.6197   19.5180 C   0  0  0  0  0  0
  -29.5232  -12.5144   18.2743 C   0  0  0  0  0  0
  -28.0626  -12.2829   18.6993 C   0  0  0  0  0  0
  -27.6224  -13.2454   19.8325 C   0  0  2  0  0  0
  -28.6582  -13.3169   20.9752 C   0  0  0  0  0  0
  -25.2439  -13.8206   20.5709 C   0  0  0  0  0  0
  -24.1757  -13.0430   20.9219 C   0  0  0  0  0  0
  -24.6359  -11.6904   20.8748 C   0  0  0  0  0  0
  -23.9040  -10.4291   21.0410 C   0  0  0  0  0  0
  -24.3601   -9.4219   21.9196 C   0  0  0  0  0  0
  -23.6284   -8.2248   22.0775 C   0  0  0  0  0  0
  -22.4275   -8.0277   21.3549 C   0  0  0  0  0  0
  -21.9895   -9.0239   20.4652 C   0  0  0  0  0  0
  -22.7208  -10.2127   20.3063 C   0  0  0  0  0  0
  -21.6843   -6.0731   22.5271 C   0  0  0  0  0  0
  -21.4015   -6.5640   23.8205 C   0  0  0  0  0  0
  -21.3660   -5.6795   24.9164 C   0  0  0  0  0  0
  -21.6037   -4.3052   24.7213 C   0  0  0  0  0  0
  -21.8821   -3.8150   23.4335 C   0  0  0  0  0  0
  -21.9195   -4.6967   22.3393 C   0  0  0  0  0  0
  -22.7785  -13.5216   21.1867 C   0  0  0  0  0  0
  -22.1663   -4.2153   21.0967 F   0  0  0  0  0  0
  -21.5623   -3.4546   25.7730 F   0  0  0  0  0  0
  -29.9330  -13.7330   20.3762 N   0  0  0  0  0  0
  -26.2844  -12.9416   20.3225 N   0  0  0  0  0  0
  -25.9292  -11.6552   20.5739 N   0  0  0  0  0  0
  -22.0418  -12.8219   22.0425 N   0  0  0  0  0  0
  -25.4110  -15.1929   20.4140 N   0  0  0  0  0  0
  -31.7136  -15.0629   20.1045 O   0  0  0  0  0  0
  -21.6636   -6.8878   21.4236 O   0  0  0  0  0  0
  -22.3474  -14.5519   20.6708 O   0  0  0  0  0  0
  -24.6472  -31.8356   23.1794 C   0  0  0  0  0  0
  -25.9224  -32.4620   23.8194 C   0  0  1  0  0  0
  -27.2229  -27.1013   20.1469 C   0  0  0  0  0  0
  -25.5959  -33.8424   24.2122 N   0  0  0  0  0  0
  -23.4499  -30.4533   21.5241 C   0  0  2  0  0  0
  -24.9016  -28.8687   20.0978 C   0  0  0  0  0  0
  -22.7565  -29.4504   22.4808 C   0  0  0  0  0  0
  -18.0293  -28.1365   22.8462 C   0  0  0  0  0  0
  -24.1505  -36.7242   23.2651 C   0  0  0  0  0  0
  -26.0062  -30.6976   21.3802 C   0  0  0  0  0  0
  -26.0748  -29.3048   20.7246 C   0  0  0  0  0  0
  -27.2281  -28.4340   20.7360 C   0  0  0  0  0  0
  -26.0314  -26.7727   19.4668 C   0  0  0  0  0  0
  -24.8939  -27.6167   19.4565 C   0  0  0  0  0  0
  -23.6774  -29.7742   20.1444 C   0  0  0  0  0  0
  -25.4124  -36.2980   24.0309 C   0  0  1  0  0  0
  -20.5909  -28.3702   23.1220 C   0  0  2  0  0  0
  -20.6782  -26.9399   22.5396 C   0  0  0  0  0  0
  -19.5760  -26.6363   21.5204 C   0  0  0  0  0  0
  -18.1934  -26.7899   22.1605 C   0  0  0  0  0  0
  -19.1555  -28.8845   23.2832 C   0  0  0  0  0  0
  -18.9487  -30.1433   23.8866 C   0  0  0  0  0  0
  -17.6494  -30.6569   24.0551 C   0  0  0  0  0  0
  -25.9083  -34.9357   23.5034 C   0  0  0  0  0  0
  -16.5376  -29.9063   23.6340 C   0  0  0  0  0  0
  -16.7283  -28.6476   23.0362 C   0  0  0  0  0  0
  -26.4561  -31.6490   25.0639 C   0  0  0  0  0  0
  -25.3767  -31.3634   26.1351 C   0  0  0  0  0  0
  -27.0464  -30.2896   24.6210 C   0  0  0  0  0  0
  -27.6077  -32.4286   25.7411 C   0  0  0  0  0  0
  -27.5566  -37.1757   24.8464 C   0  0  0  0  0  0
  -21.4249  -29.3030   22.3595 N   0  0  0  0  0  0
  -26.4273  -37.3712   23.9421 N   0  0  0  0  0  0
  -24.7208  -31.0194   22.0828 N   0  0  0  0  0  0
  -23.4201  -28.8071   23.2987 O   0  0  0  0  0  0
  -28.2744  -26.1196   20.3014 O   0  0  0  0  0  0
  -26.5693  -34.8886   22.4626 O   0  0  0  0  0  0
  -23.5586  -32.1254   23.7007 O   0  0  0  0  0  0
  -29.0207  -21.8459   21.9736 C   0  0  0  0  0  0
  -29.0181  -20.3964   20.0598 C   0  0  0  0  0  0
  -28.7654  -21.7657   20.6031 C   0  0  0  0  0  0
  -29.3993  -20.7372   22.7678 C   0  0  0  0  0  0
  -29.4700  -19.1775   20.8130 C   0  0  0  0  0  0
  -29.6230  -19.4144   22.2273 C   0  0  0  0  0  0
  -32.5491  -18.8190   22.7469 C   0  0  0  0  0  0
  -26.5702  -23.1231   20.5523 C   0  0  0  0  0  0
  -28.9815  -17.2212   23.4683 C   0  0  0  0  0  0
  -29.5103  -21.0809   24.2584 C   0  0  0  0  0  0
  -29.9358  -17.7256   20.1029 C   0  0  0  0  0  0
  -31.4885  -17.7304   22.9639 C   0  0  0  0  0  0
  -28.2367  -20.7170   25.0446 C   0  0  0  0  0  0
  -28.3479  -20.9813   26.5600 C   0  0  0  0  0  0
  -28.4607  -24.7020   19.6488 C   0  0  0  0  0  0
  -27.9800  -23.0821   19.9457 C   0  0  1  0  0  0
  -30.0639  -18.2855   23.1959 C   0  0  1  0  0  0
  -29.7229  -16.1935   20.5098 N   0  0  0  0  0  0
  -28.1912  -22.4043   26.9123 N   0  3  0  0  0  0
  -31.4683  -12.7870   19.2020 H   0  0  0  0  0  0
  -30.4497  -11.6829   20.0781 H   0  0  0  0  0  0
  -29.8580  -11.7006   17.6300 H   0  0  0  0  0  0
  -29.5946  -13.4273   17.6826 H   0  0  0  0  0  0
  -27.9891  -11.2529   19.0535 H   0  0  0  0  0  0
  -27.3925  -12.3585   17.8415 H   0  0  0  0  0  0
  -27.5743  -14.2322   19.3717 H   0  0  0  0  0  0
  -28.7521  -12.3575   21.4854 H   0  0  0  0  0  0
  -28.3402  -14.0390   21.7289 H   0  0  0  0  0  0
  -25.2739   -9.5708   22.4778 H   0  0  0  0  0  0
  -23.9981   -7.4657   22.7523 H   0  0  0  0  0  0
  -21.0818   -8.8744   19.8972 H   0  0  0  0  0  0
  -22.3648  -10.9661   19.6184 H   0  0  0  0  0  0
  -21.2010   -7.6154   23.9704 H   0  0  0  0  0  0
  -21.1475   -6.0529   25.9065 H   0  0  0  0  0  0
  -22.0600   -2.7614   23.2825 H   0  0  0  0  0  0
  -22.4019  -11.9859   22.4783 H   0  0  0  0  0  0
  -21.1051  -13.1284   22.2663 H   0  0  0  0  0  0
  -24.6349  -15.8383   20.5180 H   0  0  0  0  0  0
  -26.2482  -15.6351   20.0598 H   0  0  0  0  0  0
  -26.7266  -32.5228   23.0888 H   0  0  0  0  0  0
  -25.0094  -33.9519   25.0264 H   0  0  0  0  0  0
  -22.7548  -31.2802   21.3631 H   0  0  0  0  0  0
  -23.3762  -35.9581   23.3266 H   0  0  0  0  0  0
  -24.3603  -36.8930   22.2080 H   0  0  0  0  0  0
  -23.7273  -37.6416   23.6742 H   0  0  0  0  0  0
  -26.1634  -31.4450   20.6011 H   0  0  0  0  0  0
  -26.8766  -30.7512   22.0210 H   0  0  0  0  0  0
  -28.1187  -28.7571   21.2560 H   0  0  0  0  0  0
  -25.9465  -25.8135   18.9787 H   0  0  0  0  0  0
  -23.9979  -27.2786   18.9535 H   0  0  0  0  0  0
  -23.8051  -30.5459   19.3845 H   0  0  0  0  0  0
  -22.7931  -29.2137   19.8385 H   0  0  0  0  0  0
  -25.1303  -36.1784   25.0795 H   0  0  0  0  0  0
  -20.9999  -28.3301   24.1344 H   0  0  0  0  0  0
  -20.5677  -26.2311   23.3612 H   0  0  0  0  0  0
  -21.6653  -26.7398   22.1193 H   0  0  0  0  0  0
  -19.6949  -25.6280   21.1218 H   0  0  0  0  0  0
  -19.6708  -27.3184   20.6740 H   0  0  0  0  0  0
  -17.4210  -26.6650   21.3986 H   0  0  0  0  0  0
  -18.0333  -26.0009   22.8966 H   0  0  0  0  0  0
  -19.7967  -30.7245   24.2229 H   0  0  0  0  0  0
  -17.5049  -31.6256   24.5147 H   0  0  0  0  0  0
  -15.5379  -30.2976   23.7672 H   0  0  0  0  0  0
  -15.8665  -28.0801   22.7113 H   0  0  0  0  0  0
  -24.6022  -30.6880   25.7700 H   0  0  0  0  0  0
  -24.8882  -32.2779   26.4711 H   0  0  0  0  0  0
  -25.8103  -30.8894   27.0164 H   0  0  0  0  0  0
  -26.3083  -29.6557   24.1284 H   0  0  0  0  0  0
  -27.4179  -29.7227   25.4750 H   0  0  0  0  0  0
  -27.8919  -30.4131   23.9447 H   0  0  0  0  0  0
  -27.2672  -33.3649   26.1826 H   0  0  0  0  0  0
  -28.3948  -32.6725   25.0269 H   0  0  0  0  0  0
  -28.0659  -31.8506   26.5442 H   0  0  0  0  0  0
  -28.2530  -38.0100   24.7543 H   0  0  0  0  0  0
  -28.1103  -36.2624   24.6236 H   0  0  0  0  0  0
  -27.2289  -37.1329   25.8865 H   0  0  0  0  0  0
  -20.9474  -29.8756   21.6774 H   0  0  0  0  0  0
  -26.0118  -38.2763   24.1453 H   0  0  0  0  0  0
  -28.8326  -22.7970   22.4534 H   0  0  0  0  0  0
  -28.8419  -20.2643   19.0011 H   0  0  0  0  0  0
  -33.5484  -18.3837   22.7037 H   0  0  0  0  0  0
  -32.5360  -19.5498   23.5577 H   0  0  0  0  0  0
  -32.3861  -19.3538   21.8098 H   0  0  0  0  0  0
  -26.0980  -22.1422   20.5077 H   0  0  0  0  0  0
  -25.9199  -23.8217   20.0296 H   0  0  0  0  0  0
  -26.6076  -23.4280   21.5989 H   0  0  0  0  0  0
  -28.6417  -16.6860   22.5927 H   0  0  0  0  0  0
  -28.0885  -17.6732   23.8965 H   0  0  0  0  0  0
  -29.3350  -16.4810   24.1872 H   0  0  0  0  0  0
  -29.6731  -22.1536   24.3630 H   0  0  0  0  0  0
  -30.4060  -20.6582   24.7090 H   0  0  0  0  0  0
  -31.0143  -17.8304   19.9738 H   0  0  0  0  0  0
  -29.5492  -17.7841   19.0851 H   0  0  0  0  0  0
  -31.7733  -17.1254   23.8261 H   0  0  0  0  0  0
  -31.5278  -17.0475   22.1240 H   0  0  0  0  0  0
  -28.0252  -19.6589   24.9069 H   0  0  0  0  0  0
  -27.3740  -21.2398   24.6292 H   0  0  0  0  0  0
  -29.3029  -20.6134   26.9384 H   0  0  0  0  0  0
  -27.5710  -20.4198   27.0836 H   0  0  0  0  0  0
  -28.0846  -24.8884   18.6423 H   0  0  0  0  0  0
  -29.5360  -24.6346   19.4851 H   0  0  0  0  0  0
  -27.8440  -22.7081   18.9300 H   0  0  0  0  0  0
  -30.1714  -18.7037   24.1872 H   0  0  0  0  0  0
  -28.7641  -15.9934   20.7489 H   0  0  0  0  0  0
  -28.9160  -22.9674   26.5061 H   0  0  0  0  0  0
  -28.2397  -22.5117   27.9107 H   0  0  0  0  0  0
  -27.2985  -22.7501   26.6092 H   0  0  0  0  0  0
  1 25  1  0  0  0
  1 30  2  0  0  0
  1 88  1  0  0  0
  2  3  1  0  0  0
  2 25  1  0  0  0
  2 90  1  0  0  0
  2 91  1  0  0  0
  3  4  1  0  0  0
  3 92  1  0  0  0
  3 93  1  0  0  0
  4  5  1  0  0  0
  4 94  1  0  0  0
  4 95  1  0  0  0
  5  6  1  0  0  0
  5 26  1  0  0  0
  5 96  1  0  0  0
  6 25  1  0  0  0
  6 97  1  0  0  0
  6 98  1  0  0  0
  7  8  2  0  0  0
  7 26  1  0  0  0
  7 29  1  0  0  0
  8  9  1  0  0  0
  8 22  1  0  0  0
  9 10  1  0  0  0
  9 27  2  0  0  0
 10 11  2  0  0  0
 10 15  1  0  0  0
 11 12  1  0  0  0
 11 99  1  0  0  0
 12 13  2  0  0  0
 12100  1  0  0  0
 13 14  1  0  0  0
 13 31  1  0  0  0
 14 15  2  0  0  0
 14101  1  0  0  0
 15102  1  0  0  0
 16 17  2  0  0  0
 16 21  1  0  0  0
 16 31  1  0  0  0
 17 18  1  0  0  0
 17103  1  0  0  0
 18 19  2  0  0  0
 18104  1  0  0  0
 19 20  1  0  0  0
 19 24  1  0  0  0
 20 21  2  0  0  0
 20105  1  0  0  0
 21 23  1  0  0  0
 22 28  1  0  0  0
 22 32  2  0  0  0
 26 27  1  0  0  0
 28106  1  0  0  0
 28107  1  0  0  0
 29108  1  0  0  0
 29109  1  0  0  0
 33 34  1  0  0  0
 33 66  1  0  0  0
 33 70  2  0  0  0
 34 36  1  0  0  0
 34 59  1  0  0  0
 34110  1  0  0  0
 35 44  2  0  0  0
 35 45  1  0  0  0
 35 68  1  0  0  0
 36 56  1  0  0  0
 36111  1  0  0  0
 37 39  1  0  0  0
 37 47  1  0  0  0
 37 66  1  0  0  0
 37112  1  0  0  0
 38 43  2  0  0  0
 38 46  1  0  0  0
 38 47  1  0  0  0
 39 64  1  0  0  0
 39 67  2  0  0  0
 40 52  1  0  0  0
 40 53  2  0  0  0
 40 58  1  0  0  0
 41113  1  0  0  0
 41114  1  0  0  0
 41115  1  0  0  0
 41 48  1  0  0  0
 42 43  1  0  0  0
 42 66  1  0  0  0
 42116  1  0  0  0
 42117  1  0  0  0
 43 44  1  0  0  0
 44118  1  0  0  0
 45 46  2  0  0  0
 45119  1  0  0  0
 46120  1  0  0  0
 47121  1  0  0  0
 47122  1  0  0  0
 48 56  1  0  0  0
 48 65  1  0  0  0
 48123  1  0  0  0
 49 50  1  0  0  0
 49 53  1  0  0  0
 49 64  1  0  0  0
 49124  1  0  0  0
 50 51  1  0  0  0
 50125  1  0  0  0
 50126  1  0  0  0
 51 52  1  0  0  0
 51127  1  0  0  0
 51128  1  0  0  0
 52129  1  0  0  0
 52130  1  0  0  0
 53 54  1  0  0  0
 54 55  2  0  0  0
 54131  1  0  0  0
 55 57  1  0  0  0
 55132  1  0  0  0
 56 69  2  0  0  0
 57 58  2  0  0  0
 57133  1  0  0  0
 58134  1  0  0  0
 59 60  1  0  0  0
 59 61  1  0  0  0
 59 62  1  0  0  0
 60135  1  0  0  0
 60136  1  0  0  0
 60137  1  0  0  0
 61138  1  0  0  0
 61139  1  0  0  0
 61140  1  0  0  0
 62141  1  0  0  0
 62142  1  0  0  0
 62143  1  0  0  0
 63 65  1  0  0  0
 63144  1  0  0  0
 63145  1  0  0  0
 63146  1  0  0  0
 64147  1  0  0  0
 65148  1  0  0  0
 68 85  1  0  0  0
 71 73  2  0  0  0
 71 74  1  0  0  0
 71149  1  0  0  0
 72 73  1  0  0  0
 72 75  2  0  0  0
 72150  1  0  0  0
 73 86  1  0  0  0
 74 76  2  0  0  0
 74 80  1  0  0  0
 75 76  1  0  0  0
 75 81  1  0  0  0
 76 87  1  0  0  0
 77 82  1  0  0  0
 77151  1  0  0  0
 77152  1  0  0  0
 77153  1  0  0  0
 78154  1  0  0  0
 78155  1  0  0  0
 78156  1  0  0  0
 78 86  1  0  0  0
 79157  1  0  0  0
 79158  1  0  0  0
 79159  1  0  0  0
 79 87  1  0  0  0
 80 83  1  0  0  0
 80160  1  0  0  0
 80161  1  0  0  0
 81 88  1  0  0  0
 81162  1  0  0  0
 81163  1  0  0  0
 82 87  1  0  0  0
 82164  1  0  0  0
 82165  1  0  0  0
 83 84  1  0  0  0
 83166  1  0  0  0
 83167  1  0  0  0
 84 89  1  0  0  0
 84168  1  0  0  0
 84169  1  0  0  0
 85 86  1  0  0  0
 85170  1  0  0  0
 85171  1  0  0  0
 86172  1  0  0  0
 87173  1  0  0  0
 88174  1  0  0  0
 89175  1  0  0  0
 89176  1  0  0  0
 89177  1  0  0  0
M  CHG  1  89   1
M  ISO  4   1 100  68 101  85 101  88 100
M  END
> <chiral flag>
0

> <version>
0

> <s_m_source_file>
/data/baiqing/PycharmProjects/Reinvent-master-3.2/result/LINK_invent/BTK/process_docking_weight1_custom_sum_contain_oxygen_bond_distance_aromatic_linkinvent_7_9_3/rearranged_h_0101.sdf

> <i_m_source_file_index>
84

> <r_mmod_Potential_Energy-OPLS-2005>
432.833190917969

> <r_mmod_Stretch_Energy-OPLS-2005>
314.522125244141

> <r_mmod_Bend_Energy-OPLS-2005>
379.936340332031

> <r_mmod_Torsional_Energy-OPLS-2005>
235.417938232422

> <r_mmod_Improper_Torsional_Energy-OPLS-2005>
7.85700368881226

> <r_mmod_Van_der_Waal_Energy-OPLS-2005>
129.347610473633

> <r_mmod_Electrostatic_Energy-OPLS-2005>
-371.345672607422

> <r_mmod_Solvation_Energy-OPLS-2005>
-497.374450683594

> <b_mmod_Minimization_Converged-OPLS-2005>
0

> <r_mmod_RMS_Derivative-OPLS-2005>
2.91296863555908

$$$$
84
                    3D
 Structure written by MMmdl.
172180  0  0  1  0            999 V2000
  -31.3098  -14.6771   21.4214 C   0  0  0  0  0  0
  -31.0317  -14.5184   19.0689 C   0  0  0  0  0  0
  -28.5142  -14.5643   17.2055 C   0  0  0  0  0  0
  -27.1248  -14.0762   18.2997 C   0  0  0  0  0  0
  -27.3493  -13.9332   20.0954 C   0  0  2  0  0  0
  -28.8204  -13.8486   21.1474 C   0  0  0  0  0  0
  -25.0245  -13.9483   20.6983 C   0  0  0  0  0  0
  -24.0530  -13.0602   20.9806 C   0  0  0  0  0  0
  -24.6244  -11.7519   20.9036 C   0  0  0  0  0  0
  -23.9253  -10.4469   21.0244 C   0  0  0  0  0  0
  -24.3691   -9.4371   21.9096 C   0  0  0  0  0  0
  -23.6394   -8.2385   22.0647 C   0  0  0  0  0  0
  -22.4389   -8.0342   21.3479 C   0  0  0  0  0  0
  -22.0106   -9.0234   20.4488 C   0  0  0  0  0  0
  -22.7393  -10.2145   20.2855 C   0  0  0  0  0  0
  -21.6893   -6.0787   22.5272 C   0  0  0  0  0  0
  -21.4073   -6.5680   23.8227 C   0  0  0  0  0  0
  -21.3765   -5.6812   24.9188 C   0  0  0  0  0  0
  -21.6033   -4.3078   24.7242 C   0  0  0  0  0  0
  -21.8709   -3.8163   23.4387 C   0  0  0  0  0  0
  -21.9145   -4.6976   22.3422 C   0  0  0  0  0  0
  -22.6421  -13.4670   21.2181 C   0  0  0  0  0  0
  -22.1572   -4.2156   21.1000 F   0  0  0  0  0  0
  -21.5638   -3.4558   25.7781 F   0  0  0  0  0  0
  -30.4065  -14.1874   20.6591 N   0  0  0  0  0  0
  -26.1639  -13.2295   20.5474 N   0  0  0  0  0  0
  -25.9358  -11.8634   20.6393 N   0  0  0  0  0  0
  -21.9392  -12.7430   22.0769 N   0  0  0  0  0  0
  -25.0159  -15.3292   20.5253 N   0  0  0  0  0  0
  -32.4696  -14.7503   21.0345 O   0  0  0  0  0  0
  -21.6678   -6.8964   21.4270 O   0  0  0  0  0  0
  -22.1852  -14.4874   20.6911 O   0  0  0  0  0  0
  -24.7431  -31.7192   23.1044 C   0  0  0  0  0  0
  -25.9741  -32.4095   23.7719 C   0  0  1  0  0  0
  -27.1375  -26.0121   20.1456 C   0  0  0  0  0  0
  -25.5990  -33.7961   24.1536 N   0  0  0  0  0  0
  -23.5899  -30.3000   21.4742 C   0  0  2  0  0  0
  -25.0229  -28.4956   20.1233 C   0  0  0  0  0  0
  -22.8057  -29.3900   22.4590 C   0  0  0  0  0  0
  -18.0365  -28.1472   22.8444 C   0  0  0  0  0  0
  -24.1514  -36.7093   23.2651 C   0  0  0  0  0  0
  -26.1919  -30.2100   21.4661 C   0  0  0  0  0  0
  -26.2290  -28.7028   20.7998 C   0  0  0  0  0  0
  -27.2512  -27.5025   20.7694 C   0  0  0  0  0  0
  -25.9185  -26.1976   19.4163 C   0  0  0  0  0  0
  -24.9510  -27.2806   19.4089 C   0  0  0  0  0  0
  -23.8720  -29.5410   20.1332 C   0  0  0  0  0  0
  -25.4179  -36.2712   24.0214 C   0  0  1  0  0  0
  -20.6027  -28.3806   23.1110 C   0  0  2  0  0  0
  -20.6801  -26.9418   22.5445 C   0  0  0  0  0  0
  -19.5760  -26.6345   21.5291 C   0  0  0  0  0  0
  -18.1947  -26.7986   22.1630 C   0  0  0  0  0  0
  -19.1646  -28.8993   23.2730 C   0  0  0  0  0  0
  -18.9498  -30.1591   23.8768 C   0  0  0  0  0  0
  -17.6468  -30.6624   24.0559 C   0  0  0  0  0  0
  -25.9176  -34.9097   23.4770 C   0  0  0  0  0  0
  -16.5379  -29.9079   23.6335 C   0  0  0  0  0  0
  -16.7336  -28.6521   23.0328 C   0  0  0  0  0  0
  -26.4698  -31.6449   25.0600 C   0  0  0  0  0  0
  -25.3437  -31.3959   26.0937 C   0  0  0  0  0  0
  -27.0616  -30.2685   24.6985 C   0  0  0  0  0  0
  -27.6135  -32.4365   25.7367 C   0  0  0  0  0  0
  -27.5592  -37.1675   24.8426 C   0  0  0  0  0  0
  -21.4647  -29.3028   22.3436 N   0  0  0  0  0  0
  -26.4276  -37.3506   23.9368 N   0  0  0  0  0  0
  -24.8751  -30.7925   22.0681 N   0  0  0  0  0  0
  -23.4296  -28.7550   23.3146 O   0  0  0  0  0  0
  -27.9417  -24.4650   20.0529 O   0  0  0  0  0  0
  -26.5940  -34.8807   22.4472 O   0  0  0  0  0  0
  -23.6330  -32.0668   23.5583 O   0  0  0  0  0  0
  -30.7644  -15.5392   16.7949 C   0  0  0  0  0  0
  -29.9814  -16.3645   17.8748 C   0  0  0  0  0  0
  -30.1995  -12.8860   17.5256 C   0  0  0  0  0  0
  -30.8568  -13.9859   16.6179 C   0  0  0  0  0  0
  -29.1101  -15.7203   19.0550 C   0  0  0  0  0  0
  -29.2799  -13.3099   18.7985 C   0  0  0  0  0  0
  -31.5313  -13.5061   15.3508 C   0  0  0  0  0  0
  -28.8977  -11.8617   19.3177 C   0  0  0  0  0  0
  -28.3027  -20.0996   19.4513 C   0  0  0  0  0  0
  -32.1769  -18.6816   20.7033 C   0  0  0  0  0  0
  -31.3052  -16.8886   22.3877 C   0  0  0  0  0  0
  -27.7937  -22.3498   19.9971 C   0  0  0  0  0  0
  -33.5013  -18.0941   20.1688 C   0  0  0  0  0  0
  -28.6928  -17.8106   19.8376 C   0  0  2  0  0  0
  -31.0859  -17.6138   21.0191 C   0  0  1  0  0  0
  -30.8111  -15.5134   22.3317 N   0  0  0  0  0  0
  -29.7052  -18.1776   20.9402 N   0  3  0  0  0  0
  -34.4636  -19.1279   19.9398 O   0  0  0  0  0  0
  -31.7400  -15.3629   18.9970 H   0  0  0  0  0  0
  -31.7926  -13.7360   18.9382 H   0  0  0  0  0  0
  -28.4247  -13.8504   16.3747 H   0  0  0  0  0  0
  -28.2261  -15.4550   16.6564 H   0  0  0  0  0  0
  -26.6549  -13.1713   17.9118 H   0  0  0  0  0  0
  -26.3750  -14.8462   18.1481 H   0  0  0  0  0  0
  -27.2571  -14.9612   20.4069 H   0  0  0  0  0  0
  -28.8699  -12.8942   21.6667 H   0  0  0  0  0  0
  -28.5561  -14.4816   22.0004 H   0  0  0  0  0  0
  -25.2710   -9.5926   22.4824 H   0  0  0  0  0  0
  -24.0013   -7.4787   22.7418 H   0  0  0  0  0  0
  -21.1090   -8.8656   19.8801 H   0  0  0  0  0  0
  -22.3732  -10.9590   19.5930 H   0  0  0  0  0  0
  -21.2074   -7.6187   23.9779 H   0  0  0  0  0  0
  -21.1760   -6.0569   25.9144 H   0  0  0  0  0  0
  -22.0390   -2.7613   23.2837 H   0  0  0  0  0  0
  -22.3321  -11.9242   22.5091 H   0  0  0  0  0  0
  -20.9862  -13.0002   22.3149 H   0  0  0  0  0  0
  -24.1314  -15.8245   20.5006 H   0  0  0  0  0  0
  -25.7792  -15.8775   20.1624 H   0  0  0  0  0  0
  -26.7829  -32.4454   23.0429 H   0  0  0  0  0  0
  -24.9783  -33.8847   24.9438 H   0  0  0  0  0  0
  -22.9476  -31.1527   21.2421 H   0  0  0  0  0  0
  -23.3763  -35.9409   23.3151 H   0  0  0  0  0  0
  -24.3597  -36.8988   22.2099 H   0  0  0  0  0  0
  -23.7320  -37.6215   23.6920 H   0  0  0  0  0  0
  -26.4838  -30.9075   20.6822 H   0  0  0  0  0  0
  -27.0157  -30.2941   22.1595 H   0  0  0  0  0  0
  -28.1578  -27.6710   21.3430 H   0  0  0  0  0  0
  -25.6451  -25.3373   18.8232 H   0  0  0  0  0  0
  -24.0622  -27.1107   18.8246 H   0  0  0  0  0  0
  -24.1163  -30.2800   19.3726 H   0  0  0  0  0  0
  -22.9571  -29.0586   19.7841 H   0  0  0  0  0  0
  -25.1437  -36.1356   25.0690 H   0  0  0  0  0  0
  -21.0034  -28.3434   24.1282 H   0  0  0  0  0  0
  -20.5636  -26.2418   23.3764 H   0  0  0  0  0  0
  -21.6618  -26.7298   22.1310 H   0  0  0  0  0  0
  -19.6844  -25.6225   21.1436 H   0  0  0  0  0  0
  -19.6730  -27.3048   20.6748 H   0  0  0  0  0  0
  -17.4249  -26.6812   21.4030 H   0  0  0  0  0  0
  -18.0220  -26.0219   22.9053 H   0  0  0  0  0  0
  -19.7942  -30.7489   24.2067 H   0  0  0  0  0  0
  -17.4955  -31.6255   24.5167 H   0  0  0  0  0  0
  -15.5327  -30.2870   23.7772 H   0  0  0  0  0  0
  -15.8778  -28.0812   22.7023 H   0  0  0  0  0  0
  -24.5771  -30.7289   25.6981 H   0  0  0  0  0  0
  -24.8435  -32.3213   26.3799 H   0  0  0  0  0  0
  -25.7165  -30.9323   27.0064 H   0  0  0  0  0  0
  -26.3264  -29.6096   24.2348 H   0  0  0  0  0  0
  -27.4131  -29.7473   25.5895 H   0  0  0  0  0  0
  -27.9339  -30.3656   24.0518 H   0  0  0  0  0  0
  -27.2829  -33.3886   26.1545 H   0  0  0  0  0  0
  -28.4107  -32.6570   25.0241 H   0  0  0  0  0  0
  -28.0656  -31.8735   26.5563 H   0  0  0  0  0  0
  -28.2480  -38.0068   24.7490 H   0  0  0  0  0  0
  -28.1214  -36.2609   24.6211 H   0  0  0  0  0  0
  -27.2324  -37.1232   25.8813 H   0  0  0  0  0  0
  -21.0060  -29.8637   21.6487 H   0  0  0  0  0  0
  -26.0087  -38.2541   24.1268 H   0  0  0  0  0  0
  -31.2934  -16.1155   16.0515 H   0  0  0  0  0  0
  -30.0446  -17.4418   17.7944 H   0  0  0  0  0  0
  -30.3520  -11.8421   17.2688 H   0  0  0  0  0  0
  -31.5916  -14.3125   14.6259 H   0  0  0  0  0  0
  -30.9174  -12.7295   14.8996 H   0  0  0  0  0  0
  -32.5361  -13.1235   15.5310 H   0  0  0  0  0  0
  -29.7995  -11.2999   19.5786 H   0  0  0  0  0  0
  -28.4398  -11.3158   18.4954 H   0  0  0  0  0  0
  -28.2331  -11.6615   20.1437 H   0  0  0  0  0  0
  -28.8696  -20.2405   18.5351 H   0  0  0  0  0  0
  -27.3003  -19.9047   19.0529 H   0  0  0  0  0  0
  -31.8169  -19.3210   19.8998 H   0  0  0  0  0  0
  -32.3456  -19.3315   21.5608 H   0  0  0  0  0  0
  -32.3584  -16.8750   22.6735 H   0  0  0  0  0  0
  -30.7928  -17.4278   23.1922 H   0  0  0  0  0  0
  -27.6838  -22.2173   21.0730 H   0  0  0  0  0  0
  -26.7644  -22.3373   19.6278 H   0  0  0  0  0  0
  -33.3110  -17.5793   19.2248 H   0  0  0  0  0  0
  -33.9021  -17.3264   20.8414 H   0  0  0  0  0  0
  -27.7634  -17.5599   20.3574 H   0  0  0  0  0  0
  -31.1552  -16.9439   20.1817 H   0  0  0  0  0  0
  -29.8634  -15.3443   22.6481 H   0  0  0  0  0  0
  -29.3058  -18.2898   21.8696 H   0  0  0  0  0  0
  -29.9477  -19.1462   20.7428 H   0  0  0  0  0  0
  -34.1406  -19.7186   19.2589 H   0  0  0  0  0  0
  1 25  1  0  0  0
  1 30  2  0  0  0
  1 86  1  0  0  0
  2  3  1  0  0  0
  2 25  1  0  0  0
  2 89  1  0  0  0
  2 90  1  0  0  0
  3  4  1  0  0  0
  3 91  1  0  0  0
  3 92  1  0  0  0
  4  5  1  0  0  0
  4 93  1  0  0  0
  4 94  1  0  0  0
  5  6  1  0  0  0
  5 26  1  0  0  0
  5 95  1  0  0  0
  6 25  1  0  0  0
  6 96  1  0  0  0
  6 97  1  0  0  0
  7  8  2  0  0  0
  7 26  1  0  0  0
  7 29  1  0  0  0
  8  9  1  0  0  0
  8 22  1  0  0  0
  9 10  1  0  0  0
  9 27  2  0  0  0
 10 11  2  0  0  0
 10 15  1  0  0  0
 11 12  1  0  0  0
 11 98  1  0  0  0
 12 13  2  0  0  0
 12 99  1  0  0  0
 13 14  1  0  0  0
 13 31  1  0  0  0
 14 15  2  0  0  0
 14100  1  0  0  0
 15101  1  0  0  0
 16 17  2  0  0  0
 16 21  1  0  0  0
 16 31  1  0  0  0
 17 18  1  0  0  0
 17102  1  0  0  0
 18 19  2  0  0  0
 18103  1  0  0  0
 19 20  1  0  0  0
 19 24  1  0  0  0
 20 21  2  0  0  0
 20104  1  0  0  0
 21 23  1  0  0  0
 22 28  1  0  0  0
 22 32  2  0  0  0
 26 27  1  0  0  0
 28105  1  0  0  0
 28106  1  0  0  0
 29107  1  0  0  0
 29108  1  0  0  0
 33 34  1  0  0  0
 33 66  1  0  0  0
 33 70  2  0  0  0
 34 36  1  0  0  0
 34 59  1  0  0  0
 34109  1  0  0  0
 35 44  2  0  0  0
 35 45  1  0  0  0
 35 68  1  0  0  0
 36 56  1  0  0  0
 36110  1  0  0  0
 37 39  1  0  0  0
 37 47  1  0  0  0
 37 66  1  0  0  0
 37111  1  0  0  0
 38 43  2  0  0  0
 38 46  1  0  0  0
 38 47  1  0  0  0
 39 64  1  0  0  0
 39 67  2  0  0  0
 40 52  1  0  0  0
 40 53  2  0  0  0
 40 58  1  0  0  0
 41112  1  0  0  0
 41113  1  0  0  0
 41114  1  0  0  0
 41 48  1  0  0  0
 42 43  1  0  0  0
 42 66  1  0  0  0
 42115  1  0  0  0
 42116  1  0  0  0
 43 44  1  0  0  0
 44117  1  0  0  0
 45 46  2  0  0  0
 45118  1  0  0  0
 46119  1  0  0  0
 47120  1  0  0  0
 47121  1  0  0  0
 48 56  1  0  0  0
 48 65  1  0  0  0
 48122  1  0  0  0
 49 50  1  0  0  0
 49 53  1  0  0  0
 49 64  1  0  0  0
 49123  1  0  0  0
 50 51  1  0  0  0
 50124  1  0  0  0
 50125  1  0  0  0
 51 52  1  0  0  0
 51126  1  0  0  0
 51127  1  0  0  0
 52128  1  0  0  0
 52129  1  0  0  0
 53 54  1  0  0  0
 54 55  2  0  0  0
 54130  1  0  0  0
 55 57  1  0  0  0
 55131  1  0  0  0
 56 69  2  0  0  0
 57 58  2  0  0  0
 57132  1  0  0  0
 58133  1  0  0  0
 59 60  1  0  0  0
 59 61  1  0  0  0
 59 62  1  0  0  0
 60134  1  0  0  0
 60135  1  0  0  0
 60136  1  0  0  0
 61137  1  0  0  0
 61138  1  0  0  0
 61139  1  0  0  0
 62140  1  0  0  0
 62141  1  0  0  0
 62142  1  0  0  0
 63 65  1  0  0  0
 63143  1  0  0  0
 63144  1  0  0  0
 63145  1  0  0  0
 64146  1  0  0  0
 65147  1  0  0  0
 68 82  1  0  0  0
 71 72  2  0  0  0
 71 74  1  0  0  0
 71148  1  0  0  0
 72 75  1  0  0  0
 72149  1  0  0  0
 73 74  2  0  0  0
 73 76  1  0  0  0
 73150  1  0  0  0
 74 77  1  0  0  0
 75 76  2  0  0  0
 75 84  1  0  0  0
 76 78  1  0  0  0
 77151  1  0  0  0
 77152  1  0  0  0
 77153  1  0  0  0
 78154  1  0  0  0
 78155  1  0  0  0
 78156  1  0  0  0
 79 82  1  0  0  0
 79157  1  0  0  0
 79158  1  0  0  0
 79 84  1  0  0  0
 80 83  1  0  0  0
 80159  1  0  0  0
 80160  1  0  0  0
 80 85  1  0  0  0
 81 85  1  0  0  0
 81 86  1  0  0  0
 81161  1  0  0  0
 81162  1  0  0  0
 82163  1  0  0  0
 82164  1  0  0  0
 83 88  1  0  0  0
 83165  1  0  0  0
 83166  1  0  0  0
 84 87  1  0  0  0
 84167  1  0  0  0
 85 87  1  0  0  0
 85168  1  0  0  0
 86169  1  0  0  0
 87170  1  0  0  0
 87171  1  0  0  0
 88172  1  0  0  0
M  CHG  1  87   1
M  ISO  4   1 100  68 101  82 101  86 100
M  END
> <chiral flag>
0

> <version>
0

> <s_m_source_file>
/data/baiqing/PycharmProjects/Reinvent-master-3.2/result/LINK_invent/BTK/process_docking_weight1_custom_sum_contain_oxygen_bond_distance_aromatic_linkinvent_7_9_3/rearranged_h_0101.sdf

> <i_m_source_file_index>
85

> <r_mmod_Potential_Energy-OPLS-2005>
16534.265625

> <r_mmod_Stretch_Energy-OPLS-2005>
9357.341796875

> <r_mmod_Bend_Energy-OPLS-2005>
1610.33044433594

> <r_mmod_Torsional_Energy-OPLS-2005>
364.430786132812

> <r_mmod_Improper_Torsional_Energy-OPLS-2005>
23.9151916503906

> <r_mmod_Van_der_Waal_Energy-OPLS-2005>
2705.9228515625

> <r_mmod_Electrostatic_Energy-OPLS-2005>
-310.156463623047

> <r_mmod_Solvation_Energy-OPLS-2005>
-522.849792480469

> <b_mmod_Minimization_Converged-OPLS-2005>
0

> <r_mmod_RMS_Derivative-OPLS-2005>
24.1386127471924

$$$$
85
                    3D
 Structure written by MMmdl.
172180  0  0  1  0            999 V2000
  -30.7090  -14.4937   20.6234 C   0  0  0  0  0  0
  -30.4504  -12.3392   19.4677 C   0  0  0  0  0  0
  -29.5365  -12.5217   18.2420 C   0  0  0  0  0  0
  -28.0536  -12.3689   18.6468 C   0  0  0  0  0  0
  -27.6756  -13.2156   19.8955 C   0  0  2  0  0  0
  -28.7107  -13.0057   21.0284 C   0  0  0  0  0  0
  -25.2650  -13.8033   20.5839 C   0  0  0  0  0  0
  -24.1863  -13.0261   20.9166 C   0  0  0  0  0  0
  -24.6456  -11.6782   20.8664 C   0  0  0  0  0  0
  -23.9064  -10.4180   21.0336 C   0  0  0  0  0  0
  -24.3592   -9.4157   21.9182 C   0  0  0  0  0  0
  -23.6230   -8.2242   22.0787 C   0  0  0  0  0  0
  -22.4244   -8.0274   21.3544 C   0  0  0  0  0  0
  -21.9854   -9.0238   20.4680 C   0  0  0  0  0  0
  -22.7191  -10.2094   20.3045 C   0  0  0  0  0  0
  -21.6863   -6.0687   22.5261 C   0  0  0  0  0  0
  -21.4046   -6.5615   23.8196 C   0  0  0  0  0  0
  -21.3631   -5.6757   24.9143 C   0  0  0  0  0  0
  -21.6037   -4.3030   24.7198 C   0  0  0  0  0  0
  -21.8831   -3.8126   23.4335 C   0  0  0  0  0  0
  -21.9191   -4.6914   22.3385 C   0  0  0  0  0  0
  -22.7924  -13.5201   21.1702 C   0  0  0  0  0  0
  -22.1661   -4.2112   21.0960 F   0  0  0  0  0  0
  -21.5591   -3.4525   25.7715 F   0  0  0  0  0  0
  -30.0546  -13.3070   20.4955 N   0  0  0  0  0  0
  -26.3091  -12.9253   20.3468 N   0  0  0  0  0  0
  -25.9419  -11.6389   20.5837 N   0  0  0  0  0  0
  -22.0488  -12.8281   22.0292 N   0  0  0  0  0  0
  -25.4214  -15.1658   20.4427 N   0  0  0  0  0  0
  -31.7626  -14.7335   20.0323 O   0  0  0  0  0  0
  -21.6614   -6.8848   21.4232 O   0  0  0  0  0  0
  -22.3606  -14.5393   20.6394 O   0  0  0  0  0  0
  -24.6178  -31.8684   23.2055 C   0  0  0  0  0  0
  -25.9086  -32.4805   23.8347 C   0  0  1  0  0  0
  -27.2553  -27.4189   20.1342 C   0  0  0  0  0  0
  -25.5940  -33.8582   24.2301 N   0  0  0  0  0  0
  -23.4030  -30.4961   21.5410 C   0  0  2  0  0  0
  -24.8579  -28.9478   20.1253 C   0  0  0  0  0  0
  -22.7375  -29.4789   22.4984 C   0  0  0  0  0  0
  -18.0297  -28.1420   22.8650 C   0  0  0  0  0  0
  -24.1513  -36.7316   23.2661 C   0  0  0  0  0  0
  -25.9368  -30.8339   21.3559 C   0  0  0  0  0  0
  -26.0207  -29.4633   20.7125 C   0  0  0  0  0  0
  -27.2268  -28.7164   20.7042 C   0  0  0  0  0  0
  -26.0815  -26.9287   19.5218 C   0  0  0  0  0  0
  -24.8914  -27.6790   19.5226 C   0  0  0  0  0  0
  -23.6222  -29.8261   20.1610 C   0  0  0  0  0  0
  -25.4119  -36.3067   24.0369 C   0  0  1  0  0  0
  -20.5889  -28.3712   23.1376 C   0  0  2  0  0  0
  -20.6710  -26.9553   22.5080 C   0  0  0  0  0  0
  -19.5611  -26.6952   21.4767 C   0  0  0  0  0  0
  -18.1939  -26.8130   22.1660 C   0  0  0  0  0  0
  -19.1631  -28.8873   23.3061 C   0  0  0  0  0  0
  -18.9609  -30.1460   23.9192 C   0  0  0  0  0  0
  -17.6578  -30.6622   24.0644 C   0  0  0  0  0  0
  -25.8980  -34.9454   23.5062 C   0  0  0  0  0  0
  -16.5502  -29.9170   23.6499 C   0  0  0  0  0  0
  -16.7283  -28.6438   23.0697 C   0  0  0  0  0  0
  -26.4479  -31.6546   25.0680 C   0  0  0  0  0  0
  -25.3766  -31.3692   26.1464 C   0  0  0  0  0  0
  -27.0318  -30.2991   24.6062 C   0  0  0  0  0  0
  -27.6005  -32.4282   25.7487 C   0  0  0  0  0  0
  -27.5573  -37.1831   24.8479 C   0  0  0  0  0  0
  -21.4039  -29.3223   22.3780 N   0  0  0  0  0  0
  -26.4280  -37.3801   23.9397 N   0  0  0  0  0  0
  -24.6694  -31.0831   22.0902 N   0  0  0  0  0  0
  -23.4160  -28.8211   23.2950 O   0  0  0  0  0  0
  -28.3936  -26.6241   20.2041 O   0  0  0  0  0  0
  -26.5609  -34.8948   22.4629 O   0  0  0  0  0  0
  -23.5385  -32.1438   23.7441 O   0  0  0  0  0  0
  -28.7485  -19.9589   21.5873 C   0  0  0  0  0  0
  -28.4357  -18.9635   20.6998 C   0  0  0  0  0  0
  -27.5859  -19.5626   19.6930 C   0  0  0  0  0  0
  -27.1664  -20.7748   20.2369 C   0  0  0  0  0  0
  -25.9627  -21.6553   19.9299 C   0  0  0  0  0  0
  -26.2847  -19.7181   17.3814 C   0  0  0  0  0  0
  -26.5663  -17.4775   18.4155 C   0  0  0  0  0  0
  -30.4183  -25.6272   22.0332 C   0  0  0  0  0  0
  -28.7584  -17.4602   20.8310 C   0  0  0  0  0  0
  -29.4219  -23.2487   22.0344 C   0  0  0  0  0  0
  -28.1023  -22.3842   22.0458 C   0  0  0  0  0  0
  -30.1725  -16.9185   21.2096 C   0  0  0  0  0  0
  -28.2063  -25.3291   20.8338 C   0  0  0  0  0  0
  -27.1673  -18.9000   18.3351 C   0  0  0  0  0  0
  -29.5311  -24.6267   21.2465 C   0  0  2  0  0  0
  -28.0521  -21.1110   21.2674 N   0  0  0  0  0  0
  -30.0895  -15.4418   21.3520 N   0  0  0  0  0  0
  -31.4970  -12.4507   19.1747 H   0  0  0  0  0  0
  -30.3692  -11.3227   19.8620 H   0  0  0  0  0  0
  -29.8069  -11.7943   17.4783 H   0  0  0  0  0  0
  -29.7267  -13.5109   17.8077 H   0  0  0  0  0  0
  -27.8830  -11.3117   18.8658 H   0  0  0  0  0  0
  -27.4112  -12.6223   17.8075 H   0  0  0  0  0  0
  -27.7220  -14.2660   19.6051 H   0  0  0  0  0  0
  -28.6979  -11.9670   21.3733 H   0  0  0  0  0  0
  -28.4551  -13.6044   21.8981 H   0  0  0  0  0  0
  -25.2745   -9.5591   22.4737 H   0  0  0  0  0  0
  -23.9873   -7.4641   22.7562 H   0  0  0  0  0  0
  -21.0765   -8.8789   19.9018 H   0  0  0  0  0  0
  -22.3694  -10.9618   19.6151 H   0  0  0  0  0  0
  -21.2124   -7.6154   23.9678 H   0  0  0  0  0  0
  -21.1409   -6.0512   25.9030 H   0  0  0  0  0  0
  -22.0646   -2.7596   23.2852 H   0  0  0  0  0  0
  -22.4094  -12.0047   22.4822 H   0  0  0  0  0  0
  -21.1145  -13.1462   22.2437 H   0  0  0  0  0  0
  -24.6176  -15.7837   20.4400 H   0  0  0  0  0  0
  -26.2521  -15.5882   20.0578 H   0  0  0  0  0  0
  -26.7215  -32.5581   23.1138 H   0  0  0  0  0  0
  -25.0117  -33.9730   25.0477 H   0  0  0  0  0  0
  -22.6961  -31.3238   21.4054 H   0  0  0  0  0  0
  -23.3720  -35.9684   23.3269 H   0  0  0  0  0  0
  -24.3643  -36.8964   22.2079 H   0  0  0  0  0  0
  -23.7304  -37.6533   23.6669 H   0  0  0  0  0  0
  -26.0592  -31.5856   20.5741 H   0  0  0  0  0  0
  -26.8193  -30.8881   21.9844 H   0  0  0  0  0  0
  -28.1208  -29.1215   21.1615 H   0  0  0  0  0  0
  -26.0982  -25.9511   19.0652 H   0  0  0  0  0  0
  -24.0122  -27.2607   19.0548 H   0  0  0  0  0  0
  -23.7504  -30.6022   19.4032 H   0  0  0  0  0  0
  -22.7344  -29.2733   19.8496 H   0  0  0  0  0  0
  -25.1287  -36.1890   25.0890 H   0  0  0  0  0  0
  -20.9944  -28.3070   24.1440 H   0  0  0  0  0  0
  -20.5330  -26.2370   23.3202 H   0  0  0  0  0  0
  -21.6778  -26.7502   22.1319 H   0  0  0  0  0  0
  -19.6646  -25.7275   20.9769 H   0  0  0  0  0  0
  -19.6105  -27.4442   20.6855 H   0  0  0  0  0  0
  -17.3760  -26.6820   21.4486 H   0  0  0  0  0  0
  -18.0943  -26.0405   22.9227 H   0  0  0  0  0  0
  -19.7974  -30.7368   24.2679 H   0  0  0  0  0  0
  -17.5051  -31.6230   24.5188 H   0  0  0  0  0  0
  -15.5563  -30.3314   23.7656 H   0  0  0  0  0  0
  -15.8499  -28.0820   22.7837 H   0  0  0  0  0  0
  -24.5903  -30.7041   25.7871 H   0  0  0  0  0  0
  -24.8995  -32.2873   26.4922 H   0  0  0  0  0  0
  -25.8159  -30.8900   27.0224 H   0  0  0  0  0  0
  -26.2866  -29.6757   24.1111 H   0  0  0  0  0  0
  -27.4095  -29.7245   25.4514 H   0  0  0  0  0  0
  -27.8685  -30.4325   23.9200 H   0  0  0  0  0  0
  -27.2555  -33.3572   26.2077 H   0  0  0  0  0  0
  -28.3834  -32.6894   25.0336 H   0  0  0  0  0  0
  -28.0640  -31.8412   26.5445 H   0  0  0  0  0  0
  -28.2620  -38.0119   24.7496 H   0  0  0  0  0  0
  -28.1048  -36.2629   24.6265 H   0  0  0  0  0  0
  -27.2329  -37.1493   25.8921 H   0  0  0  0  0  0
  -20.9007  -29.8773   21.6925 H   0  0  0  0  0  0
  -26.0112  -38.2883   24.1305 H   0  0  0  0  0  0
  -29.3473  -19.9448   22.4968 H   0  0  0  0  0  0
  -25.0716  -21.1015   19.6387 H   0  0  0  0  0  0
  -26.1768  -22.3998   19.1664 H   0  0  0  0  0  0
  -25.5640  -22.1530   20.8197 H   0  0  0  0  0  0
  -26.6898  -20.7084   17.1869 H   0  0  0  0  0  0
  -25.2572  -19.8081   17.7331 H   0  0  0  0  0  0
  -26.2185  -19.1970   16.4229 H   0  0  0  0  0  0
  -27.3012  -16.7011   18.2084 H   0  0  0  0  0  0
  -25.7835  -17.2687   17.6807 H   0  0  0  0  0  0
  -26.1191  -17.2979   19.3815 H   0  0  0  0  0  0
  -29.9946  -25.8758   23.0145 H   0  0  0  0  0  0
  -31.4284  -25.2399   22.1753 H   0  0  0  0  0  0
  -30.5301  -26.5708   21.4882 H   0  0  0  0  0  0
  -28.4744  -16.9118   19.9339 H   0  0  0  0  0  0
  -28.0613  -17.1290   21.6057 H   0  0  0  0  0  0
  -30.2858  -22.6336   21.7747 H   0  0  0  0  0  0
  -29.5825  -23.4744   23.0862 H   0  0  0  0  0  0
  -27.2489  -23.0248   21.8411 H   0  0  0  0  0  0
  -27.9730  -22.0658   23.0876 H   0  0  0  0  0  0
  -30.4794  -17.3337   22.1667 H   0  0  0  0  0  0
  -30.9329  -17.1869   20.4753 H   0  0  0  0  0  0
  -27.6668  -24.6599   20.1495 H   0  0  0  0  0  0
  -27.5920  -25.4607   21.7266 H   0  0  0  0  0  0
  -28.1106  -18.7941   17.7970 H   0  0  0  0  0  0
  -30.0640  -24.4058   20.3218 H   0  0  0  0  0  0
  -29.3500  -15.1254   21.9559 H   0  0  0  0  0  0
  1 25  1  0  0  0
  1 30  2  0  0  0
  1 87  1  0  0  0
  2  3  1  0  0  0
  2 25  1  0  0  0
  2 88  1  0  0  0
  2 89  1  0  0  0
  3  4  1  0  0  0
  3 90  1  0  0  0
  3 91  1  0  0  0
  4  5  1  0  0  0
  4 92  1  0  0  0
  4 93  1  0  0  0
  5  6  1  0  0  0
  5 26  1  0  0  0
  5 94  1  0  0  0
  6 25  1  0  0  0
  6 95  1  0  0  0
  6 96  1  0  0  0
  7  8  2  0  0  0
  7 26  1  0  0  0
  7 29  1  0  0  0
  8  9  1  0  0  0
  8 22  1  0  0  0
  9 10  1  0  0  0
  9 27  2  0  0  0
 10 11  2  0  0  0
 10 15  1  0  0  0
 11 12  1  0  0  0
 11 97  1  0  0  0
 12 13  2  0  0  0
 12 98  1  0  0  0
 13 14  1  0  0  0
 13 31  1  0  0  0
 14 15  2  0  0  0
 14 99  1  0  0  0
 15100  1  0  0  0
 16 17  2  0  0  0
 16 21  1  0  0  0
 16 31  1  0  0  0
 17 18  1  0  0  0
 17101  1  0  0  0
 18 19  2  0  0  0
 18102  1  0  0  0
 19 20  1  0  0  0
 19 24  1  0  0  0
 20 21  2  0  0  0
 20103  1  0  0  0
 21 23  1  0  0  0
 22 28  1  0  0  0
 22 32  2  0  0  0
 26 27  1  0  0  0
 28104  1  0  0  0
 28105  1  0  0  0
 29106  1  0  0  0
 29107  1  0  0  0
 33 34  1  0  0  0
 33 66  1  0  0  0
 33 70  2  0  0  0
 34 36  1  0  0  0
 34 59  1  0  0  0
 34108  1  0  0  0
 35 44  2  0  0  0
 35 45  1  0  0  0
 35 68  1  0  0  0
 36 56  1  0  0  0
 36109  1  0  0  0
 37 39  1  0  0  0
 37 47  1  0  0  0
 37 66  1  0  0  0
 37110  1  0  0  0
 38 43  2  0  0  0
 38 46  1  0  0  0
 38 47  1  0  0  0
 39 64  1  0  0  0
 39 67  2  0  0  0
 40 52  1  0  0  0
 40 53  2  0  0  0
 40 58  1  0  0  0
 41111  1  0  0  0
 41112  1  0  0  0
 41113  1  0  0  0
 41 48  1  0  0  0
 42 43  1  0  0  0
 42 66  1  0  0  0
 42114  1  0  0  0
 42115  1  0  0  0
 43 44  1  0  0  0
 44116  1  0  0  0
 45 46  2  0  0  0
 45117  1  0  0  0
 46118  1  0  0  0
 47119  1  0  0  0
 47120  1  0  0  0
 48 56  1  0  0  0
 48 65  1  0  0  0
 48121  1  0  0  0
 49 50  1  0  0  0
 49 53  1  0  0  0
 49 64  1  0  0  0
 49122  1  0  0  0
 50 51  1  0  0  0
 50123  1  0  0  0
 50124  1  0  0  0
 51 52  1  0  0  0
 51125  1  0  0  0
 51126  1  0  0  0
 52127  1  0  0  0
 52128  1  0  0  0
 53 54  1  0  0  0
 54 55  2  0  0  0
 54129  1  0  0  0
 55 57  1  0  0  0
 55130  1  0  0  0
 56 69  2  0  0  0
 57 58  2  0  0  0
 57131  1  0  0  0
 58132  1  0  0  0
 59 60  1  0  0  0
 59 61  1  0  0  0
 59 62  1  0  0  0
 60133  1  0  0  0
 60134  1  0  0  0
 60135  1  0  0  0
 61136  1  0  0  0
 61137  1  0  0  0
 61138  1  0  0  0
 62139  1  0  0  0
 62140  1  0  0  0
 62141  1  0  0  0
 63 65  1  0  0  0
 63142  1  0  0  0
 63143  1  0  0  0
 63144  1  0  0  0
 64145  1  0  0  0
 65146  1  0  0  0
 68 83  1  0  0  0
 71 72  2  0  0  0
 71 86  1  0  0  0
 71147  1  0  0  0
 72 73  1  0  0  0
 72 79  1  0  0  0
 73 74  2  0  0  0
 73 84  1  0  0  0
 74 75  1  0  0  0
 74 86  1  0  0  0
 75148  1  0  0  0
 75149  1  0  0  0
 75150  1  0  0  0
 76151  1  0  0  0
 76152  1  0  0  0
 76153  1  0  0  0
 76 84  1  0  0  0
 77 84  1  0  0  0
 77154  1  0  0  0
 77155  1  0  0  0
 77156  1  0  0  0
 78157  1  0  0  0
 78158  1  0  0  0
 78159  1  0  0  0
 78 85  1  0  0  0
 79 82  1  0  0  0
 79160  1  0  0  0
 79161  1  0  0  0
 80 81  1  0  0  0
 80 85  1  0  0  0
 80162  1  0  0  0
 80163  1  0  0  0
 81 86  1  0  0  0
 81164  1  0  0  0
 81165  1  0  0  0
 82 87  1  0  0  0
 82166  1  0  0  0
 82167  1  0  0  0
 83 85  1  0  0  0
 83168  1  0  0  0
 83169  1  0  0  0
 84170  1  0  0  0
 85171  1  0  0  0
 87172  1  0  0  0
M  ISO  4   1 100  68 101  83 101  87 100
M  END
> <chiral flag>
0

> <version>
0

> <s_m_source_file>
/data/baiqing/PycharmProjects/Reinvent-master-3.2/result/LINK_invent/BTK/process_docking_weight1_custom_sum_contain_oxygen_bond_distance_aromatic_linkinvent_7_9_3/rearranged_h_0101.sdf

> <i_m_source_file_index>
86

> <r_mmod_Potential_Energy-OPLS-2005>
48.6445121765137

> <r_mmod_Stretch_Energy-OPLS-2005>
64.4074783325195

> <r_mmod_Bend_Energy-OPLS-2005>
155.762390136719

> <r_mmod_Torsional_Energy-OPLS-2005>
304.491790771484

> <r_mmod_Improper_Torsional_Energy-OPLS-2005>
6.49942111968994

> <r_mmod_Van_der_Waal_Energy-OPLS-2005>
126.474967956543

> <r_mmod_Electrostatic_Energy-OPLS-2005>
-425.186187744141

> <r_mmod_Solvation_Energy-OPLS-2005>
-204.153854370117

> <b_mmod_Minimization_Converged-OPLS-2005>
0

> <r_mmod_RMS_Derivative-OPLS-2005>
18.0789833068848

$$$$
86
                    3D
 Structure written by MMmdl.
162170  0  0  1  0            999 V2000
  -30.5278  -14.9625   20.4176 C   0  0  0  0  0  0
  -30.4319  -12.5968   19.5053 C   0  0  0  0  0  0
  -29.5170  -12.5334   18.2600 C   0  0  0  0  0  0
  -28.0547  -12.3064   18.6837 C   0  0  0  0  0  0
  -27.6269  -13.2440   19.8432 C   0  0  2  0  0  0
  -28.6651  -13.2797   20.9849 C   0  0  0  0  0  0
  -25.2459  -13.8194   20.5711 C   0  0  0  0  0  0
  -24.1771  -13.0425   20.9212 C   0  0  0  0  0  0
  -24.6377  -11.6905   20.8740 C   0  0  0  0  0  0
  -23.9070  -10.4277   21.0400 C   0  0  0  0  0  0
  -24.3619   -9.4197   21.9184 C   0  0  0  0  0  0
  -23.6291   -8.2234   22.0762 C   0  0  0  0  0  0
  -22.4277   -8.0268   21.3552 C   0  0  0  0  0  0
  -21.9910   -9.0238   20.4654 C   0  0  0  0  0  0
  -22.7238  -10.2114   20.3058 C   0  0  0  0  0  0
  -21.6855   -6.0730   22.5275 C   0  0  0  0  0  0
  -21.4022   -6.5645   23.8204 C   0  0  0  0  0  0
  -21.3654   -5.6803   24.9169 C   0  0  0  0  0  0
  -21.6039   -4.3064   24.7225 C   0  0  0  0  0  0
  -21.8822   -3.8146   23.4349 C   0  0  0  0  0  0
  -21.9200   -4.6959   22.3401 C   0  0  0  0  0  0
  -22.7797  -13.5204   21.1864 C   0  0  0  0  0  0
  -22.1667   -4.2139   21.0977 F   0  0  0  0  0  0
  -21.5618   -3.4546   25.7736 F   0  0  0  0  0  0
  -29.9381  -13.6977   20.3855 N   0  0  0  0  0  0
  -26.2864  -12.9408   20.3265 N   0  0  0  0  0  0
  -25.9307  -11.6539   20.5741 N   0  0  0  0  0  0
  -22.0470  -12.8184   22.0423 N   0  0  0  0  0  0
  -25.4164  -15.1908   20.4115 N   0  0  0  0  0  0
  -31.7280  -15.0230   20.1304 O   0  0  0  0  0  0
  -21.6657   -6.8858   21.4232 O   0  0  0  0  0  0
  -22.3484  -14.5514   20.6715 O   0  0  0  0  0  0
  -24.6463  -31.8423   23.1856 C   0  0  0  0  0  0
  -25.9216  -32.4681   23.8255 C   0  0  1  0  0  0
  -27.2105  -27.1103   20.1532 C   0  0  0  0  0  0
  -25.5981  -33.8499   24.2177 N   0  0  0  0  0  0
  -23.4517  -30.4605   21.5332 C   0  0  2  0  0  0
  -24.8977  -28.8818   20.1119 C   0  0  0  0  0  0
  -22.7592  -29.4548   22.4865 C   0  0  0  0  0  0
  -18.0309  -28.1399   22.8490 C   0  0  0  0  0  0
  -24.1488  -36.7255   23.2646 C   0  0  0  0  0  0
  -26.0081  -30.7069   21.3867 C   0  0  0  0  0  0
  -26.0769  -29.3139   20.7332 C   0  0  0  0  0  0
  -27.2373  -28.4462   20.7336 C   0  0  0  0  0  0
  -26.0104  -26.7908   19.4833 C   0  0  0  0  0  0
  -24.8810  -27.6347   19.4691 C   0  0  0  0  0  0
  -23.6770  -29.7886   20.1532 C   0  0  0  0  0  0
  -25.4118  -36.3037   24.0317 C   0  0  1  0  0  0
  -20.5920  -28.3726   23.1236 C   0  0  2  0  0  0
  -20.6798  -26.9428   22.5406 C   0  0  0  0  0  0
  -19.5773  -26.6385   21.5225 C   0  0  0  0  0  0
  -18.1946  -26.7943   22.1623 C   0  0  0  0  0  0
  -19.1558  -28.8882   23.2857 C   0  0  0  0  0  0
  -18.9483  -30.1484   23.8882 C   0  0  0  0  0  0
  -17.6475  -30.6598   24.0567 C   0  0  0  0  0  0
  -25.9080  -34.9410   23.5058 C   0  0  0  0  0  0
  -16.5371  -29.9088   23.6342 C   0  0  0  0  0  0
  -16.7289  -28.6505   23.0358 C   0  0  0  0  0  0
  -26.4518  -31.6561   25.0717 C   0  0  0  0  0  0
  -25.3679  -31.3742   26.1403 C   0  0  0  0  0  0
  -27.0370  -30.2955   24.6283 C   0  0  0  0  0  0
  -27.6076  -32.4313   25.7473 C   0  0  0  0  0  0
  -27.5566  -37.1779   24.8468 C   0  0  0  0  0  0
  -21.4272  -29.3059   22.3620 N   0  0  0  0  0  0
  -26.4272  -37.3765   23.9423 N   0  0  0  0  0  0
  -24.7228  -31.0248   22.0907 N   0  0  0  0  0  0
  -23.4226  -28.8104   23.3031 O   0  0  0  0  0  0
  -28.2511  -26.1065   20.1691 O   0  0  0  0  0  0
  -26.5657  -34.8925   22.4628 O   0  0  0  0  0  0
  -23.5576  -32.1320   23.7047 O   0  0  0  0  0  0
  -28.6442  -21.8545   20.4585 C   0  0  0  0  0  0
  -29.7256  -23.4333   18.9834 C   0  0  0  0  0  0
  -28.7900  -23.2688   20.0127 C   0  0  0  0  0  0
  -29.3770  -20.6616   19.9413 C   0  0  0  0  0  0
  -30.4637  -22.3528   18.4235 C   0  0  0  0  0  0
  -30.2888  -20.9982   18.8883 C   0  0  0  0  0  0
  -31.0487  -19.8651   18.2045 C   0  0  0  0  0  0
  -31.9238  -24.1344   17.1931 C   0  0  0  0  0  0
  -30.7369  -22.3291   15.9017 C   0  0  0  0  0  0
  -29.1069  -19.0631   20.4017 C   0  0  0  0  0  0
  -27.9412  -24.6037   20.5005 C   0  0  0  0  0  0
  -30.1138  -17.6809   20.2530 C   0  0  0  0  0  0
  -31.4063  -22.6804   17.2445 C   0  0  0  0  0  0
  -29.7576  -16.1588   20.5530 N   0  0  0  0  0  0
  -31.4678  -12.7502   19.2009 H   0  0  0  0  0  0
  -30.4188  -11.6437   20.0354 H   0  0  0  0  0  0
  -29.8391  -11.7318   17.5943 H   0  0  0  0  0  0
  -29.5974  -13.4612   17.6903 H   0  0  0  0  0  0
  -27.9678  -11.2661   19.0032 H   0  0  0  0  0  0
  -27.3843  -12.4209   17.8312 H   0  0  0  0  0  0
  -27.5904  -14.2445   19.4121 H   0  0  0  0  0  0
  -28.7547  -12.3068   21.4711 H   0  0  0  0  0  0
  -28.3579  -13.9817   21.7617 H   0  0  0  0  0  0
  -25.2760   -9.5682   22.4767 H   0  0  0  0  0  0
  -24.0006   -7.4633   22.7488 H   0  0  0  0  0  0
  -21.0845   -8.8744   19.8957 H   0  0  0  0  0  0
  -22.3686  -10.9650   19.6172 H   0  0  0  0  0  0
  -21.2024   -7.6155   23.9696 H   0  0  0  0  0  0
  -21.1467   -6.0540   25.9068 H   0  0  0  0  0  0
  -22.0606   -2.7604   23.2853 H   0  0  0  0  0  0
  -22.4140  -11.9856   22.4787 H   0  0  0  0  0  0
  -21.1080  -13.1170   22.2641 H   0  0  0  0  0  0
  -24.6477  -15.8432   20.5186 H   0  0  0  0  0  0
  -26.2602  -15.6260   20.0622 H   0  0  0  0  0  0
  -26.7285  -32.5271   23.0981 H   0  0  0  0  0  0
  -25.0152  -33.9623   25.0335 H   0  0  0  0  0  0
  -22.7567  -31.2874   21.3767 H   0  0  0  0  0  0
  -23.3766  -35.9575   23.3280 H   0  0  0  0  0  0
  -24.3593  -36.8911   22.2074 H   0  0  0  0  0  0
  -23.7221  -37.6432   23.6694 H   0  0  0  0  0  0
  -26.1574  -31.4553   20.6082 H   0  0  0  0  0  0
  -26.8831  -30.7653   22.0222 H   0  0  0  0  0  0
  -28.1385  -28.7776   21.2298 H   0  0  0  0  0  0
  -25.9299  -25.8466   18.9632 H   0  0  0  0  0  0
  -23.9876  -27.3048   18.9559 H   0  0  0  0  0  0
  -23.8158  -30.5651   19.4005 H   0  0  0  0  0  0
  -22.7912  -29.2320   19.8427 H   0  0  0  0  0  0
  -25.1288  -36.1868   25.0805 H   0  0  0  0  0  0
  -20.9991  -28.3314   24.1370 H   0  0  0  0  0  0
  -20.5706  -26.2344   23.3623 H   0  0  0  0  0  0
  -21.6659  -26.7466   22.1187 H   0  0  0  0  0  0
  -19.6946  -25.6293   21.1267 H   0  0  0  0  0  0
  -19.6705  -27.3195   20.6755 H   0  0  0  0  0  0
  -17.4217  -26.6708   21.4018 H   0  0  0  0  0  0
  -18.0329  -26.0082   22.9012 H   0  0  0  0  0  0
  -19.7961  -30.7307   24.2229 H   0  0  0  0  0  0
  -17.5033  -31.6277   24.5169 H   0  0  0  0  0  0
  -15.5367  -30.2976   23.7688 H   0  0  0  0  0  0
  -15.8697  -28.0830   22.7060 H   0  0  0  0  0  0
  -24.5918  -30.7018   25.7710 H   0  0  0  0  0  0
  -24.8783  -32.2906   26.4720 H   0  0  0  0  0  0
  -25.7960  -30.9006   27.0248 H   0  0  0  0  0  0
  -26.2975  -29.6687   24.1289 H   0  0  0  0  0  0
  -27.3983  -29.7261   25.4853 H   0  0  0  0  0  0
  -27.8890  -30.4184   23.9589 H   0  0  0  0  0  0
  -27.2732  -33.3704   26.1888 H   0  0  0  0  0  0
  -28.3950  -32.6705   25.0310 H   0  0  0  0  0  0
  -28.0649  -31.8512   26.5496 H   0  0  0  0  0  0
  -28.2560  -38.0093   24.7531 H   0  0  0  0  0  0
  -28.1073  -36.2628   24.6249 H   0  0  0  0  0  0
  -27.2298  -37.1369   25.8872 H   0  0  0  0  0  0
  -20.9485  -29.8765   21.6790 H   0  0  0  0  0  0
  -26.0133  -38.2830   24.1436 H   0  0  0  0  0  0
  -27.8999  -21.6727   21.2218 H   0  0  0  0  0  0
  -29.8380  -24.4353   18.6006 H   0  0  0  0  0  0
  -31.7025  -19.3662   18.9191 H   0  0  0  0  0  0
  -31.6888  -20.1371   17.3724 H   0  0  0  0  0  0
  -30.3352  -19.1615   17.7771 H   0  0  0  0  0  0
  -32.3670  -24.4381   18.1414 H   0  0  0  0  0  0
  -31.1407  -24.8484   16.9365 H   0  0  0  0  0  0
  -32.6945  -24.2392   16.4280 H   0  0  0  0  0  0
  -30.4229  -21.2873   15.8566 H   0  0  0  0  0  0
  -31.4120  -22.4939   15.0619 H   0  0  0  0  0  0
  -29.8483  -22.9395   15.7360 H   0  0  0  0  0  0
  -28.1742  -18.8012   19.9006 H   0  0  0  0  0  0
  -28.8270  -19.1264   21.4542 H   0  0  0  0  0  0
  -27.9592  -24.5552   21.5899 H   0  0  0  0  0  0
  -26.9063  -24.3835   20.2457 H   0  0  0  0  0  0
  -31.0332  -17.8909   20.8002 H   0  0  0  0  0  0
  -30.4109  -17.5926   19.2137 H   0  0  0  0  0  0
  -32.3165  -22.0927   17.3628 H   0  0  0  0  0  0
  -28.7900  -15.9914   20.7880 H   0  0  0  0  0  0
  1 25  1  0  0  0
  1 30  2  0  0  0
  1 84  1  0  0  0
  2  3  1  0  0  0
  2 25  1  0  0  0
  2 85  1  0  0  0
  2 86  1  0  0  0
  3  4  1  0  0  0
  3 87  1  0  0  0
  3 88  1  0  0  0
  4  5  1  0  0  0
  4 89  1  0  0  0
  4 90  1  0  0  0
  5  6  1  0  0  0
  5 26  1  0  0  0
  5 91  1  0  0  0
  6 25  1  0  0  0
  6 92  1  0  0  0
  6 93  1  0  0  0
  7  8  2  0  0  0
  7 26  1  0  0  0
  7 29  1  0  0  0
  8  9  1  0  0  0
  8 22  1  0  0  0
  9 10  1  0  0  0
  9 27  2  0  0  0
 10 11  2  0  0  0
 10 15  1  0  0  0
 11 12  1  0  0  0
 11 94  1  0  0  0
 12 13  2  0  0  0
 12 95  1  0  0  0
 13 14  1  0  0  0
 13 31  1  0  0  0
 14 15  2  0  0  0
 14 96  1  0  0  0
 15 97  1  0  0  0
 16 17  2  0  0  0
 16 21  1  0  0  0
 16 31  1  0  0  0
 17 18  1  0  0  0
 17 98  1  0  0  0
 18 19  2  0  0  0
 18 99  1  0  0  0
 19 20  1  0  0  0
 19 24  1  0  0  0
 20 21  2  0  0  0
 20100  1  0  0  0
 21 23  1  0  0  0
 22 28  1  0  0  0
 22 32  2  0  0  0
 26 27  1  0  0  0
 28101  1  0  0  0
 28102  1  0  0  0
 29103  1  0  0  0
 29104  1  0  0  0
 33 34  1  0  0  0
 33 66  1  0  0  0
 33 70  2  0  0  0
 34 36  1  0  0  0
 34 59  1  0  0  0
 34105  1  0  0  0
 35 44  2  0  0  0
 35 45  1  0  0  0
 35 68  1  0  0  0
 36 56  1  0  0  0
 36106  1  0  0  0
 37 39  1  0  0  0
 37 47  1  0  0  0
 37 66  1  0  0  0
 37107  1  0  0  0
 38 43  2  0  0  0
 38 46  1  0  0  0
 38 47  1  0  0  0
 39 64  1  0  0  0
 39 67  2  0  0  0
 40 52  1  0  0  0
 40 53  2  0  0  0
 40 58  1  0  0  0
 41108  1  0  0  0
 41109  1  0  0  0
 41110  1  0  0  0
 41 48  1  0  0  0
 42 43  1  0  0  0
 42 66  1  0  0  0
 42111  1  0  0  0
 42112  1  0  0  0
 43 44  1  0  0  0
 44113  1  0  0  0
 45 46  2  0  0  0
 45114  1  0  0  0
 46115  1  0  0  0
 47116  1  0  0  0
 47117  1  0  0  0
 48 56  1  0  0  0
 48 65  1  0  0  0
 48118  1  0  0  0
 49 50  1  0  0  0
 49 53  1  0  0  0
 49 64  1  0  0  0
 49119  1  0  0  0
 50 51  1  0  0  0
 50120  1  0  0  0
 50121  1  0  0  0
 51 52  1  0  0  0
 51122  1  0  0  0
 51123  1  0  0  0
 52124  1  0  0  0
 52125  1  0  0  0
 53 54  1  0  0  0
 54 55  2  0  0  0
 54126  1  0  0  0
 55 57  1  0  0  0
 55127  1  0  0  0
 56 69  2  0  0  0
 57 58  2  0  0  0
 57128  1  0  0  0
 58129  1  0  0  0
 59 60  1  0  0  0
 59 61  1  0  0  0
 59 62  1  0  0  0
 60130  1  0  0  0
 60131  1  0  0  0
 60132  1  0  0  0
 61133  1  0  0  0
 61134  1  0  0  0
 61135  1  0  0  0
 62136  1  0  0  0
 62137  1  0  0  0
 62138  1  0  0  0
 63 65  1  0  0  0
 63139  1  0  0  0
 63140  1  0  0  0
 63141  1  0  0  0
 64142  1  0  0  0
 65143  1  0  0  0
 68 81  1  0  0  0
 71 73  2  0  0  0
 71 74  1  0  0  0
 71144  1  0  0  0
 72 73  1  0  0  0
 72 75  2  0  0  0
 72145  1  0  0  0
 73 81  1  0  0  0
 74 76  2  0  0  0
 74 80  1  0  0  0
 75 76  1  0  0  0
 75 83  1  0  0  0
 76 77  1  0  0  0
 77146  1  0  0  0
 77147  1  0  0  0
 77148  1  0  0  0
 78149  1  0  0  0
 78150  1  0  0  0
 78151  1  0  0  0
 78 83  1  0  0  0
 79 83  1  0  0  0
 79152  1  0  0  0
 79153  1  0  0  0
 79154  1  0  0  0
 80 82  1  0  0  0
 80155  1  0  0  0
 80156  1  0  0  0
 81157  1  0  0  0
 81158  1  0  0  0
 82 84  1  0  0  0
 82159  1  0  0  0
 82160  1  0  0  0
 83161  1  0  0  0
 84162  1  0  0  0
M  ISO  4   1 100  68 101  81 101  84 100
M  END
> <chiral flag>
0

> <version>
0

> <s_m_source_file>
/data/baiqing/PycharmProjects/Reinvent-master-3.2/result/LINK_invent/BTK/process_docking_weight1_custom_sum_contain_oxygen_bond_distance_aromatic_linkinvent_7_9_3/rearranged_h_0101.sdf

> <i_m_source_file_index>
87

> <r_mmod_Potential_Energy-OPLS-2005>
542.367980957031

> <r_mmod_Stretch_Energy-OPLS-2005>
295.764434814453

> <r_mmod_Bend_Energy-OPLS-2005>
264.623931884766

> <r_mmod_Torsional_Energy-OPLS-2005>
224.215759277344

> <r_mmod_Improper_Torsional_Energy-OPLS-2005>
5.41268157958984

> <r_mmod_Van_der_Waal_Energy-OPLS-2005>
148.117874145508

> <r_mmod_Electrostatic_Energy-OPLS-2005>
-395.129028320312

> <r_mmod_Solvation_Energy-OPLS-2005>
-208.081192016602

> <b_mmod_Minimization_Converged-OPLS-2005>
0

> <r_mmod_RMS_Derivative-OPLS-2005>
2.7649564743042

$$$$
87
                    3D
 Structure written by MMmdl.
167175  0  0  1  0            999 V2000
  -30.5525  -14.9685   20.4117 C   0  0  0  0  0  0
  -30.4384  -12.6031   19.4944 C   0  0  0  0  0  0
  -29.5174  -12.5244   18.2560 C   0  0  0  0  0  0
  -28.0536  -12.3049   18.6807 C   0  0  0  0  0  0
  -27.6230  -13.2466   19.8356 C   0  0  2  0  0  0
  -28.6702  -13.2994   20.9689 C   0  0  0  0  0  0
  -25.2335  -13.8015   20.5746 C   0  0  0  0  0  0
  -24.1694  -13.0272   20.9283 C   0  0  0  0  0  0
  -24.6367  -11.6802   20.8776 C   0  0  0  0  0  0
  -23.9063  -10.4203   21.0411 C   0  0  0  0  0  0
  -24.3615   -9.4136   21.9192 C   0  0  0  0  0  0
  -23.6278   -8.2187   22.0755 C   0  0  0  0  0  0
  -22.4259   -8.0240   21.3545 C   0  0  0  0  0  0
  -21.9904   -9.0209   20.4643 C   0  0  0  0  0  0
  -22.7241  -10.2075   20.3051 C   0  0  0  0  0  0
  -21.6840   -6.0714   22.5282 C   0  0  0  0  0  0
  -21.3995   -6.5625   23.8211 C   0  0  0  0  0  0
  -21.3653   -5.6785   24.9180 C   0  0  0  0  0  0
  -21.6048   -4.3047   24.7234 C   0  0  0  0  0  0
  -21.8821   -3.8136   23.4357 C   0  0  0  0  0  0
  -21.9187   -4.6945   22.3412 C   0  0  0  0  0  0
  -22.7728  -13.5086   21.1917 C   0  0  0  0  0  0
  -22.1663   -4.2134   21.0988 F   0  0  0  0  0  0
  -21.5633   -3.4535   25.7750 F   0  0  0  0  0  0
  -29.9432  -13.7126   20.3604 N   0  0  0  0  0  0
  -26.2837  -12.9356   20.3264 N   0  0  0  0  0  0
  -25.9314  -11.6479   20.5765 N   0  0  0  0  0  0
  -22.0376  -12.8102   22.0481 N   0  0  0  0  0  0
  -25.3735  -15.1677   20.4156 N   0  0  0  0  0  0
  -31.7626  -15.0136   20.1696 O   0  0  0  0  0  0
  -21.6614   -6.8849   21.4243 O   0  0  0  0  0  0
  -22.3445  -14.5410   20.6759 O   0  0  0  0  0  0
  -24.6416  -31.8452   23.1847 C   0  0  0  0  0  0
  -25.9184  -32.4704   23.8239 C   0  0  1  0  0  0
  -27.2357  -27.1457   20.1690 C   0  0  0  0  0  0
  -25.5934  -33.8505   24.2170 N   0  0  0  0  0  0
  -23.4477  -30.4597   21.5286 C   0  0  2  0  0  0
  -24.9024  -28.8801   20.1168 C   0  0  0  0  0  0
  -22.7568  -29.4539   22.4836 C   0  0  0  0  0  0
  -18.0307  -28.1399   22.8498 C   0  0  0  0  0  0
  -24.1488  -36.7257   23.2647 C   0  0  0  0  0  0
  -26.0014  -30.7226   21.3806 C   0  0  0  0  0  0
  -26.0773  -29.3307   20.7312 C   0  0  0  0  0  0
  -27.2467  -28.4826   20.7355 C   0  0  0  0  0  0
  -26.0342  -26.7880   19.5216 C   0  0  0  0  0  0
  -24.8920  -27.6203   19.4957 C   0  0  0  0  0  0
  -23.6786  -29.7819   20.1515 C   0  0  0  0  0  0
  -25.4123  -36.3043   24.0327 C   0  0  1  0  0  0
  -20.5928  -28.3722   23.1234 C   0  0  2  0  0  0
  -20.6795  -26.9423   22.5402 C   0  0  0  0  0  0
  -19.5766  -26.6392   21.5213 C   0  0  0  0  0  0
  -18.1947  -26.7935   22.1631 C   0  0  0  0  0  0
  -19.1569  -28.8874   23.2864 C   0  0  0  0  0  0
  -18.9478  -30.1469   23.8892 C   0  0  0  0  0  0
  -17.6477  -30.6596   24.0570 C   0  0  0  0  0  0
  -25.9071  -34.9420   23.5060 C   0  0  0  0  0  0
  -16.5371  -29.9094   23.6341 C   0  0  0  0  0  0
  -16.7288  -28.6508   23.0372 C   0  0  0  0  0  0
  -26.4510  -31.6571   25.0675 C   0  0  0  0  0  0
  -25.3711  -31.3762   26.1389 C   0  0  0  0  0  0
  -27.0372  -30.2973   24.6228 C   0  0  0  0  0  0
  -27.6041  -32.4338   25.7474 C   0  0  0  0  0  0
  -27.5576  -37.1789   24.8471 C   0  0  0  0  0  0
  -21.4257  -29.3054   22.3599 N   0  0  0  0  0  0
  -26.4282  -37.3764   23.9420 N   0  0  0  0  0  0
  -24.7165  -31.0310   22.0870 N   0  0  0  0  0  0
  -23.4210  -28.8103   23.2999 O   0  0  0  0  0  0
  -28.3169  -26.1934   20.1847 O   0  0  0  0  0  0
  -26.5660  -34.8915   22.4643 O   0  0  0  0  0  0
  -23.5532  -32.1305   23.7071 O   0  0  0  0  0  0
  -29.5420  -20.7033   18.5245 C   0  0  0  0  0  0
  -29.5787  -20.4321   19.9021 C   0  0  0  0  0  0
  -29.2050  -19.0013   20.1586 C   0  0  0  0  0  0
  -27.9831  -18.6848   19.5264 C   0  0  0  0  0  0
  -27.6258  -19.4169   18.3675 C   0  0  0  0  0  0
  -27.1166  -17.5603   20.0303 C   0  0  0  0  0  0
  -22.9763  -21.4269   18.1725 C   0  0  0  0  0  0
  -28.9637  -21.7777   20.6412 C   0  0  0  0  0  0
  -30.1626  -17.7129   20.5859 C   0  0  0  0  0  0
  -26.2635  -19.3033   17.6949 C   0  0  0  0  0  0
  -23.8890  -20.3205   17.6256 C   0  0  0  0  0  0
  -28.9975  -23.3590   20.0134 C   0  0  0  0  0  0
  -25.2922  -20.3635   18.2514 C   0  0  0  0  0  0
  -28.1237  -24.6945   20.5600 C   0  0  0  0  0  0
  -28.4699  -20.3089   17.8074 N   0  0  0  0  0  0
  -29.7912  -16.1667   20.5337 N   0  0  0  0  0  0
  -31.4698  -12.7627   19.1765 H   0  0  0  0  0  0
  -30.4390  -11.6585   20.0411 H   0  0  0  0  0  0
  -29.8401  -11.7194   17.5950 H   0  0  0  0  0  0
  -29.5985  -13.4464   17.6795 H   0  0  0  0  0  0
  -27.9609  -11.2666   19.0012 H   0  0  0  0  0  0
  -27.3869  -12.4178   17.8250 H   0  0  0  0  0  0
  -27.5744  -14.2425   19.3951 H   0  0  0  0  0  0
  -28.7655  -12.3317   21.4645 H   0  0  0  0  0  0
  -28.3664  -14.0130   21.7364 H   0  0  0  0  0  0
  -25.2756   -9.5612   22.4776 H   0  0  0  0  0  0
  -23.9977   -7.4572   22.7471 H   0  0  0  0  0  0
  -21.0838   -8.8729   19.8949 H   0  0  0  0  0  0
  -22.3704  -10.9619   19.6163 H   0  0  0  0  0  0
  -21.1974   -7.6131   23.9708 H   0  0  0  0  0  0
  -21.1479   -6.0519   25.9082 H   0  0  0  0  0  0
  -22.0606   -2.7597   23.2864 H   0  0  0  0  0  0
  -22.4000  -11.9772   22.4878 H   0  0  0  0  0  0
  -21.0993  -13.1123   22.2673 H   0  0  0  0  0  0
  -24.5790  -15.7905   20.5049 H   0  0  0  0  0  0
  -26.1830  -15.6054   20.0045 H   0  0  0  0  0  0
  -26.7255  -32.5310   23.0968 H   0  0  0  0  0  0
  -25.0061  -33.9617   25.0298 H   0  0  0  0  0  0
  -22.7495  -31.2838   21.3677 H   0  0  0  0  0  0
  -23.3752  -35.9582   23.3298 H   0  0  0  0  0  0
  -24.3568  -36.8898   22.2061 H   0  0  0  0  0  0
  -23.7233  -37.6449   23.6680 H   0  0  0  0  0  0
  -26.1539  -31.4719   20.6034 H   0  0  0  0  0  0
  -26.8724  -30.7786   22.0217 H   0  0  0  0  0  0
  -28.1443  -28.8334   21.2250 H   0  0  0  0  0  0
  -25.9637  -25.8268   19.0323 H   0  0  0  0  0  0
  -23.9978  -27.2693   19.0002 H   0  0  0  0  0  0
  -23.8181  -30.5517   19.3916 H   0  0  0  0  0  0
  -22.7944  -29.2241   19.8392 H   0  0  0  0  0  0
  -25.1306  -36.1867   25.0821 H   0  0  0  0  0  0
  -21.0030  -28.3302   24.1351 H   0  0  0  0  0  0
  -20.5683  -26.2329   23.3615 H   0  0  0  0  0  0
  -21.6657  -26.7430   22.1202 H   0  0  0  0  0  0
  -19.6920  -25.6297   21.1254 H   0  0  0  0  0  0
  -19.6699  -27.3192   20.6731 H   0  0  0  0  0  0
  -17.4220  -26.6695   21.4031 H   0  0  0  0  0  0
  -18.0345  -26.0061   22.9013 H   0  0  0  0  0  0
  -19.7948  -30.7301   24.2251 H   0  0  0  0  0  0
  -17.5025  -31.6273   24.5177 H   0  0  0  0  0  0
  -15.5374  -30.3007   23.7637 H   0  0  0  0  0  0
  -15.8692  -28.0819   22.7099 H   0  0  0  0  0  0
  -24.5885  -30.7112   25.7725 H   0  0  0  0  0  0
  -24.8896  -32.2947   26.4758 H   0  0  0  0  0  0
  -25.8008  -30.8980   27.0201 H   0  0  0  0  0  0
  -26.2965  -29.6702   24.1247 H   0  0  0  0  0  0
  -27.4028  -29.7263   25.4770 H   0  0  0  0  0  0
  -27.8862  -30.4232   23.9503 H   0  0  0  0  0  0
  -27.2632  -33.3666   26.1976 H   0  0  0  0  0  0
  -28.3898  -32.6858   25.0342 H   0  0  0  0  0  0
  -28.0650  -31.8505   26.5457 H   0  0  0  0  0  0
  -28.2600  -38.0078   24.7523 H   0  0  0  0  0  0
  -28.1063  -36.2613   24.6290 H   0  0  0  0  0  0
  -27.2288  -37.1430   25.8872 H   0  0  0  0  0  0
  -20.9440  -29.8767   21.6800 H   0  0  0  0  0  0
  -26.0139  -38.2830   24.1425 H   0  0  0  0  0  0
  -29.9582  -21.6217   18.1390 H   0  0  0  0  0  0
  -27.2346  -16.7062   19.3654 H   0  0  0  0  0  0
  -26.0676  -17.8578   20.0530 H   0  0  0  0  0  0
  -27.3850  -17.2725   21.0474 H   0  0  0  0  0  0
  -21.9827  -21.3692   17.7271 H   0  0  0  0  0  0
  -23.3796  -22.4172   17.9537 H   0  0  0  0  0  0
  -22.8587  -21.3469   19.2537 H   0  0  0  0  0  0
  -29.4165  -21.8107   21.6326 H   0  0  0  0  0  0
  -27.9159  -21.5406   20.8259 H   0  0  0  0  0  0
  -30.4647  -17.9073   21.6153 H   0  0  0  0  0  0
  -31.0809  -17.8196   20.0069 H   0  0  0  0  0  0
  -25.8536  -18.3018   17.8134 H   0  0  0  0  0  0
  -26.3839  -19.4446   16.6197 H   0  0  0  0  0  0
  -23.9651  -20.4188   16.5420 H   0  0  0  0  0  0
  -23.4299  -19.3485   17.8144 H   0  0  0  0  0  0
  -28.7168  -23.2857   18.9629 H   0  0  0  0  0  0
  -30.0463  -23.6554   19.9969 H   0  0  0  0  0  0
  -25.7285  -21.3527   18.1011 H   0  0  0  0  0  0
  -25.2039  -20.2358   19.3310 H   0  0  0  0  0  0
  -28.2346  -24.6921   21.6453 H   0  0  0  0  0  0
  -27.0746  -24.4442   20.4089 H   0  0  0  0  0  0
  -28.8059  -15.9989   20.6522 H   0  0  0  0  0  0
  1 25  1  0  0  0
  1 30  2  0  0  0
  1 86  1  0  0  0
  2  3  1  0  0  0
  2 25  1  0  0  0
  2 87  1  0  0  0
  2 88  1  0  0  0
  3  4  1  0  0  0
  3 89  1  0  0  0
  3 90  1  0  0  0
  4  5  1  0  0  0
  4 91  1  0  0  0
  4 92  1  0  0  0
  5  6  1  0  0  0
  5 26  1  0  0  0
  5 93  1  0  0  0
  6 25  1  0  0  0
  6 94  1  0  0  0
  6 95  1  0  0  0
  7  8  2  0  0  0
  7 26  1  0  0  0
  7 29  1  0  0  0
  8  9  1  0  0  0
  8 22  1  0  0  0
  9 10  1  0  0  0
  9 27  2  0  0  0
 10 11  2  0  0  0
 10 15  1  0  0  0
 11 12  1  0  0  0
 11 96  1  0  0  0
 12 13  2  0  0  0
 12 97  1  0  0  0
 13 14  1  0  0  0
 13 31  1  0  0  0
 14 15  2  0  0  0
 14 98  1  0  0  0
 15 99  1  0  0  0
 16 17  2  0  0  0
 16 21  1  0  0  0
 16 31  1  0  0  0
 17 18  1  0  0  0
 17100  1  0  0  0
 18 19  2  0  0  0
 18101  1  0  0  0
 19 20  1  0  0  0
 19 24  1  0  0  0
 20 21  2  0  0  0
 20102  1  0  0  0
 21 23  1  0  0  0
 22 28  1  0  0  0
 22 32  2  0  0  0
 26 27  1  0  0  0
 28103  1  0  0  0
 28104  1  0  0  0
 29105  1  0  0  0
 29106  1  0  0  0
 33 34  1  0  0  0
 33 66  1  0  0  0
 33 70  2  0  0  0
 34 36  1  0  0  0
 34 59  1  0  0  0
 34107  1  0  0  0
 35 44  2  0  0  0
 35 45  1  0  0  0
 35 68  1  0  0  0
 36 56  1  0  0  0
 36108  1  0  0  0
 37 39  1  0  0  0
 37 47  1  0  0  0
 37 66  1  0  0  0
 37109  1  0  0  0
 38 43  2  0  0  0
 38 46  1  0  0  0
 38 47  1  0  0  0
 39 64  1  0  0  0
 39 67  2  0  0  0
 40 52  1  0  0  0
 40 53  2  0  0  0
 40 58  1  0  0  0
 41110  1  0  0  0
 41111  1  0  0  0
 41112  1  0  0  0
 41 48  1  0  0  0
 42 43  1  0  0  0
 42 66  1  0  0  0
 42113  1  0  0  0
 42114  1  0  0  0
 43 44  1  0  0  0
 44115  1  0  0  0
 45 46  2  0  0  0
 45116  1  0  0  0
 46117  1  0  0  0
 47118  1  0  0  0
 47119  1  0  0  0
 48 56  1  0  0  0
 48 65  1  0  0  0
 48120  1  0  0  0
 49 50  1  0  0  0
 49 53  1  0  0  0
 49 64  1  0  0  0
 49121  1  0  0  0
 50 51  1  0  0  0
 50122  1  0  0  0
 50123  1  0  0  0
 51 52  1  0  0  0
 51124  1  0  0  0
 51125  1  0  0  0
 52126  1  0  0  0
 52127  1  0  0  0
 53 54  1  0  0  0
 54 55  2  0  0  0
 54128  1  0  0  0
 55 57  1  0  0  0
 55129  1  0  0  0
 56 69  2  0  0  0
 57 58  2  0  0  0
 57130  1  0  0  0
 58131  1  0  0  0
 59 60  1  0  0  0
 59 61  1  0  0  0
 59 62  1  0  0  0
 60132  1  0  0  0
 60133  1  0  0  0
 60134  1  0  0  0
 61135  1  0  0  0
 61136  1  0  0  0
 61137  1  0  0  0
 62138  1  0  0  0
 62139  1  0  0  0
 62140  1  0  0  0
 63 65  1  0  0  0
 63141  1  0  0  0
 63142  1  0  0  0
 63143  1  0  0  0
 64144  1  0  0  0
 65145  1  0  0  0
 68 84  1  0  0  0
 71 72  2  0  0  0
 71 85  1  0  0  0
 71146  1  0  0  0
 72 73  1  0  0  0
 72 78  1  0  0  0
 73 74  2  0  0  0
 73 79  1  0  0  0
 74 75  1  0  0  0
 74 76  1  0  0  0
 75 80  1  0  0  0
 75 85  2  0  0  0
 76147  1  0  0  0
 76148  1  0  0  0
 76149  1  0  0  0
 77 81  1  0  0  0
 77150  1  0  0  0
 77151  1  0  0  0
 77152  1  0  0  0
 78 82  1  0  0  0
 78153  1  0  0  0
 78154  1  0  0  0
 79 86  1  0  0  0
 79155  1  0  0  0
 79156  1  0  0  0
 80 83  1  0  0  0
 80157  1  0  0  0
 80158  1  0  0  0
 81 83  1  0  0  0
 81159  1  0  0  0
 81160  1  0  0  0
 82 84  1  0  0  0
 82161  1  0  0  0
 82162  1  0  0  0
 83163  1  0  0  0
 83164  1  0  0  0
 84165  1  0  0  0
 84166  1  0  0  0
 86167  1  0  0  0
M  ISO  4   1 100  68 101  84 101  86 100
M  END
> <chiral flag>
0

> <version>
0

> <s_m_source_file>
/data/baiqing/PycharmProjects/Reinvent-master-3.2/result/LINK_invent/BTK/process_docking_weight1_custom_sum_contain_oxygen_bond_distance_aromatic_linkinvent_7_9_3/rearranged_h_0101.sdf

> <i_m_source_file_index>
88

> <r_mmod_Potential_Energy-OPLS-2005>
536.585815429688

> <r_mmod_Stretch_Energy-OPLS-2005>
276.206146240234

> <r_mmod_Bend_Energy-OPLS-2005>
280.450347900391

> <r_mmod_Torsional_Energy-OPLS-2005>
423.647369384766

> <r_mmod_Improper_Torsional_Energy-OPLS-2005>
31.1656646728516

> <r_mmod_Van_der_Waal_Energy-OPLS-2005>
139.875564575195

> <r_mmod_Electrostatic_Energy-OPLS-2005>
-587.746032714844

> <r_mmod_Solvation_Energy-OPLS-2005>
-220.321701049805

> <b_mmod_Minimization_Converged-OPLS-2005>
0

> <r_mmod_RMS_Derivative-OPLS-2005>
1.79389357566833

$$$$
88
                    3D
 Structure written by MMmdl.
164172  0  0  1  0            999 V2000
  -30.6348  -14.7101   20.4501 C   0  0  0  0  0  0
  -30.4184  -12.4225   19.4765 C   0  0  0  0  0  0
  -29.5050  -12.4945   18.2340 C   0  0  0  0  0  0
  -28.0277  -12.3354   18.6405 C   0  0  0  0  0  0
  -27.6387  -13.2338   19.8461 C   0  0  2  0  0  0
  -28.6838  -13.1657   20.9816 C   0  0  0  0  0  0
  -25.2490  -13.8194   20.5654 C   0  0  0  0  0  0
  -24.1794  -13.0446   20.9216 C   0  0  0  0  0  0
  -24.6389  -11.6917   20.8756 C   0  0  0  0  0  0
  -23.9067  -10.4297   21.0415 C   0  0  0  0  0  0
  -24.3620   -9.4205   21.9183 C   0  0  0  0  0  0
  -23.6292   -8.2241   22.0764 C   0  0  0  0  0  0
  -22.4282   -8.0275   21.3546 C   0  0  0  0  0  0
  -21.9911   -9.0253   20.4658 C   0  0  0  0  0  0
  -22.7242  -10.2136   20.3062 C   0  0  0  0  0  0
  -21.6860   -6.0723   22.5271 C   0  0  0  0  0  0
  -21.4010   -6.5624   23.8204 C   0  0  0  0  0  0
  -21.3671   -5.6792   24.9174 C   0  0  0  0  0  0
  -21.6044   -4.3053   24.7232 C   0  0  0  0  0  0
  -21.8820   -3.8133   23.4355 C   0  0  0  0  0  0
  -21.9193   -4.6945   22.3400 C   0  0  0  0  0  0
  -22.7829  -13.5247   21.1864 C   0  0  0  0  0  0
  -22.1670   -4.2118   21.0986 F   0  0  0  0  0  0
  -21.5623   -3.4543   25.7752 F   0  0  0  0  0  0
  -29.9886  -13.4977   20.3977 N   0  0  0  0  0  0
  -26.2922  -12.9414   20.3248 N   0  0  0  0  0  0
  -25.9322  -11.6555   20.5753 N   0  0  0  0  0  0
  -22.0473  -12.8234   22.0434 N   0  0  0  0  0  0
  -25.4146  -15.1908   20.3943 N   0  0  0  0  0  0
  -31.8274  -14.7867   20.1454 O   0  0  0  0  0  0
  -21.6656   -6.8865   21.4239 O   0  0  0  0  0  0
  -22.3516  -14.5544   20.6705 O   0  0  0  0  0  0
  -24.6351  -31.8539   23.2003 C   0  0  0  0  0  0
  -25.9151  -32.4758   23.8357 C   0  0  1  0  0  0
  -27.2060  -27.2311   20.1336 C   0  0  0  0  0  0
  -25.5946  -33.8553   24.2273 N   0  0  0  0  0  0
  -23.4332  -30.4792   21.5454 C   0  0  2  0  0  0
  -24.8787  -28.9307   20.1067 C   0  0  0  0  0  0
  -22.7530  -29.4604   22.4918 C   0  0  0  0  0  0
  -18.0294  -28.1374   22.8455 C   0  0  0  0  0  0
  -24.1492  -36.7270   23.2646 C   0  0  0  0  0  0
  -25.9852  -30.7545   21.3899 C   0  0  0  0  0  0
  -26.0540  -29.3796   20.7243 C   0  0  0  0  0  0
  -27.2214  -28.5433   20.7282 C   0  0  0  0  0  0
  -26.0141  -26.8742   19.4594 C   0  0  0  0  0  0
  -24.8683  -27.6878   19.4609 C   0  0  0  0  0  0
  -23.6512  -29.8192   20.1606 C   0  0  0  0  0  0
  -25.4121  -36.3063   24.0336 C   0  0  1  0  0  0
  -20.5908  -28.3710   23.1236 C   0  0  2  0  0  0
  -20.6802  -26.9422   22.5408 C   0  0  0  0  0  0
  -19.5774  -26.6344   21.5227 C   0  0  0  0  0  0
  -18.1967  -26.7895   22.1653 C   0  0  0  0  0  0
  -19.1547  -28.8864   23.2824 C   0  0  0  0  0  0
  -18.9465  -30.1475   23.8848 C   0  0  0  0  0  0
  -17.6460  -30.6588   24.0527 C   0  0  0  0  0  0
  -25.9058  -34.9436   23.5105 C   0  0  0  0  0  0
  -16.5360  -29.9066   23.6310 C   0  0  0  0  0  0
  -16.7285  -28.6473   23.0357 C   0  0  0  0  0  0
  -26.4478  -31.6595   25.0760 C   0  0  0  0  0  0
  -25.3685  -31.3777   26.1477 C   0  0  0  0  0  0
  -27.0356  -30.3001   24.6301 C   0  0  0  0  0  0
  -27.6025  -32.4355   25.7518 C   0  0  0  0  0  0
  -27.5578  -37.1792   24.8461 C   0  0  0  0  0  0
  -21.4232  -29.3052   22.3636 N   0  0  0  0  0  0
  -26.4286  -37.3768   23.9409 N   0  0  0  0  0  0
  -24.7037  -31.0479   22.1002 N   0  0  0  0  0  0
  -23.4217  -28.8140   23.3026 O   0  0  0  0  0  0
  -28.2652  -26.2838   20.2312 O   0  0  0  0  0  0
  -26.5635  -34.8909   22.4678 O   0  0  0  0  0  0
  -23.5487  -32.1387   23.7258 O   0  0  0  0  0  0
  -28.0597  -20.0990   21.2251 C   0  0  0  0  0  0
  -28.4153  -18.8090   21.3433 C   0  0  0  0  0  0
  -29.8363  -19.8149   19.9837 C   0  0  0  0  0  0
  -28.4244  -17.2249   23.3282 C   0  0  0  0  0  0
  -26.2203  -18.0283   22.3758 C   0  0  0  0  0  0
  -26.9778  -24.5578   21.5107 C   0  0  0  0  0  0
  -28.5631  -22.1329   19.7698 C   0  0  0  0  0  0
  -30.4104  -17.3061   20.5184 C   0  0  0  0  0  0
  -27.6835  -17.6772   22.0600 C   0  0  0  0  0  0
  -27.9358  -24.7969   20.3181 C   0  0  2  0  0  0
  -29.0406  -23.5847   20.3180 C   0  0  1  0  0  0
  -28.9369  -20.7774   20.3905 N   0  0  0  0  0  0
  -29.5491  -18.5852   20.5625 N   0  0  0  0  0  0
  -29.8929  -15.8660   20.6250 N   0  0  0  0  0  0
  -30.7574  -20.0191   19.1873 O   0  0  0  0  0  0
  -29.5857  -23.3629   21.6081 O   0  0  0  0  0  0
  -31.4652  -12.5148   19.1837 H   0  0  0  0  0  0
  -30.3340  -11.4479   19.9630 H   0  0  0  0  0  0
  -29.7796  -11.7226   17.5148 H   0  0  0  0  0  0
  -29.6444  -13.4486   17.7250 H   0  0  0  0  0  0
  -27.8656  -11.2868   18.8928 H   0  0  0  0  0  0
  -27.3768  -12.5424   17.7897 H   0  0  0  0  0  0
  -27.6321  -14.2558   19.4653 H   0  0  0  0  0  0
  -28.7046  -12.1682   21.4270 H   0  0  0  0  0  0
  -28.4312  -13.8572   21.7866 H   0  0  0  0  0  0
  -25.2763   -9.5675   22.4759 H   0  0  0  0  0  0
  -23.9980   -7.4634   22.7497 H   0  0  0  0  0  0
  -21.0823   -8.8778   19.8969 H   0  0  0  0  0  0
  -22.3689  -10.9667   19.6170 H   0  0  0  0  0  0
  -21.2007   -7.6134   23.9692 H   0  0  0  0  0  0
  -21.1502   -6.0530   25.9071 H   0  0  0  0  0  0
  -22.0590   -2.7590   23.2866 H   0  0  0  0  0  0
  -22.4107  -11.9900   22.4798 H   0  0  0  0  0  0
  -21.1086  -13.1223   22.2641 H   0  0  0  0  0  0
  -24.6448  -15.8385   20.5153 H   0  0  0  0  0  0
  -26.2460  -15.6249   20.0159 H   0  0  0  0  0  0
  -26.7224  -32.5374   23.1109 H   0  0  0  0  0  0
  -25.0083  -33.9702   25.0405 H   0  0  0  0  0  0
  -22.7312  -31.3040   21.4043 H   0  0  0  0  0  0
  -23.3768  -35.9588   23.3291 H   0  0  0  0  0  0
  -24.3581  -36.8898   22.2060 H   0  0  0  0  0  0
  -23.7215  -37.6459   23.6671 H   0  0  0  0  0  0
  -26.1406  -31.5142   20.6244 H   0  0  0  0  0  0
  -26.8584  -30.7943   22.0304 H   0  0  0  0  0  0
  -28.1130  -28.8721   21.2414 H   0  0  0  0  0  0
  -25.9192  -25.9324   18.9440 H   0  0  0  0  0  0
  -23.9704  -27.3444   18.9669 H   0  0  0  0  0  0
  -23.7772  -30.5989   19.4084 H   0  0  0  0  0  0
  -22.7677  -29.2568   19.8529 H   0  0  0  0  0  0
  -25.1296  -36.1922   25.0829 H   0  0  0  0  0  0
  -21.0007  -28.3272   24.1362 H   0  0  0  0  0  0
  -20.5714  -26.2357   23.3641 H   0  0  0  0  0  0
  -21.6683  -26.7430   22.1219 H   0  0  0  0  0  0
  -19.6925  -25.6222   21.1315 H   0  0  0  0  0  0
  -19.6692  -27.3079   20.6709 H   0  0  0  0  0  0
  -17.4217  -26.6554   21.4086 H   0  0  0  0  0  0
  -18.0409  -26.0097   22.9123 H   0  0  0  0  0  0
  -19.7941  -30.7298   24.2200 H   0  0  0  0  0  0
  -17.5011  -31.6274   24.5106 H   0  0  0  0  0  0
  -15.5356  -30.2959   23.7665 H   0  0  0  0  0  0
  -15.8679  -28.0769   22.7126 H   0  0  0  0  0  0
  -24.5836  -30.7150   25.7798 H   0  0  0  0  0  0
  -24.8914  -32.2978   26.4873 H   0  0  0  0  0  0
  -25.7981  -30.8951   27.0272 H   0  0  0  0  0  0
  -26.2984  -29.6733   24.1267 H   0  0  0  0  0  0
  -27.3960  -29.7267   25.4860 H   0  0  0  0  0  0
  -27.8887  -30.4276   23.9631 H   0  0  0  0  0  0
  -27.2619  -33.3670   26.2057 H   0  0  0  0  0  0
  -28.3831  -32.6902   25.0331 H   0  0  0  0  0  0
  -28.0707  -31.8522   26.5461 H   0  0  0  0  0  0
  -28.2588  -38.0101   24.7530 H   0  0  0  0  0  0
  -28.1092  -36.2631   24.6267 H   0  0  0  0  0  0
  -27.2306  -37.1413   25.8869 H   0  0  0  0  0  0
  -20.9424  -29.8729   21.6788 H   0  0  0  0  0  0
  -26.0163  -38.2841   24.1423 H   0  0  0  0  0  0
  -27.2023  -20.6148   21.6302 H   0  0  0  0  0  0
  -29.4633  -16.9618   23.1318 H   0  0  0  0  0  0
  -27.9442  -16.3492   23.7674 H   0  0  0  0  0  0
  -28.4268  -18.0109   24.0838 H   0  0  0  0  0  0
  -25.6836  -18.3199   21.4718 H   0  0  0  0  0  0
  -26.1411  -18.8462   23.0919 H   0  0  0  0  0  0
  -25.6949  -17.1675   22.7927 H   0  0  0  0  0  0
  -26.6352  -23.5219   21.5319 H   0  0  0  0  0  0
  -26.0809  -25.1722   21.4713 H   0  0  0  0  0  0
  -27.4669  -24.7656   22.4624 H   0  0  0  0  0  0
  -28.8392  -22.0796   18.7147 H   0  0  0  0  0  0
  -27.4728  -22.1461   19.7351 H   0  0  0  0  0  0
  -31.1483  -17.4214   21.3148 H   0  0  0  0  0  0
  -30.9924  -17.3513   19.5958 H   0  0  0  0  0  0
  -27.6444  -16.8385   21.3678 H   0  0  0  0  0  0
  -27.3879  -24.5820   19.4046 H   0  0  0  0  0  0
  -29.8683  -23.9030   19.6837 H   0  0  0  0  0  0
  -28.9135  -15.7345   20.8240 H   0  0  0  0  0  0
  -28.9166  -22.9359   22.1326 H   0  0  0  0  0  0
  1 25  1  0  0  0
  1 30  2  0  0  0
  1 84  1  0  0  0
  2  3  1  0  0  0
  2 25  1  0  0  0
  2 87  1  0  0  0
  2 88  1  0  0  0
  3  4  1  0  0  0
  3 89  1  0  0  0
  3 90  1  0  0  0
  4  5  1  0  0  0
  4 91  1  0  0  0
  4 92  1  0  0  0
  5  6  1  0  0  0
  5 26  1  0  0  0
  5 93  1  0  0  0
  6 25  1  0  0  0
  6 94  1  0  0  0
  6 95  1  0  0  0
  7  8  2  0  0  0
  7 26  1  0  0  0
  7 29  1  0  0  0
  8  9  1  0  0  0
  8 22  1  0  0  0
  9 10  1  0  0  0
  9 27  2  0  0  0
 10 11  2  0  0  0
 10 15  1  0  0  0
 11 12  1  0  0  0
 11 96  1  0  0  0
 12 13  2  0  0  0
 12 97  1  0  0  0
 13 14  1  0  0  0
 13 31  1  0  0  0
 14 15  2  0  0  0
 14 98  1  0  0  0
 15 99  1  0  0  0
 16 17  2  0  0  0
 16 21  1  0  0  0
 16 31  1  0  0  0
 17 18  1  0  0  0
 17100  1  0  0  0
 18 19  2  0  0  0
 18101  1  0  0  0
 19 20  1  0  0  0
 19 24  1  0  0  0
 20 21  2  0  0  0
 20102  1  0  0  0
 21 23  1  0  0  0
 22 28  1  0  0  0
 22 32  2  0  0  0
 26 27  1  0  0  0
 28103  1  0  0  0
 28104  1  0  0  0
 29105  1  0  0  0
 29106  1  0  0  0
 33 34  1  0  0  0
 33 66  1  0  0  0
 33 70  2  0  0  0
 34 36  1  0  0  0
 34 59  1  0  0  0
 34107  1  0  0  0
 35 44  2  0  0  0
 35 45  1  0  0  0
 35 68  1  0  0  0
 36 56  1  0  0  0
 36108  1  0  0  0
 37 39  1  0  0  0
 37 47  1  0  0  0
 37 66  1  0  0  0
 37109  1  0  0  0
 38 43  2  0  0  0
 38 46  1  0  0  0
 38 47  1  0  0  0
 39 64  1  0  0  0
 39 67  2  0  0  0
 40 52  1  0  0  0
 40 53  2  0  0  0
 40 58  1  0  0  0
 41110  1  0  0  0
 41111  1  0  0  0
 41112  1  0  0  0
 41 48  1  0  0  0
 42 43  1  0  0  0
 42 66  1  0  0  0
 42113  1  0  0  0
 42114  1  0  0  0
 43 44  1  0  0  0
 44115  1  0  0  0
 45 46  2  0  0  0
 45116  1  0  0  0
 46117  1  0  0  0
 47118  1  0  0  0
 47119  1  0  0  0
 48 56  1  0  0  0
 48 65  1  0  0  0
 48120  1  0  0  0
 49 50  1  0  0  0
 49 53  1  0  0  0
 49 64  1  0  0  0
 49121  1  0  0  0
 50 51  1  0  0  0
 50122  1  0  0  0
 50123  1  0  0  0
 51 52  1  0  0  0
 51124  1  0  0  0
 51125  1  0  0  0
 52126  1  0  0  0
 52127  1  0  0  0
 53 54  1  0  0  0
 54 55  2  0  0  0
 54128  1  0  0  0
 55 57  1  0  0  0
 55129  1  0  0  0
 56 69  2  0  0  0
 57 58  2  0  0  0
 57130  1  0  0  0
 58131  1  0  0  0
 59 60  1  0  0  0
 59 61  1  0  0  0
 59 62  1  0  0  0
 60132  1  0  0  0
 60133  1  0  0  0
 60134  1  0  0  0
 61135  1  0  0  0
 61136  1  0  0  0
 61137  1  0  0  0
 62138  1  0  0  0
 62139  1  0  0  0
 62140  1  0  0  0
 63 65  1  0  0  0
 63141  1  0  0  0
 63142  1  0  0  0
 63143  1  0  0  0
 64144  1  0  0  0
 65145  1  0  0  0
 68 80  1  0  0  0
 71 72  2  0  0  0
 71 82  1  0  0  0
 71146  1  0  0  0
 72 79  1  0  0  0
 72 83  1  0  0  0
 73 82  1  0  0  0
 73 83  1  0  0  0
 73 85  2  0  0  0
 74147  1  0  0  0
 74148  1  0  0  0
 74149  1  0  0  0
 74 79  1  0  0  0
 75 79  1  0  0  0
 75150  1  0  0  0
 75151  1  0  0  0
 75152  1  0  0  0
 76153  1  0  0  0
 76154  1  0  0  0
 76155  1  0  0  0
 76 80  1  0  0  0
 77 81  1  0  0  0
 77 82  1  0  0  0
 77156  1  0  0  0
 77157  1  0  0  0
 78 83  1  0  0  0
 78 84  1  0  0  0
 78158  1  0  0  0
 78159  1  0  0  0
 79160  1  0  0  0
 80 81  1  0  0  0
 80161  1  0  0  0
 81 86  1  0  0  0
 81162  1  0  0  0
 84163  1  0  0  0
 86164  1  0  0  0
M  ISO  4   1 100  68 101  80 101  84 100
M  END
> <chiral flag>
0

> <version>
0

> <s_m_source_file>
/data/baiqing/PycharmProjects/Reinvent-master-3.2/result/LINK_invent/BTK/process_docking_weight1_custom_sum_contain_oxygen_bond_distance_aromatic_linkinvent_7_9_3/rearranged_h_0101.sdf

> <i_m_source_file_index>
89

> <r_mmod_Potential_Energy-OPLS-2005>
310.642547607422

> <r_mmod_Stretch_Energy-OPLS-2005>
136.819519042969

> <r_mmod_Bend_Energy-OPLS-2005>
276.755859375

> <r_mmod_Torsional_Energy-OPLS-2005>
315.118743896484

> <r_mmod_Improper_Torsional_Energy-OPLS-2005>
6.46386575698853

> <r_mmod_Van_der_Waal_Energy-OPLS-2005>
115.894332885742

> <r_mmod_Electrostatic_Energy-OPLS-2005>
-385.889465332031

> <r_mmod_Solvation_Energy-OPLS-2005>
-247.772079467773

> <b_mmod_Minimization_Converged-OPLS-2005>
0

> <r_mmod_RMS_Derivative-OPLS-2005>
3.64449596405029

$$$$
89
                    3D
 Structure written by MMmdl.
163171  0  0  1  0            999 V2000
  -30.5298  -15.0057   20.3900 C   0  0  0  0  0  0
  -30.4537  -12.6279   19.5192 C   0  0  0  0  0  0
  -29.5300  -12.5422   18.2787 C   0  0  0  0  0  0
  -28.0779  -12.2779   18.7047 C   0  0  0  0  0  0
  -27.6377  -13.2357   19.8374 C   0  0  2  0  0  0
  -28.6727  -13.3088   20.9830 C   0  0  0  0  0  0
  -25.2490  -13.8081   20.5366 C   0  0  0  0  0  0
  -24.1769  -13.0421   20.9141 C   0  0  0  0  0  0
  -24.6397  -11.6905   20.8817 C   0  0  0  0  0  0
  -23.9050  -10.4300   21.0484 C   0  0  0  0  0  0
  -24.3616   -9.4214   21.9219 C   0  0  0  0  0  0
  -23.6326   -8.2248   22.0741 C   0  0  0  0  0  0
  -22.4322   -8.0253   21.3528 C   0  0  0  0  0  0
  -21.9927   -9.0241   20.4623 C   0  0  0  0  0  0
  -22.7234  -10.2138   20.3100 C   0  0  0  0  0  0
  -21.6857   -6.0735   22.5281 C   0  0  0  0  0  0
  -21.3974   -6.5641   23.8189 C   0  0  0  0  0  0
  -21.3669   -5.6781   24.9165 C   0  0  0  0  0  0
  -21.6068   -4.3056   24.7187 C   0  0  0  0  0  0
  -21.8834   -3.8137   23.4310 C   0  0  0  0  0  0
  -21.9215   -4.6974   22.3374 C   0  0  0  0  0  0
  -22.7829  -13.5284   21.1790 C   0  0  0  0  0  0
  -22.1680   -4.2150   21.0964 F   0  0  0  0  0  0
  -21.5647   -3.4532   25.7705 F   0  0  0  0  0  0
  -29.9559  -13.7311   20.3990 N   0  0  0  0  0  0
  -26.2951  -12.9316   20.3225 N   0  0  0  0  0  0
  -25.9367  -11.6484   20.5886 N   0  0  0  0  0  0
  -22.0495  -12.8304   22.0406 N   0  0  0  0  0  0
  -25.4118  -15.1598   20.3064 N   0  0  0  0  0  0
  -31.7028  -15.0777   20.0171 O   0  0  0  0  0  0
  -21.6639   -6.8891   21.4237 O   0  0  0  0  0  0
  -22.3515  -14.5579   20.6660 O   0  0  0  0  0  0
  -24.6388  -31.8463   23.1849 C   0  0  0  0  0  0
  -25.9137  -32.4731   23.8294 C   0  0  1  0  0  0
  -27.2325  -27.1289   20.1733 C   0  0  0  0  0  0
  -25.5907  -33.8553   24.2197 N   0  0  0  0  0  0
  -23.4464  -30.4628   21.5284 C   0  0  2  0  0  0
  -24.9059  -28.8889   20.1167 C   0  0  0  0  0  0
  -22.7554  -29.4534   22.4801 C   0  0  0  0  0  0
  -18.0318  -28.1388   22.8511 C   0  0  0  0  0  0
  -24.1502  -36.7281   23.2641 C   0  0  0  0  0  0
  -26.0050  -30.7231   21.3869 C   0  0  0  0  0  0
  -26.0835  -29.3296   20.7369 C   0  0  0  0  0  0
  -27.2444  -28.4667   20.7479 C   0  0  0  0  0  0
  -26.0320  -26.7991   19.5057 C   0  0  0  0  0  0
  -24.8940  -27.6344   19.4894 C   0  0  0  0  0  0
  -23.6803  -29.7897   20.1526 C   0  0  0  0  0  0
  -25.4125  -36.3069   24.0329 C   0  0  1  0  0  0
  -20.5937  -28.3704   23.1238 C   0  0  2  0  0  0
  -20.6803  -26.9409   22.5409 C   0  0  0  0  0  0
  -19.5758  -26.6381   21.5221 C   0  0  0  0  0  0
  -18.1943  -26.7928   22.1631 C   0  0  0  0  0  0
  -19.1576  -28.8874   23.2879 C   0  0  0  0  0  0
  -18.9464  -30.1470   23.8888 C   0  0  0  0  0  0
  -17.6454  -30.6588   24.0581 C   0  0  0  0  0  0
  -25.9071  -34.9439   23.5080 C   0  0  0  0  0  0
  -16.5353  -29.9085   23.6343 C   0  0  0  0  0  0
  -16.7297  -28.6504   23.0379 C   0  0  0  0  0  0
  -26.4482  -31.6575   25.0711 C   0  0  0  0  0  0
  -25.3675  -31.3756   26.1408 C   0  0  0  0  0  0
  -27.0314  -30.2967   24.6267 C   0  0  0  0  0  0
  -27.6026  -32.4316   25.7461 C   0  0  0  0  0  0
  -27.5579  -37.1795   24.8459 C   0  0  0  0  0  0
  -21.4241  -29.3028   22.3579 N   0  0  0  0  0  0
  -26.4289  -37.3757   23.9406 N   0  0  0  0  0  0
  -24.7160  -31.0334   22.0884 N   0  0  0  0  0  0
  -23.4185  -28.8062   23.2938 O   0  0  0  0  0  0
  -28.2839  -26.1336   20.2397 O   0  0  0  0  0  0
  -26.5653  -34.8926   22.4658 O   0  0  0  0  0  0
  -23.5482  -32.1322   23.7056 O   0  0  0  0  0  0
  -26.3108  -20.5490   21.2889 C   0  0  0  0  0  0
  -26.8558  -21.8118   21.0275 C   0  0  0  0  0  0
  -27.2969  -19.6235   21.1820 C   0  0  0  0  0  0
  -28.1723  -21.7194   20.6489 C   0  0  0  0  0  0
  -25.7839  -17.7244   22.0493 C   0  0  0  0  0  0
  -28.1588  -17.8745   22.7680 C   0  0  0  0  0  0
  -30.0292  -23.1656   19.3952 C   0  0  0  0  0  0
  -29.7166  -19.2678   20.4165 C   0  0  0  0  0  0
  -29.7112  -17.6266   19.8592 C   0  0  0  0  0  0
  -27.9571  -24.5989   20.2642 C   0  0  0  0  0  0
  -27.1865  -18.1862   21.6231 C   0  0  0  0  0  0
  -28.9059  -23.1862   20.4454 C   0  0  1  0  0  0
  -28.4722  -20.2241   20.6727 N   0  0  0  0  0  0
  -29.7566  -16.1943   20.5881 N   0  0  0  0  0  0
  -31.4844  -12.7912   19.1987 H   0  0  0  0  0  0
  -30.4564  -11.6825   20.0641 H   0  0  0  0  0  0
  -29.8733  -11.7540   17.6093 H   0  0  0  0  0  0
  -29.5750  -13.4696   17.7086 H   0  0  0  0  0  0
  -28.0423  -11.2455   19.0599 H   0  0  0  0  0  0
  -27.4004  -12.3525   17.8502 H   0  0  0  0  0  0
  -27.5949  -14.2253   19.3877 H   0  0  0  0  0  0
  -28.3392  -14.0236   21.7370 H   0  0  0  0  0  0
  -28.7654  -12.3487   21.4916 H   0  0  0  0  0  0
  -25.2799   -9.5715   22.4718 H   0  0  0  0  0  0
  -24.0057   -7.4658   22.7462 H   0  0  0  0  0  0
  -21.0854   -8.8777   19.8895 H   0  0  0  0  0  0
  -22.3754  -10.9672   19.6178 H   0  0  0  0  0  0
  -21.1895   -7.6113   23.9699 H   0  0  0  0  0  0
  -21.1508   -6.0490   25.9084 H   0  0  0  0  0  0
  -22.0615   -2.7593   23.2799 H   0  0  0  0  0  0
  -22.4225  -12.0048   22.4844 H   0  0  0  0  0  0
  -21.1097  -13.1287   22.2555 H   0  0  0  0  0  0
  -24.6006  -15.7625   20.2508 H   0  0  0  0  0  0
  -26.2036  -15.5022   19.7773 H   0  0  0  0  0  0
  -26.7241  -32.5401   23.1066 H   0  0  0  0  0  0
  -25.0009  -33.9686   25.0315 H   0  0  0  0  0  0
  -22.7414  -31.2837   21.3716 H   0  0  0  0  0  0
  -23.3761  -35.9604   23.3261 H   0  0  0  0  0  0
  -24.3620  -36.8934   22.2060 H   0  0  0  0  0  0
  -23.7243  -37.6473   23.6698 H   0  0  0  0  0  0
  -26.1545  -31.4704   20.6057 H   0  0  0  0  0  0
  -26.8743  -30.7871   22.0303 H   0  0  0  0  0  0
  -28.1416  -28.7995   21.2537 H   0  0  0  0  0  0
  -25.9448  -25.8538   18.9968 H   0  0  0  0  0  0
  -23.9991  -27.2898   18.9864 H   0  0  0  0  0  0
  -23.8128  -30.5629   19.3930 H   0  0  0  0  0  0
  -22.7997  -29.2266   19.8430 H   0  0  0  0  0  0
  -25.1311  -36.1889   25.0818 H   0  0  0  0  0  0
  -21.0094  -28.3342   24.1318 H   0  0  0  0  0  0
  -20.5699  -26.2318   23.3612 H   0  0  0  0  0  0
  -21.6664  -26.7385   22.1194 H   0  0  0  0  0  0
  -19.6899  -25.6284   21.1245 H   0  0  0  0  0  0
  -19.6721  -27.3215   20.6759 H   0  0  0  0  0  0
  -17.4223  -26.6721   21.4027 H   0  0  0  0  0  0
  -18.0323  -26.0050   22.8993 H   0  0  0  0  0  0
  -19.7942  -30.7340   24.2217 H   0  0  0  0  0  0
  -17.4998  -31.6257   24.5180 H   0  0  0  0  0  0
  -15.5360  -30.2988   23.7642 H   0  0  0  0  0  0
  -15.8687  -28.0816   22.7079 H   0  0  0  0  0  0
  -24.5907  -30.7028   25.7758 H   0  0  0  0  0  0
  -24.8799  -32.2931   26.4734 H   0  0  0  0  0  0
  -25.7980  -30.9038   27.0252 H   0  0  0  0  0  0
  -26.2912  -29.6705   24.1288 H   0  0  0  0  0  0
  -27.3925  -29.7250   25.4828 H   0  0  0  0  0  0
  -27.8834  -30.4166   23.9563 H   0  0  0  0  0  0
  -27.2657  -33.3657   26.1953 H   0  0  0  0  0  0
  -28.3874  -32.6792   25.0306 H   0  0  0  0  0  0
  -28.0654  -31.8501   26.5434 H   0  0  0  0  0  0
  -28.2595  -38.0097   24.7530 H   0  0  0  0  0  0
  -28.1079  -36.2640   24.6254 H   0  0  0  0  0  0
  -27.2327  -37.1408   25.8869 H   0  0  0  0  0  0
  -20.9382  -29.8734   21.6798 H   0  0  0  0  0  0
  -26.0160  -38.2825   24.1404 H   0  0  0  0  0  0
  -25.3019  -20.3497   21.6220 H   0  0  0  0  0  0
  -26.2994  -22.7226   21.1881 H   0  0  0  0  0  0
  -25.0959  -17.7113   21.2046 H   0  0  0  0  0  0
  -25.3345  -18.3309   22.8333 H   0  0  0  0  0  0
  -25.8381  -16.7105   22.4481 H   0  0  0  0  0  0
  -29.1763  -18.1755   22.5561 H   0  0  0  0  0  0
  -28.1986  -16.8038   22.9439 H   0  0  0  0  0  0
  -27.8908  -18.3777   23.6958 H   0  0  0  0  0  0
  -30.8344  -22.4952   19.6974 H   0  0  0  0  0  0
  -30.4836  -24.1527   19.2957 H   0  0  0  0  0  0
  -29.6819  -22.8660   18.4089 H   0  0  0  0  0  0
  -30.2725  -19.8003   19.6446 H   0  0  0  0  0  0
  -30.3581  -19.3446   21.2918 H   0  0  0  0  0  0
  -30.5570  -17.5879   19.1725 H   0  0  0  0  0  0
  -28.8709  -17.5328   19.1699 H   0  0  0  0  0  0
  -27.3874  -24.3919   19.3585 H   0  0  0  0  0  0
  -27.2603  -24.5625   21.0985 H   0  0  0  0  0  0
  -27.3873  -17.5482   20.7733 H   0  0  0  0  0  0
  -29.4375  -23.3515   21.3839 H   0  0  0  0  0  0
  -28.9046  -15.9770   21.0815 H   0  0  0  0  0  0
  1 25  1  0  0  0
  1 30  2  0  0  0
  1 84  1  0  0  0
  2  3  1  0  0  0
  2 25  1  0  0  0
  2 85  1  0  0  0
  2 86  1  0  0  0
  3  4  1  0  0  0
  3 87  1  0  0  0
  3 88  1  0  0  0
  4  5  1  0  0  0
  4 89  1  0  0  0
  4 90  1  0  0  0
  5  6  1  0  0  0
  5 26  1  0  0  0
  5 91  1  0  0  0
  6 25  1  0  0  0
  6 92  1  0  0  0
  6 93  1  0  0  0
  7  8  2  0  0  0
  7 26  1  0  0  0
  7 29  1  0  0  0
  8  9  1  0  0  0
  8 22  1  0  0  0
  9 10  1  0  0  0
  9 27  2  0  0  0
 10 11  2  0  0  0
 10 15  1  0  0  0
 11 12  1  0  0  0
 11 94  1  0  0  0
 12 13  2  0  0  0
 12 95  1  0  0  0
 13 14  1  0  0  0
 13 31  1  0  0  0
 14 15  2  0  0  0
 14 96  1  0  0  0
 15 97  1  0  0  0
 16 17  2  0  0  0
 16 21  1  0  0  0
 16 31  1  0  0  0
 17 18  1  0  0  0
 17 98  1  0  0  0
 18 19  2  0  0  0
 18 99  1  0  0  0
 19 20  1  0  0  0
 19 24  1  0  0  0
 20 21  2  0  0  0
 20100  1  0  0  0
 21 23  1  0  0  0
 22 28  1  0  0  0
 22 32  2  0  0  0
 26 27  1  0  0  0
 28101  1  0  0  0
 28102  1  0  0  0
 29103  1  0  0  0
 29104  1  0  0  0
 33 34  1  0  0  0
 33 66  1  0  0  0
 33 70  2  0  0  0
 34 36  1  0  0  0
 34 59  1  0  0  0
 34105  1  0  0  0
 35 44  2  0  0  0
 35 45  1  0  0  0
 35 68  1  0  0  0
 36 56  1  0  0  0
 36106  1  0  0  0
 37 39  1  0  0  0
 37 47  1  0  0  0
 37 66  1  0  0  0
 37107  1  0  0  0
 38 43  2  0  0  0
 38 46  1  0  0  0
 38 47  1  0  0  0
 39 64  1  0  0  0
 39 67  2  0  0  0
 40 52  1  0  0  0
 40 53  2  0  0  0
 40 58  1  0  0  0
 41108  1  0  0  0
 41109  1  0  0  0
 41110  1  0  0  0
 41 48  1  0  0  0
 42 43  1  0  0  0
 42 66  1  0  0  0
 42111  1  0  0  0
 42112  1  0  0  0
 43 44  1  0  0  0
 44113  1  0  0  0
 45 46  2  0  0  0
 45114  1  0  0  0
 46115  1  0  0  0
 47116  1  0  0  0
 47117  1  0  0  0
 48 56  1  0  0  0
 48 65  1  0  0  0
 48118  1  0  0  0
 49 50  1  0  0  0
 49 53  1  0  0  0
 49 64  1  0  0  0
 49119  1  0  0  0
 50 51  1  0  0  0
 50120  1  0  0  0
 50121  1  0  0  0
 51 52  1  0  0  0
 51122  1  0  0  0
 51123  1  0  0  0
 52124  1  0  0  0
 52125  1  0  0  0
 53 54  1  0  0  0
 54 55  2  0  0  0
 54126  1  0  0  0
 55 57  1  0  0  0
 55127  1  0  0  0
 56 69  2  0  0  0
 57 58  2  0  0  0
 57128  1  0  0  0
 58129  1  0  0  0
 59 60  1  0  0  0
 59 61  1  0  0  0
 59 62  1  0  0  0
 60130  1  0  0  0
 60131  1  0  0  0
 60132  1  0  0  0
 61133  1  0  0  0
 61134  1  0  0  0
 61135  1  0  0  0
 62136  1  0  0  0
 62137  1  0  0  0
 62138  1  0  0  0
 63 65  1  0  0  0
 63139  1  0  0  0
 63140  1  0  0  0
 63141  1  0  0  0
 64142  1  0  0  0
 65143  1  0  0  0
 68 80  1  0  0  0
 71 72  1  0  0  0
 71 73  2  0  0  0
 71144  1  0  0  0
 72 74  2  0  0  0
 72145  1  0  0  0
 73 81  1  0  0  0
 73 83  1  0  0  0
 74 82  1  0  0  0
 74 83  1  0  0  0
 75146  1  0  0  0
 75147  1  0  0  0
 75148  1  0  0  0
 75 81  1  0  0  0
 76 81  1  0  0  0
 76149  1  0  0  0
 76150  1  0  0  0
 76151  1  0  0  0
 77152  1  0  0  0
 77153  1  0  0  0
 77154  1  0  0  0
 77 82  1  0  0  0
 78 79  1  0  0  0
 78 83  1  0  0  0
 78155  1  0  0  0
 78156  1  0  0  0
 79 84  1  0  0  0
 79157  1  0  0  0
 79158  1  0  0  0
 80 82  1  0  0  0
 80159  1  0  0  0
 80160  1  0  0  0
 81161  1  0  0  0
 82162  1  0  0  0
 84163  1  0  0  0
M  ISO  4   1 100  68 101  80 101  84 100
M  END
> <chiral flag>
0

> <version>
0

> <s_m_source_file>
/data/baiqing/PycharmProjects/Reinvent-master-3.2/result/LINK_invent/BTK/process_docking_weight1_custom_sum_contain_oxygen_bond_distance_aromatic_linkinvent_7_9_3/rearranged_h_0101.sdf

> <i_m_source_file_index>
90

> <r_mmod_Potential_Energy-OPLS-2005>
725.766418457031

> <r_mmod_Stretch_Energy-OPLS-2005>
342.599670410156

> <r_mmod_Bend_Energy-OPLS-2005>
375.496887207031

> <r_mmod_Torsional_Energy-OPLS-2005>
259.654541015625

> <r_mmod_Improper_Torsional_Energy-OPLS-2005>
9.09812259674072

> <r_mmod_Van_der_Waal_Energy-OPLS-2005>
128.110504150391

> <r_mmod_Electrostatic_Energy-OPLS-2005>
-407.078643798828

> <r_mmod_Solvation_Energy-OPLS-2005>
-204.447174072266

> <b_mmod_Minimization_Converged-OPLS-2005>
0

> <r_mmod_RMS_Derivative-OPLS-2005>
9.68213367462158

$$$$
90
                    3D
 Structure written by MMmdl.
177185  0  0  1  0            999 V2000
  -31.6529  -14.7839   20.2633 C   0  0  0  0  0  0
  -30.6412  -12.3198   19.8931 C   0  0  0  0  0  0
  -29.2356  -11.7086   18.8502 C   0  0  0  0  0  0
  -27.6255  -12.4681   18.4345 C   0  0  0  0  0  0
  -27.0055  -14.0657   19.2524 C   0  0  2  0  0  0
  -29.7344  -14.8445   21.1478 C   0  0  0  0  0  0
  -24.8453  -14.0283   20.4791 C   0  0  0  0  0  0
  -23.9615  -13.1253   20.9493 C   0  0  0  0  0  0
  -24.5127  -11.8192   20.8115 C   0  0  0  0  0  0
  -23.8860  -10.4898   21.0119 C   0  0  0  0  0  0
  -24.3662   -9.4894   21.8962 C   0  0  0  0  0  0
  -23.6557   -8.2723   22.0648 C   0  0  0  0  0  0
  -22.4490   -8.0460   21.3548 C   0  0  0  0  0  0
  -21.9956   -9.0300   20.4588 C   0  0  0  0  0  0
  -22.7047  -10.2284   20.2913 C   0  0  0  0  0  0
  -21.7068   -6.0830   22.5281 C   0  0  0  0  0  0
  -21.4164   -6.5729   23.8212 C   0  0  0  0  0  0
  -21.3698   -5.6839   24.9156 C   0  0  0  0  0  0
  -21.6047   -4.3109   24.7199 C   0  0  0  0  0  0
  -21.8803   -3.8210   23.4341 C   0  0  0  0  0  0
  -21.9264   -4.7024   22.3404 C   0  0  0  0  0  0
  -22.5791  -13.5111   21.2817 C   0  0  0  0  0  0
  -22.1699   -4.2204   21.0983 F   0  0  0  0  0  0
  -21.5581   -3.4562   25.7717 F   0  0  0  0  0  0
  -30.8450  -13.7961   20.7708 N   0  0  0  0  0  0
  -25.8382  -13.3347   19.9391 N   0  0  0  0  0  0
  -25.6832  -11.9654   20.2229 N   0  0  0  0  0  0
  -21.9194  -12.7676   22.1503 N   0  0  0  0  0  0
  -24.8770  -15.4087   20.3688 N   0  0  0  0  0  0
  -32.7330  -14.4319   19.8958 O   0  0  0  0  0  0
  -21.6950   -6.8962   21.4258 O   0  0  0  0  0  0
  -22.1004  -14.5261   20.7756 O   0  0  0  0  0  0
  -24.6829  -31.8127   23.1533 C   0  0  0  0  0  0
  -25.9425  -32.4577   23.8080 C   0  0  1  0  0  0
  -27.0211  -26.6504   20.3010 C   0  0  0  0  0  0
  -25.6008  -33.8398   24.1976 N   0  0  0  0  0  0
  -23.4910  -30.4290   21.5150 C   0  0  2  0  0  0
  -24.9110  -28.7724   20.1103 C   0  0  0  0  0  0
  -22.7663  -29.4423   22.4718 C   0  0  0  0  0  0
  -18.0301  -28.1430   22.8429 C   0  0  0  0  0  0
  -24.1445  -36.7198   23.2648 C   0  0  0  0  0  0
  -26.0670  -30.5181   21.4277 C   0  0  0  0  0  0
  -26.0928  -29.0862   20.7857 C   0  0  0  0  0  0
  -27.1600  -28.0469   20.8475 C   0  0  0  0  0  0
  -25.8511  -26.5565   19.5293 C   0  0  0  0  0  0
  -24.8322  -27.5414   19.4434 C   0  0  0  0  0  0
  -23.7272  -29.7491   20.1417 C   0  0  0  0  0  0
  -25.4120  -36.3028   24.0332 C   0  0  1  0  0  0
  -20.5924  -28.3802   23.1150 C   0  0  2  0  0  0
  -20.6807  -26.9483   22.5391 C   0  0  0  0  0  0
  -19.5803  -26.6370   21.5194 C   0  0  0  0  0  0
  -18.1952  -26.7946   22.1578 C   0  0  0  0  0  0
  -19.1565  -28.8929   23.2766 C   0  0  0  0  0  0
  -18.9497  -30.1505   23.8825 C   0  0  0  0  0  0
  -17.6502  -30.6625   24.0546 C   0  0  0  0  0  0
  -25.9123  -34.9401   23.4995 C   0  0  0  0  0  0
  -16.5377  -29.9115   23.6367 C   0  0  0  0  0  0
  -16.7283  -28.6535   23.0368 C   0  0  0  0  0  0
  -26.4544  -31.6613   25.0718 C   0  0  0  0  0  0
  -25.3566  -31.3954   26.1321 C   0  0  0  0  0  0
  -27.0533  -30.2996   24.6643 C   0  0  0  0  0  0
  -27.6035  -32.4411   25.7506 C   0  0  0  0  0  0
  -27.5595  -37.1762   24.8482 C   0  0  0  0  0  0
  -21.4319  -29.3084   22.3453 N   0  0  0  0  0  0
  -26.4282  -37.3781   23.9452 N   0  0  0  0  0  0
  -24.7716  -30.9579   22.0824 N   0  0  0  0  0  0
  -23.4139  -28.8014   23.3043 O   0  0  0  0  0  0
  -27.8534  -25.3620   20.3631 O   0  0  0  0  0  0
  -26.5762  -34.8969   22.4592 O   0  0  0  0  0  0
  -23.5868  -32.1297   23.6468 O   0  0  0  0  0  0
  -27.4619  -14.9022   21.4171 C   0  0  0  0  0  0
  -29.1726  -14.1198   19.1275 C   0  0  0  0  0  0
  -28.2521  -13.3472   20.8434 C   0  0  0  0  0  0
  -27.7588  -16.4594   20.7461 C   0  0  0  0  0  0
  -29.0542  -15.5064   18.6604 C   0  0  0  0  0  0
  -28.7120  -16.5443   19.5801 C   0  0  0  0  0  0
  -28.5925  -15.0907   16.1837 C   0  0  0  0  0  0
  -30.9113  -15.7782   16.8550 C   0  0  0  0  0  0
  -28.5801  -11.1390   23.9169 C   0  0  0  0  0  0
  -29.5562   -9.8825   22.0484 C   0  0  0  0  0  0
  -28.1216  -11.9614   21.5760 C   0  0  0  0  0  0
  -27.2067  -18.2034   21.0003 C   0  0  0  0  0  0
  -30.1559  -17.1390   19.8517 C   0  0  0  0  0  0
  -27.8765  -20.0198   20.9349 C   0  0  0  0  0  0
  -27.5430  -21.8326   20.3136 C   0  0  0  0  0  0
  -27.5145  -23.6992   20.8375 C   0  0  0  0  0  0
  -29.4187  -15.8778   17.2096 C   0  0  0  0  0  0
  -29.1861  -11.3181   22.5159 C   0  0  0  0  0  0
  -31.3729  -16.1590   19.9691 N   0  0  0  0  0  0
  -31.4443  -12.3813   19.1585 H   0  0  0  0  0  0
  -31.0249  -11.5224   20.5161 H   0  0  0  0  0  0
  -28.9886  -10.7016   19.1771 H   0  0  0  0  0  0
  -29.6987  -11.4851   17.8873 H   0  0  0  0  0  0
  -26.8754  -11.7016   18.2480 H   0  0  0  0  0  0
  -27.7542  -12.7567   17.3957 H   0  0  0  0  0  0
  -26.6343  -14.7994   18.5255 H   0  0  0  0  0  0
  -29.7160  -14.4311   22.1748 H   0  0  0  0  0  0
  -29.8817  -15.7662   21.7184 H   0  0  0  0  0  0
  -25.2804   -9.6642   22.4455 H   0  0  0  0  0  0
  -24.0466   -7.5237   22.7376 H   0  0  0  0  0  0
  -21.0892   -8.8692   19.8941 H   0  0  0  0  0  0
  -22.3336  -10.9699   19.5995 H   0  0  0  0  0  0
  -21.2222   -7.6243   23.9733 H   0  0  0  0  0  0
  -21.1506   -6.0573   25.9040 H   0  0  0  0  0  0
  -22.0518   -2.7658   23.2819 H   0  0  0  0  0  0
  -22.3531  -11.9707   22.5932 H   0  0  0  0  0  0
  -20.9652  -12.9972   22.3940 H   0  0  0  0  0  0
  -24.1223  -15.9874   20.7152 H   0  0  0  0  0  0
  -25.6992  -15.9160   20.0586 H   0  0  0  0  0  0
  -26.7466  -32.5026   23.0752 H   0  0  0  0  0  0
  -25.0094  -33.9413   25.0098 H   0  0  0  0  0  0
  -22.8188  -31.2747   21.3525 H   0  0  0  0  0  0
  -23.3824  -35.9412   23.3270 H   0  0  0  0  0  0
  -24.3501  -36.8882   22.2066 H   0  0  0  0  0  0
  -23.7048  -37.6309   23.6701 H   0  0  0  0  0  0
  -26.2857  -31.2148   20.6166 H   0  0  0  0  0  0
  -26.9241  -30.5755   22.0860 H   0  0  0  0  0  0
  -28.0408  -28.2844   21.4253 H   0  0  0  0  0  0
  -25.6646  -25.6195   19.0247 H   0  0  0  0  0  0
  -23.9373  -27.2911   18.8894 H   0  0  0  0  0  0
  -23.9189  -30.5231   19.3980 H   0  0  0  0  0  0
  -22.8154  -29.2520   19.8084 H   0  0  0  0  0  0
  -25.1281  -36.1855   25.0843 H   0  0  0  0  0  0
  -21.0003  -28.3452   24.1279 H   0  0  0  0  0  0
  -20.5683  -26.2430   23.3642 H   0  0  0  0  0  0
  -21.6677  -26.7468   22.1199 H   0  0  0  0  0  0
  -19.6999  -25.6240   21.1312 H   0  0  0  0  0  0
  -19.6768  -27.3100   20.6660 H   0  0  0  0  0  0
  -17.4216  -26.6621   21.3972 H   0  0  0  0  0  0
  -18.0396  -26.0112   22.9020 H   0  0  0  0  0  0
  -19.7988  -30.7315   24.2154 H   0  0  0  0  0  0
  -17.5085  -31.6316   24.5151 H   0  0  0  0  0  0
  -15.5381  -30.3029   23.7777 H   0  0  0  0  0  0
  -15.8649  -28.0856   22.7172 H   0  0  0  0  0  0
  -24.5717  -30.7379   25.7566 H   0  0  0  0  0  0
  -24.8797  -32.3207   26.4561 H   0  0  0  0  0  0
  -25.7675  -30.9178   27.0232 H   0  0  0  0  0  0
  -26.3341  -29.6578   24.1575 H   0  0  0  0  0  0
  -27.3971  -29.7494   25.5405 H   0  0  0  0  0  0
  -27.9248  -30.4253   24.0237 H   0  0  0  0  0  0
  -27.2676  -33.3802   26.1912 H   0  0  0  0  0  0
  -28.3923  -32.6824   25.0364 H   0  0  0  0  0  0
  -28.0637  -31.8649   26.5546 H   0  0  0  0  0  0
  -28.2596  -38.0077   24.7645 H   0  0  0  0  0  0
  -28.1116  -36.2644   24.6162 H   0  0  0  0  0  0
  -27.2349  -37.1250   25.8887 H   0  0  0  0  0  0
  -20.9579  -29.8763   21.6563 H   0  0  0  0  0  0
  -26.0176  -38.2871   24.1409 H   0  0  0  0  0  0
  -26.8080  -14.8398   22.2749 H   0  0  0  0  0  0
  -29.7563  -13.7266   18.3150 H   0  0  0  0  0  0
  -27.5233  -15.1546   16.3866 H   0  0  0  0  0  0
  -28.8841  -14.0444   16.1600 H   0  0  0  0  0  0
  -28.7524  -15.4666   15.1752 H   0  0  0  0  0  0
  -31.4988  -16.5326   17.3745 H   0  0  0  0  0  0
  -31.0602  -15.9637   15.7932 H   0  0  0  0  0  0
  -31.3426  -14.8007   17.0719 H   0  0  0  0  0  0
  -29.2969  -10.6826   24.6006 H   0  0  0  0  0  0
  -27.7145  -10.4758   23.8687 H   0  0  0  0  0  0
  -28.2467  -12.0854   24.3432 H   0  0  0  0  0  0
  -30.2257   -9.3905   22.7539 H   0  0  0  0  0  0
  -30.0149   -9.8140   21.0617 H   0  0  0  0  0  0
  -28.6659   -9.2553   22.0007 H   0  0  0  0  0  0
  -27.8155  -11.1744   20.8964 H   0  0  0  0  0  0
  -27.2525  -12.1490   22.2075 H   0  0  0  0  0  0
  -26.7603  -18.1296   21.9915 H   0  0  0  0  0  0
  -26.3516  -18.2276   20.3240 H   0  0  0  0  0  0
  -30.3870  -17.8439   19.0519 H   0  0  0  0  0  0
  -30.1092  -17.7486   20.7528 H   0  0  0  0  0  0
  -28.7854  -19.8207   20.3701 H   0  0  0  0  0  0
  -28.2634  -20.1730   21.9422 H   0  0  0  0  0  0
  -26.6776  -21.7167   19.6610 H   0  0  0  0  0  0
  -28.3501  -21.9012   19.5837 H   0  0  0  0  0  0
  -28.2128  -23.6851   21.6750 H   0  0  0  0  0  0
  -26.5287  -23.7903   21.2920 H   0  0  0  0  0  0
  -29.1315  -16.9228   17.0817 H   0  0  0  0  0  0
  -30.0870  -11.9235   22.6089 H   0  0  0  0  0  0
  -32.2153  -16.5998   19.6389 H   0  0  0  0  0  0
  1 25  1  0  0  0
  1 30  2  0  0  0
  1 89  1  0  0  0
  2  3  1  0  0  0
  2 25  1  0  0  0
  2 90  1  0  0  0
  2 91  1  0  0  0
  3  4  1  0  0  0
  3 92  1  0  0  0
  3 93  1  0  0  0
  4  5  1  0  0  0
  4 94  1  0  0  0
  4 95  1  0  0  0
  5  6  1  0  0  0
  5 26  1  0  0  0
  5 96  1  0  0  0
  6 25  1  0  0  0
  6 97  1  0  0  0
  6 98  1  0  0  0
  7  8  2  0  0  0
  7 26  1  0  0  0
  7 29  1  0  0  0
  8  9  1  0  0  0
  8 22  1  0  0  0
  9 10  1  0  0  0
  9 27  2  0  0  0
 10 11  2  0  0  0
 10 15  1  0  0  0
 11 12  1  0  0  0
 11 99  1  0  0  0
 12 13  2  0  0  0
 12100  1  0  0  0
 13 14  1  0  0  0
 13 31  1  0  0  0
 14 15  2  0  0  0
 14101  1  0  0  0
 15102  1  0  0  0
 16 17  2  0  0  0
 16 21  1  0  0  0
 16 31  1  0  0  0
 17 18  1  0  0  0
 17103  1  0  0  0
 18 19  2  0  0  0
 18104  1  0  0  0
 19 20  1  0  0  0
 19 24  1  0  0  0
 20 21  2  0  0  0
 20105  1  0  0  0
 21 23  1  0  0  0
 22 28  1  0  0  0
 22 32  2  0  0  0
 26 27  1  0  0  0
 28106  1  0  0  0
 28107  1  0  0  0
 29108  1  0  0  0
 29109  1  0  0  0
 33 34  1  0  0  0
 33 66  1  0  0  0
 33 70  2  0  0  0
 34 36  1  0  0  0
 34 59  1  0  0  0
 34110  1  0  0  0
 35 44  2  0  0  0
 35 45  1  0  0  0
 35 68  1  0  0  0
 36 56  1  0  0  0
 36111  1  0  0  0
 37 39  1  0  0  0
 37 47  1  0  0  0
 37 66  1  0  0  0
 37112  1  0  0  0
 38 43  2  0  0  0
 38 46  1  0  0  0
 38 47  1  0  0  0
 39 64  1  0  0  0
 39 67  2  0  0  0
 40 52  1  0  0  0
 40 53  2  0  0  0
 40 58  1  0  0  0
 41113  1  0  0  0
 41114  1  0  0  0
 41115  1  0  0  0
 41 48  1  0  0  0
 42 43  1  0  0  0
 42 66  1  0  0  0
 42116  1  0  0  0
 42117  1  0  0  0
 43 44  1  0  0  0
 44118  1  0  0  0
 45 46  2  0  0  0
 45119  1  0  0  0
 46120  1  0  0  0
 47121  1  0  0  0
 47122  1  0  0  0
 48 56  1  0  0  0
 48 65  1  0  0  0
 48123  1  0  0  0
 49 50  1  0  0  0
 49 53  1  0  0  0
 49 64  1  0  0  0
 49124  1  0  0  0
 50 51  1  0  0  0
 50125  1  0  0  0
 50126  1  0  0  0
 51 52  1  0  0  0
 51127  1  0  0  0
 51128  1  0  0  0
 52129  1  0  0  0
 52130  1  0  0  0
 53 54  1  0  0  0
 54 55  2  0  0  0
 54131  1  0  0  0
 55 57  1  0  0  0
 55132  1  0  0  0
 56 69  2  0  0  0
 57 58  2  0  0  0
 57133  1  0  0  0
 58134  1  0  0  0
 59 60  1  0  0  0
 59 61  1  0  0  0
 59 62  1  0  0  0
 60135  1  0  0  0
 60136  1  0  0  0
 60137  1  0  0  0
 61138  1  0  0  0
 61139  1  0  0  0
 61140  1  0  0  0
 62141  1  0  0  0
 62142  1  0  0  0
 62143  1  0  0  0
 63 65  1  0  0  0
 63144  1  0  0  0
 63145  1  0  0  0
 63146  1  0  0  0
 64147  1  0  0  0
 65148  1  0  0  0
 68 86  1  0  0  0
 71 73  2  0  0  0
 71 74  1  0  0  0
 71149  1  0  0  0
 72 73  1  0  0  0
 72 75  2  0  0  0
 72150  1  0  0  0
 73 81  1  0  0  0
 74 76  2  0  0  0
 74 82  1  0  0  0
 75 76  1  0  0  0
 75 87  1  0  0  0
 76 83  1  0  0  0
 77151  1  0  0  0
 77152  1  0  0  0
 77153  1  0  0  0
 77 87  1  0  0  0
 78 87  1  0  0  0
 78154  1  0  0  0
 78155  1  0  0  0
 78156  1  0  0  0
 79157  1  0  0  0
 79158  1  0  0  0
 79159  1  0  0  0
 79 88  1  0  0  0
 80 88  1  0  0  0
 80160  1  0  0  0
 80161  1  0  0  0
 80162  1  0  0  0
 81 88  1  0  0  0
 81163  1  0  0  0
 81164  1  0  0  0
 82 84  1  0  0  0
 82165  1  0  0  0
 82166  1  0  0  0
 83 89  1  0  0  0
 83167  1  0  0  0
 83168  1  0  0  0
 84 85  1  0  0  0
 84169  1  0  0  0
 84170  1  0  0  0
 85 86  1  0  0  0
 85171  1  0  0  0
 85172  1  0  0  0
 86173  1  0  0  0
 86174  1  0  0  0
 87175  1  0  0  0
 88176  1  0  0  0
 89177  1  0  0  0
M  ISO  4   1 100  68 101  86 101  89 100
M  END
> <chiral flag>
0

> <version>
0

> <s_m_source_file>
/data/baiqing/PycharmProjects/Reinvent-master-3.2/result/LINK_invent/BTK/process_docking_weight1_custom_sum_contain_oxygen_bond_distance_aromatic_linkinvent_7_9_3/rearranged_h_0101.sdf

> <i_m_source_file_index>
91

> <r_mmod_Potential_Energy-OPLS-2005>
12957.40625

> <r_mmod_Stretch_Energy-OPLS-2005>
7146.10498046875

> <r_mmod_Bend_Energy-OPLS-2005>
1214.28674316406

> <r_mmod_Torsional_Energy-OPLS-2005>
519.721069335938

> <r_mmod_Improper_Torsional_Energy-OPLS-2005>
23.5669918060303

> <r_mmod_Van_der_Waal_Energy-OPLS-2005>
2941.66284179688

> <r_mmod_Electrostatic_Energy-OPLS-2005>
-430.556549072266

> <r_mmod_Solvation_Energy-OPLS-2005>
-184.608688354492

> <b_mmod_Minimization_Converged-OPLS-2005>
0

> <r_mmod_RMS_Derivative-OPLS-2005>
17.8189792633057

$$$$
91
                    3D
 Structure written by MMmdl.
156164  0  0  1  0            999 V2000
  -30.5486  -14.9426   20.3810 C   0  0  0  0  0  0
  -30.4297  -12.5746   19.4971 C   0  0  0  0  0  0
  -29.5190  -12.5434   18.2489 C   0  0  0  0  0  0
  -28.0517  -12.3243   18.6611 C   0  0  0  0  0  0
  -27.6291  -13.2495   19.8345 C   0  0  2  0  0  0
  -28.6724  -13.2828   20.9723 C   0  0  0  0  0  0
  -25.2461  -13.8230   20.5647 C   0  0  0  0  0  0
  -24.1795  -13.0425   20.9182 C   0  0  0  0  0  0
  -24.6407  -11.6913   20.8737 C   0  0  0  0  0  0
  -23.9072  -10.4287   21.0393 C   0  0  0  0  0  0
  -24.3619   -9.4207   21.9173 C   0  0  0  0  0  0
  -23.6289   -8.2253   22.0765 C   0  0  0  0  0  0
  -22.4275   -8.0286   21.3565 C   0  0  0  0  0  0
  -21.9904   -9.0251   20.4663 C   0  0  0  0  0  0
  -22.7237  -10.2123   20.3048 C   0  0  0  0  0  0
  -21.6861   -6.0725   22.5279 C   0  0  0  0  0  0
  -21.4028   -6.5635   23.8209 C   0  0  0  0  0  0
  -21.3672   -5.6787   24.9170 C   0  0  0  0  0  0
  -21.6049   -4.3046   24.7230 C   0  0  0  0  0  0
  -21.8824   -3.8134   23.4351 C   0  0  0  0  0  0
  -21.9200   -4.6949   22.3403 C   0  0  0  0  0  0
  -22.7813  -13.5186   21.1851 C   0  0  0  0  0  0
  -22.1646   -4.2122   21.0979 F   0  0  0  0  0  0
  -21.5644   -3.4543   25.7745 F   0  0  0  0  0  0
  -29.9499  -13.6833   20.3710 N   0  0  0  0  0  0
  -26.2880  -12.9454   20.3207 N   0  0  0  0  0  0
  -25.9346  -11.6570   20.5717 N   0  0  0  0  0  0
  -22.0474  -12.8198   22.0419 N   0  0  0  0  0  0
  -25.4127  -15.1963   20.4072 N   0  0  0  0  0  0
  -31.7618  -14.9698   20.1512 O   0  0  0  0  0  0
  -21.6662   -6.8870   21.4242 O   0  0  0  0  0  0
  -22.3493  -14.5487   20.6682 O   0  0  0  0  0  0
  -24.6462  -31.8430   23.1874 C   0  0  0  0  0  0
  -25.9236  -32.4682   23.8252 C   0  0  1  0  0  0
  -27.2095  -27.1300   20.1493 C   0  0  0  0  0  0
  -25.5987  -33.8489   24.2161 N   0  0  0  0  0  0
  -23.4487  -30.4659   21.5305 C   0  0  2  0  0  0
  -24.8955  -28.8925   20.1107 C   0  0  0  0  0  0
  -22.7575  -29.4564   22.4818 C   0  0  0  0  0  0
  -18.0320  -28.1402   22.8472 C   0  0  0  0  0  0
  -24.1495  -36.7263   23.2631 C   0  0  0  0  0  0
  -26.0065  -30.7199   21.3835 C   0  0  0  0  0  0
  -26.0771  -29.3316   20.7221 C   0  0  0  0  0  0
  -27.2352  -28.4652   20.7254 C   0  0  0  0  0  0
  -25.9994  -26.7993   19.4954 C   0  0  0  0  0  0
  -24.8687  -27.6386   19.4868 C   0  0  0  0  0  0
  -23.6758  -29.7958   20.1508 C   0  0  0  0  0  0
  -25.4128  -36.3008   24.0281 C   0  0  1  0  0  0
  -20.5939  -28.3751   23.1194 C   0  0  2  0  0  0
  -20.6809  -26.9447   22.5393 C   0  0  0  0  0  0
  -19.5780  -26.6378   21.5209 C   0  0  0  0  0  0
  -18.1962  -26.7939   22.1615 C   0  0  0  0  0  0
  -19.1575  -28.8888   23.2831 C   0  0  0  0  0  0
  -18.9492  -30.1481   23.8864 C   0  0  0  0  0  0
  -17.6483  -30.6587   24.0564 C   0  0  0  0  0  0
  -25.9074  -34.9384   23.5008 C   0  0  0  0  0  0
  -16.5379  -29.9078   23.6339 C   0  0  0  0  0  0
  -16.7299  -28.6503   23.0348 C   0  0  0  0  0  0
  -26.4543  -31.6571   25.0714 C   0  0  0  0  0  0
  -25.3715  -31.3818   26.1402 C   0  0  0  0  0  0
  -27.0404  -30.2938   24.6360 C   0  0  0  0  0  0
  -27.6033  -32.4367   25.7550 C   0  0  0  0  0  0
  -27.5571  -37.1786   24.8442 C   0  0  0  0  0  0
  -21.4267  -29.3073   22.3562 N   0  0  0  0  0  0
  -26.4279  -37.3728   23.9385 N   0  0  0  0  0  0
  -24.7199  -31.0296   22.0891 N   0  0  0  0  0  0
  -23.4207  -28.8084   23.2951 O   0  0  0  0  0  0
  -28.2503  -26.1303   20.2337 O   0  0  0  0  0  0
  -26.5645  -34.8876   22.4576 O   0  0  0  0  0  0
  -23.5582  -32.1309   23.7090 O   0  0  0  0  0  0
  -30.2472  -20.4019   19.0789 C   0  0  0  0  0  0
  -30.8675  -19.2998   18.4553 C   0  0  0  0  0  0
  -29.2723  -18.8134   20.6328 C   0  0  0  0  0  0
  -29.3877  -20.2345   20.1739 C   0  0  0  0  0  0
  -30.6976  -17.9536   18.8702 C   0  0  0  0  0  0
  -29.9391  -17.6163   20.0365 C   0  0  0  0  0  0
  -31.3146  -16.9134   17.9464 C   0  0  0  0  0  0
  -27.1664  -21.3190   20.9677 C   0  0  0  0  0  0
  -28.8956  -23.2121   20.2504 C   0  0  0  0  0  0
  -27.9594  -24.6181   19.9721 C   0  0  0  0  0  0
  -28.6732  -21.5947   20.7848 C   0  0  2  0  0  0
  -29.7708  -16.1385   20.4754 N   0  0  0  0  0  0
  -31.4696  -12.7067   19.1938 H   0  0  0  0  0  0
  -30.3931  -11.6202   20.0271 H   0  0  0  0  0  0
  -29.8434  -11.7624   17.5594 H   0  0  0  0  0  0
  -29.6092  -13.4884   17.7096 H   0  0  0  0  0  0
  -27.9456  -11.2805   18.9569 H   0  0  0  0  0  0
  -27.3932  -12.4670   17.8033 H   0  0  0  0  0  0
  -27.5876  -14.2538   19.4126 H   0  0  0  0  0  0
  -28.7558  -12.3142   21.4662 H   0  0  0  0  0  0
  -28.3819  -13.9999   21.7409 H   0  0  0  0  0  0
  -25.2763   -9.5700   22.4744 H   0  0  0  0  0  0
  -24.0012   -7.4653   22.7487 H   0  0  0  0  0  0
  -21.0837   -8.8746   19.8970 H   0  0  0  0  0  0
  -22.3669  -10.9657   19.6161 H   0  0  0  0  0  0
  -21.2008   -7.6139   23.9694 H   0  0  0  0  0  0
  -21.1498   -6.0526   25.9072 H   0  0  0  0  0  0
  -22.0591   -2.7595   23.2855 H   0  0  0  0  0  0
  -22.4061  -11.9855   22.4824 H   0  0  0  0  0  0
  -21.1110  -13.1269   22.2645 H   0  0  0  0  0  0
  -24.6418  -15.8477   20.5122 H   0  0  0  0  0  0
  -26.2595  -15.6405   20.0753 H   0  0  0  0  0  0
  -26.7311  -32.5289   23.0985 H   0  0  0  0  0  0
  -25.0137  -33.9612   25.0306 H   0  0  0  0  0  0
  -22.7558  -31.2942   21.3717 H   0  0  0  0  0  0
  -23.3730  -35.9624   23.3270 H   0  0  0  0  0  0
  -24.3584  -36.8937   22.2059 H   0  0  0  0  0  0
  -23.7280  -37.6452   23.6699 H   0  0  0  0  0  0
  -26.1619  -31.4806   20.6167 H   0  0  0  0  0  0
  -26.8753  -30.7683   22.0280 H   0  0  0  0  0  0
  -28.1337  -28.7975   21.2265 H   0  0  0  0  0  0
  -25.8816  -25.8425   19.0093 H   0  0  0  0  0  0
  -23.9603  -27.2934   19.0099 H   0  0  0  0  0  0
  -23.8152  -30.5672   19.3930 H   0  0  0  0  0  0
  -22.7915  -29.2400   19.8337 H   0  0  0  0  0  0
  -25.1325  -36.1816   25.0776 H   0  0  0  0  0  0
  -21.0048  -28.3356   24.1300 H   0  0  0  0  0  0
  -20.5711  -26.2378   23.3632 H   0  0  0  0  0  0
  -21.6675  -26.7452   22.1193 H   0  0  0  0  0  0
  -19.6948  -25.6270   21.1275 H   0  0  0  0  0  0
  -19.6700  -27.3154   20.6710 H   0  0  0  0  0  0
  -17.4242  -26.6691   21.4008 H   0  0  0  0  0  0
  -18.0356  -26.0078   22.9010 H   0  0  0  0  0  0
  -19.7964  -30.7318   24.2207 H   0  0  0  0  0  0
  -17.5027  -31.6253   24.5187 H   0  0  0  0  0  0
  -15.5370  -30.2962   23.7666 H   0  0  0  0  0  0
  -15.8714  -28.0797   22.7065 H   0  0  0  0  0  0
  -24.5853  -30.7206   25.7733 H   0  0  0  0  0  0
  -24.8956  -32.3038   26.4756 H   0  0  0  0  0  0
  -25.7983  -30.9031   27.0222 H   0  0  0  0  0  0
  -26.3030  -29.6650   24.1355 H   0  0  0  0  0  0
  -27.3924  -29.7273   25.4992 H   0  0  0  0  0  0
  -27.8981  -30.4085   23.9729 H   0  0  0  0  0  0
  -27.2541  -33.3649   26.2088 H   0  0  0  0  0  0
  -28.3906  -32.6981   25.0466 H   0  0  0  0  0  0
  -28.0629  -31.8534   26.5537 H   0  0  0  0  0  0
  -28.2549  -38.0124   24.7498 H   0  0  0  0  0  0
  -28.1108  -36.2635   24.6251 H   0  0  0  0  0  0
  -27.2285  -37.1426   25.8848 H   0  0  0  0  0  0
  -20.9483  -29.8828   21.6776 H   0  0  0  0  0  0
  -26.0121  -38.2773   24.1422 H   0  0  0  0  0  0
  -30.4242  -21.3935   18.6835 H   0  0  0  0  0  0
  -31.4878  -19.5066   17.5921 H   0  0  0  0  0  0
  -28.6301  -18.6315   21.4832 H   0  0  0  0  0  0
  -31.4182  -17.3024   16.9314 H   0  0  0  0  0  0
  -30.6928  -16.0237   17.8637 H   0  0  0  0  0  0
  -32.3114  -16.6330   18.2884 H   0  0  0  0  0  0
  -26.9858  -20.4205   21.5584 H   0  0  0  0  0  0
  -26.6694  -21.1867   20.0074 H   0  0  0  0  0  0
  -26.6736  -22.1436   21.4834 H   0  0  0  0  0  0
  -28.3245  -22.8268   19.4066 H   0  0  0  0  0  0
  -28.6106  -23.4648   21.2710 H   0  0  0  0  0  0
  -26.9790  -24.4215   20.4128 H   0  0  0  0  0  0
  -27.7629  -24.6369   18.8967 H   0  0  0  0  0  0
  -29.0862  -21.5841   21.7978 H   0  0  0  0  0  0
  -28.8436  -15.9359   20.8186 H   0  0  0  0  0  0
  1 25  1  0  0  0
  1 30  2  0  0  0
  1 82  1  0  0  0
  2  3  1  0  0  0
  2 25  1  0  0  0
  2 83  1  0  0  0
  2 84  1  0  0  0
  3  4  1  0  0  0
  3 85  1  0  0  0
  3 86  1  0  0  0
  4  5  1  0  0  0
  4 87  1  0  0  0
  4 88  1  0  0  0
  5  6  1  0  0  0
  5 26  1  0  0  0
  5 89  1  0  0  0
  6 25  1  0  0  0
  6 90  1  0  0  0
  6 91  1  0  0  0
  7  8  2  0  0  0
  7 26  1  0  0  0
  7 29  1  0  0  0
  8  9  1  0  0  0
  8 22  1  0  0  0
  9 10  1  0  0  0
  9 27  2  0  0  0
 10 11  2  0  0  0
 10 15  1  0  0  0
 11 12  1  0  0  0
 11 92  1  0  0  0
 12 13  2  0  0  0
 12 93  1  0  0  0
 13 14  1  0  0  0
 13 31  1  0  0  0
 14 15  2  0  0  0
 14 94  1  0  0  0
 15 95  1  0  0  0
 16 17  2  0  0  0
 16 21  1  0  0  0
 16 31  1  0  0  0
 17 18  1  0  0  0
 17 96  1  0  0  0
 18 19  2  0  0  0
 18 97  1  0  0  0
 19 20  1  0  0  0
 19 24  1  0  0  0
 20 21  2  0  0  0
 20 98  1  0  0  0
 21 23  1  0  0  0
 22 28  1  0  0  0
 22 32  2  0  0  0
 26 27  1  0  0  0
 28 99  1  0  0  0
 28100  1  0  0  0
 29101  1  0  0  0
 29102  1  0  0  0
 33 34  1  0  0  0
 33 66  1  0  0  0
 33 70  2  0  0  0
 34 36  1  0  0  0
 34 59  1  0  0  0
 34103  1  0  0  0
 35 44  2  0  0  0
 35 45  1  0  0  0
 35 68  1  0  0  0
 36 56  1  0  0  0
 36104  1  0  0  0
 37 39  1  0  0  0
 37 47  1  0  0  0
 37 66  1  0  0  0
 37105  1  0  0  0
 38 43  2  0  0  0
 38 46  1  0  0  0
 38 47  1  0  0  0
 39 64  1  0  0  0
 39 67  2  0  0  0
 40 52  1  0  0  0
 40 53  2  0  0  0
 40 58  1  0  0  0
 41106  1  0  0  0
 41107  1  0  0  0
 41108  1  0  0  0
 41 48  1  0  0  0
 42 43  1  0  0  0
 42 66  1  0  0  0
 42109  1  0  0  0
 42110  1  0  0  0
 43 44  1  0  0  0
 44111  1  0  0  0
 45 46  2  0  0  0
 45112  1  0  0  0
 46113  1  0  0  0
 47114  1  0  0  0
 47115  1  0  0  0
 48 56  1  0  0  0
 48 65  1  0  0  0
 48116  1  0  0  0
 49 50  1  0  0  0
 49 53  1  0  0  0
 49 64  1  0  0  0
 49117  1  0  0  0
 50 51  1  0  0  0
 50118  1  0  0  0
 50119  1  0  0  0
 51 52  1  0  0  0
 51120  1  0  0  0
 51121  1  0  0  0
 52122  1  0  0  0
 52123  1  0  0  0
 53 54  1  0  0  0
 54 55  2  0  0  0
 54124  1  0  0  0
 55 57  1  0  0  0
 55125  1  0  0  0
 56 69  2  0  0  0
 57 58  2  0  0  0
 57126  1  0  0  0
 58127  1  0  0  0
 59 60  1  0  0  0
 59 61  1  0  0  0
 59 62  1  0  0  0
 60128  1  0  0  0
 60129  1  0  0  0
 60130  1  0  0  0
 61131  1  0  0  0
 61132  1  0  0  0
 61133  1  0  0  0
 62134  1  0  0  0
 62135  1  0  0  0
 62136  1  0  0  0
 63 65  1  0  0  0
 63137  1  0  0  0
 63138  1  0  0  0
 63139  1  0  0  0
 64140  1  0  0  0
 65141  1  0  0  0
 68 80  1  0  0  0
 71 72  2  0  0  0
 71 74  1  0  0  0
 71142  1  0  0  0
 72 75  1  0  0  0
 72143  1  0  0  0
 73 74  2  0  0  0
 73 76  1  0  0  0
 73144  1  0  0  0
 74 81  1  0  0  0
 75 76  2  0  0  0
 75 77  1  0  0  0
 76 82  1  0  0  0
 77145  1  0  0  0
 77146  1  0  0  0
 77147  1  0  0  0
 78148  1  0  0  0
 78149  1  0  0  0
 78150  1  0  0  0
 78 81  1  0  0  0
 79 80  1  0  0  0
 79 81  1  0  0  0
 79151  1  0  0  0
 79152  1  0  0  0
 80153  1  0  0  0
 80154  1  0  0  0
 81155  1  0  0  0
 82156  1  0  0  0
M  ISO  4   1 100  68 101  80 101  82 100
M  END
> <chiral flag>
0

> <version>
0

> <s_m_source_file>
/data/baiqing/PycharmProjects/Reinvent-master-3.2/result/LINK_invent/BTK/process_docking_weight1_custom_sum_contain_oxygen_bond_distance_aromatic_linkinvent_7_9_3/rearranged_h_0101.sdf

> <i_m_source_file_index>
92

> <r_mmod_Potential_Energy-OPLS-2005>
761.479736328125

> <r_mmod_Stretch_Energy-OPLS-2005>
288.999450683594

> <r_mmod_Bend_Energy-OPLS-2005>
477.677642822266

> <r_mmod_Torsional_Energy-OPLS-2005>
239.22380065918

> <r_mmod_Improper_Torsional_Energy-OPLS-2005>
4.4106273651123

> <r_mmod_Van_der_Waal_Energy-OPLS-2005>
147.678237915039

> <r_mmod_Electrostatic_Energy-OPLS-2005>
-387.263916015625

> <r_mmod_Solvation_Energy-OPLS-2005>
-203.789962768555

> <b_mmod_Minimization_Converged-OPLS-2005>
0

> <r_mmod_RMS_Derivative-OPLS-2005>
3.22482013702393

$$$$
92
                    3D
 Structure written by MMmdl.
150157  0  0  1  0            999 V2000
  -30.3927  -15.5439   20.4235 C   0  0  0  0  0  0
  -30.4424  -13.0144   19.5760 C   0  0  0  0  0  0
  -29.5764  -12.7012   18.3289 C   0  0  0  0  0  0
  -28.1254  -12.3743   18.7293 C   0  0  0  0  0  0
  -27.6166  -13.3186   19.8467 C   0  0  2  0  0  0
  -28.6453  -13.5771   20.9841 C   0  0  0  0  0  0
  -25.2350  -13.8295   20.5801 C   0  0  0  0  0  0
  -24.1681  -13.0429   20.9223 C   0  0  0  0  0  0
  -24.6460  -11.7004   20.8659 C   0  0  0  0  0  0
  -23.9086  -10.4399   21.0375 C   0  0  0  0  0  0
  -24.3616   -9.4335   21.9083 C   0  0  0  0  0  0
  -23.6353   -8.2293   22.0709 C   0  0  0  0  0  0
  -22.4333   -8.0268   21.3512 C   0  0  0  0  0  0
  -21.9928   -9.0231   20.4572 C   0  0  0  0  0  0
  -22.7228  -10.2152   20.3036 C   0  0  0  0  0  0
  -21.6906   -6.0711   22.5271 C   0  0  0  0  0  0
  -21.3994   -6.5603   23.8192 C   0  0  0  0  0  0
  -21.3737   -5.6780   24.9130 C   0  0  0  0  0  0
  -21.6109   -4.3043   24.7231 C   0  0  0  0  0  0
  -21.8794   -3.8092   23.4303 C   0  0  0  0  0  0
  -21.9236   -4.6908   22.3359 C   0  0  0  0  0  0
  -22.7786  -13.5205   21.1942 C   0  0  0  0  0  0
  -22.1630   -4.2135   21.0961 F   0  0  0  0  0  0
  -21.5793   -3.4533   25.7714 F   0  0  0  0  0  0
  -29.8401  -14.1925   20.3411 N   0  0  0  0  0  0
  -26.2840  -12.9673   20.3289 N   0  0  0  0  0  0
  -25.9432  -11.6708   20.5682 N   0  0  0  0  0  0
  -22.0335  -12.8173   22.0489 N   0  0  0  0  0  0
  -25.3980  -15.2049   20.4238 N   0  0  0  0  0  0
  -31.6260  -15.4791   20.2474 O   0  0  0  0  0  0
  -21.6698   -6.8834   21.4210 O   0  0  0  0  0  0
  -22.3458  -14.5481   20.6794 O   0  0  0  0  0  0
  -24.6789  -31.8008   23.1587 C   0  0  0  0  0  0
  -25.9379  -32.4459   23.8111 C   0  0  1  0  0  0
  -27.2159  -26.7319   20.2151 C   0  0  0  0  0  0
  -25.5988  -33.8302   24.1994 N   0  0  0  0  0  0
  -23.5041  -30.4087   21.5078 C   0  0  2  0  0  0
  -24.9660  -28.7598   20.1125 C   0  0  0  0  0  0
  -22.7739  -29.4319   22.4722 C   0  0  0  0  0  0
  -18.0343  -28.1377   22.8495 C   0  0  0  0  0  0
  -24.1510  -36.7138   23.2657 C   0  0  0  0  0  0
  -26.0847  -30.5379   21.4311 C   0  0  0  0  0  0
  -26.1469  -29.1126   20.7750 C   0  0  0  0  0  0
  -27.2607  -28.1210   20.7944 C   0  0  0  0  0  0
  -26.0038  -26.5818   19.4967 C   0  0  0  0  0  0
  -24.9297  -27.5203   19.4488 C   0  0  0  0  0  0
  -23.7612  -29.7152   20.1382 C   0  0  0  0  0  0
  -25.4173  -36.2906   24.0296 C   0  0  1  0  0  0
  -20.5992  -28.3743   23.1186 C   0  0  2  0  0  0
  -20.6823  -26.9394   22.5442 C   0  0  0  0  0  0
  -19.5774  -26.6343   21.5269 C   0  0  0  0  0  0
  -18.1963  -26.7934   22.1657 C   0  0  0  0  0  0
  -19.1598  -28.8890   23.2851 C   0  0  0  0  0  0
  -18.9484  -30.1496   23.8876 C   0  0  0  0  0  0
  -17.6451  -30.6564   24.0549 C   0  0  0  0  0  0
  -25.9125  -34.9286   23.4973 C   0  0  0  0  0  0
  -16.5369  -29.9030   23.6324 C   0  0  0  0  0  0
  -16.7332  -28.6441   23.0394 C   0  0  0  0  0  0
  -26.4604  -31.6483   25.0710 C   0  0  0  0  0  0
  -25.3674  -31.3796   26.1326 C   0  0  0  0  0  0
  -27.0524  -30.2802   24.6631 C   0  0  0  0  0  0
  -27.6070  -32.4371   25.7508 C   0  0  0  0  0  0
  -27.5595  -37.1740   24.8468 C   0  0  0  0  0  0
  -21.4421  -29.2973   22.3437 N   0  0  0  0  0  0
  -26.4322  -37.3637   23.9389 N   0  0  0  0  0  0
  -24.7771  -30.9467   22.0866 N   0  0  0  0  0  0
  -23.4225  -28.7875   23.2970 O   0  0  0  0  0  0
  -28.1730  -25.5328   20.3461 O   0  0  0  0  0  0
  -26.5736  -34.8850   22.4568 O   0  0  0  0  0  0
  -23.5836  -32.1108   23.6519 O   0  0  0  0  0  0
  -29.3870  -20.2894   18.6604 C   0  0  0  0  0  0
  -30.1615  -18.8525   22.2352 C   0  0  0  0  0  0
  -28.1028  -23.8202   20.0346 C   0  0  0  0  0  0
  -28.9927  -20.2717   20.1634 C   0  0  1  0  0  0
  -29.8707  -18.6507   20.7291 C   0  0  2  0  0  0
  -28.8007  -22.1441   20.7020 C   0  0  1  0  0  0
  -29.6613  -16.9048   20.5102 N   0  0  0  0  0  0
  -29.9983  -22.5555   21.3451 O   0  0  0  0  0  0
  -31.4619  -13.2261   19.2580 H   0  0  0  0  0  0
  -30.5284  -12.1251   20.2051 H   0  0  0  0  0  0
  -30.0210  -11.8863   17.7593 H   0  0  0  0  0  0
  -29.5712  -13.5720   17.6699 H   0  0  0  0  0  0
  -28.0891  -11.3336   19.0508 H   0  0  0  0  0  0
  -27.4724  -12.4488   17.8607 H   0  0  0  0  0  0
  -27.5070  -14.2852   19.3558 H   0  0  0  0  0  0
  -28.8899  -12.6595   21.5246 H   0  0  0  0  0  0
  -28.2459  -14.2681   21.7313 H   0  0  0  0  0  0
  -25.2738   -9.5887   22.4692 H   0  0  0  0  0  0
  -24.0131   -7.4750   22.7494 H   0  0  0  0  0  0
  -21.0849   -8.8584   19.8926 H   0  0  0  0  0  0
  -22.3480  -10.9611   19.6205 H   0  0  0  0  0  0
  -21.1787   -7.6076   23.9635 H   0  0  0  0  0  0
  -21.1692   -6.0489   25.9049 H   0  0  0  0  0  0
  -22.0503   -2.7593   23.2782 H   0  0  0  0  0  0
  -22.3899  -11.9889   22.4973 H   0  0  0  0  0  0
  -21.0921  -13.1166   22.2510 H   0  0  0  0  0  0
  -24.6506  -15.8635   20.6290 H   0  0  0  0  0  0
  -26.2447  -15.6481   20.0972 H   0  0  0  0  0  0
  -26.7424  -32.4955   23.0814 H   0  0  0  0  0  0
  -25.0103  -33.9366   25.0131 H   0  0  0  0  0  0
  -22.8295  -31.2462   21.3197 H   0  0  0  0  0  0
  -23.3796  -35.9439   23.3320 H   0  0  0  0  0  0
  -24.3571  -36.8782   22.2057 H   0  0  0  0  0  0
  -23.7260  -37.6319   23.6723 H   0  0  0  0  0  0
  -26.3060  -31.2711   20.6511 H   0  0  0  0  0  0
  -26.9297  -30.5881   22.1063 H   0  0  0  0  0  0
  -28.1361  -28.3798   21.3726 H   0  0  0  0  0  0
  -25.8407  -25.6391   18.9927 H   0  0  0  0  0  0
  -24.0484  -27.2526   18.8866 H   0  0  0  0  0  0
  -23.9302  -30.4771   19.3765 H   0  0  0  0  0  0
  -22.8719  -29.1740   19.8139 H   0  0  0  0  0  0
  -25.1396  -36.1691   25.0780 H   0  0  0  0  0  0
  -21.0168  -28.3352   24.1288 H   0  0  0  0  0  0
  -20.5715  -26.2320   23.3689 H   0  0  0  0  0  0
  -21.6671  -26.7324   22.1200 H   0  0  0  0  0  0
  -19.6890  -25.6243   21.1300 H   0  0  0  0  0  0
  -19.6729  -27.3164   20.6805 H   0  0  0  0  0  0
  -17.4255  -26.6787   21.4030 H   0  0  0  0  0  0
  -18.0270  -26.0081   22.9018 H   0  0  0  0  0  0
  -19.7938  -30.7338   24.2276 H   0  0  0  0  0  0
  -17.4960  -31.6279   24.5081 H   0  0  0  0  0  0
  -15.5345  -30.2872   23.7667 H   0  0  0  0  0  0
  -15.8779  -28.0718   22.7143 H   0  0  0  0  0  0
  -24.5872  -30.7153   25.7591 H   0  0  0  0  0  0
  -24.8871  -32.3015   26.4601 H   0  0  0  0  0  0
  -25.7851  -30.9023   27.0186 H   0  0  0  0  0  0
  -26.3204  -29.6416   24.1673 H   0  0  0  0  0  0
  -27.3950  -29.7275   25.5374 H   0  0  0  0  0  0
  -27.9225  -30.3889   24.0168 H   0  0  0  0  0  0
  -27.2598  -33.3736   26.1912 H   0  0  0  0  0  0
  -28.3969  -32.6839   25.0389 H   0  0  0  0  0  0
  -28.0653  -31.8614   26.5562 H   0  0  0  0  0  0
  -28.2579  -38.0036   24.7475 H   0  0  0  0  0  0
  -28.1103  -36.2575   24.6372 H   0  0  0  0  0  0
  -27.2280  -37.1465   25.8843 H   0  0  0  0  0  0
  -20.9661  -29.8611   21.6553 H   0  0  0  0  0  0
  -26.0160  -38.2697   24.1334 H   0  0  0  0  0  0
  -28.7405  -20.9511   18.0849 H   0  0  0  0  0  0
  -29.2791  -19.3019   18.2143 H   0  0  0  0  0  0
  -30.4255  -20.5921   18.5185 H   0  0  0  0  0  0
  -30.7604  -19.7548   22.3835 H   0  0  0  0  0  0
  -30.7427  -18.0309   22.6611 H   0  0  0  0  0  0
  -29.2467  -18.9674   22.8090 H   0  0  0  0  0  0
  -27.0293  -23.6278   19.8998 H   0  0  0  0  0  0
  -28.4139  -23.8072   18.9875 H   0  0  0  0  0  0
  -27.9368  -19.9685   20.1401 H   0  0  0  0  0  0
  -30.8869  -18.7516   20.3134 H   0  0  0  0  0  0
  -28.2353  -22.0231   21.6251 H   0  0  0  0  0  0
  -28.6740  -16.6971   20.5659 H   0  0  0  0  0  0
  -29.7221  -22.9195   22.1856 H   0  0  0  0  0  0
  1 25  1  0  0  0
  1 30  2  0  0  0
  1 77  1  0  0  0
  2  3  1  0  0  0
  2 25  1  0  0  0
  2 79  1  0  0  0
  2 80  1  0  0  0
  3  4  1  0  0  0
  3 81  1  0  0  0
  3 82  1  0  0  0
  4  5  1  0  0  0
  4 83  1  0  0  0
  4 84  1  0  0  0
  5  6  1  0  0  0
  5 26  1  0  0  0
  5 85  1  0  0  0
  6 25  1  0  0  0
  6 86  1  0  0  0
  6 87  1  0  0  0
  7  8  2  0  0  0
  7 26  1  0  0  0
  7 29  1  0  0  0
  8  9  1  0  0  0
  8 22  1  0  0  0
  9 10  1  0  0  0
  9 27  2  0  0  0
 10 11  2  0  0  0
 10 15  1  0  0  0
 11 12  1  0  0  0
 11 88  1  0  0  0
 12 13  2  0  0  0
 12 89  1  0  0  0
 13 14  1  0  0  0
 13 31  1  0  0  0
 14 15  2  0  0  0
 14 90  1  0  0  0
 15 91  1  0  0  0
 16 17  2  0  0  0
 16 21  1  0  0  0
 16 31  1  0  0  0
 17 18  1  0  0  0
 17 92  1  0  0  0
 18 19  2  0  0  0
 18 93  1  0  0  0
 19 20  1  0  0  0
 19 24  1  0  0  0
 20 21  2  0  0  0
 20 94  1  0  0  0
 21 23  1  0  0  0
 22 28  1  0  0  0
 22 32  2  0  0  0
 26 27  1  0  0  0
 28 95  1  0  0  0
 28 96  1  0  0  0
 29 97  1  0  0  0
 29 98  1  0  0  0
 33 34  1  0  0  0
 33 66  1  0  0  0
 33 70  2  0  0  0
 34 36  1  0  0  0
 34 59  1  0  0  0
 34 99  1  0  0  0
 35 44  2  0  0  0
 35 45  1  0  0  0
 35 68  1  0  0  0
 36 56  1  0  0  0
 36100  1  0  0  0
 37 39  1  0  0  0
 37 47  1  0  0  0
 37 66  1  0  0  0
 37101  1  0  0  0
 38 43  2  0  0  0
 38 46  1  0  0  0
 38 47  1  0  0  0
 39 64  1  0  0  0
 39 67  2  0  0  0
 40 52  1  0  0  0
 40 53  2  0  0  0
 40 58  1  0  0  0
 41102  1  0  0  0
 41103  1  0  0  0
 41104  1  0  0  0
 41 48  1  0  0  0
 42 43  1  0  0  0
 42 66  1  0  0  0
 42105  1  0  0  0
 42106  1  0  0  0
 43 44  1  0  0  0
 44107  1  0  0  0
 45 46  2  0  0  0
 45108  1  0  0  0
 46109  1  0  0  0
 47110  1  0  0  0
 47111  1  0  0  0
 48 56  1  0  0  0
 48 65  1  0  0  0
 48112  1  0  0  0
 49 50  1  0  0  0
 49 53  1  0  0  0
 49 64  1  0  0  0
 49113  1  0  0  0
 50 51  1  0  0  0
 50114  1  0  0  0
 50115  1  0  0  0
 51 52  1  0  0  0
 51116  1  0  0  0
 51117  1  0  0  0
 52118  1  0  0  0
 52119  1  0  0  0
 53 54  1  0  0  0
 54 55  2  0  0  0
 54120  1  0  0  0
 55 57  1  0  0  0
 55121  1  0  0  0
 56 69  2  0  0  0
 57 58  2  0  0  0
 57122  1  0  0  0
 58123  1  0  0  0
 59 60  1  0  0  0
 59 61  1  0  0  0
 59 62  1  0  0  0
 60124  1  0  0  0
 60125  1  0  0  0
 60126  1  0  0  0
 61127  1  0  0  0
 61128  1  0  0  0
 61129  1  0  0  0
 62130  1  0  0  0
 62131  1  0  0  0
 62132  1  0  0  0
 63 65  1  0  0  0
 63133  1  0  0  0
 63134  1  0  0  0
 63135  1  0  0  0
 64136  1  0  0  0
 65137  1  0  0  0
 68 73  1  0  0  0
 71138  1  0  0  0
 71139  1  0  0  0
 71140  1  0  0  0
 71 74  1  0  0  0
 72141  1  0  0  0
 72142  1  0  0  0
 72143  1  0  0  0
 72 75  1  0  0  0
 73 76  1  0  0  0
 73144  1  0  0  0
 73145  1  0  0  0
 74 75  1  0  0  0
 74 76  1  0  0  0
 74146  1  0  0  0
 75 77  1  0  0  0
 75147  1  0  0  0
 76 78  1  0  0  0
 76148  1  0  0  0
 77149  1  0  0  0
 78150  1  0  0  0
M  ISO  4   1 100  68 101  73 101  77 100
M  END
> <chiral flag>
0

> <version>
0

> <s_m_source_file>
/data/baiqing/PycharmProjects/Reinvent-master-3.2/result/LINK_invent/BTK/process_docking_weight1_custom_sum_contain_oxygen_bond_distance_aromatic_linkinvent_7_9_3/rearranged_h_0101.sdf

> <i_m_source_file_index>
93

> <r_mmod_Potential_Energy-OPLS-2005>
2366.548828125

> <r_mmod_Stretch_Energy-OPLS-2005>
1143.83239746094

> <r_mmod_Bend_Energy-OPLS-2005>
630.859680175781

> <r_mmod_Torsional_Energy-OPLS-2005>
267.673004150391

> <r_mmod_Improper_Torsional_Energy-OPLS-2005>
3.81125283241272

> <r_mmod_Van_der_Waal_Energy-OPLS-2005>
103.897361755371

> <r_mmod_Electrostatic_Energy-OPLS-2005>
-336.471527099609

> <r_mmod_Solvation_Energy-OPLS-2005>
-236.531860351562

> <b_mmod_Minimization_Converged-OPLS-2005>
0

> <r_mmod_RMS_Derivative-OPLS-2005>
19.1687259674072

$$$$
93
                    3D
 Structure written by MMmdl.
158165  0  0  1  0            999 V2000
  -30.5077  -14.9399   20.4216 C   0  0  0  0  0  0
  -30.4290  -12.5849   19.4744 C   0  0  0  0  0  0
  -29.5137  -12.5357   18.2305 C   0  0  0  0  0  0
  -28.0447  -12.3209   18.6471 C   0  0  0  0  0  0
  -27.6180  -13.2435   19.8191 C   0  0  2  0  0  0
  -28.6558  -13.2619   20.9585 C   0  0  0  0  0  0
  -25.2424  -13.8182   20.5633 C   0  0  0  0  0  0
  -24.1772  -13.0445   20.9237 C   0  0  0  0  0  0
  -24.6397  -11.6929   20.8780 C   0  0  0  0  0  0
  -23.9081  -10.4299   21.0416 C   0  0  0  0  0  0
  -24.3634   -9.4213   21.9188 C   0  0  0  0  0  0
  -23.6328   -8.2237   22.0722 C   0  0  0  0  0  0
  -22.4306   -8.0277   21.3526 C   0  0  0  0  0  0
  -21.9945   -9.0249   20.4624 C   0  0  0  0  0  0
  -22.7271  -10.2133   20.3046 C   0  0  0  0  0  0
  -21.6843   -6.0753   22.5305 C   0  0  0  0  0  0
  -21.4019   -6.5628   23.8258 C   0  0  0  0  0  0
  -21.3657   -5.6783   24.9207 C   0  0  0  0  0  0
  -21.6045   -4.3038   24.7249 C   0  0  0  0  0  0
  -21.8806   -3.8155   23.4361 C   0  0  0  0  0  0
  -21.9192   -4.6990   22.3420 C   0  0  0  0  0  0
  -22.7790  -13.5190   21.1938 C   0  0  0  0  0  0
  -22.1655   -4.2173   21.1005 F   0  0  0  0  0  0
  -21.5620   -3.4516   25.7754 F   0  0  0  0  0  0
  -29.9260  -13.6753   20.3513 N   0  0  0  0  0  0
  -26.2812  -12.9420   20.3106 N   0  0  0  0  0  0
  -25.9301  -11.6559   20.5654 N   0  0  0  0  0  0
  -22.0458  -12.8161   22.0482 N   0  0  0  0  0  0
  -25.4098  -15.1905   20.4016 N   0  0  0  0  0  0
  -31.7230  -15.0241   20.2151 O   0  0  0  0  0  0
  -21.6641   -6.8907   21.4263 O   0  0  0  0  0  0
  -22.3476  -14.5514   20.6798 O   0  0  0  0  0  0
  -24.6396  -31.8390   23.1894 C   0  0  0  0  0  0
  -25.9162  -32.4693   23.8268 C   0  0  1  0  0  0
  -27.2197  -27.1291   20.1451 C   0  0  0  0  0  0
  -25.5929  -33.8522   24.2187 N   0  0  0  0  0  0
  -23.4484  -30.4578   21.5311 C   0  0  2  0  0  0
  -24.8964  -28.8777   20.1076 C   0  0  0  0  0  0
  -22.7552  -29.4539   22.4867 C   0  0  0  0  0  0
  -18.0284  -28.1414   22.8452 C   0  0  0  0  0  0
  -24.1480  -36.7246   23.2659 C   0  0  0  0  0  0
  -26.0035  -30.7059   21.3930 C   0  0  0  0  0  0
  -26.0697  -29.3183   20.7306 C   0  0  0  0  0  0
  -27.2278  -28.4580   20.7332 C   0  0  0  0  0  0
  -26.0220  -26.7829   19.4847 C   0  0  0  0  0  0
  -24.8845  -27.6235   19.4704 C   0  0  0  0  0  0
  -23.6768  -29.7845   20.1505 C   0  0  0  0  0  0
  -25.4127  -36.3070   24.0337 C   0  0  1  0  0  0
  -20.5912  -28.3729   23.1224 C   0  0  2  0  0  0
  -20.6792  -26.9442   22.5403 C   0  0  0  0  0  0
  -19.5796  -26.6390   21.5190 C   0  0  0  0  0  0
  -18.1953  -26.7957   22.1574 C   0  0  0  0  0  0
  -19.1553  -28.8894   23.2824 C   0  0  0  0  0  0
  -18.9475  -30.1484   23.8856 C   0  0  0  0  0  0
  -17.6492  -30.6606   24.0568 C   0  0  0  0  0  0
  -25.9070  -34.9425   23.5076 C   0  0  0  0  0  0
  -16.5375  -29.9103   23.6359 C   0  0  0  0  0  0
  -16.7271  -28.6536   23.0352 C   0  0  0  0  0  0
  -26.4502  -31.6598   25.0726 C   0  0  0  0  0  0
  -25.3681  -31.3758   26.1422 C   0  0  0  0  0  0
  -27.0429  -30.3009   24.6358 C   0  0  0  0  0  0
  -27.6055  -32.4351   25.7490 C   0  0  0  0  0  0
  -27.5586  -37.1805   24.8477 C   0  0  0  0  0  0
  -21.4268  -29.3040   22.3606 N   0  0  0  0  0  0
  -26.4314  -37.3747   23.9420 N   0  0  0  0  0  0
  -24.7179  -31.0242   22.0912 N   0  0  0  0  0  0
  -23.4176  -28.8102   23.3034 O   0  0  0  0  0  0
  -28.2973  -26.1803   20.2623 O   0  0  0  0  0  0
  -26.5667  -34.8898   22.4661 O   0  0  0  0  0  0
  -23.5523  -32.1318   23.7072 O   0  0  0  0  0  0
  -30.4216  -22.0452   19.4255 C   0  0  0  0  0  0
  -28.9480  -23.5375   21.9526 C   0  0  0  0  0  0
  -26.8189  -22.9981   20.7455 C   0  0  0  0  0  0
  -29.9412  -17.6448   20.7926 C   0  0  0  0  0  0
  -29.0860  -18.9586   20.1337 C   0  0  0  0  0  0
  -28.3873  -24.7192   19.7286 C   0  0  0  0  0  0
  -28.9914  -21.7868   19.9490 C   0  0  2  0  0  0
  -28.3315  -23.2459   20.5678 C   0  0  0  0  0  0
  -29.6872  -16.1014   20.5115 N   0  0  0  0  0  0
  -29.0535  -20.4209   20.7669 N   0  3  0  0  0  0
  -31.4687  -12.7387   19.1835 H   0  0  0  0  0  0
  -30.3949  -11.6263   19.9950 H   0  0  0  0  0  0
  -29.8335  -11.7395   17.5553 H   0  0  0  0  0  0
  -29.6039  -13.4713   17.6707 H   0  0  0  0  0  0
  -27.9457  -11.2749   18.9404 H   0  0  0  0  0  0
  -27.3796  -12.4576   17.7913 H   0  0  0  0  0  0
  -27.5796  -14.2503   19.3974 H   0  0  0  0  0  0
  -28.7395  -12.2801   21.4314 H   0  0  0  0  0  0
  -28.3497  -13.9602   21.7425 H   0  0  0  0  0  0
  -25.2773   -9.5649   22.4789 H   0  0  0  0  0  0
  -24.0022   -7.4590   22.7408 H   0  0  0  0  0  0
  -21.0879   -8.8776   19.8936 H   0  0  0  0  0  0
  -22.3742  -10.9671   19.6129 H   0  0  0  0  0  0
  -21.2019   -7.6135   23.9753 H   0  0  0  0  0  0
  -21.1477   -6.0524   25.9114 H   0  0  0  0  0  0
  -22.0592   -2.7627   23.2873 H   0  0  0  0  0  0
  -22.4031  -11.9817   22.4886 H   0  0  0  0  0  0
  -21.1050  -13.1141   22.2628 H   0  0  0  0  0  0
  -24.6210  -15.8251   20.4646 H   0  0  0  0  0  0
  -26.2255  -15.6185   19.9834 H   0  0  0  0  0  0
  -26.7249  -32.5296   23.1015 H   0  0  0  0  0  0
  -25.0092  -33.9649   25.0355 H   0  0  0  0  0  0
  -22.7508  -31.2825   21.3767 H   0  0  0  0  0  0
  -23.3783  -35.9534   23.3297 H   0  0  0  0  0  0
  -24.3554  -36.8864   22.2076 H   0  0  0  0  0  0
  -23.7184  -37.6413   23.6686 H   0  0  0  0  0  0
  -26.1708  -31.4597   20.6253 H   0  0  0  0  0  0
  -26.8704  -30.7467   22.0396 H   0  0  0  0  0  0
  -28.1214  -28.7865   21.2459 H   0  0  0  0  0  0
  -25.9263  -25.8178   19.0086 H   0  0  0  0  0  0
  -23.9861  -27.2798   18.9748 H   0  0  0  0  0  0
  -23.8191  -30.5597   19.3967 H   0  0  0  0  0  0
  -22.7888  -29.2312   19.8345 H   0  0  0  0  0  0
  -25.1312  -36.1895   25.0831 H   0  0  0  0  0  0
  -20.9962  -28.3311   24.1360 H   0  0  0  0  0  0
  -20.5662  -26.2344   23.3615 H   0  0  0  0  0  0
  -21.6657  -26.7465   22.1219 H   0  0  0  0  0  0
  -19.6947  -25.6276   21.1254 H   0  0  0  0  0  0
  -19.6728  -27.3178   20.6701 H   0  0  0  0  0  0
  -17.4222  -26.6676   21.3968 H   0  0  0  0  0  0
  -18.0364  -26.0122   22.8993 H   0  0  0  0  0  0
  -19.7954  -30.7316   24.2189 H   0  0  0  0  0  0
  -17.5044  -31.6270   24.5184 H   0  0  0  0  0  0
  -15.5384  -30.2998   23.7735 H   0  0  0  0  0  0
  -15.8660  -28.0858   22.7086 H   0  0  0  0  0  0
  -24.5872  -30.7098   25.7721 H   0  0  0  0  0  0
  -24.8882  -32.2927   26.4839 H   0  0  0  0  0  0
  -25.7966  -30.8918   27.0212 H   0  0  0  0  0  0
  -26.3089  -29.6682   24.1373 H   0  0  0  0  0  0
  -27.4051  -29.7335   25.4957 H   0  0  0  0  0  0
  -27.8953  -30.4272   23.9686 H   0  0  0  0  0  0
  -27.2696  -33.3677   26.2016 H   0  0  0  0  0  0
  -28.3887  -32.6860   25.0321 H   0  0  0  0  0  0
  -28.0714  -31.8513   26.5438 H   0  0  0  0  0  0
  -28.2633  -38.0078   24.7541 H   0  0  0  0  0  0
  -28.1045  -36.2632   24.6286 H   0  0  0  0  0  0
  -27.2304  -37.1403   25.8871 H   0  0  0  0  0  0
  -20.9493  -29.8705   21.6762 H   0  0  0  0  0  0
  -26.0174  -38.2798   24.1421 H   0  0  0  0  0  0
  -30.4690  -22.8927   18.7442 H   0  0  0  0  0  0
  -30.8048  -21.1815   18.8771 H   0  0  0  0  0  0
  -31.1150  -22.2397   20.2480 H   0  0  0  0  0  0
  -28.4601  -24.3987   22.4151 H   0  0  0  0  0  0
  -30.0106  -23.7742   21.8852 H   0  0  0  0  0  0
  -28.8252  -22.6997   22.6420 H   0  0  0  0  0  0
  -26.3122  -23.8956   21.1055 H   0  0  0  0  0  0
  -26.6053  -22.1916   21.4502 H   0  0  0  0  0  0
  -26.3535  -22.7381   19.7905 H   0  0  0  0  0  0
  -29.8426  -17.7311   21.8722 H   0  0  0  0  0  0
  -31.0017  -17.8269   20.5973 H   0  0  0  0  0  0
  -28.0379  -18.6748   20.0668 H   0  0  0  0  0  0
  -29.3949  -19.0543   19.0904 H   0  0  0  0  0  0
  -27.7550  -24.6329   18.8480 H   0  0  0  0  0  0
  -29.3839  -24.7380   19.2915 H   0  0  0  0  0  0
  -28.3864  -21.5493   19.0728 H   0  0  0  0  0  0
  -28.7068  -15.8595   20.5179 H   0  0  0  0  0  0
  -29.8486  -20.4880   21.3845 H   0  0  0  0  0  0
  -28.2469  -20.4151   21.3720 H   0  0  0  0  0  0
  1 25  1  0  0  0
  1 30  2  0  0  0
  1 79  1  0  0  0
  2  3  1  0  0  0
  2 25  1  0  0  0
  2 81  1  0  0  0
  2 82  1  0  0  0
  3  4  1  0  0  0
  3 83  1  0  0  0
  3 84  1  0  0  0
  4  5  1  0  0  0
  4 85  1  0  0  0
  4 86  1  0  0  0
  5  6  1  0  0  0
  5 26  1  0  0  0
  5 87  1  0  0  0
  6 25  1  0  0  0
  6 88  1  0  0  0
  6 89  1  0  0  0
  7  8  2  0  0  0
  7 26  1  0  0  0
  7 29  1  0  0  0
  8  9  1  0  0  0
  8 22  1  0  0  0
  9 10  1  0  0  0
  9 27  2  0  0  0
 10 11  2  0  0  0
 10 15  1  0  0  0
 11 12  1  0  0  0
 11 90  1  0  0  0
 12 13  2  0  0  0
 12 91  1  0  0  0
 13 14  1  0  0  0
 13 31  1  0  0  0
 14 15  2  0  0  0
 14 92  1  0  0  0
 15 93  1  0  0  0
 16 17  2  0  0  0
 16 21  1  0  0  0
 16 31  1  0  0  0
 17 18  1  0  0  0
 17 94  1  0  0  0
 18 19  2  0  0  0
 18 95  1  0  0  0
 19 20  1  0  0  0
 19 24  1  0  0  0
 20 21  2  0  0  0
 20 96  1  0  0  0
 21 23  1  0  0  0
 22 28  1  0  0  0
 22 32  2  0  0  0
 26 27  1  0  0  0
 28 97  1  0  0  0
 28 98  1  0  0  0
 29 99  1  0  0  0
 29100  1  0  0  0
 33 34  1  0  0  0
 33 66  1  0  0  0
 33 70  2  0  0  0
 34 36  1  0  0  0
 34 59  1  0  0  0
 34101  1  0  0  0
 35 44  2  0  0  0
 35 45  1  0  0  0
 35 68  1  0  0  0
 36 56  1  0  0  0
 36102  1  0  0  0
 37 39  1  0  0  0
 37 47  1  0  0  0
 37 66  1  0  0  0
 37103  1  0  0  0
 38 43  2  0  0  0
 38 46  1  0  0  0
 38 47  1  0  0  0
 39 64  1  0  0  0
 39 67  2  0  0  0
 40 52  1  0  0  0
 40 53  2  0  0  0
 40 58  1  0  0  0
 41104  1  0  0  0
 41105  1  0  0  0
 41106  1  0  0  0
 41 48  1  0  0  0
 42 43  1  0  0  0
 42 66  1  0  0  0
 42107  1  0  0  0
 42108  1  0  0  0
 43 44  1  0  0  0
 44109  1  0  0  0
 45 46  2  0  0  0
 45110  1  0  0  0
 46111  1  0  0  0
 47112  1  0  0  0
 47113  1  0  0  0
 48 56  1  0  0  0
 48 65  1  0  0  0
 48114  1  0  0  0
 49 50  1  0  0  0
 49 53  1  0  0  0
 49 64  1  0  0  0
 49115  1  0  0  0
 50 51  1  0  0  0
 50116  1  0  0  0
 50117  1  0  0  0
 51 52  1  0  0  0
 51118  1  0  0  0
 51119  1  0  0  0
 52120  1  0  0  0
 52121  1  0  0  0
 53 54  1  0  0  0
 54 55  2  0  0  0
 54122  1  0  0  0
 55 57  1  0  0  0
 55123  1  0  0  0
 56 69  2  0  0  0
 57 58  2  0  0  0
 57124  1  0  0  0
 58125  1  0  0  0
 59 60  1  0  0  0
 59 61  1  0  0  0
 59 62  1  0  0  0
 60126  1  0  0  0
 60127  1  0  0  0
 60128  1  0  0  0
 61129  1  0  0  0
 61130  1  0  0  0
 61131  1  0  0  0
 62132  1  0  0  0
 62133  1  0  0  0
 62134  1  0  0  0
 63 65  1  0  0  0
 63135  1  0  0  0
 63136  1  0  0  0
 63137  1  0  0  0
 64138  1  0  0  0
 65139  1  0  0  0
 68 76  1  0  0  0
 71140  1  0  0  0
 71141  1  0  0  0
 71142  1  0  0  0
 71 77  1  0  0  0
 72143  1  0  0  0
 72144  1  0  0  0
 72145  1  0  0  0
 72 78  1  0  0  0
 73 78  1  0  0  0
 73146  1  0  0  0
 73147  1  0  0  0
 73148  1  0  0  0
 74 75  1  0  0  0
 74 79  1  0  0  0
 74149  1  0  0  0
 74150  1  0  0  0
 75 80  1  0  0  0
 75151  1  0  0  0
 75152  1  0  0  0
 76 78  1  0  0  0
 76153  1  0  0  0
 76154  1  0  0  0
 77 78  1  0  0  0
 77 80  1  0  0  0
 77155  1  0  0  0
 79156  1  0  0  0
 80157  1  0  0  0
 80158  1  0  0  0
M  CHG  1  80   1
M  ISO  4   1 100  68 101  76 101  79 100
M  END
> <chiral flag>
0

> <version>
0

> <s_m_source_file>
/data/baiqing/PycharmProjects/Reinvent-master-3.2/result/LINK_invent/BTK/process_docking_weight1_custom_sum_contain_oxygen_bond_distance_aromatic_linkinvent_7_9_3/rearranged_h_0101.sdf

> <i_m_source_file_index>
94

> <r_mmod_Potential_Energy-OPLS-2005>
352.808715820312

> <r_mmod_Stretch_Energy-OPLS-2005>
284.466278076172

> <r_mmod_Bend_Energy-OPLS-2005>
294.465576171875

> <r_mmod_Torsional_Energy-OPLS-2005>
249.960861206055

> <r_mmod_Improper_Torsional_Energy-OPLS-2005>
5.30410051345825

> <r_mmod_Van_der_Waal_Energy-OPLS-2005>
106.37467956543

> <r_mmod_Electrostatic_Energy-OPLS-2005>
-299.140014648438

> <r_mmod_Solvation_Energy-OPLS-2005>
-483.541137695312

> <b_mmod_Minimization_Converged-OPLS-2005>
0

> <r_mmod_RMS_Derivative-OPLS-2005>
6.36946868896484

$$$$
94
                    3D
 Structure written by MMmdl.
161168  0  0  1  0            999 V2000
  -30.5445  -14.9564   20.4122 C   0  0  0  0  0  0
  -30.4346  -12.6040   19.4940 C   0  0  0  0  0  0
  -29.5115  -12.5535   18.2532 C   0  0  0  0  0  0
  -28.0460  -12.3454   18.6767 C   0  0  0  0  0  0
  -27.6240  -13.2682   19.8462 C   0  0  2  0  0  0
  -28.6701  -13.2967   20.9788 C   0  0  0  0  0  0
  -25.2434  -13.8279   20.5850 C   0  0  0  0  0  0
  -24.1764  -13.0434   20.9325 C   0  0  0  0  0  0
  -24.6444  -11.6963   20.8830 C   0  0  0  0  0  0
  -23.9138  -10.4295   21.0440 C   0  0  0  0  0  0
  -24.3657   -9.4194   21.9215 C   0  0  0  0  0  0
  -23.6312   -8.2225   22.0766 C   0  0  0  0  0  0
  -22.4280   -8.0299   21.3557 C   0  0  0  0  0  0
  -21.9945   -9.0290   20.4657 C   0  0  0  0  0  0
  -22.7302  -10.2157   20.3088 C   0  0  0  0  0  0
  -21.6849   -6.0763   22.5304 C   0  0  0  0  0  0
  -21.3971   -6.5633   23.8225 C   0  0  0  0  0  0
  -21.3677   -5.6793   24.9178 C   0  0  0  0  0  0
  -21.6078   -4.3065   24.7240 C   0  0  0  0  0  0
  -21.8808   -3.8167   23.4335 C   0  0  0  0  0  0
  -21.9182   -4.6991   22.3405 C   0  0  0  0  0  0
  -22.7770  -13.5164   21.1984 C   0  0  0  0  0  0
  -22.1674   -4.2187   21.0980 F   0  0  0  0  0  0
  -21.5645   -3.4548   25.7732 F   0  0  0  0  0  0
  -29.9431  -13.7018   20.3691 N   0  0  0  0  0  0
  -26.2868  -12.9549   20.3332 N   0  0  0  0  0  0
  -25.9365  -11.6665   20.5792 N   0  0  0  0  0  0
  -22.0448  -12.8075   22.0519 N   0  0  0  0  0  0
  -25.4077  -15.1981   20.4301 N   0  0  0  0  0  0
  -31.7525  -15.0107   20.1555 O   0  0  0  0  0  0
  -21.6641   -6.8909   21.4241 O   0  0  0  0  0  0
  -22.3479  -14.5544   20.6954 O   0  0  0  0  0  0
  -24.6422  -31.8451   23.1903 C   0  0  0  0  0  0
  -25.9184  -32.4678   23.8298 C   0  0  1  0  0  0
  -27.2146  -27.1477   20.1499 C   0  0  0  0  0  0
  -25.5992  -33.8499   24.2228 N   0  0  0  0  0  0
  -23.4455  -30.4598   21.5361 C   0  0  2  0  0  0
  -24.8991  -28.8980   20.0954 C   0  0  0  0  0  0
  -22.7556  -29.4501   22.4873 C   0  0  0  0  0  0
  -18.0252  -28.1419   22.8415 C   0  0  0  0  0  0
  -24.1498  -36.7247   23.2638 C   0  0  0  0  0  0
  -26.0001  -30.7188   21.3908 C   0  0  0  0  0  0
  -26.0705  -29.3334   20.7283 C   0  0  0  0  0  0
  -27.2328  -28.4727   20.7400 C   0  0  0  0  0  0
  -26.0260  -26.8134   19.4651 C   0  0  0  0  0  0
  -24.8927  -27.6569   19.4428 C   0  0  0  0  0  0
  -23.6690  -29.7954   20.1509 C   0  0  0  0  0  0
  -25.4112  -36.2998   24.0326 C   0  0  1  0  0  0
  -20.5865  -28.3744   23.1235 C   0  0  2  0  0  0
  -20.6762  -26.9446   22.5412 C   0  0  0  0  0  0
  -19.5758  -26.6392   21.5198 C   0  0  0  0  0  0
  -18.1905  -26.7935   22.1570 C   0  0  0  0  0  0
  -19.1503  -28.8891   23.2797 C   0  0  0  0  0  0
  -18.9430  -30.1473   23.8866 C   0  0  0  0  0  0
  -17.6437  -30.6618   24.0517 C   0  0  0  0  0  0
  -25.9102  -34.9387   23.5083 C   0  0  0  0  0  0
  -16.5337  -29.9100   23.6348 C   0  0  0  0  0  0
  -16.7228  -28.6513   23.0361 C   0  0  0  0  0  0
  -26.4561  -31.6532   25.0723 C   0  0  0  0  0  0
  -25.3758  -31.3670   26.1429 C   0  0  0  0  0  0
  -27.0455  -30.2940   24.6311 C   0  0  0  0  0  0
  -27.6134  -32.4305   25.7465 C   0  0  0  0  0  0
  -27.5580  -37.1735   24.8445 C   0  0  0  0  0  0
  -21.4254  -29.3050   22.3613 N   0  0  0  0  0  0
  -26.4248  -37.3732   23.9473 N   0  0  0  0  0  0
  -24.7137  -31.0314   22.0952 N   0  0  0  0  0  0
  -23.4166  -28.8010   23.3010 O   0  0  0  0  0  0
  -28.2745  -26.1756   20.1704 O   0  0  0  0  0  0
  -26.5607  -34.8861   22.4626 O   0  0  0  0  0  0
  -23.5566  -32.1388   23.7160 O   0  0  0  0  0  0
  -27.0448  -22.8099   18.0257 C   0  0  0  0  0  0
  -30.3405  -23.7463   20.0292 C   0  0  0  0  0  0
  -30.8600  -20.6204   21.1523 C   0  0  0  0  0  0
  -28.4968  -23.2221   18.3937 C   0  0  0  0  0  0
  -30.1620  -17.6719   20.4378 C   0  0  0  0  0  0
  -29.1059  -18.9992   20.4832 C   0  0  0  0  0  0
  -28.6701  -21.7781   20.6167 C   0  0  0  0  0  0
  -28.0293  -24.6776   20.5103 C   0  0  0  0  0  0
  -28.8570  -23.3288   19.9129 C   0  0  1  0  0  0
  -29.7720  -16.1408   20.5280 N   0  0  0  0  0  0
  -29.6119  -20.5084   20.3603 N   0  3  1  0  0  0
  -31.4717  -12.7533   19.1866 H   0  0  0  0  0  0
  -30.4174  -11.6563   20.0294 H   0  0  0  0  0  0
  -29.8194  -11.7521   17.5809 H   0  0  0  0  0  0
  -29.6036  -13.4879   17.6966 H   0  0  0  0  0  0
  -27.9323  -11.2990   18.9669 H   0  0  0  0  0  0
  -27.3828  -12.5086   17.8261 H   0  0  0  0  0  0
  -27.5743  -14.2725   19.4246 H   0  0  0  0  0  0
  -28.7557  -12.3251   21.4622 H   0  0  0  0  0  0
  -28.3757  -14.0006   21.7617 H   0  0  0  0  0  0
  -25.2781   -9.5641   22.4828 H   0  0  0  0  0  0
  -24.0043   -7.4571   22.7411 H   0  0  0  0  0  0
  -21.0931   -8.8805   19.8889 H   0  0  0  0  0  0
  -22.3790  -10.9720   19.6226 H   0  0  0  0  0  0
  -21.1912   -7.6145   23.9731 H   0  0  0  0  0  0
  -21.1539   -6.0524   25.9092 H   0  0  0  0  0  0
  -22.0575   -2.7635   23.2819 H   0  0  0  0  0  0
  -22.4093  -11.9670   22.4737 H   0  0  0  0  0  0
  -21.1097  -13.1076   22.2887 H   0  0  0  0  0  0
  -24.6346  -15.8481   20.5392 H   0  0  0  0  0  0
  -26.2468  -15.6427   20.0849 H   0  0  0  0  0  0
  -26.7245  -32.5260   23.1006 H   0  0  0  0  0  0
  -25.0229  -33.9700   25.0430 H   0  0  0  0  0  0
  -22.7476  -31.2809   21.3819 H   0  0  0  0  0  0
  -23.3789  -35.9532   23.3170 H   0  0  0  0  0  0
  -24.3636  -36.9030   22.2089 H   0  0  0  0  0  0
  -23.7220  -37.6390   23.6759 H   0  0  0  0  0  0
  -26.1630  -31.4712   20.6180 H   0  0  0  0  0  0
  -26.8671  -30.7704   22.0317 H   0  0  0  0  0  0
  -28.1235  -28.7945   21.2630 H   0  0  0  0  0  0
  -25.9610  -25.8713   18.9425 H   0  0  0  0  0  0
  -24.0101  -27.3394   18.9097 H   0  0  0  0  0  0
  -23.7831  -30.5707   19.3946 H   0  0  0  0  0  0
  -22.7892  -29.2243   19.8483 H   0  0  0  0  0  0
  -25.1281  -36.1816   25.0801 H   0  0  0  0  0  0
  -20.9904  -28.3331   24.1374 H   0  0  0  0  0  0
  -20.5726  -26.2337   23.3630 H   0  0  0  0  0  0
  -21.6632  -26.7523   22.1179 H   0  0  0  0  0  0
  -19.7010  -25.6315   21.1238 H   0  0  0  0  0  0
  -19.6746  -27.3173   20.6704 H   0  0  0  0  0  0
  -17.4221  -26.6635   21.3925 H   0  0  0  0  0  0
  -18.0299  -26.0094   22.8988 H   0  0  0  0  0  0
  -19.7924  -30.7212   24.2287 H   0  0  0  0  0  0
  -17.5032  -31.6287   24.5116 H   0  0  0  0  0  0
  -15.5364  -30.2992   23.7768 H   0  0  0  0  0  0
  -15.8585  -28.0827   22.7204 H   0  0  0  0  0  0
  -24.6053  -30.6882   25.7748 H   0  0  0  0  0  0
  -24.8796  -32.2796   26.4760 H   0  0  0  0  0  0
  -25.8104  -30.8972   27.0265 H   0  0  0  0  0  0
  -26.3087  -29.6605   24.1367 H   0  0  0  0  0  0
  -27.4131  -29.7311   25.4897 H   0  0  0  0  0  0
  -27.8930  -30.4197   23.9566 H   0  0  0  0  0  0
  -27.2825  -33.3730   26.1855 H   0  0  0  0  0  0
  -28.3992  -32.6694   25.0264 H   0  0  0  0  0  0
  -28.0692  -31.8518   26.5532 H   0  0  0  0  0  0
  -28.2455  -38.0154   24.7646 H   0  0  0  0  0  0
  -28.1211  -36.2724   24.6042 H   0  0  0  0  0  0
  -27.2336  -37.1059   25.8830 H   0  0  0  0  0  0
  -20.9548  -29.8709   21.6708 H   0  0  0  0  0  0
  -26.0105  -38.2769   24.1559 H   0  0  0  0  0  0
  -26.7598  -21.8244   18.3985 H   0  0  0  0  0  0
  -26.9224  -22.7632   16.9395 H   0  0  0  0  0  0
  -26.3041  -23.5247   18.3859 H   0  0  0  0  0  0
  -31.0192  -23.0457   19.5405 H   0  0  0  0  0  0
  -30.6400  -23.8418   21.0742 H   0  0  0  0  0  0
  -30.5302  -24.7166   19.5722 H   0  0  0  0  0  0
  -30.6797  -20.3525   22.1931 H   0  0  0  0  0  0
  -31.3105  -21.6061   21.1517 H   0  0  0  0  0  0
  -31.6273  -19.9523   20.7653 H   0  0  0  0  0  0
  -28.6835  -24.1852   17.9171 H   0  0  0  0  0  0
  -29.1722  -22.5279   17.8959 H   0  0  0  0  0  0
  -30.8357  -17.8066   21.2795 H   0  0  0  0  0  0
  -30.8023  -17.7771   19.5611 H   0  0  0  0  0  0
  -28.5595  -18.9390   21.4232 H   0  0  0  0  0  0
  -28.3507  -18.8527   19.7154 H   0  0  0  0  0  0
  -27.6466  -21.4529   20.4328 H   0  0  0  0  0  0
  -28.6775  -21.9329   21.6957 H   0  0  0  0  0  0
  -28.1966  -24.6602   21.5884 H   0  0  0  0  0  0
  -26.9637  -24.4718   20.4430 H   0  0  0  0  0  0
  -28.7847  -15.9725   20.6498 H   0  0  0  0  0  0
  -29.8985  -20.5927   19.3972 H   0  0  0  0  0  0
  1 25  1  0  0  0
  1 30  2  0  0  0
  1 80  1  0  0  0
  2  3  1  0  0  0
  2 25  1  0  0  0
  2 82  1  0  0  0
  2 83  1  0  0  0
  3  4  1  0  0  0
  3 84  1  0  0  0
  3 85  1  0  0  0
  4  5  1  0  0  0
  4 86  1  0  0  0
  4 87  1  0  0  0
  5  6  1  0  0  0
  5 26  1  0  0  0
  5 88  1  0  0  0
  6 25  1  0  0  0
  6 89  1  0  0  0
  6 90  1  0  0  0
  7  8  2  0  0  0
  7 26  1  0  0  0
  7 29  1  0  0  0
  8  9  1  0  0  0
  8 22  1  0  0  0
  9 10  1  0  0  0
  9 27  2  0  0  0
 10 11  2  0  0  0
 10 15  1  0  0  0
 11 12  1  0  0  0
 11 91  1  0  0  0
 12 13  2  0  0  0
 12 92  1  0  0  0
 13 14  1  0  0  0
 13 31  1  0  0  0
 14 15  2  0  0  0
 14 93  1  0  0  0
 15 94  1  0  0  0
 16 17  2  0  0  0
 16 21  1  0  0  0
 16 31  1  0  0  0
 17 18  1  0  0  0
 17 95  1  0  0  0
 18 19  2  0  0  0
 18 96  1  0  0  0
 19 20  1  0  0  0
 19 24  1  0  0  0
 20 21  2  0  0  0
 20 97  1  0  0  0
 21 23  1  0  0  0
 22 28  1  0  0  0
 22 32  2  0  0  0
 26 27  1  0  0  0
 28 98  1  0  0  0
 28 99  1  0  0  0
 29100  1  0  0  0
 29101  1  0  0  0
 33 34  1  0  0  0
 33 66  1  0  0  0
 33 70  2  0  0  0
 34 36  1  0  0  0
 34 59  1  0  0  0
 34102  1  0  0  0
 35 44  2  0  0  0
 35 45  1  0  0  0
 35 68  1  0  0  0
 36 56  1  0  0  0
 36103  1  0  0  0
 37 39  1  0  0  0
 37 47  1  0  0  0
 37 66  1  0  0  0
 37104  1  0  0  0
 38 43  2  0  0  0
 38 46  1  0  0  0
 38 47  1  0  0  0
 39 64  1  0  0  0
 39 67  2  0  0  0
 40 52  1  0  0  0
 40 53  2  0  0  0
 40 58  1  0  0  0
 41105  1  0  0  0
 41106  1  0  0  0
 41107  1  0  0  0
 41 48  1  0  0  0
 42 43  1  0  0  0
 42 66  1  0  0  0
 42108  1  0  0  0
 42109  1  0  0  0
 43 44  1  0  0  0
 44110  1  0  0  0
 45 46  2  0  0  0
 45111  1  0  0  0
 46112  1  0  0  0
 47113  1  0  0  0
 47114  1  0  0  0
 48 56  1  0  0  0
 48 65  1  0  0  0
 48115  1  0  0  0
 49 50  1  0  0  0
 49 53  1  0  0  0
 49 64  1  0  0  0
 49116  1  0  0  0
 50 51  1  0  0  0
 50117  1  0  0  0
 50118  1  0  0  0
 51 52  1  0  0  0
 51119  1  0  0  0
 51120  1  0  0  0
 52121  1  0  0  0
 52122  1  0  0  0
 53 54  1  0  0  0
 54 55  2  0  0  0
 54123  1  0  0  0
 55 57  1  0  0  0
 55124  1  0  0  0
 56 69  2  0  0  0
 57 58  2  0  0  0
 57125  1  0  0  0
 58126  1  0  0  0
 59 60  1  0  0  0
 59 61  1  0  0  0
 59 62  1  0  0  0
 60127  1  0  0  0
 60128  1  0  0  0
 60129  1  0  0  0
 61130  1  0  0  0
 61131  1  0  0  0
 61132  1  0  0  0
 62133  1  0  0  0
 62134  1  0  0  0
 62135  1  0  0  0
 63 65  1  0  0  0
 63136  1  0  0  0
 63137  1  0  0  0
 63138  1  0  0  0
 64139  1  0  0  0
 65140  1  0  0  0
 68 78  1  0  0  0
 71 74  1  0  0  0
 71141  1  0  0  0
 71142  1  0  0  0
 71143  1  0  0  0
 72144  1  0  0  0
 72145  1  0  0  0
 72146  1  0  0  0
 72 79  1  0  0  0
 73147  1  0  0  0
 73148  1  0  0  0
 73149  1  0  0  0
 73 81  1  0  0  0
 74 79  1  0  0  0
 74150  1  0  0  0
 74151  1  0  0  0
 75 76  1  0  0  0
 75 80  1  0  0  0
 75152  1  0  0  0
 75153  1  0  0  0
 76 81  1  0  0  0
 76154  1  0  0  0
 76155  1  0  0  0
 77 79  1  0  0  0
 77 81  1  0  0  0
 77156  1  0  0  0
 77157  1  0  0  0
 78 79  1  0  0  0
 78158  1  0  0  0
 78159  1  0  0  0
 80160  1  0  0  0
 81161  1  0  0  0
M  CHG  1  81   1
M  ISO  4   1 100  68 101  78 101  80 100
M  END
> <chiral flag>
0

> <version>
0

> <s_m_source_file>
/data/baiqing/PycharmProjects/Reinvent-master-3.2/result/LINK_invent/BTK/process_docking_weight1_custom_sum_contain_oxygen_bond_distance_aromatic_linkinvent_7_9_3/rearranged_h_0101.sdf

> <i_m_source_file_index>
95

> <r_mmod_Potential_Energy-OPLS-2005>
389.607574462891

> <r_mmod_Stretch_Energy-OPLS-2005>
278.987396240234

> <r_mmod_Bend_Energy-OPLS-2005>
264.678863525391

> <r_mmod_Torsional_Energy-OPLS-2005>
254.30110168457

> <r_mmod_Improper_Torsional_Energy-OPLS-2005>
4.60146760940552

> <r_mmod_Van_der_Waal_Energy-OPLS-2005>
112.392784118652

> <r_mmod_Electrostatic_Energy-OPLS-2005>
-255.990203857422

> <r_mmod_Solvation_Energy-OPLS-2005>
-460.408752441406

> <b_mmod_Minimization_Converged-OPLS-2005>
0

> <r_mmod_RMS_Derivative-OPLS-2005>
7.68459463119507

$$$$
95
                    3D
 Structure written by MMmdl.
158166  0  0  1  0            999 V2000
  -30.5841  -14.8738   20.5103 C   0  0  0  0  0  0
  -30.4464  -12.5533   19.4923 C   0  0  0  0  0  0
  -29.5257  -12.5447   18.2483 C   0  0  0  0  0  0
  -28.0532  -12.3371   18.6534 C   0  0  0  0  0  0
  -27.6416  -13.2365   19.8464 C   0  0  2  0  0  0
  -28.6807  -13.1813   20.9825 C   0  0  0  0  0  0
  -25.2521  -13.8197   20.5692 C   0  0  0  0  0  0
  -24.1806  -13.0443   20.9180 C   0  0  0  0  0  0
  -24.6396  -11.6917   20.8705 C   0  0  0  0  0  0
  -23.9065  -10.4297   21.0395 C   0  0  0  0  0  0
  -24.3616   -9.4215   21.9179 C   0  0  0  0  0  0
  -23.6285   -8.2253   22.0763 C   0  0  0  0  0  0
  -22.4263   -8.0290   21.3554 C   0  0  0  0  0  0
  -21.9892   -9.0260   20.4657 C   0  0  0  0  0  0
  -22.7231  -10.2135   20.3056 C   0  0  0  0  0  0
  -21.6856   -6.0725   22.5267 C   0  0  0  0  0  0
  -21.4021   -6.5629   23.8205 C   0  0  0  0  0  0
  -21.3665   -5.6786   24.9169 C   0  0  0  0  0  0
  -21.6043   -4.3045   24.7221 C   0  0  0  0  0  0
  -21.8823   -3.8135   23.4341 C   0  0  0  0  0  0
  -21.9197   -4.6949   22.3399 C   0  0  0  0  0  0
  -22.7829  -13.5242   21.1833 C   0  0  0  0  0  0
  -22.1667   -4.2133   21.0974 F   0  0  0  0  0  0
  -21.5629   -3.4538   25.7739 F   0  0  0  0  0  0
  -29.9731  -13.6186   20.4238 N   0  0  0  0  0  0
  -26.2936  -12.9406   20.3226 N   0  0  0  0  0  0
  -25.9325  -11.6539   20.5680 N   0  0  0  0  0  0
  -22.0461  -12.8263   22.0402 N   0  0  0  0  0  0
  -25.4211  -15.1929   20.4174 N   0  0  0  0  0  0
  -31.7281  -14.9736   20.0488 O   0  0  0  0  0  0
  -21.6638   -6.8870   21.4238 O   0  0  0  0  0  0
  -22.3522  -14.5543   20.6669 O   0  0  0  0  0  0
  -24.6408  -31.8451   23.1886 C   0  0  0  0  0  0
  -25.9194  -32.4701   23.8264 C   0  0  1  0  0  0
  -27.2297  -27.1696   20.1337 C   0  0  0  0  0  0
  -25.5953  -33.8506   24.2194 N   0  0  0  0  0  0
  -23.4434  -30.4647   21.5336 C   0  0  2  0  0  0
  -24.8943  -28.8958   20.1066 C   0  0  0  0  0  0
  -22.7559  -29.4553   22.4868 C   0  0  0  0  0  0
  -18.0299  -28.1394   22.8475 C   0  0  0  0  0  0
  -24.1490  -36.7271   23.2639 C   0  0  0  0  0  0
  -25.9957  -30.7275   21.3830 C   0  0  0  0  0  0
  -26.0680  -29.3402   20.7278 C   0  0  0  0  0  0
  -27.2326  -28.4898   20.7320 C   0  0  0  0  0  0
  -26.0339  -26.8269   19.4618 C   0  0  0  0  0  0
  -24.8880  -27.6511   19.4603 C   0  0  0  0  0  0
  -23.6679  -29.7925   20.1526 C   0  0  0  0  0  0
  -25.4117  -36.3034   24.0315 C   0  0  1  0  0  0
  -20.5913  -28.3716   23.1239 C   0  0  2  0  0  0
  -20.6784  -26.9422   22.5403 C   0  0  0  0  0  0
  -19.5757  -26.6380   21.5206 C   0  0  0  0  0  0
  -18.1937  -26.7930   22.1624 C   0  0  0  0  0  0
  -19.1557  -28.8867   23.2849 C   0  0  0  0  0  0
  -18.9478  -30.1463   23.8876 C   0  0  0  0  0  0
  -17.6478  -30.6588   24.0557 C   0  0  0  0  0  0
  -25.9070  -34.9412   23.5064 C   0  0  0  0  0  0
  -16.5365  -29.9086   23.6327 C   0  0  0  0  0  0
  -16.7288  -28.6503   23.0347 C   0  0  0  0  0  0
  -26.4528  -31.6554   25.0692 C   0  0  0  0  0  0
  -25.3734  -31.3727   26.1405 C   0  0  0  0  0  0
  -27.0386  -30.2957   24.6235 C   0  0  0  0  0  0
  -27.6064  -32.4310   25.7480 C   0  0  0  0  0  0
  -27.5575  -37.1784   24.8463 C   0  0  0  0  0  0
  -21.4254  -29.3050   22.3619 N   0  0  0  0  0  0
  -26.4281  -37.3748   23.9412 N   0  0  0  0  0  0
  -24.7130  -31.0331   22.0911 N   0  0  0  0  0  0
  -23.4216  -28.8096   23.3003 O   0  0  0  0  0  0
  -28.3004  -26.2124   20.2223 O   0  0  0  0  0  0
  -26.5656  -34.8909   22.4643 O   0  0  0  0  0  0
  -23.5538  -32.1318   23.7129 O   0  0  0  0  0  0
  -28.5547  -18.1445   21.1181 C   0  0  0  0  0  0
  -28.2934  -19.5469   20.9044 C   0  0  0  0  0  0
  -29.2026  -20.3919   20.1947 C   0  0  0  0  0  0
  -30.3587  -19.6390   19.7736 C   0  0  0  0  0  0
  -29.7180  -17.4462   20.6547 C   0  0  0  0  0  0
  -26.9788  -20.1135   21.4111 C   0  0  0  0  0  0
  -31.4510  -20.3402   18.9882 C   0  0  0  0  0  0
  -29.6851  -15.8238   22.5307 C   0  0  0  0  0  0
  -28.8048  -21.9046   19.6753 C   0  0  0  0  0  0
  -28.9456  -23.3871   20.4177 C   0  0  0  0  0  0
  -28.1327  -24.7263   19.8348 C   0  0  0  0  0  0
  -30.5914  -18.2775   19.9897 N   0  0  0  0  0  0
  -29.9118  -15.9887   21.0831 N   0  0  0  0  0  0
  -31.4821  -12.7046   19.1852 H   0  0  0  0  0  0
  -30.4323  -11.5816   19.9881 H   0  0  0  0  0  0
  -29.8378  -11.7639   17.5527 H   0  0  0  0  0  0
  -29.6278  -13.4899   17.7130 H   0  0  0  0  0  0
  -27.9313  -11.2894   18.9273 H   0  0  0  0  0  0
  -27.3955  -12.5077   17.8000 H   0  0  0  0  0  0
  -27.6309  -14.2584   19.4662 H   0  0  0  0  0  0
  -28.7572  -12.1706   21.3880 H   0  0  0  0  0  0
  -28.3462  -13.7950   21.8128 H   0  0  0  0  0  0
  -25.2767   -9.5701   22.4751 H   0  0  0  0  0  0
  -23.9995   -7.4654   22.7497 H   0  0  0  0  0  0
  -21.0818   -8.8786   19.8968 H   0  0  0  0  0  0
  -22.3690  -10.9676   19.6165 H   0  0  0  0  0  0
  -21.2019   -7.6136   23.9706 H   0  0  0  0  0  0
  -21.1482   -6.0511   25.9072 H   0  0  0  0  0  0
  -22.0594   -2.7594   23.2843 H   0  0  0  0  0  0
  -22.4069  -11.9945   22.4833 H   0  0  0  0  0  0
  -21.1086  -13.1326   22.2589 H   0  0  0  0  0  0
  -24.6530  -15.8446   20.5405 H   0  0  0  0  0  0
  -26.2747  -15.6383   20.1055 H   0  0  0  0  0  0
  -26.7263  -32.5319   23.0995 H   0  0  0  0  0  0
  -25.0065  -33.9615   25.0319 H   0  0  0  0  0  0
  -22.7439  -31.2891   21.3799 H   0  0  0  0  0  0
  -23.3745  -35.9610   23.3281 H   0  0  0  0  0  0
  -24.3582  -36.8923   22.2059 H   0  0  0  0  0  0
  -23.7254  -37.6467   23.6688 H   0  0  0  0  0  0
  -26.1437  -31.4778   20.6047 H   0  0  0  0  0  0
  -26.8706  -30.7822   22.0197 H   0  0  0  0  0  0
  -28.1237  -28.8231   21.2454 H   0  0  0  0  0  0
  -25.9455  -25.8863   18.9396 H   0  0  0  0  0  0
  -23.9961  -27.3086   18.9538 H   0  0  0  0  0  0
  -23.8009  -30.5656   19.3947 H   0  0  0  0  0  0
  -22.7834  -29.2312   19.8450 H   0  0  0  0  0  0
  -25.1299  -36.1858   25.0806 H   0  0  0  0  0  0
  -21.0004  -28.3303   24.1358 H   0  0  0  0  0  0
  -20.5659  -26.2336   23.3623 H   0  0  0  0  0  0
  -21.6653  -26.7416   22.1212 H   0  0  0  0  0  0
  -19.6921  -25.6281   21.1245 H   0  0  0  0  0  0
  -19.6688  -27.3179   20.6722 H   0  0  0  0  0  0
  -17.4208  -26.6662   21.4029 H   0  0  0  0  0  0
  -18.0350  -26.0074   22.9026 H   0  0  0  0  0  0
  -19.7956  -30.7276   24.2247 H   0  0  0  0  0  0
  -17.5033  -31.6266   24.5167 H   0  0  0  0  0  0
  -15.5366  -30.2986   23.7652 H   0  0  0  0  0  0
  -15.8690  -28.0814   22.7076 H   0  0  0  0  0  0
  -24.5923  -30.7059   25.7733 H   0  0  0  0  0  0
  -24.8916  -32.2903   26.4788 H   0  0  0  0  0  0
  -25.8045  -30.8935   27.0205 H   0  0  0  0  0  0
  -26.2983  -29.6681   24.1262 H   0  0  0  0  0  0
  -27.4044  -29.7245   25.4775 H   0  0  0  0  0  0
  -27.8868  -30.4196   23.9502 H   0  0  0  0  0  0
  -27.2662  -33.3632   26.1998 H   0  0  0  0  0  0
  -28.3910  -32.6834   25.0336 H   0  0  0  0  0  0
  -28.0692  -31.8473   26.5446 H   0  0  0  0  0  0
  -28.2573  -38.0098   24.7520 H   0  0  0  0  0  0
  -28.1088  -36.2629   24.6265 H   0  0  0  0  0  0
  -27.2301  -37.1406   25.8869 H   0  0  0  0  0  0
  -20.9463  -29.8786   21.6817 H   0  0  0  0  0  0
  -26.0144  -38.2814   24.1423 H   0  0  0  0  0  0
  -27.8098  -17.5803   21.6607 H   0  0  0  0  0  0
  -26.6843  -19.6391   22.3468 H   0  0  0  0  0  0
  -26.1890  -19.9402   20.6798 H   0  0  0  0  0  0
  -27.0413  -21.1854   21.5994 H   0  0  0  0  0  0
  -31.1090  -20.5736   17.9803 H   0  0  0  0  0  0
  -32.3494  -19.7282   18.9043 H   0  0  0  0  0  0
  -31.7341  -21.2714   19.4803 H   0  0  0  0  0  0
  -28.6192  -15.8024   22.7606 H   0  0  0  0  0  0
  -30.1226  -16.6597   23.0781 H   0  0  0  0  0  0
  -30.1338  -14.9221   22.9534 H   0  0  0  0  0  0
  -27.7521  -21.8243   19.4044 H   0  0  0  0  0  0
  -29.2882  -22.0166   18.7046 H   0  0  0  0  0  0
  -30.0083  -23.6278   20.4593 H   0  0  0  0  0  0
  -28.6418  -23.2614   21.4566 H   0  0  0  0  0  0
  -27.0890  -24.4635   19.9955 H   0  0  0  0  0  0
  -28.2689  -24.7139   18.7531 H   0  0  0  0  0  0
  1 25  1  0  0  0
  1 30  2  0  0  0
  1 83  1  0  0  0
  2  3  1  0  0  0
  2 25  1  0  0  0
  2 84  1  0  0  0
  2 85  1  0  0  0
  3  4  1  0  0  0
  3 86  1  0  0  0
  3 87  1  0  0  0
  4  5  1  0  0  0
  4 88  1  0  0  0
  4 89  1  0  0  0
  5  6  1  0  0  0
  5 26  1  0  0  0
  5 90  1  0  0  0
  6 25  1  0  0  0
  6 91  1  0  0  0
  6 92  1  0  0  0
  7  8  2  0  0  0
  7 26  1  0  0  0
  7 29  1  0  0  0
  8  9  1  0  0  0
  8 22  1  0  0  0
  9 10  1  0  0  0
  9 27  2  0  0  0
 10 11  2  0  0  0
 10 15  1  0  0  0
 11 12  1  0  0  0
 11 93  1  0  0  0
 12 13  2  0  0  0
 12 94  1  0  0  0
 13 14  1  0  0  0
 13 31  1  0  0  0
 14 15  2  0  0  0
 14 95  1  0  0  0
 15 96  1  0  0  0
 16 17  2  0  0  0
 16 21  1  0  0  0
 16 31  1  0  0  0
 17 18  1  0  0  0
 17 97  1  0  0  0
 18 19  2  0  0  0
 18 98  1  0  0  0
 19 20  1  0  0  0
 19 24  1  0  0  0
 20 21  2  0  0  0
 20 99  1  0  0  0
 21 23  1  0  0  0
 22 28  1  0  0  0
 22 32  2  0  0  0
 26 27  1  0  0  0
 28100  1  0  0  0
 28101  1  0  0  0
 29102  1  0  0  0
 29103  1  0  0  0
 33 34  1  0  0  0
 33 66  1  0  0  0
 33 70  2  0  0  0
 34 36  1  0  0  0
 34 59  1  0  0  0
 34104  1  0  0  0
 35 44  2  0  0  0
 35 45  1  0  0  0
 35 68  1  0  0  0
 36 56  1  0  0  0
 36105  1  0  0  0
 37 39  1  0  0  0
 37 47  1  0  0  0
 37 66  1  0  0  0
 37106  1  0  0  0
 38 43  2  0  0  0
 38 46  1  0  0  0
 38 47  1  0  0  0
 39 64  1  0  0  0
 39 67  2  0  0  0
 40 52  1  0  0  0
 40 53  2  0  0  0
 40 58  1  0  0  0
 41107  1  0  0  0
 41108  1  0  0  0
 41109  1  0  0  0
 41 48  1  0  0  0
 42 43  1  0  0  0
 42 66  1  0  0  0
 42110  1  0  0  0
 42111  1  0  0  0
 43 44  1  0  0  0
 44112  1  0  0  0
 45 46  2  0  0  0
 45113  1  0  0  0
 46114  1  0  0  0
 47115  1  0  0  0
 47116  1  0  0  0
 48 56  1  0  0  0
 48 65  1  0  0  0
 48117  1  0  0  0
 49 50  1  0  0  0
 49 53  1  0  0  0
 49 64  1  0  0  0
 49118  1  0  0  0
 50 51  1  0  0  0
 50119  1  0  0  0
 50120  1  0  0  0
 51 52  1  0  0  0
 51121  1  0  0  0
 51122  1  0  0  0
 52123  1  0  0  0
 52124  1  0  0  0
 53 54  1  0  0  0
 54 55  2  0  0  0
 54125  1  0  0  0
 55 57  1  0  0  0
 55126  1  0  0  0
 56 69  2  0  0  0
 57 58  2  0  0  0
 57127  1  0  0  0
 58128  1  0  0  0
 59 60  1  0  0  0
 59 61  1  0  0  0
 59 62  1  0  0  0
 60129  1  0  0  0
 60130  1  0  0  0
 60131  1  0  0  0
 61132  1  0  0  0
 61133  1  0  0  0
 61134  1  0  0  0
 62135  1  0  0  0
 62136  1  0  0  0
 62137  1  0  0  0
 63 65  1  0  0  0
 63138  1  0  0  0
 63139  1  0  0  0
 63140  1  0  0  0
 64141  1  0  0  0
 65142  1  0  0  0
 68 81  1  0  0  0
 71 72  2  0  0  0
 71 75  1  0  0  0
 71143  1  0  0  0
 72 73  1  0  0  0
 72 76  1  0  0  0
 73 74  2  0  0  0
 73 79  1  0  0  0
 74 77  1  0  0  0
 74 82  1  0  0  0
 75 82  2  0  0  0
 75 83  1  0  0  0
 76144  1  0  0  0
 76145  1  0  0  0
 76146  1  0  0  0
 77147  1  0  0  0
 77148  1  0  0  0
 77149  1  0  0  0
 78 83  1  0  0  0
 78150  1  0  0  0
 78151  1  0  0  0
 78152  1  0  0  0
 79 80  1  0  0  0
 79153  1  0  0  0
 79154  1  0  0  0
 80 81  1  0  0  0
 80155  1  0  0  0
 80156  1  0  0  0
 81157  1  0  0  0
 81158  1  0  0  0
M  ISO  4   1 100  68 101  81 101  83 100
M  END
> <chiral flag>
0

> <version>
0

> <s_m_source_file>
/data/baiqing/PycharmProjects/Reinvent-master-3.2/result/LINK_invent/BTK/process_docking_weight1_custom_sum_contain_oxygen_bond_distance_aromatic_linkinvent_7_9_3/rearranged_h_0101.sdf

> <i_m_source_file_index>
96

> <r_mmod_Potential_Energy-OPLS-2005>
417.315063476562

> <r_mmod_Stretch_Energy-OPLS-2005>
215.349182128906

> <r_mmod_Bend_Energy-OPLS-2005>
256.735321044922

> <r_mmod_Torsional_Energy-OPLS-2005>
280.548675537109

> <r_mmod_Improper_Torsional_Energy-OPLS-2005>
5.37145376205444

> <r_mmod_Van_der_Waal_Energy-OPLS-2005>
145.795959472656

> <r_mmod_Electrostatic_Energy-OPLS-2005>
-421.011413574219

> <r_mmod_Solvation_Energy-OPLS-2005>
-212.237579345703

> <b_mmod_Minimization_Converged-OPLS-2005>
0

> <r_mmod_RMS_Derivative-OPLS-2005>
1.92002689838409

$$$$
96
                    3D
 Structure written by MMmdl.
163171  0  0  1  0            999 V2000
  -30.7667  -14.4626   20.5441 C   0  0  0  0  0  0
  -30.3976  -12.2907   19.4471 C   0  0  0  0  0  0
  -29.4845  -12.5030   18.2239 C   0  0  0  0  0  0
  -28.0107  -12.3597   18.6408 C   0  0  0  0  0  0
  -27.6548  -13.2242   19.8787 C   0  0  2  0  0  0
  -28.7011  -13.0569   21.0072 C   0  0  0  0  0  0
  -25.2500  -13.8212   20.5723 C   0  0  0  0  0  0
  -24.1769  -13.0437   20.9211 C   0  0  0  0  0  0
  -24.6361  -11.6931   20.8746 C   0  0  0  0  0  0
  -23.9021  -10.4300   21.0410 C   0  0  0  0  0  0
  -24.3578   -9.4212   21.9178 C   0  0  0  0  0  0
  -23.6269   -8.2235   22.0746 C   0  0  0  0  0  0
  -22.4258   -8.0259   21.3538 C   0  0  0  0  0  0
  -21.9884   -9.0232   20.4638 C   0  0  0  0  0  0
  -22.7201  -10.2124   20.3051 C   0  0  0  0  0  0
  -21.6837   -6.0693   22.5275 C   0  0  0  0  0  0
  -21.4026   -6.5614   23.8199 C   0  0  0  0  0  0
  -21.3670   -5.6780   24.9165 C   0  0  0  0  0  0
  -21.6042   -4.3036   24.7239 C   0  0  0  0  0  0
  -21.8816   -3.8121   23.4362 C   0  0  0  0  0  0
  -21.9198   -4.6926   22.3411 C   0  0  0  0  0  0
  -22.7795  -13.5214   21.1900 C   0  0  0  0  0  0
  -22.1660   -4.2110   21.0996 F   0  0  0  0  0  0
  -21.5637   -3.4526   25.7763 F   0  0  0  0  0  0
  -30.0351  -13.3161   20.4410 N   0  0  0  0  0  0
  -26.2976  -12.9418   20.3449 N   0  0  0  0  0  0
  -25.9304  -11.6548   20.5835 N   0  0  0  0  0  0
  -22.0493  -12.8148   22.0476 N   0  0  0  0  0  0
  -25.4152  -15.1917   20.4090 N   0  0  0  0  0  0
  -31.9123  -14.5499   20.0994 O   0  0  0  0  0  0
  -21.6643   -6.8840   21.4239 O   0  0  0  0  0  0
  -22.3457  -14.5536   20.6807 O   0  0  0  0  0  0
  -24.6173  -31.8668   23.2116 C   0  0  0  0  0  0
  -25.9050  -32.4800   23.8405 C   0  0  1  0  0  0
  -27.2217  -27.4003   20.1001 C   0  0  0  0  0  0
  -25.5903  -33.8602   24.2332 N   0  0  0  0  0  0
  -23.4042  -30.4961   21.5529 C   0  0  2  0  0  0
  -24.8483  -28.9629   20.1150 C   0  0  0  0  0  0
  -22.7408  -29.4688   22.4980 C   0  0  0  0  0  0
  -18.0271  -28.1394   22.8511 C   0  0  0  0  0  0
  -24.1490  -36.7320   23.2636 C   0  0  0  0  0  0
  -25.9384  -30.8233   21.3695 C   0  0  0  0  0  0
  -26.0116  -29.4566   20.7155 C   0  0  0  0  0  0
  -27.2019  -28.6843   20.7040 C   0  0  0  0  0  0
  -26.0392  -26.9442   19.4723 C   0  0  0  0  0  0
  -24.8584  -27.7069   19.4896 C   0  0  0  0  0  0
  -23.6121  -29.8335   20.1667 C   0  0  0  0  0  0
  -25.4113  -36.3106   24.0329 C   0  0  1  0  0  0
  -20.5870  -28.3697   23.1320 C   0  0  2  0  0  0
  -20.6802  -26.9428   22.5420 C   0  0  0  0  0  0
  -19.5765  -26.6410   21.5241 C   0  0  0  0  0  0
  -18.1943  -26.7942   22.1646 C   0  0  0  0  0  0
  -19.1526  -28.8861   23.2920 C   0  0  0  0  0  0
  -18.9444  -30.1469   23.8916 C   0  0  0  0  0  0
  -17.6449  -30.6603   24.0581 C   0  0  0  0  0  0
  -25.9032  -34.9461   23.5137 C   0  0  0  0  0  0
  -16.5338  -29.9106   23.6331 C   0  0  0  0  0  0
  -16.7266  -28.6523   23.0358 C   0  0  0  0  0  0
  -26.4472  -31.6568   25.0722 C   0  0  0  0  0  0
  -25.3759  -31.3617   26.1483 C   0  0  0  0  0  0
  -27.0297  -30.3007   24.6107 C   0  0  0  0  0  0
  -27.6061  -32.4277   25.7464 C   0  0  0  0  0  0
  -27.5580  -37.1819   24.8458 C   0  0  0  0  0  0
  -21.4138  -29.3052   22.3703 N   0  0  0  0  0  0
  -26.4298  -37.3791   23.9395 N   0  0  0  0  0  0
  -24.6720  -31.0759   22.1032 N   0  0  0  0  0  0
  -23.4167  -28.8221   23.3030 O   0  0  0  0  0  0
  -28.3794  -26.6362   20.0995 O   0  0  0  0  0  0
  -26.5595  -34.8904   22.4693 O   0  0  0  0  0  0
  -23.5361  -32.1437   23.7493 O   0  0  0  0  0  0
  -28.2810  -22.1410   19.0745 C   0  0  0  0  0  0
  -30.0553  -21.9040   20.3776 C   0  0  0  0  0  0
  -29.2664  -22.8674   19.7959 C   0  0  0  0  0  0
  -28.5278  -20.7958   19.1524 C   0  0  0  0  0  0
  -26.6653  -19.0468   19.2704 C   0  0  0  0  0  0
  -28.5884  -18.7799   17.5371 C   0  0  0  0  0  0
  -29.4389  -24.3924   19.7964 C   0  0  0  0  0  0
  -29.7707  -18.1184   20.7930 C   0  0  0  0  0  0
  -30.4582  -19.4076   20.2401 C   0  0  0  0  0  0
  -30.7637  -16.9243   20.9076 C   0  0  0  0  0  0
  -28.2429  -25.2105   20.3442 C   0  0  0  0  0  0
  -27.7499  -19.7336   18.4138 C   0  0  0  0  0  0
  -29.6517  -20.6252   19.9730 N   0  0  0  0  0  0
  -30.1471  -15.5749   20.9927 N   0  0  0  0  0  0
  -31.4473  -12.3274   19.1517 H   0  0  0  0  0  0
  -30.2493  -11.2946   19.8689 H   0  0  0  0  0  0
  -29.7242  -11.7833   17.4409 H   0  0  0  0  0  0
  -29.6509  -13.4934   17.7946 H   0  0  0  0  0  0
  -27.8294  -11.3072   18.8633 H   0  0  0  0  0  0
  -27.3516  -12.6048   17.8065 H   0  0  0  0  0  0
  -27.6843  -14.2643   19.5504 H   0  0  0  0  0  0
  -28.6645  -12.0450   21.4119 H   0  0  0  0  0  0
  -28.4813  -13.7186   21.8449 H   0  0  0  0  0  0
  -25.2712   -9.5689   22.4754 H   0  0  0  0  0  0
  -23.9968   -7.4616   22.7451 H   0  0  0  0  0  0
  -21.0811   -8.8732   19.8945 H   0  0  0  0  0  0
  -22.3627  -10.9641   19.6161 H   0  0  0  0  0  0
  -21.2021   -7.6126   23.9688 H   0  0  0  0  0  0
  -21.1503   -6.0526   25.9065 H   0  0  0  0  0  0
  -22.0597   -2.7584   23.2890 H   0  0  0  0  0  0
  -22.4115  -11.9734   22.4706 H   0  0  0  0  0  0
  -21.1161  -13.1186   22.2867 H   0  0  0  0  0  0
  -24.6463  -15.8464   20.5061 H   0  0  0  0  0  0
  -26.2704  -15.6319   20.0939 H   0  0  0  0  0  0
  -26.7110  -32.5487   23.1152 H   0  0  0  0  0  0
  -25.0061  -33.9766   25.0488 H   0  0  0  0  0  0
  -22.6958  -31.3160   21.4150 H   0  0  0  0  0  0
  -23.3740  -35.9665   23.3306 H   0  0  0  0  0  0
  -24.3613  -36.8947   22.2054 H   0  0  0  0  0  0
  -23.7264  -37.6530   23.6659 H   0  0  0  0  0  0
  -26.0531  -31.5878   20.6005 H   0  0  0  0  0  0
  -26.8268  -30.8785   21.9880 H   0  0  0  0  0  0
  -28.0984  -29.0636   21.1725 H   0  0  0  0  0  0
  -26.0063  -26.0065   18.9380 H   0  0  0  0  0  0
  -23.9681  -27.3287   19.0046 H   0  0  0  0  0  0
  -23.7195  -30.6105   19.4083 H   0  0  0  0  0  0
  -22.7349  -29.2547   19.8678 H   0  0  0  0  0  0
  -25.1285  -36.1975   25.0818 H   0  0  0  0  0  0
  -20.9983  -28.3303   24.1443 H   0  0  0  0  0  0
  -20.5793  -26.2297   23.3619 H   0  0  0  0  0  0
  -21.6673  -26.7546   22.1160 H   0  0  0  0  0  0
  -19.6937  -25.6327   21.1270 H   0  0  0  0  0  0
  -19.6705  -27.3242   20.6783 H   0  0  0  0  0  0
  -17.4219  -26.6714   21.4024 H   0  0  0  0  0  0
  -18.0308  -26.0071   22.9014 H   0  0  0  0  0  0
  -19.7915  -30.7294   24.2313 H   0  0  0  0  0  0
  -17.4988  -31.6283   24.5173 H   0  0  0  0  0  0
  -15.5341  -30.3010   23.7646 H   0  0  0  0  0  0
  -15.8671  -28.0853   22.7065 H   0  0  0  0  0  0
  -24.5987  -30.6890   25.7820 H   0  0  0  0  0  0
  -24.8867  -32.2714   26.4946 H   0  0  0  0  0  0
  -25.8154  -30.8795   27.0232 H   0  0  0  0  0  0
  -26.2827  -29.6760   24.1201 H   0  0  0  0  0  0
  -27.4081  -29.7238   25.4555 H   0  0  0  0  0  0
  -27.8645  -30.4284   23.9229 H   0  0  0  0  0  0
  -27.2727  -33.3599   26.2038 H   0  0  0  0  0  0
  -28.3876  -32.6822   25.0284 H   0  0  0  0  0  0
  -28.0730  -31.8397   26.5388 H   0  0  0  0  0  0
  -28.2592  -38.0121   24.7531 H   0  0  0  0  0  0
  -28.1101  -36.2659   24.6273 H   0  0  0  0  0  0
  -27.2302  -37.1444   25.8865 H   0  0  0  0  0  0
  -20.9295  -29.8703   21.6869 H   0  0  0  0  0  0
  -26.0180  -38.2857   24.1427 H   0  0  0  0  0  0
  -27.4954  -22.5767   18.4715 H   0  0  0  0  0  0
  -30.9382  -22.0301   20.9924 H   0  0  0  0  0  0
  -25.9043  -19.7633   19.5824 H   0  0  0  0  0  0
  -27.0440  -18.6050   20.1886 H   0  0  0  0  0  0
  -26.1548  -18.2637   18.7102 H   0  0  0  0  0  0
  -29.2408  -19.3417   16.8669 H   0  0  0  0  0  0
  -27.9424  -18.1634   16.9117 H   0  0  0  0  0  0
  -29.2236  -18.0947   18.0860 H   0  0  0  0  0  0
  -29.5969  -24.6772   18.7558 H   0  0  0  0  0  0
  -30.3528  -24.6655   20.3235 H   0  0  0  0  0  0
  -28.9717  -17.8057   20.1361 H   0  0  0  0  0  0
  -29.3119  -18.3245   21.7607 H   0  0  0  0  0  0
  -30.9496  -19.1588   19.2991 H   0  0  0  0  0  0
  -31.2735  -19.6832   20.9128 H   0  0  0  0  0  0
  -31.4181  -16.9605   20.0324 H   0  0  0  0  0  0
  -31.4239  -17.0749   21.7633 H   0  0  0  0  0  0
  -28.1514  -25.0415   21.4188 H   0  0  0  0  0  0
  -27.3439  -24.7877   19.9066 H   0  0  0  0  0  0
  -27.1764  -20.2818   17.6633 H   0  0  0  0  0  0
  -29.2041  -15.4867   21.3371 H   0  0  0  0  0  0
  1 25  1  0  0  0
  1 30  2  0  0  0
  1 84  1  0  0  0
  2  3  1  0  0  0
  2 25  1  0  0  0
  2 85  1  0  0  0
  2 86  1  0  0  0
  3  4  1  0  0  0
  3 87  1  0  0  0
  3 88  1  0  0  0
  4  5  1  0  0  0
  4 89  1  0  0  0
  4 90  1  0  0  0
  5  6  1  0  0  0
  5 26  1  0  0  0
  5 91  1  0  0  0
  6 25  1  0  0  0
  6 92  1  0  0  0
  6 93  1  0  0  0
  7  8  2  0  0  0
  7 26  1  0  0  0
  7 29  1  0  0  0
  8  9  1  0  0  0
  8 22  1  0  0  0
  9 10  1  0  0  0
  9 27  2  0  0  0
 10 11  2  0  0  0
 10 15  1  0  0  0
 11 12  1  0  0  0
 11 94  1  0  0  0
 12 13  2  0  0  0
 12 95  1  0  0  0
 13 14  1  0  0  0
 13 31  1  0  0  0
 14 15  2  0  0  0
 14 96  1  0  0  0
 15 97  1  0  0  0
 16 17  2  0  0  0
 16 21  1  0  0  0
 16 31  1  0  0  0
 17 18  1  0  0  0
 17 98  1  0  0  0
 18 19  2  0  0  0
 18 99  1  0  0  0
 19 20  1  0  0  0
 19 24  1  0  0  0
 20 21  2  0  0  0
 20100  1  0  0  0
 21 23  1  0  0  0
 22 28  1  0  0  0
 22 32  2  0  0  0
 26 27  1  0  0  0
 28101  1  0  0  0
 28102  1  0  0  0
 29103  1  0  0  0
 29104  1  0  0  0
 33 34  1  0  0  0
 33 66  1  0  0  0
 33 70  2  0  0  0
 34 36  1  0  0  0
 34 59  1  0  0  0
 34105  1  0  0  0
 35 44  2  0  0  0
 35 45  1  0  0  0
 35 68  1  0  0  0
 36 56  1  0  0  0
 36106  1  0  0  0
 37 39  1  0  0  0
 37 47  1  0  0  0
 37 66  1  0  0  0
 37107  1  0  0  0
 38 43  2  0  0  0
 38 46  1  0  0  0
 38 47  1  0  0  0
 39 64  1  0  0  0
 39 67  2  0  0  0
 40 52  1  0  0  0
 40 53  2  0  0  0
 40 58  1  0  0  0
 41108  1  0  0  0
 41109  1  0  0  0
 41110  1  0  0  0
 41 48  1  0  0  0
 42 43  1  0  0  0
 42 66  1  0  0  0
 42111  1  0  0  0
 42112  1  0  0  0
 43 44  1  0  0  0
 44113  1  0  0  0
 45 46  2  0  0  0
 45114  1  0  0  0
 46115  1  0  0  0
 47116  1  0  0  0
 47117  1  0  0  0
 48 56  1  0  0  0
 48 65  1  0  0  0
 48118  1  0  0  0
 49 50  1  0  0  0
 49 53  1  0  0  0
 49 64  1  0  0  0
 49119  1  0  0  0
 50 51  1  0  0  0
 50120  1  0  0  0
 50121  1  0  0  0
 51 52  1  0  0  0
 51122  1  0  0  0
 51123  1  0  0  0
 52124  1  0  0  0
 52125  1  0  0  0
 53 54  1  0  0  0
 54 55  2  0  0  0
 54126  1  0  0  0
 55 57  1  0  0  0
 55127  1  0  0  0
 56 69  2  0  0  0
 57 58  2  0  0  0
 57128  1  0  0  0
 58129  1  0  0  0
 59 60  1  0  0  0
 59 61  1  0  0  0
 59 62  1  0  0  0
 60130  1  0  0  0
 60131  1  0  0  0
 60132  1  0  0  0
 61133  1  0  0  0
 61134  1  0  0  0
 61135  1  0  0  0
 62136  1  0  0  0
 62137  1  0  0  0
 62138  1  0  0  0
 63 65  1  0  0  0
 63139  1  0  0  0
 63140  1  0  0  0
 63141  1  0  0  0
 64142  1  0  0  0
 65143  1  0  0  0
 68 81  1  0  0  0
 71 73  1  0  0  0
 71 74  2  0  0  0
 71144  1  0  0  0
 72 73  2  0  0  0
 72 83  1  0  0  0
 72145  1  0  0  0
 73 77  1  0  0  0
 74 82  1  0  0  0
 74 83  1  0  0  0
 75146  1  0  0  0
 75147  1  0  0  0
 75148  1  0  0  0
 75 82  1  0  0  0
 76 82  1  0  0  0
 76149  1  0  0  0
 76150  1  0  0  0
 76151  1  0  0  0
 77 81  1  0  0  0
 77152  1  0  0  0
 77153  1  0  0  0
 78 79  1  0  0  0
 78 80  1  0  0  0
 78154  1  0  0  0
 78155  1  0  0  0
 79 83  1  0  0  0
 79156  1  0  0  0
 79157  1  0  0  0
 80 84  1  0  0  0
 80158  1  0  0  0
 80159  1  0  0  0
 81160  1  0  0  0
 81161  1  0  0  0
 82162  1  0  0  0
 84163  1  0  0  0
M  ISO  4   1 100  68 101  81 101  84 100
M  END
> <chiral flag>
0

> <version>
0

> <s_m_source_file>
/data/baiqing/PycharmProjects/Reinvent-master-3.2/result/LINK_invent/BTK/process_docking_weight1_custom_sum_contain_oxygen_bond_distance_aromatic_linkinvent_7_9_3/rearranged_h_0101.sdf

> <i_m_source_file_index>
97

> <r_mmod_Potential_Energy-OPLS-2005>
-32.252368927002

> <r_mmod_Stretch_Energy-OPLS-2005>
45.0333213806152

> <r_mmod_Bend_Energy-OPLS-2005>
129.442825317383

> <r_mmod_Torsional_Energy-OPLS-2005>
231.929794311523

> <r_mmod_Improper_Torsional_Energy-OPLS-2005>
5.44820547103882

> <r_mmod_Van_der_Waal_Energy-OPLS-2005>
131.262908935547

> <r_mmod_Electrostatic_Energy-OPLS-2005>
-388.007263183594

> <r_mmod_Solvation_Energy-OPLS-2005>
-207.201431274414

> <b_mmod_Minimization_Converged-OPLS-2005>
0

> <r_mmod_RMS_Derivative-OPLS-2005>
3.82620906829834

$$$$
97
                    3D
 Structure written by MMmdl.
174182  0  0  1  0            999 V2000
  -30.7066  -14.4560   20.4907 C   0  0  0  0  0  0
  -30.4157  -12.2687   19.4312 C   0  0  0  0  0  0
  -29.4971  -12.4743   18.2089 C   0  0  0  0  0  0
  -28.0142  -12.3481   18.6153 C   0  0  0  0  0  0
  -27.6565  -13.2035   19.8615 C   0  0  2  0  0  0
  -28.6990  -13.0253   20.9877 C   0  0  0  0  0  0
  -25.2585  -13.8152   20.5688 C   0  0  0  0  0  0
  -24.1842  -13.0421   20.9182 C   0  0  0  0  0  0
  -24.6392  -11.6886   20.8754 C   0  0  0  0  0  0
  -23.9072  -10.4276   21.0407 C   0  0  0  0  0  0
  -24.3619   -9.4201   21.9185 C   0  0  0  0  0  0
  -23.6286   -8.2242   22.0763 C   0  0  0  0  0  0
  -22.4275   -8.0275   21.3547 C   0  0  0  0  0  0
  -21.9911   -9.0262   20.4655 C   0  0  0  0  0  0
  -22.7249  -10.2128   20.3059 C   0  0  0  0  0  0
  -21.6846   -6.0741   22.5278 C   0  0  0  0  0  0
  -21.4012   -6.5641   23.8218 C   0  0  0  0  0  0
  -21.3666   -5.6796   24.9179 C   0  0  0  0  0  0
  -21.6041   -4.3061   24.7232 C   0  0  0  0  0  0
  -21.8821   -3.8155   23.4358 C   0  0  0  0  0  0
  -21.9193   -4.6970   22.3408 C   0  0  0  0  0  0
  -22.7865  -13.5229   21.1849 C   0  0  0  0  0  0
  -22.1653   -4.2148   21.0983 F   0  0  0  0  0  0
  -21.5641   -3.4548   25.7745 F   0  0  0  0  0  0
  -30.0390  -13.2738   20.4334 N   0  0  0  0  0  0
  -26.3007  -12.9308   20.3312 N   0  0  0  0  0  0
  -25.9314  -11.6478   20.5777 N   0  0  0  0  0  0
  -22.0503  -12.8220   22.0391 N   0  0  0  0  0  0
  -25.4272  -15.1883   20.4169 N   0  0  0  0  0  0
  -31.8960  -14.5463   20.1744 O   0  0  0  0  0  0
  -21.6636   -6.8876   21.4235 O   0  0  0  0  0  0
  -22.3546  -14.5544   20.6719 O   0  0  0  0  0  0
  -24.6093  -31.8721   23.2165 C   0  0  0  0  0  0
  -25.9005  -32.4823   23.8426 C   0  0  1  0  0  0
  -27.2237  -27.4411   20.0781 C   0  0  0  0  0  0
  -25.5864  -33.8620   24.2309 N   0  0  0  0  0  0
  -23.3957  -30.5005   21.5583 C   0  0  2  0  0  0
  -24.8404  -28.9721   20.1226 C   0  0  0  0  0  0
  -22.7384  -29.4683   22.5018 C   0  0  0  0  0  0
  -18.0264  -28.1367   22.8495 C   0  0  0  0  0  0
  -24.1506  -36.7348   23.2641 C   0  0  0  0  0  0
  -25.9296  -30.8287   21.3815 C   0  0  0  0  0  0
  -26.0016  -29.4648   20.7285 C   0  0  0  0  0  0
  -27.1948  -28.7036   20.7160 C   0  0  0  0  0  0
  -26.0572  -26.9959   19.4212 C   0  0  0  0  0  0
  -24.8604  -27.7318   19.4686 C   0  0  0  0  0  0
  -23.6033  -29.8379   20.1729 C   0  0  0  0  0  0
  -25.4108  -36.3099   24.0333 C   0  0  1  0  0  0
  -20.5846  -28.3651   23.1322 C   0  0  2  0  0  0
  -20.6760  -26.9394   22.5413 C   0  0  0  0  0  0
  -19.5738  -26.6378   21.5202 C   0  0  0  0  0  0
  -18.1921  -26.7900   22.1608 C   0  0  0  0  0  0
  -19.1519  -28.8818   23.2911 C   0  0  0  0  0  0
  -18.9444  -30.1430   23.8910 C   0  0  0  0  0  0
  -17.6454  -30.6576   24.0553 C   0  0  0  0  0  0
  -25.9038  -34.9467   23.5116 C   0  0  0  0  0  0
  -16.5341  -29.9073   23.6343 C   0  0  0  0  0  0
  -16.7250  -28.6501   23.0350 C   0  0  0  0  0  0
  -26.4428  -31.6594   25.0747 C   0  0  0  0  0  0
  -25.3681  -31.3679   26.1506 C   0  0  0  0  0  0
  -27.0291  -30.3030   24.6162 C   0  0  0  0  0  0
  -27.6007  -32.4338   25.7504 C   0  0  0  0  0  0
  -27.5574  -37.1820   24.8455 C   0  0  0  0  0  0
  -21.4119  -29.3036   22.3748 N   0  0  0  0  0  0
  -26.4283  -37.3775   23.9400 N   0  0  0  0  0  0
  -24.6614  -31.0831   22.1081 N   0  0  0  0  0  0
  -23.4176  -28.8193   23.3020 O   0  0  0  0  0  0
  -28.4033  -26.7238   20.0094 O   0  0  0  0  0  0
  -26.5624  -34.8902   22.4700 O   0  0  0  0  0  0
  -23.5291  -32.1492   23.7573 O   0  0  0  0  0  0
  -29.2449  -18.0407   17.9117 C   0  0  0  0  0  0
  -27.7663  -19.2272   19.8787 C   0  0  0  0  0  0
  -27.8259  -19.8676   18.6197 C   0  0  0  0  0  0
  -28.6156  -19.2575   17.6162 C   0  0  0  0  0  0
  -29.1241  -17.4791   19.1965 C   0  0  0  0  0  0
  -29.8170  -16.2043   19.4717 C   0  0  0  0  0  0
  -29.6676  -20.5152   15.9561 C   0  0  0  0  0  0
  -29.7438  -20.9865   14.5171 C   0  0  0  0  0  0
  -33.2123  -20.7416   17.6266 C   0  0  0  0  0  0
  -25.7488  -20.7759   17.5153 C   0  0  0  0  0  0
  -30.7890  -21.0425   16.8530 C   0  0  0  0  0  0
  -32.0044  -20.0981   16.9322 C   0  0  0  0  0  0
  -27.7797  -22.8592   20.1352 C   0  0  0  0  0  0
  -27.5557  -24.3457   19.7928 C   0  0  0  0  0  0
  -26.6373  -21.9948   19.5474 C   0  0  0  0  0  0
  -28.4455  -25.3773   20.5189 C   0  0  0  0  0  0
  -27.0130  -21.1350   18.3173 C   0  0  1  0  0  0
  -28.3995  -18.0743   20.1693 N   0  0  0  0  0  0
  -28.7070  -19.7559   16.3139 N   0  0  0  0  0  0
  -29.8945  -15.5730   20.5885 N   0  0  0  0  0  0
  -31.4633  -12.3416   19.1318 H   0  0  0  0  0  0
  -30.2898  -11.2673   19.8408 H   0  0  0  0  0  0
  -29.7321  -11.7422   17.4352 H   0  0  0  0  0  0
  -29.6769  -13.4551   17.7655 H   0  0  0  0  0  0
  -27.8181  -11.2953   18.8189 H   0  0  0  0  0  0
  -27.3710  -12.6189   17.7767 H   0  0  0  0  0  0
  -27.6827  -14.2449   19.5430 H   0  0  0  0  0  0
  -28.6548  -12.0163   21.3994 H   0  0  0  0  0  0
  -28.4832  -13.6976   21.8196 H   0  0  0  0  0  0
  -25.2758   -9.5676   22.4760 H   0  0  0  0  0  0
  -23.9999   -7.4631   22.7487 H   0  0  0  0  0  0
  -21.0843   -8.8792   19.8948 H   0  0  0  0  0  0
  -22.3719  -10.9678   19.6178 H   0  0  0  0  0  0
  -21.1988   -7.6144   23.9717 H   0  0  0  0  0  0
  -21.1486   -6.0528   25.9080 H   0  0  0  0  0  0
  -22.0592   -2.7612   23.2860 H   0  0  0  0  0  0
  -22.4138  -11.9871   22.4754 H   0  0  0  0  0  0
  -21.1121  -13.1228   22.2620 H   0  0  0  0  0  0
  -24.6642  -15.8382   20.5671 H   0  0  0  0  0  0
  -26.3011  -15.6428   20.1797 H   0  0  0  0  0  0
  -26.7063  -32.5532   23.1173 H   0  0  0  0  0  0
  -24.9932  -33.9827   25.0401 H   0  0  0  0  0  0
  -22.6862  -31.3195   21.4228 H   0  0  0  0  0  0
  -23.3726  -35.9719   23.3307 H   0  0  0  0  0  0
  -24.3597  -36.8982   22.2050 H   0  0  0  0  0  0
  -23.7327  -37.6571   23.6703 H   0  0  0  0  0  0
  -26.0587  -31.5964   20.6183 H   0  0  0  0  0  0
  -26.8117  -30.8710   22.0083 H   0  0  0  0  0  0
  -28.0921  -29.0883   21.1805 H   0  0  0  0  0  0
  -26.0540  -26.1108   18.8103 H   0  0  0  0  0  0
  -23.9769  -27.3603   18.9681 H   0  0  0  0  0  0
  -23.7056  -30.6163   19.4161 H   0  0  0  0  0  0
  -22.7276  -29.2561   19.8764 H   0  0  0  0  0  0
  -25.1280  -36.1940   25.0814 H   0  0  0  0  0  0
  -20.9953  -28.3230   24.1430 H   0  0  0  0  0  0
  -20.5666  -26.2274   23.3606 H   0  0  0  0  0  0
  -21.6638  -26.7464   22.1197 H   0  0  0  0  0  0
  -19.6937  -25.6294   21.1244 H   0  0  0  0  0  0
  -19.6675  -27.3193   20.6733 H   0  0  0  0  0  0
  -17.4191  -26.6650   21.4009 H   0  0  0  0  0  0
  -18.0323  -26.0033   22.8985 H   0  0  0  0  0  0
  -19.7935  -30.7244   24.2298 H   0  0  0  0  0  0
  -17.5011  -31.6267   24.5127 H   0  0  0  0  0  0
  -15.5340  -30.2949   23.7717 H   0  0  0  0  0  0
  -15.8656  -28.0837   22.7041 H   0  0  0  0  0  0
  -24.5875  -30.7010   25.7838 H   0  0  0  0  0  0
  -24.8837  -32.2798   26.4983 H   0  0  0  0  0  0
  -25.8012  -30.8830   27.0260 H   0  0  0  0  0  0
  -26.2836  -29.6743   24.1276 H   0  0  0  0  0  0
  -27.4095  -29.7317   25.4639 H   0  0  0  0  0  0
  -27.8656  -30.4320   23.9295 H   0  0  0  0  0  0
  -27.2633  -33.3638   26.2087 H   0  0  0  0  0  0
  -28.3796  -32.6888   25.0317 H   0  0  0  0  0  0
  -28.0682  -31.8448   26.5406 H   0  0  0  0  0  0
  -28.2580  -38.0125   24.7501 H   0  0  0  0  0  0
  -28.1079  -36.2661   24.6276 H   0  0  0  0  0  0
  -27.2316  -37.1461   25.8862 H   0  0  0  0  0  0
  -20.9286  -29.8792   21.7001 H   0  0  0  0  0  0
  -26.0172  -38.2863   24.1346 H   0  0  0  0  0  0
  -29.8175  -17.5326   17.1463 H   0  0  0  0  0  0
  -27.1710  -19.6181   20.6882 H   0  0  0  0  0  0
  -30.3093  -15.8096   18.5728 H   0  0  0  0  0  0
  -29.2983  -21.9761   14.4168 H   0  0  0  0  0  0
  -29.2077  -20.3036   13.8564 H   0  0  0  0  0  0
  -30.7797  -21.0372   14.1814 H   0  0  0  0  0  0
  -34.0489  -20.0419   17.6802 H   0  0  0  0  0  0
  -32.9674  -21.0490   18.6446 H   0  0  0  0  0  0
  -33.5592  -21.6214   17.0820 H   0  0  0  0  0  0
  -25.9938  -20.2412   16.5973 H   0  0  0  0  0  0
  -25.1946  -21.6672   17.2179 H   0  0  0  0  0  0
  -25.0723  -20.1479   18.0945 H   0  0  0  0  0  0
  -30.4007  -21.2443   17.8519 H   0  0  0  0  0  0
  -31.1041  -22.0095   16.4620 H   0  0  0  0  0  0
  -31.7341  -19.1885   17.4667 H   0  0  0  0  0  0
  -32.3075  -19.7898   15.9311 H   0  0  0  0  0  0
  -27.7839  -22.7426   21.2211 H   0  0  0  0  0  0
  -28.7583  -22.5223   19.7889 H   0  0  0  0  0  0
  -26.5287  -24.5505   20.0884 H   0  0  0  0  0  0
  -27.6357  -24.4786   18.7134 H   0  0  0  0  0  0
  -25.8426  -22.6674   19.2246 H   0  0  0  0  0  0
  -26.1526  -21.4108   20.3287 H   0  0  0  0  0  0
  -29.4830  -25.0513   20.4387 H   0  0  0  0  0  0
  -28.2122  -25.3858   21.5830 H   0  0  0  0  0  0
  -27.6293  -21.7665   17.6773 H   0  0  0  0  0  0
  1 25  1  0  0  0
  1 30  2  0  0  0
  1 90  1  0  0  0
  2  3  1  0  0  0
  2 25  1  0  0  0
  2 91  1  0  0  0
  2 92  1  0  0  0
  3  4  1  0  0  0
  3 93  1  0  0  0
  3 94  1  0  0  0
  4  5  1  0  0  0
  4 95  1  0  0  0
  4 96  1  0  0  0
  5  6  1  0  0  0
  5 26  1  0  0  0
  5 97  1  0  0  0
  6 25  1  0  0  0
  6 98  1  0  0  0
  6 99  1  0  0  0
  7  8  2  0  0  0
  7 26  1  0  0  0
  7 29  1  0  0  0
  8  9  1  0  0  0
  8 22  1  0  0  0
  9 10  1  0  0  0
  9 27  2  0  0  0
 10 11  2  0  0  0
 10 15  1  0  0  0
 11 12  1  0  0  0
 11100  1  0  0  0
 12 13  2  0  0  0
 12101  1  0  0  0
 13 14  1  0  0  0
 13 31  1  0  0  0
 14 15  2  0  0  0
 14102  1  0  0  0
 15103  1  0  0  0
 16 17  2  0  0  0
 16 21  1  0  0  0
 16 31  1  0  0  0
 17 18  1  0  0  0
 17104  1  0  0  0
 18 19  2  0  0  0
 18105  1  0  0  0
 19 20  1  0  0  0
 19 24  1  0  0  0
 20 21  2  0  0  0
 20106  1  0  0  0
 21 23  1  0  0  0
 22 28  1  0  0  0
 22 32  2  0  0  0
 26 27  1  0  0  0
 28107  1  0  0  0
 28108  1  0  0  0
 29109  1  0  0  0
 29110  1  0  0  0
 33 34  1  0  0  0
 33 66  1  0  0  0
 33 70  2  0  0  0
 34 36  1  0  0  0
 34 59  1  0  0  0
 34111  1  0  0  0
 35 44  2  0  0  0
 35 45  1  0  0  0
 35 68  1  0  0  0
 36 56  1  0  0  0
 36112  1  0  0  0
 37 39  1  0  0  0
 37 47  1  0  0  0
 37 66  1  0  0  0
 37113  1  0  0  0
 38 43  2  0  0  0
 38 46  1  0  0  0
 38 47  1  0  0  0
 39 64  1  0  0  0
 39 67  2  0  0  0
 40 52  1  0  0  0
 40 53  2  0  0  0
 40 58  1  0  0  0
 41114  1  0  0  0
 41115  1  0  0  0
 41116  1  0  0  0
 41 48  1  0  0  0
 42 43  1  0  0  0
 42 66  1  0  0  0
 42117  1  0  0  0
 42118  1  0  0  0
 43 44  1  0  0  0
 44119  1  0  0  0
 45 46  2  0  0  0
 45120  1  0  0  0
 46121  1  0  0  0
 47122  1  0  0  0
 47123  1  0  0  0
 48 56  1  0  0  0
 48 65  1  0  0  0
 48124  1  0  0  0
 49 50  1  0  0  0
 49 53  1  0  0  0
 49 64  1  0  0  0
 49125  1  0  0  0
 50 51  1  0  0  0
 50126  1  0  0  0
 50127  1  0  0  0
 51 52  1  0  0  0
 51128  1  0  0  0
 51129  1  0  0  0
 52130  1  0  0  0
 52131  1  0  0  0
 53 54  1  0  0  0
 54 55  2  0  0  0
 54132  1  0  0  0
 55 57  1  0  0  0
 55133  1  0  0  0
 56 69  2  0  0  0
 57 58  2  0  0  0
 57134  1  0  0  0
 58135  1  0  0  0
 59 60  1  0  0  0
 59 61  1  0  0  0
 59 62  1  0  0  0
 60136  1  0  0  0
 60137  1  0  0  0
 60138  1  0  0  0
 61139  1  0  0  0
 61140  1  0  0  0
 61141  1  0  0  0
 62142  1  0  0  0
 62143  1  0  0  0
 62144  1  0  0  0
 63 65  1  0  0  0
 63145  1  0  0  0
 63146  1  0  0  0
 63147  1  0  0  0
 64148  1  0  0  0
 65149  1  0  0  0
 68 86  1  0  0  0
 71 74  2  0  0  0
 71 75  1  0  0  0
 71150  1  0  0  0
 72 73  2  0  0  0
 72 88  1  0  0  0
 72151  1  0  0  0
 73 74  1  0  0  0
 73 87  1  0  0  0
 74 89  1  0  0  0
 75 76  1  0  0  0
 75 88  2  0  0  0
 76 90  2  0  0  0
 76152  1  0  0  0
 77 78  1  0  0  0
 77 81  1  0  0  0
 77 89  2  0  0  0
 78153  1  0  0  0
 78154  1  0  0  0
 78155  1  0  0  0
 79 82  1  0  0  0
 79156  1  0  0  0
 79157  1  0  0  0
 79158  1  0  0  0
 80159  1  0  0  0
 80160  1  0  0  0
 80161  1  0  0  0
 80 87  1  0  0  0
 81 82  1  0  0  0
 81162  1  0  0  0
 81163  1  0  0  0
 82164  1  0  0  0
 82165  1  0  0  0
 83 84  1  0  0  0
 83 85  1  0  0  0
 83166  1  0  0  0
 83167  1  0  0  0
 84 86  1  0  0  0
 84168  1  0  0  0
 84169  1  0  0  0
 85 87  1  0  0  0
 85170  1  0  0  0
 85171  1  0  0  0
 86172  1  0  0  0
 86173  1  0  0  0
 87174  1  0  0  0
M  ISO  4   1 100  68 101  86 101  90 100
M  END
> <chiral flag>
0

> <version>
0

> <s_m_source_file>
/data/baiqing/PycharmProjects/Reinvent-master-3.2/result/LINK_invent/BTK/process_docking_weight1_custom_sum_contain_oxygen_bond_distance_aromatic_linkinvent_7_9_3/rearranged_h_0101.sdf

> <i_m_source_file_index>
98

> <r_mmod_Potential_Energy-OPLS-2005>
-101.311332702637

> <r_mmod_Stretch_Energy-OPLS-2005>
36.8175201416016

> <r_mmod_Bend_Energy-OPLS-2005>
114.075881958008

> <r_mmod_Torsional_Energy-OPLS-2005>
235.854064941406

> <r_mmod_Improper_Torsional_Energy-OPLS-2005>
9.40132522583008

> <r_mmod_Van_der_Waal_Energy-OPLS-2005>
174.813278198242

> <r_mmod_Electrostatic_Energy-OPLS-2005>
-504.151580810547

> <r_mmod_Solvation_Energy-OPLS-2005>
-186.991363525391

> <b_mmod_Minimization_Converged-OPLS-2005>
0

> <r_mmod_RMS_Derivative-OPLS-2005>
3.81997895240784

$$$$
98
                    3D
 Structure written by MMmdl.
158165  0  0  1  0            999 V2000
  -30.7112  -14.4782   20.5556 C   0  0  0  0  0  0
  -30.4199  -12.3083   19.4270 C   0  0  0  0  0  0
  -29.4941  -12.5041   18.2091 C   0  0  0  0  0  0
  -28.0151  -12.3654   18.6216 C   0  0  0  0  0  0
  -27.6602  -13.2136   19.8732 C   0  0  2  0  0  0
  -28.7031  -13.0120   20.9966 C   0  0  0  0  0  0
  -25.2576  -13.8178   20.5695 C   0  0  0  0  0  0
  -24.1830  -13.0443   20.9190 C   0  0  0  0  0  0
  -24.6402  -11.6915   20.8739 C   0  0  0  0  0  0
  -23.9079  -10.4294   21.0399 C   0  0  0  0  0  0
  -24.3623   -9.4210   21.9182 C   0  0  0  0  0  0
  -23.6298   -8.2247   22.0748 C   0  0  0  0  0  0
  -22.4276   -8.0289   21.3547 C   0  0  0  0  0  0
  -21.9920   -9.0266   20.4649 C   0  0  0  0  0  0
  -22.7249  -10.2141   20.3058 C   0  0  0  0  0  0
  -21.6851   -6.0743   22.5281 C   0  0  0  0  0  0
  -21.4012   -6.5645   23.8217 C   0  0  0  0  0  0
  -21.3656   -5.6792   24.9180 C   0  0  0  0  0  0
  -21.6045   -4.3057   24.7225 C   0  0  0  0  0  0
  -21.8815   -3.8155   23.4346 C   0  0  0  0  0  0
  -21.9190   -4.6971   22.3402 C   0  0  0  0  0  0
  -22.7850  -13.5230   21.1858 C   0  0  0  0  0  0
  -22.1656   -4.2160   21.0979 F   0  0  0  0  0  0
  -21.5630   -3.4537   25.7736 F   0  0  0  0  0  0
  -30.0340  -13.3046   20.4386 N   0  0  0  0  0  0
  -26.3022  -12.9371   20.3376 N   0  0  0  0  0  0
  -25.9332  -11.6523   20.5774 N   0  0  0  0  0  0
  -22.0495  -12.8217   22.0416 N   0  0  0  0  0  0
  -25.4302  -15.1898   20.4110 N   0  0  0  0  0  0
  -31.8426  -14.6481   20.0939 O   0  0  0  0  0  0
  -21.6638   -6.8888   21.4246 O   0  0  0  0  0  0
  -22.3533  -14.5537   20.6707 O   0  0  0  0  0  0
  -24.6180  -31.8677   23.2111 C   0  0  0  0  0  0
  -25.9062  -32.4823   23.8402 C   0  0  1  0  0  0
  -27.2229  -27.4016   20.0843 C   0  0  0  0  0  0
  -25.5906  -33.8625   24.2319 N   0  0  0  0  0  0
  -23.4051  -30.4946   21.5545 C   0  0  2  0  0  0
  -24.8467  -28.9663   20.1107 C   0  0  0  0  0  0
  -22.7423  -29.4660   22.4995 C   0  0  0  0  0  0
  -18.0270  -28.1368   22.8493 C   0  0  0  0  0  0
  -24.1497  -36.7326   23.2633 C   0  0  0  0  0  0
  -25.9396  -30.8221   21.3692 C   0  0  0  0  0  0
  -26.0120  -29.4557   20.7128 C   0  0  0  0  0  0
  -27.1993  -28.6801   20.7011 C   0  0  0  0  0  0
  -26.0334  -26.9542   19.4561 C   0  0  0  0  0  0
  -24.8549  -27.7161   19.4792 C   0  0  0  0  0  0
  -23.6105  -29.8341   20.1665 C   0  0  0  0  0  0
  -25.4116  -36.3116   24.0334 C   0  0  1  0  0  0
  -20.5866  -28.3660   23.1313 C   0  0  2  0  0  0
  -20.6759  -26.9393   22.5409 C   0  0  0  0  0  0
  -19.5736  -26.6383   21.5209 C   0  0  0  0  0  0
  -18.1920  -26.7914   22.1630 C   0  0  0  0  0  0
  -19.1521  -28.8830   23.2900 C   0  0  0  0  0  0
  -18.9439  -30.1437   23.8908 C   0  0  0  0  0  0
  -17.6440  -30.6574   24.0563 C   0  0  0  0  0  0
  -25.9041  -34.9482   23.5122 C   0  0  0  0  0  0
  -16.5334  -29.9074   23.6319 C   0  0  0  0  0  0
  -16.7257  -28.6489   23.0347 C   0  0  0  0  0  0
  -26.4461  -31.6597   25.0732 C   0  0  0  0  0  0
  -25.3715  -31.3712   26.1468 C   0  0  0  0  0  0
  -27.0273  -30.3033   24.6113 C   0  0  0  0  0  0
  -27.6041  -32.4304   25.7495 C   0  0  0  0  0  0
  -27.5589  -37.1819   24.8460 C   0  0  0  0  0  0
  -21.4150  -29.3035   22.3730 N   0  0  0  0  0  0
  -26.4308  -37.3793   23.9397 N   0  0  0  0  0  0
  -24.6733  -31.0752   22.1030 N   0  0  0  0  0  0
  -23.4185  -28.8184   23.3029 O   0  0  0  0  0  0
  -28.3842  -26.6333   20.1292 O   0  0  0  0  0  0
  -26.5610  -34.8931   22.4687 O   0  0  0  0  0  0
  -23.5364  -32.1443   23.7488 O   0  0  0  0  0  0
  -28.6861  -25.3148   18.1377 C   0  0  0  0  0  0
  -29.4426  -17.9002   21.6531 C   0  0  0  0  0  0
  -29.2793  -24.2927   20.4338 C   0  0  0  0  0  0
  -30.4669  -16.9240   21.0160 C   0  0  0  0  0  0
  -29.0646  -22.7895   20.0504 C   0  0  0  0  0  0
  -29.3885  -20.3689   20.6654 C   0  0  0  0  0  0
  -28.3553  -25.2670   19.6408 C   0  0  1  0  0  0
  -29.8639  -19.3993   21.7824 C   0  0  2  0  0  0
  -30.0160  -15.5189   21.0523 N   0  0  0  0  0  0
  -29.6901  -21.7992   20.9745 N   0  3  0  0  0  0
  -31.1861  -19.4986   21.9411 F   0  0  0  0  0  0
  -31.4645  -12.3979   19.1237 H   0  0  0  0  0  0
  -30.3164  -11.3015   19.8346 H   0  0  0  0  0  0
  -29.7356  -11.7792   17.4304 H   0  0  0  0  0  0
  -29.6627  -13.4898   17.7721 H   0  0  0  0  0  0
  -27.8287  -11.3099   18.8267 H   0  0  0  0  0  0
  -27.3646  -12.6312   17.7878 H   0  0  0  0  0  0
  -27.6989  -14.2597   19.5676 H   0  0  0  0  0  0
  -28.6756  -11.9833   21.3595 H   0  0  0  0  0  0
  -28.4703  -13.6349   21.8610 H   0  0  0  0  0  0
  -25.2770   -9.5669   22.4759 H   0  0  0  0  0  0
  -24.0003   -7.4627   22.7450 H   0  0  0  0  0  0
  -21.0861   -8.8794   19.8946 H   0  0  0  0  0  0
  -22.3723  -10.9685   19.6164 H   0  0  0  0  0  0
  -21.2007   -7.6153   23.9727 H   0  0  0  0  0  0
  -21.1478   -6.0522   25.9083 H   0  0  0  0  0  0
  -22.0598   -2.7620   23.2842 H   0  0  0  0  0  0
  -22.4104  -11.9874   22.4806 H   0  0  0  0  0  0
  -21.1112  -13.1235   22.2621 H   0  0  0  0  0  0
  -24.6674  -15.8483   20.5257 H   0  0  0  0  0  0
  -26.2877  -15.6292   20.1016 H   0  0  0  0  0  0
  -26.7134  -32.5514   23.1165 H   0  0  0  0  0  0
  -25.0035  -33.9777   25.0451 H   0  0  0  0  0  0
  -22.6964  -31.3142   21.4195 H   0  0  0  0  0  0
  -23.3757  -35.9663   23.3301 H   0  0  0  0  0  0
  -24.3588  -36.8935   22.2045 H   0  0  0  0  0  0
  -23.7263  -37.6541   23.6640 H   0  0  0  0  0  0
  -26.0540  -31.5858   20.5989 H   0  0  0  0  0  0
  -26.8287  -30.8755   21.9863 H   0  0  0  0  0  0
  -28.0944  -29.0531   21.1790 H   0  0  0  0  0  0
  -25.9677  -26.0174   18.9267 H   0  0  0  0  0  0
  -23.9633  -27.3374   18.9978 H   0  0  0  0  0  0
  -23.7114  -30.6122   19.4088 H   0  0  0  0  0  0
  -22.7339  -29.2528   19.8734 H   0  0  0  0  0  0
  -25.1293  -36.1985   25.0830 H   0  0  0  0  0  0
  -20.9958  -28.3214   24.1436 H   0  0  0  0  0  0
  -20.5656  -26.2263   23.3594 H   0  0  0  0  0  0
  -21.6629  -26.7427   22.1204 H   0  0  0  0  0  0
  -19.6898  -25.6299   21.1225 H   0  0  0  0  0  0
  -19.6677  -27.3206   20.6750 H   0  0  0  0  0  0
  -17.4185  -26.6660   21.4040 H   0  0  0  0  0  0
  -18.0329  -26.0053   22.9024 H   0  0  0  0  0  0
  -19.7910  -30.7257   24.2295 H   0  0  0  0  0  0
  -17.4983  -31.6258   24.5156 H   0  0  0  0  0  0
  -15.5330  -30.2976   23.7631 H   0  0  0  0  0  0
  -15.8663  -28.0810   22.7056 H   0  0  0  0  0  0
  -24.5905  -30.7034   25.7799 H   0  0  0  0  0  0
  -24.8881  -32.2864   26.4891 H   0  0  0  0  0  0
  -25.8051  -30.8900   27.0243 H   0  0  0  0  0  0
  -26.2815  -29.6842   24.1111 H   0  0  0  0  0  0
  -27.3964  -29.7218   25.4568 H   0  0  0  0  0  0
  -27.8686  -30.4337   23.9312 H   0  0  0  0  0  0
  -27.2663  -33.3591   26.2105 H   0  0  0  0  0  0
  -28.3828  -32.6882   25.0307 H   0  0  0  0  0  0
  -28.0731  -31.8413   26.5383 H   0  0  0  0  0  0
  -28.2603  -38.0118   24.7496 H   0  0  0  0  0  0
  -28.1089  -36.2646   24.6299 H   0  0  0  0  0  0
  -27.2297  -37.1479   25.8860 H   0  0  0  0  0  0
  -20.9308  -29.8780   21.6973 H   0  0  0  0  0  0
  -26.0205  -38.2878   24.1382 H   0  0  0  0  0  0
  -28.6538  -24.3271   17.6800 H   0  0  0  0  0  0
  -29.6788  -25.7321   17.9677 H   0  0  0  0  0  0
  -27.9762  -25.9375   17.5937 H   0  0  0  0  0  0
  -29.2406  -17.5359   22.6609 H   0  0  0  0  0  0
  -28.4878  -17.8304   21.1300 H   0  0  0  0  0  0
  -30.3249  -24.5694   20.3000 H   0  0  0  0  0  0
  -29.0677  -24.4209   21.4955 H   0  0  0  0  0  0
  -30.6666  -17.2119   19.9820 H   0  0  0  0  0  0
  -31.4204  -16.9909   21.5447 H   0  0  0  0  0  0
  -29.4438  -22.6091   19.0437 H   0  0  0  0  0  0
  -27.9943  -22.5830   20.0147 H   0  0  0  0  0  0
  -28.3104  -20.2570   20.5365 H   0  0  0  0  0  0
  -29.8402  -20.0950   19.7112 H   0  0  0  0  0  0
  -27.3697  -24.8303   19.7880 H   0  0  0  0  0  0
  -29.4427  -19.7588   22.7232 H   0  0  0  0  0  0
  -29.0838  -15.3248   21.3872 H   0  0  0  0  0  0
  -30.6910  -21.9119   20.9689 H   0  0  0  0  0  0
  -29.3704  -21.9904   21.9105 H   0  0  0  0  0  0
  1 25  1  0  0  0
  1 30  2  0  0  0
  1 79  1  0  0  0
  2  3  1  0  0  0
  2 25  1  0  0  0
  2 82  1  0  0  0
  2 83  1  0  0  0
  3  4  1  0  0  0
  3 84  1  0  0  0
  3 85  1  0  0  0
  4  5  1  0  0  0
  4 86  1  0  0  0
  4 87  1  0  0  0
  5  6  1  0  0  0
  5 26  1  0  0  0
  5 88  1  0  0  0
  6 25  1  0  0  0
  6 89  1  0  0  0
  6 90  1  0  0  0
  7  8  2  0  0  0
  7 26  1  0  0  0
  7 29  1  0  0  0
  8  9  1  0  0  0
  8 22  1  0  0  0
  9 10  1  0  0  0
  9 27  2  0  0  0
 10 11  2  0  0  0
 10 15  1  0  0  0
 11 12  1  0  0  0
 11 91  1  0  0  0
 12 13  2  0  0  0
 12 92  1  0  0  0
 13 14  1  0  0  0
 13 31  1  0  0  0
 14 15  2  0  0  0
 14 93  1  0  0  0
 15 94  1  0  0  0
 16 17  2  0  0  0
 16 21  1  0  0  0
 16 31  1  0  0  0
 17 18  1  0  0  0
 17 95  1  0  0  0
 18 19  2  0  0  0
 18 96  1  0  0  0
 19 20  1  0  0  0
 19 24  1  0  0  0
 20 21  2  0  0  0
 20 97  1  0  0  0
 21 23  1  0  0  0
 22 28  1  0  0  0
 22 32  2  0  0  0
 26 27  1  0  0  0
 28 98  1  0  0  0
 28 99  1  0  0  0
 29100  1  0  0  0
 29101  1  0  0  0
 33 34  1  0  0  0
 33 66  1  0  0  0
 33 70  2  0  0  0
 34 36  1  0  0  0
 34 59  1  0  0  0
 34102  1  0  0  0
 35 44  2  0  0  0
 35 45  1  0  0  0
 35 68  1  0  0  0
 36 56  1  0  0  0
 36103  1  0  0  0
 37 39  1  0  0  0
 37 47  1  0  0  0
 37 66  1  0  0  0
 37104  1  0  0  0
 38 43  2  0  0  0
 38 46  1  0  0  0
 38 47  1  0  0  0
 39 64  1  0  0  0
 39 67  2  0  0  0
 40 52  1  0  0  0
 40 53  2  0  0  0
 40 58  1  0  0  0
 41105  1  0  0  0
 41106  1  0  0  0
 41107  1  0  0  0
 41 48  1  0  0  0
 42 43  1  0  0  0
 42 66  1  0  0  0
 42108  1  0  0  0
 42109  1  0  0  0
 43 44  1  0  0  0
 44110  1  0  0  0
 45 46  2  0  0  0
 45111  1  0  0  0
 46112  1  0  0  0
 47113  1  0  0  0
 47114  1  0  0  0
 48 56  1  0  0  0
 48 65  1  0  0  0
 48115  1  0  0  0
 49 50  1  0  0  0
 49 53  1  0  0  0
 49 64  1  0  0  0
 49116  1  0  0  0
 50 51  1  0  0  0
 50117  1  0  0  0
 50118  1  0  0  0
 51 52  1  0  0  0
 51119  1  0  0  0
 51120  1  0  0  0
 52121  1  0  0  0
 52122  1  0  0  0
 53 54  1  0  0  0
 54 55  2  0  0  0
 54123  1  0  0  0
 55 57  1  0  0  0
 55124  1  0  0  0
 56 69  2  0  0  0
 57 58  2  0  0  0
 57125  1  0  0  0
 58126  1  0  0  0
 59 60  1  0  0  0
 59 61  1  0  0  0
 59 62  1  0  0  0
 60127  1  0  0  0
 60128  1  0  0  0
 60129  1  0  0  0
 61130  1  0  0  0
 61131  1  0  0  0
 61132  1  0  0  0
 62133  1  0  0  0
 62134  1  0  0  0
 62135  1  0  0  0
 63 65  1  0  0  0
 63136  1  0  0  0
 63137  1  0  0  0
 63138  1  0  0  0
 64139  1  0  0  0
 65140  1  0  0  0
 68 77  1  0  0  0
 71141  1  0  0  0
 71142  1  0  0  0
 71143  1  0  0  0
 71 77  1  0  0  0
 72 74  1  0  0  0
 72 78  1  0  0  0
 72144  1  0  0  0
 72145  1  0  0  0
 73 75  1  0  0  0
 73 77  1  0  0  0
 73146  1  0  0  0
 73147  1  0  0  0
 74 79  1  0  0  0
 74148  1  0  0  0
 74149  1  0  0  0
 75 80  1  0  0  0
 75150  1  0  0  0
 75151  1  0  0  0
 76 78  1  0  0  0
 76 80  1  0  0  0
 76152  1  0  0  0
 76153  1  0  0  0
 77154  1  0  0  0
 78 81  1  0  0  0
 78155  1  0  0  0
 79156  1  0  0  0
 80157  1  0  0  0
 80158  1  0  0  0
M  CHG  1  80   1
M  ISO  4   1 100  68 101  77 101  79 100
M  END
> <chiral flag>
0

> <version>
0

> <s_m_source_file>
/data/baiqing/PycharmProjects/Reinvent-master-3.2/result/LINK_invent/BTK/process_docking_weight1_custom_sum_contain_oxygen_bond_distance_aromatic_linkinvent_7_9_3/rearranged_h_0101.sdf

> <i_m_source_file_index>
99

> <r_mmod_Potential_Energy-OPLS-2005>
-264.380493164062

> <r_mmod_Stretch_Energy-OPLS-2005>
41.9616775512695

> <r_mmod_Bend_Energy-OPLS-2005>
103.617210388184

> <r_mmod_Torsional_Energy-OPLS-2005>
205.523406982422

> <r_mmod_Improper_Torsional_Energy-OPLS-2005>
3.74617099761963

> <r_mmod_Van_der_Waal_Energy-OPLS-2005>
138.338958740234

> <r_mmod_Electrostatic_Energy-OPLS-2005>
-291.095031738281

> <r_mmod_Solvation_Energy-OPLS-2005>
-483.687377929688

> <b_mmod_Minimization_Converged-OPLS-2005>
0

> <r_mmod_RMS_Derivative-OPLS-2005>
1.59018266201019

$$$$
99
                    3D
 Structure written by MMmdl.
187194  0  0  1  0            999 V2000
  -30.5535  -14.9636   20.4770 C   0  0  0  0  0  0
  -30.4522  -12.6041   19.5378 C   0  0  0  0  0  0
  -29.5491  -12.5772   18.2782 C   0  0  0  0  0  0
  -28.0695  -12.3652   18.6569 C   0  0  0  0  0  0
  -27.6409  -13.2650   19.8466 C   0  0  2  0  0  0
  -28.6736  -13.2839   21.0012 C   0  0  0  0  0  0
  -25.2487  -13.8218   20.5661 C   0  0  0  0  0  0
  -24.1809  -13.0453   20.9119 C   0  0  0  0  0  0
  -24.6433  -11.6938   20.8602 C   0  0  0  0  0  0
  -23.9084  -10.4308   21.0294 C   0  0  0  0  0  0
  -24.3614   -9.4227   21.9104 C   0  0  0  0  0  0
  -23.6290   -8.2264   22.0723 C   0  0  0  0  0  0
  -22.4272   -8.0264   21.3511 C   0  0  0  0  0  0
  -21.9884   -9.0232   20.4615 C   0  0  0  0  0  0
  -22.7214  -10.2116   20.2995 C   0  0  0  0  0  0
  -21.6872   -6.0691   22.5263 C   0  0  0  0  0  0
  -21.4039   -6.5600   23.8191 C   0  0  0  0  0  0
  -21.3684   -5.6758   24.9152 C   0  0  0  0  0  0
  -21.6038   -4.3022   24.7207 C   0  0  0  0  0  0
  -21.8839   -3.8116   23.4337 C   0  0  0  0  0  0
  -21.9210   -4.6923   22.3385 C   0  0  0  0  0  0
  -22.7822  -13.5224   21.1783 C   0  0  0  0  0  0
  -22.1681   -4.2113   21.0959 F   0  0  0  0  0  0
  -21.5620   -3.4514   25.7720 F   0  0  0  0  0  0
  -29.9737  -13.6915   20.4445 N   0  0  0  0  0  0
  -26.2950  -12.9499   20.3185 N   0  0  0  0  0  0
  -25.9381  -11.6597   20.5599 N   0  0  0  0  0  0
  -22.0510  -12.8246   22.0361 N   0  0  0  0  0  0
  -25.4124  -15.1972   20.4111 N   0  0  0  0  0  0
  -31.6983  -15.0679   20.0192 O   0  0  0  0  0  0
  -21.6651   -6.8841   21.4217 O   0  0  0  0  0  0
  -22.3452  -14.5504   20.6595 O   0  0  0  0  0  0
  -24.6385  -31.8412   23.1850 C   0  0  0  0  0  0
  -25.9132  -32.4702   23.8233 C   0  0  1  0  0  0
  -27.2238  -27.1465   20.1419 C   0  0  0  0  0  0
  -25.5835  -33.8478   24.2151 N   0  0  0  0  0  0
  -23.4431  -30.4653   21.5256 C   0  0  2  0  0  0
  -24.8940  -28.8883   20.1136 C   0  0  0  0  0  0
  -22.7526  -29.4553   22.4777 C   0  0  0  0  0  0
  -18.0280  -28.1328   22.8446 C   0  0  0  0  0  0
  -24.1490  -36.7249   23.2654 C   0  0  0  0  0  0
  -25.9983  -30.7287   21.3688 C   0  0  0  0  0  0
  -26.0709  -29.3329   20.7242 C   0  0  0  0  0  0
  -27.2384  -28.4779   20.7201 C   0  0  0  0  0  0
  -26.0128  -26.7927   19.5065 C   0  0  0  0  0  0
  -24.8759  -27.6296   19.4943 C   0  0  0  0  0  0
  -23.6707  -29.7935   20.1450 C   0  0  0  0  0  0
  -25.4085  -36.2976   24.0345 C   0  0  1  0  0  0
  -20.5877  -28.3702   23.1207 C   0  0  2  0  0  0
  -20.6768  -26.9394   22.5395 C   0  0  0  0  0  0
  -19.5760  -26.6352   21.5169 C   0  0  0  0  0  0
  -18.1940  -26.7878   22.1580 C   0  0  0  0  0  0
  -19.1527  -28.8831   23.2832 C   0  0  0  0  0  0
  -18.9419  -30.1394   23.8895 C   0  0  0  0  0  0
  -17.6416  -30.6547   24.0520 C   0  0  0  0  0  0
  -25.9037  -34.9383   23.5060 C   0  0  0  0  0  0
  -16.5321  -29.9030   23.6272 C   0  0  0  0  0  0
  -16.7260  -28.6419   23.0360 C   0  0  0  0  0  0
  -26.4605  -31.6591   25.0630 C   0  0  0  0  0  0
  -25.3945  -31.3273   26.1322 C   0  0  0  0  0  0
  -27.0773  -30.3221   24.5992 C   0  0  0  0  0  0
  -27.5942  -32.4529   25.7539 C   0  0  0  0  0  0
  -27.5536  -37.1754   24.8485 C   0  0  0  0  0  0
  -21.4207  -29.3046   22.3576 N   0  0  0  0  0  0
  -26.4231  -37.3693   23.9448 N   0  0  0  0  0  0
  -24.7141  -31.0327   22.0832 N   0  0  0  0  0  0
  -23.4158  -28.8086   23.2947 O   0  0  0  0  0  0
  -28.2943  -26.1820   20.1949 O   0  0  0  0  0  0
  -26.5690  -34.8891   22.4671 O   0  0  0  0  0  0
  -23.5501  -32.1259   23.7091 O   0  0  0  0  0  0
  -30.3347  -23.7220   19.1994 C   0  0  0  0  0  0
  -26.4229  -23.3497   24.4967 C   0  0  0  0  0  0
  -30.9867  -19.4354   19.4019 C   0  0  0  0  0  0
  -31.3600  -18.7241   21.7003 C   0  0  0  0  0  0
  -29.0967  -27.1974   25.4685 C   0  0  0  0  0  0
  -26.6448  -26.7262   25.6517 C   0  0  0  0  0  0
  -28.3089  -25.3378   26.9281 C   0  0  0  0  0  0
  -28.8736  -21.7756   20.1295 C   0  0  0  0  0  0
  -29.8572  -21.1171   22.4960 C   0  0  0  0  0  0
  -28.6283  -23.0501   23.3186 C   0  0  0  0  0  0
  -29.4939  -17.5741   20.3819 C   0  0  0  0  0  0
  -28.0745  -24.6600   19.9709 C   0  0  0  0  0  0
  -29.2121  -23.4376   20.1990 C   0  0  2  0  0  0
  -29.3642  -20.4972   21.1357 C   0  0  2  0  0  0
  -27.9177  -23.7145   24.5090 C   0  0  1  0  0  0
  -30.2292  -19.0637   20.6906 C   0  0  0  0  0  0
  -28.0409  -26.0763   25.6003 C   0  0  0  0  0  0
  -29.8185  -16.1043   20.8992 N   0  0  0  0  0  0
  -28.8228  -21.6072   23.4239 N   0  0  0  0  0  0
  -28.1338  -25.1875   24.4023 N   0  3  0  0  0  0
  -31.4939  -12.7551   19.2465 H   0  0  0  0  0  0
  -30.4270  -11.6461   20.0584 H   0  0  0  0  0  0
  -29.8805  -11.8070   17.5817 H   0  0  0  0  0  0
  -29.6514  -13.5256   17.7485 H   0  0  0  0  0  0
  -27.9304  -11.3110   18.9084 H   0  0  0  0  0  0
  -27.4382  -12.5623   17.7898 H   0  0  0  0  0  0
  -27.6052  -14.2763   19.4392 H   0  0  0  0  0  0
  -28.7398  -12.3115   21.4886 H   0  0  0  0  0  0
  -28.3539  -13.9802   21.7783 H   0  0  0  0  0  0
  -25.2770   -9.5717   22.4632 H   0  0  0  0  0  0
  -23.9999   -7.4672   22.7469 H   0  0  0  0  0  0
  -21.0768   -8.8731   19.8953 H   0  0  0  0  0  0
  -22.3626  -10.9611   19.6088 H   0  0  0  0  0  0
  -21.2057   -7.6125   23.9677 H   0  0  0  0  0  0
  -21.1478   -6.0485   25.9040 H   0  0  0  0  0  0
  -22.0602   -2.7578   23.2827 H   0  0  0  0  0  0
  -22.4147  -11.9983   22.4860 H   0  0  0  0  0  0
  -21.1126  -13.1240   22.2537 H   0  0  0  0  0  0
  -24.6301  -15.8399   20.4525 H   0  0  0  0  0  0
  -26.2677  -15.6375   20.1004 H   0  0  0  0  0  0
  -26.7119  -32.5395   23.0885 H   0  0  0  0  0  0
  -24.9919  -33.9587   25.0266 H   0  0  0  0  0  0
  -22.7507  -31.2974   21.3704 H   0  0  0  0  0  0
  -23.3705  -35.9617   23.3240 H   0  0  0  0  0  0
  -24.3663  -36.8906   22.2086 H   0  0  0  0  0  0
  -23.7288  -37.6461   23.6689 H   0  0  0  0  0  0
  -26.1269  -31.4666   20.5763 H   0  0  0  0  0  0
  -26.8821  -30.8076   21.9909 H   0  0  0  0  0  0
  -28.1361  -28.8165   21.2174 H   0  0  0  0  0  0
  -25.9142  -25.8283   19.0283 H   0  0  0  0  0  0
  -23.9706  -27.2874   19.0130 H   0  0  0  0  0  0
  -23.8232  -30.5705   19.3937 H   0  0  0  0  0  0
  -22.7851  -29.2431   19.8197 H   0  0  0  0  0  0
  -25.1281  -36.1779   25.0835 H   0  0  0  0  0  0
  -20.9979  -28.3294   24.1324 H   0  0  0  0  0  0
  -20.5562  -26.2330   23.3619 H   0  0  0  0  0  0
  -21.6653  -26.7370   22.1248 H   0  0  0  0  0  0
  -19.6908  -25.6245   21.1238 H   0  0  0  0  0  0
  -19.6680  -27.3111   20.6638 H   0  0  0  0  0  0
  -17.4199  -26.6584   21.3995 H   0  0  0  0  0  0
  -18.0369  -26.0011   22.8968 H   0  0  0  0  0  0
  -19.7881  -30.7175   24.2341 H   0  0  0  0  0  0
  -17.4953  -31.6218   24.5100 H   0  0  0  0  0  0
  -15.5315  -30.2923   23.7568 H   0  0  0  0  0  0
  -15.8665  -28.0699   22.7156 H   0  0  0  0  0  0
  -24.6049  -30.6867   25.7338 H   0  0  0  0  0  0
  -24.9315  -32.2230   26.5445 H   0  0  0  0  0  0
  -25.8401  -30.7807   26.9646 H   0  0  0  0  0  0
  -26.3453  -29.6747   24.1158 H   0  0  0  0  0  0
  -27.4817  -29.7716   25.4466 H   0  0  0  0  0  0
  -27.9059  -30.4857   23.9084 H   0  0  0  0  0  0
  -27.2423  -33.3983   26.1676 H   0  0  0  0  0  0
  -28.4003  -32.6825   25.0558 H   0  0  0  0  0  0
  -28.0242  -31.8923   26.5838 H   0  0  0  0  0  0
  -28.2493  -38.0094   24.7472 H   0  0  0  0  0  0
  -28.1093  -36.2603   24.6344 H   0  0  0  0  0  0
  -27.2292  -37.1438   25.8907 H   0  0  0  0  0  0
  -20.9376  -29.8839   21.6848 H   0  0  0  0  0  0
  -26.0066  -38.2740   24.1482 H   0  0  0  0  0  0
  -31.1563  -23.0142   19.3158 H   0  0  0  0  0  0
  -30.7335  -24.7273   19.3420 H   0  0  0  0  0  0
  -29.9764  -23.6574   18.1724 H   0  0  0  0  0  0
  -26.3004  -22.2667   24.4590 H   0  0  0  0  0  0
  -25.9128  -23.7613   23.6227 H   0  0  0  0  0  0
  -25.9125  -23.6970   25.3933 H   0  0  0  0  0  0
  -31.5892  -20.3368   19.5293 H   0  0  0  0  0  0
  -30.3038  -19.6209   18.5743 H   0  0  0  0  0  0
  -31.6595  -18.6279   19.1017 H   0  0  0  0  0  0
  -31.9731  -17.8893   21.3528 H   0  0  0  0  0  0
  -30.9775  -18.4348   22.6805 H   0  0  0  0  0  0
  -32.0541  -19.5585   21.8364 H   0  0  0  0  0  0
  -28.8937  -27.8694   24.6335 H   0  0  0  0  0  0
  -30.1067  -26.8046   25.3345 H   0  0  0  0  0  0
  -29.1193  -27.8091   26.3714 H   0  0  0  0  0  0
  -26.5484  -27.3860   26.5168 H   0  0  0  0  0  0
  -25.8530  -25.9833   25.7276 H   0  0  0  0  0  0
  -26.4447  -27.3242   24.7620 H   0  0  0  0  0  0
  -27.5284  -24.6088   27.1508 H   0  0  0  0  0  0
  -28.3398  -26.0369   27.7626 H   0  0  0  0  0  0
  -29.2693  -24.8213   26.9170 H   0  0  0  0  0  0
  -29.0397  -21.4570   19.1017 H   0  0  0  0  0  0
  -27.7860  -21.7448   20.1887 H   0  0  0  0  0  0
  -30.6572  -21.8439   22.3313 H   0  0  0  0  0  0
  -30.3074  -20.3530   23.1162 H   0  0  0  0  0  0
  -29.6095  -23.5245   23.2368 H   0  0  0  0  0  0
  -28.0454  -23.2619   22.4266 H   0  0  0  0  0  0
  -29.4003  -17.4705   19.2999 H   0  0  0  0  0  0
  -28.4615  -17.7194   20.6987 H   0  0  0  0  0  0
  -27.1876  -24.3815   20.5442 H   0  0  0  0  0  0
  -27.7671  -24.5622   18.9249 H   0  0  0  0  0  0
  -29.6913  -23.6388   21.1454 H   0  0  0  0  0  0
  -28.4124  -20.0439   21.4148 H   0  0  0  0  0  0
  -28.3902  -23.3242   25.4100 H   0  0  0  0  0  0
  -29.0670  -15.8050   21.5065 H   0  0  0  0  0  0
  -29.1659  -21.4199   24.3654 H   0  0  0  0  0  0
  -27.5250  -25.5471   23.6842 H   0  0  0  0  0  0
  -29.0709  -25.2970   24.0485 H   0  0  0  0  0  0
  1 25  1  0  0  0
  1 30  2  0  0  0
  1 88  1  0  0  0
  2  3  1  0  0  0
  2 25  1  0  0  0
  2 91  1  0  0  0
  2 92  1  0  0  0
  3  4  1  0  0  0
  3 93  1  0  0  0
  3 94  1  0  0  0
  4  5  1  0  0  0
  4 95  1  0  0  0
  4 96  1  0  0  0
  5  6  1  0  0  0
  5 26  1  0  0  0
  5 97  1  0  0  0
  6 25  1  0  0  0
  6 98  1  0  0  0
  6 99  1  0  0  0
  7  8  2  0  0  0
  7 26  1  0  0  0
  7 29  1  0  0  0
  8  9  1  0  0  0
  8 22  1  0  0  0
  9 10  1  0  0  0
  9 27  2  0  0  0
 10 11  2  0  0  0
 10 15  1  0  0  0
 11 12  1  0  0  0
 11100  1  0  0  0
 12 13  2  0  0  0
 12101  1  0  0  0
 13 14  1  0  0  0
 13 31  1  0  0  0
 14 15  2  0  0  0
 14102  1  0  0  0
 15103  1  0  0  0
 16 17  2  0  0  0
 16 21  1  0  0  0
 16 31  1  0  0  0
 17 18  1  0  0  0
 17104  1  0  0  0
 18 19  2  0  0  0
 18105  1  0  0  0
 19 20  1  0  0  0
 19 24  1  0  0  0
 20 21  2  0  0  0
 20106  1  0  0  0
 21 23  1  0  0  0
 22 28  1  0  0  0
 22 32  2  0  0  0
 26 27  1  0  0  0
 28107  1  0  0  0
 28108  1  0  0  0
 29109  1  0  0  0
 29110  1  0  0  0
 33 34  1  0  0  0
 33 66  1  0  0  0
 33 70  2  0  0  0
 34 36  1  0  0  0
 34 59  1  0  0  0
 34111  1  0  0  0
 35 44  2  0  0  0
 35 45  1  0  0  0
 35 68  1  0  0  0
 36 56  1  0  0  0
 36112  1  0  0  0
 37 39  1  0  0  0
 37 47  1  0  0  0
 37 66  1  0  0  0
 37113  1  0  0  0
 38 43  2  0  0  0
 38 46  1  0  0  0
 38 47  1  0  0  0
 39 64  1  0  0  0
 39 67  2  0  0  0
 40 52  1  0  0  0
 40 53  2  0  0  0
 40 58  1  0  0  0
 41114  1  0  0  0
 41115  1  0  0  0
 41116  1  0  0  0
 41 48  1  0  0  0
 42 43  1  0  0  0
 42 66  1  0  0  0
 42117  1  0  0  0
 42118  1  0  0  0
 43 44  1  0  0  0
 44119  1  0  0  0
 45 46  2  0  0  0
 45120  1  0  0  0
 46121  1  0  0  0
 47122  1  0  0  0
 47123  1  0  0  0
 48 56  1  0  0  0
 48 65  1  0  0  0
 48124  1  0  0  0
 49 50  1  0  0  0
 49 53  1  0  0  0
 49 64  1  0  0  0
 49125  1  0  0  0
 50 51  1  0  0  0
 50126  1  0  0  0
 50127  1  0  0  0
 51 52  1  0  0  0
 51128  1  0  0  0
 51129  1  0  0  0
 52130  1  0  0  0
 52131  1  0  0  0
 53 54  1  0  0  0
 54 55  2  0  0  0
 54132  1  0  0  0
 55 57  1  0  0  0
 55133  1  0  0  0
 56 69  2  0  0  0
 57 58  2  0  0  0
 57134  1  0  0  0
 58135  1  0  0  0
 59 60  1  0  0  0
 59 61  1  0  0  0
 59 62  1  0  0  0
 60136  1  0  0  0
 60137  1  0  0  0
 60138  1  0  0  0
 61139  1  0  0  0
 61140  1  0  0  0
 61141  1  0  0  0
 62142  1  0  0  0
 62143  1  0  0  0
 62144  1  0  0  0
 63 65  1  0  0  0
 63145  1  0  0  0
 63146  1  0  0  0
 63147  1  0  0  0
 64148  1  0  0  0
 65149  1  0  0  0
 68 82  1  0  0  0
 71150  1  0  0  0
 71151  1  0  0  0
 71152  1  0  0  0
 71 83  1  0  0  0
 72153  1  0  0  0
 72154  1  0  0  0
 72155  1  0  0  0
 72 85  1  0  0  0
 73156  1  0  0  0
 73157  1  0  0  0
 73158  1  0  0  0
 73 86  1  0  0  0
 74 86  1  0  0  0
 74159  1  0  0  0
 74160  1  0  0  0
 74161  1  0  0  0
 75162  1  0  0  0
 75163  1  0  0  0
 75164  1  0  0  0
 75 87  1  0  0  0
 76 87  1  0  0  0
 76165  1  0  0  0
 76166  1  0  0  0
 76167  1  0  0  0
 77 87  1  0  0  0
 77168  1  0  0  0
 77169  1  0  0  0
 77170  1  0  0  0
 78 83  1  0  0  0
 78171  1  0  0  0
 78172  1  0  0  0
 78 84  1  0  0  0
 79 84  1  0  0  0
 79 89  1  0  0  0
 79173  1  0  0  0
 79174  1  0  0  0
 80 85  1  0  0  0
 80 89  1  0  0  0
 80175  1  0  0  0
 80176  1  0  0  0
 81 86  1  0  0  0
 81 88  1  0  0  0
 81177  1  0  0  0
 81178  1  0  0  0
 82 83  1  0  0  0
 82179  1  0  0  0
 82180  1  0  0  0
 83181  1  0  0  0
 84 86  1  0  0  0
 84182  1  0  0  0
 85 90  1  0  0  0
 85183  1  0  0  0
 87 90  1  0  0  0
 88184  1  0  0  0
 89185  1  0  0  0
 90186  1  0  0  0
 90187  1  0  0  0
M  CHG  1  90   1
M  ISO  4   1 100  68 101  82 101  88 100
M  END
> <chiral flag>
0

> <version>
0

> <s_m_source_file>
/data/baiqing/PycharmProjects/Reinvent-master-3.2/result/LINK_invent/BTK/process_docking_weight1_custom_sum_contain_oxygen_bond_distance_aromatic_linkinvent_7_9_3/rearranged_h_0101.sdf

> <i_m_source_file_index>
100

> <r_mmod_Potential_Energy-OPLS-2005>
597.76318359375

> <r_mmod_Stretch_Energy-OPLS-2005>
310.485198974609

> <r_mmod_Bend_Energy-OPLS-2005>
363.663299560547

> <r_mmod_Torsional_Energy-OPLS-2005>
340.519134521484

> <r_mmod_Improper_Torsional_Energy-OPLS-2005>
4.57014036178589

> <r_mmod_Van_der_Waal_Energy-OPLS-2005>
119.39427947998

> <r_mmod_Electrostatic_Energy-OPLS-2005>
-306.732940673828

> <r_mmod_Solvation_Energy-OPLS-2005>
-424.342254638672

> <b_mmod_Minimization_Converged-OPLS-2005>
0

> <r_mmod_RMS_Derivative-OPLS-2005>
6.54436779022217

$$$$
