0
                    3D
 Structure written by MMmdl.
158166  0  0  1  0            999 V2000
  -30.4044  -15.2990   20.4028 C   0  0  0  0  0  0
  -30.4286  -12.8232   19.5595 C   0  0  0  0  0  0
  -29.5367  -12.6106   18.3074 C   0  0  0  0  0  0
  -28.0851  -12.3111   18.7156 C   0  0  0  0  0  0
  -27.6083  -13.2759   19.8260 C   0  0  2  0  0  0
  -28.6276  -13.4298   20.9718 C   0  0  0  0  0  0
  -25.2365  -13.8255   20.5726 C   0  0  0  0  0  0
  -24.1716  -13.0440   20.9246 C   0  0  0  0  0  0
  -24.6385  -11.6945   20.8755 C   0  0  0  0  0  0
  -23.9085  -10.4297   21.0414 C   0  0  0  0  0  0
  -24.3638   -9.4203   21.9186 C   0  0  0  0  0  0
  -23.6308   -8.2239   22.0749 C   0  0  0  0  0  0
  -22.4290   -8.0296   21.3542 C   0  0  0  0  0  0
  -21.9931   -9.0261   20.4640 C   0  0  0  0  0  0
  -22.7257  -10.2139   20.3050 C   0  0  0  0  0  0
  -21.6869   -6.0743   22.5282 C   0  0  0  0  0  0
  -21.4031   -6.5651   23.8217 C   0  0  0  0  0  0
  -21.3653   -5.6804   24.9178 C   0  0  0  0  0  0
  -21.6047   -4.3060   24.7232 C   0  0  0  0  0  0
  -21.8808   -3.8152   23.4350 C   0  0  0  0  0  0
  -21.9188   -4.6968   22.3410 C   0  0  0  0  0  0
  -22.7742  -13.5193   21.1926 C   0  0  0  0  0  0
  -22.1659   -4.2154   21.0988 F   0  0  0  0  0  0
  -21.5613   -3.4550   25.7740 F   0  0  0  0  0  0
  -29.8706  -13.9663   20.3876 N   0  0  0  0  0  0
  -26.2775  -12.9516   20.3177 N   0  0  0  0  0  0
  -25.9314  -11.6616   20.5691 N   0  0  0  0  0  0
  -22.0441  -12.8138   22.0492 N   0  0  0  0  0  0
  -25.4047  -15.1977   20.4183 N   0  0  0  0  0  0
  -31.5924  -15.2790   20.0437 O   0  0  0  0  0  0
  -21.6648   -6.8890   21.4249 O   0  0  0  0  0  0
  -22.3408  -14.5495   20.6799 O   0  0  0  0  0  0
  -24.6626  -31.8232   23.1723 C   0  0  0  0  0  0
  -25.9314  -32.4576   23.8183 C   0  0  1  0  0  0
  -27.2104  -26.9128   20.1837 C   0  0  0  0  0  0
  -25.5996  -33.8399   24.2085 N   0  0  0  0  0  0
  -23.4784  -30.4356   21.5204 C   0  0  2  0  0  0
  -24.9339  -28.8277   20.1052 C   0  0  0  0  0  0
  -22.7662  -29.4446   22.4780 C   0  0  0  0  0  0
  -18.0315  -28.1443   22.8452 C   0  0  0  0  0  0
  -24.1499  -36.7188   23.2642 C   0  0  0  0  0  0
  -26.0484  -30.6211   21.4121 C   0  0  0  0  0  0
  -26.1128  -29.2120   20.7539 C   0  0  0  0  0  0
  -27.2414  -28.2727   20.7765 C   0  0  0  0  0  0
  -26.0112  -26.7000   19.4612 C   0  0  0  0  0  0
  -24.9099  -27.5935   19.4374 C   0  0  0  0  0  0
  -23.7210  -29.7570   20.1436 C   0  0  0  0  0  0
  -25.4143  -36.2949   24.0284 C   0  0  1  0  0  0
  -20.5932  -28.3789   23.1200 C   0  0  2  0  0  0
  -20.6810  -26.9477   22.5411 C   0  0  0  0  0  0
  -19.5786  -26.6395   21.5233 C   0  0  0  0  0  0
  -18.1954  -26.7971   22.1624 C   0  0  0  0  0  0
  -19.1570  -28.8943   23.2799 C   0  0  0  0  0  0
  -18.9467  -30.1528   23.8843 C   0  0  0  0  0  0
  -17.6457  -30.6616   24.0562 C   0  0  0  0  0  0
  -25.9103  -34.9338   23.4998 C   0  0  0  0  0  0
  -16.5354  -29.9085   23.6352 C   0  0  0  0  0  0
  -16.7292  -28.6532   23.0339 C   0  0  0  0  0  0
  -26.4575  -31.6534   25.0718 C   0  0  0  0  0  0
  -25.3696  -31.3785   26.1363 C   0  0  0  0  0  0
  -27.0474  -30.2898   24.6475 C   0  0  0  0  0  0
  -27.6065  -32.4350   25.7510 C   0  0  0  0  0  0
  -27.5566  -37.1752   24.8466 C   0  0  0  0  0  0
  -21.4330  -29.3059   22.3536 N   0  0  0  0  0  0
  -26.4276  -37.3692   23.9402 N   0  0  0  0  0  0
  -24.7506  -30.9880   22.0877 N   0  0  0  0  0  0
  -23.4196  -28.8028   23.3033 O   0  0  0  0  0  0
  -28.1802  -25.7763   20.3260 O   0  0  0  0  0  0
  -26.5711  -34.8876   22.4592 O   0  0  0  0  0  0
  -23.5697  -32.1230   23.6811 O   0  0  0  0  0  0
  -29.3073  -21.4461   19.9002 C   0  0  0  0  0  0
  -28.4654  -22.5868   20.2930 C   0  0  0  0  0  0
  -27.8175  -20.4671   21.1179 C   0  0  0  0  0  0
  -24.7863  -20.2194   20.2154 C   0  0  0  0  0  0
  -28.8004  -16.7051   22.0550 C   0  0  0  0  0  0
  -28.0335  -24.2205   19.7841 C   0  0  0  0  0  0
  -26.7825  -19.5849   21.7508 C   0  0  0  0  0  0
  -25.6827  -19.1013   20.7813 C   0  0  0  0  0  0
  -29.4405  -18.4786   20.0137 C   0  0  0  0  0  0
  -29.7471  -16.8944   20.8662 C   0  0  2  0  0  0
  -28.9297  -20.0995   20.4091 N   0  0  0  0  0  0
  -27.6203  -21.8336   21.0930 N   0  3  0  0  0  0
  -31.4535  -13.0084   19.2420 H   0  0  0  0  0  0
  -30.4820  -11.9050   20.1504 H   0  0  0  0  0  0
  -29.9270  -11.8045   17.6868 H   0  0  0  0  0  0
  -29.5612  -13.5121   17.6914 H   0  0  0  0  0  0
  -28.0452  -11.2837   19.0805 H   0  0  0  0  0  0
  -27.4206  -12.3548   17.8515 H   0  0  0  0  0  0
  -27.5313  -14.2500   19.3398 H   0  0  0  0  0  0
  -28.7916  -12.4802   21.4844 H   0  0  0  0  0  0
  -28.2203  -14.1012   21.7213 H   0  0  0  0  0  0
  -25.2779   -9.5688   22.4766 H   0  0  0  0  0  0
  -24.0019   -7.4631   22.7464 H   0  0  0  0  0  0
  -21.0859   -8.8770   19.8952 H   0  0  0  0  0  0
  -22.3700  -10.9678   19.6161 H   0  0  0  0  0  0
  -21.2046   -7.6163   23.9720 H   0  0  0  0  0  0
  -21.1487   -6.0541   25.9078 H   0  0  0  0  0  0
  -22.0592   -2.7618   23.2851 H   0  0  0  0  0  0
  -22.4108  -11.9767   22.4783 H   0  0  0  0  0  0
  -21.1072  -13.1128   22.2789 H   0  0  0  0  0  0
  -24.6374  -15.8524   20.5155 H   0  0  0  0  0  0
  -26.2578  -15.6298   20.0927 H   0  0  0  0  0  0
  -26.7381  -32.5114   23.0891 H   0  0  0  0  0  0
  -25.0111  -33.9492   25.0211 H   0  0  0  0  0  0
  -22.7902  -31.2663   21.3528 H   0  0  0  0  0  0
  -23.3774  -35.9505   23.3284 H   0  0  0  0  0  0
  -24.3568  -36.8861   22.2061 H   0  0  0  0  0  0
  -23.7257  -37.6365   23.6721 H   0  0  0  0  0  0
  -26.2358  -31.3617   20.6342 H   0  0  0  0  0  0
  -26.9057  -30.6747   22.0698 H   0  0  0  0  0  0
  -28.1233  -28.5554   21.3339 H   0  0  0  0  0  0
  -25.8691  -25.7706   18.9337 H   0  0  0  0  0  0
  -24.0189  -27.3026   18.8977 H   0  0  0  0  0  0
  -23.8761  -30.5300   19.3910 H   0  0  0  0  0  0
  -22.8320  -29.2109   19.8237 H   0  0  0  0  0  0
  -25.1350  -36.1727   25.0770 H   0  0  0  0  0  0
  -20.9984  -28.3408   24.1333 H   0  0  0  0  0  0
  -20.5745  -26.2417   23.3650 H   0  0  0  0  0  0
  -21.6666  -26.7505   22.1198 H   0  0  0  0  0  0
  -19.6945  -25.6287   21.1303 H   0  0  0  0  0  0
  -19.6721  -27.3172   20.6742 H   0  0  0  0  0  0
  -17.4239  -26.6697   21.4025 H   0  0  0  0  0  0
  -18.0347  -26.0154   22.9059 H   0  0  0  0  0  0
  -19.7934  -30.7355   24.2186 H   0  0  0  0  0  0
  -17.4980  -31.6271   24.5204 H   0  0  0  0  0  0
  -15.5348  -30.2957   23.7722 H   0  0  0  0  0  0
  -15.8680  -28.0855   22.7077 H   0  0  0  0  0  0
  -24.5898  -30.7114   25.7678 H   0  0  0  0  0  0
  -24.8857  -32.2975   26.4667 H   0  0  0  0  0  0
  -25.7916  -30.9038   27.0225 H   0  0  0  0  0  0
  -26.3151  -29.6566   24.1456 H   0  0  0  0  0  0
  -27.3969  -29.7270   25.5141 H   0  0  0  0  0  0
  -27.9114  -30.4084   23.9936 H   0  0  0  0  0  0
  -27.2647  -33.3703   26.1956 H   0  0  0  0  0  0
  -28.3941  -32.6825   25.0380 H   0  0  0  0  0  0
  -28.0664  -31.8561   26.5527 H   0  0  0  0  0  0
  -28.2566  -38.0063   24.7501 H   0  0  0  0  0  0
  -28.1078  -36.2585   24.6311 H   0  0  0  0  0  0
  -27.2270  -37.1415   25.8865 H   0  0  0  0  0  0
  -20.9609  -29.8683   21.6600 H   0  0  0  0  0  0
  -26.0115  -38.2738   24.1424 H   0  0  0  0  0  0
  -30.1169  -21.5017   19.1876 H   0  0  0  0  0  0
  -24.0554  -19.8084   19.5168 H   0  0  0  0  0  0
  -25.3486  -20.9773   19.6693 H   0  0  0  0  0  0
  -24.2325  -20.7236   21.0089 H   0  0  0  0  0  0
  -28.8993  -17.5335   22.7530 H   0  0  0  0  0  0
  -29.0618  -15.8271   22.6440 H   0  0  0  0  0  0
  -27.7614  -16.6071   21.7372 H   0  0  0  0  0  0
  -26.9629  -24.1148   19.6296 H   0  0  0  0  0  0
  -28.4310  -24.2903   18.7717 H   0  0  0  0  0  0
  -26.3440  -20.1482   22.5761 H   0  0  0  0  0  0
  -27.2902  -18.7546   22.2142 H   0  0  0  0  0  0
  -26.1331  -18.5469   19.9570 H   0  0  0  0  0  0
  -25.0478  -18.3874   21.3077 H   0  0  0  0  0  0
  -30.3419  -18.6461   19.4248 H   0  0  0  0  0  0
  -28.7068  -18.1958   19.2589 H   0  0  0  0  0  0
  -30.6547  -17.2069   21.3828 H   0  0  0  0  0  0
  -26.8216  -22.2550   21.5511 H   0  0  0  0  0  0
  1 25  1  0  0  0
  1 30  2  0  0  0
  1 80  1  0  0  0
  2  3  1  0  0  0
  2 25  1  0  0  0
  2 83  1  0  0  0
  2 84  1  0  0  0
  3  4  1  0  0  0
  3 85  1  0  0  0
  3 86  1  0  0  0
  4  5  1  0  0  0
  4 87  1  0  0  0
  4 88  1  0  0  0
  5  6  1  0  0  0
  5 26  1  0  0  0
  5 89  1  0  0  0
  6 25  1  0  0  0
  6 90  1  0  0  0
  6 91  1  0  0  0
  7  8  2  0  0  0
  7 26  1  0  0  0
  7 29  1  0  0  0
  8  9  1  0  0  0
  8 22  1  0  0  0
  9 10  1  0  0  0
  9 27  2  0  0  0
 10 11  2  0  0  0
 10 15  1  0  0  0
 11 12  1  0  0  0
 11 92  1  0  0  0
 12 13  2  0  0  0
 12 93  1  0  0  0
 13 14  1  0  0  0
 13 31  1  0  0  0
 14 15  2  0  0  0
 14 94  1  0  0  0
 15 95  1  0  0  0
 16 17  2  0  0  0
 16 21  1  0  0  0
 16 31  1  0  0  0
 17 18  1  0  0  0
 17 96  1  0  0  0
 18 19  2  0  0  0
 18 97  1  0  0  0
 19 20  1  0  0  0
 19 24  1  0  0  0
 20 21  2  0  0  0
 20 98  1  0  0  0
 21 23  1  0  0  0
 22 28  1  0  0  0
 22 32  2  0  0  0
 26 27  1  0  0  0
 28 99  1  0  0  0
 28100  1  0  0  0
 29101  1  0  0  0
 29102  1  0  0  0
 33 34  1  0  0  0
 33 66  1  0  0  0
 33 70  2  0  0  0
 34 36  1  0  0  0
 34 59  1  0  0  0
 34103  1  0  0  0
 35 44  2  0  0  0
 35 45  1  0  0  0
 35 68  1  0  0  0
 36 56  1  0  0  0
 36104  1  0  0  0
 37 39  1  0  0  0
 37 47  1  0  0  0
 37 66  1  0  0  0
 37105  1  0  0  0
 38 43  2  0  0  0
 38 46  1  0  0  0
 38 47  1  0  0  0
 39 64  1  0  0  0
 39 67  2  0  0  0
 40 52  1  0  0  0
 40 53  2  0  0  0
 40 58  1  0  0  0
 41106  1  0  0  0
 41107  1  0  0  0
 41108  1  0  0  0
 41 48  1  0  0  0
 42 43  1  0  0  0
 42 66  1  0  0  0
 42109  1  0  0  0
 42110  1  0  0  0
 43 44  1  0  0  0
 44111  1  0  0  0
 45 46  2  0  0  0
 45112  1  0  0  0
 46113  1  0  0  0
 47114  1  0  0  0
 47115  1  0  0  0
 48 56  1  0  0  0
 48 65  1  0  0  0
 48116  1  0  0  0
 49 50  1  0  0  0
 49 53  1  0  0  0
 49 64  1  0  0  0
 49117  1  0  0  0
 50 51  1  0  0  0
 50118  1  0  0  0
 50119  1  0  0  0
 51 52  1  0  0  0
 51120  1  0  0  0
 51121  1  0  0  0
 52122  1  0  0  0
 52123  1  0  0  0
 53 54  1  0  0  0
 54 55  2  0  0  0
 54124  1  0  0  0
 55 57  1  0  0  0
 55125  1  0  0  0
 56 69  2  0  0  0
 57 58  2  0  0  0
 57126  1  0  0  0
 58127  1  0  0  0
 59 60  1  0  0  0
 59 61  1  0  0  0
 59 62  1  0  0  0
 60128  1  0  0  0
 60129  1  0  0  0
 60130  1  0  0  0
 61131  1  0  0  0
 61132  1  0  0  0
 61133  1  0  0  0
 62134  1  0  0  0
 62135  1  0  0  0
 62136  1  0  0  0
 63 65  1  0  0  0
 63137  1  0  0  0
 63138  1  0  0  0
 63139  1  0  0  0
 64140  1  0  0  0
 65141  1  0  0  0
 68 76  1  0  0  0
 71 72  2  0  0  0
 71 81  1  0  0  0
 71142  1  0  0  0
 72 76  1  0  0  0
 72 82  1  0  0  0
 73 77  1  0  0  0
 73 81  1  0  0  0
 73 82  2  0  0  0
 74 78  1  0  0  0
 74143  1  0  0  0
 74144  1  0  0  0
 74145  1  0  0  0
 75146  1  0  0  0
 75147  1  0  0  0
 75148  1  0  0  0
 75 80  1  0  0  0
 76149  1  0  0  0
 76150  1  0  0  0
 77 78  1  0  0  0
 77151  1  0  0  0
 77152  1  0  0  0
 78153  1  0  0  0
 78154  1  0  0  0
 79 80  1  0  0  0
 79 81  1  0  0  0
 79155  1  0  0  0
 79156  1  0  0  0
 80157  1  0  0  0
 82158  1  0  0  0
M  CHG  1  82   1
M  ISO  4   1 100  68 101  76 101  80 100
M  END
> <chiral flag>
0

> <version>
0

> <s_m_source_file>
/data/baiqing/PycharmProjects/Reinvent-master-3.2/result/LINK_invent/BTK/process_docking_weight1_custom_sum_contain_oxygen_bond_distance_aromatic_linkinvent_7_9_3/rearranged_h_0061.sdf

> <i_m_source_file_index>
1

> <r_mmod_Potential_Energy-OPLS-2005>
1396.63366699219

> <r_mmod_Stretch_Energy-OPLS-2005>
648.970581054688

> <r_mmod_Bend_Energy-OPLS-2005>
514.580383300781

> <r_mmod_Torsional_Energy-OPLS-2005>
222.492034912109

> <r_mmod_Improper_Torsional_Energy-OPLS-2005>
7.15454006195068

> <r_mmod_Van_der_Waal_Energy-OPLS-2005>
108.073905944824

> <r_mmod_Electrostatic_Energy-OPLS-2005>
-185.626113891602

> <r_mmod_Solvation_Energy-OPLS-2005>
-406.862426757812

> <b_mmod_Minimization_Converged-OPLS-2005>
0

> <r_mmod_RMS_Derivative-OPLS-2005>
2.63577914237976

$$$$
1
                    3D
 Structure written by MMmdl.
162170  0  0  1  0            999 V2000
  -30.6727  -14.6856   20.5417 C   0  0  0  0  0  0
  -30.4329  -12.4349   19.4768 C   0  0  0  0  0  0
  -29.5121  -12.5245   18.2395 C   0  0  0  0  0  0
  -28.0372  -12.3578   18.6478 C   0  0  0  0  0  0
  -27.6556  -13.2352   19.8687 C   0  0  2  0  0  0
  -28.6983  -13.1279   21.0051 C   0  0  0  0  0  0
  -25.2575  -13.8215   20.5705 C   0  0  0  0  0  0
  -24.1848  -13.0462   20.9171 C   0  0  0  0  0  0
  -24.6428  -11.6930   20.8709 C   0  0  0  0  0  0
  -23.9082  -10.4313   21.0393 C   0  0  0  0  0  0
  -24.3636   -9.4222   21.9171 C   0  0  0  0  0  0
  -23.6304   -8.2268   22.0746 C   0  0  0  0  0  0
  -22.4271   -8.0311   21.3549 C   0  0  0  0  0  0
  -21.9924   -9.0278   20.4640 C   0  0  0  0  0  0
  -22.7262  -10.2150   20.3047 C   0  0  0  0  0  0
  -21.6859   -6.0750   22.5269 C   0  0  0  0  0  0
  -21.4015   -6.5644   23.8203 C   0  0  0  0  0  0
  -21.3664   -5.6791   24.9163 C   0  0  0  0  0  0
  -21.6053   -4.3063   24.7212 C   0  0  0  0  0  0
  -21.8817   -3.8154   23.4330 C   0  0  0  0  0  0
  -21.9196   -4.6971   22.3388 C   0  0  0  0  0  0
  -22.7873  -13.5243   21.1854 C   0  0  0  0  0  0
  -22.1673   -4.2166   21.0965 F   0  0  0  0  0  0
  -21.5633   -3.4538   25.7728 F   0  0  0  0  0  0
  -30.0131  -13.4772   20.4438 N   0  0  0  0  0  0
  -26.3021  -12.9422   20.3350 N   0  0  0  0  0  0
  -25.9371  -11.6558   20.5752 N   0  0  0  0  0  0
  -22.0538  -12.8196   22.0408 N   0  0  0  0  0  0
  -25.4288  -15.1926   20.4138 N   0  0  0  0  0  0
  -31.7719  -14.8288   19.9966 O   0  0  0  0  0  0
  -21.6654   -6.8887   21.4235 O   0  0  0  0  0  0
  -22.3530  -14.5542   20.6724 O   0  0  0  0  0  0
  -24.6322  -31.8528   23.1993 C   0  0  0  0  0  0
  -25.9142  -32.4743   23.8318 C   0  0  1  0  0  0
  -27.2166  -27.2655   20.1405 C   0  0  0  0  0  0
  -25.5923  -33.8555   24.2238 N   0  0  0  0  0  0
  -23.4272  -30.4771   21.5428 C   0  0  2  0  0  0
  -24.8756  -28.9263   20.1114 C   0  0  0  0  0  0
  -22.7480  -29.4590   22.4922 C   0  0  0  0  0  0
  -18.0297  -28.1354   22.8462 C   0  0  0  0  0  0
  -24.1497  -36.7284   23.2653 C   0  0  0  0  0  0
  -25.9739  -30.7644   21.3848 C   0  0  0  0  0  0
  -26.0459  -29.3897   20.7280 C   0  0  0  0  0  0
  -27.2199  -28.5696   20.7365 C   0  0  0  0  0  0
  -26.0334  -26.8853   19.4670 C   0  0  0  0  0  0
  -24.8772  -27.6813   19.4688 C   0  0  0  0  0  0
  -23.6428  -29.8083   20.1612 C   0  0  0  0  0  0
  -25.4123  -36.3068   24.0342 C   0  0  1  0  0  0
  -20.5894  -28.3676   23.1244 C   0  0  2  0  0  0
  -20.6786  -26.9383   22.5396 C   0  0  0  0  0  0
  -19.5764  -26.6340   21.5194 C   0  0  0  0  0  0
  -18.1935  -26.7904   22.1582 C   0  0  0  0  0  0
  -19.1546  -28.8840   23.2859 C   0  0  0  0  0  0
  -18.9483  -30.1439   23.8861 C   0  0  0  0  0  0
  -17.6480  -30.6572   24.0563 C   0  0  0  0  0  0
  -25.9044  -34.9432   23.5087 C   0  0  0  0  0  0
  -16.5377  -29.9062   23.6373 C   0  0  0  0  0  0
  -16.7295  -28.6475   23.0356 C   0  0  0  0  0  0
  -26.4521  -31.6581   25.0718 C   0  0  0  0  0  0
  -25.3732  -31.3693   26.1416 C   0  0  0  0  0  0
  -27.0429  -30.3024   24.6217 C   0  0  0  0  0  0
  -27.6078  -32.4333   25.7466 C   0  0  0  0  0  0
  -27.5584  -37.1788   24.8471 C   0  0  0  0  0  0
  -21.4188  -29.3052   22.3647 N   0  0  0  0  0  0
  -26.4302  -37.3766   23.9432 N   0  0  0  0  0  0
  -24.6965  -31.0487   22.0981 N   0  0  0  0  0  0
  -23.4153  -28.8106   23.3013 O   0  0  0  0  0  0
  -28.2914  -26.3498   20.2040 O   0  0  0  0  0  0
  -26.5589  -34.8921   22.4632 O   0  0  0  0  0  0
  -23.5462  -32.1328   23.7297 O   0  0  0  0  0  0
  -27.7616  -17.5397   21.7576 C   0  0  0  0  0  0
  -26.8992  -18.5953   22.1330 C   0  0  0  0  0  0
  -28.8366  -18.1028   21.1230 C   0  0  0  0  0  0
  -29.5084  -20.6218   19.0440 C   0  0  0  0  0  0
  -30.2628  -15.7753   22.6242 C   0  0  0  0  0  0
  -30.0112  -17.2017   20.6166 C   0  0  0  0  0  0
  -28.9700  -23.6739   20.3606 C   0  0  0  0  0  0
  -28.4248  -22.2033   20.7750 C   0  0  0  0  0  0
  -27.9645  -24.9222   20.5572 C   0  0  0  0  0  0
  -29.2292  -20.7962   20.5424 C   0  0  1  0  0  0
  -25.5911  -18.4781   22.9014 C   0  0  0  0  0  0
  -27.3784  -19.7610   21.7182 N   0  0  0  0  0  0
  -28.5581  -19.5303   21.0783 N   0  0  0  0  0  0
  -30.0657  -15.7639   21.1649 N   0  0  0  0  0  0
  -25.3743  -17.2027   23.2308 F   0  0  0  0  0  0
  -25.6451  -19.1939   24.0237 F   0  0  0  0  0  0
  -24.5606  -18.9062   22.1686 F   0  0  0  0  0  0
  -31.4769  -12.5398   19.1777 H   0  0  0  0  0  0
  -30.3637  -11.4475   19.9353 H   0  0  0  0  0  0
  -29.7854  -11.7601   17.5108 H   0  0  0  0  0  0
  -29.6515  -13.4873   17.7447 H   0  0  0  0  0  0
  -27.8778  -11.3049   18.8845 H   0  0  0  0  0  0
  -27.3848  -12.5818   17.8042 H   0  0  0  0  0  0
  -27.6663  -14.2686   19.5205 H   0  0  0  0  0  0
  -28.7188  -12.1162   21.4116 H   0  0  0  0  0  0
  -28.4226  -13.7784   21.8344 H   0  0  0  0  0  0
  -25.2797   -9.5722   22.4729 H   0  0  0  0  0  0
  -24.0030   -7.4669   22.7462 H   0  0  0  0  0  0
  -21.0865   -8.8803   19.8933 H   0  0  0  0  0  0
  -22.3725  -10.9704   19.6146 H   0  0  0  0  0  0
  -21.1990   -7.6150   23.9709 H   0  0  0  0  0  0
  -21.1495   -6.0522   25.9068 H   0  0  0  0  0  0
  -22.0580   -2.7614   23.2823 H   0  0  0  0  0  0
  -22.4202  -11.9860   22.4749 H   0  0  0  0  0  0
  -21.1157  -13.1214   22.2651 H   0  0  0  0  0  0
  -24.6615  -15.8457   20.5158 H   0  0  0  0  0  0
  -26.2824  -15.6262   20.0874 H   0  0  0  0  0  0
  -26.7198  -32.5378   23.1038 H   0  0  0  0  0  0
  -25.0253  -33.9725   25.0507 H   0  0  0  0  0  0
  -22.7296  -31.3038   21.3921 H   0  0  0  0  0  0
  -23.3774  -35.9587   23.3267 H   0  0  0  0  0  0
  -24.3627  -36.8939   22.2075 H   0  0  0  0  0  0
  -23.7213  -37.6463   23.6707 H   0  0  0  0  0  0
  -26.1149  -31.5216   20.6113 H   0  0  0  0  0  0
  -26.8532  -30.8107   22.0155 H   0  0  0  0  0  0
  -28.1115  -28.9102   21.2468 H   0  0  0  0  0  0
  -25.9711  -25.9465   18.9382 H   0  0  0  0  0  0
  -23.9909  -27.3200   18.9666 H   0  0  0  0  0  0
  -23.7558  -30.5803   19.3992 H   0  0  0  0  0  0
  -22.7637  -29.2340   19.8648 H   0  0  0  0  0  0
  -25.1292  -36.1919   25.0834 H   0  0  0  0  0  0
  -21.0029  -28.3269   24.1349 H   0  0  0  0  0  0
  -20.5699  -26.2283   23.3614 H   0  0  0  0  0  0
  -21.6658  -26.7407   22.1166 H   0  0  0  0  0  0
  -19.6959  -25.6234   21.1255 H   0  0  0  0  0  0
  -19.6743  -27.3143   20.6713 H   0  0  0  0  0  0
  -17.4225  -26.6699   21.3962 H   0  0  0  0  0  0
  -18.0313  -26.0027   22.8958 H   0  0  0  0  0  0
  -19.7967  -30.7264   24.2175 H   0  0  0  0  0  0
  -17.5050  -31.6263   24.5113 H   0  0  0  0  0  0
  -15.5382  -30.2925   23.7732 H   0  0  0  0  0  0
  -15.8700  -28.0807   22.7077 H   0  0  0  0  0  0
  -24.5981  -30.6959   25.7731 H   0  0  0  0  0  0
  -24.8831  -32.2833   26.4796 H   0  0  0  0  0  0
  -25.8030  -30.8918   27.0230 H   0  0  0  0  0  0
  -26.3042  -29.6676   24.1311 H   0  0  0  0  0  0
  -27.4237  -29.7383   25.4740 H   0  0  0  0  0  0
  -27.8828  -30.4347   23.9389 H   0  0  0  0  0  0
  -27.2747  -33.3722   26.1905 H   0  0  0  0  0  0
  -28.3933  -32.6737   25.0284 H   0  0  0  0  0  0
  -28.0673  -31.8520   26.5470 H   0  0  0  0  0  0
  -28.2553  -38.0126   24.7571 H   0  0  0  0  0  0
  -28.1117  -36.2663   24.6214 H   0  0  0  0  0  0
  -27.2320  -37.1326   25.8871 H   0  0  0  0  0  0
  -20.9364  -29.8782   21.6878 H   0  0  0  0  0  0
  -26.0163  -38.2838   24.1432 H   0  0  0  0  0  0
  -27.6010  -16.4909   21.9600 H   0  0  0  0  0  0
  -30.1497  -21.4209   18.6734 H   0  0  0  0  0  0
  -28.5820  -20.6442   18.4705 H   0  0  0  0  0  0
  -30.0112  -19.6797   18.8288 H   0  0  0  0  0  0
  -29.3559  -15.4747   23.1478 H   0  0  0  0  0  0
  -30.5347  -16.7673   22.9869 H   0  0  0  0  0  0
  -31.0676  -15.1115   22.9534 H   0  0  0  0  0  0
  -30.9636  -17.6913   20.8249 H   0  0  0  0  0  0
  -29.9589  -17.1461   19.5305 H   0  0  0  0  0  0
  -29.2689  -23.6522   19.3122 H   0  0  0  0  0  0
  -29.8849  -23.8732   20.9165 H   0  0  0  0  0  0
  -27.4592  -22.0929   20.2789 H   0  0  0  0  0  0
  -28.1808  -22.2678   21.8374 H   0  0  0  0  0  0
  -27.6745  -24.9357   21.6091 H   0  0  0  0  0  0
  -27.0628  -24.6092   20.0387 H   0  0  0  0  0  0
  -30.1887  -20.8720   21.0540 H   0  0  0  0  0  0
  1 25  1  0  0  0
  1 30  2  0  0  0
  1 84  1  0  0  0
  2  3  1  0  0  0
  2 25  1  0  0  0
  2 88  1  0  0  0
  2 89  1  0  0  0
  3  4  1  0  0  0
  3 90  1  0  0  0
  3 91  1  0  0  0
  4  5  1  0  0  0
  4 92  1  0  0  0
  4 93  1  0  0  0
  5  6  1  0  0  0
  5 26  1  0  0  0
  5 94  1  0  0  0
  6 25  1  0  0  0
  6 95  1  0  0  0
  6 96  1  0  0  0
  7  8  2  0  0  0
  7 26  1  0  0  0
  7 29  1  0  0  0
  8  9  1  0  0  0
  8 22  1  0  0  0
  9 10  1  0  0  0
  9 27  2  0  0  0
 10 11  2  0  0  0
 10 15  1  0  0  0
 11 12  1  0  0  0
 11 97  1  0  0  0
 12 13  2  0  0  0
 12 98  1  0  0  0
 13 14  1  0  0  0
 13 31  1  0  0  0
 14 15  2  0  0  0
 14 99  1  0  0  0
 15100  1  0  0  0
 16 17  2  0  0  0
 16 21  1  0  0  0
 16 31  1  0  0  0
 17 18  1  0  0  0
 17101  1  0  0  0
 18 19  2  0  0  0
 18102  1  0  0  0
 19 20  1  0  0  0
 19 24  1  0  0  0
 20 21  2  0  0  0
 20103  1  0  0  0
 21 23  1  0  0  0
 22 28  1  0  0  0
 22 32  2  0  0  0
 26 27  1  0  0  0
 28104  1  0  0  0
 28105  1  0  0  0
 29106  1  0  0  0
 29107  1  0  0  0
 33 34  1  0  0  0
 33 66  1  0  0  0
 33 70  2  0  0  0
 34 36  1  0  0  0
 34 59  1  0  0  0
 34108  1  0  0  0
 35 44  2  0  0  0
 35 45  1  0  0  0
 35 68  1  0  0  0
 36 56  1  0  0  0
 36109  1  0  0  0
 37 39  1  0  0  0
 37 47  1  0  0  0
 37 66  1  0  0  0
 37110  1  0  0  0
 38 43  2  0  0  0
 38 46  1  0  0  0
 38 47  1  0  0  0
 39 64  1  0  0  0
 39 67  2  0  0  0
 40 52  1  0  0  0
 40 53  2  0  0  0
 40 58  1  0  0  0
 41111  1  0  0  0
 41112  1  0  0  0
 41113  1  0  0  0
 41 48  1  0  0  0
 42 43  1  0  0  0
 42 66  1  0  0  0
 42114  1  0  0  0
 42115  1  0  0  0
 43 44  1  0  0  0
 44116  1  0  0  0
 45 46  2  0  0  0
 45117  1  0  0  0
 46118  1  0  0  0
 47119  1  0  0  0
 47120  1  0  0  0
 48 56  1  0  0  0
 48 65  1  0  0  0
 48121  1  0  0  0
 49 50  1  0  0  0
 49 53  1  0  0  0
 49 64  1  0  0  0
 49122  1  0  0  0
 50 51  1  0  0  0
 50123  1  0  0  0
 50124  1  0  0  0
 51 52  1  0  0  0
 51125  1  0  0  0
 51126  1  0  0  0
 52127  1  0  0  0
 52128  1  0  0  0
 53 54  1  0  0  0
 54 55  2  0  0  0
 54129  1  0  0  0
 55 57  1  0  0  0
 55130  1  0  0  0
 56 69  2  0  0  0
 57 58  2  0  0  0
 57131  1  0  0  0
 58132  1  0  0  0
 59 60  1  0  0  0
 59 61  1  0  0  0
 59 62  1  0  0  0
 60133  1  0  0  0
 60134  1  0  0  0
 60135  1  0  0  0
 61136  1  0  0  0
 61137  1  0  0  0
 61138  1  0  0  0
 62139  1  0  0  0
 62140  1  0  0  0
 62141  1  0  0  0
 63 65  1  0  0  0
 63142  1  0  0  0
 63143  1  0  0  0
 63144  1  0  0  0
 64145  1  0  0  0
 65146  1  0  0  0
 68 79  1  0  0  0
 71 72  1  0  0  0
 71 73  2  0  0  0
 71147  1  0  0  0
 72 81  1  0  0  0
 72 82  2  0  0  0
 73 76  1  0  0  0
 73 83  1  0  0  0
 74148  1  0  0  0
 74149  1  0  0  0
 74150  1  0  0  0
 74 80  1  0  0  0
 75 84  1  0  0  0
 75151  1  0  0  0
 75152  1  0  0  0
 75153  1  0  0  0
 76 84  1  0  0  0
 76154  1  0  0  0
 76155  1  0  0  0
 77 78  1  0  0  0
 77 79  1  0  0  0
 77156  1  0  0  0
 77157  1  0  0  0
 78 80  1  0  0  0
 78158  1  0  0  0
 78159  1  0  0  0
 79160  1  0  0  0
 79161  1  0  0  0
 80 83  1  0  0  0
 80162  1  0  0  0
 81 85  1  0  0  0
 81 86  1  0  0  0
 81 87  1  0  0  0
 82 83  1  0  0  0
M  ISO  4   1 100  68 101  79 101  84 100
M  END
> <chiral flag>
0

> <version>
0

> <s_m_source_file>
/data/baiqing/PycharmProjects/Reinvent-master-3.2/result/LINK_invent/BTK/process_docking_weight1_custom_sum_contain_oxygen_bond_distance_aromatic_linkinvent_7_9_3/rearranged_h_0061.sdf

> <i_m_source_file_index>
2

> <r_mmod_Potential_Energy-OPLS-2005>
370.673797607422

> <r_mmod_Stretch_Energy-OPLS-2005>
132.07878112793

> <r_mmod_Bend_Energy-OPLS-2005>
188.854293823242

> <r_mmod_Torsional_Energy-OPLS-2005>
292.652740478516

> <r_mmod_Improper_Torsional_Energy-OPLS-2005>
5.60500288009644

> <r_mmod_Van_der_Waal_Energy-OPLS-2005>
120.958862304688

> <r_mmod_Electrostatic_Energy-OPLS-2005>
-255.389038085938

> <r_mmod_Solvation_Energy-OPLS-2005>
-186.758834838867

> <b_mmod_Minimization_Converged-OPLS-2005>
0

> <r_mmod_RMS_Derivative-OPLS-2005>
4.03600454330444

$$$$
2
                    3D
 Structure written by MMmdl.
160168  0  0  1  0            999 V2000
  -30.6898  -14.6659   20.5326 C   0  0  0  0  0  0
  -30.4193  -12.4214   19.4706 C   0  0  0  0  0  0
  -29.4983  -12.5126   18.2367 C   0  0  0  0  0  0
  -28.0231  -12.3543   18.6492 C   0  0  0  0  0  0
  -27.6461  -13.2344   19.8718 C   0  0  2  0  0  0
  -28.6986  -13.1139   21.0001 C   0  0  0  0  0  0
  -25.2417  -13.8166   20.5611 C   0  0  0  0  0  0
  -24.1748  -13.0406   20.9192 C   0  0  0  0  0  0
  -24.6383  -11.6905   20.8775 C   0  0  0  0  0  0
  -23.9072  -10.4279   21.0413 C   0  0  0  0  0  0
  -24.3622   -9.4196   21.9186 C   0  0  0  0  0  0
  -23.6291   -8.2234   22.0756 C   0  0  0  0  0  0
  -22.4275   -8.0278   21.3541 C   0  0  0  0  0  0
  -21.9916   -9.0255   20.4639 C   0  0  0  0  0  0
  -22.7251  -10.2130   20.3049 C   0  0  0  0  0  0
  -21.6852   -6.0736   22.5281 C   0  0  0  0  0  0
  -21.4013   -6.5639   23.8211 C   0  0  0  0  0  0
  -21.3657   -5.6792   24.9173 C   0  0  0  0  0  0
  -21.6044   -4.3053   24.7225 C   0  0  0  0  0  0
  -21.8817   -3.8149   23.4341 C   0  0  0  0  0  0
  -21.9191   -4.6966   22.3401 C   0  0  0  0  0  0
  -22.7775  -13.5182   21.1853 C   0  0  0  0  0  0
  -22.1657   -4.2152   21.0977 F   0  0  0  0  0  0
  -21.5631   -3.4539   25.7732 F   0  0  0  0  0  0
  -30.0028  -13.4733   20.4297 N   0  0  0  0  0  0
  -26.2945  -12.9424   20.3407 N   0  0  0  0  0  0
  -25.9334  -11.6561   20.5865 N   0  0  0  0  0  0
  -22.0444  -12.8178   22.0430 N   0  0  0  0  0  0
  -25.3919  -15.1861   20.3790 N   0  0  0  0  0  0
  -31.8294  -14.7404   20.0600 O   0  0  0  0  0  0
  -21.6634   -6.8881   21.4242 O   0  0  0  0  0  0
  -22.3446  -14.5487   20.6710 O   0  0  0  0  0  0
  -24.6247  -31.8569   23.1998 C   0  0  0  0  0  0
  -25.9089  -32.4754   23.8333 C   0  0  1  0  0  0
  -27.2322  -27.3123   20.1191 C   0  0  0  0  0  0
  -25.5914  -33.8561   24.2264 N   0  0  0  0  0  0
  -23.4185  -30.4771   21.5407 C   0  0  2  0  0  0
  -24.8653  -28.9241   20.1082 C   0  0  0  0  0  0
  -22.7466  -29.4588   22.4927 C   0  0  0  0  0  0
  -18.0286  -28.1370   22.8467 C   0  0  0  0  0  0
  -24.1493  -36.7279   23.2645 C   0  0  0  0  0  0
  -25.9569  -30.7841   21.3700 C   0  0  0  0  0  0
  -26.0296  -29.4093   20.7155 C   0  0  0  0  0  0
  -27.2075  -28.6099   20.7175 C   0  0  0  0  0  0
  -26.0424  -26.8687   19.4994 C   0  0  0  0  0  0
  -24.8740  -27.6591   19.4962 C   0  0  0  0  0  0
  -23.6329  -29.8056   20.1559 C   0  0  0  0  0  0
  -25.4116  -36.3068   24.0331 C   0  0  1  0  0  0
  -20.5882  -28.3667   23.1292 C   0  0  2  0  0  0
  -20.6764  -26.9392   22.5417 C   0  0  0  0  0  0
  -19.5753  -26.6365   21.5214 C   0  0  0  0  0  0
  -18.1928  -26.7910   22.1614 C   0  0  0  0  0  0
  -19.1541  -28.8835   23.2868 C   0  0  0  0  0  0
  -18.9477  -30.1438   23.8876 C   0  0  0  0  0  0
  -17.6479  -30.6572   24.0558 C   0  0  0  0  0  0
  -25.9054  -34.9436   23.5106 C   0  0  0  0  0  0
  -16.5364  -29.9074   23.6335 C   0  0  0  0  0  0
  -16.7276  -28.6499   23.0342 C   0  0  0  0  0  0
  -26.4491  -31.6575   25.0707 C   0  0  0  0  0  0
  -25.3741  -31.3716   26.1451 C   0  0  0  0  0  0
  -27.0344  -30.3007   24.6139 C   0  0  0  0  0  0
  -27.6030  -32.4325   25.7479 C   0  0  0  0  0  0
  -27.5575  -37.1787   24.8463 C   0  0  0  0  0  0
  -21.4179  -29.3021   22.3678 N   0  0  0  0  0  0
  -26.4286  -37.3774   23.9417 N   0  0  0  0  0  0
  -24.6851  -31.0574   22.0936 N   0  0  0  0  0  0
  -23.4199  -28.8136   23.3011 O   0  0  0  0  0  0
  -28.3803  -26.5107   20.2007 O   0  0  0  0  0  0
  -26.5634  -34.8914   22.4677 O   0  0  0  0  0  0
  -23.5406  -32.1382   23.7311 O   0  0  0  0  0  0
  -28.7623  -18.9266   19.3735 C   0  0  0  0  0  0
  -29.3481  -18.2871   20.5055 C   0  0  0  0  0  0
  -29.8464  -20.4671   21.2911 C   0  0  0  0  0  0
  -29.2566  -21.0991   20.1480 C   0  0  0  0  0  0
  -30.5237  -21.2773   22.3807 C   0  0  0  0  0  0
  -27.9303  -16.6408   21.7546 C   0  0  0  0  0  0
  -31.1212  -16.3616   22.1837 C   0  0  0  0  0  0
  -29.3974  -22.6341   19.7732 C   0  0  0  0  0  0
  -28.4402  -23.8023   20.3111 C   0  0  0  0  0  0
  -28.5437  -25.2008   19.5307 C   0  0  0  0  0  0
  -29.1086  -16.7311   20.7687 C   0  0  2  0  0  0
  -28.7126  -20.2866   19.1979 N   0  0  0  0  0  0
  -29.8743  -19.1006   21.4718 N   0  0  0  0  0  0
  -30.1848  -15.7556   21.2289 N   0  0  0  0  0  0
  -31.4626  -12.5124   19.1653 H   0  0  0  0  0  0
  -30.3420  -11.4368   19.9355 H   0  0  0  0  0  0
  -29.7663  -11.7458   17.5085 H   0  0  0  0  0  0
  -29.6411  -13.4743   17.7397 H   0  0  0  0  0  0
  -27.8621  -11.3030   18.8926 H   0  0  0  0  0  0
  -27.3665  -12.5737   17.8060 H   0  0  0  0  0  0
  -27.6519  -14.2653   19.5201 H   0  0  0  0  0  0
  -28.7232  -12.0918   21.3803 H   0  0  0  0  0  0
  -28.4605  -13.7284   21.8639 H   0  0  0  0  0  0
  -25.2763   -9.5680   22.4764 H   0  0  0  0  0  0
  -24.0001   -7.4629   22.7472 H   0  0  0  0  0  0
  -21.0852   -8.8769   19.8939 H   0  0  0  0  0  0
  -22.3706  -10.9668   19.6158 H   0  0  0  0  0  0
  -21.2000   -7.6147   23.9720 H   0  0  0  0  0  0
  -21.1481   -6.0518   25.9078 H   0  0  0  0  0  0
  -22.0596   -2.7610   23.2838 H   0  0  0  0  0  0
  -22.4084  -11.9839   22.4804 H   0  0  0  0  0  0
  -21.1065  -13.1198   22.2653 H   0  0  0  0  0  0
  -24.6176  -15.8299   20.4932 H   0  0  0  0  0  0
  -26.2387  -15.6358   20.0636 H   0  0  0  0  0  0
  -26.7143  -32.5406   23.1055 H   0  0  0  0  0  0
  -25.0068  -33.9718   25.0411 H   0  0  0  0  0  0
  -22.7124  -31.2974   21.3940 H   0  0  0  0  0  0
  -23.3755  -35.9608   23.3301 H   0  0  0  0  0  0
  -24.3595  -36.8906   22.2064 H   0  0  0  0  0  0
  -23.7246  -37.6476   23.6675 H   0  0  0  0  0  0
  -26.0943  -31.5455   20.6016 H   0  0  0  0  0  0
  -26.8355  -30.8316   22.0008 H   0  0  0  0  0  0
  -28.0986  -28.9753   21.2087 H   0  0  0  0  0  0
  -25.9846  -25.8927   19.0420 H   0  0  0  0  0  0
  -23.9762  -27.2748   19.0326 H   0  0  0  0  0  0
  -23.7509  -30.5818   19.3984 H   0  0  0  0  0  0
  -22.7522  -29.2342   19.8535 H   0  0  0  0  0  0
  -25.1294  -36.1918   25.0824 H   0  0  0  0  0  0
  -20.9970  -28.3237   24.1417 H   0  0  0  0  0  0
  -20.5672  -26.2274   23.3612 H   0  0  0  0  0  0
  -21.6630  -26.7412   22.1216 H   0  0  0  0  0  0
  -19.6929  -25.6289   21.1226 H   0  0  0  0  0  0
  -19.6703  -27.3189   20.6757 H   0  0  0  0  0  0
  -17.4207  -26.6670   21.4001 H   0  0  0  0  0  0
  -18.0305  -26.0055   22.9005 H   0  0  0  0  0  0
  -19.7972  -30.7245   24.2220 H   0  0  0  0  0  0
  -17.5056  -31.6255   24.5160 H   0  0  0  0  0  0
  -15.5373  -30.2974   23.7672 H   0  0  0  0  0  0
  -15.8672  -28.0818   22.7050 H   0  0  0  0  0  0
  -24.5909  -30.7056   25.7808 H   0  0  0  0  0  0
  -24.8938  -32.2885   26.4880 H   0  0  0  0  0  0
  -25.8089  -30.8916   27.0228 H   0  0  0  0  0  0
  -26.2919  -29.6738   24.1182 H   0  0  0  0  0  0
  -27.4102  -29.7269   25.4622 H   0  0  0  0  0  0
  -27.8753  -30.4315   23.9321 H   0  0  0  0  0  0
  -27.2624  -33.3631   26.2030 H   0  0  0  0  0  0
  -28.3850  -32.6881   25.0315 H   0  0  0  0  0  0
  -28.0681  -31.8479   26.5424 H   0  0  0  0  0  0
  -28.2574  -38.0105   24.7524 H   0  0  0  0  0  0
  -28.1098  -36.2630   24.6269 H   0  0  0  0  0  0
  -27.2305  -37.1407   25.8874 H   0  0  0  0  0  0
  -20.9356  -29.8764   21.6903 H   0  0  0  0  0  0
  -26.0162  -38.2839   24.1439 H   0  0  0  0  0  0
  -28.2800  -18.3372   18.6073 H   0  0  0  0  0  0
  -30.1162  -22.2867   22.4448 H   0  0  0  0  0  0
  -31.5938  -21.3512   22.1852 H   0  0  0  0  0  0
  -30.3868  -20.8080   23.3551 H   0  0  0  0  0  0
  -27.0795  -17.2214   21.3975 H   0  0  0  0  0  0
  -28.2065  -17.0408   22.7309 H   0  0  0  0  0  0
  -27.5780  -15.6267   21.9100 H   0  0  0  0  0  0
  -30.5979  -16.9399   22.9444 H   0  0  0  0  0  0
  -31.8190  -17.0256   21.6709 H   0  0  0  0  0  0
  -31.7074  -15.6069   22.7121 H   0  0  0  0  0  0
  -29.3451  -22.6743   18.6847 H   0  0  0  0  0  0
  -30.4261  -22.9196   19.9961 H   0  0  0  0  0  0
  -28.6504  -23.9658   21.3673 H   0  0  0  0  0  0
  -27.4029  -23.4695   20.2649 H   0  0  0  0  0  0
  -27.9602  -25.1551   18.6120 H   0  0  0  0  0  0
  -29.5694  -25.2540   19.1641 H   0  0  0  0  0  0
  -28.7571  -16.3353   19.8152 H   0  0  0  0  0  0
  1 25  1  0  0  0
  1 30  2  0  0  0
  1 84  1  0  0  0
  2  3  1  0  0  0
  2 25  1  0  0  0
  2 85  1  0  0  0
  2 86  1  0  0  0
  3  4  1  0  0  0
  3 87  1  0  0  0
  3 88  1  0  0  0
  4  5  1  0  0  0
  4 89  1  0  0  0
  4 90  1  0  0  0
  5  6  1  0  0  0
  5 26  1  0  0  0
  5 91  1  0  0  0
  6 25  1  0  0  0
  6 92  1  0  0  0
  6 93  1  0  0  0
  7  8  2  0  0  0
  7 26  1  0  0  0
  7 29  1  0  0  0
  8  9  1  0  0  0
  8 22  1  0  0  0
  9 10  1  0  0  0
  9 27  2  0  0  0
 10 11  2  0  0  0
 10 15  1  0  0  0
 11 12  1  0  0  0
 11 94  1  0  0  0
 12 13  2  0  0  0
 12 95  1  0  0  0
 13 14  1  0  0  0
 13 31  1  0  0  0
 14 15  2  0  0  0
 14 96  1  0  0  0
 15 97  1  0  0  0
 16 17  2  0  0  0
 16 21  1  0  0  0
 16 31  1  0  0  0
 17 18  1  0  0  0
 17 98  1  0  0  0
 18 19  2  0  0  0
 18 99  1  0  0  0
 19 20  1  0  0  0
 19 24  1  0  0  0
 20 21  2  0  0  0
 20100  1  0  0  0
 21 23  1  0  0  0
 22 28  1  0  0  0
 22 32  2  0  0  0
 26 27  1  0  0  0
 28101  1  0  0  0
 28102  1  0  0  0
 29103  1  0  0  0
 29104  1  0  0  0
 33 34  1  0  0  0
 33 66  1  0  0  0
 33 70  2  0  0  0
 34 36  1  0  0  0
 34 59  1  0  0  0
 34105  1  0  0  0
 35 44  2  0  0  0
 35 45  1  0  0  0
 35 68  1  0  0  0
 36 56  1  0  0  0
 36106  1  0  0  0
 37 39  1  0  0  0
 37 47  1  0  0  0
 37 66  1  0  0  0
 37107  1  0  0  0
 38 43  2  0  0  0
 38 46  1  0  0  0
 38 47  1  0  0  0
 39 64  1  0  0  0
 39 67  2  0  0  0
 40 52  1  0  0  0
 40 53  2  0  0  0
 40 58  1  0  0  0
 41108  1  0  0  0
 41109  1  0  0  0
 41110  1  0  0  0
 41 48  1  0  0  0
 42 43  1  0  0  0
 42 66  1  0  0  0
 42111  1  0  0  0
 42112  1  0  0  0
 43 44  1  0  0  0
 44113  1  0  0  0
 45 46  2  0  0  0
 45114  1  0  0  0
 46115  1  0  0  0
 47116  1  0  0  0
 47117  1  0  0  0
 48 56  1  0  0  0
 48 65  1  0  0  0
 48118  1  0  0  0
 49 50  1  0  0  0
 49 53  1  0  0  0
 49 64  1  0  0  0
 49119  1  0  0  0
 50 51  1  0  0  0
 50120  1  0  0  0
 50121  1  0  0  0
 51 52  1  0  0  0
 51122  1  0  0  0
 51123  1  0  0  0
 52124  1  0  0  0
 52125  1  0  0  0
 53 54  1  0  0  0
 54 55  2  0  0  0
 54126  1  0  0  0
 55 57  1  0  0  0
 55127  1  0  0  0
 56 69  2  0  0  0
 57 58  2  0  0  0
 57128  1  0  0  0
 58129  1  0  0  0
 59 60  1  0  0  0
 59 61  1  0  0  0
 59 62  1  0  0  0
 60130  1  0  0  0
 60131  1  0  0  0
 60132  1  0  0  0
 61133  1  0  0  0
 61134  1  0  0  0
 61135  1  0  0  0
 62136  1  0  0  0
 62137  1  0  0  0
 62138  1  0  0  0
 63 65  1  0  0  0
 63139  1  0  0  0
 63140  1  0  0  0
 63141  1  0  0  0
 64142  1  0  0  0
 65143  1  0  0  0
 68 80  1  0  0  0
 71 72  2  0  0  0
 71 82  1  0  0  0
 71144  1  0  0  0
 72 81  1  0  0  0
 72 83  1  0  0  0
 73 74  1  0  0  0
 73 75  1  0  0  0
 73 83  2  0  0  0
 74 78  1  0  0  0
 74 82  2  0  0  0
 75145  1  0  0  0
 75146  1  0  0  0
 75147  1  0  0  0
 76148  1  0  0  0
 76149  1  0  0  0
 76150  1  0  0  0
 76 81  1  0  0  0
 77 84  1  0  0  0
 77151  1  0  0  0
 77152  1  0  0  0
 77153  1  0  0  0
 78 79  1  0  0  0
 78154  1  0  0  0
 78155  1  0  0  0
 79 80  1  0  0  0
 79156  1  0  0  0
 79157  1  0  0  0
 80158  1  0  0  0
 80159  1  0  0  0
 81 84  1  0  0  0
 81160  1  0  0  0
M  ISO  4   1 100  68 101  80 101  84 100
M  END
> <chiral flag>
0

> <version>
0

> <s_m_source_file>
/data/baiqing/PycharmProjects/Reinvent-master-3.2/result/LINK_invent/BTK/process_docking_weight1_custom_sum_contain_oxygen_bond_distance_aromatic_linkinvent_7_9_3/rearranged_h_0061.sdf

> <i_m_source_file_index>
3

> <r_mmod_Potential_Energy-OPLS-2005>
274.146759033203

> <r_mmod_Stretch_Energy-OPLS-2005>
102.202461242676

> <r_mmod_Bend_Energy-OPLS-2005>
195.868087768555

> <r_mmod_Torsional_Energy-OPLS-2005>
265.156799316406

> <r_mmod_Improper_Torsional_Energy-OPLS-2005>
6.81707286834717

> <r_mmod_Van_der_Waal_Energy-OPLS-2005>
143.902420043945

> <r_mmod_Electrostatic_Energy-OPLS-2005>
-283.62939453125

> <r_mmod_Solvation_Energy-OPLS-2005>
-208.060989379883

> <b_mmod_Minimization_Converged-OPLS-2005>
0

> <r_mmod_RMS_Derivative-OPLS-2005>
1.96585643291473

$$$$
3
                    3D
 Structure written by MMmdl.
151159  0  0  1  0            999 V2000
  -30.3868  -15.3704   20.3327 C   0  0  0  0  0  0
  -30.4249  -12.8733   19.5403 C   0  0  0  0  0  0
  -29.5302  -12.5995   18.3030 C   0  0  0  0  0  0
  -28.0910  -12.2961   18.7437 C   0  0  0  0  0  0
  -27.6078  -13.2841   19.8332 C   0  0  2  0  0  0
  -28.6359  -13.5060   20.9643 C   0  0  0  0  0  0
  -25.2363  -13.8273   20.5788 C   0  0  0  0  0  0
  -24.1737  -13.0448   20.9284 C   0  0  0  0  0  0
  -24.6397  -11.6948   20.8796 C   0  0  0  0  0  0
  -23.9103  -10.4306   21.0435 C   0  0  0  0  0  0
  -24.3643   -9.4210   21.9202 C   0  0  0  0  0  0
  -23.6313   -8.2247   22.0759 C   0  0  0  0  0  0
  -22.4293   -8.0282   21.3548 C   0  0  0  0  0  0
  -21.9946   -9.0273   20.4652 C   0  0  0  0  0  0
  -22.7282  -10.2147   20.3076 C   0  0  0  0  0  0
  -21.6855   -6.0741   22.5278 C   0  0  0  0  0  0
  -21.4021   -6.5653   23.8207 C   0  0  0  0  0  0
  -21.3654   -5.6798   24.9174 C   0  0  0  0  0  0
  -21.6037   -4.3064   24.7228 C   0  0  0  0  0  0
  -21.8817   -3.8155   23.4353 C   0  0  0  0  0  0
  -21.9198   -4.6976   22.3399 C   0  0  0  0  0  0
  -22.7756  -13.5180   21.1939 C   0  0  0  0  0  0
  -22.1668   -4.2160   21.0986 F   0  0  0  0  0  0
  -21.5627   -3.4547   25.7745 F   0  0  0  0  0  0
  -29.8515  -14.0377   20.3273 N   0  0  0  0  0  0
  -26.2808  -12.9560   20.3315 N   0  0  0  0  0  0
  -25.9340  -11.6655   20.5799 N   0  0  0  0  0  0
  -22.0447  -12.8123   22.0488 N   0  0  0  0  0  0
  -25.3982  -15.2010   20.4219 N   0  0  0  0  0  0
  -31.6042  -15.3564   20.0901 O   0  0  0  0  0  0
  -21.6644   -6.8891   21.4239 O   0  0  0  0  0  0
  -22.3427  -14.5504   20.6823 O   0  0  0  0  0  0
  -24.6680  -31.8132   23.1638 C   0  0  0  0  0  0
  -25.9314  -32.4542   23.8140 C   0  0  1  0  0  0
  -27.2186  -26.8419   20.1931 C   0  0  0  0  0  0
  -25.5936  -33.8371   24.2015 N   0  0  0  0  0  0
  -23.4903  -30.4202   21.5128 C   0  0  2  0  0  0
  -24.9460  -28.7921   20.1083 C   0  0  0  0  0  0
  -22.7706  -29.4392   22.4762 C   0  0  0  0  0  0
  -18.0313  -28.1414   22.8489 C   0  0  0  0  0  0
  -24.1499  -36.7195   23.2651 C   0  0  0  0  0  0
  -26.0632  -30.5900   21.4125 C   0  0  0  0  0  0
  -26.1270  -29.1709   20.7584 C   0  0  0  0  0  0
  -27.2471  -28.2130   20.7846 C   0  0  0  0  0  0
  -26.0152  -26.6414   19.4787 C   0  0  0  0  0  0
  -24.9199  -27.5500   19.4516 C   0  0  0  0  0  0
  -23.7369  -29.7297   20.1405 C   0  0  0  0  0  0
  -25.4141  -36.2949   24.0288 C   0  0  1  0  0  0
  -20.5950  -28.3787   23.1169 C   0  0  2  0  0  0
  -20.6819  -26.9472   22.5379 C   0  0  0  0  0  0
  -19.5762  -26.6415   21.5226 C   0  0  0  0  0  0
  -18.1975  -26.7915   22.1712 C   0  0  0  0  0  0
  -19.1577  -28.8926   23.2797 C   0  0  0  0  0  0
  -18.9485  -30.1527   23.8796 C   0  0  0  0  0  0
  -17.6483  -30.6638   24.0504 C   0  0  0  0  0  0
  -25.9104  -34.9328   23.4984 C   0  0  0  0  0  0
  -16.5368  -29.9101   23.6351 C   0  0  0  0  0  0
  -16.7295  -28.6511   23.0398 C   0  0  0  0  0  0
  -26.4541  -31.6545   25.0714 C   0  0  0  0  0  0
  -25.3644  -31.3834   26.1358 C   0  0  0  0  0  0
  -27.0431  -30.2897   24.6525 C   0  0  0  0  0  0
  -27.6015  -32.4373   25.7517 C   0  0  0  0  0  0
  -27.5566  -37.1749   24.8452 C   0  0  0  0  0  0
  -21.4361  -29.3066   22.3516 N   0  0  0  0  0  0
  -26.4276  -37.3693   23.9395 N   0  0  0  0  0  0
  -24.7625  -30.9707   22.0829 N   0  0  0  0  0  0
  -23.4208  -28.7971   23.3047 O   0  0  0  0  0  0
  -28.1878  -25.6903   20.3528 O   0  0  0  0  0  0
  -26.5765  -34.8873   22.4611 O   0  0  0  0  0  0
  -23.5720  -32.1151   23.6642 O   0  0  0  0  0  0
  -27.3660  -22.0493   21.3029 C   0  0  0  0  0  0
  -27.1826  -20.6944   21.6868 C   0  0  0  0  0  0
  -28.3643  -22.4394   20.3933 C   0  0  0  0  0  0
  -28.9495  -19.8230   20.4253 C   0  0  0  0  0  0
  -26.0190  -20.3402   22.5907 C   0  0  0  0  0  0
  -29.8549  -18.3206   18.4689 C   0  0  0  0  0  0
  -28.2738  -24.1138   19.7511 C   0  0  0  0  0  0
  -29.8081  -18.3140   20.0084 C   0  0  2  0  0  0
  -27.9373  -19.6411   21.2679 N   0  0  0  0  0  0
  -29.1346  -21.2198   19.9898 N   0  0  0  0  0  0
  -29.6182  -16.6642   20.4055 N   0  0  0  0  0  0
  -31.4408  -13.0753   19.2003 H   0  0  0  0  0  0
  -30.5001  -11.9768   20.1597 H   0  0  0  0  0  0
  -29.9220  -11.7670   17.7176 H   0  0  0  0  0  0
  -29.5380  -13.4688   17.6419 H   0  0  0  0  0  0
  -28.0826  -11.2845   19.1476 H   0  0  0  0  0  0
  -27.4058  -12.2894   17.8954 H   0  0  0  0  0  0
  -27.5085  -14.2384   19.3157 H   0  0  0  0  0  0
  -28.8264  -12.5950   21.5330 H   0  0  0  0  0  0
  -28.2577  -14.2433   21.6730 H   0  0  0  0  0  0
  -25.2791   -9.5689   22.4789 H   0  0  0  0  0  0
  -24.0020   -7.4647   22.7493 H   0  0  0  0  0  0
  -21.0867   -8.8803   19.8966 H   0  0  0  0  0  0
  -22.3747  -10.9693   19.6199 H   0  0  0  0  0  0
  -21.2010   -7.6165   23.9717 H   0  0  0  0  0  0
  -21.1475   -6.0533   25.9067 H   0  0  0  0  0  0
  -22.0600   -2.7621   23.2847 H   0  0  0  0  0  0
  -22.4072  -11.9727   22.4761 H   0  0  0  0  0  0
  -21.1081  -13.1152   22.2800 H   0  0  0  0  0  0
  -24.6269  -15.8486   20.5410 H   0  0  0  0  0  0
  -26.2392  -15.6479   20.0824 H   0  0  0  0  0  0
  -26.7390  -32.5049   23.0857 H   0  0  0  0  0  0
  -24.9936  -33.9455   25.0059 H   0  0  0  0  0  0
  -22.8063  -31.2522   21.3331 H   0  0  0  0  0  0
  -23.3771  -35.9516   23.3278 H   0  0  0  0  0  0
  -24.3581  -36.8884   22.2076 H   0  0  0  0  0  0
  -23.7253  -37.6361   23.6749 H   0  0  0  0  0  0
  -26.2527  -31.3254   20.6291 H   0  0  0  0  0  0
  -26.9200  -30.6524   22.0720 H   0  0  0  0  0  0
  -28.1272  -28.4900   21.3487 H   0  0  0  0  0  0
  -25.8703  -25.6927   18.9833 H   0  0  0  0  0  0
  -24.0226  -27.2514   18.9267 H   0  0  0  0  0  0
  -23.9037  -30.4958   19.3824 H   0  0  0  0  0  0
  -22.8452  -29.1868   19.8224 H   0  0  0  0  0  0
  -25.1357  -36.1730   25.0782 H   0  0  0  0  0  0
  -21.0008  -28.3409   24.1309 H   0  0  0  0  0  0
  -20.5757  -26.2400   23.3610 H   0  0  0  0  0  0
  -21.6666  -26.7464   22.1139 H   0  0  0  0  0  0
  -19.6929  -25.6334   21.1246 H   0  0  0  0  0  0
  -19.6623  -27.3250   20.6778 H   0  0  0  0  0  0
  -17.4209  -26.6555   21.4178 H   0  0  0  0  0  0
  -18.0488  -26.0111   22.9179 H   0  0  0  0  0  0
  -19.7970  -30.7373   24.2097 H   0  0  0  0  0  0
  -17.5029  -31.6339   24.5057 H   0  0  0  0  0  0
  -15.5371  -30.2992   23.7691 H   0  0  0  0  0  0
  -15.8686  -28.0800   22.7188 H   0  0  0  0  0  0
  -24.5872  -30.7124   25.7688 H   0  0  0  0  0  0
  -24.8770  -32.3042   26.4568 H   0  0  0  0  0  0
  -25.7862  -30.9160   27.0271 H   0  0  0  0  0  0
  -26.3126  -29.6566   24.1480 H   0  0  0  0  0  0
  -27.3868  -29.7276   25.5219 H   0  0  0  0  0  0
  -27.9115  -30.4043   24.0037 H   0  0  0  0  0  0
  -27.2588  -33.3732   26.1947 H   0  0  0  0  0  0
  -28.3922  -32.6833   25.0417 H   0  0  0  0  0  0
  -28.0607  -31.8595   26.5548 H   0  0  0  0  0  0
  -28.2539  -38.0078   24.7501 H   0  0  0  0  0  0
  -28.1092  -36.2595   24.6278 H   0  0  0  0  0  0
  -27.2277  -37.1410   25.8849 H   0  0  0  0  0  0
  -20.9639  -29.8752   21.6631 H   0  0  0  0  0  0
  -26.0102  -38.2736   24.1411 H   0  0  0  0  0  0
  -26.6758  -22.8025   21.6625 H   0  0  0  0  0  0
  -26.0503  -19.2984   22.9111 H   0  0  0  0  0  0
  -25.0815  -20.4981   22.0577 H   0  0  0  0  0  0
  -26.0126  -20.9702   23.4806 H   0  0  0  0  0  0
  -30.3214  -19.2376   18.1082 H   0  0  0  0  0  0
  -28.8516  -18.2788   18.0435 H   0  0  0  0  0  0
  -30.4306  -17.4863   18.0672 H   0  0  0  0  0  0
  -27.4826  -24.0654   19.0040 H   0  0  0  0  0  0
  -29.1802  -24.1616   19.1476 H   0  0  0  0  0  0
  -30.8240  -18.5116   20.3495 H   0  0  0  0  0  0
  -28.6616  -16.4973   20.6811 H   0  0  0  0  0  0
  1 25  1  0  0  0
  1 30  2  0  0  0
  1 81  1  0  0  0
  2  3  1  0  0  0
  2 25  1  0  0  0
  2 82  1  0  0  0
  2 83  1  0  0  0
  3  4  1  0  0  0
  3 84  1  0  0  0
  3 85  1  0  0  0
  4  5  1  0  0  0
  4 86  1  0  0  0
  4 87  1  0  0  0
  5  6  1  0  0  0
  5 26  1  0  0  0
  5 88  1  0  0  0
  6 25  1  0  0  0
  6 89  1  0  0  0
  6 90  1  0  0  0
  7  8  2  0  0  0
  7 26  1  0  0  0
  7 29  1  0  0  0
  8  9  1  0  0  0
  8 22  1  0  0  0
  9 10  1  0  0  0
  9 27  2  0  0  0
 10 11  2  0  0  0
 10 15  1  0  0  0
 11 12  1  0  0  0
 11 91  1  0  0  0
 12 13  2  0  0  0
 12 92  1  0  0  0
 13 14  1  0  0  0
 13 31  1  0  0  0
 14 15  2  0  0  0
 14 93  1  0  0  0
 15 94  1  0  0  0
 16 17  2  0  0  0
 16 21  1  0  0  0
 16 31  1  0  0  0
 17 18  1  0  0  0
 17 95  1  0  0  0
 18 19  2  0  0  0
 18 96  1  0  0  0
 19 20  1  0  0  0
 19 24  1  0  0  0
 20 21  2  0  0  0
 20 97  1  0  0  0
 21 23  1  0  0  0
 22 28  1  0  0  0
 22 32  2  0  0  0
 26 27  1  0  0  0
 28 98  1  0  0  0
 28 99  1  0  0  0
 29100  1  0  0  0
 29101  1  0  0  0
 33 34  1  0  0  0
 33 66  1  0  0  0
 33 70  2  0  0  0
 34 36  1  0  0  0
 34 59  1  0  0  0
 34102  1  0  0  0
 35 44  2  0  0  0
 35 45  1  0  0  0
 35 68  1  0  0  0
 36 56  1  0  0  0
 36103  1  0  0  0
 37 39  1  0  0  0
 37 47  1  0  0  0
 37 66  1  0  0  0
 37104  1  0  0  0
 38 43  2  0  0  0
 38 46  1  0  0  0
 38 47  1  0  0  0
 39 64  1  0  0  0
 39 67  2  0  0  0
 40 52  1  0  0  0
 40 53  2  0  0  0
 40 58  1  0  0  0
 41105  1  0  0  0
 41106  1  0  0  0
 41107  1  0  0  0
 41 48  1  0  0  0
 42 43  1  0  0  0
 42 66  1  0  0  0
 42108  1  0  0  0
 42109  1  0  0  0
 43 44  1  0  0  0
 44110  1  0  0  0
 45 46  2  0  0  0
 45111  1  0  0  0
 46112  1  0  0  0
 47113  1  0  0  0
 47114  1  0  0  0
 48 56  1  0  0  0
 48 65  1  0  0  0
 48115  1  0  0  0
 49 50  1  0  0  0
 49 53  1  0  0  0
 49 64  1  0  0  0
 49116  1  0  0  0
 50 51  1  0  0  0
 50117  1  0  0  0
 50118  1  0  0  0
 51 52  1  0  0  0
 51119  1  0  0  0
 51120  1  0  0  0
 52121  1  0  0  0
 52122  1  0  0  0
 53 54  1  0  0  0
 54 55  2  0  0  0
 54123  1  0  0  0
 55 57  1  0  0  0
 55124  1  0  0  0
 56 69  2  0  0  0
 57 58  2  0  0  0
 57125  1  0  0  0
 58126  1  0  0  0
 59 60  1  0  0  0
 59 61  1  0  0  0
 59 62  1  0  0  0
 60127  1  0  0  0
 60128  1  0  0  0
 60129  1  0  0  0
 61130  1  0  0  0
 61131  1  0  0  0
 61132  1  0  0  0
 62133  1  0  0  0
 62134  1  0  0  0
 62135  1  0  0  0
 63 65  1  0  0  0
 63136  1  0  0  0
 63137  1  0  0  0
 63138  1  0  0  0
 64139  1  0  0  0
 65140  1  0  0  0
 68 77  1  0  0  0
 71 72  2  0  0  0
 71 73  1  0  0  0
 71141  1  0  0  0
 72 75  1  0  0  0
 72 79  1  0  0  0
 73 77  1  0  0  0
 73 80  2  0  0  0
 74 78  1  0  0  0
 74 79  2  0  0  0
 74 80  1  0  0  0
 75142  1  0  0  0
 75143  1  0  0  0
 75144  1  0  0  0
 76145  1  0  0  0
 76146  1  0  0  0
 76147  1  0  0  0
 76 78  1  0  0  0
 77148  1  0  0  0
 77149  1  0  0  0
 78 81  1  0  0  0
 78150  1  0  0  0
 81151  1  0  0  0
M  ISO  4   1 100  68 101  77 101  81 100
M  END
> <chiral flag>
0

> <version>
0

> <s_m_source_file>
/data/baiqing/PycharmProjects/Reinvent-master-3.2/result/LINK_invent/BTK/process_docking_weight1_custom_sum_contain_oxygen_bond_distance_aromatic_linkinvent_7_9_3/rearranged_h_0061.sdf

> <i_m_source_file_index>
4

> <r_mmod_Potential_Energy-OPLS-2005>
1022.78527832031

> <r_mmod_Stretch_Energy-OPLS-2005>
705.739196777344

> <r_mmod_Bend_Energy-OPLS-2005>
505.6103515625

> <r_mmod_Torsional_Energy-OPLS-2005>
209.361557006836

> <r_mmod_Improper_Torsional_Energy-OPLS-2005>
6.38819313049316

> <r_mmod_Van_der_Waal_Energy-OPLS-2005>
126.087867736816

> <r_mmod_Electrostatic_Energy-OPLS-2005>
-877.269775390625

> <r_mmod_Solvation_Energy-OPLS-2005>
-244.511169433594

> <b_mmod_Minimization_Converged-OPLS-2005>
0

> <r_mmod_RMS_Derivative-OPLS-2005>
3.34662318229675

$$$$
4
                    3D
 Structure written by MMmdl.
152160  0  0  1  0            999 V2000
  -30.3968  -15.4245   20.3582 C   0  0  0  0  0  0
  -30.4309  -12.9202   19.5519 C   0  0  0  0  0  0
  -29.5470  -12.6152   18.3123 C   0  0  0  0  0  0
  -28.1029  -12.3048   18.7409 C   0  0  0  0  0  0
  -27.6058  -13.2935   19.8235 C   0  0  2  0  0  0
  -28.6295  -13.5358   20.9578 C   0  0  0  0  0  0
  -25.2354  -13.8258   20.5756 C   0  0  0  0  0  0
  -24.1724  -13.0428   20.9244 C   0  0  0  0  0  0
  -24.6410  -11.6934   20.8752 C   0  0  0  0  0  0
  -23.9118  -10.4282   21.0385 C   0  0  0  0  0  0
  -24.3636   -9.4201   21.9178 C   0  0  0  0  0  0
  -23.6304   -8.2241   22.0750 C   0  0  0  0  0  0
  -22.4281   -8.0284   21.3545 C   0  0  0  0  0  0
  -21.9932   -9.0262   20.4644 C   0  0  0  0  0  0
  -22.7278  -10.2132   20.3047 C   0  0  0  0  0  0
  -21.6860   -6.0736   22.5279 C   0  0  0  0  0  0
  -21.4027   -6.5641   23.8219 C   0  0  0  0  0  0
  -21.3654   -5.6790   24.9174 C   0  0  0  0  0  0
  -21.6037   -4.3056   24.7220 C   0  0  0  0  0  0
  -21.8820   -3.8147   23.4346 C   0  0  0  0  0  0
  -21.9190   -4.6962   22.3407 C   0  0  0  0  0  0
  -22.7738  -13.5178   21.1869 C   0  0  0  0  0  0
  -22.1652   -4.2146   21.0981 F   0  0  0  0  0  0
  -21.5622   -3.4535   25.7729 F   0  0  0  0  0  0
  -29.8430  -14.0915   20.3295 N   0  0  0  0  0  0
  -26.2806  -12.9576   20.3239 N   0  0  0  0  0  0
  -25.9349  -11.6658   20.5703 N   0  0  0  0  0  0
  -22.0402  -12.8177   22.0439 N   0  0  0  0  0  0
  -25.3978  -15.1987   20.4188 N   0  0  0  0  0  0
  -31.6135  -15.3722   20.1148 O   0  0  0  0  0  0
  -21.6650   -6.8877   21.4238 O   0  0  0  0  0  0
  -22.3428  -14.5473   20.6693 O   0  0  0  0  0  0
  -24.6726  -31.8121   23.1639 C   0  0  0  0  0  0
  -25.9355  -32.4539   23.8131 C   0  0  1  0  0  0
  -27.2179  -26.8218   20.2058 C   0  0  0  0  0  0
  -25.5992  -33.8362   24.2041 N   0  0  0  0  0  0
  -23.4938  -30.4201   21.5126 C   0  0  2  0  0  0
  -24.9503  -28.7895   20.1110 C   0  0  0  0  0  0
  -22.7721  -29.4376   22.4735 C   0  0  0  0  0  0
  -18.0332  -28.1418   22.8472 C   0  0  0  0  0  0
  -24.1476  -36.7168   23.2654 C   0  0  0  0  0  0
  -26.0669  -30.5859   21.4089 C   0  0  0  0  0  0
  -26.1338  -29.1632   20.7598 C   0  0  0  0  0  0
  -27.2555  -28.2011   20.7840 C   0  0  0  0  0  0
  -26.0099  -26.6347   19.4904 C   0  0  0  0  0  0
  -24.9210  -27.5491   19.4534 C   0  0  0  0  0  0
  -23.7404  -29.7297   20.1418 C   0  0  0  0  0  0
  -25.4125  -36.2934   24.0301 C   0  0  1  0  0  0
  -20.5965  -28.3759   23.1168 C   0  0  2  0  0  0
  -20.6794  -26.9428   22.5402 C   0  0  0  0  0  0
  -19.5765  -26.6373   21.5221 C   0  0  0  0  0  0
  -18.1948  -26.7957   22.1626 C   0  0  0  0  0  0
  -19.1596  -28.8911   23.2805 C   0  0  0  0  0  0
  -18.9502  -30.1502   23.8837 C   0  0  0  0  0  0
  -17.6490  -30.6602   24.0558 C   0  0  0  0  0  0
  -25.9094  -34.9321   23.4985 C   0  0  0  0  0  0
  -16.5376  -29.9087   23.6354 C   0  0  0  0  0  0
  -16.7315  -28.6513   23.0372 C   0  0  0  0  0  0
  -26.4579  -31.6533   25.0695 C   0  0  0  0  0  0
  -25.3690  -31.3819   26.1343 C   0  0  0  0  0  0
  -27.0489  -30.2896   24.6486 C   0  0  0  0  0  0
  -27.6061  -32.4354   25.7505 C   0  0  0  0  0  0
  -27.5549  -37.1746   24.8477 C   0  0  0  0  0  0
  -21.4371  -29.3030   22.3500 N   0  0  0  0  0  0
  -26.4260  -37.3684   23.9418 N   0  0  0  0  0  0
  -24.7669  -30.9692   22.0820 N   0  0  0  0  0  0
  -23.4232  -28.7950   23.3006 O   0  0  0  0  0  0
  -28.1686  -25.6394   20.3264 O   0  0  0  0  0  0
  -26.5694  -34.8881   22.4572 O   0  0  0  0  0  0
  -23.5763  -32.1119   23.6672 O   0  0  0  0  0  0
  -28.6054  -22.4283   20.3926 C   0  0  0  0  0  0
  -29.1729  -20.0219   20.4063 C   0  0  0  0  0  0
  -31.4021  -18.6604   20.2137 C   0  0  0  0  0  0
  -29.6478  -18.3089   18.4897 C   0  0  0  0  0  0
  -29.2054  -19.9222   22.9326 C   0  0  0  0  0  0
  -27.8826  -24.0173   19.9302 C   0  0  0  0  0  0
  -29.8971  -18.4072   20.0060 C   0  0  0  0  0  0
  -28.9396  -21.2119   19.6089 N   0  0  0  0  0  0
  -28.6443  -21.9580   21.6580 N   0  0  0  0  0  0
  -29.0078  -20.5727   21.6494 N   0  0  0  0  0  0
  -29.6669  -16.7588   20.4587 N   0  0  0  0  0  0
  -31.4496  -13.1280   19.2197 H   0  0  0  0  0  0
  -30.5174  -12.0351   20.1854 H   0  0  0  0  0  0
  -29.9605  -11.7797   17.7455 H   0  0  0  0  0  0
  -29.5519  -13.4773   17.6431 H   0  0  0  0  0  0
  -28.0875  -11.2913   19.1428 H   0  0  0  0  0  0
  -27.4348  -12.3050   17.8792 H   0  0  0  0  0  0
  -27.5008  -14.2424   19.2959 H   0  0  0  0  0  0
  -28.8340  -12.6215   21.5166 H   0  0  0  0  0  0
  -28.2334  -14.2542   21.6782 H   0  0  0  0  0  0
  -25.2769   -9.5667   22.4768 H   0  0  0  0  0  0
  -23.9998   -7.4635   22.7487 H   0  0  0  0  0  0
  -21.0851   -8.8791   19.8965 H   0  0  0  0  0  0
  -22.3737  -10.9662   19.6153 H   0  0  0  0  0  0
  -21.2044   -7.6154   23.9716 H   0  0  0  0  0  0
  -21.1469   -6.0520   25.9072 H   0  0  0  0  0  0
  -22.0602   -2.7611   23.2841 H   0  0  0  0  0  0
  -22.4025  -11.9860   22.4851 H   0  0  0  0  0  0
  -21.1007  -13.1182   22.2611 H   0  0  0  0  0  0
  -24.6250  -15.8459   20.5262 H   0  0  0  0  0  0
  -26.2395  -15.6399   20.0716 H   0  0  0  0  0  0
  -26.7429  -32.5048   23.0848 H   0  0  0  0  0  0
  -25.0159  -33.9426   25.0210 H   0  0  0  0  0  0
  -22.8120  -31.2543   21.3347 H   0  0  0  0  0  0
  -23.3744  -35.9489   23.3297 H   0  0  0  0  0  0
  -24.3565  -36.8830   22.2073 H   0  0  0  0  0  0
  -23.7226  -37.6352   23.6714 H   0  0  0  0  0  0
  -26.2484  -31.3162   20.6185 H   0  0  0  0  0  0
  -26.9273  -30.6564   22.0626 H   0  0  0  0  0  0
  -28.1401  -28.4828   21.3388 H   0  0  0  0  0  0
  -25.8603  -25.6905   18.9878 H   0  0  0  0  0  0
  -24.0277  -27.2564   18.9194 H   0  0  0  0  0  0
  -23.9040  -30.4954   19.3827 H   0  0  0  0  0  0
  -22.8484  -29.1893   19.8217 H   0  0  0  0  0  0
  -25.1326  -36.1710   25.0793 H   0  0  0  0  0  0
  -21.0054  -28.3354   24.1293 H   0  0  0  0  0  0
  -20.5645  -26.2377   23.3652 H   0  0  0  0  0  0
  -21.6653  -26.7372   22.1215 H   0  0  0  0  0  0
  -19.6903  -25.6268   21.1283 H   0  0  0  0  0  0
  -19.6707  -27.3155   20.6730 H   0  0  0  0  0  0
  -17.4215  -26.6720   21.4022 H   0  0  0  0  0  0
  -18.0317  -26.0117   22.9031 H   0  0  0  0  0  0
  -19.7973  -30.7342   24.2165 H   0  0  0  0  0  0
  -17.5043  -31.6282   24.5157 H   0  0  0  0  0  0
  -15.5373  -30.2962   23.7722 H   0  0  0  0  0  0
  -15.8726  -28.0818   22.7108 H   0  0  0  0  0  0
  -24.5892  -30.7139   25.7664 H   0  0  0  0  0  0
  -24.8848  -32.3027   26.4599 H   0  0  0  0  0  0
  -25.7904  -30.9110   27.0233 H   0  0  0  0  0  0
  -26.3181  -29.6562   24.1441 H   0  0  0  0  0  0
  -27.3945  -29.7284   25.5177 H   0  0  0  0  0  0
  -27.9154  -30.4079   23.9980 H   0  0  0  0  0  0
  -27.2645  -33.3734   26.1905 H   0  0  0  0  0  0
  -28.3976  -32.6787   25.0400 H   0  0  0  0  0  0
  -28.0613  -31.8586   26.5572 H   0  0  0  0  0  0
  -28.2550  -38.0048   24.7487 H   0  0  0  0  0  0
  -28.1040  -36.2565   24.6321 H   0  0  0  0  0  0
  -27.2269  -37.1427   25.8881 H   0  0  0  0  0  0
  -20.9621  -29.8745   21.6651 H   0  0  0  0  0  0
  -26.0080  -38.2725   24.1429 H   0  0  0  0  0  0
  -31.7109  -19.5974   19.7491 H   0  0  0  0  0  0
  -32.0266  -17.8784   19.7847 H   0  0  0  0  0  0
  -31.6362  -18.7380   21.2739 H   0  0  0  0  0  0
  -30.0094  -19.1933   17.9643 H   0  0  0  0  0  0
  -28.5809  -18.2226   18.2792 H   0  0  0  0  0  0
  -30.1454  -17.4483   18.0420 H   0  0  0  0  0  0
  -28.9911  -18.8562   22.8543 H   0  0  0  0  0  0
  -28.5456  -20.3551   23.6871 H   0  0  0  0  0  0
  -30.2400  -20.0488   23.2498 H   0  0  0  0  0  0
  -26.8266  -23.8902   20.1673 H   0  0  0  0  0  0
  -27.8973  -24.0160   18.8406 H   0  0  0  0  0  0
  -28.7055  -16.5999   20.7275 H   0  0  0  0  0  0
  1 25  1  0  0  0
  1 30  2  0  0  0
  1 81  1  0  0  0
  2  3  1  0  0  0
  2 25  1  0  0  0
  2 82  1  0  0  0
  2 83  1  0  0  0
  3  4  1  0  0  0
  3 84  1  0  0  0
  3 85  1  0  0  0
  4  5  1  0  0  0
  4 86  1  0  0  0
  4 87  1  0  0  0
  5  6  1  0  0  0
  5 26  1  0  0  0
  5 88  1  0  0  0
  6 25  1  0  0  0
  6 89  1  0  0  0
  6 90  1  0  0  0
  7  8  2  0  0  0
  7 26  1  0  0  0
  7 29  1  0  0  0
  8  9  1  0  0  0
  8 22  1  0  0  0
  9 10  1  0  0  0
  9 27  2  0  0  0
 10 11  2  0  0  0
 10 15  1  0  0  0
 11 12  1  0  0  0
 11 91  1  0  0  0
 12 13  2  0  0  0
 12 92  1  0  0  0
 13 14  1  0  0  0
 13 31  1  0  0  0
 14 15  2  0  0  0
 14 93  1  0  0  0
 15 94  1  0  0  0
 16 17  2  0  0  0
 16 21  1  0  0  0
 16 31  1  0  0  0
 17 18  1  0  0  0
 17 95  1  0  0  0
 18 19  2  0  0  0
 18 96  1  0  0  0
 19 20  1  0  0  0
 19 24  1  0  0  0
 20 21  2  0  0  0
 20 97  1  0  0  0
 21 23  1  0  0  0
 22 28  1  0  0  0
 22 32  2  0  0  0
 26 27  1  0  0  0
 28 98  1  0  0  0
 28 99  1  0  0  0
 29100  1  0  0  0
 29101  1  0  0  0
 33 34  1  0  0  0
 33 66  1  0  0  0
 33 70  2  0  0  0
 34 36  1  0  0  0
 34 59  1  0  0  0
 34102  1  0  0  0
 35 44  2  0  0  0
 35 45  1  0  0  0
 35 68  1  0  0  0
 36 56  1  0  0  0
 36103  1  0  0  0
 37 39  1  0  0  0
 37 47  1  0  0  0
 37 66  1  0  0  0
 37104  1  0  0  0
 38 43  2  0  0  0
 38 46  1  0  0  0
 38 47  1  0  0  0
 39 64  1  0  0  0
 39 67  2  0  0  0
 40 52  1  0  0  0
 40 53  2  0  0  0
 40 58  1  0  0  0
 41105  1  0  0  0
 41106  1  0  0  0
 41107  1  0  0  0
 41 48  1  0  0  0
 42 43  1  0  0  0
 42 66  1  0  0  0
 42108  1  0  0  0
 42109  1  0  0  0
 43 44  1  0  0  0
 44110  1  0  0  0
 45 46  2  0  0  0
 45111  1  0  0  0
 46112  1  0  0  0
 47113  1  0  0  0
 47114  1  0  0  0
 48 56  1  0  0  0
 48 65  1  0  0  0
 48115  1  0  0  0
 49 50  1  0  0  0
 49 53  1  0  0  0
 49 64  1  0  0  0
 49116  1  0  0  0
 50 51  1  0  0  0
 50117  1  0  0  0
 50118  1  0  0  0
 51 52  1  0  0  0
 51119  1  0  0  0
 51120  1  0  0  0
 52121  1  0  0  0
 52122  1  0  0  0
 53 54  1  0  0  0
 54 55  2  0  0  0
 54123  1  0  0  0
 55 57  1  0  0  0
 55124  1  0  0  0
 56 69  2  0  0  0
 57 58  2  0  0  0
 57125  1  0  0  0
 58126  1  0  0  0
 59 60  1  0  0  0
 59 61  1  0  0  0
 59 62  1  0  0  0
 60127  1  0  0  0
 60128  1  0  0  0
 60129  1  0  0  0
 61130  1  0  0  0
 61131  1  0  0  0
 61132  1  0  0  0
 62133  1  0  0  0
 62134  1  0  0  0
 62135  1  0  0  0
 63 65  1  0  0  0
 63136  1  0  0  0
 63137  1  0  0  0
 63138  1  0  0  0
 64139  1  0  0  0
 65140  1  0  0  0
 68 76  1  0  0  0
 71 76  1  0  0  0
 71 78  1  0  0  0
 71 79  2  0  0  0
 72 77  1  0  0  0
 72 78  2  0  0  0
 72 80  1  0  0  0
 73141  1  0  0  0
 73142  1  0  0  0
 73143  1  0  0  0
 73 77  1  0  0  0
 74 77  1  0  0  0
 74144  1  0  0  0
 74145  1  0  0  0
 74146  1  0  0  0
 75 80  1  0  0  0
 75147  1  0  0  0
 75148  1  0  0  0
 75149  1  0  0  0
 76150  1  0  0  0
 76151  1  0  0  0
 77 81  1  0  0  0
 79 80  1  0  0  0
 81152  1  0  0  0
M  ISO  4   1 100  68 101  76 101  81 100
M  END
> <chiral flag>
0

> <version>
0

> <s_m_source_file>
/data/baiqing/PycharmProjects/Reinvent-master-3.2/result/LINK_invent/BTK/process_docking_weight1_custom_sum_contain_oxygen_bond_distance_aromatic_linkinvent_7_9_3/rearranged_h_0061.sdf

> <i_m_source_file_index>
5

> <r_mmod_Potential_Energy-OPLS-2005>
1706.69067382812

> <r_mmod_Stretch_Energy-OPLS-2005>
770.362854003906

> <r_mmod_Bend_Energy-OPLS-2005>
580.252868652344

> <r_mmod_Torsional_Energy-OPLS-2005>
210.918273925781

> <r_mmod_Improper_Torsional_Energy-OPLS-2005>
8.35218334197998

> <r_mmod_Van_der_Waal_Energy-OPLS-2005>
105.940872192383

> <r_mmod_Electrostatic_Energy-OPLS-2005>
-370.594482421875

> <r_mmod_Solvation_Energy-OPLS-2005>
-237.741439819336

> <b_mmod_Minimization_Converged-OPLS-2005>
0

> <r_mmod_RMS_Derivative-OPLS-2005>
2.38004088401794

$$$$
5
                    3D
 Structure written by MMmdl.
175183  0  0  1  0            999 V2000
  -30.6126  -14.8357   20.3962 C   0  0  0  0  0  0
  -30.4296  -12.5069   19.4823 C   0  0  0  0  0  0
  -29.5108  -12.4815   18.2407 C   0  0  0  0  0  0
  -28.0481  -12.2314   18.6564 C   0  0  0  0  0  0
  -27.6171  -13.1651   19.8100 C   0  0  2  0  0  0
  -28.6664  -13.2290   20.9479 C   0  0  0  0  0  0
  -25.2481  -13.8006   20.5629 C   0  0  0  0  0  0
  -24.1740  -13.0347   20.9212 C   0  0  0  0  0  0
  -24.6276  -11.6826   20.8774 C   0  0  0  0  0  0
  -23.8950  -10.4263   21.0447 C   0  0  0  0  0  0
  -24.3556   -9.4195   21.9197 C   0  0  0  0  0  0
  -23.6247   -8.2226   22.0761 C   0  0  0  0  0  0
  -22.4229   -8.0278   21.3555 C   0  0  0  0  0  0
  -21.9849   -9.0227   20.4645 C   0  0  0  0  0  0
  -22.7156  -10.2108   20.3052 C   0  0  0  0  0  0
  -21.6835   -6.0731   22.5284 C   0  0  0  0  0  0
  -21.4018   -6.5633   23.8219 C   0  0  0  0  0  0
  -21.3638   -5.6788   24.9173 C   0  0  0  0  0  0
  -21.6025   -4.3049   24.7235 C   0  0  0  0  0  0
  -21.8831   -3.8141   23.4355 C   0  0  0  0  0  0
  -21.9192   -4.6964   22.3410 C   0  0  0  0  0  0
  -22.7800  -13.5231   21.1875 C   0  0  0  0  0  0
  -22.1653   -4.2172   21.0983 F   0  0  0  0  0  0
  -21.5617   -3.4521   25.7731 F   0  0  0  0  0  0
  -29.9634  -13.6060   20.3684 N   0  0  0  0  0  0
  -26.2793  -12.9046   20.3120 N   0  0  0  0  0  0
  -25.9151  -11.6296   20.5693 N   0  0  0  0  0  0
  -22.0392  -12.8252   22.0423 N   0  0  0  0  0  0
  -25.4206  -15.1697   20.4058 N   0  0  0  0  0  0
  -31.8400  -14.8057   20.2712 O   0  0  0  0  0  0
  -21.6615   -6.8856   21.4238 O   0  0  0  0  0  0
  -22.3537  -14.5552   20.6722 O   0  0  0  0  0  0
  -24.6306  -31.8536   23.1953 C   0  0  0  0  0  0
  -25.9137  -32.4748   23.8315 C   0  0  1  0  0  0
  -27.2287  -27.2528   20.1692 C   0  0  0  0  0  0
  -25.5928  -33.8553   24.2230 N   0  0  0  0  0  0
  -23.4306  -30.4753   21.5351 C   0  0  2  0  0  0
  -24.8840  -28.9111   20.1263 C   0  0  0  0  0  0
  -22.7493  -29.4629   22.4874 C   0  0  0  0  0  0
  -18.0288  -28.1415   22.8483 C   0  0  0  0  0  0
  -24.1487  -36.7303   23.2644 C   0  0  0  0  0  0
  -25.9763  -30.7639   21.3809 C   0  0  0  0  0  0
  -26.0511  -29.3794   20.7430 C   0  0  0  0  0  0
  -27.2266  -28.5628   20.7542 C   0  0  0  0  0  0
  -26.0461  -26.8576   19.5160 C   0  0  0  0  0  0
  -24.8851  -27.6545   19.5014 C   0  0  0  0  0  0
  -23.6565  -29.8002   20.1563 C   0  0  0  0  0  0
  -25.4107  -36.3083   24.0326 C   0  0  1  0  0  0
  -20.5886  -28.3747   23.1244 C   0  0  2  0  0  0
  -20.6773  -26.9457   22.5412 C   0  0  0  0  0  0
  -19.5756  -26.6400   21.5212 C   0  0  0  0  0  0
  -18.1924  -26.7957   22.1610 C   0  0  0  0  0  0
  -19.1533  -28.8895   23.2861 C   0  0  0  0  0  0
  -18.9463  -30.1482   23.8905 C   0  0  0  0  0  0
  -17.6467  -30.6608   24.0586 C   0  0  0  0  0  0
  -25.9045  -34.9449   23.5083 C   0  0  0  0  0  0
  -16.5357  -29.9117   23.6339 C   0  0  0  0  0  0
  -16.7287  -28.6542   23.0350 C   0  0  0  0  0  0
  -26.4495  -31.6579   25.0710 C   0  0  0  0  0  0
  -25.3698  -31.3726   26.1413 C   0  0  0  0  0  0
  -27.0377  -30.3010   24.6228 C   0  0  0  0  0  0
  -27.6044  -32.4343   25.7453 C   0  0  0  0  0  0
  -27.5573  -37.1795   24.8463 C   0  0  0  0  0  0
  -21.4194  -29.3093   22.3622 N   0  0  0  0  0  0
  -26.4295  -37.3765   23.9412 N   0  0  0  0  0  0
  -24.6980  -31.0511   22.0920 N   0  0  0  0  0  0
  -23.4180  -28.8147   23.2976 O   0  0  0  0  0  0
  -28.3526  -26.4028   20.0919 O   0  0  0  0  0  0
  -26.5631  -34.8919   22.4655 O   0  0  0  0  0  0
  -23.5468  -32.1370   23.7236 O   0  0  0  0  0  0
  -28.6091  -21.1667   21.2476 C   0  0  0  0  0  0
  -29.4741  -20.1573   20.8533 C   0  0  0  0  0  0
  -29.9321  -22.0285   19.6887 C   0  0  0  0  0  0
  -30.6868  -24.2737   18.6455 C   0  0  0  0  0  0
  -29.8652  -22.3796   17.2053 C   0  0  0  0  0  0
  -32.0602  -22.2615   18.3435 C   0  0  0  0  0  0
  -28.3980  -16.3491   20.1015 C   0  0  0  0  0  0
  -30.3949  -16.7247   18.7386 C   0  0  0  0  0  0
  -27.2064  -23.6003   19.0902 C   0  0  0  0  0  0
  -26.7914  -23.3909   21.4944 C   0  0  0  0  0  0
  -30.4166  -17.6056   21.0627 C   0  0  0  0  0  0
  -28.4919  -25.1124   20.8569 C   0  0  0  0  0  0
  -30.5995  -22.7453   18.5117 C   0  0  0  0  0  0
  -29.9400  -16.3310   20.1638 C   0  0  0  0  0  0
  -27.9286  -23.6179   20.4564 C   0  0  0  0  0  0
  -28.8607  -22.3382   20.4985 N   0  0  0  0  0  0
  -30.2779  -20.7338   19.9247 N   0  3  0  0  0  0
  -29.4635  -18.7733   21.2735 N   0  0  0  0  0  0
  -31.4650  -12.6419   19.1664 H   0  0  0  0  0  0
  -30.4007  -11.5496   20.0045 H   0  0  0  0  0  0
  -29.8408  -11.7158   17.5380 H   0  0  0  0  0  0
  -29.5901  -13.4317   17.7124 H   0  0  0  0  0  0
  -27.9571  -11.1883   18.9619 H   0  0  0  0  0  0
  -27.3845  -12.3522   17.7991 H   0  0  0  0  0  0
  -27.5325  -14.1007   19.2946 H   0  0  0  0  0  0
  -28.7426  -12.2592   21.4405 H   0  0  0  0  0  0
  -28.3754  -13.9238   21.7338 H   0  0  0  0  0  0
  -25.2717   -9.5699   22.4740 H   0  0  0  0  0  0
  -23.9991   -7.4624   22.7471 H   0  0  0  0  0  0
  -21.0784   -8.8725   19.8935 H   0  0  0  0  0  0
  -22.3632  -10.9642   19.6147 H   0  0  0  0  0  0
  -21.2022   -7.6145   23.9734 H   0  0  0  0  0  0
  -21.1422   -6.0505   25.9077 H   0  0  0  0  0  0
  -22.0627   -2.7612   23.2838 H   0  0  0  0  0  0
  -22.3985  -11.9915   22.4826 H   0  0  0  0  0  0
  -21.1016  -13.1318   22.2574 H   0  0  0  0  0  0
  -24.6663  -15.8336   20.5461 H   0  0  0  0  0  0
  -26.2901  -15.6076   20.1288 H   0  0  0  0  0  0
  -26.7208  -32.5390   23.1049 H   0  0  0  0  0  0
  -25.0089  -33.9698   25.0405 H   0  0  0  0  0  0
  -22.7310  -31.2981   21.3763 H   0  0  0  0  0  0
  -23.3757  -35.9631   23.3297 H   0  0  0  0  0  0
  -24.3594  -36.8954   22.2068 H   0  0  0  0  0  0
  -23.7243  -37.6491   23.6691 H   0  0  0  0  0  0
  -26.1145  -31.5120   20.5992 H   0  0  0  0  0  0
  -26.8549  -30.8212   22.0113 H   0  0  0  0  0  0
  -28.1244  -28.9277   21.2330 H   0  0  0  0  0  0
  -26.0178  -25.9270   18.9826 H   0  0  0  0  0  0
  -23.9993  -27.2929   18.9971 H   0  0  0  0  0  0
  -23.7884  -30.5701   19.3951 H   0  0  0  0  0  0
  -22.7774  -29.2314   19.8455 H   0  0  0  0  0  0
  -25.1280  -36.1923   25.0822 H   0  0  0  0  0  0
  -20.9972  -28.3363   24.1357 H   0  0  0  0  0  0
  -20.5662  -26.2375   23.3636 H   0  0  0  0  0  0
  -21.6644  -26.7454   22.1209 H   0  0  0  0  0  0
  -19.6921  -25.6302   21.1259 H   0  0  0  0  0  0
  -19.6689  -27.3196   20.6725 H   0  0  0  0  0  0
  -17.4181  -26.6745   21.4008 H   0  0  0  0  0  0
  -18.0307  -26.0084   22.8987 H   0  0  0  0  0  0
  -19.7934  -30.7295   24.2281 H   0  0  0  0  0  0
  -17.5016  -31.6270   24.5209 H   0  0  0  0  0  0
  -15.5363  -30.3017   23.7656 H   0  0  0  0  0  0
  -15.8686  -28.0866   22.7049 H   0  0  0  0  0  0
  -24.5953  -30.6974   25.7750 H   0  0  0  0  0  0
  -24.8775  -32.2869   26.4732 H   0  0  0  0  0  0
  -25.8004  -30.9009   27.0252 H   0  0  0  0  0  0
  -26.2989  -29.6698   24.1273 H   0  0  0  0  0  0
  -27.4097  -29.7329   25.4760 H   0  0  0  0  0  0
  -27.8826  -30.4308   23.9465 H   0  0  0  0  0  0
  -27.2687  -33.3698   26.1937 H   0  0  0  0  0  0
  -28.3864  -32.6814   25.0260 H   0  0  0  0  0  0
  -28.0690  -31.8523   26.5419 H   0  0  0  0  0  0
  -28.2569  -38.0108   24.7508 H   0  0  0  0  0  0
  -28.1083  -36.2632   24.6266 H   0  0  0  0  0  0
  -27.2307  -37.1431   25.8873 H   0  0  0  0  0  0
  -20.9392  -29.8867   21.6863 H   0  0  0  0  0  0
  -26.0169  -38.2841   24.1406 H   0  0  0  0  0  0
  -27.8044  -21.0871   21.9601 H   0  0  0  0  0  0
  -29.7231  -24.7594   18.5666 H   0  0  0  0  0  0
  -31.2817  -24.6982   17.8348 H   0  0  0  0  0  0
  -31.1619  -24.5701   19.5814 H   0  0  0  0  0  0
  -28.8429  -22.7475   17.1726 H   0  0  0  0  0  0
  -29.8297  -21.2987   17.0580 H   0  0  0  0  0  0
  -30.3680  -22.8017   16.3361 H   0  0  0  0  0  0
  -32.6401  -22.4202   19.2536 H   0  0  0  0  0  0
  -32.5642  -22.7999   17.5380 H   0  0  0  0  0  0
  -32.1252  -21.2055   18.0823 H   0  0  0  0  0  0
  -27.9622  -17.3431   20.0757 H   0  0  0  0  0  0
  -27.9328  -15.8459   20.9430 H   0  0  0  0  0  0
  -28.0617  -15.9687   19.1432 H   0  0  0  0  0  0
  -29.9378  -17.6559   18.4040 H   0  0  0  0  0  0
  -30.1258  -15.9587   18.0106 H   0  0  0  0  0  0
  -31.4768  -16.8554   18.6876 H   0  0  0  0  0  0
  -26.1612  -23.8882   19.1694 H   0  0  0  0  0  0
  -27.1738  -22.5940   18.6733 H   0  0  0  0  0  0
  -27.6581  -24.2584   18.3525 H   0  0  0  0  0  0
  -26.0656  -24.2055   21.4769 H   0  0  0  0  0  0
  -27.1757  -23.3344   22.5151 H   0  0  0  0  0  0
  -26.2191  -22.4837   21.2994 H   0  0  0  0  0  0
  -31.3744  -17.9903   20.7072 H   0  0  0  0  0  0
  -30.6407  -17.2325   22.0640 H   0  0  0  0  0  0
  -29.5616  -25.0059   21.0315 H   0  0  0  0  0  0
  -28.1460  -25.3599   21.8617 H   0  0  0  0  0  0
  -31.0088  -20.2559   19.4178 H   0  0  0  0  0  0
  -28.7309  -18.5594   21.9403 H   0  0  0  0  0  0
  1 25  1  0  0  0
  1 30  2  0  0  0
  1 84  1  0  0  0
  2  3  1  0  0  0
  2 25  1  0  0  0
  2 89  1  0  0  0
  2 90  1  0  0  0
  3  4  1  0  0  0
  3 91  1  0  0  0
  3 92  1  0  0  0
  4  5  1  0  0  0
  4 93  1  0  0  0
  4 94  1  0  0  0
  5  6  1  0  0  0
  5 26  1  0  0  0
  5 95  1  0  0  0
  6 25  1  0  0  0
  6 96  1  0  0  0
  6 97  1  0  0  0
  7  8  2  0  0  0
  7 26  1  0  0  0
  7 29  1  0  0  0
  8  9  1  0  0  0
  8 22  1  0  0  0
  9 10  1  0  0  0
  9 27  2  0  0  0
 10 11  2  0  0  0
 10 15  1  0  0  0
 11 12  1  0  0  0
 11 98  1  0  0  0
 12 13  2  0  0  0
 12 99  1  0  0  0
 13 14  1  0  0  0
 13 31  1  0  0  0
 14 15  2  0  0  0
 14100  1  0  0  0
 15101  1  0  0  0
 16 17  2  0  0  0
 16 21  1  0  0  0
 16 31  1  0  0  0
 17 18  1  0  0  0
 17102  1  0  0  0
 18 19  2  0  0  0
 18103  1  0  0  0
 19 20  1  0  0  0
 19 24  1  0  0  0
 20 21  2  0  0  0
 20104  1  0  0  0
 21 23  1  0  0  0
 22 28  1  0  0  0
 22 32  2  0  0  0
 26 27  1  0  0  0
 28105  1  0  0  0
 28106  1  0  0  0
 29107  1  0  0  0
 29108  1  0  0  0
 33 34  1  0  0  0
 33 66  1  0  0  0
 33 70  2  0  0  0
 34 36  1  0  0  0
 34 59  1  0  0  0
 34109  1  0  0  0
 35 44  2  0  0  0
 35 45  1  0  0  0
 35 68  1  0  0  0
 36 56  1  0  0  0
 36110  1  0  0  0
 37 39  1  0  0  0
 37 47  1  0  0  0
 37 66  1  0  0  0
 37111  1  0  0  0
 38 43  2  0  0  0
 38 46  1  0  0  0
 38 47  1  0  0  0
 39 64  1  0  0  0
 39 67  2  0  0  0
 40 52  1  0  0  0
 40 53  2  0  0  0
 40 58  1  0  0  0
 41112  1  0  0  0
 41113  1  0  0  0
 41114  1  0  0  0
 41 48  1  0  0  0
 42 43  1  0  0  0
 42 66  1  0  0  0
 42115  1  0  0  0
 42116  1  0  0  0
 43 44  1  0  0  0
 44117  1  0  0  0
 45 46  2  0  0  0
 45118  1  0  0  0
 46119  1  0  0  0
 47120  1  0  0  0
 47121  1  0  0  0
 48 56  1  0  0  0
 48 65  1  0  0  0
 48122  1  0  0  0
 49 50  1  0  0  0
 49 53  1  0  0  0
 49 64  1  0  0  0
 49123  1  0  0  0
 50 51  1  0  0  0
 50124  1  0  0  0
 50125  1  0  0  0
 51 52  1  0  0  0
 51126  1  0  0  0
 51127  1  0  0  0
 52128  1  0  0  0
 52129  1  0  0  0
 53 54  1  0  0  0
 54 55  2  0  0  0
 54130  1  0  0  0
 55 57  1  0  0  0
 55131  1  0  0  0
 56 69  2  0  0  0
 57 58  2  0  0  0
 57132  1  0  0  0
 58133  1  0  0  0
 59 60  1  0  0  0
 59 61  1  0  0  0
 59 62  1  0  0  0
 60134  1  0  0  0
 60135  1  0  0  0
 60136  1  0  0  0
 61137  1  0  0  0
 61138  1  0  0  0
 61139  1  0  0  0
 62140  1  0  0  0
 62141  1  0  0  0
 62142  1  0  0  0
 63 65  1  0  0  0
 63143  1  0  0  0
 63144  1  0  0  0
 63145  1  0  0  0
 64146  1  0  0  0
 65147  1  0  0  0
 68 82  1  0  0  0
 71 72  2  0  0  0
 71 86  1  0  0  0
 71148  1  0  0  0
 72 87  1  0  0  0
 72 88  1  0  0  0
 73 83  1  0  0  0
 73 86  1  0  0  0
 73 87  2  0  0  0
 74149  1  0  0  0
 74150  1  0  0  0
 74151  1  0  0  0
 74 83  1  0  0  0
 75 83  1  0  0  0
 75152  1  0  0  0
 75153  1  0  0  0
 75154  1  0  0  0
 76 83  1  0  0  0
 76155  1  0  0  0
 76156  1  0  0  0
 76157  1  0  0  0
 77158  1  0  0  0
 77159  1  0  0  0
 77160  1  0  0  0
 77 84  1  0  0  0
 78 84  1  0  0  0
 78161  1  0  0  0
 78162  1  0  0  0
 78163  1  0  0  0
 79164  1  0  0  0
 79165  1  0  0  0
 79166  1  0  0  0
 79 85  1  0  0  0
 80 85  1  0  0  0
 80167  1  0  0  0
 80168  1  0  0  0
 80169  1  0  0  0
 81 84  1  0  0  0
 81 88  1  0  0  0
 81170  1  0  0  0
 81171  1  0  0  0
 82 85  1  0  0  0
 82172  1  0  0  0
 82173  1  0  0  0
 85 86  1  0  0  0
 87174  1  0  0  0
 88175  1  0  0  0
M  CHG  1  87   1
M  ISO  4   1 100  68 101  82 101  84 100
M  END
> <chiral flag>
0

> <version>
0

> <s_m_source_file>
/data/baiqing/PycharmProjects/Reinvent-master-3.2/result/LINK_invent/BTK/process_docking_weight1_custom_sum_contain_oxygen_bond_distance_aromatic_linkinvent_7_9_3/rearranged_h_0061.sdf

> <i_m_source_file_index>
6

> <r_mmod_Potential_Energy-OPLS-2005>
443.969940185547

> <r_mmod_Stretch_Energy-OPLS-2005>
156.856552124023

> <r_mmod_Bend_Energy-OPLS-2005>
301.154571533203

> <r_mmod_Torsional_Energy-OPLS-2005>
334.349487304688

> <r_mmod_Improper_Torsional_Energy-OPLS-2005>
12.7703847885132

> <r_mmod_Van_der_Waal_Energy-OPLS-2005>
152.855773925781

> <r_mmod_Electrostatic_Energy-OPLS-2005>
-243.348602294922

> <r_mmod_Solvation_Energy-OPLS-2005>
-383.578948974609

> <b_mmod_Minimization_Converged-OPLS-2005>
0

> <r_mmod_RMS_Derivative-OPLS-2005>
3.99720644950867

$$$$
6
                    3D
 Structure written by MMmdl.
163171  0  0  1  0            999 V2000
  -30.8578  -14.3494   20.6274 C   0  0  0  0  0  0
  -30.3957  -12.2685   19.3992 C   0  0  0  0  0  0
  -29.4849  -12.5244   18.1866 C   0  0  0  0  0  0
  -28.0060  -12.4113   18.6018 C   0  0  0  0  0  0
  -27.6716  -13.2283   19.8796 C   0  0  2  0  0  0
  -28.7234  -13.0155   20.9969 C   0  0  0  0  0  0
  -25.2638  -13.8205   20.5794 C   0  0  0  0  0  0
  -24.1884  -13.0459   20.9240 C   0  0  0  0  0  0
  -24.6424  -11.6915   20.8747 C   0  0  0  0  0  0
  -23.9063  -10.4291   21.0412 C   0  0  0  0  0  0
  -24.3603   -9.4220   21.9205 C   0  0  0  0  0  0
  -23.6290   -8.2251   22.0738 C   0  0  0  0  0  0
  -22.4277   -8.0262   21.3551 C   0  0  0  0  0  0
  -21.9909   -9.0234   20.4651 C   0  0  0  0  0  0
  -22.7235  -10.2121   20.3054 C   0  0  0  0  0  0
  -21.6853   -6.0719   22.5248 C   0  0  0  0  0  0
  -21.4027   -6.5616   23.8190 C   0  0  0  0  0  0
  -21.3672   -5.6770   24.9143 C   0  0  0  0  0  0
  -21.6046   -4.3030   24.7218 C   0  0  0  0  0  0
  -21.8840   -3.8120   23.4320 C   0  0  0  0  0  0
  -21.9207   -4.6954   22.3379 C   0  0  0  0  0  0
  -22.7906  -13.5277   21.1847 C   0  0  0  0  0  0
  -22.1710   -4.2136   21.0965 F   0  0  0  0  0  0
  -21.5582   -3.4529   25.7752 F   0  0  0  0  0  0
  -30.0668  -13.2568   20.4405 N   0  0  0  0  0  0
  -26.3113  -12.9414   20.3461 N   0  0  0  0  0  0
  -25.9379  -11.6546   20.5770 N   0  0  0  0  0  0
  -22.0491  -12.8262   22.0343 N   0  0  0  0  0  0
  -25.4389  -15.1918   20.4188 N   0  0  0  0  0  0
  -31.8967  -14.5174   19.9803 O   0  0  0  0  0  0
  -21.6637   -6.8872   21.4212 O   0  0  0  0  0  0
  -22.3637  -14.5580   20.6663 O   0  0  0  0  0  0
  -24.6115  -31.8717   23.2147 C   0  0  0  0  0  0
  -25.9011  -32.4843   23.8422 C   0  0  1  0  0  0
  -27.2400  -27.4721   20.0786 C   0  0  0  0  0  0
  -25.5889  -33.8643   24.2356 N   0  0  0  0  0  0
  -23.3978  -30.4959   21.5516 C   0  0  2  0  0  0
  -24.8437  -28.9616   20.1197 C   0  0  0  0  0  0
  -22.7398  -29.4669   22.4973 C   0  0  0  0  0  0
  -18.0268  -28.1388   22.8493 C   0  0  0  0  0  0
  -24.1492  -36.7320   23.2641 C   0  0  0  0  0  0
  -25.9241  -30.8431   21.3675 C   0  0  0  0  0  0
  -25.9993  -29.4785   20.7186 C   0  0  0  0  0  0
  -27.1961  -28.7322   20.7096 C   0  0  0  0  0  0
  -26.0620  -26.9500   19.4992 C   0  0  0  0  0  0
  -24.8658  -27.6919   19.5168 C   0  0  0  0  0  0
  -23.6089  -29.8315   20.1639 C   0  0  0  0  0  0
  -25.4108  -36.3126   24.0344 C   0  0  1  0  0  0
  -20.5859  -28.3670   23.1321 C   0  0  2  0  0  0
  -20.6753  -26.9400   22.5426 C   0  0  0  0  0  0
  -19.5740  -26.6396   21.5210 C   0  0  0  0  0  0
  -18.1911  -26.7938   22.1615 C   0  0  0  0  0  0
  -19.1517  -28.8838   23.2917 C   0  0  0  0  0  0
  -18.9444  -30.1442   23.8930 C   0  0  0  0  0  0
  -17.6451  -30.6598   24.0567 C   0  0  0  0  0  0
  -25.9029  -34.9491   23.5144 C   0  0  0  0  0  0
  -16.5344  -29.9102   23.6327 C   0  0  0  0  0  0
  -16.7262  -28.6522   23.0343 C   0  0  0  0  0  0
  -26.4458  -31.6615   25.0741 C   0  0  0  0  0  0
  -25.3727  -31.3719   26.1495 C   0  0  0  0  0  0
  -27.0289  -30.3064   24.6105 C   0  0  0  0  0  0
  -27.6061  -32.4318   25.7469 C   0  0  0  0  0  0
  -27.5587  -37.1817   24.8468 C   0  0  0  0  0  0
  -21.4118  -29.3042   22.3733 N   0  0  0  0  0  0
  -26.4306  -37.3798   23.9404 N   0  0  0  0  0  0
  -24.6612  -31.0829   22.1040 N   0  0  0  0  0  0
  -23.4186  -28.8197   23.2995 O   0  0  0  0  0  0
  -28.4387  -26.7970   20.0471 O   0  0  0  0  0  0
  -26.5581  -34.8934   22.4709 O   0  0  0  0  0  0
  -23.5298  -32.1456   23.7553 O   0  0  0  0  0  0
  -29.9659  -22.8579   20.8052 C   0  0  0  0  0  0
  -30.6377  -22.7859   18.7371 C   0  0  0  0  0  0
  -29.8141  -21.5728   20.3190 C   0  0  0  0  0  0
  -30.6198  -15.1007   22.9050 C   0  0  0  0  0  0
  -29.7305  -17.7731   21.3791 C   0  0  0  0  0  0
  -30.1609  -19.0983   20.7193 C   0  0  0  0  0  0
  -30.2199  -25.8708   18.7350 C   0  0  0  0  0  0
  -30.8984  -25.0203   19.8281 C   0  0  0  0  0  0
  -30.7900  -16.7086   21.0644 C   0  0  0  0  0  0
  -28.6986  -26.0033   18.8936 C   0  0  0  0  0  0
  -29.2819  -20.3316   21.0103 C   0  0  1  0  0  0
  -30.2156  -21.5490   18.9809 N   0  0  0  0  0  0
  -30.5088  -23.6201   19.7752 N   0  0  0  0  0  0
  -30.4337  -15.3278   21.4634 N   0  0  0  0  0  0
  -29.3422  -20.5973   22.4008 O   0  0  0  0  0  0
  -31.4420  -12.2974   19.0897 H   0  0  0  0  0  0
  -30.2341  -11.2624   19.7878 H   0  0  0  0  0  0
  -29.7010  -11.8192   17.3805 H   0  0  0  0  0  0
  -29.6881  -13.5200   17.7851 H   0  0  0  0  0  0
  -27.7913  -11.3575   18.7737 H   0  0  0  0  0  0
  -27.3596  -12.7215   17.7792 H   0  0  0  0  0  0
  -27.7146  -14.2812   19.5900 H   0  0  0  0  0  0
  -28.6742  -11.9980   21.3905 H   0  0  0  0  0  0
  -28.5089  -13.6747   21.8378 H   0  0  0  0  0  0
  -25.2746   -9.5679   22.4834 H   0  0  0  0  0  0
  -23.9978   -7.4623   22.7444 H   0  0  0  0  0  0
  -21.0833   -8.8716   19.9015 H   0  0  0  0  0  0
  -22.3640  -10.9635   19.6160 H   0  0  0  0  0  0
  -21.2055   -7.6142   23.9681 H   0  0  0  0  0  0
  -21.1489   -6.0509   25.9041 H   0  0  0  0  0  0
  -22.0630   -2.7586   23.2808 H   0  0  0  0  0  0
  -22.4017  -11.9925   22.4805 H   0  0  0  0  0  0
  -21.1112  -13.1326   22.2514 H   0  0  0  0  0  0
  -24.6843  -15.8599   20.5262 H   0  0  0  0  0  0
  -26.3019  -15.6191   20.1053 H   0  0  0  0  0  0
  -26.7087  -32.5567   23.1191 H   0  0  0  0  0  0
  -25.0027  -33.9813   25.0485 H   0  0  0  0  0  0
  -22.6842  -31.3115   21.4146 H   0  0  0  0  0  0
  -23.3751  -35.9660   23.3326 H   0  0  0  0  0  0
  -24.3581  -36.8903   22.2050 H   0  0  0  0  0  0
  -23.7253  -37.6540   23.6630 H   0  0  0  0  0  0
  -26.0361  -31.6088   20.5991 H   0  0  0  0  0  0
  -26.8124  -30.8966   21.9844 H   0  0  0  0  0  0
  -28.0929  -29.1312   21.1623 H   0  0  0  0  0  0
  -26.0568  -25.9754   19.0328 H   0  0  0  0  0  0
  -23.9726  -27.2847   19.0621 H   0  0  0  0  0  0
  -23.7289  -30.6104   19.4096 H   0  0  0  0  0  0
  -22.7323  -29.2561   19.8601 H   0  0  0  0  0  0
  -25.1286  -36.1997   25.0836 H   0  0  0  0  0  0
  -20.9969  -28.3246   24.1435 H   0  0  0  0  0  0
  -20.5643  -26.2277   23.3615 H   0  0  0  0  0  0
  -21.6628  -26.7435   22.1229 H   0  0  0  0  0  0
  -19.6891  -25.6310   21.1232 H   0  0  0  0  0  0
  -19.6691  -27.3213   20.6744 H   0  0  0  0  0  0
  -17.4191  -26.6715   21.4006 H   0  0  0  0  0  0
  -18.0298  -26.0076   22.9005 H   0  0  0  0  0  0
  -19.7919  -30.7246   24.2328 H   0  0  0  0  0  0
  -17.5009  -31.6276   24.5173 H   0  0  0  0  0  0
  -15.5350  -30.3013   23.7624 H   0  0  0  0  0  0
  -15.8664  -28.0852   22.7034 H   0  0  0  0  0  0
  -24.5885  -30.7087   25.7822 H   0  0  0  0  0  0
  -24.8925  -32.2880   26.4953 H   0  0  0  0  0  0
  -25.8072  -30.8870   27.0247 H   0  0  0  0  0  0
  -26.2836  -29.6823   24.1172 H   0  0  0  0  0  0
  -27.4085  -29.7298   25.4547 H   0  0  0  0  0  0
  -27.8652  -30.4386   23.9238 H   0  0  0  0  0  0
  -27.2724  -33.3614   26.2085 H   0  0  0  0  0  0
  -28.3835  -32.6887   25.0263 H   0  0  0  0  0  0
  -28.0782  -31.8424   26.5339 H   0  0  0  0  0  0
  -28.2624  -38.0097   24.7499 H   0  0  0  0  0  0
  -28.1066  -36.2629   24.6310 H   0  0  0  0  0  0
  -27.2310  -37.1499   25.8876 H   0  0  0  0  0  0
  -20.9266  -29.8793   21.6985 H   0  0  0  0  0  0
  -26.0203  -38.2884   24.1391 H   0  0  0  0  0  0
  -29.7540  -23.2829   21.7780 H   0  0  0  0  0  0
  -31.0468  -23.0982   17.7848 H   0  0  0  0  0  0
  -31.5363  -15.5779   23.2628 H   0  0  0  0  0  0
  -30.7128  -14.0416   23.1602 H   0  0  0  0  0  0
  -29.7819  -15.5126   23.4716 H   0  0  0  0  0  0
  -28.7502  -17.4787   20.9996 H   0  0  0  0  0  0
  -29.6407  -17.8831   22.4612 H   0  0  0  0  0  0
  -30.1766  -18.9342   19.6398 H   0  0  0  0  0  0
  -31.1927  -19.3239   20.9987 H   0  0  0  0  0  0
  -30.4350  -25.4452   17.7539 H   0  0  0  0  0  0
  -30.6620  -26.8696   18.7219 H   0  0  0  0  0  0
  -30.6636  -25.4176   20.8168 H   0  0  0  0  0  0
  -31.9826  -25.0708   19.7268 H   0  0  0  0  0  0
  -31.7500  -16.9972   21.4996 H   0  0  0  0  0  0
  -30.9471  -16.7625   19.9813 H   0  0  0  0  0  0
  -28.2218  -25.0252   18.9781 H   0  0  0  0  0  0
  -28.3001  -26.4907   18.0023 H   0  0  0  0  0  0
  -28.2445  -20.1459   20.7233 H   0  0  0  0  0  0
  -28.9254  -21.4407   22.5397 H   0  0  0  0  0  0
  1 25  1  0  0  0
  1 30  2  0  0  0
  1 84  1  0  0  0
  2  3  1  0  0  0
  2 25  1  0  0  0
  2 86  1  0  0  0
  2 87  1  0  0  0
  3  4  1  0  0  0
  3 88  1  0  0  0
  3 89  1  0  0  0
  4  5  1  0  0  0
  4 90  1  0  0  0
  4 91  1  0  0  0
  5  6  1  0  0  0
  5 26  1  0  0  0
  5 92  1  0  0  0
  6 25  1  0  0  0
  6 93  1  0  0  0
  6 94  1  0  0  0
  7  8  2  0  0  0
  7 26  1  0  0  0
  7 29  1  0  0  0
  8  9  1  0  0  0
  8 22  1  0  0  0
  9 10  1  0  0  0
  9 27  2  0  0  0
 10 11  2  0  0  0
 10 15  1  0  0  0
 11 12  1  0  0  0
 11 95  1  0  0  0
 12 13  2  0  0  0
 12 96  1  0  0  0
 13 14  1  0  0  0
 13 31  1  0  0  0
 14 15  2  0  0  0
 14 97  1  0  0  0
 15 98  1  0  0  0
 16 17  2  0  0  0
 16 21  1  0  0  0
 16 31  1  0  0  0
 17 18  1  0  0  0
 17 99  1  0  0  0
 18 19  2  0  0  0
 18100  1  0  0  0
 19 20  1  0  0  0
 19 24  1  0  0  0
 20 21  2  0  0  0
 20101  1  0  0  0
 21 23  1  0  0  0
 22 28  1  0  0  0
 22 32  2  0  0  0
 26 27  1  0  0  0
 28102  1  0  0  0
 28103  1  0  0  0
 29104  1  0  0  0
 29105  1  0  0  0
 33 34  1  0  0  0
 33 66  1  0  0  0
 33 70  2  0  0  0
 34 36  1  0  0  0
 34 59  1  0  0  0
 34106  1  0  0  0
 35 44  2  0  0  0
 35 45  1  0  0  0
 35 68  1  0  0  0
 36 56  1  0  0  0
 36107  1  0  0  0
 37 39  1  0  0  0
 37 47  1  0  0  0
 37 66  1  0  0  0
 37108  1  0  0  0
 38 43  2  0  0  0
 38 46  1  0  0  0
 38 47  1  0  0  0
 39 64  1  0  0  0
 39 67  2  0  0  0
 40 52  1  0  0  0
 40 53  2  0  0  0
 40 58  1  0  0  0
 41109  1  0  0  0
 41110  1  0  0  0
 41111  1  0  0  0
 41 48  1  0  0  0
 42 43  1  0  0  0
 42 66  1  0  0  0
 42112  1  0  0  0
 42113  1  0  0  0
 43 44  1  0  0  0
 44114  1  0  0  0
 45 46  2  0  0  0
 45115  1  0  0  0
 46116  1  0  0  0
 47117  1  0  0  0
 47118  1  0  0  0
 48 56  1  0  0  0
 48 65  1  0  0  0
 48119  1  0  0  0
 49 50  1  0  0  0
 49 53  1  0  0  0
 49 64  1  0  0  0
 49120  1  0  0  0
 50 51  1  0  0  0
 50121  1  0  0  0
 50122  1  0  0  0
 51 52  1  0  0  0
 51123  1  0  0  0
 51124  1  0  0  0
 52125  1  0  0  0
 52126  1  0  0  0
 53 54  1  0  0  0
 54 55  2  0  0  0
 54127  1  0  0  0
 55 57  1  0  0  0
 55128  1  0  0  0
 56 69  2  0  0  0
 57 58  2  0  0  0
 57129  1  0  0  0
 58130  1  0  0  0
 59 60  1  0  0  0
 59 61  1  0  0  0
 59 62  1  0  0  0
 60131  1  0  0  0
 60132  1  0  0  0
 60133  1  0  0  0
 61134  1  0  0  0
 61135  1  0  0  0
 61136  1  0  0  0
 62137  1  0  0  0
 62138  1  0  0  0
 62139  1  0  0  0
 63 65  1  0  0  0
 63140  1  0  0  0
 63141  1  0  0  0
 63142  1  0  0  0
 64143  1  0  0  0
 65144  1  0  0  0
 68 80  1  0  0  0
 71 73  2  0  0  0
 71 83  1  0  0  0
 71145  1  0  0  0
 72 82  2  0  0  0
 72 83  1  0  0  0
 72146  1  0  0  0
 73 81  1  0  0  0
 73 82  1  0  0  0
 74 84  1  0  0  0
 74147  1  0  0  0
 74148  1  0  0  0
 74149  1  0  0  0
 75 76  1  0  0  0
 75 79  1  0  0  0
 75150  1  0  0  0
 75151  1  0  0  0
 76 81  1  0  0  0
 76152  1  0  0  0
 76153  1  0  0  0
 77 78  1  0  0  0
 77 80  1  0  0  0
 77154  1  0  0  0
 77155  1  0  0  0
 78 83  1  0  0  0
 78156  1  0  0  0
 78157  1  0  0  0
 79 84  1  0  0  0
 79158  1  0  0  0
 79159  1  0  0  0
 80160  1  0  0  0
 80161  1  0  0  0
 81 85  1  0  0  0
 81162  1  0  0  0
 85163  1  0  0  0
M  ISO  4   1 100  68 101  80 101  84 100
M  END
> <chiral flag>
0

> <version>
0

> <s_m_source_file>
/data/baiqing/PycharmProjects/Reinvent-master-3.2/result/LINK_invent/BTK/process_docking_weight1_custom_sum_contain_oxygen_bond_distance_aromatic_linkinvent_7_9_3/rearranged_h_0061.sdf

> <i_m_source_file_index>
7

> <r_mmod_Potential_Energy-OPLS-2005>
44.297233581543

> <r_mmod_Stretch_Energy-OPLS-2005>
35.2629852294922

> <r_mmod_Bend_Energy-OPLS-2005>
111.765571594238

> <r_mmod_Torsional_Energy-OPLS-2005>
284.105407714844

> <r_mmod_Improper_Torsional_Energy-OPLS-2005>
6.53566408157349

> <r_mmod_Van_der_Waal_Energy-OPLS-2005>
142.944458007812

> <r_mmod_Electrostatic_Energy-OPLS-2005>
-328.049896240234

> <r_mmod_Solvation_Energy-OPLS-2005>
-221.198440551758

> <b_mmod_Minimization_Converged-OPLS-2005>
0

> <r_mmod_RMS_Derivative-OPLS-2005>
5.61484432220459

$$$$
7
                    3D
 Structure written by MMmdl.
150158  0  0  1  0            999 V2000
  -30.3749  -15.3055   20.3745 C   0  0  0  0  0  0
  -30.4509  -12.8262   19.5391 C   0  0  0  0  0  0
  -29.5472  -12.6014   18.2970 C   0  0  0  0  0  0
  -28.0944  -12.3117   18.7149 C   0  0  0  0  0  0
  -27.6172  -13.2772   19.8272 C   0  0  2  0  0  0
  -28.6471  -13.4387   20.9653 C   0  0  0  0  0  0
  -25.2415  -13.8245   20.5743 C   0  0  0  0  0  0
  -24.1761  -13.0435   20.9239 C   0  0  0  0  0  0
  -24.6415  -11.6932   20.8743 C   0  0  0  0  0  0
  -23.9101  -10.4294   21.0399 C   0  0  0  0  0  0
  -24.3645   -9.4210   21.9180 C   0  0  0  0  0  0
  -23.6313   -8.2249   22.0753 C   0  0  0  0  0  0
  -22.4293   -8.0290   21.3544 C   0  0  0  0  0  0
  -21.9936   -9.0262   20.4638 C   0  0  0  0  0  0
  -22.7272  -10.2138   20.3046 C   0  0  0  0  0  0
  -21.6858   -6.0742   22.5281 C   0  0  0  0  0  0
  -21.4021   -6.5645   23.8217 C   0  0  0  0  0  0
  -21.3664   -5.6794   24.9177 C   0  0  0  0  0  0
  -21.6045   -4.3057   24.7225 C   0  0  0  0  0  0
  -21.8819   -3.8151   23.4344 C   0  0  0  0  0  0
  -21.9195   -4.6969   22.3401 C   0  0  0  0  0  0
  -22.7779  -13.5187   21.1893 C   0  0  0  0  0  0
  -22.1663   -4.2156   21.0980 F   0  0  0  0  0  0
  -21.5629   -3.4539   25.7735 F   0  0  0  0  0  0
  -29.8865  -13.9603   20.3641 N   0  0  0  0  0  0
  -26.2847  -12.9522   20.3208 N   0  0  0  0  0  0
  -25.9356  -11.6624   20.5696 N   0  0  0  0  0  0
  -22.0439  -12.8164   22.0445 N   0  0  0  0  0  0
  -25.4054  -15.1980   20.4210 N   0  0  0  0  0  0
  -31.5784  -15.3461   20.0694 O   0  0  0  0  0  0
  -21.6649   -6.8892   21.4245 O   0  0  0  0  0  0
  -22.3456  -14.5491   20.6742 O   0  0  0  0  0  0
  -24.6649  -31.8199   23.1673 C   0  0  0  0  0  0
  -25.9321  -32.4564   23.8152 C   0  0  1  0  0  0
  -27.2274  -26.9043   20.1877 C   0  0  0  0  0  0
  -25.5977  -33.8380   24.2058 N   0  0  0  0  0  0
  -23.4815  -30.4290   21.5161 C   0  0  2  0  0  0
  -24.9374  -28.8081   20.1119 C   0  0  0  0  0  0
  -22.7679  -29.4419   22.4765 C   0  0  0  0  0  0
  -18.0326  -28.1413   22.8462 C   0  0  0  0  0  0
  -24.1495  -36.7196   23.2647 C   0  0  0  0  0  0
  -26.0511  -30.6184   21.4010 C   0  0  0  0  0  0
  -26.1204  -29.2051   20.7469 C   0  0  0  0  0  0
  -27.2573  -28.2747   20.7587 C   0  0  0  0  0  0
  -26.0150  -26.6633   19.5029 C   0  0  0  0  0  0
  -24.9114  -27.5585   19.4692 C   0  0  0  0  0  0
  -23.7237  -29.7386   20.1443 C   0  0  0  0  0  0
  -25.4137  -36.2951   24.0297 C   0  0  1  0  0  0
  -20.5951  -28.3759   23.1180 C   0  0  2  0  0  0
  -20.6799  -26.9436   22.5401 C   0  0  0  0  0  0
  -19.5775  -26.6377   21.5211 C   0  0  0  0  0  0
  -18.1958  -26.7947   22.1617 C   0  0  0  0  0  0
  -19.1586  -28.8907   23.2809 C   0  0  0  0  0  0
  -18.9495  -30.1496   23.8845 C   0  0  0  0  0  0
  -17.6487  -30.6600   24.0553 C   0  0  0  0  0  0
  -25.9103  -34.9334   23.5002 C   0  0  0  0  0  0
  -16.5378  -29.9084   23.6343 C   0  0  0  0  0  0
  -16.7308  -28.6507   23.0360 C   0  0  0  0  0  0
  -26.4569  -31.6521   25.0691 C   0  0  0  0  0  0
  -25.3692  -31.3776   26.1344 C   0  0  0  0  0  0
  -27.0473  -30.2883   24.6448 C   0  0  0  0  0  0
  -27.6052  -32.4342   25.7501 C   0  0  0  0  0  0
  -27.5572  -37.1755   24.8467 C   0  0  0  0  0  0
  -21.4346  -29.3040   22.3521 N   0  0  0  0  0  0
  -26.4281  -37.3690   23.9408 N   0  0  0  0  0  0
  -24.7539  -30.9840   22.0817 N   0  0  0  0  0  0
  -23.4211  -28.7998   23.3026 O   0  0  0  0  0  0
  -28.2364  -25.7988   20.2819 O   0  0  0  0  0  0
  -26.5715  -34.8877   22.4599 O   0  0  0  0  0  0
  -23.5715  -32.1179   23.6751 O   0  0  0  0  0  0
  -29.2399  -19.7417   21.0646 C   0  0  0  0  0  0
  -29.0753  -20.9582   20.2699 C   0  0  0  0  0  0
  -30.4832  -23.1414   20.1485 C   0  0  0  0  0  0
  -28.9803  -22.8173   22.0960 C   0  0  0  0  0  0
  -29.4835  -16.7971   20.7288 C   0  0  0  0  0  0
  -28.0726  -24.1548   20.0500 C   0  0  0  0  0  0
  -29.0654  -22.7154   20.5638 C   0  0  0  0  0  0
  -29.2561  -20.3067   19.0160 N   0  0  0  0  0  0
  -29.4323  -18.9582   19.0577 N   0  0  0  0  0  0
  -29.4977  -18.4539   20.3395 N   0  0  0  0  0  0
  -31.4687  -13.0409   19.2122 H   0  0  0  0  0  0
  -30.5242  -11.9139   20.1326 H   0  0  0  0  0  0
  -29.9339  -11.7862   17.6842 H   0  0  0  0  0  0
  -29.5732  -13.4948   17.6712 H   0  0  0  0  0  0
  -28.0511  -11.2843   19.0779 H   0  0  0  0  0  0
  -27.4301  -12.3608   17.8510 H   0  0  0  0  0  0
  -27.5354  -14.2481   19.3379 H   0  0  0  0  0  0
  -28.8142  -12.4971   21.4908 H   0  0  0  0  0  0
  -28.2782  -14.1449   21.7102 H   0  0  0  0  0  0
  -25.2791   -9.5689   22.4754 H   0  0  0  0  0  0
  -24.0021   -7.4643   22.7476 H   0  0  0  0  0  0
  -21.0870   -8.8783   19.8938 H   0  0  0  0  0  0
  -22.3734  -10.9679   19.6153 H   0  0  0  0  0  0
  -21.2014   -7.6152   23.9721 H   0  0  0  0  0  0
  -21.1488   -6.0523   25.9080 H   0  0  0  0  0  0
  -22.0592   -2.7610   23.2839 H   0  0  0  0  0  0
  -22.4086  -11.9842   22.4840 H   0  0  0  0  0  0
  -21.1046  -13.1163   22.2644 H   0  0  0  0  0  0
  -24.6353  -15.8477   20.5367 H   0  0  0  0  0  0
  -26.2500  -15.6441   20.0878 H   0  0  0  0  0  0
  -26.7388  -32.5098   23.0866 H   0  0  0  0  0  0
  -25.0087  -33.9456   25.0183 H   0  0  0  0  0  0
  -22.7961  -31.2609   21.3408 H   0  0  0  0  0  0
  -23.3769  -35.9514   23.3278 H   0  0  0  0  0  0
  -24.3569  -36.8875   22.2067 H   0  0  0  0  0  0
  -23.7246  -37.6370   23.6728 H   0  0  0  0  0  0
  -26.2337  -31.3570   20.6192 H   0  0  0  0  0  0
  -26.9103  -30.6774   22.0577 H   0  0  0  0  0  0
  -28.1516  -28.5770   21.2855 H   0  0  0  0  0  0
  -25.8882  -25.7073   19.0152 H   0  0  0  0  0  0
  -24.0131  -27.2485   18.9530 H   0  0  0  0  0  0
  -23.8804  -30.5042   19.3835 H   0  0  0  0  0  0
  -22.8332  -29.1925   19.8272 H   0  0  0  0  0  0
  -25.1339  -36.1740   25.0789 H   0  0  0  0  0  0
  -21.0043  -28.3371   24.1302 H   0  0  0  0  0  0
  -20.5672  -26.2380   23.3646 H   0  0  0  0  0  0
  -21.6664  -26.7403   22.1214 H   0  0  0  0  0  0
  -19.6935  -25.6273   21.1278 H   0  0  0  0  0  0
  -19.6719  -27.3155   20.6716 H   0  0  0  0  0  0
  -17.4227  -26.6687   21.4021 H   0  0  0  0  0  0
  -18.0354  -26.0103   22.9028 H   0  0  0  0  0  0
  -19.7967  -30.7329   24.2193 H   0  0  0  0  0  0
  -17.5034  -31.6274   24.5169 H   0  0  0  0  0  0
  -15.5376  -30.2967   23.7702 H   0  0  0  0  0  0
  -15.8709  -28.0810   22.7103 H   0  0  0  0  0  0
  -24.5896  -30.7102   25.7655 H   0  0  0  0  0  0
  -24.8857  -32.2973   26.4639 H   0  0  0  0  0  0
  -25.7919  -30.9031   27.0208 H   0  0  0  0  0  0
  -26.3143  -29.6544   24.1443 H   0  0  0  0  0  0
  -27.3981  -29.7266   25.5117 H   0  0  0  0  0  0
  -27.9096  -30.4056   23.9881 H   0  0  0  0  0  0
  -27.2612  -33.3691   26.1939 H   0  0  0  0  0  0
  -28.3936  -32.6823   25.0383 H   0  0  0  0  0  0
  -28.0640  -31.8560   26.5533 H   0  0  0  0  0  0
  -28.2563  -38.0073   24.7508 H   0  0  0  0  0  0
  -28.1091  -36.2595   24.6301 H   0  0  0  0  0  0
  -27.2283  -37.1405   25.8868 H   0  0  0  0  0  0
  -20.9610  -29.8720   21.6633 H   0  0  0  0  0  0
  -26.0124  -38.2746   24.1410 H   0  0  0  0  0  0
  -29.2058  -19.6915   22.1453 H   0  0  0  0  0  0
  -31.2456  -22.5261   20.6276 H   0  0  0  0  0  0
  -30.6859  -24.1813   20.4072 H   0  0  0  0  0  0
  -30.6131  -23.0385   19.0712 H   0  0  0  0  0  0
  -29.7538  -22.2250   22.5857 H   0  0  0  0  0  0
  -28.0154  -22.4564   22.4527 H   0  0  0  0  0  0
  -29.0934  -23.8468   22.4374 H   0  0  0  0  0  0
  -28.4665  -16.5001   20.4769 H   0  0  0  0  0  0
  -29.4786  -16.7938   21.8179 H   0  0  0  0  0  0
  -27.0593  -23.9378   20.3890 H   0  0  0  0  0  0
  -28.0101  -24.0688   18.9651 H   0  0  0  0  0  0
  1 25  1  0  0  0
  1 30  2  0  0  0
  1 75  1  0  0  0
  2  3  1  0  0  0
  2 25  1  0  0  0
  2 81  1  0  0  0
  2 82  1  0  0  0
  3  4  1  0  0  0
  3 83  1  0  0  0
  3 84  1  0  0  0
  4  5  1  0  0  0
  4 85  1  0  0  0
  4 86  1  0  0  0
  5  6  1  0  0  0
  5 26  1  0  0  0
  5 87  1  0  0  0
  6 25  1  0  0  0
  6 88  1  0  0  0
  6 89  1  0  0  0
  7  8  2  0  0  0
  7 26  1  0  0  0
  7 29  1  0  0  0
  8  9  1  0  0  0
  8 22  1  0  0  0
  9 10  1  0  0  0
  9 27  2  0  0  0
 10 11  2  0  0  0
 10 15  1  0  0  0
 11 12  1  0  0  0
 11 90  1  0  0  0
 12 13  2  0  0  0
 12 91  1  0  0  0
 13 14  1  0  0  0
 13 31  1  0  0  0
 14 15  2  0  0  0
 14 92  1  0  0  0
 15 93  1  0  0  0
 16 17  2  0  0  0
 16 21  1  0  0  0
 16 31  1  0  0  0
 17 18  1  0  0  0
 17 94  1  0  0  0
 18 19  2  0  0  0
 18 95  1  0  0  0
 19 20  1  0  0  0
 19 24  1  0  0  0
 20 21  2  0  0  0
 20 96  1  0  0  0
 21 23  1  0  0  0
 22 28  1  0  0  0
 22 32  2  0  0  0
 26 27  1  0  0  0
 28 97  1  0  0  0
 28 98  1  0  0  0
 29 99  1  0  0  0
 29100  1  0  0  0
 33 34  1  0  0  0
 33 66  1  0  0  0
 33 70  2  0  0  0
 34 36  1  0  0  0
 34 59  1  0  0  0
 34101  1  0  0  0
 35 44  2  0  0  0
 35 45  1  0  0  0
 35 68  1  0  0  0
 36 56  1  0  0  0
 36102  1  0  0  0
 37 39  1  0  0  0
 37 47  1  0  0  0
 37 66  1  0  0  0
 37103  1  0  0  0
 38 43  2  0  0  0
 38 46  1  0  0  0
 38 47  1  0  0  0
 39 64  1  0  0  0
 39 67  2  0  0  0
 40 52  1  0  0  0
 40 53  2  0  0  0
 40 58  1  0  0  0
 41104  1  0  0  0
 41105  1  0  0  0
 41106  1  0  0  0
 41 48  1  0  0  0
 42 43  1  0  0  0
 42 66  1  0  0  0
 42107  1  0  0  0
 42108  1  0  0  0
 43 44  1  0  0  0
 44109  1  0  0  0
 45 46  2  0  0  0
 45110  1  0  0  0
 46111  1  0  0  0
 47112  1  0  0  0
 47113  1  0  0  0
 48 56  1  0  0  0
 48 65  1  0  0  0
 48114  1  0  0  0
 49 50  1  0  0  0
 49 53  1  0  0  0
 49 64  1  0  0  0
 49115  1  0  0  0
 50 51  1  0  0  0
 50116  1  0  0  0
 50117  1  0  0  0
 51 52  1  0  0  0
 51118  1  0  0  0
 51119  1  0  0  0
 52120  1  0  0  0
 52121  1  0  0  0
 53 54  1  0  0  0
 54 55  2  0  0  0
 54122  1  0  0  0
 55 57  1  0  0  0
 55123  1  0  0  0
 56 69  2  0  0  0
 57 58  2  0  0  0
 57124  1  0  0  0
 58125  1  0  0  0
 59 60  1  0  0  0
 59 61  1  0  0  0
 59 62  1  0  0  0
 60126  1  0  0  0
 60127  1  0  0  0
 60128  1  0  0  0
 61129  1  0  0  0
 61130  1  0  0  0
 61131  1  0  0  0
 62132  1  0  0  0
 62133  1  0  0  0
 62134  1  0  0  0
 63 65  1  0  0  0
 63135  1  0  0  0
 63136  1  0  0  0
 63137  1  0  0  0
 64138  1  0  0  0
 65139  1  0  0  0
 68 76  1  0  0  0
 71 72  2  0  0  0
 71 80  1  0  0  0
 71140  1  0  0  0
 72 77  1  0  0  0
 72 78  1  0  0  0
 73141  1  0  0  0
 73142  1  0  0  0
 73143  1  0  0  0
 73 77  1  0  0  0
 74 77  1  0  0  0
 74144  1  0  0  0
 74145  1  0  0  0
 74146  1  0  0  0
 75 80  1  0  0  0
 75147  1  0  0  0
 75148  1  0  0  0
 76 77  1  0  0  0
 76149  1  0  0  0
 76150  1  0  0  0
 78 79  2  0  0  0
 79 80  1  0  0  0
M  ISO  4   1 100  68 101  75 100  76 101
M  END
> <chiral flag>
0

> <version>
0

> <s_m_source_file>
/data/baiqing/PycharmProjects/Reinvent-master-3.2/result/LINK_invent/BTK/process_docking_weight1_custom_sum_contain_oxygen_bond_distance_aromatic_linkinvent_7_9_3/rearranged_h_0061.sdf

> <i_m_source_file_index>
8

> <r_mmod_Potential_Energy-OPLS-2005>
1368.93579101562

> <r_mmod_Stretch_Energy-OPLS-2005>
637.972900390625

> <r_mmod_Bend_Energy-OPLS-2005>
494.622314453125

> <r_mmod_Torsional_Energy-OPLS-2005>
186.208786010742

> <r_mmod_Improper_Torsional_Energy-OPLS-2005>
4.8118257522583

> <r_mmod_Van_der_Waal_Energy-OPLS-2005>
102.718215942383

> <r_mmod_Electrostatic_Energy-OPLS-2005>
-332.777313232422

> <r_mmod_Solvation_Energy-OPLS-2005>
-221.746032714844

> <b_mmod_Minimization_Converged-OPLS-2005>
0

> <r_mmod_RMS_Derivative-OPLS-2005>
0.734123587608337

$$$$
8
                    3D
 Structure written by MMmdl.
157165  0  0  1  0            999 V2000
  -30.6437  -14.7449   20.5555 C   0  0  0  0  0  0
  -30.4573  -12.4915   19.4560 C   0  0  0  0  0  0
  -29.5199  -12.5481   18.2275 C   0  0  0  0  0  0
  -28.0409  -12.3690   18.6359 C   0  0  0  0  0  0
  -27.6576  -13.2253   19.8732 C   0  0  2  0  0  0
  -28.7156  -13.0577   20.9866 C   0  0  0  0  0  0
  -25.2536  -13.8138   20.5679 C   0  0  0  0  0  0
  -24.1812  -13.0360   20.9172 C   0  0  0  0  0  0
  -24.6418  -11.6874   20.8700 C   0  0  0  0  0  0
  -23.9084  -10.4244   21.0340 C   0  0  0  0  0  0
  -24.3625   -9.4161   21.9104 C   0  0  0  0  0  0
  -23.6269   -8.2216   22.0716 C   0  0  0  0  0  0
  -22.4243   -8.0250   21.3525 C   0  0  0  0  0  0
  -21.9903   -9.0231   20.4629 C   0  0  0  0  0  0
  -22.7261  -10.2091   20.3002 C   0  0  0  0  0  0
  -21.6846   -6.0719   22.5273 C   0  0  0  0  0  0
  -21.4007   -6.5621   23.8216 C   0  0  0  0  0  0
  -21.3660   -5.6775   24.9178 C   0  0  0  0  0  0
  -21.6048   -4.3041   24.7241 C   0  0  0  0  0  0
  -21.8811   -3.8132   23.4358 C   0  0  0  0  0  0
  -21.9184   -4.6940   22.3416 C   0  0  0  0  0  0
  -22.7815  -13.5095   21.1841 C   0  0  0  0  0  0
  -22.1665   -4.2122   21.0994 F   0  0  0  0  0  0
  -21.5663   -3.4545   25.7779 F   0  0  0  0  0  0
  -29.9941  -13.5228   20.4251 N   0  0  0  0  0  0
  -26.3035  -12.9370   20.3392 N   0  0  0  0  0  0
  -25.9376  -11.6496   20.5776 N   0  0  0  0  0  0
  -22.0526  -12.8064   22.0454 N   0  0  0  0  0  0
  -25.4022  -15.1865   20.4054 N   0  0  0  0  0  0
  -31.8096  -14.8083   20.1540 O   0  0  0  0  0  0
  -21.6588   -6.8865   21.4242 O   0  0  0  0  0  0
  -22.3438  -14.5357   20.6677 O   0  0  0  0  0  0
  -24.6283  -31.8563   23.1919 C   0  0  0  0  0  0
  -25.9086  -32.4761   23.8297 C   0  0  1  0  0  0
  -27.2110  -27.2380   20.1588 C   0  0  0  0  0  0
  -25.5876  -33.8567   24.2206 N   0  0  0  0  0  0
  -23.4306  -30.4706   21.5402 C   0  0  2  0  0  0
  -24.8790  -28.9153   20.1099 C   0  0  0  0  0  0
  -22.7511  -29.4559   22.4925 C   0  0  0  0  0  0
  -18.0287  -28.1395   22.8456 C   0  0  0  0  0  0
  -24.1518  -36.7271   23.2653 C   0  0  0  0  0  0
  -25.9794  -30.7578   21.3837 C   0  0  0  0  0  0
  -26.0505  -29.3792   20.7246 C   0  0  0  0  0  0
  -27.2204  -28.5527   20.7338 C   0  0  0  0  0  0
  -26.0234  -26.8465   19.5074 C   0  0  0  0  0  0
  -24.8718  -27.6577   19.4878 C   0  0  0  0  0  0
  -23.6510  -29.8044   20.1585 C   0  0  0  0  0  0
  -25.4159  -36.3080   24.0322 C   0  0  1  0  0  0
  -20.5887  -28.3692   23.1298 C   0  0  2  0  0  0
  -20.6793  -26.9410   22.5443 C   0  0  0  0  0  0
  -19.5772  -26.6396   21.5234 C   0  0  0  0  0  0
  -18.1942  -26.7940   22.1620 C   0  0  0  0  0  0
  -19.1536  -28.8851   23.2862 C   0  0  0  0  0  0
  -18.9465  -30.1455   23.8869 C   0  0  0  0  0  0
  -17.6465  -30.6592   24.0549 C   0  0  0  0  0  0
  -25.9094  -34.9446   23.5091 C   0  0  0  0  0  0
  -16.5348  -29.9087   23.6322 C   0  0  0  0  0  0
  -16.7268  -28.6510   23.0317 C   0  0  0  0  0  0
  -26.4442  -31.6587   25.0693 C   0  0  0  0  0  0
  -25.3600  -31.3752   26.1350 C   0  0  0  0  0  0
  -27.0329  -30.3014   24.6213 C   0  0  0  0  0  0
  -27.6028  -32.4330   25.7403 C   0  0  0  0  0  0
  -27.5605  -37.1764   24.8463 C   0  0  0  0  0  0
  -21.4223  -29.2997   22.3646 N   0  0  0  0  0  0
  -26.4345  -37.3762   23.9378 N   0  0  0  0  0  0
  -24.6984  -31.0468   22.0945 N   0  0  0  0  0  0
  -23.4185  -28.8151   23.3089 O   0  0  0  0  0  0
  -28.2953  -26.3351   20.2036 O   0  0  0  0  0  0
  -26.5724  -34.8899   22.4701 O   0  0  0  0  0  0
  -23.5405  -32.1431   23.7129 O   0  0  0  0  0  0
  -29.3689  -20.3464   19.0912 C   0  0  0  0  0  0
  -29.2284  -20.8348   20.3748 C   0  0  0  0  0  0
  -29.9951  -18.6315   20.4248 C   0  0  0  0  0  0
  -30.2374  -18.2041   18.0131 C   0  0  0  0  0  0
  -28.8166  -16.0238   21.7871 C   0  0  0  0  0  0
  -28.6716  -22.2057   20.9431 C   0  0  0  0  0  0
  -30.7015  -17.2990   20.9069 C   0  0  0  0  0  0
  -28.8944  -23.6365   20.2037 C   0  0  0  0  0  0
  -28.0488  -24.9323   20.7064 C   0  0  0  0  0  0
  -29.8482  -19.0441   19.1517 N   0  0  0  0  0  0
  -29.6246  -19.7291   21.1553 N   0  3  0  0  0  0
  -29.9868  -15.9452   20.9020 N   0  0  0  0  0  0
  -31.4915  -12.6433   19.1378 H   0  0  0  0  0  0
  -30.4508  -11.4981   19.9095 H   0  0  0  0  0  0
  -29.8074  -11.7825   17.5091 H   0  0  0  0  0  0
  -29.6459  -13.5004   17.7057 H   0  0  0  0  0  0
  -27.8836  -11.3117   18.8548 H   0  0  0  0  0  0
  -27.3817  -12.6083   17.7976 H   0  0  0  0  0  0
  -27.6794  -14.2614   19.5399 H   0  0  0  0  0  0
  -28.7826  -12.0026   21.2626 H   0  0  0  0  0  0
  -28.4542  -13.5462   21.9195 H   0  0  0  0  0  0
  -25.2812   -9.5615   22.4613 H   0  0  0  0  0  0
  -23.9975   -7.4595   22.7420 H   0  0  0  0  0  0
  -21.0837   -8.8721   19.8945 H   0  0  0  0  0  0
  -22.3694  -10.9583   19.6062 H   0  0  0  0  0  0
  -21.1976   -7.6122   23.9719 H   0  0  0  0  0  0
  -21.1504   -6.0500   25.9069 H   0  0  0  0  0  0
  -22.0591   -2.7586   23.2863 H   0  0  0  0  0  0
  -22.4268  -11.9778   22.4864 H   0  0  0  0  0  0
  -21.1118  -13.1005   22.2688 H   0  0  0  0  0  0
  -24.6179  -15.8184   20.5211 H   0  0  0  0  0  0
  -26.2392  -15.6605   20.0941 H   0  0  0  0  0  0
  -26.7118  -32.5398   23.1000 H   0  0  0  0  0  0
  -24.9853  -33.9761   25.0215 H   0  0  0  0  0  0
  -22.7256  -31.2903   21.3881 H   0  0  0  0  0  0
  -23.3816  -35.9562   23.3329 H   0  0  0  0  0  0
  -24.3596  -36.8910   22.2065 H   0  0  0  0  0  0
  -23.7243  -37.6452   23.6695 H   0  0  0  0  0  0
  -26.1384  -31.5209   20.6201 H   0  0  0  0  0  0
  -26.8475  -30.7949   22.0290 H   0  0  0  0  0  0
  -28.1182  -28.8935   21.2270 H   0  0  0  0  0  0
  -25.9665  -25.8852   19.0192 H   0  0  0  0  0  0
  -23.9750  -27.2947   19.0010 H   0  0  0  0  0  0
  -23.7692  -30.5827   19.4043 H   0  0  0  0  0  0
  -22.7711  -29.2385   19.8501 H   0  0  0  0  0  0
  -25.1335  -36.1970   25.0819 H   0  0  0  0  0  0
  -20.9910  -28.3283   24.1446 H   0  0  0  0  0  0
  -20.5764  -26.2275   23.3640 H   0  0  0  0  0  0
  -21.6665  -26.7496   22.1177 H   0  0  0  0  0  0
  -19.6981  -25.6316   21.1265 H   0  0  0  0  0  0
  -19.6752  -27.3200   20.6759 H   0  0  0  0  0  0
  -17.4222  -26.6631   21.4024 H   0  0  0  0  0  0
  -18.0331  -26.0132   22.9053 H   0  0  0  0  0  0
  -19.7941  -30.7278   24.2229 H   0  0  0  0  0  0
  -17.5014  -31.6270   24.5183 H   0  0  0  0  0  0
  -15.5341  -30.2966   23.7702 H   0  0  0  0  0  0
  -15.8668  -28.0852   22.7001 H   0  0  0  0  0  0
  -24.5746  -30.7204   25.7546 H   0  0  0  0  0  0
  -24.8816  -32.2940   26.4748 H   0  0  0  0  0  0
  -25.7778  -30.8843   27.0142 H   0  0  0  0  0  0
  -26.2953  -29.6721   24.1227 H   0  0  0  0  0  0
  -27.4024  -29.7307   25.4739 H   0  0  0  0  0  0
  -27.8793  -30.4309   23.9468 H   0  0  0  0  0  0
  -27.2703  -33.3659   26.1948 H   0  0  0  0  0  0
  -28.3770  -32.6865   25.0146 H   0  0  0  0  0  0
  -28.0762  -31.8490   26.5296 H   0  0  0  0  0  0
  -28.2601  -38.0077   24.7526 H   0  0  0  0  0  0
  -28.1123  -36.2604   24.6283 H   0  0  0  0  0  0
  -27.2301  -37.1368   25.8859 H   0  0  0  0  0  0
  -20.9423  -29.8670   21.6792 H   0  0  0  0  0  0
  -26.0258  -38.2862   24.1326 H   0  0  0  0  0  0
  -29.1752  -20.8335   18.1445 H   0  0  0  0  0  0
  -31.3271  -18.2027   17.9418 H   0  0  0  0  0  0
  -29.8187  -18.6071   17.0904 H   0  0  0  0  0  0
  -29.8785  -17.1807   18.1558 H   0  0  0  0  0  0
  -29.0429  -15.5474   22.7425 H   0  0  0  0  0  0
  -28.5233  -17.0497   22.0120 H   0  0  0  0  0  0
  -27.9310  -15.5692   21.3554 H   0  0  0  0  0  0
  -29.0539  -22.3069   21.9607 H   0  0  0  0  0  0
  -27.5975  -22.0601   21.0714 H   0  0  0  0  0  0
  -31.0320  -17.4961   21.9277 H   0  0  0  0  0  0
  -31.6235  -17.2462   20.3301 H   0  0  0  0  0  0
  -28.6944  -23.5090   19.1383 H   0  0  0  0  0  0
  -29.9558  -23.8740   20.2779 H   0  0  0  0  0  0
  -28.1844  -24.9901   21.7881 H   0  0  0  0  0  0
  -26.9936  -24.6786   20.6035 H   0  0  0  0  0  0
  -29.6815  -19.7514   22.1690 H   0  0  0  0  0  0
  1 25  1  0  0  0
  1 30  2  0  0  0
  1 82  1  0  0  0
  2  3  1  0  0  0
  2 25  1  0  0  0
  2 83  1  0  0  0
  2 84  1  0  0  0
  3  4  1  0  0  0
  3 85  1  0  0  0
  3 86  1  0  0  0
  4  5  1  0  0  0
  4 87  1  0  0  0
  4 88  1  0  0  0
  5  6  1  0  0  0
  5 26  1  0  0  0
  5 89  1  0  0  0
  6 25  1  0  0  0
  6 90  1  0  0  0
  6 91  1  0  0  0
  7  8  2  0  0  0
  7 26  1  0  0  0
  7 29  1  0  0  0
  8  9  1  0  0  0
  8 22  1  0  0  0
  9 10  1  0  0  0
  9 27  2  0  0  0
 10 11  2  0  0  0
 10 15  1  0  0  0
 11 12  1  0  0  0
 11 92  1  0  0  0
 12 13  2  0  0  0
 12 93  1  0  0  0
 13 14  1  0  0  0
 13 31  1  0  0  0
 14 15  2  0  0  0
 14 94  1  0  0  0
 15 95  1  0  0  0
 16 17  2  0  0  0
 16 21  1  0  0  0
 16 31  1  0  0  0
 17 18  1  0  0  0
 17 96  1  0  0  0
 18 19  2  0  0  0
 18 97  1  0  0  0
 19 20  1  0  0  0
 19 24  1  0  0  0
 20 21  2  0  0  0
 20 98  1  0  0  0
 21 23  1  0  0  0
 22 28  1  0  0  0
 22 32  2  0  0  0
 26 27  1  0  0  0
 28 99  1  0  0  0
 28100  1  0  0  0
 29101  1  0  0  0
 29102  1  0  0  0
 33 34  1  0  0  0
 33 66  1  0  0  0
 33 70  2  0  0  0
 34 36  1  0  0  0
 34 59  1  0  0  0
 34103  1  0  0  0
 35 44  2  0  0  0
 35 45  1  0  0  0
 35 68  1  0  0  0
 36 56  1  0  0  0
 36104  1  0  0  0
 37 39  1  0  0  0
 37 47  1  0  0  0
 37 66  1  0  0  0
 37105  1  0  0  0
 38 43  2  0  0  0
 38 46  1  0  0  0
 38 47  1  0  0  0
 39 64  1  0  0  0
 39 67  2  0  0  0
 40 52  1  0  0  0
 40 53  2  0  0  0
 40 58  1  0  0  0
 41106  1  0  0  0
 41107  1  0  0  0
 41108  1  0  0  0
 41 48  1  0  0  0
 42 43  1  0  0  0
 42 66  1  0  0  0
 42109  1  0  0  0
 42110  1  0  0  0
 43 44  1  0  0  0
 44111  1  0  0  0
 45 46  2  0  0  0
 45112  1  0  0  0
 46113  1  0  0  0
 47114  1  0  0  0
 47115  1  0  0  0
 48 56  1  0  0  0
 48 65  1  0  0  0
 48116  1  0  0  0
 49 50  1  0  0  0
 49 53  1  0  0  0
 49 64  1  0  0  0
 49117  1  0  0  0
 50 51  1  0  0  0
 50118  1  0  0  0
 50119  1  0  0  0
 51 52  1  0  0  0
 51120  1  0  0  0
 51121  1  0  0  0
 52122  1  0  0  0
 52123  1  0  0  0
 53 54  1  0  0  0
 54 55  2  0  0  0
 54124  1  0  0  0
 55 57  1  0  0  0
 55125  1  0  0  0
 56 69  2  0  0  0
 57 58  2  0  0  0
 57126  1  0  0  0
 58127  1  0  0  0
 59 60  1  0  0  0
 59 61  1  0  0  0
 59 62  1  0  0  0
 60128  1  0  0  0
 60129  1  0  0  0
 60130  1  0  0  0
 61131  1  0  0  0
 61132  1  0  0  0
 61133  1  0  0  0
 62134  1  0  0  0
 62135  1  0  0  0
 62136  1  0  0  0
 63 65  1  0  0  0
 63137  1  0  0  0
 63138  1  0  0  0
 63139  1  0  0  0
 64140  1  0  0  0
 65141  1  0  0  0
 68 79  1  0  0  0
 71 72  2  0  0  0
 71 80  1  0  0  0
 71142  1  0  0  0
 72 76  1  0  0  0
 72 81  1  0  0  0
 73 77  1  0  0  0
 73 80  1  0  0  0
 73 81  2  0  0  0
 74 80  1  0  0  0
 74143  1  0  0  0
 74144  1  0  0  0
 74145  1  0  0  0
 75 82  1  0  0  0
 75146  1  0  0  0
 75147  1  0  0  0
 75148  1  0  0  0
 76 78  1  0  0  0
 76149  1  0  0  0
 76150  1  0  0  0
 77 82  1  0  0  0
 77151  1  0  0  0
 77152  1  0  0  0
 78 79  1  0  0  0
 78153  1  0  0  0
 78154  1  0  0  0
 79155  1  0  0  0
 79156  1  0  0  0
 81157  1  0  0  0
M  CHG  1  81   1
M  ISO  4   1 100  68 101  79 101  82 100
M  END
> <chiral flag>
0

> <version>
0

> <s_m_source_file>
/data/baiqing/PycharmProjects/Reinvent-master-3.2/result/LINK_invent/BTK/process_docking_weight1_custom_sum_contain_oxygen_bond_distance_aromatic_linkinvent_7_9_3/rearranged_h_0061.sdf

> <i_m_source_file_index>
9

> <r_mmod_Potential_Energy-OPLS-2005>
203.928665161133

> <r_mmod_Stretch_Energy-OPLS-2005>
132.028411865234

> <r_mmod_Bend_Energy-OPLS-2005>
191.925994873047

> <r_mmod_Torsional_Energy-OPLS-2005>
256.564727783203

> <r_mmod_Improper_Torsional_Energy-OPLS-2005>
8.00420570373535

> <r_mmod_Van_der_Waal_Energy-OPLS-2005>
127.994064331055

> <r_mmod_Electrostatic_Energy-OPLS-2005>
-189.196212768555

> <r_mmod_Solvation_Energy-OPLS-2005>
-409.225616455078

> <b_mmod_Minimization_Converged-OPLS-2005>
0

> <r_mmod_RMS_Derivative-OPLS-2005>
5.30566120147705

$$$$
9
                    3D
 Structure written by MMmdl.
160168  0  0  1  0            999 V2000
  -30.6478  -15.1088   20.4826 C   0  0  0  0  0  0
  -30.4537  -12.7616   19.4649 C   0  0  0  0  0  0
  -29.5118  -12.6612   18.2461 C   0  0  0  0  0  0
  -28.0481  -12.4589   18.6672 C   0  0  0  0  0  0
  -27.6479  -13.3142   19.8928 C   0  0  2  0  0  0
  -28.7321  -13.3653   21.0010 C   0  0  0  0  0  0
  -25.2471  -13.8287   20.5901 C   0  0  0  0  0  0
  -24.1840  -13.0446   20.9227 C   0  0  0  0  0  0
  -24.6590  -11.6953   20.8830 C   0  0  0  0  0  0
  -23.9284  -10.4300   21.0408 C   0  0  0  0  0  0
  -24.3761   -9.4180   21.9200 C   0  0  0  0  0  0
  -23.6417   -8.2235   22.0760 C   0  0  0  0  0  0
  -22.4368   -8.0311   21.3544 C   0  0  0  0  0  0
  -22.0041   -9.0315   20.4620 C   0  0  0  0  0  0
  -22.7420  -10.2169   20.3067 C   0  0  0  0  0  0
  -21.6902   -6.0743   22.5246 C   0  0  0  0  0  0
  -21.4047   -6.5639   23.8163 C   0  0  0  0  0  0
  -21.3694   -5.6806   24.9122 C   0  0  0  0  0  0
  -21.6071   -4.3061   24.7205 C   0  0  0  0  0  0
  -21.8832   -3.8142   23.4321 C   0  0  0  0  0  0
  -21.9217   -4.6964   22.3362 C   0  0  0  0  0  0
  -22.7790  -13.5084   21.1886 C   0  0  0  0  0  0
  -22.1658   -4.2127   21.0949 F   0  0  0  0  0  0
  -21.5666   -3.4535   25.7730 F   0  0  0  0  0  0
  -29.9584  -13.8749   20.3551 N   0  0  0  0  0  0
  -26.3098  -12.9704   20.3665 N   0  0  0  0  0  0
  -25.9570  -11.6749   20.5964 N   0  0  0  0  0  0
  -22.0539  -12.8010   22.0415 N   0  0  0  0  0  0
  -25.3968  -15.2056   20.4174 N   0  0  0  0  0  0
  -31.8598  -14.9964   20.2571 O   0  0  0  0  0  0
  -21.6694   -6.8904   21.4222 O   0  0  0  0  0  0
  -22.3383  -14.5381   20.6720 O   0  0  0  0  0  0
  -24.6466  -31.8381   23.1873 C   0  0  0  0  0  0
  -25.9188  -32.4689   23.8278 C   0  0  1  0  0  0
  -27.2424  -27.0790   20.1908 C   0  0  0  0  0  0
  -25.5961  -33.8513   24.2170 N   0  0  0  0  0  0
  -23.4574  -30.4506   21.5297 C   0  0  2  0  0  0
  -24.9122  -28.8518   20.1284 C   0  0  0  0  0  0
  -22.7576  -29.4519   22.4862 C   0  0  0  0  0  0
  -18.0276  -28.1367   22.8469 C   0  0  0  0  0  0
  -24.1486  -36.7255   23.2650 C   0  0  0  0  0  0
  -26.0118  -30.6830   21.3947 C   0  0  0  0  0  0
  -26.0891  -29.2864   20.7541 C   0  0  0  0  0  0
  -27.2477  -28.4156   20.7693 C   0  0  0  0  0  0
  -26.0298  -26.7402   19.5479 C   0  0  0  0  0  0
  -24.8941  -27.5868   19.5149 C   0  0  0  0  0  0
  -23.6901  -29.7638   20.1556 C   0  0  0  0  0  0
  -25.4120  -36.3033   24.0272 C   0  0  1  0  0  0
  -20.5886  -28.3703   23.1200 C   0  0  2  0  0  0
  -20.6780  -26.9399   22.5375 C   0  0  0  0  0  0
  -19.5774  -26.6355   21.5185 C   0  0  0  0  0  0
  -18.1939  -26.7906   22.1579 C   0  0  0  0  0  0
  -19.1539  -28.8850   23.2836 C   0  0  0  0  0  0
  -18.9478  -30.1422   23.8877 C   0  0  0  0  0  0
  -17.6484  -30.6580   24.0539 C   0  0  0  0  0  0
  -25.9098  -34.9402   23.5036 C   0  0  0  0  0  0
  -16.5364  -29.9057   23.6345 C   0  0  0  0  0  0
  -16.7278  -28.6460   23.0402 C   0  0  0  0  0  0
  -26.4462  -31.6594   25.0750 C   0  0  0  0  0  0
  -25.3637  -31.3719   26.1423 C   0  0  0  0  0  0
  -27.0431  -30.3050   24.6373 C   0  0  0  0  0  0
  -27.6028  -32.4393   25.7508 C   0  0  0  0  0  0
  -27.5564  -37.1763   24.8407 C   0  0  0  0  0  0
  -21.4270  -29.3035   22.3572 N   0  0  0  0  0  0
  -26.4268  -37.3753   23.9390 N   0  0  0  0  0  0
  -24.7244  -31.0148   22.0920 N   0  0  0  0  0  0
  -23.4153  -28.8053   23.3067 O   0  0  0  0  0  0
  -28.3367  -26.1205   20.1585 O   0  0  0  0  0  0
  -26.5706  -34.8893   22.4621 O   0  0  0  0  0  0
  -23.5555  -32.1302   23.7018 O   0  0  0  0  0  0
  -30.0156  -21.5610   21.7985 C   0  0  0  0  0  0
  -29.3305  -21.7429   20.6049 C   0  0  0  0  0  0
  -30.0999  -19.4465   20.8611 C   0  0  0  0  0  0
  -31.8253  -17.7642   21.9235 C   0  0  0  0  0  0
  -31.7293  -18.0739   19.4795 C   0  0  0  0  0  0
  -28.8232  -20.0170   18.7144 C   0  0  0  0  0  0
  -28.6307  -16.7027   20.6880 C   0  0  0  0  0  0
  -28.7431  -23.1472   19.9210 C   0  0  0  0  0  0
  -28.3242  -24.6249   20.6855 C   0  0  0  0  0  0
  -30.8256  -17.9085   20.7187 C   0  0  0  0  0  0
  -29.3961  -20.3850   20.0542 N   0  0  0  0  0  0
  -30.4284  -20.2376   21.9130 N   0  3  0  0  0  0
  -30.0760  -16.4615   20.6379 N   0  0  0  0  0  0
  -31.4574  -12.9613   19.0769 H   0  0  0  0  0  0
  -30.5351  -11.8224   20.0072 H   0  0  0  0  0  0
  -29.8250  -11.8664   17.5691 H   0  0  0  0  0  0
  -29.5923  -13.5904   17.6793 H   0  0  0  0  0  0
  -27.8839  -11.4004   18.8601 H   0  0  0  0  0  0
  -27.3991  -12.7383   17.8336 H   0  0  0  0  0  0
  -27.5870  -14.3372   19.5171 H   0  0  0  0  0  0
  -28.8928  -12.3815   21.4423 H   0  0  0  0  0  0
  -28.4490  -14.0091   21.8326 H   0  0  0  0  0  0
  -25.2936   -9.5581   22.4746 H   0  0  0  0  0  0
  -24.0128   -7.4575   22.7439 H   0  0  0  0  0  0
  -21.1008   -8.8856   19.8900 H   0  0  0  0  0  0
  -22.3950  -10.9721   19.6165 H   0  0  0  0  0  0
  -21.2025   -7.6128   23.9632 H   0  0  0  0  0  0
  -21.1526   -6.0533   25.9022 H   0  0  0  0  0  0
  -22.0605   -2.7613   23.2810 H   0  0  0  0  0  0
  -22.4318  -11.9769   22.4866 H   0  0  0  0  0  0
  -21.1101  -13.0824   22.2637 H   0  0  0  0  0  0
  -24.6311  -15.8580   20.5114 H   0  0  0  0  0  0
  -26.2452  -15.6438   20.0922 H   0  0  0  0  0  0
  -26.7243  -32.5253   23.0995 H   0  0  0  0  0  0
  -25.0059  -33.9612   25.0285 H   0  0  0  0  0  0
  -22.7700  -31.2823   21.3698 H   0  0  0  0  0  0
  -23.3796  -35.9547   23.3209 H   0  0  0  0  0  0
  -24.3614  -36.9045   22.2113 H   0  0  0  0  0  0
  -23.7192  -37.6366   23.6810 H   0  0  0  0  0  0
  -26.1606  -31.4222   20.6071 H   0  0  0  0  0  0
  -26.8857  -30.7578   22.0321 H   0  0  0  0  0  0
  -28.1424  -28.7461   21.2734 H   0  0  0  0  0  0
  -25.9544  -25.7732   19.0733 H   0  0  0  0  0  0
  -23.9917  -27.2422   19.0330 H   0  0  0  0  0  0
  -23.8290  -30.5305   19.3937 H   0  0  0  0  0  0
  -22.8047  -29.2016   19.8553 H   0  0  0  0  0  0
  -25.1289  -36.1828   25.0761 H   0  0  0  0  0  0
  -20.9992  -28.3312   24.1338 H   0  0  0  0  0  0
  -20.5664  -26.2329   23.3594 H   0  0  0  0  0  0
  -21.6647  -26.7413   22.1191 H   0  0  0  0  0  0
  -19.6962  -25.6261   21.1262 H   0  0  0  0  0  0
  -19.6749  -27.3127   20.6705 H   0  0  0  0  0  0
  -17.4206  -26.6649   21.3952 H   0  0  0  0  0  0
  -18.0357  -26.0005   22.8971 H   0  0  0  0  0  0
  -19.7960  -30.7219   24.2306 H   0  0  0  0  0  0
  -17.5040  -31.6305   24.5073 H   0  0  0  0  0  0
  -15.5345  -30.2959   23.7722 H   0  0  0  0  0  0
  -15.8668  -28.0763   22.7195 H   0  0  0  0  0  0
  -24.5797  -30.7132   25.7611 H   0  0  0  0  0  0
  -24.8815  -32.2872   26.4913 H   0  0  0  0  0  0
  -25.7845  -30.8777   27.0204 H   0  0  0  0  0  0
  -26.3120  -29.6744   24.1327 H   0  0  0  0  0  0
  -27.4016  -29.7357   25.4956 H   0  0  0  0  0  0
  -27.8984  -30.4336   23.9749 H   0  0  0  0  0  0
  -27.2693  -33.3783   26.1951 H   0  0  0  0  0  0
  -28.3878  -32.6855   25.0330 H   0  0  0  0  0  0
  -28.0668  -31.8634   26.5524 H   0  0  0  0  0  0
  -28.2418  -38.0224   24.7733 H   0  0  0  0  0  0
  -28.1252  -36.2790   24.5927 H   0  0  0  0  0  0
  -27.2357  -37.1011   25.8821 H   0  0  0  0  0  0
  -20.9476  -29.8759   21.6754 H   0  0  0  0  0  0
  -26.0102  -38.2770   24.1598 H   0  0  0  0  0  0
  -30.3037  -22.2794   22.5616 H   0  0  0  0  0  0
  -32.6245  -18.5046   21.8813 H   0  0  0  0  0  0
  -32.3455  -16.8070   21.9460 H   0  0  0  0  0  0
  -31.3401  -17.8670   22.8954 H   0  0  0  0  0  0
  -32.3438  -18.9716   19.5718 H   0  0  0  0  0  0
  -31.1379  -18.1878   18.5819 H   0  0  0  0  0  0
  -32.4178  -17.2447   19.3290 H   0  0  0  0  0  0
  -28.7484  -20.8997   18.0729 H   0  0  0  0  0  0
  -27.8158  -19.5993   18.8196 H   0  0  0  0  0  0
  -29.4400  -19.3066   18.1599 H   0  0  0  0  0  0
  -28.0841  -15.9712   21.2692 H   0  0  0  0  0  0
  -28.2227  -16.7450   19.6765 H   0  0  0  0  0  0
  -28.3801  -17.6405   21.1771 H   0  0  0  0  0  0
  -27.8493  -22.8440   19.3675 H   0  0  0  0  0  0
  -29.4547  -23.4006   19.1281 H   0  0  0  0  0  0
  -29.0349  -24.6862   21.5075 H   0  0  0  0  0  0
  -27.3667  -24.4722   21.1867 H   0  0  0  0  0  0
  -31.0240  -19.9334   22.6814 H   0  0  0  0  0  0
  1 25  1  0  0  0
  1 30  2  0  0  0
  1 83  1  0  0  0
  2  3  1  0  0  0
  2 25  1  0  0  0
  2 84  1  0  0  0
  2 85  1  0  0  0
  3  4  1  0  0  0
  3 86  1  0  0  0
  3 87  1  0  0  0
  4  5  1  0  0  0
  4 88  1  0  0  0
  4 89  1  0  0  0
  5  6  1  0  0  0
  5 26  1  0  0  0
  5 90  1  0  0  0
  6 25  1  0  0  0
  6 91  1  0  0  0
  6 92  1  0  0  0
  7  8  2  0  0  0
  7 26  1  0  0  0
  7 29  1  0  0  0
  8  9  1  0  0  0
  8 22  1  0  0  0
  9 10  1  0  0  0
  9 27  2  0  0  0
 10 11  2  0  0  0
 10 15  1  0  0  0
 11 12  1  0  0  0
 11 93  1  0  0  0
 12 13  2  0  0  0
 12 94  1  0  0  0
 13 14  1  0  0  0
 13 31  1  0  0  0
 14 15  2  0  0  0
 14 95  1  0  0  0
 15 96  1  0  0  0
 16 17  2  0  0  0
 16 21  1  0  0  0
 16 31  1  0  0  0
 17 18  1  0  0  0
 17 97  1  0  0  0
 18 19  2  0  0  0
 18 98  1  0  0  0
 19 20  1  0  0  0
 19 24  1  0  0  0
 20 21  2  0  0  0
 20 99  1  0  0  0
 21 23  1  0  0  0
 22 28  1  0  0  0
 22 32  2  0  0  0
 26 27  1  0  0  0
 28100  1  0  0  0
 28101  1  0  0  0
 29102  1  0  0  0
 29103  1  0  0  0
 33 34  1  0  0  0
 33 66  1  0  0  0
 33 70  2  0  0  0
 34 36  1  0  0  0
 34 59  1  0  0  0
 34104  1  0  0  0
 35 44  2  0  0  0
 35 45  1  0  0  0
 35 68  1  0  0  0
 36 56  1  0  0  0
 36105  1  0  0  0
 37 39  1  0  0  0
 37 47  1  0  0  0
 37 66  1  0  0  0
 37106  1  0  0  0
 38 43  2  0  0  0
 38 46  1  0  0  0
 38 47  1  0  0  0
 39 64  1  0  0  0
 39 67  2  0  0  0
 40 52  1  0  0  0
 40 53  2  0  0  0
 40 58  1  0  0  0
 41107  1  0  0  0
 41108  1  0  0  0
 41109  1  0  0  0
 41 48  1  0  0  0
 42 43  1  0  0  0
 42 66  1  0  0  0
 42110  1  0  0  0
 42111  1  0  0  0
 43 44  1  0  0  0
 44112  1  0  0  0
 45 46  2  0  0  0
 45113  1  0  0  0
 46114  1  0  0  0
 47115  1  0  0  0
 47116  1  0  0  0
 48 56  1  0  0  0
 48 65  1  0  0  0
 48117  1  0  0  0
 49 50  1  0  0  0
 49 53  1  0  0  0
 49 64  1  0  0  0
 49118  1  0  0  0
 50 51  1  0  0  0
 50119  1  0  0  0
 50120  1  0  0  0
 51 52  1  0  0  0
 51121  1  0  0  0
 51122  1  0  0  0
 52123  1  0  0  0
 52124  1  0  0  0
 53 54  1  0  0  0
 54 55  2  0  0  0
 54125  1  0  0  0
 55 57  1  0  0  0
 55126  1  0  0  0
 56 69  2  0  0  0
 57 58  2  0  0  0
 57127  1  0  0  0
 58128  1  0  0  0
 59 60  1  0  0  0
 59 61  1  0  0  0
 59 62  1  0  0  0
 60129  1  0  0  0
 60130  1  0  0  0
 60131  1  0  0  0
 61132  1  0  0  0
 61133  1  0  0  0
 61134  1  0  0  0
 62135  1  0  0  0
 62136  1  0  0  0
 62137  1  0  0  0
 63 65  1  0  0  0
 63138  1  0  0  0
 63139  1  0  0  0
 63140  1  0  0  0
 64141  1  0  0  0
 65142  1  0  0  0
 68 79  1  0  0  0
 71 72  2  0  0  0
 71 82  1  0  0  0
 71143  1  0  0  0
 72 78  1  0  0  0
 72 81  1  0  0  0
 73 80  1  0  0  0
 73 81  1  0  0  0
 73 82  2  0  0  0
 74144  1  0  0  0
 74145  1  0  0  0
 74146  1  0  0  0
 74 80  1  0  0  0
 75 80  1  0  0  0
 75147  1  0  0  0
 75148  1  0  0  0
 75149  1  0  0  0
 76 81  1  0  0  0
 76150  1  0  0  0
 76151  1  0  0  0
 76152  1  0  0  0
 77 83  1  0  0  0
 77153  1  0  0  0
 77154  1  0  0  0
 77155  1  0  0  0
 78 79  1  0  0  0
 78156  1  0  0  0
 78157  1  0  0  0
 79158  1  0  0  0
 79159  1  0  0  0
 80 83  1  0  0  0
 82160  1  0  0  0
M  CHG  1  82   1
M  ISO  4   1 100  68 101  79 101  83 100
M  END
> <chiral flag>
0

> <version>
0

> <s_m_source_file>
/data/baiqing/PycharmProjects/Reinvent-master-3.2/result/LINK_invent/BTK/process_docking_weight1_custom_sum_contain_oxygen_bond_distance_aromatic_linkinvent_7_9_3/rearranged_h_0061.sdf

> <i_m_source_file_index>
10

> <r_mmod_Potential_Energy-OPLS-2005>
872.9697265625

> <r_mmod_Stretch_Energy-OPLS-2005>
389.521453857422

> <r_mmod_Bend_Energy-OPLS-2005>
362.792694091797

> <r_mmod_Torsional_Energy-OPLS-2005>
298.335632324219

> <r_mmod_Improper_Torsional_Energy-OPLS-2005>
6.28538036346436

> <r_mmod_Van_der_Waal_Energy-OPLS-2005>
120.111602783203

> <r_mmod_Electrostatic_Energy-OPLS-2005>
-167.515502929688

> <r_mmod_Solvation_Energy-OPLS-2005>
-408.787231445312

> <b_mmod_Minimization_Converged-OPLS-2005>
0

> <r_mmod_RMS_Derivative-OPLS-2005>
14.8621377944946

$$$$
10
                    3D
 Structure written by MMmdl.
157165  0  0  1  0            999 V2000
  -30.4234  -15.3282   20.3698 C   0  0  0  0  0  0
  -30.4470  -12.8529   19.5430 C   0  0  0  0  0  0
  -29.5481  -12.5990   18.3050 C   0  0  0  0  0  0
  -28.0959  -12.3188   18.7256 C   0  0  0  0  0  0
  -27.6184  -13.2870   19.8353 C   0  0  2  0  0  0
  -28.6502  -13.4713   20.9714 C   0  0  0  0  0  0
  -25.2415  -13.8280   20.5760 C   0  0  0  0  0  0
  -24.1767  -13.0451   20.9269 C   0  0  0  0  0  0
  -24.6436  -11.6957   20.8771 C   0  0  0  0  0  0
  -23.9124  -10.4306   21.0404 C   0  0  0  0  0  0
  -24.3658   -9.4217   21.9183 C   0  0  0  0  0  0
  -23.6317   -8.2256   22.0757 C   0  0  0  0  0  0
  -22.4298   -8.0296   21.3548 C   0  0  0  0  0  0
  -21.9945   -9.0274   20.4652 C   0  0  0  0  0  0
  -22.7290  -10.2149   20.3060 C   0  0  0  0  0  0
  -21.6858   -6.0748   22.5275 C   0  0  0  0  0  0
  -21.4013   -6.5645   23.8211 C   0  0  0  0  0  0
  -21.3657   -5.6796   24.9171 C   0  0  0  0  0  0
  -21.6045   -4.3058   24.7222 C   0  0  0  0  0  0
  -21.8820   -3.8153   23.4342 C   0  0  0  0  0  0
  -21.9200   -4.6973   22.3401 C   0  0  0  0  0  0
  -22.7782  -13.5203   21.1893 C   0  0  0  0  0  0
  -22.1667   -4.2160   21.0977 F   0  0  0  0  0  0
  -21.5632   -3.4541   25.7734 F   0  0  0  0  0  0
  -29.8788  -14.0014   20.3529 N   0  0  0  0  0  0
  -26.2863  -12.9572   20.3268 N   0  0  0  0  0  0
  -25.9387  -11.6666   20.5750 N   0  0  0  0  0  0
  -22.0425  -12.8177   22.0435 N   0  0  0  0  0  0
  -25.4018  -15.2010   20.4159 N   0  0  0  0  0  0
  -31.6371  -15.3111   20.1017 O   0  0  0  0  0  0
  -21.6653   -6.8896   21.4241 O   0  0  0  0  0  0
  -22.3449  -14.5487   20.6718 O   0  0  0  0  0  0
  -24.6640  -31.8193   23.1630 C   0  0  0  0  0  0
  -25.9297  -32.4571   23.8118 C   0  0  1  0  0  0
  -27.2197  -26.8750   20.2029 C   0  0  0  0  0  0
  -25.5934  -33.8387   24.2009 N   0  0  0  0  0  0
  -23.4811  -30.4228   21.5156 C   0  0  2  0  0  0
  -24.9339  -28.7955   20.1097 C   0  0  0  0  0  0
  -22.7672  -29.4401   22.4805 C   0  0  0  0  0  0
  -18.0314  -28.1412   22.8496 C   0  0  0  0  0  0
  -24.1462  -36.7190   23.2655 C   0  0  0  0  0  0
  -26.0484  -30.6091   21.3991 C   0  0  0  0  0  0
  -26.1149  -29.1905   20.7497 C   0  0  0  0  0  0
  -27.2442  -28.2487   20.7744 C   0  0  0  0  0  0
  -26.0151  -26.6458   19.4982 C   0  0  0  0  0  0
  -24.9114  -27.5445   19.4655 C   0  0  0  0  0  0
  -23.7204  -29.7290   20.1430 C   0  0  0  0  0  0
  -25.4113  -36.2961   24.0296 C   0  0  1  0  0  0
  -20.5937  -28.3737   23.1219 C   0  0  2  0  0  0
  -20.6771  -26.9416   22.5435 C   0  0  0  0  0  0
  -19.5744  -26.6373   21.5243 C   0  0  0  0  0  0
  -18.1930  -26.7949   22.1645 C   0  0  0  0  0  0
  -19.1581  -28.8901   23.2837 C   0  0  0  0  0  0
  -18.9492  -30.1497   23.8861 C   0  0  0  0  0  0
  -17.6484  -30.6609   24.0559 C   0  0  0  0  0  0
  -25.9089  -34.9349   23.4980 C   0  0  0  0  0  0
  -16.5370  -29.9096   23.6360 C   0  0  0  0  0  0
  -16.7297  -28.6513   23.0387 C   0  0  0  0  0  0
  -26.4529  -31.6549   25.0676 C   0  0  0  0  0  0
  -25.3643  -31.3818   26.1321 C   0  0  0  0  0  0
  -27.0427  -30.2913   24.6437 C   0  0  0  0  0  0
  -27.6007  -32.4363   25.7496 C   0  0  0  0  0  0
  -27.5551  -37.1749   24.8480 C   0  0  0  0  0  0
  -21.4335  -29.3009   22.3556 N   0  0  0  0  0  0
  -26.4255  -37.3703   23.9425 N   0  0  0  0  0  0
  -24.7532  -30.9800   22.0792 N   0  0  0  0  0  0
  -23.4201  -28.8033   23.3107 O   0  0  0  0  0  0
  -28.2262  -25.7655   20.3522 O   0  0  0  0  0  0
  -26.5739  -34.8909   22.4605 O   0  0  0  0  0  0
  -23.5696  -32.1165   23.6708 O   0  0  0  0  0  0
  -30.8266  -19.9220   19.0119 C   0  0  0  0  0  0
  -28.9607  -19.4326   20.7336 C   0  0  0  0  0  0
  -29.1148  -20.9175   20.2693 C   0  0  0  0  0  0
  -29.7712  -18.2082   20.2434 C   0  0  0  0  0  0
  -26.5530  -18.8624   21.2543 C   0  0  0  0  0  0
  -29.4920  -22.8998   21.9239 C   0  0  0  0  0  0
  -27.1253  -22.3503   21.4063 C   0  0  0  0  0  0
  -27.9575  -19.0933   21.8218 C   0  0  0  0  0  0
  -28.2755  -24.1353   19.9365 C   0  0  0  0  0  0
  -28.5261  -22.5296   20.7914 C   0  0  0  0  0  0
  -30.1381  -21.0085   19.3981 N   0  0  0  0  0  0
  -30.7006  -18.6281   19.3592 N   0  0  0  0  0  0
  -29.6599  -16.6059   20.5605 N   0  0  0  0  0  0
  -31.4618  -13.0657   19.2028 H   0  0  0  0  0  0
  -30.5349  -11.9525   20.1532 H   0  0  0  0  0  0
  -29.9355  -11.7657   17.7177 H   0  0  0  0  0  0
  -29.5801  -13.4737   17.6536 H   0  0  0  0  0  0
  -28.0486  -11.2922   19.0900 H   0  0  0  0  0  0
  -27.4324  -12.3690   17.8614 H   0  0  0  0  0  0
  -27.5312  -14.2554   19.3405 H   0  0  0  0  0  0
  -28.8337  -12.5363   21.5033 H   0  0  0  0  0  0
  -28.2816  -14.1810   21.7132 H   0  0  0  0  0  0
  -25.2805   -9.5686   22.4764 H   0  0  0  0  0  0
  -24.0021   -7.4654   22.7487 H   0  0  0  0  0  0
  -21.0870   -8.8812   19.8963 H   0  0  0  0  0  0
  -22.3752  -10.9695   19.6173 H   0  0  0  0  0  0
  -21.1991   -7.6151   23.9711 H   0  0  0  0  0  0
  -21.1476   -6.0526   25.9075 H   0  0  0  0  0  0
  -22.0600   -2.7615   23.2839 H   0  0  0  0  0  0
  -22.4053  -11.9854   22.4844 H   0  0  0  0  0  0
  -21.1036  -13.1190   22.2618 H   0  0  0  0  0  0
  -24.6217  -15.8421   20.5137 H   0  0  0  0  0  0
  -26.2178  -15.6327   20.0031 H   0  0  0  0  0  0
  -26.7391  -32.5094   23.0851 H   0  0  0  0  0  0
  -24.9982  -33.9463   25.0089 H   0  0  0  0  0  0
  -22.7945  -31.2533   21.3404 H   0  0  0  0  0  0
  -23.3748  -35.9499   23.3305 H   0  0  0  0  0  0
  -24.3527  -36.8854   22.2074 H   0  0  0  0  0  0
  -23.7192  -37.6359   23.6727 H   0  0  0  0  0  0
  -26.2236  -31.3479   20.6156 H   0  0  0  0  0  0
  -26.9102  -30.6719   22.0516 H   0  0  0  0  0  0
  -28.1317  -28.5431   21.3172 H   0  0  0  0  0  0
  -25.8856  -25.6918   19.0082 H   0  0  0  0  0  0
  -24.0136  -27.2313   18.9495 H   0  0  0  0  0  0
  -23.8698  -30.4912   19.3775 H   0  0  0  0  0  0
  -22.8273  -29.1822   19.8354 H   0  0  0  0  0  0
  -25.1310  -36.1741   25.0784 H   0  0  0  0  0  0
  -21.0021  -28.3341   24.1340 H   0  0  0  0  0  0
  -20.5629  -26.2358   23.3676 H   0  0  0  0  0  0
  -21.6637  -26.7367   22.1253 H   0  0  0  0  0  0
  -19.6879  -25.6273   21.1299 H   0  0  0  0  0  0
  -19.6689  -27.3164   20.6762 H   0  0  0  0  0  0
  -17.4195  -26.6724   21.4046 H   0  0  0  0  0  0
  -18.0296  -26.0100   22.9046 H   0  0  0  0  0  0
  -19.7962  -30.7340   24.2200 H   0  0  0  0  0  0
  -17.5031  -31.6293   24.5150 H   0  0  0  0  0  0
  -15.5368  -30.2985   23.7702 H   0  0  0  0  0  0
  -15.8694  -28.0816   22.7129 H   0  0  0  0  0  0
  -24.5854  -30.7120   25.7650 H   0  0  0  0  0  0
  -24.8790  -32.3021   26.4579 H   0  0  0  0  0  0
  -25.7869  -30.9115   27.0205 H   0  0  0  0  0  0
  -26.3089  -29.6599   24.1415 H   0  0  0  0  0  0
  -27.3910  -29.7272   25.5101 H   0  0  0  0  0  0
  -27.9048  -30.4094   23.9871 H   0  0  0  0  0  0
  -27.2565  -33.3719   26.1911 H   0  0  0  0  0  0
  -28.3919  -32.6826   25.0408 H   0  0  0  0  0  0
  -28.0554  -31.8588   26.5552 H   0  0  0  0  0  0
  -28.2567  -38.0048   24.7520 H   0  0  0  0  0  0
  -28.1035  -36.2573   24.6298 H   0  0  0  0  0  0
  -27.2281  -37.1397   25.8888 H   0  0  0  0  0  0
  -20.9582  -29.8667   21.6661 H   0  0  0  0  0  0
  -26.0095  -38.2748   24.1459 H   0  0  0  0  0  0
  -31.6227  -20.1234   18.3124 H   0  0  0  0  0  0
  -25.8422  -18.6284   22.0462 H   0  0  0  0  0  0
  -26.5504  -18.0284   20.5527 H   0  0  0  0  0  0
  -26.1795  -19.7339   20.7197 H   0  0  0  0  0  0
  -30.4932  -23.0636   21.5282 H   0  0  0  0  0  0
  -29.1735  -23.8078   22.4357 H   0  0  0  0  0  0
  -29.5646  -22.1059   22.6686 H   0  0  0  0  0  0
  -26.7268  -23.2974   21.7730 H   0  0  0  0  0  0
  -26.4195  -21.9786   20.6655 H   0  0  0  0  0  0
  -27.1142  -21.6812   22.2579 H   0  0  0  0  0  0
  -27.9796  -19.8416   22.6095 H   0  0  0  0  0  0
  -28.2737  -18.1833   22.3332 H   0  0  0  0  0  0
  -29.1162  -24.1403   19.2422 H   0  0  0  0  0  0
  -27.4182  -23.9841   19.2828 H   0  0  0  0  0  0
  -28.7569  -16.3890   20.9500 H   0  0  0  0  0  0
  1 25  1  0  0  0
  1 30  2  0  0  0
  1 83  1  0  0  0
  2  3  1  0  0  0
  2 25  1  0  0  0
  2 84  1  0  0  0
  2 85  1  0  0  0
  3  4  1  0  0  0
  3 86  1  0  0  0
  3 87  1  0  0  0
  4  5  1  0  0  0
  4 88  1  0  0  0
  4 89  1  0  0  0
  5  6  1  0  0  0
  5 26  1  0  0  0
  5 90  1  0  0  0
  6 25  1  0  0  0
  6 91  1  0  0  0
  6 92  1  0  0  0
  7  8  2  0  0  0
  7 26  1  0  0  0
  7 29  1  0  0  0
  8  9  1  0  0  0
  8 22  1  0  0  0
  9 10  1  0  0  0
  9 27  2  0  0  0
 10 11  2  0  0  0
 10 15  1  0  0  0
 11 12  1  0  0  0
 11 93  1  0  0  0
 12 13  2  0  0  0
 12 94  1  0  0  0
 13 14  1  0  0  0
 13 31  1  0  0  0
 14 15  2  0  0  0
 14 95  1  0  0  0
 15 96  1  0  0  0
 16 17  2  0  0  0
 16 21  1  0  0  0
 16 31  1  0  0  0
 17 18  1  0  0  0
 17 97  1  0  0  0
 18 19  2  0  0  0
 18 98  1  0  0  0
 19 20  1  0  0  0
 19 24  1  0  0  0
 20 21  2  0  0  0
 20 99  1  0  0  0
 21 23  1  0  0  0
 22 28  1  0  0  0
 22 32  2  0  0  0
 26 27  1  0  0  0
 28100  1  0  0  0
 28101  1  0  0  0
 29102  1  0  0  0
 29103  1  0  0  0
 33 34  1  0  0  0
 33 66  1  0  0  0
 33 70  2  0  0  0
 34 36  1  0  0  0
 34 59  1  0  0  0
 34104  1  0  0  0
 35 44  2  0  0  0
 35 45  1  0  0  0
 35 68  1  0  0  0
 36 56  1  0  0  0
 36105  1  0  0  0
 37 39  1  0  0  0
 37 47  1  0  0  0
 37 66  1  0  0  0
 37106  1  0  0  0
 38 43  2  0  0  0
 38 46  1  0  0  0
 38 47  1  0  0  0
 39 64  1  0  0  0
 39 67  2  0  0  0
 40 52  1  0  0  0
 40 53  2  0  0  0
 40 58  1  0  0  0
 41107  1  0  0  0
 41108  1  0  0  0
 41109  1  0  0  0
 41 48  1  0  0  0
 42 43  1  0  0  0
 42 66  1  0  0  0
 42110  1  0  0  0
 42111  1  0  0  0
 43 44  1  0  0  0
 44112  1  0  0  0
 45 46  2  0  0  0
 45113  1  0  0  0
 46114  1  0  0  0
 47115  1  0  0  0
 47116  1  0  0  0
 48 56  1  0  0  0
 48 65  1  0  0  0
 48117  1  0  0  0
 49 50  1  0  0  0
 49 53  1  0  0  0
 49 64  1  0  0  0
 49118  1  0  0  0
 50 51  1  0  0  0
 50119  1  0  0  0
 50120  1  0  0  0
 51 52  1  0  0  0
 51121  1  0  0  0
 51122  1  0  0  0
 52123  1  0  0  0
 52124  1  0  0  0
 53 54  1  0  0  0
 54 55  2  0  0  0
 54125  1  0  0  0
 55 57  1  0  0  0
 55126  1  0  0  0
 56 69  2  0  0  0
 57 58  2  0  0  0
 57127  1  0  0  0
 58128  1  0  0  0
 59 60  1  0  0  0
 59 61  1  0  0  0
 59 62  1  0  0  0
 60129  1  0  0  0
 60130  1  0  0  0
 60131  1  0  0  0
 61132  1  0  0  0
 61133  1  0  0  0
 61134  1  0  0  0
 62135  1  0  0  0
 62136  1  0  0  0
 62137  1  0  0  0
 63 65  1  0  0  0
 63138  1  0  0  0
 63139  1  0  0  0
 63140  1  0  0  0
 64141  1  0  0  0
 65142  1  0  0  0
 68 79  1  0  0  0
 71 81  2  0  0  0
 71 82  1  0  0  0
 71143  1  0  0  0
 72 73  2  0  0  0
 72 74  1  0  0  0
 72 78  1  0  0  0
 73 80  1  0  0  0
 73 81  1  0  0  0
 74 82  2  0  0  0
 74 83  1  0  0  0
 75 78  1  0  0  0
 75144  1  0  0  0
 75145  1  0  0  0
 75146  1  0  0  0
 76147  1  0  0  0
 76148  1  0  0  0
 76149  1  0  0  0
 76 80  1  0  0  0
 77 80  1  0  0  0
 77150  1  0  0  0
 77151  1  0  0  0
 77152  1  0  0  0
 78153  1  0  0  0
 78154  1  0  0  0
 79 80  1  0  0  0
 79155  1  0  0  0
 79156  1  0  0  0
 83157  1  0  0  0
M  ISO  4   1 100  68 101  79 101  83 100
M  END
> <chiral flag>
0

> <version>
0

> <s_m_source_file>
/data/baiqing/PycharmProjects/Reinvent-master-3.2/result/LINK_invent/BTK/process_docking_weight1_custom_sum_contain_oxygen_bond_distance_aromatic_linkinvent_7_9_3/rearranged_h_0061.sdf

> <i_m_source_file_index>
11

> <r_mmod_Potential_Energy-OPLS-2005>
1076.12097167969

> <r_mmod_Stretch_Energy-OPLS-2005>
676.569641113281

> <r_mmod_Bend_Energy-OPLS-2005>
481.512298583984

> <r_mmod_Torsional_Energy-OPLS-2005>
214.79035949707

> <r_mmod_Improper_Torsional_Energy-OPLS-2005>
4.09417152404785

> <r_mmod_Van_der_Waal_Energy-OPLS-2005>
128.846633911133

> <r_mmod_Electrostatic_Energy-OPLS-2005>
-715.432312011719

> <r_mmod_Solvation_Energy-OPLS-2005>
-240.485885620117

> <b_mmod_Minimization_Converged-OPLS-2005>
0

> <r_mmod_RMS_Derivative-OPLS-2005>
2.63926243782043

$$$$
11
                    3D
 Structure written by MMmdl.
153161  0  0  1  0            999 V2000
  -30.4952  -15.0477   20.4269 C   0  0  0  0  0  0
  -30.4518  -12.6596   19.5041 C   0  0  0  0  0  0
  -29.5408  -12.5619   18.2568 C   0  0  0  0  0  0
  -28.0747  -12.3226   18.6701 C   0  0  0  0  0  0
  -27.6328  -13.2468   19.8374 C   0  0  2  0  0  0
  -28.6728  -13.2435   20.9737 C   0  0  0  0  0  0
  -25.2440  -13.8171   20.5619 C   0  0  0  0  0  0
  -24.1785  -13.0406   20.9195 C   0  0  0  0  0  0
  -24.6404  -11.6893   20.8731 C   0  0  0  0  0  0
  -23.9079  -10.4273   21.0396 C   0  0  0  0  0  0
  -24.3608   -9.4191   21.9189 C   0  0  0  0  0  0
  -23.6262   -8.2239   22.0769 C   0  0  0  0  0  0
  -22.4254   -8.0269   21.3536 C   0  0  0  0  0  0
  -21.9895   -9.0266   20.4660 C   0  0  0  0  0  0
  -22.7244  -10.2133   20.3055 C   0  0  0  0  0  0
  -21.6842   -6.0706   22.5249 C   0  0  0  0  0  0
  -21.4024   -6.5618   23.8176 C   0  0  0  0  0  0
  -21.3669   -5.6781   24.9152 C   0  0  0  0  0  0
  -21.6035   -4.3040   24.7215 C   0  0  0  0  0  0
  -21.8825   -3.8121   23.4339 C   0  0  0  0  0  0
  -21.9197   -4.6931   22.3386 C   0  0  0  0  0  0
  -22.7807  -13.5172   21.1876 C   0  0  0  0  0  0
  -22.1651   -4.2107   21.0971 F   0  0  0  0  0  0
  -21.5637   -3.4534   25.7749 F   0  0  0  0  0  0
  -29.9303  -13.7540   20.3941 N   0  0  0  0  0  0
  -26.2895  -12.9416   20.3167 N   0  0  0  0  0  0
  -25.9332  -11.6544   20.5680 N   0  0  0  0  0  0
  -22.0438  -12.8204   22.0427 N   0  0  0  0  0  0
  -25.4039  -15.1913   20.3999 N   0  0  0  0  0  0
  -31.6701  -15.1051   20.0380 O   0  0  0  0  0  0
  -21.6633   -6.8853   21.4215 O   0  0  0  0  0  0
  -22.3515  -14.5495   20.6717 O   0  0  0  0  0  0
  -24.6462  -31.8361   23.1869 C   0  0  0  0  0  0
  -25.9227  -32.4641   23.8236 C   0  0  1  0  0  0
  -27.2150  -27.0978   20.1380 C   0  0  0  0  0  0
  -25.5994  -33.8454   24.2128 N   0  0  0  0  0  0
  -23.4530  -30.4572   21.5352 C   0  0  2  0  0  0
  -24.9014  -28.8759   20.1176 C   0  0  0  0  0  0
  -22.7580  -29.4482   22.4857 C   0  0  0  0  0  0
  -18.0303  -28.1371   22.8483 C   0  0  0  0  0  0
  -24.1488  -36.7237   23.2643 C   0  0  0  0  0  0
  -26.0143  -30.6954   21.3916 C   0  0  0  0  0  0
  -26.0863  -29.3066   20.7264 C   0  0  0  0  0  0
  -27.2531  -28.4408   20.7075 C   0  0  0  0  0  0
  -26.0045  -26.7762   19.4960 C   0  0  0  0  0  0
  -24.8718  -27.6231   19.4900 C   0  0  0  0  0  0
  -23.6826  -29.7890   20.1564 C   0  0  0  0  0  0
  -25.4121  -36.2964   24.0287 C   0  0  1  0  0  0
  -20.5923  -28.3678   23.1241 C   0  0  2  0  0  0
  -20.6769  -26.9378   22.5384 C   0  0  0  0  0  0
  -19.5733  -26.6342   21.5208 C   0  0  0  0  0  0
  -18.1929  -26.7912   22.1624 C   0  0  0  0  0  0
  -19.1558  -28.8852   23.2855 C   0  0  0  0  0  0
  -18.9479  -30.1461   23.8851 C   0  0  0  0  0  0
  -17.6461  -30.6568   24.0523 C   0  0  0  0  0  0
  -25.9082  -34.9382   23.5017 C   0  0  0  0  0  0
  -16.5365  -29.9049   23.6350 C   0  0  0  0  0  0
  -16.7287  -28.6469   23.0350 C   0  0  0  0  0  0
  -26.4517  -31.6551   25.0727 C   0  0  0  0  0  0
  -25.3696  -31.3728   26.1420 C   0  0  0  0  0  0
  -27.0385  -30.2945   24.6339 C   0  0  0  0  0  0
  -27.6029  -32.4380   25.7485 C   0  0  0  0  0  0
  -27.5563  -37.1710   24.8439 C   0  0  0  0  0  0
  -21.4283  -29.3014   22.3618 N   0  0  0  0  0  0
  -26.4239  -37.3717   23.9447 N   0  0  0  0  0  0
  -24.7255  -31.0163   22.0927 N   0  0  0  0  0  0
  -23.4206  -28.7983   23.2983 O   0  0  0  0  0  0
  -28.2510  -26.0811   20.1277 O   0  0  0  0  0  0
  -26.5638  -34.8875   22.4584 O   0  0  0  0  0  0
  -23.5586  -32.1296   23.7070 O   0  0  0  0  0  0
  -29.1891  -22.0622   18.0631 C   0  0  0  0  0  0
  -29.0095  -20.7516   19.9034 C   0  0  0  0  0  0
  -28.5510  -23.1549   19.9323 C   0  0  0  0  0  0
  -29.5242  -22.1606   16.5870 C   0  0  0  0  0  0
  -28.8832  -16.3178   21.8358 C   0  0  0  0  0  0
  -28.9612  -19.1778   20.4989 C   0  0  0  0  0  0
  -27.9816  -24.5914   20.5879 C   0  0  0  0  0  0
  -29.9407  -17.7987   20.1286 C   0  0  0  0  0  0
  -29.2729  -20.8397   18.6026 N   0  0  0  0  0  0
  -28.8542  -23.2195   18.6401 N   0  0  0  0  0  0
  -28.6084  -21.9086   20.5970 N   0  0  0  0  0  0
  -29.7333  -16.2757   20.6439 N   0  0  0  0  0  0
  -31.4834  -12.8281   19.1953 H   0  0  0  0  0  0
  -30.4698  -11.7037   20.0287 H   0  0  0  0  0  0
  -29.8821  -11.7554   17.6075 H   0  0  0  0  0  0
  -29.6234  -13.4776   17.6676 H   0  0  0  0  0  0
  -27.9944  -11.2803   18.9855 H   0  0  0  0  0  0
  -27.4130  -12.4320   17.8107 H   0  0  0  0  0  0
  -27.5996  -14.2602   19.4347 H   0  0  0  0  0  0
  -28.8023  -12.2326   21.3685 H   0  0  0  0  0  0
  -28.3232  -13.8236   21.8207 H   0  0  0  0  0  0
  -25.2758   -9.5661   22.4783 H   0  0  0  0  0  0
  -23.9956   -7.4630   22.7506 H   0  0  0  0  0  0
  -21.0813   -8.8796   19.8971 H   0  0  0  0  0  0
  -22.3701  -10.9672   19.6174 H   0  0  0  0  0  0
  -21.2021   -7.6128   23.9660 H   0  0  0  0  0  0
  -21.1481   -6.0525   25.9052 H   0  0  0  0  0  0
  -22.0603   -2.7574   23.2860 H   0  0  0  0  0  0
  -22.4068  -11.9891   22.4876 H   0  0  0  0  0  0
  -21.1051  -13.1245   22.2577 H   0  0  0  0  0  0
  -24.6246  -15.8329   20.5057 H   0  0  0  0  0  0
  -26.2371  -15.6378   20.0364 H   0  0  0  0  0  0
  -26.7280  -32.5170   23.0937 H   0  0  0  0  0  0
  -25.0180  -33.9551   25.0278 H   0  0  0  0  0  0
  -22.7622  -31.2892   21.3784 H   0  0  0  0  0  0
  -23.3786  -35.9523   23.3197 H   0  0  0  0  0  0
  -24.3595  -36.9005   22.2087 H   0  0  0  0  0  0
  -23.7214  -37.6367   23.6798 H   0  0  0  0  0  0
  -26.1725  -31.4463   20.6187 H   0  0  0  0  0  0
  -26.8872  -30.7415   22.0307 H   0  0  0  0  0  0
  -28.1653  -28.7842   21.1745 H   0  0  0  0  0  0
  -25.9127  -25.8208   19.0028 H   0  0  0  0  0  0
  -23.9684  -27.2795   19.0084 H   0  0  0  0  0  0
  -23.8324  -30.5686   19.4085 H   0  0  0  0  0  0
  -22.7966  -29.2392   19.8338 H   0  0  0  0  0  0
  -25.1275  -36.1735   25.0761 H   0  0  0  0  0  0
  -21.0017  -28.3238   24.1357 H   0  0  0  0  0  0
  -20.5646  -26.2285   23.3586 H   0  0  0  0  0  0
  -21.6633  -26.7317   22.1173 H   0  0  0  0  0  0
  -19.6871  -25.6247   21.1250 H   0  0  0  0  0  0
  -19.6701  -27.3157   20.6755 H   0  0  0  0  0  0
  -17.4182  -26.6705   21.4007 H   0  0  0  0  0  0
  -18.0291  -26.0018   22.9001 H   0  0  0  0  0  0
  -19.7933  -30.7309   24.2196 H   0  0  0  0  0  0
  -17.4998  -31.6252   24.5126 H   0  0  0  0  0  0
  -15.5366  -30.2901   23.7731 H   0  0  0  0  0  0
  -15.8678  -28.0792   22.7062 H   0  0  0  0  0  0
  -24.5911  -30.7030   25.7737 H   0  0  0  0  0  0
  -24.8833  -32.2894   26.4777 H   0  0  0  0  0  0
  -25.7971  -30.8941   27.0242 H   0  0  0  0  0  0
  -26.2982  -29.6671   24.1372 H   0  0  0  0  0  0
  -27.4024  -29.7234   25.4885 H   0  0  0  0  0  0
  -27.8868  -30.4168   23.9614 H   0  0  0  0  0  0
  -27.2644  -33.3824   26.1773 H   0  0  0  0  0  0
  -28.3953  -32.6745   25.0368 H   0  0  0  0  0  0
  -28.0557  -31.8707   26.5620 H   0  0  0  0  0  0
  -28.2410  -38.0151   24.7649 H   0  0  0  0  0  0
  -28.1207  -36.2693   24.6052 H   0  0  0  0  0  0
  -27.2302  -37.1079   25.8825 H   0  0  0  0  0  0
  -20.9510  -29.8813   21.6854 H   0  0  0  0  0  0
  -26.0070  -38.2708   24.1665 H   0  0  0  0  0  0
  -30.1469  -21.3278   16.2653 H   0  0  0  0  0  0
  -30.0857  -23.0710   16.3822 H   0  0  0  0  0  0
  -28.6190  -22.1658   15.9766 H   0  0  0  0  0  0
  -27.8296  -16.1727   21.5873 H   0  0  0  0  0  0
  -28.9789  -17.2683   22.3544 H   0  0  0  0  0  0
  -29.1861  -15.5938   22.5899 H   0  0  0  0  0  0
  -27.9323  -18.8578   20.3340 H   0  0  0  0  0  0
  -29.0259  -19.3187   21.5774 H   0  0  0  0  0  0
  -28.3207  -24.5772   21.6267 H   0  0  0  0  0  0
  -26.9010  -24.4642   20.6658 H   0  0  0  0  0  0
  -30.9567  -18.0662   20.4245 H   0  0  0  0  0  0
  -29.9693  -17.7305   19.0407 H   0  0  0  0  0  0
  1 25  1  0  0  0
  1 30  2  0  0  0
  1 82  1  0  0  0
  2  3  1  0  0  0
  2 25  1  0  0  0
  2 83  1  0  0  0
  2 84  1  0  0  0
  3  4  1  0  0  0
  3 85  1  0  0  0
  3 86  1  0  0  0
  4  5  1  0  0  0
  4 87  1  0  0  0
  4 88  1  0  0  0
  5  6  1  0  0  0
  5 26  1  0  0  0
  5 89  1  0  0  0
  6 25  1  0  0  0
  6 90  1  0  0  0
  6 91  1  0  0  0
  7  8  2  0  0  0
  7 26  1  0  0  0
  7 29  1  0  0  0
  8  9  1  0  0  0
  8 22  1  0  0  0
  9 10  1  0  0  0
  9 27  2  0  0  0
 10 11  2  0  0  0
 10 15  1  0  0  0
 11 12  1  0  0  0
 11 92  1  0  0  0
 12 13  2  0  0  0
 12 93  1  0  0  0
 13 14  1  0  0  0
 13 31  1  0  0  0
 14 15  2  0  0  0
 14 94  1  0  0  0
 15 95  1  0  0  0
 16 17  2  0  0  0
 16 21  1  0  0  0
 16 31  1  0  0  0
 17 18  1  0  0  0
 17 96  1  0  0  0
 18 19  2  0  0  0
 18 97  1  0  0  0
 19 20  1  0  0  0
 19 24  1  0  0  0
 20 21  2  0  0  0
 20 98  1  0  0  0
 21 23  1  0  0  0
 22 28  1  0  0  0
 22 32  2  0  0  0
 26 27  1  0  0  0
 28 99  1  0  0  0
 28100  1  0  0  0
 29101  1  0  0  0
 29102  1  0  0  0
 33 34  1  0  0  0
 33 66  1  0  0  0
 33 70  2  0  0  0
 34 36  1  0  0  0
 34 59  1  0  0  0
 34103  1  0  0  0
 35 44  2  0  0  0
 35 45  1  0  0  0
 35 68  1  0  0  0
 36 56  1  0  0  0
 36104  1  0  0  0
 37 39  1  0  0  0
 37 47  1  0  0  0
 37 66  1  0  0  0
 37105  1  0  0  0
 38 43  2  0  0  0
 38 46  1  0  0  0
 38 47  1  0  0  0
 39 64  1  0  0  0
 39 67  2  0  0  0
 40 52  1  0  0  0
 40 53  2  0  0  0
 40 58  1  0  0  0
 41106  1  0  0  0
 41107  1  0  0  0
 41108  1  0  0  0
 41 48  1  0  0  0
 42 43  1  0  0  0
 42 66  1  0  0  0
 42109  1  0  0  0
 42110  1  0  0  0
 43 44  1  0  0  0
 44111  1  0  0  0
 45 46  2  0  0  0
 45112  1  0  0  0
 46113  1  0  0  0
 47114  1  0  0  0
 47115  1  0  0  0
 48 56  1  0  0  0
 48 65  1  0  0  0
 48116  1  0  0  0
 49 50  1  0  0  0
 49 53  1  0  0  0
 49 64  1  0  0  0
 49117  1  0  0  0
 50 51  1  0  0  0
 50118  1  0  0  0
 50119  1  0  0  0
 51 52  1  0  0  0
 51120  1  0  0  0
 51121  1  0  0  0
 52122  1  0  0  0
 52123  1  0  0  0
 53 54  1  0  0  0
 54 55  2  0  0  0
 54124  1  0  0  0
 55 57  1  0  0  0
 55125  1  0  0  0
 56 69  2  0  0  0
 57 58  2  0  0  0
 57126  1  0  0  0
 58127  1  0  0  0
 59 60  1  0  0  0
 59 61  1  0  0  0
 59 62  1  0  0  0
 60128  1  0  0  0
 60129  1  0  0  0
 60130  1  0  0  0
 61131  1  0  0  0
 61132  1  0  0  0
 61133  1  0  0  0
 62134  1  0  0  0
 62135  1  0  0  0
 62136  1  0  0  0
 63 65  1  0  0  0
 63137  1  0  0  0
 63138  1  0  0  0
 63139  1  0  0  0
 64140  1  0  0  0
 65141  1  0  0  0
 68 77  1  0  0  0
 71 74  1  0  0  0
 71 79  2  0  0  0
 71 80  1  0  0  0
 72 76  1  0  0  0
 72 79  1  0  0  0
 72 81  2  0  0  0
 73 77  1  0  0  0
 73 80  2  0  0  0
 73 81  1  0  0  0
 74142  1  0  0  0
 74143  1  0  0  0
 74144  1  0  0  0
 75 82  1  0  0  0
 75145  1  0  0  0
 75146  1  0  0  0
 75147  1  0  0  0
 76 78  1  0  0  0
 76148  1  0  0  0
 76149  1  0  0  0
 77150  1  0  0  0
 77151  1  0  0  0
 78 82  1  0  0  0
 78152  1  0  0  0
 78153  1  0  0  0
M  ISO  4   1 100  68 101  77 101  82 100
M  END
> <chiral flag>
0

> <version>
0

> <s_m_source_file>
/data/baiqing/PycharmProjects/Reinvent-master-3.2/result/LINK_invent/BTK/process_docking_weight1_custom_sum_contain_oxygen_bond_distance_aromatic_linkinvent_7_9_3/rearranged_h_0061.sdf

> <i_m_source_file_index>
12

> <r_mmod_Potential_Energy-OPLS-2005>
213.421096801758

> <r_mmod_Stretch_Energy-OPLS-2005>
345.976318359375

> <r_mmod_Bend_Energy-OPLS-2005>
304.587432861328

> <r_mmod_Torsional_Energy-OPLS-2005>
281.327758789062

> <r_mmod_Improper_Torsional_Energy-OPLS-2005>
8.27653026580811

> <r_mmod_Van_der_Waal_Energy-OPLS-2005>
150.678176879883

> <r_mmod_Electrostatic_Energy-OPLS-2005>
-877.910095214844

> <r_mmod_Solvation_Energy-OPLS-2005>
-240.868743896484

> <b_mmod_Minimization_Converged-OPLS-2005>
0

> <r_mmod_RMS_Derivative-OPLS-2005>
5.69999933242798

$$$$
12
                    3D
 Structure written by MMmdl.
151159  0  0  1  0            999 V2000
  -30.3953  -15.4199   20.3556 C   0  0  0  0  0  0
  -30.4380  -12.9299   19.5006 C   0  0  0  0  0  0
  -29.5311  -12.6017   18.2840 C   0  0  0  0  0  0
  -28.0947  -12.2783   18.7324 C   0  0  0  0  0  0
  -27.6054  -13.2616   19.8205 C   0  0  2  0  0  0
  -28.6514  -13.4942   20.9361 C   0  0  0  0  0  0
  -25.2344  -13.8142   20.5739 C   0  0  0  0  0  0
  -24.1701  -13.0362   20.9258 C   0  0  0  0  0  0
  -24.6369  -11.6868   20.8778 C   0  0  0  0  0  0
  -23.9062  -10.4249   21.0409 C   0  0  0  0  0  0
  -24.3621   -9.4179   21.9189 C   0  0  0  0  0  0
  -23.6295   -8.2221   22.0749 C   0  0  0  0  0  0
  -22.4281   -8.0261   21.3535 C   0  0  0  0  0  0
  -21.9912   -9.0228   20.4637 C   0  0  0  0  0  0
  -22.7241  -10.2101   20.3052 C   0  0  0  0  0  0
  -21.6860   -6.0724   22.5275 C   0  0  0  0  0  0
  -21.4019   -6.5628   23.8206 C   0  0  0  0  0  0
  -21.3653   -5.6782   24.9167 C   0  0  0  0  0  0
  -21.6045   -4.3046   24.7223 C   0  0  0  0  0  0
  -21.8830   -3.8138   23.4345 C   0  0  0  0  0  0
  -21.9196   -4.6953   22.3400 C   0  0  0  0  0  0
  -22.7730  -13.5143   21.1888 C   0  0  0  0  0  0
  -22.1672   -4.2140   21.0982 F   0  0  0  0  0  0
  -21.5615   -3.4533   25.7736 F   0  0  0  0  0  0
  -29.8376  -14.0877   20.2779 N   0  0  0  0  0  0
  -26.2797  -12.9417   20.3277 N   0  0  0  0  0  0
  -25.9311  -11.6538   20.5764 N   0  0  0  0  0  0
  -22.0389  -12.8142   22.0452 N   0  0  0  0  0  0
  -25.3836  -15.1864   20.4106 N   0  0  0  0  0  0
  -31.6324  -15.3688   20.2410 O   0  0  0  0  0  0
  -21.6640   -6.8865   21.4238 O   0  0  0  0  0  0
  -22.3428  -14.5458   20.6731 O   0  0  0  0  0  0
  -24.6715  -31.8150   23.1629 C   0  0  0  0  0  0
  -25.9352  -32.4545   23.8136 C   0  0  1  0  0  0
  -27.2282  -26.8519   20.1996 C   0  0  0  0  0  0
  -25.5983  -33.8360   24.2039 N   0  0  0  0  0  0
  -23.4918  -30.4227   21.5137 C   0  0  2  0  0  0
  -24.9474  -28.7910   20.1221 C   0  0  0  0  0  0
  -22.7725  -29.4393   22.4755 C   0  0  0  0  0  0
  -18.0337  -28.1412   22.8465 C   0  0  0  0  0  0
  -24.1499  -36.7188   23.2651 C   0  0  0  0  0  0
  -26.0663  -30.5983   21.4049 C   0  0  0  0  0  0
  -26.1356  -29.1779   20.7550 C   0  0  0  0  0  0
  -27.2715  -28.2343   20.7603 C   0  0  0  0  0  0
  -26.0062  -26.6354   19.5220 C   0  0  0  0  0  0
  -24.9117  -27.5408   19.4843 C   0  0  0  0  0  0
  -23.7386  -29.7291   20.1456 C   0  0  0  0  0  0
  -25.4141  -36.2941   24.0300 C   0  0  1  0  0  0
  -20.5968  -28.3764   23.1168 C   0  0  2  0  0  0
  -20.6807  -26.9436   22.5398 C   0  0  0  0  0  0
  -19.5775  -26.6376   21.5215 C   0  0  0  0  0  0
  -18.1962  -26.7943   22.1629 C   0  0  0  0  0  0
  -19.1602  -28.8913   23.2801 C   0  0  0  0  0  0
  -18.9505  -30.1501   23.8837 C   0  0  0  0  0  0
  -17.6494  -30.6595   24.0552 C   0  0  0  0  0  0
  -25.9109  -34.9324   23.4998 C   0  0  0  0  0  0
  -16.5384  -29.9078   23.6341 C   0  0  0  0  0  0
  -16.7319  -28.6502   23.0358 C   0  0  0  0  0  0
  -26.4574  -31.6514   25.0694 C   0  0  0  0  0  0
  -25.3679  -31.3777   26.1334 C   0  0  0  0  0  0
  -27.0490  -30.2874   24.6486 C   0  0  0  0  0  0
  -27.6061  -32.4339   25.7493 C   0  0  0  0  0  0
  -27.5572  -37.1754   24.8469 C   0  0  0  0  0  0
  -21.4383  -29.3040   22.3511 N   0  0  0  0  0  0
  -26.4282  -37.3684   23.9407 N   0  0  0  0  0  0
  -24.7649  -30.9748   22.0803 N   0  0  0  0  0  0
  -23.4234  -28.7969   23.3032 O   0  0  0  0  0  0
  -28.2257  -25.7129   20.1948 O   0  0  0  0  0  0
  -26.5727  -34.8873   22.4600 O   0  0  0  0  0  0
  -23.5762  -32.1145   23.6677 O   0  0  0  0  0  0
  -28.7292  -21.8625   18.8675 C   0  0  0  0  0  0
  -28.6258  -22.4796   20.1119 C   0  0  0  0  0  0
  -29.3112  -20.0034   20.1869 C   0  0  0  0  0  0
  -29.0896  -21.2323   22.3448 C   0  0  0  0  0  0
  -28.2089  -16.7127   20.2200 C   0  0  0  0  0  0
  -27.9581  -24.0863   20.5429 C   0  0  0  0  0  0
  -30.0389  -18.4037   20.5834 C   0  0  0  0  0  0
  -29.0094  -21.2449   20.8853 N   0  0  0  0  0  0
  -29.1074  -20.4945   18.9432 N   0  3  0  0  0  0
  -29.6557  -16.7580   20.3684 N   0  0  0  0  0  0
  -31.4369  -13.1771   19.1381 H   0  0  0  0  0  0
  -30.5729  -12.0508   20.1329 H   0  0  0  0  0  0
  -29.9440  -11.7712   17.7102 H   0  0  0  0  0  0
  -29.5135  -13.4579   17.6078 H   0  0  0  0  0  0
  -28.0861  -11.2626   19.1301 H   0  0  0  0  0  0
  -27.4172  -12.2786   17.8770 H   0  0  0  0  0  0
  -27.4865  -14.1952   19.2796 H   0  0  0  0  0  0
  -28.8865  -12.5632   21.4548 H   0  0  0  0  0  0
  -28.2694  -14.1634   21.7061 H   0  0  0  0  0  0
  -25.2764   -9.5663   22.4767 H   0  0  0  0  0  0
  -23.9998   -7.4617   22.7477 H   0  0  0  0  0  0
  -21.0839   -8.8747   19.8954 H   0  0  0  0  0  0
  -22.3698  -10.9640   19.6164 H   0  0  0  0  0  0
  -21.2026   -7.6139   23.9703 H   0  0  0  0  0  0
  -21.1456   -6.0511   25.9064 H   0  0  0  0  0  0
  -22.0618   -2.7601   23.2842 H   0  0  0  0  0  0
  -22.4037  -11.9816   22.4847 H   0  0  0  0  0  0
  -21.1001  -13.1143   22.2655 H   0  0  0  0  0  0
  -24.6073  -15.8283   20.5282 H   0  0  0  0  0  0
  -26.2261  -15.6380   20.0826 H   0  0  0  0  0  0
  -26.7431  -32.5067   23.0857 H   0  0  0  0  0  0
  -25.0064  -33.9418   25.0146 H   0  0  0  0  0  0
  -22.8096  -31.2556   21.3324 H   0  0  0  0  0  0
  -23.3774  -35.9505   23.3273 H   0  0  0  0  0  0
  -24.3579  -36.8873   22.2073 H   0  0  0  0  0  0
  -23.7244  -37.6361   23.6731 H   0  0  0  0  0  0
  -26.2550  -31.3330   20.6211 H   0  0  0  0  0  0
  -26.9227  -30.6606   22.0642 H   0  0  0  0  0  0
  -28.1764  -28.5384   21.2673 H   0  0  0  0  0  0
  -25.8697  -25.6870   19.0223 H   0  0  0  0  0  0
  -24.0120  -27.2370   18.9669 H   0  0  0  0  0  0
  -23.9061  -30.4903   19.3831 H   0  0  0  0  0  0
  -22.8481  -29.1867   19.8241 H   0  0  0  0  0  0
  -25.1344  -36.1729   25.0792 H   0  0  0  0  0  0
  -21.0060  -28.3367   24.1292 H   0  0  0  0  0  0
  -20.5686  -26.2383   23.3648 H   0  0  0  0  0  0
  -21.6666  -26.7394   22.1203 H   0  0  0  0  0  0
  -19.6927  -25.6274   21.1278 H   0  0  0  0  0  0
  -19.6706  -27.3157   20.6723 H   0  0  0  0  0  0
  -17.4230  -26.6690   21.4033 H   0  0  0  0  0  0
  -18.0350  -26.0098   22.9043 H   0  0  0  0  0  0
  -19.7978  -30.7339   24.2175 H   0  0  0  0  0  0
  -17.5039  -31.6266   24.5173 H   0  0  0  0  0  0
  -15.5381  -30.2957   23.7692 H   0  0  0  0  0  0
  -15.8725  -28.0798   22.7096 H   0  0  0  0  0  0
  -24.5872  -30.7122   25.7621 H   0  0  0  0  0  0
  -24.8855  -32.2980   26.4636 H   0  0  0  0  0  0
  -25.7886  -30.9007   27.0194 H   0  0  0  0  0  0
  -26.3173  -29.6521   24.1480 H   0  0  0  0  0  0
  -27.3979  -29.7275   25.5172 H   0  0  0  0  0  0
  -27.9130  -30.4040   23.9943 H   0  0  0  0  0  0
  -27.2627  -33.3691   26.1926 H   0  0  0  0  0  0
  -28.3934  -32.6818   25.0361 H   0  0  0  0  0  0
  -28.0658  -31.8562   26.5522 H   0  0  0  0  0  0
  -28.2569  -38.0068   24.7515 H   0  0  0  0  0  0
  -28.1091  -36.2597   24.6301 H   0  0  0  0  0  0
  -27.2288  -37.1392   25.8871 H   0  0  0  0  0  0
  -20.9662  -29.8731   21.6620 H   0  0  0  0  0  0
  -26.0127  -38.2743   24.1402 H   0  0  0  0  0  0
  -28.5218  -22.3037   17.9025 H   0  0  0  0  0  0
  -28.2223  -20.7064   22.7443 H   0  0  0  0  0  0
  -29.1042  -22.2541   22.7215 H   0  0  0  0  0  0
  -30.0033  -20.7279   22.6579 H   0  0  0  0  0  0
  -27.7493  -17.7002   20.2491 H   0  0  0  0  0  0
  -27.7656  -16.1528   21.0391 H   0  0  0  0  0  0
  -27.9438  -16.2748   19.2591 H   0  0  0  0  0  0
  -27.9859  -24.0895   21.6316 H   0  0  0  0  0  0
  -26.8961  -23.9705   20.3298 H   0  0  0  0  0  0
  -30.1985  -18.4848   21.6581 H   0  0  0  0  0  0
  -31.0405  -18.4957   20.1630 H   0  0  0  0  0  0
  -29.2399  -19.9288   18.1135 H   0  0  0  0  0  0
  1 25  1  0  0  0
  1 30  2  0  0  0
  1 80  1  0  0  0
  2  3  1  0  0  0
  2 25  1  0  0  0
  2 81  1  0  0  0
  2 82  1  0  0  0
  3  4  1  0  0  0
  3 83  1  0  0  0
  3 84  1  0  0  0
  4  5  1  0  0  0
  4 85  1  0  0  0
  4 86  1  0  0  0
  5  6  1  0  0  0
  5 26  1  0  0  0
  5 87  1  0  0  0
  6 25  1  0  0  0
  6 88  1  0  0  0
  6 89  1  0  0  0
  7  8  2  0  0  0
  7 26  1  0  0  0
  7 29  1  0  0  0
  8  9  1  0  0  0
  8 22  1  0  0  0
  9 10  1  0  0  0
  9 27  2  0  0  0
 10 11  2  0  0  0
 10 15  1  0  0  0
 11 12  1  0  0  0
 11 90  1  0  0  0
 12 13  2  0  0  0
 12 91  1  0  0  0
 13 14  1  0  0  0
 13 31  1  0  0  0
 14 15  2  0  0  0
 14 92  1  0  0  0
 15 93  1  0  0  0
 16 17  2  0  0  0
 16 21  1  0  0  0
 16 31  1  0  0  0
 17 18  1  0  0  0
 17 94  1  0  0  0
 18 19  2  0  0  0
 18 95  1  0  0  0
 19 20  1  0  0  0
 19 24  1  0  0  0
 20 21  2  0  0  0
 20 96  1  0  0  0
 21 23  1  0  0  0
 22 28  1  0  0  0
 22 32  2  0  0  0
 26 27  1  0  0  0
 28 97  1  0  0  0
 28 98  1  0  0  0
 29 99  1  0  0  0
 29100  1  0  0  0
 33 34  1  0  0  0
 33 66  1  0  0  0
 33 70  2  0  0  0
 34 36  1  0  0  0
 34 59  1  0  0  0
 34101  1  0  0  0
 35 44  2  0  0  0
 35 45  1  0  0  0
 35 68  1  0  0  0
 36 56  1  0  0  0
 36102  1  0  0  0
 37 39  1  0  0  0
 37 47  1  0  0  0
 37 66  1  0  0  0
 37103  1  0  0  0
 38 43  2  0  0  0
 38 46  1  0  0  0
 38 47  1  0  0  0
 39 64  1  0  0  0
 39 67  2  0  0  0
 40 52  1  0  0  0
 40 53  2  0  0  0
 40 58  1  0  0  0
 41104  1  0  0  0
 41105  1  0  0  0
 41106  1  0  0  0
 41 48  1  0  0  0
 42 43  1  0  0  0
 42 66  1  0  0  0
 42107  1  0  0  0
 42108  1  0  0  0
 43 44  1  0  0  0
 44109  1  0  0  0
 45 46  2  0  0  0
 45110  1  0  0  0
 46111  1  0  0  0
 47112  1  0  0  0
 47113  1  0  0  0
 48 56  1  0  0  0
 48 65  1  0  0  0
 48114  1  0  0  0
 49 50  1  0  0  0
 49 53  1  0  0  0
 49 64  1  0  0  0
 49115  1  0  0  0
 50 51  1  0  0  0
 50116  1  0  0  0
 50117  1  0  0  0
 51 52  1  0  0  0
 51118  1  0  0  0
 51119  1  0  0  0
 52120  1  0  0  0
 52121  1  0  0  0
 53 54  1  0  0  0
 54 55  2  0  0  0
 54122  1  0  0  0
 55 57  1  0  0  0
 55123  1  0  0  0
 56 69  2  0  0  0
 57 58  2  0  0  0
 57124  1  0  0  0
 58125  1  0  0  0
 59 60  1  0  0  0
 59 61  1  0  0  0
 59 62  1  0  0  0
 60126  1  0  0  0
 60127  1  0  0  0
 60128  1  0  0  0
 61129  1  0  0  0
 61130  1  0  0  0
 61131  1  0  0  0
 62132  1  0  0  0
 62133  1  0  0  0
 62134  1  0  0  0
 63 65  1  0  0  0
 63135  1  0  0  0
 63136  1  0  0  0
 63137  1  0  0  0
 64138  1  0  0  0
 65139  1  0  0  0
 68 76  1  0  0  0
 71 72  2  0  0  0
 71 79  1  0  0  0
 71140  1  0  0  0
 72 76  1  0  0  0
 72 78  1  0  0  0
 73 77  1  0  0  0
 73 78  1  0  0  0
 73 79  2  0  0  0
 74 78  1  0  0  0
 74141  1  0  0  0
 74142  1  0  0  0
 74143  1  0  0  0
 75 80  1  0  0  0
 75144  1  0  0  0
 75145  1  0  0  0
 75146  1  0  0  0
 76147  1  0  0  0
 76148  1  0  0  0
 77 80  1  0  0  0
 77149  1  0  0  0
 77150  1  0  0  0
 79151  1  0  0  0
M  CHG  1  79   1
M  ISO  4   1 100  68 101  76 101  80 100
M  END
> <chiral flag>
0

> <version>
0

> <s_m_source_file>
/data/baiqing/PycharmProjects/Reinvent-master-3.2/result/LINK_invent/BTK/process_docking_weight1_custom_sum_contain_oxygen_bond_distance_aromatic_linkinvent_7_9_3/rearranged_h_0061.sdf

> <i_m_source_file_index>
13

> <r_mmod_Potential_Energy-OPLS-2005>
1581.57739257812

> <r_mmod_Stretch_Energy-OPLS-2005>
719.135620117188

> <r_mmod_Bend_Energy-OPLS-2005>
504.741943359375

> <r_mmod_Torsional_Energy-OPLS-2005>
273.183288574219

> <r_mmod_Improper_Torsional_Energy-OPLS-2005>
6.01253843307495

> <r_mmod_Van_der_Waal_Energy-OPLS-2005>
110.892692565918

> <r_mmod_Electrostatic_Energy-OPLS-2005>
-196.374710083008

> <r_mmod_Solvation_Energy-OPLS-2005>
-437.081817626953

> <b_mmod_Minimization_Converged-OPLS-2005>
0

> <r_mmod_RMS_Derivative-OPLS-2005>
1.16785061359406

$$$$
13
                    3D
 Structure written by MMmdl.
150158  0  0  1  0            999 V2000
  -30.4147  -15.3717   20.3644 C   0  0  0  0  0  0
  -30.4335  -12.8923   19.5166 C   0  0  0  0  0  0
  -29.5357  -12.5979   18.2876 C   0  0  0  0  0  0
  -28.0913  -12.2997   18.7243 C   0  0  0  0  0  0
  -27.6048  -13.2847   19.8153 C   0  0  2  0  0  0
  -28.6383  -13.5118   20.9392 C   0  0  0  0  0  0
  -25.2367  -13.8254   20.5765 C   0  0  0  0  0  0
  -24.1730  -13.0434   20.9274 C   0  0  0  0  0  0
  -24.6395  -11.6935   20.8774 C   0  0  0  0  0  0
  -23.9084  -10.4297   21.0408 C   0  0  0  0  0  0
  -24.3631   -9.4207   21.9180 C   0  0  0  0  0  0
  -23.6301   -8.2243   22.0748 C   0  0  0  0  0  0
  -22.4282   -8.0286   21.3545 C   0  0  0  0  0  0
  -21.9921   -9.0258   20.4647 C   0  0  0  0  0  0
  -22.7255  -10.2133   20.3055 C   0  0  0  0  0  0
  -21.6858   -6.0735   22.5279 C   0  0  0  0  0  0
  -21.4020   -6.5642   23.8213 C   0  0  0  0  0  0
  -21.3658   -5.6794   24.9173 C   0  0  0  0  0  0
  -21.6042   -4.3054   24.7228 C   0  0  0  0  0  0
  -21.8817   -3.8148   23.4350 C   0  0  0  0  0  0
  -21.9192   -4.6963   22.3404 C   0  0  0  0  0  0
  -22.7745  -13.5185   21.1909 C   0  0  0  0  0  0
  -22.1665   -4.2148   21.0982 F   0  0  0  0  0  0
  -21.5619   -3.4536   25.7741 F   0  0  0  0  0  0
  -29.8464  -14.0560   20.2913 N   0  0  0  0  0  0
  -26.2799  -12.9546   20.3220 N   0  0  0  0  0  0
  -25.9337  -11.6639   20.5714 N   0  0  0  0  0  0
  -22.0403  -12.8181   22.0472 N   0  0  0  0  0  0
  -25.3978  -15.1989   20.4189 N   0  0  0  0  0  0
  -31.6469  -15.3187   20.2251 O   0  0  0  0  0  0
  -21.6646   -6.8881   21.4242 O   0  0  0  0  0  0
  -22.3429  -14.5481   20.6735 O   0  0  0  0  0  0
  -24.6714  -31.8169   23.1656 C   0  0  0  0  0  0
  -25.9366  -32.4551   23.8143 C   0  0  1  0  0  0
  -27.2132  -26.8490   20.1974 C   0  0  0  0  0  0
  -25.6001  -33.8366   24.2038 N   0  0  0  0  0  0
  -23.4893  -30.4270   21.5172 C   0  0  2  0  0  0
  -24.9431  -28.7986   20.1195 C   0  0  0  0  0  0
  -22.7706  -29.4414   22.4767 C   0  0  0  0  0  0
  -18.0328  -28.1423   22.8464 C   0  0  0  0  0  0
  -24.1493  -36.7187   23.2648 C   0  0  0  0  0  0
  -26.0643  -30.5975   21.4087 C   0  0  0  0  0  0
  -26.1312  -29.1777   20.7566 C   0  0  0  0  0  0
  -27.2615  -28.2277   20.7663 C   0  0  0  0  0  0
  -25.9959  -26.6470   19.5050 C   0  0  0  0  0  0
  -24.9058  -27.5551   19.4709 C   0  0  0  0  0  0
  -23.7348  -29.7373   20.1471 C   0  0  0  0  0  0
  -25.4139  -36.2940   24.0286 C   0  0  1  0  0  0
  -20.5955  -28.3774   23.1173 C   0  0  2  0  0  0
  -20.6805  -26.9450   22.5400 C   0  0  0  0  0  0
  -19.5773  -26.6386   21.5220 C   0  0  0  0  0  0
  -18.1957  -26.7953   22.1630 C   0  0  0  0  0  0
  -19.1590  -28.8924   23.2801 C   0  0  0  0  0  0
  -18.9496  -30.1515   23.8835 C   0  0  0  0  0  0
  -17.6485  -30.6609   24.0556 C   0  0  0  0  0  0
  -25.9104  -34.9324   23.4985 C   0  0  0  0  0  0
  -16.5376  -29.9090   23.6349 C   0  0  0  0  0  0
  -16.7309  -28.6518   23.0362 C   0  0  0  0  0  0
  -26.4582  -31.6529   25.0706 C   0  0  0  0  0  0
  -25.3679  -31.3821   26.1341 C   0  0  0  0  0  0
  -27.0486  -30.2881   24.6504 C   0  0  0  0  0  0
  -27.6053  -32.4358   25.7523 C   0  0  0  0  0  0
  -27.5554  -37.1767   24.8475 C   0  0  0  0  0  0
  -21.4369  -29.3048   22.3512 N   0  0  0  0  0  0
  -26.4285  -37.3676   23.9383 N   0  0  0  0  0  0
  -24.7637  -30.9762   22.0832 N   0  0  0  0  0  0
  -23.4212  -28.7987   23.3040 O   0  0  0  0  0  0
  -28.1849  -25.6880   20.2219 O   0  0  0  0  0  0
  -26.5716  -34.8874   22.4579 O   0  0  0  0  0  0
  -23.5769  -32.1171   23.6710 O   0  0  0  0  0  0
  -28.9939  -21.2950   21.0037 C   0  0  0  0  0  0
  -29.2277  -19.9506   20.2805 C   0  0  0  0  0  0
  -28.5466  -22.4675   20.2331 C   0  0  0  0  0  0
  -31.4605  -18.5743   20.2353 C   0  0  0  0  0  0
  -28.0902  -22.2606   17.7420 C   0  0  0  0  0  0
  -27.7852  -24.0765   20.4768 C   0  0  0  0  0  0
  -29.9895  -18.3551   20.6254 C   0  0  2  0  0  0
  -28.9298  -20.3786   19.0403 N   0  0  0  0  0  0
  -28.5274  -21.7378   19.0222 N   0  0  0  0  0  0
  -29.6788  -16.6917   20.4015 N   0  0  0  0  0  0
  -31.4431  -13.1160   19.1699 H   0  0  0  0  0  0
  -30.5327  -12.0081   20.1481 H   0  0  0  0  0  0
  -29.9374  -11.7631   17.7118 H   0  0  0  0  0  0
  -29.5441  -13.4613   17.6214 H   0  0  0  0  0  0
  -28.0678  -11.2821   19.1164 H   0  0  0  0  0  0
  -27.4200  -12.3139   17.8647 H   0  0  0  0  0  0
  -27.5013  -14.2384   19.2958 H   0  0  0  0  0  0
  -28.8407  -12.5946   21.4945 H   0  0  0  0  0  0
  -28.2581  -14.2352   21.6622 H   0  0  0  0  0  0
  -25.2770   -9.5679   22.4757 H   0  0  0  0  0  0
  -24.0006   -7.4633   22.7464 H   0  0  0  0  0  0
  -21.0849   -8.8784   19.8959 H   0  0  0  0  0  0
  -22.3713  -10.9671   19.6167 H   0  0  0  0  0  0
  -21.2028   -7.6153   23.9714 H   0  0  0  0  0  0
  -21.1475   -6.0527   25.9074 H   0  0  0  0  0  0
  -22.0599   -2.7609   23.2851 H   0  0  0  0  0  0
  -22.4039  -11.9869   22.4891 H   0  0  0  0  0  0
  -21.1007  -13.1185   22.2656 H   0  0  0  0  0  0
  -24.6207  -15.8435   20.5182 H   0  0  0  0  0  0
  -26.2346  -15.6402   20.0614 H   0  0  0  0  0  0
  -26.7438  -32.5069   23.0854 H   0  0  0  0  0  0
  -25.0100  -33.9425   25.0161 H   0  0  0  0  0  0
  -22.8071  -31.2613   21.3408 H   0  0  0  0  0  0
  -23.3732  -35.9549   23.3364 H   0  0  0  0  0  0
  -24.3538  -36.8776   22.2048 H   0  0  0  0  0  0
  -23.7301  -37.6414   23.6669 H   0  0  0  0  0  0
  -26.2525  -31.3319   20.6244 H   0  0  0  0  0  0
  -26.9219  -30.6584   22.0668 H   0  0  0  0  0  0
  -28.1617  -28.5215   21.2879 H   0  0  0  0  0  0
  -25.8527  -25.7088   18.9899 H   0  0  0  0  0  0
  -24.0072  -27.2604   18.9466 H   0  0  0  0  0  0
  -23.9006  -30.5030   19.3887 H   0  0  0  0  0  0
  -22.8420  -29.1983   19.8253 H   0  0  0  0  0  0
  -25.1353  -36.1729   25.0782 H   0  0  0  0  0  0
  -21.0039  -28.3387   24.1299 H   0  0  0  0  0  0
  -20.5697  -26.2389   23.3646 H   0  0  0  0  0  0
  -21.6663  -26.7424   22.1200 H   0  0  0  0  0  0
  -19.6925  -25.6281   21.1294 H   0  0  0  0  0  0
  -19.6712  -27.3157   20.6719 H   0  0  0  0  0  0
  -17.4224  -26.6690   21.4042 H   0  0  0  0  0  0
  -18.0355  -26.0120   22.9055 H   0  0  0  0  0  0
  -19.7966  -30.7362   24.2166 H   0  0  0  0  0  0
  -17.5029  -31.6278   24.5176 H   0  0  0  0  0  0
  -15.5372  -30.2967   23.7720 H   0  0  0  0  0  0
  -15.8710  -28.0823   22.7095 H   0  0  0  0  0  0
  -24.5843  -30.7199   25.7642 H   0  0  0  0  0  0
  -24.8893  -32.3046   26.4638 H   0  0  0  0  0  0
  -25.7870  -30.9053   27.0209 H   0  0  0  0  0  0
  -26.3171  -29.6540   24.1479 H   0  0  0  0  0  0
  -27.3942  -29.7270   25.5199 H   0  0  0  0  0  0
  -27.9149  -30.4036   23.9986 H   0  0  0  0  0  0
  -27.2588  -33.3681   26.1997 H   0  0  0  0  0  0
  -28.3924  -32.6891   25.0407 H   0  0  0  0  0  0
  -28.0663  -31.8564   26.5533 H   0  0  0  0  0  0
  -28.2611  -38.0018   24.7422 H   0  0  0  0  0  0
  -28.1006  -36.2536   24.6437 H   0  0  0  0  0  0
  -27.2248  -37.1580   25.8875 H   0  0  0  0  0  0
  -20.9642  -29.8714   21.6611 H   0  0  0  0  0  0
  -26.0128  -38.2745   24.1333 H   0  0  0  0  0  0
  -29.1315  -21.3787   22.0724 H   0  0  0  0  0  0
  -31.8338  -19.5101   20.6532 H   0  0  0  0  0  0
  -31.5735  -18.6340   19.1528 H   0  0  0  0  0  0
  -32.1150  -17.7870   20.6040 H   0  0  0  0  0  0
  -27.1741  -22.8383   17.8658 H   0  0  0  0  0  0
  -27.8919  -21.4513   17.0382 H   0  0  0  0  0  0
  -28.8623  -22.9084   17.3265 H   0  0  0  0  0  0
  -27.5154  -24.0856   21.5321 H   0  0  0  0  0  0
  -26.8175  -23.9795   19.9875 H   0  0  0  0  0  0
  -30.0039  -18.3520   21.7161 H   0  0  0  0  0  0
  -28.6830  -16.5278   20.3849 H   0  0  0  0  0  0
  1 25  1  0  0  0
  1 30  2  0  0  0
  1 80  1  0  0  0
  2  3  1  0  0  0
  2 25  1  0  0  0
  2 81  1  0  0  0
  2 82  1  0  0  0
  3  4  1  0  0  0
  3 83  1  0  0  0
  3 84  1  0  0  0
  4  5  1  0  0  0
  4 85  1  0  0  0
  4 86  1  0  0  0
  5  6  1  0  0  0
  5 26  1  0  0  0
  5 87  1  0  0  0
  6 25  1  0  0  0
  6 88  1  0  0  0
  6 89  1  0  0  0
  7  8  2  0  0  0
  7 26  1  0  0  0
  7 29  1  0  0  0
  8  9  1  0  0  0
  8 22  1  0  0  0
  9 10  1  0  0  0
  9 27  2  0  0  0
 10 11  2  0  0  0
 10 15  1  0  0  0
 11 12  1  0  0  0
 11 90  1  0  0  0
 12 13  2  0  0  0
 12 91  1  0  0  0
 13 14  1  0  0  0
 13 31  1  0  0  0
 14 15  2  0  0  0
 14 92  1  0  0  0
 15 93  1  0  0  0
 16 17  2  0  0  0
 16 21  1  0  0  0
 16 31  1  0  0  0
 17 18  1  0  0  0
 17 94  1  0  0  0
 18 19  2  0  0  0
 18 95  1  0  0  0
 19 20  1  0  0  0
 19 24  1  0  0  0
 20 21  2  0  0  0
 20 96  1  0  0  0
 21 23  1  0  0  0
 22 28  1  0  0  0
 22 32  2  0  0  0
 26 27  1  0  0  0
 28 97  1  0  0  0
 28 98  1  0  0  0
 29 99  1  0  0  0
 29100  1  0  0  0
 33 34  1  0  0  0
 33 66  1  0  0  0
 33 70  2  0  0  0
 34 36  1  0  0  0
 34 59  1  0  0  0
 34101  1  0  0  0
 35 44  2  0  0  0
 35 45  1  0  0  0
 35 68  1  0  0  0
 36 56  1  0  0  0
 36102  1  0  0  0
 37 39  1  0  0  0
 37 47  1  0  0  0
 37 66  1  0  0  0
 37103  1  0  0  0
 38 43  2  0  0  0
 38 46  1  0  0  0
 38 47  1  0  0  0
 39 64  1  0  0  0
 39 67  2  0  0  0
 40 52  1  0  0  0
 40 53  2  0  0  0
 40 58  1  0  0  0
 41104  1  0  0  0
 41105  1  0  0  0
 41106  1  0  0  0
 41 48  1  0  0  0
 42 43  1  0  0  0
 42 66  1  0  0  0
 42107  1  0  0  0
 42108  1  0  0  0
 43 44  1  0  0  0
 44109  1  0  0  0
 45 46  2  0  0  0
 45110  1  0  0  0
 46111  1  0  0  0
 47112  1  0  0  0
 47113  1  0  0  0
 48 56  1  0  0  0
 48 65  1  0  0  0
 48114  1  0  0  0
 49 50  1  0  0  0
 49 53  1  0  0  0
 49 64  1  0  0  0
 49115  1  0  0  0
 50 51  1  0  0  0
 50116  1  0  0  0
 50117  1  0  0  0
 51 52  1  0  0  0
 51118  1  0  0  0
 51119  1  0  0  0
 52120  1  0  0  0
 52121  1  0  0  0
 53 54  1  0  0  0
 54 55  2  0  0  0
 54122  1  0  0  0
 55 57  1  0  0  0
 55123  1  0  0  0
 56 69  2  0  0  0
 57 58  2  0  0  0
 57124  1  0  0  0
 58125  1  0  0  0
 59 60  1  0  0  0
 59 61  1  0  0  0
 59 62  1  0  0  0
 60126  1  0  0  0
 60127  1  0  0  0
 60128  1  0  0  0
 61129  1  0  0  0
 61130  1  0  0  0
 61131  1  0  0  0
 62132  1  0  0  0
 62133  1  0  0  0
 62134  1  0  0  0
 63 65  1  0  0  0
 63135  1  0  0  0
 63136  1  0  0  0
 63137  1  0  0  0
 64138  1  0  0  0
 65139  1  0  0  0
 68 76  1  0  0  0
 71 72  1  0  0  0
 71 73  2  0  0  0
 71140  1  0  0  0
 72 77  1  0  0  0
 72 78  2  0  0  0
 73 76  1  0  0  0
 73 79  1  0  0  0
 74141  1  0  0  0
 74142  1  0  0  0
 74143  1  0  0  0
 74 77  1  0  0  0
 75 79  1  0  0  0
 75144  1  0  0  0
 75145  1  0  0  0
 75146  1  0  0  0
 76147  1  0  0  0
 76148  1  0  0  0
 77 80  1  0  0  0
 77149  1  0  0  0
 78 79  1  0  0  0
 80150  1  0  0  0
M  ISO  4   1 100  68 101  76 101  80 100
M  END
> <chiral flag>
0

> <version>
0

> <s_m_source_file>
/data/baiqing/PycharmProjects/Reinvent-master-3.2/result/LINK_invent/BTK/process_docking_weight1_custom_sum_contain_oxygen_bond_distance_aromatic_linkinvent_7_9_3/rearranged_h_0061.sdf

> <i_m_source_file_index>
14

> <r_mmod_Potential_Energy-OPLS-2005>
1474.80200195312

> <r_mmod_Stretch_Energy-OPLS-2005>
688.562683105469

> <r_mmod_Bend_Energy-OPLS-2005>
529.075744628906

> <r_mmod_Torsional_Energy-OPLS-2005>
227.398773193359

> <r_mmod_Improper_Torsional_Energy-OPLS-2005>
7.21104764938354

> <r_mmod_Van_der_Waal_Energy-OPLS-2005>
108.998596191406

> <r_mmod_Electrostatic_Energy-OPLS-2005>
-435.241149902344

> <r_mmod_Solvation_Energy-OPLS-2005>
-230.413284301758

> <b_mmod_Minimization_Converged-OPLS-2005>
0

> <r_mmod_RMS_Derivative-OPLS-2005>
1.17804312705994

$$$$
14
                    3D
 Structure written by MMmdl.
151159  0  0  1  0            999 V2000
  -30.4599  -15.2277   20.3762 C   0  0  0  0  0  0
  -30.4374  -12.7852   19.5243 C   0  0  0  0  0  0
  -29.5353  -12.5685   18.2842 C   0  0  0  0  0  0
  -28.0814  -12.2982   18.7084 C   0  0  0  0  0  0
  -27.6126  -13.2710   19.8208 C   0  0  2  0  0  0
  -28.6446  -13.4382   20.9570 C   0  0  0  0  0  0
  -25.2408  -13.8245   20.5724 C   0  0  0  0  0  0
  -24.1754  -13.0443   20.9233 C   0  0  0  0  0  0
  -24.6396  -11.6930   20.8748 C   0  0  0  0  0  0
  -23.9100  -10.4298   21.0413 C   0  0  0  0  0  0
  -24.3650   -9.4211   21.9188 C   0  0  0  0  0  0
  -23.6319   -8.2250   22.0764 C   0  0  0  0  0  0
  -22.4297   -8.0294   21.3559 C   0  0  0  0  0  0
  -21.9935   -9.0260   20.4655 C   0  0  0  0  0  0
  -22.7273  -10.2135   20.3061 C   0  0  0  0  0  0
  -21.6855   -6.0753   22.5282 C   0  0  0  0  0  0
  -21.4009   -6.5649   23.8217 C   0  0  0  0  0  0
  -21.3658   -5.6799   24.9178 C   0  0  0  0  0  0
  -21.6047   -4.3062   24.7220 C   0  0  0  0  0  0
  -21.8820   -3.8159   23.4338 C   0  0  0  0  0  0
  -21.9185   -4.6982   22.3396 C   0  0  0  0  0  0
  -22.7776  -13.5208   21.1869 C   0  0  0  0  0  0
  -22.1660   -4.2166   21.0973 F   0  0  0  0  0  0
  -21.5627   -3.4545   25.7726 F   0  0  0  0  0  0
  -29.8827  -13.9305   20.3334 N   0  0  0  0  0  0
  -26.2827  -12.9497   20.3196 N   0  0  0  0  0  0
  -25.9329  -11.6616   20.5709 N   0  0  0  0  0  0
  -22.0425  -12.8204   22.0432 N   0  0  0  0  0  0
  -25.4060  -15.1974   20.4146 N   0  0  0  0  0  0
  -31.6813  -15.2131   20.1656 O   0  0  0  0  0  0
  -21.6650   -6.8897   21.4251 O   0  0  0  0  0  0
  -22.3454  -14.5503   20.6699 O   0  0  0  0  0  0
  -24.6612  -31.8271   23.1735 C   0  0  0  0  0  0
  -25.9311  -32.4608   23.8184 C   0  0  1  0  0  0
  -27.2043  -26.9517   20.1824 C   0  0  0  0  0  0
  -25.6004  -33.8422   24.2094 N   0  0  0  0  0  0
  -23.4733  -30.4437   21.5220 C   0  0  2  0  0  0
  -24.9250  -28.8412   20.1108 C   0  0  0  0  0  0
  -22.7663  -29.4474   22.4780 C   0  0  0  0  0  0
  -18.0322  -28.1421   22.8467 C   0  0  0  0  0  0
  -24.1482  -36.7200   23.2648 C   0  0  0  0  0  0
  -26.0425  -30.6437   21.4009 C   0  0  0  0  0  0
  -26.1087  -29.2364   20.7453 C   0  0  0  0  0  0
  -27.2450  -28.3109   20.7614 C   0  0  0  0  0  0
  -25.9939  -26.7114   19.4925 C   0  0  0  0  0  0
  -24.8918  -27.5986   19.4647 C   0  0  0  0  0  0
  -23.7124  -29.7675   20.1449 C   0  0  0  0  0  0
  -25.4119  -36.2969   24.0309 C   0  0  1  0  0  0
  -20.5948  -28.3759   23.1189 C   0  0  2  0  0  0
  -20.6808  -26.9451   22.5400 C   0  0  0  0  0  0
  -19.5777  -26.6383   21.5225 C   0  0  0  0  0  0
  -18.1954  -26.7962   22.1615 C   0  0  0  0  0  0
  -19.1589  -28.8908   23.2817 C   0  0  0  0  0  0
  -18.9511  -30.1502   23.8849 C   0  0  0  0  0  0
  -17.6503  -30.6609   24.0562 C   0  0  0  0  0  0
  -25.9091  -34.9357   23.5010 C   0  0  0  0  0  0
  -16.5386  -29.9096   23.6353 C   0  0  0  0  0  0
  -16.7305  -28.6519   23.0367 C   0  0  0  0  0  0
  -26.4563  -31.6555   25.0705 C   0  0  0  0  0  0
  -25.3689  -31.3848   26.1368 C   0  0  0  0  0  0
  -27.0448  -30.2911   24.6453 C   0  0  0  0  0  0
  -27.6074  -32.4353   25.7498 C   0  0  0  0  0  0
  -27.5555  -37.1747   24.8464 C   0  0  0  0  0  0
  -21.4332  -29.3062   22.3548 N   0  0  0  0  0  0
  -26.4246  -37.3717   23.9440 N   0  0  0  0  0  0
  -24.7469  -30.9971   22.0856 N   0  0  0  0  0  0
  -23.4237  -28.8042   23.3005 O   0  0  0  0  0  0
  -28.1805  -25.8303   20.2727 O   0  0  0  0  0  0
  -26.5675  -34.8899   22.4586 O   0  0  0  0  0  0
  -23.5680  -32.1221   23.6840 O   0  0  0  0  0  0
  -30.0627  -20.8888   20.8502 C   0  0  0  0  0  0
  -29.3691  -19.6769   20.3845 C   0  0  0  0  0  0
  -27.7386  -21.4475   19.7503 C   0  0  0  0  0  0
  -28.4427  -22.6598   20.2065 C   0  0  0  0  0  0
  -26.3694  -21.6059   19.1127 C   0  0  0  0  0  0
  -30.7422  -18.1630   18.7991 C   0  0  0  0  0  0
  -27.7604  -24.2665   20.0493 C   0  0  0  0  0  0
  -30.1174  -18.1062   20.2021 C   0  0  2  0  0  0
  -29.6463  -22.2568   20.7821 N   0  0  0  0  0  0
  -28.1699  -20.0870   19.8121 N   0  0  0  0  0  0
  -29.7207  -16.5105   20.4404 N   0  0  0  0  0  0
  -31.4574  -12.9826   19.1917 H   0  0  0  0  0  0
  -30.5002  -11.8776   20.1262 H   0  0  0  0  0  0
  -29.9131  -11.7422   17.6801 H   0  0  0  0  0  0
  -29.5702  -13.4569   17.6519 H   0  0  0  0  0  0
  -28.0293  -11.2714   19.0723 H   0  0  0  0  0  0
  -27.4151  -12.3512   17.8454 H   0  0  0  0  0  0
  -27.5303  -14.2397   19.3251 H   0  0  0  0  0  0
  -28.8024  -12.5030   21.4963 H   0  0  0  0  0  0
  -28.2850  -14.1640   21.6888 H   0  0  0  0  0  0
  -25.2795   -9.5679   22.4765 H   0  0  0  0  0  0
  -24.0021   -7.4640   22.7487 H   0  0  0  0  0  0
  -21.0864   -8.8783   19.8960 H   0  0  0  0  0  0
  -22.3744  -10.9670   19.6168 H   0  0  0  0  0  0
  -21.2009   -7.6158   23.9725 H   0  0  0  0  0  0
  -21.1479   -6.0528   25.9081 H   0  0  0  0  0  0
  -22.0600   -2.7621   23.2821 H   0  0  0  0  0  0
  -22.4062  -11.9867   22.4802 H   0  0  0  0  0  0
  -21.1048  -13.1227   22.2651 H   0  0  0  0  0  0
  -24.6336  -15.8466   20.5191 H   0  0  0  0  0  0
  -26.2501  -15.6366   20.0723 H   0  0  0  0  0  0
  -26.7389  -32.5140   23.0907 H   0  0  0  0  0  0
  -25.0207  -33.9526   25.0276 H   0  0  0  0  0  0
  -22.7863  -31.2754   21.3537 H   0  0  0  0  0  0
  -23.3765  -35.9507   23.3267 H   0  0  0  0  0  0
  -24.3582  -36.8873   22.2075 H   0  0  0  0  0  0
  -23.7208  -37.6368   23.6713 H   0  0  0  0  0  0
  -26.2216  -31.3881   20.6236 H   0  0  0  0  0  0
  -26.9038  -30.6967   22.0551 H   0  0  0  0  0  0
  -28.1348  -28.6082   21.2972 H   0  0  0  0  0  0
  -25.8448  -25.7688   18.9890 H   0  0  0  0  0  0
  -23.9928  -27.2910   18.9483 H   0  0  0  0  0  0
  -23.8708  -30.5379   19.3898 H   0  0  0  0  0  0
  -22.8228  -29.2242   19.8213 H   0  0  0  0  0  0
  -25.1308  -36.1745   25.0794 H   0  0  0  0  0  0
  -21.0030  -28.3360   24.1313 H   0  0  0  0  0  0
  -20.5705  -26.2392   23.3641 H   0  0  0  0  0  0
  -21.6670  -26.7445   22.1197 H   0  0  0  0  0  0
  -19.6946  -25.6279   21.1291 H   0  0  0  0  0  0
  -19.6715  -27.3163   20.6730 H   0  0  0  0  0  0
  -17.4234  -26.6724   21.4007 H   0  0  0  0  0  0
  -18.0329  -26.0114   22.9008 H   0  0  0  0  0  0
  -19.7995  -30.7333   24.2190 H   0  0  0  0  0  0
  -17.5064  -31.6291   24.5169 H   0  0  0  0  0  0
  -15.5388  -30.2990   23.7723 H   0  0  0  0  0  0
  -15.8707  -28.0826   22.7108 H   0  0  0  0  0  0
  -24.5889  -30.7169   25.7703 H   0  0  0  0  0  0
  -24.8857  -32.3068   26.4607 H   0  0  0  0  0  0
  -25.7906  -30.9153   27.0259 H   0  0  0  0  0  0
  -26.3108  -29.6607   24.1425 H   0  0  0  0  0  0
  -27.3944  -29.7269   25.5110 H   0  0  0  0  0  0
  -27.9071  -30.4106   23.9894 H   0  0  0  0  0  0
  -27.2672  -33.3730   26.1911 H   0  0  0  0  0  0
  -28.3969  -32.6789   25.0373 H   0  0  0  0  0  0
  -28.0649  -31.8577   26.5541 H   0  0  0  0  0  0
  -28.2533  -38.0080   24.7530 H   0  0  0  0  0  0
  -28.1072  -36.2604   24.6219 H   0  0  0  0  0  0
  -27.2296  -37.1308   25.8872 H   0  0  0  0  0  0
  -20.9575  -29.8771   21.6697 H   0  0  0  0  0  0
  -26.0076  -38.2756   24.1486 H   0  0  0  0  0  0
  -31.0543  -20.7641   21.2595 H   0  0  0  0  0  0
  -25.6858  -22.1245   19.7858 H   0  0  0  0  0  0
  -25.9229  -20.6412   18.8715 H   0  0  0  0  0  0
  -26.4392  -22.1782   18.1875 H   0  0  0  0  0  0
  -31.2889  -19.0960   18.6512 H   0  0  0  0  0  0
  -29.9696  -18.1104   18.0315 H   0  0  0  0  0  0
  -31.4508  -17.3546   18.6234 H   0  0  0  0  0  0
  -26.8332  -24.1787   20.6144 H   0  0  0  0  0  0
  -27.4503  -24.2622   19.0051 H   0  0  0  0  0  0
  -30.9534  -18.2039   20.8960 H   0  0  0  0  0  0
  -28.7330  -16.3790   20.5994 H   0  0  0  0  0  0
  1 25  1  0  0  0
  1 30  2  0  0  0
  1 81  1  0  0  0
  2  3  1  0  0  0
  2 25  1  0  0  0
  2 82  1  0  0  0
  2 83  1  0  0  0
  3  4  1  0  0  0
  3 84  1  0  0  0
  3 85  1  0  0  0
  4  5  1  0  0  0
  4 86  1  0  0  0
  4 87  1  0  0  0
  5  6  1  0  0  0
  5 26  1  0  0  0
  5 88  1  0  0  0
  6 25  1  0  0  0
  6 89  1  0  0  0
  6 90  1  0  0  0
  7  8  2  0  0  0
  7 26  1  0  0  0
  7 29  1  0  0  0
  8  9  1  0  0  0
  8 22  1  0  0  0
  9 10  1  0  0  0
  9 27  2  0  0  0
 10 11  2  0  0  0
 10 15  1  0  0  0
 11 12  1  0  0  0
 11 91  1  0  0  0
 12 13  2  0  0  0
 12 92  1  0  0  0
 13 14  1  0  0  0
 13 31  1  0  0  0
 14 15  2  0  0  0
 14 93  1  0  0  0
 15 94  1  0  0  0
 16 17  2  0  0  0
 16 21  1  0  0  0
 16 31  1  0  0  0
 17 18  1  0  0  0
 17 95  1  0  0  0
 18 19  2  0  0  0
 18 96  1  0  0  0
 19 20  1  0  0  0
 19 24  1  0  0  0
 20 21  2  0  0  0
 20 97  1  0  0  0
 21 23  1  0  0  0
 22 28  1  0  0  0
 22 32  2  0  0  0
 26 27  1  0  0  0
 28 98  1  0  0  0
 28 99  1  0  0  0
 29100  1  0  0  0
 29101  1  0  0  0
 33 34  1  0  0  0
 33 66  1  0  0  0
 33 70  2  0  0  0
 34 36  1  0  0  0
 34 59  1  0  0  0
 34102  1  0  0  0
 35 44  2  0  0  0
 35 45  1  0  0  0
 35 68  1  0  0  0
 36 56  1  0  0  0
 36103  1  0  0  0
 37 39  1  0  0  0
 37 47  1  0  0  0
 37 66  1  0  0  0
 37104  1  0  0  0
 38 43  2  0  0  0
 38 46  1  0  0  0
 38 47  1  0  0  0
 39 64  1  0  0  0
 39 67  2  0  0  0
 40 52  1  0  0  0
 40 53  2  0  0  0
 40 58  1  0  0  0
 41105  1  0  0  0
 41106  1  0  0  0
 41107  1  0  0  0
 41 48  1  0  0  0
 42 43  1  0  0  0
 42 66  1  0  0  0
 42108  1  0  0  0
 42109  1  0  0  0
 43 44  1  0  0  0
 44110  1  0  0  0
 45 46  2  0  0  0
 45111  1  0  0  0
 46112  1  0  0  0
 47113  1  0  0  0
 47114  1  0  0  0
 48 56  1  0  0  0
 48 65  1  0  0  0
 48115  1  0  0  0
 49 50  1  0  0  0
 49 53  1  0  0  0
 49 64  1  0  0  0
 49116  1  0  0  0
 50 51  1  0  0  0
 50117  1  0  0  0
 50118  1  0  0  0
 51 52  1  0  0  0
 51119  1  0  0  0
 51120  1  0  0  0
 52121  1  0  0  0
 52122  1  0  0  0
 53 54  1  0  0  0
 54 55  2  0  0  0
 54123  1  0  0  0
 55 57  1  0  0  0
 55124  1  0  0  0
 56 69  2  0  0  0
 57 58  2  0  0  0
 57125  1  0  0  0
 58126  1  0  0  0
 59 60  1  0  0  0
 59 61  1  0  0  0
 59 62  1  0  0  0
 60127  1  0  0  0
 60128  1  0  0  0
 60129  1  0  0  0
 61130  1  0  0  0
 61131  1  0  0  0
 61132  1  0  0  0
 62133  1  0  0  0
 62134  1  0  0  0
 62135  1  0  0  0
 63 65  1  0  0  0
 63136  1  0  0  0
 63137  1  0  0  0
 63138  1  0  0  0
 64139  1  0  0  0
 65140  1  0  0  0
 68 77  1  0  0  0
 71 72  2  0  0  0
 71 79  1  0  0  0
 71141  1  0  0  0
 72 78  1  0  0  0
 72 80  1  0  0  0
 73 74  1  0  0  0
 73 75  1  0  0  0
 73 80  2  0  0  0
 74 77  1  0  0  0
 74 79  2  0  0  0
 75142  1  0  0  0
 75143  1  0  0  0
 75144  1  0  0  0
 76145  1  0  0  0
 76146  1  0  0  0
 76147  1  0  0  0
 76 78  1  0  0  0
 77148  1  0  0  0
 77149  1  0  0  0
 78 81  1  0  0  0
 78150  1  0  0  0
 81151  1  0  0  0
M  ISO  4   1 100  68 101  77 101  81 100
M  END
> <chiral flag>
0

> <version>
0

> <s_m_source_file>
/data/baiqing/PycharmProjects/Reinvent-master-3.2/result/LINK_invent/BTK/process_docking_weight1_custom_sum_contain_oxygen_bond_distance_aromatic_linkinvent_7_9_3/rearranged_h_0061.sdf

> <i_m_source_file_index>
15

> <r_mmod_Potential_Energy-OPLS-2005>
1168.05126953125

> <r_mmod_Stretch_Energy-OPLS-2005>
500.412445068359

> <r_mmod_Bend_Energy-OPLS-2005>
448.407867431641

> <r_mmod_Torsional_Energy-OPLS-2005>
201.310913085938

> <r_mmod_Improper_Torsional_Energy-OPLS-2005>
6.76015138626099

> <r_mmod_Van_der_Waal_Energy-OPLS-2005>
134.805404663086

> <r_mmod_Electrostatic_Energy-OPLS-2005>
-318.452484130859

> <r_mmod_Solvation_Energy-OPLS-2005>
-231.8896484375

> <b_mmod_Minimization_Converged-OPLS-2005>
0

> <r_mmod_RMS_Derivative-OPLS-2005>
2.34545302391052

$$$$
15
                    3D
 Structure written by MMmdl.
156164  0  0  1  0            999 V2000
  -29.9496  -16.9856   19.9793 C   0  0  0  0  0  0
  -30.2753  -14.0944   19.3414 C   0  0  0  0  0  0
  -29.5523  -13.0464   18.3767 C   0  0  0  0  0  0
  -28.2883  -12.4345   18.9758 C   0  0  0  0  0  0
  -27.5925  -13.5203   19.7968 C   0  0  2  0  0  0
  -28.5579  -14.4230   20.7013 C   0  0  0  0  0  0
  -25.2238  -13.8797   20.6174 C   0  0  0  0  0  0
  -24.1833  -13.0594   20.9457 C   0  0  0  0  0  0
  -24.6846  -11.7221   20.8729 C   0  0  0  0  0  0
  -23.9542  -10.4438   21.0293 C   0  0  0  0  0  0
  -24.3922   -9.4326   21.9145 C   0  0  0  0  0  0
  -23.6509   -8.2386   22.0767 C   0  0  0  0  0  0
  -22.4485   -8.0424   21.3540 C   0  0  0  0  0  0
  -22.0218   -9.0416   20.4596 C   0  0  0  0  0  0
  -22.7659  -10.2255   20.2980 C   0  0  0  0  0  0
  -21.6924   -6.0861   22.5292 C   0  0  0  0  0  0
  -21.4078   -6.5733   23.8240 C   0  0  0  0  0  0
  -21.3707   -5.6845   24.9169 C   0  0  0  0  0  0
  -21.6045   -4.3108   24.7169 C   0  0  0  0  0  0
  -21.8791   -3.8235   23.4272 C   0  0  0  0  0  0
  -21.9195   -4.7080   22.3361 C   0  0  0  0  0  0
  -22.7735  -13.5035   21.2024 C   0  0  0  0  0  0
  -22.1658   -4.2299   21.0920 F   0  0  0  0  0  0
  -21.5609   -3.4562   25.7650 F   0  0  0  0  0  0
  -29.4641  -15.4051   19.8638 N   0  0  0  0  0  0
  -26.3114  -13.0667   20.3769 N   0  0  0  0  0  0
  -25.9899  -11.7441   20.5658 N   0  0  0  0  0  0
  -22.0519  -12.7852   22.0535 N   0  0  0  0  0  0
  -25.3286  -15.2577   20.4600 N   0  0  0  0  0  0
  -31.1590  -16.5665   20.1660 O   0  0  0  0  0  0
  -21.6763   -6.9054   21.4275 O   0  0  0  0  0  0
  -22.3270  -14.5292   20.6895 O   0  0  0  0  0  0
  -24.9193  -31.6122   22.8525 C   0  0  0  0  0  0
  -26.0464  -32.3794   23.6471 C   0  0  1  0  0  0
  -26.5685  -25.4288   21.4326 C   0  0  0  0  0  0
  -25.5987  -33.7460   24.0452 N   0  0  0  0  0  0
  -23.7358  -30.2291   21.2499 C   0  0  2  0  0  0
  -25.1408  -28.4157   19.6947 C   0  0  0  0  0  0
  -22.8519  -29.4179   22.3105 C   0  0  0  0  0  0
  -18.0670  -28.1452   22.8432 C   0  0  0  0  0  0
  -24.1469  -36.6645   23.2730 C   0  0  0  0  0  0
  -26.3529  -30.2892   20.7002 C   0  0  0  0  0  0
  -26.8039  -28.6548   19.9040 C   0  0  0  0  0  0
  -27.7661  -26.4080   21.3033 C   0  0  0  0  0  0
  -25.0472  -25.7473   20.8580 C   0  0  0  0  0  0
  -24.4588  -27.0401   20.0793 C   0  0  0  0  0  0
  -23.9604  -29.4937   19.8589 C   0  0  0  0  0  0
  -25.4174  -36.2276   24.0135 C   0  0  1  0  0  0
  -20.6464  -28.4276   23.0543 C   0  0  2  0  0  0
  -20.7252  -26.9698   22.5343 C   0  0  0  0  0  0
  -19.6138  -26.6317   21.5348 C   0  0  0  0  0  0
  -18.2322  -26.7891   22.1789 C   0  0  0  0  0  0
  -19.1945  -28.9151   23.2495 C   0  0  0  0  0  0
  -18.9663  -30.1685   23.8570 C   0  0  0  0  0  0
  -17.6585  -30.6605   24.0435 C   0  0  0  0  0  0
  -25.9298  -34.8884   23.4302 C   0  0  0  0  0  0
  -16.5524  -29.8917   23.6418 C   0  0  0  0  0  0
  -16.7579  -28.6371   23.0430 C   0  0  0  0  0  0
  -26.4913  -31.6603   24.9866 C   0  0  0  0  0  0
  -25.3694  -31.4386   26.0386 C   0  0  0  0  0  0
  -27.1284  -30.3229   24.6176 C   0  0  0  0  0  0
  -27.5892  -32.4834   25.6959 C   0  0  0  0  0  0
  -27.5506  -37.1361   24.8420 C   0  0  0  0  0  0
  -21.4947  -29.3281   22.2248 N   0  0  0  0  0  0
  -26.4081  -37.3282   23.9534 N   0  0  0  0  0  0
  -25.0878  -30.7153   21.7266 N   0  0  0  0  0  0
  -23.4326  -28.8571   23.2355 O   0  0  0  0  0  0
  -27.0729  -25.0545   22.5255 O   0  0  0  0  0  0
  -26.6307  -34.8937   22.4186 O   0  0  0  0  0  0
  -23.7897  -31.9058   23.3330 O   0  0  0  0  0  0
  -29.0135  -28.2455   20.8026 C   0  0  0  0  0  0
  -28.1972  -25.6950   19.1562 C   0  0  0  0  0  0
  -26.2253  -27.7588   21.7323 C   0  0  0  0  0  0
  -30.3153  -28.6572   21.4559 C   0  0  0  0  0  0
  -30.8260  -19.1583   19.0015 C   0  0  0  0  0  0
  -28.6793  -23.3798   19.0924 C   0  0  0  0  0  0
  -25.7125  -27.1192   23.1169 C   0  0  0  0  0  0
  -28.9289  -20.9590   19.7882 C   0  0  0  0  0  0
  -26.5803  -25.8939   23.6226 C   0  0  0  0  0  0
  -29.1626  -27.0318   19.5692 N   0  0  0  0  0  0
  -27.7877  -28.5526   21.9869 N   0  0  0  0  0  0
  -26.7295  -26.5278   19.4385 N   0  0  0  0  0  0
  -29.5373  -18.7913   19.6033 N   0  0  0  0  0  0
  -31.0943  -14.4846   18.7418 H   0  0  0  0  0  0
  -30.7973  -13.5996   20.1601 H   0  0  0  0  0  0
  -30.2313  -12.2477   18.0681 H   0  0  0  0  0  0
  -29.2751  -13.5744   17.4640 H   0  0  0  0  0  0
  -28.5593  -11.6037   19.6352 H   0  0  0  0  0  0
  -27.6258  -12.0378   18.2068 H   0  0  0  0  0  0
  -27.2761  -14.2297   19.0283 H   0  0  0  0  0  0
  -29.1064  -13.8160   21.4266 H   0  0  0  0  0  0
  -27.9502  -15.0866   21.3117 H   0  0  0  0  0  0
  -25.3026   -9.5814   22.4778 H   0  0  0  0  0  0
  -24.0222   -7.4806   22.7522 H   0  0  0  0  0  0
  -21.1192   -8.8946   19.8837 H   0  0  0  0  0  0
  -22.4161  -10.9784   19.6071 H   0  0  0  0  0  0
  -21.2136   -7.6258   23.9797 H   0  0  0  0  0  0
  -21.1559   -6.0556   25.9087 H   0  0  0  0  0  0
  -22.0522   -2.7710   23.2679 H   0  0  0  0  0  0
  -22.4314  -11.9533   22.4803 H   0  0  0  0  0  0
  -21.1087  -13.0619   22.2810 H   0  0  0  0  0  0
  -24.5097  -15.8497   20.5489 H   0  0  0  0  0  0
  -26.1432  -15.7624   20.1316 H   0  0  0  0  0  0
  -26.9131  -32.4537   22.9846 H   0  0  0  0  0  0
  -24.9554  -33.7964   24.8210 H   0  0  0  0  0  0
  -23.1522  -31.1154   21.0013 H   0  0  0  0  0  0
  -23.3868  -35.8841   23.2954 H   0  0  0  0  0  0
  -24.3495  -36.8874   22.2269 H   0  0  0  0  0  0
  -23.7113  -37.5497   23.7297 H   0  0  0  0  0  0
  -26.1807  -30.9404   19.8399 H   0  0  0  0  0  0
  -27.2616  -30.7416   21.0912 H   0  0  0  0  0  0
  -28.6813  -26.2536   21.8907 H   0  0  0  0  0  0
  -24.2953  -24.9958   21.1013 H   0  0  0  0  0  0
  -23.3936  -26.9431   19.8956 H   0  0  0  0  0  0
  -24.0209  -30.2011   19.0337 H   0  0  0  0  0  0
  -23.0074  -29.0005   19.6388 H   0  0  0  0  0  0
  -25.1576  -36.0496   25.0601 H   0  0  0  0  0  0
  -21.0806  -28.4247   24.0565 H   0  0  0  0  0  0
  -20.6240  -26.2884   23.3808 H   0  0  0  0  0  0
  -21.7064  -26.7474   22.1118 H   0  0  0  0  0  0
  -19.7368  -25.6126   21.1667 H   0  0  0  0  0  0
  -19.7008  -27.2903   20.6697 H   0  0  0  0  0  0
  -17.4572  -26.6416   21.4255 H   0  0  0  0  0  0
  -18.0807  -26.0100   22.9296 H   0  0  0  0  0  0
  -19.8047  -30.7713   24.1735 H   0  0  0  0  0  0
  -17.5020  -31.6278   24.5047 H   0  0  0  0  0  0
  -15.5478  -30.2634   23.7964 H   0  0  0  0  0  0
  -15.9003  -28.0549   22.7329 H   0  0  0  0  0  0
  -24.5138  -30.8885   25.6470 H   0  0  0  0  0  0
  -24.9953  -32.3986   26.4045 H   0  0  0  0  0  0
  -25.7491  -30.8926   26.9043 H   0  0  0  0  0  0
  -26.3741  -29.5926   24.3975 H   0  0  0  0  0  0
  -27.7539  -29.9093   25.4052 H   0  0  0  0  0  0
  -27.7655  -30.4374   23.7424 H   0  0  0  0  0  0
  -27.2035  -33.4184   26.0976 H   0  0  0  0  0  0
  -28.3960  -32.7437   25.0133 H   0  0  0  0  0  0
  -28.0261  -31.9458   26.5370 H   0  0  0  0  0  0
  -28.2188  -37.9951   24.7857 H   0  0  0  0  0  0
  -28.1332  -36.2545   24.5713 H   0  0  0  0  0  0
  -27.2373  -37.0300   25.8817 H   0  0  0  0  0  0
  -21.0118  -29.8449   21.5017 H   0  0  0  0  0  0
  -25.9639  -38.2124   24.1830 H   0  0  0  0  0  0
  -30.3059  -28.1323   22.4164 H   0  0  0  0  0  0
  -30.3662  -29.7172   21.7053 H   0  0  0  0  0  0
  -31.2057  -28.3416   20.9200 H   0  0  0  0  0  0
  -30.8412  -20.1693   18.5967 H   0  0  0  0  0  0
  -31.0984  -18.4855   18.1860 H   0  0  0  0  0  0
  -31.6182  -19.1035   19.7509 H   0  0  0  0  0  0
  -29.7137  -23.5147   18.7589 H   0  0  0  0  0  0
  -28.1171  -23.2171   18.1691 H   0  0  0  0  0  0
  -24.6700  -26.8037   23.0525 H   0  0  0  0  0  0
  -25.7089  -27.8354   23.9202 H   0  0  0  0  0  0
  -27.8697  -20.7695   19.9699 H   0  0  0  0  0  0
  -29.3239  -21.1214   20.7921 H   0  0  0  0  0  0
  -26.0610  -25.3119   24.3955 H   0  0  0  0  0  0
  -27.4534  -26.2777   24.1629 H   0  0  0  0  0  0
  1 25  1  0  0  0
  1 30  2  0  0  0
  1 83  1  0  0  0
  2  3  1  0  0  0
  2 25  1  0  0  0
  2 84  1  0  0  0
  2 85  1  0  0  0
  3  4  1  0  0  0
  3 86  1  0  0  0
  3 87  1  0  0  0
  4  5  1  0  0  0
  4 88  1  0  0  0
  4 89  1  0  0  0
  5  6  1  0  0  0
  5 26  1  0  0  0
  5 90  1  0  0  0
  6 25  1  0  0  0
  6 91  1  0  0  0
  6 92  1  0  0  0
  7  8  2  0  0  0
  7 26  1  0  0  0
  7 29  1  0  0  0
  8  9  1  0  0  0
  8 22  1  0  0  0
  9 10  1  0  0  0
  9 27  2  0  0  0
 10 11  2  0  0  0
 10 15  1  0  0  0
 11 12  1  0  0  0
 11 93  1  0  0  0
 12 13  2  0  0  0
 12 94  1  0  0  0
 13 14  1  0  0  0
 13 31  1  0  0  0
 14 15  2  0  0  0
 14 95  1  0  0  0
 15 96  1  0  0  0
 16 17  2  0  0  0
 16 21  1  0  0  0
 16 31  1  0  0  0
 17 18  1  0  0  0
 17 97  1  0  0  0
 18 19  2  0  0  0
 18 98  1  0  0  0
 19 20  1  0  0  0
 19 24  1  0  0  0
 20 21  2  0  0  0
 20 99  1  0  0  0
 21 23  1  0  0  0
 22 28  1  0  0  0
 22 32  2  0  0  0
 26 27  1  0  0  0
 28100  1  0  0  0
 28101  1  0  0  0
 29102  1  0  0  0
 29103  1  0  0  0
 33 34  1  0  0  0
 33 66  1  0  0  0
 33 70  2  0  0  0
 34 36  1  0  0  0
 34 59  1  0  0  0
 34104  1  0  0  0
 35 44  2  0  0  0
 35 45  1  0  0  0
 35 68  1  0  0  0
 36 56  1  0  0  0
 36105  1  0  0  0
 37 39  1  0  0  0
 37 47  1  0  0  0
 37 66  1  0  0  0
 37106  1  0  0  0
 38 43  2  0  0  0
 38 46  1  0  0  0
 38 47  1  0  0  0
 39 64  1  0  0  0
 39 67  2  0  0  0
 40 52  1  0  0  0
 40 53  2  0  0  0
 40 58  1  0  0  0
 41107  1  0  0  0
 41108  1  0  0  0
 41109  1  0  0  0
 41 48  1  0  0  0
 42 43  1  0  0  0
 42 66  1  0  0  0
 42110  1  0  0  0
 42111  1  0  0  0
 43 44  1  0  0  0
 44112  1  0  0  0
 45 46  2  0  0  0
 45113  1  0  0  0
 46114  1  0  0  0
 47115  1  0  0  0
 47116  1  0  0  0
 48 56  1  0  0  0
 48 65  1  0  0  0
 48117  1  0  0  0
 49 50  1  0  0  0
 49 53  1  0  0  0
 49 64  1  0  0  0
 49118  1  0  0  0
 50 51  1  0  0  0
 50119  1  0  0  0
 50120  1  0  0  0
 51 52  1  0  0  0
 51121  1  0  0  0
 51122  1  0  0  0
 52123  1  0  0  0
 52124  1  0  0  0
 53 54  1  0  0  0
 54 55  2  0  0  0
 54125  1  0  0  0
 55 57  1  0  0  0
 55126  1  0  0  0
 56 69  2  0  0  0
 57 58  2  0  0  0
 57127  1  0  0  0
 58128  1  0  0  0
 59 60  1  0  0  0
 59 61  1  0  0  0
 59 62  1  0  0  0
 60129  1  0  0  0
 60130  1  0  0  0
 60131  1  0  0  0
 61132  1  0  0  0
 61133  1  0  0  0
 61134  1  0  0  0
 62135  1  0  0  0
 62136  1  0  0  0
 62137  1  0  0  0
 63 65  1  0  0  0
 63138  1  0  0  0
 63139  1  0  0  0
 63140  1  0  0  0
 64141  1  0  0  0
 65142  1  0  0  0
 68 79  1  0  0  0
 71 74  1  0  0  0
 71 80  2  0  0  0
 71 81  1  0  0  0
 72 76  1  0  0  0
 72 80  1  0  0  0
 72 82  2  0  0  0
 73 77  1  0  0  0
 73 81  2  0  0  0
 73 82  1  0  0  0
 74143  1  0  0  0
 74144  1  0  0  0
 74145  1  0  0  0
 75 83  1  0  0  0
 75146  1  0  0  0
 75147  1  0  0  0
 75148  1  0  0  0
 76 78  1  0  0  0
 76149  1  0  0  0
 76150  1  0  0  0
 77 79  1  0  0  0
 77151  1  0  0  0
 77152  1  0  0  0
 78 83  1  0  0  0
 78153  1  0  0  0
 78154  1  0  0  0
 79155  1  0  0  0
 79156  1  0  0  0
M  ISO  4   1 100  68 101  79 101  83 100
M  END
> <chiral flag>
0

> <version>
0

> <s_m_source_file>
/data/baiqing/PycharmProjects/Reinvent-master-3.2/result/LINK_invent/BTK/process_docking_weight1_custom_sum_contain_oxygen_bond_distance_aromatic_linkinvent_7_9_3/rearranged_h_0061.sdf

> <i_m_source_file_index>
16

> <r_mmod_Potential_Energy-OPLS-2005>
25976.33203125

> <r_mmod_Stretch_Energy-OPLS-2005>
14223.9384765625

> <r_mmod_Bend_Energy-OPLS-2005>
1847.91687011719

> <r_mmod_Torsional_Energy-OPLS-2005>
611.178894042969

> <r_mmod_Improper_Torsional_Energy-OPLS-2005>
117.668357849121

> <r_mmod_Van_der_Waal_Energy-OPLS-2005>
4365.296875

> <r_mmod_Electrostatic_Energy-OPLS-2005>
-741.9287109375

> <r_mmod_Solvation_Energy-OPLS-2005>
-303.065856933594

> <b_mmod_Minimization_Converged-OPLS-2005>
0

> <r_mmod_RMS_Derivative-OPLS-2005>
31.6783466339111

$$$$
16
                    3D
 Structure written by MMmdl.
157165  0  0  1  0            999 V2000
  -30.5217  -15.0536   20.3248 C   0  0  0  0  0  0
  -30.4497  -12.6419   19.4896 C   0  0  0  0  0  0
  -29.5262  -12.4590   18.2612 C   0  0  0  0  0  0
  -28.0590  -12.2562   18.6938 C   0  0  0  0  0  0
  -27.6172  -13.2186   19.8261 C   0  0  2  0  0  0
  -28.6739  -13.3532   20.9429 C   0  0  0  0  0  0
  -25.2489  -13.8122   20.5801 C   0  0  0  0  0  0
  -24.1766  -13.0394   20.9271 C   0  0  0  0  0  0
  -24.6350  -11.6869   20.8810 C   0  0  0  0  0  0
  -23.9032  -10.4268   21.0442 C   0  0  0  0  0  0
  -24.3595   -9.4184   21.9210 C   0  0  0  0  0  0
  -23.6277   -8.2220   22.0760 C   0  0  0  0  0  0
  -22.4258   -8.0271   21.3544 C   0  0  0  0  0  0
  -21.9895   -9.0245   20.4649 C   0  0  0  0  0  0
  -22.7218  -10.2127   20.3073 C   0  0  0  0  0  0
  -21.6844   -6.0732   22.5282 C   0  0  0  0  0  0
  -21.4006   -6.5637   23.8214 C   0  0  0  0  0  0
  -21.3660   -5.6791   24.9178 C   0  0  0  0  0  0
  -21.6046   -4.3056   24.7228 C   0  0  0  0  0  0
  -21.8817   -3.8147   23.4349 C   0  0  0  0  0  0
  -21.9187   -4.6960   22.3406 C   0  0  0  0  0  0
  -22.7797  -13.5208   21.1898 C   0  0  0  0  0  0
  -22.1653   -4.2152   21.0981 F   0  0  0  0  0  0
  -21.5637   -3.4536   25.7738 F   0  0  0  0  0  0
  -29.9263  -13.7808   20.3002 N   0  0  0  0  0  0
  -26.2860  -12.9270   20.3329 N   0  0  0  0  0  0
  -25.9274  -11.6444   20.5827 N   0  0  0  0  0  0
  -22.0426  -12.8203   22.0439 N   0  0  0  0  0  0
  -25.4210  -15.1853   20.4273 N   0  0  0  0  0  0
  -31.7572  -15.0711   20.2780 O   0  0  0  0  0  0
  -21.6627   -6.8869   21.4239 O   0  0  0  0  0  0
  -22.3511  -14.5522   20.6739 O   0  0  0  0  0  0
  -24.6463  -31.8414   23.1854 C   0  0  0  0  0  0
  -25.9219  -32.4682   23.8256 C   0  0  1  0  0  0
  -27.2244  -27.1079   20.1579 C   0  0  0  0  0  0
  -25.5955  -33.8488   24.2177 N   0  0  0  0  0  0
  -23.4518  -30.4595   21.5316 C   0  0  2  0  0  0
  -24.9043  -28.8818   20.1105 C   0  0  0  0  0  0
  -22.7584  -29.4533   22.4842 C   0  0  0  0  0  0
  -18.0309  -28.1396   22.8476 C   0  0  0  0  0  0
  -24.1494  -36.7254   23.2644 C   0  0  0  0  0  0
  -26.0103  -30.7065   21.3881 C   0  0  0  0  0  0
  -26.0827  -29.3145   20.7313 C   0  0  0  0  0  0
  -27.2424  -28.4453   20.7361 C   0  0  0  0  0  0
  -26.0175  -26.7858   19.4947 C   0  0  0  0  0  0
  -24.8869  -27.6317   19.4755 C   0  0  0  0  0  0
  -23.6811  -29.7866   20.1522 C   0  0  0  0  0  0
  -25.4124  -36.3023   24.0316 C   0  0  1  0  0  0
  -20.5924  -28.3728   23.1227 C   0  0  2  0  0  0
  -20.6792  -26.9424   22.5406 C   0  0  0  0  0  0
  -19.5765  -26.6376   21.5216 C   0  0  0  0  0  0
  -18.1946  -26.7932   22.1625 C   0  0  0  0  0  0
  -19.1565  -28.8879   23.2844 C   0  0  0  0  0  0
  -18.9481  -30.1477   23.8869 C   0  0  0  0  0  0
  -17.6476  -30.6590   24.0562 C   0  0  0  0  0  0
  -25.9078  -34.9399   23.5056 C   0  0  0  0  0  0
  -16.5368  -29.9080   23.6339 C   0  0  0  0  0  0
  -16.7291  -28.6502   23.0352 C   0  0  0  0  0  0
  -26.4528  -31.6551   25.0706 C   0  0  0  0  0  0
  -25.3707  -31.3745   26.1399 C   0  0  0  0  0  0
  -27.0393  -30.2942   24.6298 C   0  0  0  0  0  0
  -27.6053  -32.4319   25.7493 C   0  0  0  0  0  0
  -27.5574  -37.1783   24.8464 C   0  0  0  0  0  0
  -21.4272  -29.3050   22.3597 N   0  0  0  0  0  0
  -26.4282  -37.3741   23.9409 N   0  0  0  0  0  0
  -24.7229  -31.0239   22.0906 N   0  0  0  0  0  0
  -23.4211  -28.8083   23.3009 O   0  0  0  0  0  0
  -28.2668  -26.1006   20.2384 O   0  0  0  0  0  0
  -26.5667  -34.8903   22.4639 O   0  0  0  0  0  0
  -23.5575  -32.1297   23.7057 O   0  0  0  0  0  0
  -30.2760  -23.4560   20.7477 C   0  0  0  0  0  0
  -31.0951  -22.3288   20.9623 C   0  0  0  0  0  0
  -28.9461  -23.2671   20.3561 C   0  0  0  0  0  0
  -29.4451  -20.8067   20.4076 C   0  0  0  0  0  0
  -28.1578  -19.1729   18.9955 C   0  0  0  0  0  0
  -28.0581  -18.9271   21.4841 C   0  0  0  0  0  0
  -28.9828  -16.1857   18.8638 C   0  0  0  0  0  0
  -27.9416  -24.5684   20.0970 C   0  0  0  0  0  0
  -30.0929  -17.8462   20.3075 C   0  0  0  0  0  0
  -28.9946  -19.1956   20.2956 C   0  0  0  0  0  0
  -30.6881  -21.0439   20.8063 N   0  0  0  0  0  0
  -28.5774  -21.8985   20.2129 N   0  0  0  0  0  0
  -29.7584  -16.2731   20.1066 N   0  0  0  0  0  0
  -31.4725  -12.8252   19.1564 H   0  0  0  0  0  0
  -30.4870  -11.7292   20.0868 H   0  0  0  0  0  0
  -29.8545  -11.5982   17.6775 H   0  0  0  0  0  0
  -29.6121  -13.3099   17.5878 H   0  0  0  0  0  0
  -27.9679  -11.2264   19.0414 H   0  0  0  0  0  0
  -27.3925  -12.3437   17.8353 H   0  0  0  0  0  0
  -27.5150  -14.1749   19.3365 H   0  0  0  0  0  0
  -28.8032  -12.4154   21.4848 H   0  0  0  0  0  0
  -28.3602  -14.0996   21.6743 H   0  0  0  0  0  0
  -25.2735   -9.5665   22.4795 H   0  0  0  0  0  0
  -23.9990   -7.4604   22.7467 H   0  0  0  0  0  0
  -21.0834   -8.8767   19.8944 H   0  0  0  0  0  0
  -22.3681  -10.9679   19.6194 H   0  0  0  0  0  0
  -21.1991   -7.6144   23.9717 H   0  0  0  0  0  0
  -21.1484   -6.0522   25.9080 H   0  0  0  0  0  0
  -22.0595   -2.7611   23.2847 H   0  0  0  0  0  0
  -22.4023  -11.9853   22.4821 H   0  0  0  0  0  0
  -21.1050  -13.1245   22.2641 H   0  0  0  0  0  0
  -24.6620  -15.8435   20.5642 H   0  0  0  0  0  0
  -26.2881  -15.6290   20.1573 H   0  0  0  0  0  0
  -26.7286  -32.5285   23.0984 H   0  0  0  0  0  0
  -25.0073  -33.9602   25.0303 H   0  0  0  0  0  0
  -22.7562  -31.2865   21.3744 H   0  0  0  0  0  0
  -23.3761  -35.9581   23.3285 H   0  0  0  0  0  0
  -24.3581  -36.8908   22.2063 H   0  0  0  0  0  0
  -23.7244  -37.6441   23.6699 H   0  0  0  0  0  0
  -26.1660  -31.4576   20.6123 H   0  0  0  0  0  0
  -26.8814  -30.7616   22.0294 H   0  0  0  0  0  0
  -28.1375  -28.7725   21.2460 H   0  0  0  0  0  0
  -25.9069  -25.8332   19.0003 H   0  0  0  0  0  0
  -23.9888  -27.2947   18.9760 H   0  0  0  0  0  0
  -23.8183  -30.5608   19.3963 H   0  0  0  0  0  0
  -22.7960  -29.2286   19.8416 H   0  0  0  0  0  0
  -25.1311  -36.1847   25.0807 H   0  0  0  0  0  0
  -21.0020  -28.3323   24.1347 H   0  0  0  0  0  0
  -20.5682  -26.2343   23.3631 H   0  0  0  0  0  0
  -21.6657  -26.7419   22.1207 H   0  0  0  0  0  0
  -19.6927  -25.6280   21.1262 H   0  0  0  0  0  0
  -19.6703  -27.3176   20.6739 H   0  0  0  0  0  0
  -17.4216  -26.6681   21.4027 H   0  0  0  0  0  0
  -18.0341  -26.0077   22.9024 H   0  0  0  0  0  0
  -19.7958  -30.7307   24.2216 H   0  0  0  0  0  0
  -17.5028  -31.6268   24.5168 H   0  0  0  0  0  0
  -15.5368  -30.2973   23.7678 H   0  0  0  0  0  0
  -15.8694  -28.0819   22.7069 H   0  0  0  0  0  0
  -24.5906  -30.7068   25.7725 H   0  0  0  0  0  0
  -24.8875  -32.2928   26.4750 H   0  0  0  0  0  0
  -25.7990  -30.8974   27.0224 H   0  0  0  0  0  0
  -26.3016  -29.6660   24.1297 H   0  0  0  0  0  0
  -27.3991  -29.7244   25.4875 H   0  0  0  0  0  0
  -27.8929  -30.4168   23.9627 H   0  0  0  0  0  0
  -27.2647  -33.3652   26.1989 H   0  0  0  0  0  0
  -28.3908  -32.6822   25.0349 H   0  0  0  0  0  0
  -28.0671  -31.8493   26.5475 H   0  0  0  0  0  0
  -28.2575  -38.0094   24.7512 H   0  0  0  0  0  0
  -28.1083  -36.2621   24.6282 H   0  0  0  0  0  0
  -27.2296  -37.1420   25.8869 H   0  0  0  0  0  0
  -20.9486  -29.8759   21.6771 H   0  0  0  0  0  0
  -26.0145  -38.2807   24.1412 H   0  0  0  0  0  0
  -30.6672  -24.4546   20.8892 H   0  0  0  0  0  0
  -32.1211  -22.4632   21.2723 H   0  0  0  0  0  0
  -27.4489  -19.9992   18.9569 H   0  0  0  0  0  0
  -27.5294  -18.2974   18.8950 H   0  0  0  0  0  0
  -28.7966  -19.2645   18.1170 H   0  0  0  0  0  0
  -27.2314  -19.6376   21.5043 H   0  0  0  0  0  0
  -28.5961  -19.0240   22.4272 H   0  0  0  0  0  0
  -27.6326  -17.9244   21.4416 H   0  0  0  0  0  0
  -27.9189  -16.2562   19.0749 H   0  0  0  0  0  0
  -29.1394  -15.2782   18.2881 H   0  0  0  0  0  0
  -29.2614  -16.9674   18.1592 H   0  0  0  0  0  0
  -27.0767  -24.3855   20.7354 H   0  0  0  0  0  0
  -27.5847  -24.4253   19.0779 H   0  0  0  0  0  0
  -30.6362  -17.9018   21.2513 H   0  0  0  0  0  0
  -30.8549  -18.0725   19.5600 H   0  0  0  0  0  0
  1 25  1  0  0  0
  1 30  2  0  0  0
  1 83  1  0  0  0
  2  3  1  0  0  0
  2 25  1  0  0  0
  2 84  1  0  0  0
  2 85  1  0  0  0
  3  4  1  0  0  0
  3 86  1  0  0  0
  3 87  1  0  0  0
  4  5  1  0  0  0
  4 88  1  0  0  0
  4 89  1  0  0  0
  5  6  1  0  0  0
  5 26  1  0  0  0
  5 90  1  0  0  0
  6 25  1  0  0  0
  6 91  1  0  0  0
  6 92  1  0  0  0
  7  8  2  0  0  0
  7 26  1  0  0  0
  7 29  1  0  0  0
  8  9  1  0  0  0
  8 22  1  0  0  0
  9 10  1  0  0  0
  9 27  2  0  0  0
 10 11  2  0  0  0
 10 15  1  0  0  0
 11 12  1  0  0  0
 11 93  1  0  0  0
 12 13  2  0  0  0
 12 94  1  0  0  0
 13 14  1  0  0  0
 13 31  1  0  0  0
 14 15  2  0  0  0
 14 95  1  0  0  0
 15 96  1  0  0  0
 16 17  2  0  0  0
 16 21  1  0  0  0
 16 31  1  0  0  0
 17 18  1  0  0  0
 17 97  1  0  0  0
 18 19  2  0  0  0
 18 98  1  0  0  0
 19 20  1  0  0  0
 19 24  1  0  0  0
 20 21  2  0  0  0
 20 99  1  0  0  0
 21 23  1  0  0  0
 22 28  1  0  0  0
 22 32  2  0  0  0
 26 27  1  0  0  0
 28100  1  0  0  0
 28101  1  0  0  0
 29102  1  0  0  0
 29103  1  0  0  0
 33 34  1  0  0  0
 33 66  1  0  0  0
 33 70  2  0  0  0
 34 36  1  0  0  0
 34 59  1  0  0  0
 34104  1  0  0  0
 35 44  2  0  0  0
 35 45  1  0  0  0
 35 68  1  0  0  0
 36 56  1  0  0  0
 36105  1  0  0  0
 37 39  1  0  0  0
 37 47  1  0  0  0
 37 66  1  0  0  0
 37106  1  0  0  0
 38 43  2  0  0  0
 38 46  1  0  0  0
 38 47  1  0  0  0
 39 64  1  0  0  0
 39 67  2  0  0  0
 40 52  1  0  0  0
 40 53  2  0  0  0
 40 58  1  0  0  0
 41107  1  0  0  0
 41108  1  0  0  0
 41109  1  0  0  0
 41 48  1  0  0  0
 42 43  1  0  0  0
 42 66  1  0  0  0
 42110  1  0  0  0
 42111  1  0  0  0
 43 44  1  0  0  0
 44112  1  0  0  0
 45 46  2  0  0  0
 45113  1  0  0  0
 46114  1  0  0  0
 47115  1  0  0  0
 47116  1  0  0  0
 48 56  1  0  0  0
 48 65  1  0  0  0
 48117  1  0  0  0
 49 50  1  0  0  0
 49 53  1  0  0  0
 49 64  1  0  0  0
 49118  1  0  0  0
 50 51  1  0  0  0
 50119  1  0  0  0
 50120  1  0  0  0
 51 52  1  0  0  0
 51121  1  0  0  0
 51122  1  0  0  0
 52123  1  0  0  0
 52124  1  0  0  0
 53 54  1  0  0  0
 54 55  2  0  0  0
 54125  1  0  0  0
 55 57  1  0  0  0
 55126  1  0  0  0
 56 69  2  0  0  0
 57 58  2  0  0  0
 57127  1  0  0  0
 58128  1  0  0  0
 59 60  1  0  0  0
 59 61  1  0  0  0
 59 62  1  0  0  0
 60129  1  0  0  0
 60130  1  0  0  0
 60131  1  0  0  0
 61132  1  0  0  0
 61133  1  0  0  0
 61134  1  0  0  0
 62135  1  0  0  0
 62136  1  0  0  0
 62137  1  0  0  0
 63 65  1  0  0  0
 63138  1  0  0  0
 63139  1  0  0  0
 63140  1  0  0  0
 64141  1  0  0  0
 65142  1  0  0  0
 68 78  1  0  0  0
 71 72  2  0  0  0
 71 73  1  0  0  0
 71143  1  0  0  0
 72 81  1  0  0  0
 72144  1  0  0  0
 73 78  1  0  0  0
 73 82  2  0  0  0
 74 80  1  0  0  0
 74 81  2  0  0  0
 74 82  1  0  0  0
 75145  1  0  0  0
 75146  1  0  0  0
 75147  1  0  0  0
 75 80  1  0  0  0
 76 80  1  0  0  0
 76148  1  0  0  0
 76149  1  0  0  0
 76150  1  0  0  0
 77 83  1  0  0  0
 77151  1  0  0  0
 77152  1  0  0  0
 77153  1  0  0  0
 78154  1  0  0  0
 78155  1  0  0  0
 79 80  1  0  0  0
 79 83  1  0  0  0
 79156  1  0  0  0
 79157  1  0  0  0
M  ISO  4   1 100  68 101  78 101  83 100
M  END
> <chiral flag>
0

> <version>
0

> <s_m_source_file>
/data/baiqing/PycharmProjects/Reinvent-master-3.2/result/LINK_invent/BTK/process_docking_weight1_custom_sum_contain_oxygen_bond_distance_aromatic_linkinvent_7_9_3/rearranged_h_0061.sdf

> <i_m_source_file_index>
17

> <r_mmod_Potential_Energy-OPLS-2005>
388.067932128906

> <r_mmod_Stretch_Energy-OPLS-2005>
326.081268310547

> <r_mmod_Bend_Energy-OPLS-2005>
292.55712890625

> <r_mmod_Torsional_Energy-OPLS-2005>
300.861267089844

> <r_mmod_Improper_Torsional_Energy-OPLS-2005>
10.5639190673828

> <r_mmod_Van_der_Waal_Energy-OPLS-2005>
153.229721069336

> <r_mmod_Electrostatic_Energy-OPLS-2005>
-729.795166015625

> <r_mmod_Solvation_Energy-OPLS-2005>
-223.816757202148

> <b_mmod_Minimization_Converged-OPLS-2005>
0

> <r_mmod_RMS_Derivative-OPLS-2005>
0.783071517944336

$$$$
17
                    3D
 Structure written by MMmdl.
178186  0  0  1  0            999 V2000
  -30.5674  -14.8585   20.4794 C   0  0  0  0  0  0
  -30.4523  -12.5588   19.4420 C   0  0  0  0  0  0
  -29.5040  -12.5269   18.2199 C   0  0  0  0  0  0
  -28.0361  -12.3093   18.6477 C   0  0  0  0  0  0
  -27.6371  -13.1975   19.8532 C   0  0  2  0  0  0
  -28.7077  -13.0886   20.9656 C   0  0  0  0  0  0
  -25.2449  -13.8056   20.5653 C   0  0  0  0  0  0
  -24.1758  -13.0359   20.9243 C   0  0  0  0  0  0
  -24.6327  -11.6833   20.8786 C   0  0  0  0  0  0
  -23.9000  -10.4248   21.0423 C   0  0  0  0  0  0
  -24.3572   -9.4180   21.9195 C   0  0  0  0  0  0
  -23.6278   -8.2203   22.0755 C   0  0  0  0  0  0
  -22.4259   -8.0237   21.3548 C   0  0  0  0  0  0
  -21.9878   -9.0197   20.4643 C   0  0  0  0  0  0
  -22.7179  -10.2089   20.3065 C   0  0  0  0  0  0
  -21.6844   -6.0708   22.5279 C   0  0  0  0  0  0
  -21.4004   -6.5624   23.8209 C   0  0  0  0  0  0
  -21.3659   -5.6785   24.9177 C   0  0  0  0  0  0
  -21.6047   -4.3047   24.7228 C   0  0  0  0  0  0
  -21.8828   -3.8131   23.4352 C   0  0  0  0  0  0
  -21.9197   -4.6942   22.3405 C   0  0  0  0  0  0
  -22.7786  -13.5174   21.1888 C   0  0  0  0  0  0
  -22.1664   -4.2131   21.0982 F   0  0  0  0  0  0
  -21.5641   -3.4539   25.7745 F   0  0  0  0  0  0
  -29.9539  -13.6071   20.3767 N   0  0  0  0  0  0
  -26.2891  -12.9218   20.3322 N   0  0  0  0  0  0
  -25.9254  -11.6399   20.5808 N   0  0  0  0  0  0
  -22.0423  -12.8185   22.0438 N   0  0  0  0  0  0
  -25.3993  -15.1769   20.3880 N   0  0  0  0  0  0
  -31.7745  -14.9013   20.2131 O   0  0  0  0  0  0
  -21.6633   -6.8835   21.4234 O   0  0  0  0  0  0
  -22.3490  -14.5494   20.6731 O   0  0  0  0  0  0
  -24.6325  -31.8518   23.1967 C   0  0  0  0  0  0
  -25.9154  -32.4720   23.8310 C   0  0  1  0  0  0
  -27.2363  -27.2500   20.1301 C   0  0  0  0  0  0
  -25.5954  -33.8523   24.2244 N   0  0  0  0  0  0
  -23.4297  -30.4722   21.5391 C   0  0  2  0  0  0
  -24.8818  -28.9137   20.1126 C   0  0  0  0  0  0
  -22.7503  -29.4578   22.4905 C   0  0  0  0  0  0
  -18.0292  -28.1382   22.8481 C   0  0  0  0  0  0
  -24.1495  -36.7268   23.2637 C   0  0  0  0  0  0
  -25.9765  -30.7606   21.3794 C   0  0  0  0  0  0
  -26.0522  -29.3807   20.7231 C   0  0  0  0  0  0
  -27.2291  -28.5625   20.7189 C   0  0  0  0  0  0
  -26.0370  -26.8497   19.4972 C   0  0  0  0  0  0
  -24.8802  -27.6566   19.4891 C   0  0  0  0  0  0
  -23.6506  -29.8002   20.1576 C   0  0  0  0  0  0
  -25.4121  -36.3041   24.0320 C   0  0  1  0  0  0
  -20.5895  -28.3693   23.1274 C   0  0  2  0  0  0
  -20.6780  -26.9409   22.5411 C   0  0  0  0  0  0
  -19.5763  -26.6386   21.5204 C   0  0  0  0  0  0
  -18.1940  -26.7929   22.1612 C   0  0  0  0  0  0
  -19.1545  -28.8855   23.2871 C   0  0  0  0  0  0
  -18.9463  -30.1459   23.8886 C   0  0  0  0  0  0
  -17.6460  -30.6584   24.0555 C   0  0  0  0  0  0
  -25.9063  -34.9412   23.5083 C   0  0  0  0  0  0
  -16.5353  -29.9075   23.6336 C   0  0  0  0  0  0
  -16.7277  -28.6492   23.0360 C   0  0  0  0  0  0
  -26.4535  -31.6548   25.0702 C   0  0  0  0  0  0
  -25.3759  -31.3679   26.1418 C   0  0  0  0  0  0
  -27.0402  -30.2964   24.6205 C   0  0  0  0  0  0
  -27.6088  -32.4289   25.7485 C   0  0  0  0  0  0
  -27.5582  -37.1785   24.8464 C   0  0  0  0  0  0
  -21.4208  -29.3037   22.3655 N   0  0  0  0  0  0
  -26.4290  -37.3747   23.9412 N   0  0  0  0  0  0
  -24.6980  -31.0474   22.0942 N   0  0  0  0  0  0
  -23.4197  -28.8132   23.3020 O   0  0  0  0  0  0
  -28.3560  -26.3778   20.1661 O   0  0  0  0  0  0
  -26.5624  -34.8895   22.4646 O   0  0  0  0  0  0
  -23.5477  -32.1352   23.7261 O   0  0  0  0  0  0
  -29.8674  -18.7687   20.5128 C   0  0  0  0  0  0
  -30.4479  -17.4789   20.5526 C   0  0  0  0  0  0
  -32.0432  -19.0332   20.8393 C   0  0  0  0  0  0
  -29.3296  -20.7715   23.0934 C   0  0  0  0  0  0
  -30.2987  -24.4143   18.8844 C   0  0  0  0  0  0
  -33.7409  -19.9922   22.5567 C   0  0  0  0  0  0
  -34.3093  -19.8948   19.9883 C   0  0  0  0  0  0
  -34.2869  -17.9398   21.4243 C   0  0  0  0  0  0
  -31.9206  -22.1234   20.4794 C   0  0  0  0  0  0
  -28.4273  -16.2047   20.9180 C   0  0  0  0  0  0
  -30.4497  -21.5922   22.4340 C   0  0  0  0  0  0
  -29.4696  -22.2454   20.1662 C   0  0  0  0  0  0
  -28.1896  -24.8725   20.1297 C   0  0  0  0  0  0
  -29.5083  -23.9191   20.1197 C   0  0  2  0  0  0
  -33.5313  -19.2908   21.1857 C   0  0  0  0  0  0
  -30.6574  -21.3553   20.9096 C   0  0  1  0  0  0
  -30.8631  -19.7673   20.6834 N   0  0  0  0  0  0
  -31.7612  -17.7304   20.6483 N   0  3  0  0  0  0
  -29.8593  -16.0952   20.6146 N   0  0  0  0  0  0
  -31.4710  -12.7535   19.1039 H   0  0  0  0  0  0
  -30.4965  -11.5830   19.9279 H   0  0  0  0  0  0
  -29.8114  -11.7446   17.5253 H   0  0  0  0  0  0
  -29.5845  -13.4676   17.6737 H   0  0  0  0  0  0
  -27.9251  -11.2584   18.9169 H   0  0  0  0  0  0
  -27.3639  -12.4817   17.8062 H   0  0  0  0  0  0
  -27.6238  -14.2076   19.4552 H   0  0  0  0  0  0
  -28.8184  -12.0397   21.2436 H   0  0  0  0  0  0
  -28.4505  -13.5463   21.9155 H   0  0  0  0  0  0
  -25.2702   -9.5696   22.4776 H   0  0  0  0  0  0
  -24.0019   -7.4600   22.7462 H   0  0  0  0  0  0
  -21.0821   -8.8673   19.8933 H   0  0  0  0  0  0
  -22.3610  -10.9623   19.6185 H   0  0  0  0  0  0
  -21.1980   -7.6131   23.9702 H   0  0  0  0  0  0
  -21.1479   -6.0518   25.9083 H   0  0  0  0  0  0
  -22.0612   -2.7593   23.2857 H   0  0  0  0  0  0
  -22.4041  -11.9852   22.4839 H   0  0  0  0  0  0
  -21.1026  -13.1193   22.2606 H   0  0  0  0  0  0
  -24.6066  -15.8053   20.4648 H   0  0  0  0  0  0
  -26.1897  -15.5942   19.9194 H   0  0  0  0  0  0
  -26.7211  -32.5369   23.1042 H   0  0  0  0  0  0
  -25.0108  -33.9650   25.0394 H   0  0  0  0  0  0
  -22.7266  -31.2937   21.3875 H   0  0  0  0  0  0
  -23.3755  -35.9599   23.3274 H   0  0  0  0  0  0
  -24.3585  -36.8921   22.2056 H   0  0  0  0  0  0
  -23.7248  -37.6458   23.6688 H   0  0  0  0  0  0
  -26.1177  -31.5200   20.6087 H   0  0  0  0  0  0
  -26.8521  -30.8099   22.0154 H   0  0  0  0  0  0
  -28.1238  -28.9169   21.2113 H   0  0  0  0  0  0
  -25.9627  -25.8939   19.0029 H   0  0  0  0  0  0
  -23.9845  -27.2956   19.0025 H   0  0  0  0  0  0
  -23.7720  -30.5708   19.3956 H   0  0  0  0  0  0
  -22.7708  -29.2292   19.8567 H   0  0  0  0  0  0
  -25.1303  -36.1865   25.0808 H   0  0  0  0  0  0
  -20.9979  -28.3262   24.1399 H   0  0  0  0  0  0
  -20.5678  -26.2288   23.3602 H   0  0  0  0  0  0
  -21.6647  -26.7435   22.1208 H   0  0  0  0  0  0
  -19.6929  -25.6297   21.1235 H   0  0  0  0  0  0
  -19.6717  -27.3190   20.6727 H   0  0  0  0  0  0
  -17.4215  -26.6678   21.4010 H   0  0  0  0  0  0
  -18.0344  -26.0068   22.9003 H   0  0  0  0  0  0
  -19.7936  -30.7279   24.2255 H   0  0  0  0  0  0
  -17.5011  -31.6263   24.5156 H   0  0  0  0  0  0
  -15.5353  -30.2969   23.7673 H   0  0  0  0  0  0
  -15.8676  -28.0798   22.7102 H   0  0  0  0  0  0
  -24.5961  -30.7002   25.7741 H   0  0  0  0  0  0
  -24.8927  -32.2833   26.4836 H   0  0  0  0  0  0
  -25.8089  -30.8866   27.0195 H   0  0  0  0  0  0
  -26.2994  -29.6670   24.1262 H   0  0  0  0  0  0
  -27.4118  -29.7266   25.4734 H   0  0  0  0  0  0
  -27.8854  -30.4236   23.9436 H   0  0  0  0  0  0
  -27.2707  -33.3604   26.2039 H   0  0  0  0  0  0
  -28.3926  -32.6814   25.0329 H   0  0  0  0  0  0
  -28.0727  -31.8415   26.5423 H   0  0  0  0  0  0
  -28.2572  -38.0109   24.7527 H   0  0  0  0  0  0
  -28.1114  -36.2638   24.6273 H   0  0  0  0  0  0
  -27.2302  -37.1398   25.8867 H   0  0  0  0  0  0
  -20.9396  -29.8733   21.6833 H   0  0  0  0  0  0
  -26.0158  -38.2811   24.1426 H   0  0  0  0  0  0
  -28.8290  -19.0569   20.4409 H   0  0  0  0  0  0
  -29.5488  -19.7048   23.0844 H   0  0  0  0  0  0
  -28.3670  -20.9265   22.6082 H   0  0  0  0  0  0
  -29.2151  -21.0587   24.1385 H   0  0  0  0  0  0
  -31.3027  -24.0119   18.7987 H   0  0  0  0  0  0
  -30.4166  -25.4991   18.9047 H   0  0  0  0  0  0
  -29.7756  -24.1660   17.9608 H   0  0  0  0  0  0
  -33.4328  -21.0222   22.6576 H   0  0  0  0  0  0
  -34.7955  -20.0032   22.8330 H   0  0  0  0  0  0
  -33.2188  -19.4462   23.3430 H   0  0  0  0  0  0
  -33.9630  -20.8491   19.6177 H   0  0  0  0  0  0
  -34.2603  -19.2229   19.1297 H   0  0  0  0  0  0
  -35.3654  -20.0241   20.2272 H   0  0  0  0  0  0
  -33.8544  -17.3635   22.2455 H   0  0  0  0  0  0
  -35.3317  -18.1046   21.6914 H   0  0  0  0  0  0
  -34.3096  -17.2994   20.5400 H   0  0  0  0  0  0
  -31.8797  -23.1799   20.7285 H   0  0  0  0  0  0
  -32.1001  -22.0274   19.4096 H   0  0  0  0  0  0
  -32.8128  -21.8452   20.9940 H   0  0  0  0  0  0
  -28.2121  -17.0837   21.5257 H   0  0  0  0  0  0
  -27.9884  -15.4262   21.5176 H   0  0  0  0  0  0
  -27.8616  -16.3237   19.9958 H   0  0  0  0  0  0
  -31.3617  -21.3753   22.9820 H   0  0  0  0  0  0
  -30.2637  -22.6491   22.6268 H   0  0  0  0  0  0
  -29.4076  -21.8983   19.1347 H   0  0  0  0  0  0
  -28.5102  -21.9549   20.5926 H   0  0  0  0  0  0
  -27.5783  -24.5982   20.9901 H   0  0  0  0  0  0
  -27.6082  -24.6014   19.2496 H   0  0  0  0  0  0
  -30.0401  -24.2438   21.0126 H   0  0  0  0  0  0
  -32.4680  -17.0041   20.6837 H   0  0  0  0  0  0
  1 25  1  0  0  0
  1 30  2  0  0  0
  1 89  1  0  0  0
  2  3  1  0  0  0
  2 25  1  0  0  0
  2 90  1  0  0  0
  2 91  1  0  0  0
  3  4  1  0  0  0
  3 92  1  0  0  0
  3 93  1  0  0  0
  4  5  1  0  0  0
  4 94  1  0  0  0
  4 95  1  0  0  0
  5  6  1  0  0  0
  5 26  1  0  0  0
  5 96  1  0  0  0
  6 25  1  0  0  0
  6 97  1  0  0  0
  6 98  1  0  0  0
  7  8  2  0  0  0
  7 26  1  0  0  0
  7 29  1  0  0  0
  8  9  1  0  0  0
  8 22  1  0  0  0
  9 10  1  0  0  0
  9 27  2  0  0  0
 10 11  2  0  0  0
 10 15  1  0  0  0
 11 12  1  0  0  0
 11 99  1  0  0  0
 12 13  2  0  0  0
 12100  1  0  0  0
 13 14  1  0  0  0
 13 31  1  0  0  0
 14 15  2  0  0  0
 14101  1  0  0  0
 15102  1  0  0  0
 16 17  2  0  0  0
 16 21  1  0  0  0
 16 31  1  0  0  0
 17 18  1  0  0  0
 17103  1  0  0  0
 18 19  2  0  0  0
 18104  1  0  0  0
 19 20  1  0  0  0
 19 24  1  0  0  0
 20 21  2  0  0  0
 20105  1  0  0  0
 21 23  1  0  0  0
 22 28  1  0  0  0
 22 32  2  0  0  0
 26 27  1  0  0  0
 28106  1  0  0  0
 28107  1  0  0  0
 29108  1  0  0  0
 29109  1  0  0  0
 33 34  1  0  0  0
 33 66  1  0  0  0
 33 70  2  0  0  0
 34 36  1  0  0  0
 34 59  1  0  0  0
 34110  1  0  0  0
 35 44  2  0  0  0
 35 45  1  0  0  0
 35 68  1  0  0  0
 36 56  1  0  0  0
 36111  1  0  0  0
 37 39  1  0  0  0
 37 47  1  0  0  0
 37 66  1  0  0  0
 37112  1  0  0  0
 38 43  2  0  0  0
 38 46  1  0  0  0
 38 47  1  0  0  0
 39 64  1  0  0  0
 39 67  2  0  0  0
 40 52  1  0  0  0
 40 53  2  0  0  0
 40 58  1  0  0  0
 41113  1  0  0  0
 41114  1  0  0  0
 41115  1  0  0  0
 41 48  1  0  0  0
 42 43  1  0  0  0
 42 66  1  0  0  0
 42116  1  0  0  0
 42117  1  0  0  0
 43 44  1  0  0  0
 44118  1  0  0  0
 45 46  2  0  0  0
 45119  1  0  0  0
 46120  1  0  0  0
 47121  1  0  0  0
 47122  1  0  0  0
 48 56  1  0  0  0
 48 65  1  0  0  0
 48123  1  0  0  0
 49 50  1  0  0  0
 49 53  1  0  0  0
 49 64  1  0  0  0
 49124  1  0  0  0
 50 51  1  0  0  0
 50125  1  0  0  0
 50126  1  0  0  0
 51 52  1  0  0  0
 51127  1  0  0  0
 51128  1  0  0  0
 52129  1  0  0  0
 52130  1  0  0  0
 53 54  1  0  0  0
 54 55  2  0  0  0
 54131  1  0  0  0
 55 57  1  0  0  0
 55132  1  0  0  0
 56 69  2  0  0  0
 57 58  2  0  0  0
 57133  1  0  0  0
 58134  1  0  0  0
 59 60  1  0  0  0
 59 61  1  0  0  0
 59 62  1  0  0  0
 60135  1  0  0  0
 60136  1  0  0  0
 60137  1  0  0  0
 61138  1  0  0  0
 61139  1  0  0  0
 61140  1  0  0  0
 62141  1  0  0  0
 62142  1  0  0  0
 62143  1  0  0  0
 63 65  1  0  0  0
 63144  1  0  0  0
 63145  1  0  0  0
 63146  1  0  0  0
 64147  1  0  0  0
 65148  1  0  0  0
 68 83  1  0  0  0
 71 72  2  0  0  0
 71 87  1  0  0  0
 71149  1  0  0  0
 72 88  1  0  0  0
 72 89  1  0  0  0
 73 85  1  0  0  0
 73 87  1  0  0  0
 73 88  2  0  0  0
 74 81  1  0  0  0
 74150  1  0  0  0
 74151  1  0  0  0
 74152  1  0  0  0
 75153  1  0  0  0
 75154  1  0  0  0
 75155  1  0  0  0
 75 84  1  0  0  0
 76156  1  0  0  0
 76157  1  0  0  0
 76158  1  0  0  0
 76 85  1  0  0  0
 77 85  1  0  0  0
 77159  1  0  0  0
 77160  1  0  0  0
 77161  1  0  0  0
 78 85  1  0  0  0
 78162  1  0  0  0
 78163  1  0  0  0
 78164  1  0  0  0
 79165  1  0  0  0
 79166  1  0  0  0
 79167  1  0  0  0
 79 86  1  0  0  0
 80 89  1  0  0  0
 80168  1  0  0  0
 80169  1  0  0  0
 80170  1  0  0  0
 81 86  1  0  0  0
 81171  1  0  0  0
 81172  1  0  0  0
 82 84  1  0  0  0
 82 86  1  0  0  0
 82173  1  0  0  0
 82174  1  0  0  0
 83 84  1  0  0  0
 83175  1  0  0  0
 83176  1  0  0  0
 84177  1  0  0  0
 86 87  1  0  0  0
 88178  1  0  0  0
M  CHG  1  88   1
M  ISO  4   1 100  68 101  83 101  89 100
M  END
> <chiral flag>
0

> <version>
0

> <s_m_source_file>
/data/baiqing/PycharmProjects/Reinvent-master-3.2/result/LINK_invent/BTK/process_docking_weight1_custom_sum_contain_oxygen_bond_distance_aromatic_linkinvent_7_9_3/rearranged_h_0061.sdf

> <i_m_source_file_index>
18

> <r_mmod_Potential_Energy-OPLS-2005>
539.430725097656

> <r_mmod_Stretch_Energy-OPLS-2005>
215.76350402832

> <r_mmod_Bend_Energy-OPLS-2005>
310.132507324219

> <r_mmod_Torsional_Energy-OPLS-2005>
333.368865966797

> <r_mmod_Improper_Torsional_Energy-OPLS-2005>
8.51644039154053

> <r_mmod_Van_der_Waal_Energy-OPLS-2005>
180.528457641602

> <r_mmod_Electrostatic_Energy-OPLS-2005>
-261.763153076172

> <r_mmod_Solvation_Energy-OPLS-2005>
-357.569000244141

> <b_mmod_Minimization_Converged-OPLS-2005>
0

> <r_mmod_RMS_Derivative-OPLS-2005>
1.99296092987061

$$$$
18
                    3D
 Structure written by MMmdl.
157165  0  0  1  0            999 V2000
  -30.4922  -15.0610   20.3872 C   0  0  0  0  0  0
  -30.4456  -12.6645   19.4868 C   0  0  0  0  0  0
  -29.5239  -12.5401   18.2502 C   0  0  0  0  0  0
  -28.0610  -12.3083   18.6780 C   0  0  0  0  0  0
  -27.6228  -13.2536   19.8261 C   0  0  2  0  0  0
  -28.6712  -13.3285   20.9550 C   0  0  0  0  0  0
  -25.2443  -13.8201   20.5719 C   0  0  0  0  0  0
  -24.1770  -13.0418   20.9239 C   0  0  0  0  0  0
  -24.6396  -11.6909   20.8749 C   0  0  0  0  0  0
  -23.9075  -10.4281   21.0390 C   0  0  0  0  0  0
  -24.3615   -9.4196   21.9168 C   0  0  0  0  0  0
  -23.6292   -8.2233   22.0736 C   0  0  0  0  0  0
  -22.4276   -8.0260   21.3530 C   0  0  0  0  0  0
  -21.9907   -9.0235   20.4635 C   0  0  0  0  0  0
  -22.7238  -10.2119   20.3047 C   0  0  0  0  0  0
  -21.6863   -6.0718   22.5270 C   0  0  0  0  0  0
  -21.4021   -6.5623   23.8200 C   0  0  0  0  0  0
  -21.3679   -5.6773   24.9167 C   0  0  0  0  0  0
  -21.6048   -4.3033   24.7215 C   0  0  0  0  0  0
  -21.8821   -3.8129   23.4336 C   0  0  0  0  0  0
  -21.9194   -4.6947   22.3398 C   0  0  0  0  0  0
  -22.7786  -13.5180   21.1899 C   0  0  0  0  0  0
  -22.1662   -4.2126   21.0976 F   0  0  0  0  0  0
  -21.5636   -3.4531   25.7737 F   0  0  0  0  0  0
  -29.9250  -13.7792   20.3321 N   0  0  0  0  0  0
  -26.2867  -12.9448   20.3208 N   0  0  0  0  0  0
  -25.9331  -11.6573   20.5710 N   0  0  0  0  0  0
  -22.0454  -12.8168   22.0464 N   0  0  0  0  0  0
  -25.4078  -15.1935   20.4139 N   0  0  0  0  0  0
  -31.7156  -15.1261   20.2316 O   0  0  0  0  0  0
  -21.6645   -6.8855   21.4229 O   0  0  0  0  0  0
  -22.3474  -14.5495   20.6755 O   0  0  0  0  0  0
  -24.6511  -31.8366   23.1812 C   0  0  0  0  0  0
  -25.9252  -32.4655   23.8226 C   0  0  1  0  0  0
  -27.2309  -27.0676   20.1622 C   0  0  0  0  0  0
  -25.5976  -33.8460   24.2147 N   0  0  0  0  0  0
  -23.4592  -30.4526   21.5283 C   0  0  2  0  0  0
  -24.9129  -28.8633   20.1152 C   0  0  0  0  0  0
  -22.7609  -29.4508   22.4829 C   0  0  0  0  0  0
  -18.0316  -28.1398   22.8478 C   0  0  0  0  0  0
  -24.1494  -36.7230   23.2645 C   0  0  0  0  0  0
  -26.0210  -30.6875   21.3929 C   0  0  0  0  0  0
  -26.0938  -29.2908   20.7361 C   0  0  0  0  0  0
  -27.2535  -28.4138   20.7346 C   0  0  0  0  0  0
  -26.0199  -26.7587   19.5035 C   0  0  0  0  0  0
  -24.8929  -27.6121   19.4814 C   0  0  0  0  0  0
  -23.6922  -29.7749   20.1512 C   0  0  0  0  0  0
  -25.4130  -36.3004   24.0313 C   0  0  1  0  0  0
  -20.5935  -28.3729   23.1222 C   0  0  2  0  0  0
  -20.6797  -26.9425   22.5403 C   0  0  0  0  0  0
  -19.5768  -26.6379   21.5219 C   0  0  0  0  0  0
  -18.1951  -26.7936   22.1630 C   0  0  0  0  0  0
  -19.1576  -28.8883   23.2839 C   0  0  0  0  0  0
  -18.9490  -30.1482   23.8859 C   0  0  0  0  0  0
  -17.6485  -30.6590   24.0559 C   0  0  0  0  0  0
  -25.9087  -34.9382   23.5039 C   0  0  0  0  0  0
  -16.5376  -29.9080   23.6341 C   0  0  0  0  0  0
  -16.7303  -28.6503   23.0357 C   0  0  0  0  0  0
  -26.4543  -31.6545   25.0693 C   0  0  0  0  0  0
  -25.3712  -31.3771   26.1378 C   0  0  0  0  0  0
  -27.0436  -30.2930   24.6350 C   0  0  0  0  0  0
  -27.6052  -32.4332   25.7494 C   0  0  0  0  0  0
  -27.5567  -37.1782   24.8473 C   0  0  0  0  0  0
  -21.4293  -29.3043   22.3583 N   0  0  0  0  0  0
  -26.4287  -37.3723   23.9402 N   0  0  0  0  0  0
  -24.7304  -31.0151   22.0890 N   0  0  0  0  0  0
  -23.4218  -28.8059   23.3013 O   0  0  0  0  0  0
  -28.2795  -26.0498   20.1660 O   0  0  0  0  0  0
  -26.5669  -34.8897   22.4620 O   0  0  0  0  0  0
  -23.5615  -32.1266   23.6997 O   0  0  0  0  0  0
  -29.5943  -23.0197   18.8350 C   0  0  0  0  0  0
  -28.8397  -23.1536   19.9641 C   0  0  0  0  0  0
  -29.5859  -20.8272   19.6410 C   0  0  0  0  0  0
  -29.4669  -18.5697   18.2691 C   0  0  0  0  0  0
  -31.5081  -19.0162   19.7064 C   0  0  0  0  0  0
  -30.6342  -21.3557   17.3599 C   0  0  0  0  0  0
  -28.0048  -24.5118   20.4729 C   0  0  0  0  0  0
  -29.6283  -17.8348   20.6925 C   0  0  0  0  0  0
  -29.9635  -19.1309   19.6235 C   0  0  0  0  0  0
  -29.9656  -21.6915   18.6346 N   0  0  0  0  0  0
  -28.8820  -21.7630   20.4359 N   0  3  0  0  0  0
  -29.6510  -16.2323   20.4043 N   0  0  0  0  0  0
  -31.4745  -12.8436   19.1725 H   0  0  0  0  0  0
  -30.4607  -11.7303   20.0497 H   0  0  0  0  0  0
  -29.8591  -11.7223   17.6111 H   0  0  0  0  0  0
  -29.5919  -13.4473   17.6471 H   0  0  0  0  0  0
  -27.9776  -11.2719   19.0066 H   0  0  0  0  0  0
  -27.3913  -12.4105   17.8225 H   0  0  0  0  0  0
  -27.5666  -14.2457   19.3779 H   0  0  0  0  0  0
  -28.7947  -12.3645   21.4502 H   0  0  0  0  0  0
  -28.3548  -14.0327   21.7264 H   0  0  0  0  0  0
  -25.2754   -9.5680   22.4745 H   0  0  0  0  0  0
  -24.0008   -7.4621   22.7451 H   0  0  0  0  0  0
  -21.0836   -8.8747   19.8939 H   0  0  0  0  0  0
  -22.3677  -10.9653   19.6158 H   0  0  0  0  0  0
  -21.2019   -7.6130   23.9700 H   0  0  0  0  0  0
  -21.1504   -6.0508   25.9070 H   0  0  0  0  0  0
  -22.0588   -2.7590   23.2844 H   0  0  0  0  0  0
  -22.4106  -11.9848   22.4863 H   0  0  0  0  0  0
  -21.1057  -13.1160   22.2663 H   0  0  0  0  0  0
  -24.6296  -15.8355   20.5199 H   0  0  0  0  0  0
  -26.2374  -15.6382   20.0466 H   0  0  0  0  0  0
  -26.7314  -32.5235   23.0945 H   0  0  0  0  0  0
  -25.0105  -33.9555   25.0286 H   0  0  0  0  0  0
  -22.7659  -31.2800   21.3662 H   0  0  0  0  0  0
  -23.3756  -35.9563   23.3316 H   0  0  0  0  0  0
  -24.3565  -36.8850   22.2055 H   0  0  0  0  0  0
  -23.7256  -37.6434   23.6678 H   0  0  0  0  0  0
  -26.1888  -31.4392   20.6200 H   0  0  0  0  0  0
  -26.8855  -30.7365   22.0427 H   0  0  0  0  0  0
  -28.1550  -28.7460   21.2294 H   0  0  0  0  0  0
  -25.9221  -25.8085   18.9997 H   0  0  0  0  0  0
  -23.9968  -27.2802   18.9754 H   0  0  0  0  0  0
  -23.8390  -30.5458   19.3944 H   0  0  0  0  0  0
  -22.8058  -29.2210   19.8363 H   0  0  0  0  0  0
  -25.1329  -36.1816   25.0807 H   0  0  0  0  0  0
  -21.0035  -28.3325   24.1343 H   0  0  0  0  0  0
  -20.5695  -26.2345   23.3631 H   0  0  0  0  0  0
  -21.6659  -26.7419   22.1199 H   0  0  0  0  0  0
  -19.6923  -25.6284   21.1260 H   0  0  0  0  0  0
  -19.6698  -27.3178   20.6744 H   0  0  0  0  0  0
  -17.4219  -26.6690   21.4031 H   0  0  0  0  0  0
  -18.0339  -26.0084   22.9033 H   0  0  0  0  0  0
  -19.7970  -30.7314   24.2202 H   0  0  0  0  0  0
  -17.5039  -31.6267   24.5170 H   0  0  0  0  0  0
  -15.5374  -30.2967   23.7689 H   0  0  0  0  0  0
  -15.8708  -28.0812   22.7081 H   0  0  0  0  0  0
  -24.5898  -30.7108   25.7700 H   0  0  0  0  0  0
  -24.8896  -32.2970   26.4704 H   0  0  0  0  0  0
  -25.7975  -30.9006   27.0216 H   0  0  0  0  0  0
  -26.3088  -29.6619   24.1342 H   0  0  0  0  0  0
  -27.4002  -29.7263   25.4960 H   0  0  0  0  0  0
  -27.9007  -30.4136   23.9722 H   0  0  0  0  0  0
  -27.2625  -33.3662   26.1983 H   0  0  0  0  0  0
  -28.3915  -32.6851   25.0365 H   0  0  0  0  0  0
  -28.0666  -31.8519   26.5488 H   0  0  0  0  0  0
  -28.2602  -38.0059   24.7483 H   0  0  0  0  0  0
  -28.1047  -36.2588   24.6356 H   0  0  0  0  0  0
  -27.2275  -37.1492   25.8874 H   0  0  0  0  0  0
  -20.9521  -29.8752   21.6742 H   0  0  0  0  0  0
  -26.0147  -38.2795   24.1382 H   0  0  0  0  0  0
  -29.8322  -23.7896   18.1134 H   0  0  0  0  0  0
  -29.5342  -17.4857   18.2000 H   0  0  0  0  0  0
  -30.0526  -18.9106   17.4238 H   0  0  0  0  0  0
  -28.4257  -18.8415   18.0939 H   0  0  0  0  0  0
  -31.8356  -17.9803   19.6158 H   0  0  0  0  0  0
  -31.8633  -19.3754   20.6718 H   0  0  0  0  0  0
  -32.0781  -19.5582   18.9672 H   0  0  0  0  0  0
  -29.9037  -20.9343   16.6714 H   0  0  0  0  0  0
  -31.4772  -20.6904   17.4674 H   0  0  0  0  0  0
  -31.0260  -22.2623   16.8993 H   0  0  0  0  0  0
  -27.9837  -24.4534   21.5609 H   0  0  0  0  0  0
  -26.9736  -24.3143   20.1890 H   0  0  0  0  0  0
  -28.6054  -18.0119   21.0254 H   0  0  0  0  0  0
  -30.2077  -17.9786   21.6056 H   0  0  0  0  0  0
  -28.3922  -21.4784   21.2752 H   0  0  0  0  0  0
  -28.6985  -15.9124   20.3170 H   0  0  0  0  0  0
  1 25  1  0  0  0
  1 30  2  0  0  0
  1 82  1  0  0  0
  2  3  1  0  0  0
  2 25  1  0  0  0
  2 83  1  0  0  0
  2 84  1  0  0  0
  3  4  1  0  0  0
  3 85  1  0  0  0
  3 86  1  0  0  0
  4  5  1  0  0  0
  4 87  1  0  0  0
  4 88  1  0  0  0
  5  6  1  0  0  0
  5 26  1  0  0  0
  5 89  1  0  0  0
  6 25  1  0  0  0
  6 90  1  0  0  0
  6 91  1  0  0  0
  7  8  2  0  0  0
  7 26  1  0  0  0
  7 29  1  0  0  0
  8  9  1  0  0  0
  8 22  1  0  0  0
  9 10  1  0  0  0
  9 27  2  0  0  0
 10 11  2  0  0  0
 10 15  1  0  0  0
 11 12  1  0  0  0
 11 92  1  0  0  0
 12 13  2  0  0  0
 12 93  1  0  0  0
 13 14  1  0  0  0
 13 31  1  0  0  0
 14 15  2  0  0  0
 14 94  1  0  0  0
 15 95  1  0  0  0
 16 17  2  0  0  0
 16 21  1  0  0  0
 16 31  1  0  0  0
 17 18  1  0  0  0
 17 96  1  0  0  0
 18 19  2  0  0  0
 18 97  1  0  0  0
 19 20  1  0  0  0
 19 24  1  0  0  0
 20 21  2  0  0  0
 20 98  1  0  0  0
 21 23  1  0  0  0
 22 28  1  0  0  0
 22 32  2  0  0  0
 26 27  1  0  0  0
 28 99  1  0  0  0
 28100  1  0  0  0
 29101  1  0  0  0
 29102  1  0  0  0
 33 34  1  0  0  0
 33 66  1  0  0  0
 33 70  2  0  0  0
 34 36  1  0  0  0
 34 59  1  0  0  0
 34103  1  0  0  0
 35 44  2  0  0  0
 35 45  1  0  0  0
 35 68  1  0  0  0
 36 56  1  0  0  0
 36104  1  0  0  0
 37 39  1  0  0  0
 37 47  1  0  0  0
 37 66  1  0  0  0
 37105  1  0  0  0
 38 43  2  0  0  0
 38 46  1  0  0  0
 38 47  1  0  0  0
 39 64  1  0  0  0
 39 67  2  0  0  0
 40 52  1  0  0  0
 40 53  2  0  0  0
 40 58  1  0  0  0
 41106  1  0  0  0
 41107  1  0  0  0
 41108  1  0  0  0
 41 48  1  0  0  0
 42 43  1  0  0  0
 42 66  1  0  0  0
 42109  1  0  0  0
 42110  1  0  0  0
 43 44  1  0  0  0
 44111  1  0  0  0
 45 46  2  0  0  0
 45112  1  0  0  0
 46113  1  0  0  0
 47114  1  0  0  0
 47115  1  0  0  0
 48 56  1  0  0  0
 48 65  1  0  0  0
 48116  1  0  0  0
 49 50  1  0  0  0
 49 53  1  0  0  0
 49 64  1  0  0  0
 49117  1  0  0  0
 50 51  1  0  0  0
 50118  1  0  0  0
 50119  1  0  0  0
 51 52  1  0  0  0
 51120  1  0  0  0
 51121  1  0  0  0
 52122  1  0  0  0
 52123  1  0  0  0
 53 54  1  0  0  0
 54 55  2  0  0  0
 54124  1  0  0  0
 55 57  1  0  0  0
 55125  1  0  0  0
 56 69  2  0  0  0
 57 58  2  0  0  0
 57126  1  0  0  0
 58127  1  0  0  0
 59 60  1  0  0  0
 59 61  1  0  0  0
 59 62  1  0  0  0
 60128  1  0  0  0
 60129  1  0  0  0
 60130  1  0  0  0
 61131  1  0  0  0
 61132  1  0  0  0
 61133  1  0  0  0
 62134  1  0  0  0
 62135  1  0  0  0
 62136  1  0  0  0
 63 65  1  0  0  0
 63137  1  0  0  0
 63138  1  0  0  0
 63139  1  0  0  0
 64140  1  0  0  0
 65141  1  0  0  0
 68 77  1  0  0  0
 71 72  2  0  0  0
 71 80  1  0  0  0
 71142  1  0  0  0
 72 77  1  0  0  0
 72 81  1  0  0  0
 73 79  1  0  0  0
 73 80  1  0  0  0
 73 81  2  0  0  0
 74143  1  0  0  0
 74144  1  0  0  0
 74145  1  0  0  0
 74 79  1  0  0  0
 75 79  1  0  0  0
 75146  1  0  0  0
 75147  1  0  0  0
 75148  1  0  0  0
 76 80  1  0  0  0
 76149  1  0  0  0
 76150  1  0  0  0
 76151  1  0  0  0
 77152  1  0  0  0
 77153  1  0  0  0
 78 79  1  0  0  0
 78 82  1  0  0  0
 78154  1  0  0  0
 78155  1  0  0  0
 81156  1  0  0  0
 82157  1  0  0  0
M  CHG  1  81   1
M  ISO  4   1 100  68 101  77 101  82 100
M  END
> <chiral flag>
0

> <version>
0

> <s_m_source_file>
/data/baiqing/PycharmProjects/Reinvent-master-3.2/result/LINK_invent/BTK/process_docking_weight1_custom_sum_contain_oxygen_bond_distance_aromatic_linkinvent_7_9_3/rearranged_h_0061.sdf

> <i_m_source_file_index>
19

> <r_mmod_Potential_Energy-OPLS-2005>
739.7900390625

> <r_mmod_Stretch_Energy-OPLS-2005>
384.318634033203

> <r_mmod_Bend_Energy-OPLS-2005>
389.197814941406

> <r_mmod_Torsional_Energy-OPLS-2005>
268.082336425781

> <r_mmod_Improper_Torsional_Energy-OPLS-2005>
5.52747440338135

> <r_mmod_Van_der_Waal_Energy-OPLS-2005>
125.305961608887

> <r_mmod_Electrostatic_Energy-OPLS-2005>
-275.056518554688

> <r_mmod_Solvation_Energy-OPLS-2005>
-428.720336914062

> <b_mmod_Minimization_Converged-OPLS-2005>
0

> <r_mmod_RMS_Derivative-OPLS-2005>
2.19452381134033

$$$$
19
                    3D
 Structure written by MMmdl.
174182  0  0  1  0            999 V2000
  -30.6695  -14.7175   20.4685 C   0  0  0  0  0  0
  -30.4163  -12.4307   19.4818 C   0  0  0  0  0  0
  -29.5054  -12.5007   18.2383 C   0  0  0  0  0  0
  -28.0305  -12.3324   18.6460 C   0  0  0  0  0  0
  -27.6367  -13.2406   19.8399 C   0  0  2  0  0  0
  -28.6797  -13.1947   20.9756 C   0  0  0  0  0  0
  -25.2488  -13.8229   20.5722 C   0  0  0  0  0  0
  -24.1786  -13.0448   20.9207 C   0  0  0  0  0  0
  -24.6385  -11.6929   20.8720 C   0  0  0  0  0  0
  -23.9068  -10.4295   21.0384 C   0  0  0  0  0  0
  -24.3615   -9.4210   21.9175 C   0  0  0  0  0  0
  -23.6294   -8.2252   22.0752 C   0  0  0  0  0  0
  -22.4277   -8.0287   21.3536 C   0  0  0  0  0  0
  -21.9914   -9.0255   20.4645 C   0  0  0  0  0  0
  -22.7240  -10.2130   20.3048 C   0  0  0  0  0  0
  -21.6854   -6.0734   22.5274 C   0  0  0  0  0  0
  -21.4010   -6.5636   23.8206 C   0  0  0  0  0  0
  -21.3665   -5.6794   24.9176 C   0  0  0  0  0  0
  -21.6044   -4.3058   24.7227 C   0  0  0  0  0  0
  -21.8815   -3.8146   23.4349 C   0  0  0  0  0  0
  -21.9195   -4.6958   22.3400 C   0  0  0  0  0  0
  -22.7808  -13.5214   21.1887 C   0  0  0  0  0  0
  -22.1671   -4.2153   21.0978 F   0  0  0  0  0  0
  -21.5633   -3.4537   25.7735 F   0  0  0  0  0  0
  -29.9928  -13.5152   20.4027 N   0  0  0  0  0  0
  -26.2916  -12.9452   20.3262 N   0  0  0  0  0  0
  -25.9314  -11.6579   20.5710 N   0  0  0  0  0  0
  -22.0459  -12.8184   22.0428 N   0  0  0  0  0  0
  -25.4209  -15.1959   20.4207 N   0  0  0  0  0  0
  -31.8551  -14.6963   20.1311 O   0  0  0  0  0  0
  -21.6636   -6.8880   21.4240 O   0  0  0  0  0  0
  -22.3489  -14.5529   20.6754 O   0  0  0  0  0  0
  -24.6278  -31.8581   23.2017 C   0  0  0  0  0  0
  -25.9116  -32.4770   23.8351 C   0  0  1  0  0  0
  -27.2132  -27.2831   20.1128 C   0  0  0  0  0  0
  -25.5930  -33.8568   24.2275 N   0  0  0  0  0  0
  -23.4221  -30.4819   21.5455 C   0  0  2  0  0  0
  -24.8645  -28.9305   20.1157 C   0  0  0  0  0  0
  -22.7488  -29.4619   22.4942 C   0  0  0  0  0  0
  -18.0287  -28.1408   22.8468 C   0  0  0  0  0  0
  -24.1484  -36.7278   23.2630 C   0  0  0  0  0  0
  -25.9641  -30.7784   21.3727 C   0  0  0  0  0  0
  -26.0343  -29.3992   20.7217 C   0  0  0  0  0  0
  -27.2093  -28.5867   20.7126 C   0  0  0  0  0  0
  -26.0078  -26.8659   19.5039 C   0  0  0  0  0  0
  -24.8512  -27.6701   19.5021 C   0  0  0  0  0  0
  -23.6381  -29.8192   20.1610 C   0  0  0  0  0  0
  -25.4110  -36.3068   24.0323 C   0  0  1  0  0  0
  -20.5878  -28.3698   23.1290 C   0  0  2  0  0  0
  -20.6772  -26.9422   22.5421 C   0  0  0  0  0  0
  -19.5754  -26.6389   21.5205 C   0  0  0  0  0  0
  -18.1925  -26.7944   22.1606 C   0  0  0  0  0  0
  -19.1535  -28.8866   23.2869 C   0  0  0  0  0  0
  -18.9466  -30.1447   23.8903 C   0  0  0  0  0  0
  -17.6476  -30.6595   24.0562 C   0  0  0  0  0  0
  -25.9058  -34.9442   23.5095 C   0  0  0  0  0  0
  -16.5365  -29.9105   23.6352 C   0  0  0  0  0  0
  -16.7275  -28.6525   23.0351 C   0  0  0  0  0  0
  -26.4513  -31.6586   25.0725 C   0  0  0  0  0  0
  -25.3740  -31.3690   26.1450 C   0  0  0  0  0  0
  -27.0356  -30.3030   24.6149 C   0  0  0  0  0  0
  -27.6103  -32.4294   25.7492 C   0  0  0  0  0  0
  -27.5567  -37.1779   24.8457 C   0  0  0  0  0  0
  -21.4206  -29.3042   22.3681 N   0  0  0  0  0  0
  -26.4275  -37.3772   23.9416 N   0  0  0  0  0  0
  -24.6910  -31.0564   22.0973 N   0  0  0  0  0  0
  -23.4190  -28.8148   23.3023 O   0  0  0  0  0  0
  -28.3521  -26.4539   20.1645 O   0  0  0  0  0  0
  -26.5623  -34.8906   22.4661 O   0  0  0  0  0  0
  -23.5442  -32.1398   23.7343 O   0  0  0  0  0  0
  -32.1308  -18.6299   19.3370 C   0  0  0  0  0  0
  -30.1695  -18.7757   20.0313 C   0  0  0  0  0  0
  -29.9881  -16.3185   22.3666 C   0  0  0  0  0  0
  -28.0728  -21.1469   22.1695 C   0  0  0  0  0  0
  -33.8933  -21.4771   18.9292 C   0  0  0  0  0  0
  -34.1555  -20.0362   20.9667 C   0  0  0  0  0  0
  -35.7909  -19.8616   19.0797 C   0  0  0  0  0  0
  -33.4472  -18.9894   18.7056 C   0  0  0  0  0  0
  -28.8600  -19.5364   20.3342 C   0  0  0  0  0  0
  -28.5727  -23.8061   20.5967 C   0  0  0  0  0  0
  -28.6649  -22.3195   19.9716 C   0  0  0  0  0  0
  -28.4021  -25.0642   19.6192 C   0  0  0  0  0  0
  -29.9968  -16.1570   20.8358 C   0  0  1  0  0  0
  -28.9666  -21.0498   20.9198 C   0  0  1  0  0  0
  -34.3044  -20.0761   19.4304 C   0  0  0  0  0  0
  -31.0843  -19.4854   19.3735 N   0  0  0  0  0  0
  -31.8991  -17.4392   19.8745 N   0  0  0  0  0  0
  -30.5795  -17.4532   20.2364 N   0  0  0  0  0  0
  -31.4630  -12.5059   19.1814 H   0  0  0  0  0  0
  -30.3216  -11.4603   19.9729 H   0  0  0  0  0  0
  -29.7834  -11.7291   17.5192 H   0  0  0  0  0  0
  -29.6445  -13.4587   17.7344 H   0  0  0  0  0  0
  -27.8802  -11.2862   18.9132 H   0  0  0  0  0  0
  -27.3771  -12.5245   17.7950 H   0  0  0  0  0  0
  -27.6261  -14.2586   19.4502 H   0  0  0  0  0  0
  -28.6990  -12.2080   21.4405 H   0  0  0  0  0  0
  -28.4077  -13.8992   21.7613 H   0  0  0  0  0  0
  -25.2749   -9.5691   22.4747 H   0  0  0  0  0  0
  -23.9995   -7.4642   22.7461 H   0  0  0  0  0  0
  -21.0854   -8.8767   19.8945 H   0  0  0  0  0  0
  -22.3695  -10.9666   19.6150 H   0  0  0  0  0  0
  -21.1995   -7.6141   23.9708 H   0  0  0  0  0  0
  -21.1501   -6.0528   25.9077 H   0  0  0  0  0  0
  -22.0589   -2.7610   23.2847 H   0  0  0  0  0  0
  -22.4074  -11.9826   22.4788 H   0  0  0  0  0  0
  -21.1083  -13.1196   22.2636 H   0  0  0  0  0  0
  -24.6626  -15.8568   20.5520 H   0  0  0  0  0  0
  -26.2833  -15.6350   20.1258 H   0  0  0  0  0  0
  -26.7138  -32.5438   23.1054 H   0  0  0  0  0  0
  -25.0101  -33.9696   25.0436 H   0  0  0  0  0  0
  -22.7194  -31.3033   21.3980 H   0  0  0  0  0  0
  -23.3749  -35.9604   23.3296 H   0  0  0  0  0  0
  -24.3562  -36.8928   22.2043 H   0  0  0  0  0  0
  -23.7245  -37.6472   23.6682 H   0  0  0  0  0  0
  -26.0796  -31.5287   20.5884 H   0  0  0  0  0  0
  -26.8508  -30.8420   21.9914 H   0  0  0  0  0  0
  -28.1089  -28.9395   21.1954 H   0  0  0  0  0  0
  -25.8972  -25.9017   19.0382 H   0  0  0  0  0  0
  -23.9450  -27.3028   19.0409 H   0  0  0  0  0  0
  -23.7607  -30.5944   19.4030 H   0  0  0  0  0  0
  -22.7567  -29.2520   19.8603 H   0  0  0  0  0  0
  -25.1272  -36.1910   25.0811 H   0  0  0  0  0  0
  -20.9942  -28.3273   24.1420 H   0  0  0  0  0  0
  -20.5665  -26.2312   23.3625 H   0  0  0  0  0  0
  -21.6652  -26.7468   22.1204 H   0  0  0  0  0  0
  -19.6945  -25.6287   21.1258 H   0  0  0  0  0  0
  -19.6712  -27.3183   20.6710 H   0  0  0  0  0  0
  -17.4204  -26.6687   21.4000 H   0  0  0  0  0  0
  -18.0332  -26.0095   22.9003 H   0  0  0  0  0  0
  -19.7938  -30.7249   24.2310 H   0  0  0  0  0  0
  -17.5036  -31.6288   24.5118 H   0  0  0  0  0  0
  -15.5365  -30.2990   23.7691 H   0  0  0  0  0  0
  -15.8682  -28.0850   22.7074 H   0  0  0  0  0  0
  -24.6008  -30.6937   25.7783 H   0  0  0  0  0  0
  -24.8796  -32.2806   26.4808 H   0  0  0  0  0  0
  -25.8063  -30.8961   27.0276 H   0  0  0  0  0  0
  -26.2932  -29.6772   24.1193 H   0  0  0  0  0  0
  -27.4108  -29.7290   25.4623 H   0  0  0  0  0  0
  -27.8765  -30.4337   23.9338 H   0  0  0  0  0  0
  -27.2810  -33.3657   26.2004 H   0  0  0  0  0  0
  -28.3965  -32.6740   25.0336 H   0  0  0  0  0  0
  -28.0711  -31.8437   26.5454 H   0  0  0  0  0  0
  -28.2551  -38.0099   24.7534 H   0  0  0  0  0  0
  -28.1102  -36.2632   24.6263 H   0  0  0  0  0  0
  -27.2285  -37.1402   25.8856 H   0  0  0  0  0  0
  -20.9412  -29.8801   21.6908 H   0  0  0  0  0  0
  -26.0153  -38.2833   24.1481 H   0  0  0  0  0  0
  -29.3333  -17.1361   22.6707 H   0  0  0  0  0  0
  -30.9882  -16.5411   22.7380 H   0  0  0  0  0  0
  -29.6460  -15.4198   22.8778 H   0  0  0  0  0  0
  -28.2487  -20.3166   22.8556 H   0  0  0  0  0  0
  -27.0162  -21.1350   21.8993 H   0  0  0  0  0  0
  -28.2622  -22.0613   22.7315 H   0  0  0  0  0  0
  -34.5178  -22.2616   19.3594 H   0  0  0  0  0  0
  -32.8588  -21.7065   19.1894 H   0  0  0  0  0  0
  -33.9784  -21.5539   17.8439 H   0  0  0  0  0  0
  -34.8261  -20.7496   21.4499 H   0  0  0  0  0  0
  -34.3866  -19.0477   21.3642 H   0  0  0  0  0  0
  -33.1431  -20.2890   21.2841 H   0  0  0  0  0  0
  -36.4258  -20.6214   19.5377 H   0  0  0  0  0  0
  -35.9566  -19.9104   18.0025 H   0  0  0  0  0  0
  -36.1505  -18.8918   19.4242 H   0  0  0  0  0  0
  -33.2714  -19.2730   17.6662 H   0  0  0  0  0  0
  -34.0272  -18.0676   18.6449 H   0  0  0  0  0  0
  -28.2876  -18.9076   21.0149 H   0  0  0  0  0  0
  -28.2689  -19.5547   19.4178 H   0  0  0  0  0  0
  -29.4621  -23.9722   21.2046 H   0  0  0  0  0  0
  -27.7381  -23.8330   21.2969 H   0  0  0  0  0  0
  -29.4310  -22.3360   19.1942 H   0  0  0  0  0  0
  -27.7290  -22.1267   19.4481 H   0  0  0  0  0  0
  -27.5981  -24.8478   18.9245 H   0  0  0  0  0  0
  -29.2803  -25.0595   18.9721 H   0  0  0  0  0  0
  -28.9624  -16.1056   20.4950 H   0  0  0  0  0  0
  -29.9879  -21.1722   21.2832 H   0  0  0  0  0  0
  1 25  1  0  0  0
  1 30  2  0  0  0
  1 83  1  0  0  0
  2  3  1  0  0  0
  2 25  1  0  0  0
  2 89  1  0  0  0
  2 90  1  0  0  0
  3  4  1  0  0  0
  3 91  1  0  0  0
  3 92  1  0  0  0
  4  5  1  0  0  0
  4 93  1  0  0  0
  4 94  1  0  0  0
  5  6  1  0  0  0
  5 26  1  0  0  0
  5 95  1  0  0  0
  6 25  1  0  0  0
  6 96  1  0  0  0
  6 97  1  0  0  0
  7  8  2  0  0  0
  7 26  1  0  0  0
  7 29  1  0  0  0
  8  9  1  0  0  0
  8 22  1  0  0  0
  9 10  1  0  0  0
  9 27  2  0  0  0
 10 11  2  0  0  0
 10 15  1  0  0  0
 11 12  1  0  0  0
 11 98  1  0  0  0
 12 13  2  0  0  0
 12 99  1  0  0  0
 13 14  1  0  0  0
 13 31  1  0  0  0
 14 15  2  0  0  0
 14100  1  0  0  0
 15101  1  0  0  0
 16 17  2  0  0  0
 16 21  1  0  0  0
 16 31  1  0  0  0
 17 18  1  0  0  0
 17102  1  0  0  0
 18 19  2  0  0  0
 18103  1  0  0  0
 19 20  1  0  0  0
 19 24  1  0  0  0
 20 21  2  0  0  0
 20104  1  0  0  0
 21 23  1  0  0  0
 22 28  1  0  0  0
 22 32  2  0  0  0
 26 27  1  0  0  0
 28105  1  0  0  0
 28106  1  0  0  0
 29107  1  0  0  0
 29108  1  0  0  0
 33 34  1  0  0  0
 33 66  1  0  0  0
 33 70  2  0  0  0
 34 36  1  0  0  0
 34 59  1  0  0  0
 34109  1  0  0  0
 35 44  2  0  0  0
 35 45  1  0  0  0
 35 68  1  0  0  0
 36 56  1  0  0  0
 36110  1  0  0  0
 37 39  1  0  0  0
 37 47  1  0  0  0
 37 66  1  0  0  0
 37111  1  0  0  0
 38 43  2  0  0  0
 38 46  1  0  0  0
 38 47  1  0  0  0
 39 64  1  0  0  0
 39 67  2  0  0  0
 40 52  1  0  0  0
 40 53  2  0  0  0
 40 58  1  0  0  0
 41112  1  0  0  0
 41113  1  0  0  0
 41114  1  0  0  0
 41 48  1  0  0  0
 42 43  1  0  0  0
 42 66  1  0  0  0
 42115  1  0  0  0
 42116  1  0  0  0
 43 44  1  0  0  0
 44117  1  0  0  0
 45 46  2  0  0  0
 45118  1  0  0  0
 46119  1  0  0  0
 47120  1  0  0  0
 47121  1  0  0  0
 48 56  1  0  0  0
 48 65  1  0  0  0
 48122  1  0  0  0
 49 50  1  0  0  0
 49 53  1  0  0  0
 49 64  1  0  0  0
 49123  1  0  0  0
 50 51  1  0  0  0
 50124  1  0  0  0
 50125  1  0  0  0
 51 52  1  0  0  0
 51126  1  0  0  0
 51127  1  0  0  0
 52128  1  0  0  0
 52129  1  0  0  0
 53 54  1  0  0  0
 54 55  2  0  0  0
 54130  1  0  0  0
 55 57  1  0  0  0
 55131  1  0  0  0
 56 69  2  0  0  0
 57 58  2  0  0  0
 57132  1  0  0  0
 58133  1  0  0  0
 59 60  1  0  0  0
 59 61  1  0  0  0
 59 62  1  0  0  0
 60134  1  0  0  0
 60135  1  0  0  0
 60136  1  0  0  0
 61137  1  0  0  0
 61138  1  0  0  0
 61139  1  0  0  0
 62140  1  0  0  0
 62141  1  0  0  0
 62142  1  0  0  0
 63 65  1  0  0  0
 63143  1  0  0  0
 63144  1  0  0  0
 63145  1  0  0  0
 64146  1  0  0  0
 65147  1  0  0  0
 68 82  1  0  0  0
 71 78  1  0  0  0
 71 86  1  0  0  0
 71 87  2  0  0  0
 72 79  1  0  0  0
 72 86  2  0  0  0
 72 88  1  0  0  0
 73148  1  0  0  0
 73149  1  0  0  0
 73150  1  0  0  0
 73 83  1  0  0  0
 74151  1  0  0  0
 74152  1  0  0  0
 74153  1  0  0  0
 74 84  1  0  0  0
 75154  1  0  0  0
 75155  1  0  0  0
 75156  1  0  0  0
 75 85  1  0  0  0
 76 85  1  0  0  0
 76157  1  0  0  0
 76158  1  0  0  0
 76159  1  0  0  0
 77 85  1  0  0  0
 77160  1  0  0  0
 77161  1  0  0  0
 77162  1  0  0  0
 78 85  1  0  0  0
 78163  1  0  0  0
 78164  1  0  0  0
 79 84  1  0  0  0
 79165  1  0  0  0
 79166  1  0  0  0
 80 81  1  0  0  0
 80 82  1  0  0  0
 80167  1  0  0  0
 80168  1  0  0  0
 81 84  1  0  0  0
 81169  1  0  0  0
 81170  1  0  0  0
 82171  1  0  0  0
 82172  1  0  0  0
 83 88  1  0  0  0
 83173  1  0  0  0
 84174  1  0  0  0
 87 88  1  0  0  0
M  ISO  4   1 100  68 101  82 101  83 100
M  END
> <chiral flag>
0

> <version>
0

> <s_m_source_file>
/data/baiqing/PycharmProjects/Reinvent-master-3.2/result/LINK_invent/BTK/process_docking_weight1_custom_sum_contain_oxygen_bond_distance_aromatic_linkinvent_7_9_3/rearranged_h_0061.sdf

> <i_m_source_file_index>
20

> <r_mmod_Potential_Energy-OPLS-2005>
316.065734863281

> <r_mmod_Stretch_Energy-OPLS-2005>
126.478240966797

> <r_mmod_Bend_Energy-OPLS-2005>
209.183975219727

> <r_mmod_Torsional_Energy-OPLS-2005>
202.465576171875

> <r_mmod_Improper_Torsional_Energy-OPLS-2005>
2.74089694023132

> <r_mmod_Van_der_Waal_Energy-OPLS-2005>
121.468437194824

> <r_mmod_Electrostatic_Energy-OPLS-2005>
-207.001571655273

> <r_mmod_Solvation_Energy-OPLS-2005>
-209.665924072266

> <b_mmod_Minimization_Converged-OPLS-2005>
0

> <r_mmod_RMS_Derivative-OPLS-2005>
2.87707018852234

$$$$
20
                    3D
 Structure written by MMmdl.
148156  0  0  1  0            999 V2000
  -30.4578  -15.2209   20.3783 C   0  0  0  0  0  0
  -30.4366  -12.7777   19.5198 C   0  0  0  0  0  0
  -29.5308  -12.5626   18.2822 C   0  0  0  0  0  0
  -28.0785  -12.2946   18.7141 C   0  0  0  0  0  0
  -27.6127  -13.2694   19.8245 C   0  0  2  0  0  0
  -28.6478  -13.4282   20.9576 C   0  0  0  0  0  0
  -25.2400  -13.8231   20.5749 C   0  0  0  0  0  0
  -24.1749  -13.0433   20.9271 C   0  0  0  0  0  0
  -24.6397  -11.6931   20.8781 C   0  0  0  0  0  0
  -23.9097  -10.4293   21.0422 C   0  0  0  0  0  0
  -24.3643   -9.4207   21.9200 C   0  0  0  0  0  0
  -23.6312   -8.2241   22.0762 C   0  0  0  0  0  0
  -22.4290   -8.0286   21.3552 C   0  0  0  0  0  0
  -21.9937   -9.0265   20.4653 C   0  0  0  0  0  0
  -22.7273  -10.2141   20.3064 C   0  0  0  0  0  0
  -21.6850   -6.0754   22.5292 C   0  0  0  0  0  0
  -21.4014   -6.5659   23.8228 C   0  0  0  0  0  0
  -21.3650   -5.6805   24.9187 C   0  0  0  0  0  0
  -21.6033   -4.3067   24.7232 C   0  0  0  0  0  0
  -21.8814   -3.8164   23.4353 C   0  0  0  0  0  0
  -21.9195   -4.6983   22.3415 C   0  0  0  0  0  0
  -22.7770  -13.5194   21.1911 C   0  0  0  0  0  0
  -22.1664   -4.2173   21.0989 F   0  0  0  0  0  0
  -21.5618   -3.4547   25.7742 F   0  0  0  0  0  0
  -29.8828  -13.9229   20.3292 N   0  0  0  0  0  0
  -26.2820  -12.9494   20.3226 N   0  0  0  0  0  0
  -25.9329  -11.6604   20.5744 N   0  0  0  0  0  0
  -22.0420  -12.8180   22.0457 N   0  0  0  0  0  0
  -25.4044  -15.1960   20.4177 N   0  0  0  0  0  0
  -31.6796  -15.2181   20.1747 O   0  0  0  0  0  0
  -21.6638   -6.8895   21.4250 O   0  0  0  0  0  0
  -22.3458  -14.5501   20.6752 O   0  0  0  0  0  0
  -24.6612  -31.8254   23.1715 C   0  0  0  0  0  0
  -25.9302  -32.4599   23.8168 C   0  0  1  0  0  0
  -27.2114  -26.9429   20.1740 C   0  0  0  0  0  0
  -25.5974  -33.8413   24.2075 N   0  0  0  0  0  0
  -23.4751  -30.4401   21.5210 C   0  0  2  0  0  0
  -24.9265  -28.8344   20.1105 C   0  0  0  0  0  0
  -22.7656  -29.4466   22.4772 C   0  0  0  0  0  0
  -18.0323  -28.1423   22.8484 C   0  0  0  0  0  0
  -24.1490  -36.7190   23.2649 C   0  0  0  0  0  0
  -26.0451  -30.6365   21.4007 C   0  0  0  0  0  0
  -26.1120  -29.2295   20.7422 C   0  0  0  0  0  0
  -27.2502  -28.3055   20.7505 C   0  0  0  0  0  0
  -25.9944  -26.6998   19.4957 C   0  0  0  0  0  0
  -24.8919  -27.5879   19.4690 C   0  0  0  0  0  0
  -23.7125  -29.7602   20.1465 C   0  0  0  0  0  0
  -25.4134  -36.2969   24.0309 C   0  0  1  0  0  0
  -20.5950  -28.3763   23.1198 C   0  0  2  0  0  0
  -20.6811  -26.9443   22.5407 C   0  0  0  0  0  0
  -19.5779  -26.6390   21.5227 C   0  0  0  0  0  0
  -18.1954  -26.7962   22.1635 C   0  0  0  0  0  0
  -19.1587  -28.8915   23.2830 C   0  0  0  0  0  0
  -18.9501  -30.1503   23.8860 C   0  0  0  0  0  0
  -17.6496  -30.6616   24.0572 C   0  0  0  0  0  0
  -25.9096  -34.9355   23.5011 C   0  0  0  0  0  0
  -16.5380  -29.9110   23.6360 C   0  0  0  0  0  0
  -16.7307  -28.6532   23.0377 C   0  0  0  0  0  0
  -26.4550  -31.6542   25.0695 C   0  0  0  0  0  0
  -25.3677  -31.3806   26.1354 C   0  0  0  0  0  0
  -27.0446  -30.2908   24.6428 C   0  0  0  0  0  0
  -27.6038  -32.4360   25.7487 C   0  0  0  0  0  0
  -27.5566  -37.1749   24.8476 C   0  0  0  0  0  0
  -21.4328  -29.3051   22.3534 N   0  0  0  0  0  0
  -26.4272  -37.3706   23.9424 N   0  0  0  0  0  0
  -24.7489  -30.9926   22.0845 N   0  0  0  0  0  0
  -23.4214  -28.8026   23.3004 O   0  0  0  0  0  0
  -28.1970  -25.8254   20.2485 O   0  0  0  0  0  0
  -26.5703  -34.8897   22.4601 O   0  0  0  0  0  0
  -23.5685  -32.1212   23.6805 O   0  0  0  0  0  0
  -28.3691  -21.6978   21.2758 C   0  0  0  0  0  0
  -28.5774  -22.6792   20.2175 C   0  0  0  0  0  0
  -29.2348  -21.8774   19.1950 C   0  0  0  0  0  0
  -29.3495  -19.6422   20.2976 C   0  0  0  0  0  0
  -29.5669  -22.5071   17.8568 C   0  0  0  0  0  0
  -27.8054  -24.2452   20.0637 C   0  0  0  0  0  0
  -30.1313  -18.0880   20.4204 C   0  0  0  0  0  0
  -28.7455  -20.3232   21.3210 N   0  0  0  0  0  0
  -29.5982  -20.5036   19.2597 N   0  0  0  0  0  0
  -29.7126  -16.4905   20.4525 N   0  0  0  0  0  0
  -31.4578  -12.9738   19.1892 H   0  0  0  0  0  0
  -30.4939  -11.8677   20.1193 H   0  0  0  0  0  0
  -29.9015  -11.7334   17.6779 H   0  0  0  0  0  0
  -29.5664  -13.4476   17.6451 H   0  0  0  0  0  0
  -28.0333  -11.2711   19.0882 H   0  0  0  0  0  0
  -27.4066  -12.3368   17.8564 H   0  0  0  0  0  0
  -27.5342  -14.2399   19.3328 H   0  0  0  0  0  0
  -28.8063  -12.4875   21.4869 H   0  0  0  0  0  0
  -28.2950  -14.1481   21.6985 H   0  0  0  0  0  0
  -25.2780   -9.5674   22.4793 H   0  0  0  0  0  0
  -24.0019   -7.4617   22.7473 H   0  0  0  0  0  0
  -21.0873   -8.8790   19.8954 H   0  0  0  0  0  0
  -22.3736  -10.9689   19.6184 H   0  0  0  0  0  0
  -21.2009   -7.6166   23.9741 H   0  0  0  0  0  0
  -21.1466   -6.0534   25.9089 H   0  0  0  0  0  0
  -22.0595   -2.7628   23.2845 H   0  0  0  0  0  0
  -22.4043  -11.9843   22.4844 H   0  0  0  0  0  0
  -21.1037  -13.1193   22.2658 H   0  0  0  0  0  0
  -24.6312  -15.8442   20.5224 H   0  0  0  0  0  0
  -26.2414  -15.6361   20.0595 H   0  0  0  0  0  0
  -26.7360  -32.5126   23.0868 H   0  0  0  0  0  0
  -25.0102  -33.9498   25.0216 H   0  0  0  0  0  0
  -22.7881  -31.2720   21.3518 H   0  0  0  0  0  0
  -23.3772  -35.9502   23.3296 H   0  0  0  0  0  0
  -24.3568  -36.8840   22.2062 H   0  0  0  0  0  0
  -23.7226  -37.6369   23.6708 H   0  0  0  0  0  0
  -26.2255  -31.3813   20.6240 H   0  0  0  0  0  0
  -26.9048  -30.6877   22.0568 H   0  0  0  0  0  0
  -28.1455  -28.6063   21.2758 H   0  0  0  0  0  0
  -25.8472  -25.7521   19.0011 H   0  0  0  0  0  0
  -23.9888  -27.2799   18.9608 H   0  0  0  0  0  0
  -23.8662  -30.5305   19.3900 H   0  0  0  0  0  0
  -22.8225  -29.2148   19.8276 H   0  0  0  0  0  0
  -25.1325  -36.1752   25.0801 H   0  0  0  0  0  0
  -21.0042  -28.3361   24.1321 H   0  0  0  0  0  0
  -20.5714  -26.2364   23.3636 H   0  0  0  0  0  0
  -21.6666  -26.7445   22.1186 H   0  0  0  0  0  0
  -19.6944  -25.6296   21.1274 H   0  0  0  0  0  0
  -19.6723  -27.3195   20.6752 H   0  0  0  0  0  0
  -17.4222  -26.6715   21.4030 H   0  0  0  0  0  0
  -18.0344  -26.0109   22.9031 H   0  0  0  0  0  0
  -19.7973  -30.7344   24.2185 H   0  0  0  0  0  0
  -17.5052  -31.6293   24.5182 H   0  0  0  0  0  0
  -15.5380  -30.3009   23.7727 H   0  0  0  0  0  0
  -15.8697  -28.0851   22.7113 H   0  0  0  0  0  0
  -24.5870  -30.7143   25.7672 H   0  0  0  0  0  0
  -24.8852  -32.3013   26.4644 H   0  0  0  0  0  0
  -25.7904  -30.9059   27.0218 H   0  0  0  0  0  0
  -26.3118  -29.6584   24.1403 H   0  0  0  0  0  0
  -27.3949  -29.7275   25.5091 H   0  0  0  0  0  0
  -27.9074  -30.4100   23.9871 H   0  0  0  0  0  0
  -27.2600  -33.3713   26.1922 H   0  0  0  0  0  0
  -28.3906  -32.6839   25.0348 H   0  0  0  0  0  0
  -28.0643  -31.8577   26.5503 H   0  0  0  0  0  0
  -28.2565  -38.0059   24.7511 H   0  0  0  0  0  0
  -28.1060  -36.2576   24.6297 H   0  0  0  0  0  0
  -27.2273  -37.1385   25.8876 H   0  0  0  0  0  0
  -20.9559  -29.8711   21.6648 H   0  0  0  0  0  0
  -26.0107  -38.2755   24.1457 H   0  0  0  0  0  0
  -27.8171  -22.0198   22.1464 H   0  0  0  0  0  0
  -29.2925  -23.5594   17.8164 H   0  0  0  0  0  0
  -29.0404  -21.9893   17.0553 H   0  0  0  0  0  0
  -30.6369  -22.4390   17.6593 H   0  0  0  0  0  0
  -26.9186  -24.1366   20.6893 H   0  0  0  0  0  0
  -27.4160  -24.2027   19.0467 H   0  0  0  0  0  0
  -30.7293  -18.1984   21.3247 H   0  0  0  0  0  0
  -30.8745  -18.1248   19.6230 H   0  0  0  0  0  0
  -28.7185  -16.3630   20.5593 H   0  0  0  0  0  0
  1 25  1  0  0  0
  1 30  2  0  0  0
  1 80  1  0  0  0
  2  3  1  0  0  0
  2 25  1  0  0  0
  2 81  1  0  0  0
  2 82  1  0  0  0
  3  4  1  0  0  0
  3 83  1  0  0  0
  3 84  1  0  0  0
  4  5  1  0  0  0
  4 85  1  0  0  0
  4 86  1  0  0  0
  5  6  1  0  0  0
  5 26  1  0  0  0
  5 87  1  0  0  0
  6 25  1  0  0  0
  6 88  1  0  0  0
  6 89  1  0  0  0
  7  8  2  0  0  0
  7 26  1  0  0  0
  7 29  1  0  0  0
  8  9  1  0  0  0
  8 22  1  0  0  0
  9 10  1  0  0  0
  9 27  2  0  0  0
 10 11  2  0  0  0
 10 15  1  0  0  0
 11 12  1  0  0  0
 11 90  1  0  0  0
 12 13  2  0  0  0
 12 91  1  0  0  0
 13 14  1  0  0  0
 13 31  1  0  0  0
 14 15  2  0  0  0
 14 92  1  0  0  0
 15 93  1  0  0  0
 16 17  2  0  0  0
 16 21  1  0  0  0
 16 31  1  0  0  0
 17 18  1  0  0  0
 17 94  1  0  0  0
 18 19  2  0  0  0
 18 95  1  0  0  0
 19 20  1  0  0  0
 19 24  1  0  0  0
 20 21  2  0  0  0
 20 96  1  0  0  0
 21 23  1  0  0  0
 22 28  1  0  0  0
 22 32  2  0  0  0
 26 27  1  0  0  0
 28 97  1  0  0  0
 28 98  1  0  0  0
 29 99  1  0  0  0
 29100  1  0  0  0
 33 34  1  0  0  0
 33 66  1  0  0  0
 33 70  2  0  0  0
 34 36  1  0  0  0
 34 59  1  0  0  0
 34101  1  0  0  0
 35 44  2  0  0  0
 35 45  1  0  0  0
 35 68  1  0  0  0
 36 56  1  0  0  0
 36102  1  0  0  0
 37 39  1  0  0  0
 37 47  1  0  0  0
 37 66  1  0  0  0
 37103  1  0  0  0
 38 43  2  0  0  0
 38 46  1  0  0  0
 38 47  1  0  0  0
 39 64  1  0  0  0
 39 67  2  0  0  0
 40 52  1  0  0  0
 40 53  2  0  0  0
 40 58  1  0  0  0
 41104  1  0  0  0
 41105  1  0  0  0
 41106  1  0  0  0
 41 48  1  0  0  0
 42 43  1  0  0  0
 42 66  1  0  0  0
 42107  1  0  0  0
 42108  1  0  0  0
 43 44  1  0  0  0
 44109  1  0  0  0
 45 46  2  0  0  0
 45110  1  0  0  0
 46111  1  0  0  0
 47112  1  0  0  0
 47113  1  0  0  0
 48 56  1  0  0  0
 48 65  1  0  0  0
 48114  1  0  0  0
 49 50  1  0  0  0
 49 53  1  0  0  0
 49 64  1  0  0  0
 49115  1  0  0  0
 50 51  1  0  0  0
 50116  1  0  0  0
 50117  1  0  0  0
 51 52  1  0  0  0
 51118  1  0  0  0
 51119  1  0  0  0
 52120  1  0  0  0
 52121  1  0  0  0
 53 54  1  0  0  0
 54 55  2  0  0  0
 54122  1  0  0  0
 55 57  1  0  0  0
 55123  1  0  0  0
 56 69  2  0  0  0
 57 58  2  0  0  0
 57124  1  0  0  0
 58125  1  0  0  0
 59 60  1  0  0  0
 59 61  1  0  0  0
 59 62  1  0  0  0
 60126  1  0  0  0
 60127  1  0  0  0
 60128  1  0  0  0
 61129  1  0  0  0
 61130  1  0  0  0
 61131  1  0  0  0
 62132  1  0  0  0
 62133  1  0  0  0
 62134  1  0  0  0
 63 65  1  0  0  0
 63135  1  0  0  0
 63136  1  0  0  0
 63137  1  0  0  0
 64138  1  0  0  0
 65139  1  0  0  0
 68 76  1  0  0  0
 71 72  2  0  0  0
 71 78  1  0  0  0
 71140  1  0  0  0
 72 73  1  0  0  0
 72 76  1  0  0  0
 73 75  1  0  0  0
 73 79  2  0  0  0
 74 77  1  0  0  0
 74 78  2  0  0  0
 74 79  1  0  0  0
 75141  1  0  0  0
 75142  1  0  0  0
 75143  1  0  0  0
 76144  1  0  0  0
 76145  1  0  0  0
 77 80  1  0  0  0
 77146  1  0  0  0
 77147  1  0  0  0
 80148  1  0  0  0
M  ISO  4   1 100  68 101  76 101  80 100
M  END
> <chiral flag>
0

> <version>
0

> <s_m_source_file>
/data/baiqing/PycharmProjects/Reinvent-master-3.2/result/LINK_invent/BTK/process_docking_weight1_custom_sum_contain_oxygen_bond_distance_aromatic_linkinvent_7_9_3/rearranged_h_0061.sdf

> <i_m_source_file_index>
21

> <r_mmod_Potential_Energy-OPLS-2005>
599.340759277344

> <r_mmod_Stretch_Energy-OPLS-2005>
476.69384765625

> <r_mmod_Bend_Energy-OPLS-2005>
437.59033203125

> <r_mmod_Torsional_Energy-OPLS-2005>
222.371536254883

> <r_mmod_Improper_Torsional_Energy-OPLS-2005>
10.8153715133667

> <r_mmod_Van_der_Waal_Energy-OPLS-2005>
138.324020385742

> <r_mmod_Electrostatic_Energy-OPLS-2005>
-865.572570800781

> <r_mmod_Solvation_Energy-OPLS-2005>
-246.638763427734

> <b_mmod_Minimization_Converged-OPLS-2005>
0

> <r_mmod_RMS_Derivative-OPLS-2005>
1.63604116439819

$$$$
21
                    3D
 Structure written by MMmdl.
151159  0  0  1  0            999 V2000
  -30.5755  -14.8876   20.4085 C   0  0  0  0  0  0
  -30.4325  -12.5448   19.4974 C   0  0  0  0  0  0
  -29.5160  -12.5135   18.2536 C   0  0  0  0  0  0
  -28.0478  -12.3135   18.6723 C   0  0  0  0  0  0
  -27.6308  -13.2459   19.8399 C   0  0  2  0  0  0
  -28.6730  -13.2621   20.9785 C   0  0  0  0  0  0
  -25.2463  -13.8219   20.5708 C   0  0  0  0  0  0
  -24.1776  -13.0441   20.9219 C   0  0  0  0  0  0
  -24.6392  -11.6926   20.8761 C   0  0  0  0  0  0
  -23.9080  -10.4292   21.0410 C   0  0  0  0  0  0
  -24.3624   -9.4202   21.9185 C   0  0  0  0  0  0
  -23.6291   -8.2243   22.0757 C   0  0  0  0  0  0
  -22.4275   -8.0284   21.3546 C   0  0  0  0  0  0
  -21.9915   -9.0258   20.4647 C   0  0  0  0  0  0
  -22.7251  -10.2134   20.3054 C   0  0  0  0  0  0
  -21.6854   -6.0732   22.5273 C   0  0  0  0  0  0
  -21.4015   -6.5635   23.8206 C   0  0  0  0  0  0
  -21.3658   -5.6789   24.9170 C   0  0  0  0  0  0
  -21.6044   -4.3050   24.7223 C   0  0  0  0  0  0
  -21.8823   -3.8141   23.4344 C   0  0  0  0  0  0
  -21.9193   -4.6958   22.3398 C   0  0  0  0  0  0
  -22.7796  -13.5210   21.1872 C   0  0  0  0  0  0
  -22.1662   -4.2140   21.0976 F   0  0  0  0  0  0
  -21.5628   -3.4537   25.7737 F   0  0  0  0  0  0
  -29.9567  -13.6448   20.3813 N   0  0  0  0  0  0
  -26.2888  -12.9448   20.3254 N   0  0  0  0  0  0
  -25.9323  -11.6580   20.5748 N   0  0  0  0  0  0
  -22.0452  -12.8199   22.0433 N   0  0  0  0  0  0
  -25.4133  -15.1949   20.4122 N   0  0  0  0  0  0
  -31.7792  -14.9275   20.1370 O   0  0  0  0  0  0
  -21.6641   -6.8878   21.4236 O   0  0  0  0  0  0
  -22.3476  -14.5513   20.6718 O   0  0  0  0  0  0
  -24.6403  -31.8468   23.1901 C   0  0  0  0  0  0
  -25.9190  -32.4708   23.8277 C   0  0  1  0  0  0
  -27.2175  -27.1682   20.1459 C   0  0  0  0  0  0
  -25.5943  -33.8510   24.2192 N   0  0  0  0  0  0
  -23.4414  -30.4654   21.5360 C   0  0  2  0  0  0
  -24.8903  -28.8959   20.1097 C   0  0  0  0  0  0
  -22.7550  -29.4549   22.4882 C   0  0  0  0  0  0
  -18.0295  -28.1385   22.8474 C   0  0  0  0  0  0
  -24.1489  -36.7263   23.2642 C   0  0  0  0  0  0
  -25.9939  -30.7309   21.3828 C   0  0  0  0  0  0
  -26.0659  -29.3444   20.7245 C   0  0  0  0  0  0
  -27.2319  -28.4962   20.7244 C   0  0  0  0  0  0
  -26.0163  -26.8097   19.4972 C   0  0  0  0  0  0
  -24.8760  -27.6409   19.4813 C   0  0  0  0  0  0
  -23.6651  -29.7938   20.1549 C   0  0  0  0  0  0
  -25.4119  -36.3036   24.0315 C   0  0  1  0  0  0
  -20.5904  -28.3706   23.1247 C   0  0  2  0  0  0
  -20.6783  -26.9411   22.5406 C   0  0  0  0  0  0
  -19.5759  -26.6371   21.5210 C   0  0  0  0  0  0
  -18.1939  -26.7923   22.1617 C   0  0  0  0  0  0
  -19.1551  -28.8863   23.2852 C   0  0  0  0  0  0
  -18.9475  -30.1461   23.8872 C   0  0  0  0  0  0
  -17.6474  -30.6588   24.0552 C   0  0  0  0  0  0
  -25.9069  -34.9413   23.5062 C   0  0  0  0  0  0
  -16.5362  -29.9079   23.6335 C   0  0  0  0  0  0
  -16.7281  -28.6495   23.0355 C   0  0  0  0  0  0
  -26.4517  -31.6575   25.0712 C   0  0  0  0  0  0
  -25.3706  -31.3759   26.1416 C   0  0  0  0  0  0
  -27.0387  -30.2975   24.6274 C   0  0  0  0  0  0
  -27.6040  -32.4351   25.7501 C   0  0  0  0  0  0
  -27.5576  -37.1786   24.8460 C   0  0  0  0  0  0
  -21.4245  -29.3038   22.3632 N   0  0  0  0  0  0
  -26.4281  -37.3749   23.9407 N   0  0  0  0  0  0
  -24.7115  -31.0348   22.0918 N   0  0  0  0  0  0
  -23.4213  -28.8099   23.3021 O   0  0  0  0  0  0
  -28.2869  -26.2139   20.2146 O   0  0  0  0  0  0
  -26.5658  -34.8909   22.4641 O   0  0  0  0  0  0
  -23.5531  -32.1328   23.7143 O   0  0  0  0  0  0
  -28.3478  -20.9663   19.8117 C   0  0  0  0  0  0
  -30.5327  -19.9670   21.0114 C   0  0  0  0  0  0
  -29.2226  -21.9170   20.4509 C   0  0  0  0  0  0
  -29.6953  -19.0126   20.3467 C   0  0  0  0  0  0
  -30.3162  -17.4379   18.4160 C   0  0  0  0  0  0
  -29.2097  -23.5656   20.4790 C   0  0  0  0  0  0
  -28.0506  -24.6889   20.0893 C   0  0  0  0  0  0
  -30.2467  -17.5083   19.9547 C   0  0  2  0  0  0
  -30.3067  -21.3343   21.0646 N   0  0  0  0  0  0
  -28.5726  -19.5793   19.7648 N   0  0  0  0  0  0
  -29.8291  -16.0898   20.4764 N   0  0  0  0  0  0
  -31.4694  -12.6822   19.1872 H   0  0  0  0  0  0
  -30.4060  -11.5908   20.0262 H   0  0  0  0  0  0
  -29.8237  -11.7153   17.5770 H   0  0  0  0  0  0
  -29.6170  -13.4462   17.6960 H   0  0  0  0  0  0
  -27.9359  -11.2721   18.9777 H   0  0  0  0  0  0
  -27.3852  -12.4519   17.8171 H   0  0  0  0  0  0
  -27.6001  -14.2498   19.4164 H   0  0  0  0  0  0
  -28.7426  -12.2867   21.4623 H   0  0  0  0  0  0
  -28.3859  -13.9747   21.7534 H   0  0  0  0  0  0
  -25.2767   -9.5676   22.4763 H   0  0  0  0  0  0
  -23.9992   -7.4636   22.7486 H   0  0  0  0  0  0
  -21.0842   -8.8783   19.8958 H   0  0  0  0  0  0
  -22.3708  -10.9674   19.6164 H   0  0  0  0  0  0
  -21.2013   -7.6144   23.9705 H   0  0  0  0  0  0
  -21.1475   -6.0521   25.9072 H   0  0  0  0  0  0
  -22.0604   -2.7603   23.2847 H   0  0  0  0  0  0
  -22.4074  -11.9858   22.4818 H   0  0  0  0  0  0
  -21.1071  -13.1220   22.2650 H   0  0  0  0  0  0
  -24.6449  -15.8469   20.5255 H   0  0  0  0  0  0
  -26.2544  -15.6352   20.0626 H   0  0  0  0  0  0
  -26.7256  -32.5331   23.1015 H   0  0  0  0  0  0
  -25.0061  -33.9618   25.0319 H   0  0  0  0  0  0
  -22.7421  -31.2903   21.3842 H   0  0  0  0  0  0
  -23.3754  -35.9594   23.3288 H   0  0  0  0  0  0
  -24.3570  -36.8911   22.2059 H   0  0  0  0  0  0
  -23.7238  -37.6450   23.6693 H   0  0  0  0  0  0
  -26.1445  -31.4886   20.6122 H   0  0  0  0  0  0
  -26.8655  -30.7817   22.0239 H   0  0  0  0  0  0
  -28.1301  -28.8355   21.2210 H   0  0  0  0  0  0
  -25.9291  -25.8491   19.0126 H   0  0  0  0  0  0
  -23.9774  -27.2921   18.9912 H   0  0  0  0  0  0
  -23.7948  -30.5676   19.3973 H   0  0  0  0  0  0
  -22.7815  -29.2311   19.8486 H   0  0  0  0  0  0
  -25.1307  -36.1866   25.0806 H   0  0  0  0  0  0
  -20.9990  -28.3297   24.1371 H   0  0  0  0  0  0
  -20.5675  -26.2317   23.3622 H   0  0  0  0  0  0
  -21.6652  -26.7423   22.1208 H   0  0  0  0  0  0
  -19.6917  -25.6276   21.1254 H   0  0  0  0  0  0
  -19.6698  -27.3172   20.6732 H   0  0  0  0  0  0
  -17.4206  -26.6661   21.4020 H   0  0  0  0  0  0
  -18.0337  -26.0070   22.9019 H   0  0  0  0  0  0
  -19.7955  -30.7276   24.2232 H   0  0  0  0  0  0
  -17.5031  -31.6269   24.5158 H   0  0  0  0  0  0
  -15.5360  -30.2972   23.7680 H   0  0  0  0  0  0
  -15.8677  -28.0809   22.7084 H   0  0  0  0  0  0
  -24.5882  -30.7108   25.7741 H   0  0  0  0  0  0
  -24.8905  -32.2945   26.4800 H   0  0  0  0  0  0
  -25.8002  -30.8963   27.0221 H   0  0  0  0  0  0
  -26.3002  -29.6696   24.1275 H   0  0  0  0  0  0
  -27.4000  -29.7270   25.4841 H   0  0  0  0  0  0
  -27.8909  -30.4213   23.9585 H   0  0  0  0  0  0
  -27.2611  -33.3669   26.2015 H   0  0  0  0  0  0
  -28.3884  -32.6887   25.0355 H   0  0  0  0  0  0
  -28.0668  -31.8518   26.5473 H   0  0  0  0  0  0
  -28.2577  -38.0101   24.7523 H   0  0  0  0  0  0
  -28.1087  -36.2628   24.6269 H   0  0  0  0  0  0
  -27.2291  -37.1407   25.8862 H   0  0  0  0  0  0
  -20.9454  -29.8754   21.6816 H   0  0  0  0  0  0
  -26.0153  -38.2813   24.1432 H   0  0  0  0  0  0
  -27.4709  -21.3201   19.2890 H   0  0  0  0  0  0
  -31.4700  -19.6412   21.4393 H   0  0  0  0  0  0
  -30.8465  -18.2995   18.0089 H   0  0  0  0  0  0
  -29.3171  -17.4331   17.9794 H   0  0  0  0  0  0
  -30.8356  -16.5481   18.0603 H   0  0  0  0  0  0
  -30.0803  -23.8414   19.8849 H   0  0  0  0  0  0
  -29.4982  -23.8122   21.5007 H   0  0  0  0  0  0
  -27.1682  -24.4567   20.6863 H   0  0  0  0  0  0
  -27.7652  -24.4991   19.0547 H   0  0  0  0  0  0
  -31.2872  -17.5652   20.2781 H   0  0  0  0  0  0
  -28.8540  -15.9865   20.7118 H   0  0  0  0  0  0
  1 25  1  0  0  0
  1 30  2  0  0  0
  1 81  1  0  0  0
  2  3  1  0  0  0
  2 25  1  0  0  0
  2 82  1  0  0  0
  2 83  1  0  0  0
  3  4  1  0  0  0
  3 84  1  0  0  0
  3 85  1  0  0  0
  4  5  1  0  0  0
  4 86  1  0  0  0
  4 87  1  0  0  0
  5  6  1  0  0  0
  5 26  1  0  0  0
  5 88  1  0  0  0
  6 25  1  0  0  0
  6 89  1  0  0  0
  6 90  1  0  0  0
  7  8  2  0  0  0
  7 26  1  0  0  0
  7 29  1  0  0  0
  8  9  1  0  0  0
  8 22  1  0  0  0
  9 10  1  0  0  0
  9 27  2  0  0  0
 10 11  2  0  0  0
 10 15  1  0  0  0
 11 12  1  0  0  0
 11 91  1  0  0  0
 12 13  2  0  0  0
 12 92  1  0  0  0
 13 14  1  0  0  0
 13 31  1  0  0  0
 14 15  2  0  0  0
 14 93  1  0  0  0
 15 94  1  0  0  0
 16 17  2  0  0  0
 16 21  1  0  0  0
 16 31  1  0  0  0
 17 18  1  0  0  0
 17 95  1  0  0  0
 18 19  2  0  0  0
 18 96  1  0  0  0
 19 20  1  0  0  0
 19 24  1  0  0  0
 20 21  2  0  0  0
 20 97  1  0  0  0
 21 23  1  0  0  0
 22 28  1  0  0  0
 22 32  2  0  0  0
 26 27  1  0  0  0
 28 98  1  0  0  0
 28 99  1  0  0  0
 29100  1  0  0  0
 29101  1  0  0  0
 33 34  1  0  0  0
 33 66  1  0  0  0
 33 70  2  0  0  0
 34 36  1  0  0  0
 34 59  1  0  0  0
 34102  1  0  0  0
 35 44  2  0  0  0
 35 45  1  0  0  0
 35 68  1  0  0  0
 36 56  1  0  0  0
 36103  1  0  0  0
 37 39  1  0  0  0
 37 47  1  0  0  0
 37 66  1  0  0  0
 37104  1  0  0  0
 38 43  2  0  0  0
 38 46  1  0  0  0
 38 47  1  0  0  0
 39 64  1  0  0  0
 39 67  2  0  0  0
 40 52  1  0  0  0
 40 53  2  0  0  0
 40 58  1  0  0  0
 41105  1  0  0  0
 41106  1  0  0  0
 41107  1  0  0  0
 41 48  1  0  0  0
 42 43  1  0  0  0
 42 66  1  0  0  0
 42108  1  0  0  0
 42109  1  0  0  0
 43 44  1  0  0  0
 44110  1  0  0  0
 45 46  2  0  0  0
 45111  1  0  0  0
 46112  1  0  0  0
 47113  1  0  0  0
 47114  1  0  0  0
 48 56  1  0  0  0
 48 65  1  0  0  0
 48115  1  0  0  0
 49 50  1  0  0  0
 49 53  1  0  0  0
 49 64  1  0  0  0
 49116  1  0  0  0
 50 51  1  0  0  0
 50117  1  0  0  0
 50118  1  0  0  0
 51 52  1  0  0  0
 51119  1  0  0  0
 51120  1  0  0  0
 52121  1  0  0  0
 52122  1  0  0  0
 53 54  1  0  0  0
 54 55  2  0  0  0
 54123  1  0  0  0
 55 57  1  0  0  0
 55124  1  0  0  0
 56 69  2  0  0  0
 57 58  2  0  0  0
 57125  1  0  0  0
 58126  1  0  0  0
 59 60  1  0  0  0
 59 61  1  0  0  0
 59 62  1  0  0  0
 60127  1  0  0  0
 60128  1  0  0  0
 60129  1  0  0  0
 61130  1  0  0  0
 61131  1  0  0  0
 61132  1  0  0  0
 62133  1  0  0  0
 62134  1  0  0  0
 62135  1  0  0  0
 63 65  1  0  0  0
 63136  1  0  0  0
 63137  1  0  0  0
 63138  1  0  0  0
 64139  1  0  0  0
 65140  1  0  0  0
 68 77  1  0  0  0
 71 73  2  0  0  0
 71 80  1  0  0  0
 71141  1  0  0  0
 72 74  1  0  0  0
 72 79  2  0  0  0
 72142  1  0  0  0
 73 76  1  0  0  0
 73 79  1  0  0  0
 74 78  1  0  0  0
 74 80  2  0  0  0
 75143  1  0  0  0
 75144  1  0  0  0
 75145  1  0  0  0
 75 78  1  0  0  0
 76 77  1  0  0  0
 76146  1  0  0  0
 76147  1  0  0  0
 77148  1  0  0  0
 77149  1  0  0  0
 78 81  1  0  0  0
 78150  1  0  0  0
 81151  1  0  0  0
M  ISO  4   1 100  68 101  77 101  81 100
M  END
> <chiral flag>
0

> <version>
0

> <s_m_source_file>
/data/baiqing/PycharmProjects/Reinvent-master-3.2/result/LINK_invent/BTK/process_docking_weight1_custom_sum_contain_oxygen_bond_distance_aromatic_linkinvent_7_9_3/rearranged_h_0061.sdf

> <i_m_source_file_index>
22

> <r_mmod_Potential_Energy-OPLS-2005>
428.944305419922

> <r_mmod_Stretch_Energy-OPLS-2005>
211.743988037109

> <r_mmod_Bend_Energy-OPLS-2005>
261.79736328125

> <r_mmod_Torsional_Energy-OPLS-2005>
212.320510864258

> <r_mmod_Improper_Torsional_Energy-OPLS-2005>
9.46208667755127

> <r_mmod_Van_der_Waal_Energy-OPLS-2005>
136.302719116211

> <r_mmod_Electrostatic_Energy-OPLS-2005>
-336.920349121094

> <r_mmod_Solvation_Energy-OPLS-2005>
-223.417007446289

> <b_mmod_Minimization_Converged-OPLS-2005>
0

> <r_mmod_RMS_Derivative-OPLS-2005>
0.860120356082916

$$$$
22
                    3D
 Structure written by MMmdl.
156164  0  0  1  0            999 V2000
  -30.5935  -14.7803   20.4021 C   0  0  0  0  0  0
  -30.4478  -12.4474   19.5028 C   0  0  0  0  0  0
  -29.5329  -12.4653   18.2536 C   0  0  0  0  0  0
  -28.0487  -12.3111   18.6509 C   0  0  0  0  0  0
  -27.6423  -13.2131   19.8466 C   0  0  2  0  0  0
  -28.6904  -13.1632   20.9812 C   0  0  0  0  0  0
  -25.2561  -13.8124   20.5711 C   0  0  0  0  0  0
  -24.1815  -13.0411   20.9166 C   0  0  0  0  0  0
  -24.6374  -11.6873   20.8715 C   0  0  0  0  0  0
  -23.9048  -10.4270   21.0386 C   0  0  0  0  0  0
  -24.3602   -9.4202   21.9182 C   0  0  0  0  0  0
  -23.6278   -8.2238   22.0763 C   0  0  0  0  0  0
  -22.4266   -8.0268   21.3548 C   0  0  0  0  0  0
  -21.9897   -9.0237   20.4649 C   0  0  0  0  0  0
  -22.7214  -10.2117   20.3049 C   0  0  0  0  0  0
  -21.6854   -6.0722   22.5279 C   0  0  0  0  0  0
  -21.4016   -6.5631   23.8213 C   0  0  0  0  0  0
  -21.3664   -5.6788   24.9175 C   0  0  0  0  0  0
  -21.6042   -4.3048   24.7227 C   0  0  0  0  0  0
  -21.8819   -3.8135   23.4352 C   0  0  0  0  0  0
  -21.9198   -4.6950   22.3404 C   0  0  0  0  0  0
  -22.7844  -13.5218   21.1839 C   0  0  0  0  0  0
  -22.1663   -4.2139   21.0979 F   0  0  0  0  0  0
  -21.5634   -3.4533   25.7741 F   0  0  0  0  0  0
  -29.9993  -13.5282   20.4151 N   0  0  0  0  0  0
  -26.2954  -12.9284   20.3279 N   0  0  0  0  0  0
  -25.9304  -11.6449   20.5732 N   0  0  0  0  0  0
  -22.0486  -12.8237   22.0403 N   0  0  0  0  0  0
  -25.4298  -15.1858   20.4251 N   0  0  0  0  0  0
  -31.8115  -14.8323   20.1905 O   0  0  0  0  0  0
  -21.6633   -6.8862   21.4242 O   0  0  0  0  0  0
  -22.3534  -14.5527   20.6677 O   0  0  0  0  0  0
  -24.6311  -31.8544   23.1983 C   0  0  0  0  0  0
  -25.9149  -32.4743   23.8329 C   0  0  1  0  0  0
  -27.2174  -27.2564   20.1705 C   0  0  0  0  0  0
  -25.5948  -33.8551   24.2254 N   0  0  0  0  0  0
  -23.4284  -30.4781   21.5388 C   0  0  2  0  0  0
  -24.8797  -28.9248   20.1102 C   0  0  0  0  0  0
  -22.7508  -29.4598   22.4873 C   0  0  0  0  0  0
  -18.0300  -28.1404   22.8493 C   0  0  0  0  0  0
  -24.1485  -36.7284   23.2636 C   0  0  0  0  0  0
  -25.9732  -30.7698   21.3779 C   0  0  0  0  0  0
  -26.0466  -29.3888   20.7317 C   0  0  0  0  0  0
  -27.2182  -28.5667   20.7524 C   0  0  0  0  0  0
  -26.0476  -26.8801   19.4755 C   0  0  0  0  0  0
  -24.8859  -27.6787   19.4651 C   0  0  0  0  0  0
  -23.6510  -29.8141   20.1532 C   0  0  0  0  0  0
  -25.4106  -36.3062   24.0332 C   0  0  1  0  0  0
  -20.5905  -28.3707   23.1275 C   0  0  2  0  0  0
  -20.6789  -26.9416   22.5420 C   0  0  0  0  0  0
  -19.5761  -26.6389   21.5232 C   0  0  0  0  0  0
  -18.1938  -26.7946   22.1635 C   0  0  0  0  0  0
  -19.1557  -28.8877   23.2874 C   0  0  0  0  0  0
  -18.9480  -30.1474   23.8888 C   0  0  0  0  0  0
  -17.6479  -30.6594   24.0579 C   0  0  0  0  0  0
  -25.9057  -34.9433   23.5082 C   0  0  0  0  0  0
  -16.5369  -29.9104   23.6340 C   0  0  0  0  0  0
  -16.7291  -28.6531   23.0343 C   0  0  0  0  0  0
  -26.4508  -31.6572   25.0722 C   0  0  0  0  0  0
  -25.3719  -31.3759   26.1436 C   0  0  0  0  0  0
  -27.0334  -30.2984   24.6203 C   0  0  0  0  0  0
  -27.6058  -32.4299   25.7519 C   0  0  0  0  0  0
  -27.5567  -37.1794   24.8472 C   0  0  0  0  0  0
  -21.4215  -29.3045   22.3649 N   0  0  0  0  0  0
  -26.4276  -37.3767   23.9427 N   0  0  0  0  0  0
  -24.6959  -31.0529   22.0951 N   0  0  0  0  0  0
  -23.4216  -28.8131   23.2958 O   0  0  0  0  0  0
  -28.3139  -26.3619   20.2067 O   0  0  0  0  0  0
  -26.5617  -34.8908   22.4646 O   0  0  0  0  0  0
  -23.5459  -32.1362   23.7290 O   0  0  0  0  0  0
  -31.3254  -19.4017   20.7663 C   0  0  0  0  0  0
  -30.2080  -17.6092   20.6820 C   0  0  0  0  0  0
  -26.8252  -24.3599   20.9701 C   0  0  0  0  0  0
  -29.4655  -16.3053   18.7204 C   0  0  0  0  0  0
  -29.0924  -22.2560   20.2722 C   0  0  0  0  0  0
  -29.3084  -23.8747   20.3778 C   0  0  0  0  0  0
  -29.5476  -21.1849   21.3859 C   0  0  0  0  0  0
  -28.2268  -24.9875   20.8449 C   0  0  1  0  0  0
  -29.7241  -16.1580   20.2377 C   0  0  1  0  0  0
  -31.4917  -18.0852   20.5512 N   0  0  0  0  0  0
  -29.3219  -18.6248   20.9418 N   0  0  0  0  0  0
  -30.0655  -19.7998   20.9855 N   0  0  0  0  0  0
  -28.5334  -15.9923   20.8182 F   0  0  0  0  0  0
  -31.4933  -12.5588   19.2102 H   0  0  0  0  0  0
  -30.3851  -11.4802   20.0053 H   0  0  0  0  0  0
  -29.8178  -11.6572   17.5780 H   0  0  0  0  0  0
  -29.6853  -13.3863   17.6917 H   0  0  0  0  0  0
  -27.8927  -11.2638   18.9144 H   0  0  0  0  0  0
  -27.4047  -12.5036   17.7913 H   0  0  0  0  0  0
  -27.6132  -14.2231   19.4510 H   0  0  0  0  0  0
  -28.7302  -12.1656   21.4196 H   0  0  0  0  0  0
  -28.4183  -13.8288   21.8012 H   0  0  0  0  0  0
  -25.2758   -9.5684   22.4746 H   0  0  0  0  0  0
  -23.9991   -7.4636   22.7495 H   0  0  0  0  0  0
  -21.0825   -8.8730   19.8962 H   0  0  0  0  0  0
  -22.3661  -10.9641   19.6146 H   0  0  0  0  0  0
  -21.2001   -7.6138   23.9710 H   0  0  0  0  0  0
  -21.1495   -6.0518   25.9078 H   0  0  0  0  0  0
  -22.0597   -2.7598   23.2849 H   0  0  0  0  0  0
  -22.4104  -11.9923   22.4832 H   0  0  0  0  0  0
  -21.1103  -13.1271   22.2592 H   0  0  0  0  0  0
  -24.6783  -15.8448   20.5932 H   0  0  0  0  0  0
  -26.3209  -15.6334   20.2460 H   0  0  0  0  0  0
  -26.7220  -32.5400   23.1078 H   0  0  0  0  0  0
  -25.0134  -33.9689   25.0426 H   0  0  0  0  0  0
  -22.7247  -31.2993   21.3899 H   0  0  0  0  0  0
  -23.3726  -35.9636   23.3311 H   0  0  0  0  0  0
  -24.3578  -36.8882   22.2044 H   0  0  0  0  0  0
  -23.7252  -37.6502   23.6643 H   0  0  0  0  0  0
  -26.1008  -31.5219   20.5976 H   0  0  0  0  0  0
  -26.8564  -30.8311   22.0020 H   0  0  0  0  0  0
  -28.1081  -28.9147   21.2567 H   0  0  0  0  0  0
  -26.0157  -25.9371   18.9511 H   0  0  0  0  0  0
  -24.0033  -27.3255   18.9502 H   0  0  0  0  0  0
  -23.7829  -30.5933   19.4009 H   0  0  0  0  0  0
  -22.7688  -29.2526   19.8418 H   0  0  0  0  0  0
  -25.1267  -36.1896   25.0820 H   0  0  0  0  0  0
  -21.0015  -28.3286   24.1388 H   0  0  0  0  0  0
  -20.5692  -26.2311   23.3624 H   0  0  0  0  0  0
  -21.6650  -26.7431   22.1196 H   0  0  0  0  0  0
  -19.6915  -25.6303   21.1251 H   0  0  0  0  0  0
  -19.6705  -27.3207   20.6764 H   0  0  0  0  0  0
  -17.4207  -26.6723   21.4026 H   0  0  0  0  0  0
  -18.0301  -26.0095   22.9026 H   0  0  0  0  0  0
  -19.7953  -30.7308   24.2227 H   0  0  0  0  0  0
  -17.5035  -31.6268   24.5190 H   0  0  0  0  0  0
  -15.5369  -30.3009   23.7663 H   0  0  0  0  0  0
  -15.8695  -28.0868   22.7029 H   0  0  0  0  0  0
  -24.5988  -30.6964   25.7843 H   0  0  0  0  0  0
  -24.8789  -32.2920   26.4696 H   0  0  0  0  0  0
  -25.8040  -30.9136   27.0315 H   0  0  0  0  0  0
  -26.2918  -29.6770   24.1173 H   0  0  0  0  0  0
  -27.3956  -29.7215   25.4718 H   0  0  0  0  0  0
  -27.8821  -30.4249   23.9477 H   0  0  0  0  0  0
  -27.2698  -33.3671   26.1970 H   0  0  0  0  0  0
  -28.3968  -32.6724   25.0411 H   0  0  0  0  0  0
  -28.0598  -31.8477   26.5547 H   0  0  0  0  0  0
  -28.2561  -38.0103   24.7503 H   0  0  0  0  0  0
  -28.1058  -36.2625   24.6286 H   0  0  0  0  0  0
  -27.2286  -37.1444   25.8873 H   0  0  0  0  0  0
  -20.9387  -29.8801   21.6895 H   0  0  0  0  0  0
  -26.0135  -38.2828   24.1442 H   0  0  0  0  0  0
  -32.1556  -20.0979   20.7805 H   0  0  0  0  0  0
  -26.1135  -25.0395   21.4386 H   0  0  0  0  0  0
  -26.8612  -23.4832   21.6164 H   0  0  0  0  0  0
  -26.4274  -24.0345   20.0095 H   0  0  0  0  0  0
  -28.8160  -17.1551   18.5095 H   0  0  0  0  0  0
  -28.9988  -15.4313   18.2772 H   0  0  0  0  0  0
  -30.4026  -16.4738   18.1873 H   0  0  0  0  0  0
  -29.6793  -21.9714   19.3982 H   0  0  0  0  0  0
  -28.0676  -22.0350   19.9767 H   0  0  0  0  0  0
  -29.5424  -24.1727   19.3559 H   0  0  0  0  0  0
  -30.2382  -24.0593   20.9164 H   0  0  0  0  0  0
  -28.7315  -21.0402   22.0959 H   0  0  0  0  0  0
  -30.3427  -21.6464   21.9739 H   0  0  0  0  0  0
  -28.4966  -25.1986   21.8810 H   0  0  0  0  0  0
  1 25  1  0  0  0
  1 30  2  0  0  0
  1 79  1  0  0  0
  2  3  1  0  0  0
  2 25  1  0  0  0
  2 84  1  0  0  0
  2 85  1  0  0  0
  3  4  1  0  0  0
  3 86  1  0  0  0
  3 87  1  0  0  0
  4  5  1  0  0  0
  4 88  1  0  0  0
  4 89  1  0  0  0
  5  6  1  0  0  0
  5 26  1  0  0  0
  5 90  1  0  0  0
  6 25  1  0  0  0
  6 91  1  0  0  0
  6 92  1  0  0  0
  7  8  2  0  0  0
  7 26  1  0  0  0
  7 29  1  0  0  0
  8  9  1  0  0  0
  8 22  1  0  0  0
  9 10  1  0  0  0
  9 27  2  0  0  0
 10 11  2  0  0  0
 10 15  1  0  0  0
 11 12  1  0  0  0
 11 93  1  0  0  0
 12 13  2  0  0  0
 12 94  1  0  0  0
 13 14  1  0  0  0
 13 31  1  0  0  0
 14 15  2  0  0  0
 14 95  1  0  0  0
 15 96  1  0  0  0
 16 17  2  0  0  0
 16 21  1  0  0  0
 16 31  1  0  0  0
 17 18  1  0  0  0
 17 97  1  0  0  0
 18 19  2  0  0  0
 18 98  1  0  0  0
 19 20  1  0  0  0
 19 24  1  0  0  0
 20 21  2  0  0  0
 20 99  1  0  0  0
 21 23  1  0  0  0
 22 28  1  0  0  0
 22 32  2  0  0  0
 26 27  1  0  0  0
 28100  1  0  0  0
 28101  1  0  0  0
 29102  1  0  0  0
 29103  1  0  0  0
 33 34  1  0  0  0
 33 66  1  0  0  0
 33 70  2  0  0  0
 34 36  1  0  0  0
 34 59  1  0  0  0
 34104  1  0  0  0
 35 44  2  0  0  0
 35 45  1  0  0  0
 35 68  1  0  0  0
 36 56  1  0  0  0
 36105  1  0  0  0
 37 39  1  0  0  0
 37 47  1  0  0  0
 37 66  1  0  0  0
 37106  1  0  0  0
 38 43  2  0  0  0
 38 46  1  0  0  0
 38 47  1  0  0  0
 39 64  1  0  0  0
 39 67  2  0  0  0
 40 52  1  0  0  0
 40 53  2  0  0  0
 40 58  1  0  0  0
 41107  1  0  0  0
 41108  1  0  0  0
 41109  1  0  0  0
 41 48  1  0  0  0
 42 43  1  0  0  0
 42 66  1  0  0  0
 42110  1  0  0  0
 42111  1  0  0  0
 43 44  1  0  0  0
 44112  1  0  0  0
 45 46  2  0  0  0
 45113  1  0  0  0
 46114  1  0  0  0
 47115  1  0  0  0
 47116  1  0  0  0
 48 56  1  0  0  0
 48 65  1  0  0  0
 48117  1  0  0  0
 49 50  1  0  0  0
 49 53  1  0  0  0
 49 64  1  0  0  0
 49118  1  0  0  0
 50 51  1  0  0  0
 50119  1  0  0  0
 50120  1  0  0  0
 51 52  1  0  0  0
 51121  1  0  0  0
 51122  1  0  0  0
 52123  1  0  0  0
 52124  1  0  0  0
 53 54  1  0  0  0
 54 55  2  0  0  0
 54125  1  0  0  0
 55 57  1  0  0  0
 55126  1  0  0  0
 56 69  2  0  0  0
 57 58  2  0  0  0
 57127  1  0  0  0
 58128  1  0  0  0
 59 60  1  0  0  0
 59 61  1  0  0  0
 59 62  1  0  0  0
 60129  1  0  0  0
 60130  1  0  0  0
 60131  1  0  0  0
 61132  1  0  0  0
 61133  1  0  0  0
 61134  1  0  0  0
 62135  1  0  0  0
 62136  1  0  0  0
 62137  1  0  0  0
 63 65  1  0  0  0
 63138  1  0  0  0
 63139  1  0  0  0
 63140  1  0  0  0
 64141  1  0  0  0
 65142  1  0  0  0
 68 78  1  0  0  0
 71 80  2  0  0  0
 71 82  1  0  0  0
 71143  1  0  0  0
 72 79  1  0  0  0
 72 80  1  0  0  0
 72 81  2  0  0  0
 73144  1  0  0  0
 73145  1  0  0  0
 73146  1  0  0  0
 73 78  1  0  0  0
 74147  1  0  0  0
 74148  1  0  0  0
 74149  1  0  0  0
 74 79  1  0  0  0
 75 76  1  0  0  0
 75 77  1  0  0  0
 75150  1  0  0  0
 75151  1  0  0  0
 76 78  1  0  0  0
 76152  1  0  0  0
 76153  1  0  0  0
 77 82  1  0  0  0
 77154  1  0  0  0
 77155  1  0  0  0
 78156  1  0  0  0
 79 83  1  0  0  0
 81 82  1  0  0  0
M  ISO  4   1 100  68 101  78 101  79 100
M  END
> <chiral flag>
0

> <version>
0

> <s_m_source_file>
/data/baiqing/PycharmProjects/Reinvent-master-3.2/result/LINK_invent/BTK/process_docking_weight1_custom_sum_contain_oxygen_bond_distance_aromatic_linkinvent_7_9_3/rearranged_h_0061.sdf

> <i_m_source_file_index>
23

> <r_mmod_Potential_Energy-OPLS-2005>
447.665557861328

> <r_mmod_Stretch_Energy-OPLS-2005>
142.356094360352

> <r_mmod_Bend_Energy-OPLS-2005>
219.219696044922

> <r_mmod_Torsional_Energy-OPLS-2005>
245.608581542969

> <r_mmod_Improper_Torsional_Energy-OPLS-2005>
12.4233741760254

> <r_mmod_Van_der_Waal_Energy-OPLS-2005>
119.019630432129

> <r_mmod_Electrostatic_Energy-OPLS-2005>
-178.753005981445

> <r_mmod_Solvation_Energy-OPLS-2005>
-208.270950317383

> <b_mmod_Minimization_Converged-OPLS-2005>
0

> <r_mmod_RMS_Derivative-OPLS-2005>
2.73231053352356

$$$$
23
                    3D
 Structure written by MMmdl.
178186  0  0  1  0            999 V2000
  -30.7242  -14.4691   20.5282 C   0  0  0  0  0  0
  -30.4053  -12.2860   19.4509 C   0  0  0  0  0  0
  -29.4971  -12.4900   18.2204 C   0  0  0  0  0  0
  -28.0154  -12.3679   18.6232 C   0  0  0  0  0  0
  -27.6576  -13.2226   19.8694 C   0  0  2  0  0  0
  -28.6953  -13.0507   21.0012 C   0  0  0  0  0  0
  -25.2573  -13.8212   20.5691 C   0  0  0  0  0  0
  -24.1836  -13.0463   20.9173 C   0  0  0  0  0  0
  -24.6410  -11.6939   20.8733 C   0  0  0  0  0  0
  -23.9083  -10.4310   21.0403 C   0  0  0  0  0  0
  -24.3627   -9.4220   21.9182 C   0  0  0  0  0  0
  -23.6298   -8.2256   22.0755 C   0  0  0  0  0  0
  -22.4281   -8.0293   21.3547 C   0  0  0  0  0  0
  -21.9922   -9.0269   20.4649 C   0  0  0  0  0  0
  -22.7256  -10.2146   20.3055 C   0  0  0  0  0  0
  -21.6858   -6.0740   22.5275 C   0  0  0  0  0  0
  -21.4018   -6.5640   23.8208 C   0  0  0  0  0  0
  -21.3657   -5.6794   24.9169 C   0  0  0  0  0  0
  -21.6041   -4.3057   24.7221 C   0  0  0  0  0  0
  -21.8819   -3.8152   23.4342 C   0  0  0  0  0  0
  -21.9196   -4.6969   22.3399 C   0  0  0  0  0  0
  -22.7855  -13.5250   21.1838 C   0  0  0  0  0  0
  -22.1662   -4.2154   21.0977 F   0  0  0  0  0  0
  -21.5626   -3.4543   25.7733 F   0  0  0  0  0  0
  -30.0311  -13.3014   20.4501 N   0  0  0  0  0  0
  -26.3016  -12.9409   20.3356 N   0  0  0  0  0  0
  -25.9345  -11.6551   20.5767 N   0  0  0  0  0  0
  -22.0501  -12.8230   22.0388 N   0  0  0  0  0  0
  -25.4294  -15.1929   20.4132 N   0  0  0  0  0  0
  -31.8767  -14.5704   20.0986 O   0  0  0  0  0  0
  -21.6647   -6.8888   21.4239 O   0  0  0  0  0  0
  -22.3531  -14.5559   20.6696 O   0  0  0  0  0  0
  -24.6174  -31.8721   23.2110 C   0  0  0  0  0  0
  -25.9062  -32.4839   23.8424 C   0  0  1  0  0  0
  -27.2195  -27.4126   20.1131 C   0  0  0  0  0  0
  -25.5926  -33.8639   24.2365 N   0  0  0  0  0  0
  -23.4043  -30.4975   21.5527 C   0  0  2  0  0  0
  -24.8474  -28.9618   20.1192 C   0  0  0  0  0  0
  -22.7414  -29.4699   22.4988 C   0  0  0  0  0  0
  -18.0275  -28.1382   22.8490 C   0  0  0  0  0  0
  -24.1492  -36.7303   23.2643 C   0  0  0  0  0  0
  -25.9351  -30.8301   21.3686 C   0  0  0  0  0  0
  -26.0082  -29.4611   20.7218 C   0  0  0  0  0  0
  -27.1990  -28.6946   20.7150 C   0  0  0  0  0  0
  -26.0473  -26.9491   19.4801 C   0  0  0  0  0  0
  -24.8627  -27.7058   19.4953 C   0  0  0  0  0  0
  -23.6118  -29.8323   20.1670 C   0  0  0  0  0  0
  -25.4105  -36.3120   24.0360 C   0  0  1  0  0  0
  -20.5871  -28.3691   23.1299 C   0  0  2  0  0  0
  -20.6778  -26.9424   22.5407 C   0  0  0  0  0  0
  -19.5753  -26.6389   21.5213 C   0  0  0  0  0  0
  -18.1923  -26.7932   22.1619 C   0  0  0  0  0  0
  -19.1527  -28.8850   23.2898 C   0  0  0  0  0  0
  -18.9453  -30.1443   23.8926 C   0  0  0  0  0  0
  -17.6459  -30.6591   24.0562 C   0  0  0  0  0  0
  -25.9035  -34.9486   23.5156 C   0  0  0  0  0  0
  -16.5348  -29.9086   23.6330 C   0  0  0  0  0  0
  -16.7265  -28.6501   23.0359 C   0  0  0  0  0  0
  -26.4478  -31.6605   25.0749 C   0  0  0  0  0  0
  -25.3726  -31.3674   26.1484 C   0  0  0  0  0  0
  -27.0338  -30.3063   24.6111 C   0  0  0  0  0  0
  -27.6079  -32.4308   25.7486 C   0  0  0  0  0  0
  -27.5579  -37.1800   24.8472 C   0  0  0  0  0  0
  -21.4144  -29.3069   22.3712 N   0  0  0  0  0  0
  -26.4290  -37.3797   23.9423 N   0  0  0  0  0  0
  -24.6707  -31.0817   22.1020 N   0  0  0  0  0  0
  -23.4183  -28.8238   23.3037 O   0  0  0  0  0  0
  -28.3870  -26.6740   20.0798 O   0  0  0  0  0  0
  -26.5562  -34.8922   22.4691 O   0  0  0  0  0  0
  -23.5365  -32.1495   23.7487 O   0  0  0  0  0  0
  -29.7491  -16.2324   22.1175 C   0  0  0  0  0  0
  -30.0447  -15.7559   20.8677 C   0  0  0  0  0  0
  -29.4815  -17.6249   21.8926 C   0  0  0  0  0  0
  -27.8363  -21.1186   16.5723 C   0  0  0  0  0  0
  -30.2944  -21.4665   21.8811 C   0  0  0  0  0  0
  -26.9801  -19.3197   22.2436 C   0  0  0  0  0  0
  -28.1247  -20.6126   24.0498 C   0  0  0  0  0  0
  -30.1489  -16.8278   18.5378 C   0  0  0  0  0  0
  -29.3510  -18.7302   22.9330 C   0  0  0  0  0  0
  -28.4173  -22.0132   17.6758 C   0  0  0  0  0  0
  -27.5467  -22.0038   18.9443 C   0  0  0  0  0  0
  -27.6217  -24.2551   19.9166 C   0  0  0  0  0  0
  -27.9244  -22.2102   21.3767 C   0  0  0  0  0  0
  -28.3996  -25.3579   20.6873 C   0  0  0  0  0  0
  -28.8560  -20.9678   21.6187 C   0  0  2  0  0  0
  -28.3400  -19.9149   22.6857 C   0  0  0  0  0  0
  -29.5648  -17.9352   20.6033 N   0  0  0  0  0  0
  -29.9081  -16.7948   19.9687 N   0  0  0  0  0  0
  -28.1230  -22.8446   20.0358 N   0  3  1  0  0  0
  -31.4562  -12.3396   19.1603 H   0  0  0  0  0  0
  -30.2646  -11.2869   19.8655 H   0  0  0  0  0  0
  -29.7347  -11.7542   17.4510 H   0  0  0  0  0  0
  -29.6828  -13.4677   17.7742 H   0  0  0  0  0  0
  -27.8173  -11.3152   18.8268 H   0  0  0  0  0  0
  -27.3729  -12.6398   17.7846 H   0  0  0  0  0  0
  -27.6912  -14.2652   19.5524 H   0  0  0  0  0  0
  -28.6550  -12.0415   21.4126 H   0  0  0  0  0  0
  -28.4711  -13.7223   21.8309 H   0  0  0  0  0  0
  -25.2773   -9.5694   22.4760 H   0  0  0  0  0  0
  -24.0005   -7.4652   22.7479 H   0  0  0  0  0  0
  -21.0853   -8.8793   19.8954 H   0  0  0  0  0  0
  -22.3718  -10.9687   19.6160 H   0  0  0  0  0  0
  -21.2014   -7.6148   23.9713 H   0  0  0  0  0  0
  -21.1474   -6.0524   25.9072 H   0  0  0  0  0  0
  -22.0603   -2.7614   23.2842 H   0  0  0  0  0  0
  -22.4116  -11.9887   22.4763 H   0  0  0  0  0  0
  -21.1117  -13.1250   22.2601 H   0  0  0  0  0  0
  -24.6701  -15.8533   20.5395 H   0  0  0  0  0  0
  -26.2997  -15.6372   20.1463 H   0  0  0  0  0  0
  -26.7125  -32.5550   23.1183 H   0  0  0  0  0  0
  -25.0155  -33.9836   25.0564 H   0  0  0  0  0  0
  -22.6941  -31.3154   21.4122 H   0  0  0  0  0  0
  -23.3764  -35.9625   23.3325 H   0  0  0  0  0  0
  -24.3595  -36.8905   22.2053 H   0  0  0  0  0  0
  -23.7221  -37.6505   23.6640 H   0  0  0  0  0  0
  -26.0493  -31.5935   20.5977 H   0  0  0  0  0  0
  -26.8247  -30.8877   21.9842 H   0  0  0  0  0  0
  -28.0980  -29.0770   21.1782 H   0  0  0  0  0  0
  -26.0301  -26.0188   18.9375 H   0  0  0  0  0  0
  -23.9747  -27.3231   19.0120 H   0  0  0  0  0  0
  -23.7196  -30.6108   19.4109 H   0  0  0  0  0  0
  -22.7340  -29.2565   19.8678 H   0  0  0  0  0  0
  -25.1264  -36.2005   25.0855 H   0  0  0  0  0  0
  -20.9964  -28.3272   24.1421 H   0  0  0  0  0  0
  -20.5724  -26.2304   23.3608 H   0  0  0  0  0  0
  -21.6642  -26.7494   22.1172 H   0  0  0  0  0  0
  -19.6953  -25.6308   21.1239 H   0  0  0  0  0  0
  -19.6695  -27.3204   20.6747 H   0  0  0  0  0  0
  -17.4203  -26.6696   21.4003 H   0  0  0  0  0  0
  -18.0302  -26.0054   22.8997 H   0  0  0  0  0  0
  -19.7929  -30.7226   24.2337 H   0  0  0  0  0  0
  -17.5017  -31.6282   24.5140 H   0  0  0  0  0  0
  -15.5357  -30.2990   23.7653 H   0  0  0  0  0  0
  -15.8663  -28.0816   22.7089 H   0  0  0  0  0  0
  -24.5927  -30.7001   25.7790 H   0  0  0  0  0  0
  -24.8865  -32.2800   26.4950 H   0  0  0  0  0  0
  -25.8072  -30.8825   27.0236 H   0  0  0  0  0  0
  -26.2898  -29.6765   24.1220 H   0  0  0  0  0  0
  -27.4189  -29.7347   25.4564 H   0  0  0  0  0  0
  -27.8682  -30.4411   23.9219 H   0  0  0  0  0  0
  -27.2762  -33.3629   26.2064 H   0  0  0  0  0  0
  -28.3870  -32.6839   25.0282 H   0  0  0  0  0  0
  -28.0751  -31.8415   26.5383 H   0  0  0  0  0  0
  -28.2597  -38.0094   24.7540 H   0  0  0  0  0  0
  -28.1080  -36.2637   24.6283 H   0  0  0  0  0  0
  -27.2313  -37.1446   25.8878 H   0  0  0  0  0  0
  -20.9315  -29.8785   21.6919 H   0  0  0  0  0  0
  -26.0201  -38.2893   24.1383 H   0  0  0  0  0  0
  -29.8362  -15.7063   23.0574 H   0  0  0  0  0  0
  -28.4512  -21.1601   15.6729 H   0  0  0  0  0  0
  -26.8278  -21.4307   16.2970 H   0  0  0  0  0  0
  -27.7875  -20.0768   16.8946 H   0  0  0  0  0  0
  -30.6073  -22.1915   21.1303 H   0  0  0  0  0  0
  -31.0216  -20.6578   21.8297 H   0  0  0  0  0  0
  -30.3931  -21.9490   22.8530 H   0  0  0  0  0  0
  -26.6815  -18.4970   22.8947 H   0  0  0  0  0  0
  -27.0177  -18.9255   21.2276 H   0  0  0  0  0  0
  -26.1714  -20.0487   22.2804 H   0  0  0  0  0  0
  -27.7174  -19.9226   24.7900 H   0  0  0  0  0  0
  -27.4265  -21.4466   23.9834 H   0  0  0  0  0  0
  -29.0587  -20.9963   24.4613 H   0  0  0  0  0  0
  -29.6738  -15.9699   18.0619 H   0  0  0  0  0  0
  -31.2217  -16.7914   18.3468 H   0  0  0  0  0  0
  -29.7411  -17.7392   18.0987 H   0  0  0  0  0  0
  -30.3399  -19.1103   23.1824 H   0  0  0  0  0  0
  -29.0438  -18.2349   23.8548 H   0  0  0  0  0  0
  -28.5211  -23.0288   17.2928 H   0  0  0  0  0  0
  -29.4241  -21.6671   17.9144 H   0  0  0  0  0  0
  -27.4241  -20.9682   19.2599 H   0  0  0  0  0  0
  -26.5333  -22.3379   18.7103 H   0  0  0  0  0  0
  -27.6763  -24.5241   18.8621 H   0  0  0  0  0  0
  -26.5687  -24.2782   20.2012 H   0  0  0  0  0  0
  -28.1052  -22.9442   22.1629 H   0  0  0  0  0  0
  -26.8713  -21.9473   21.4646 H   0  0  0  0  0  0
  -29.4498  -25.0685   20.7436 H   0  0  0  0  0  0
  -28.0523  -25.4188   21.7192 H   0  0  0  0  0  0
  -28.9194  -20.4174   20.6838 H   0  0  0  0  0  0
  -29.1203  -22.8666   19.8799 H   0  0  0  0  0  0
  1 25  1  0  0  0
  1 30  2  0  0  0
  1 72  1  0  0  0
  2  3  1  0  0  0
  2 25  1  0  0  0
  2 90  1  0  0  0
  2 91  1  0  0  0
  3  4  1  0  0  0
  3 92  1  0  0  0
  3 93  1  0  0  0
  4  5  1  0  0  0
  4 94  1  0  0  0
  4 95  1  0  0  0
  5  6  1  0  0  0
  5 26  1  0  0  0
  5 96  1  0  0  0
  6 25  1  0  0  0
  6 97  1  0  0  0
  6 98  1  0  0  0
  7  8  2  0  0  0
  7 26  1  0  0  0
  7 29  1  0  0  0
  8  9  1  0  0  0
  8 22  1  0  0  0
  9 10  1  0  0  0
  9 27  2  0  0  0
 10 11  2  0  0  0
 10 15  1  0  0  0
 11 12  1  0  0  0
 11 99  1  0  0  0
 12 13  2  0  0  0
 12100  1  0  0  0
 13 14  1  0  0  0
 13 31  1  0  0  0
 14 15  2  0  0  0
 14101  1  0  0  0
 15102  1  0  0  0
 16 17  2  0  0  0
 16 21  1  0  0  0
 16 31  1  0  0  0
 17 18  1  0  0  0
 17103  1  0  0  0
 18 19  2  0  0  0
 18104  1  0  0  0
 19 20  1  0  0  0
 19 24  1  0  0  0
 20 21  2  0  0  0
 20105  1  0  0  0
 21 23  1  0  0  0
 22 28  1  0  0  0
 22 32  2  0  0  0
 26 27  1  0  0  0
 28106  1  0  0  0
 28107  1  0  0  0
 29108  1  0  0  0
 29109  1  0  0  0
 33 34  1  0  0  0
 33 66  1  0  0  0
 33 70  2  0  0  0
 34 36  1  0  0  0
 34 59  1  0  0  0
 34110  1  0  0  0
 35 44  2  0  0  0
 35 45  1  0  0  0
 35 68  1  0  0  0
 36 56  1  0  0  0
 36111  1  0  0  0
 37 39  1  0  0  0
 37 47  1  0  0  0
 37 66  1  0  0  0
 37112  1  0  0  0
 38 43  2  0  0  0
 38 46  1  0  0  0
 38 47  1  0  0  0
 39 64  1  0  0  0
 39 67  2  0  0  0
 40 52  1  0  0  0
 40 53  2  0  0  0
 40 58  1  0  0  0
 41113  1  0  0  0
 41114  1  0  0  0
 41115  1  0  0  0
 41 48  1  0  0  0
 42 43  1  0  0  0
 42 66  1  0  0  0
 42116  1  0  0  0
 42117  1  0  0  0
 43 44  1  0  0  0
 44118  1  0  0  0
 45 46  2  0  0  0
 45119  1  0  0  0
 46120  1  0  0  0
 47121  1  0  0  0
 47122  1  0  0  0
 48 56  1  0  0  0
 48 65  1  0  0  0
 48123  1  0  0  0
 49 50  1  0  0  0
 49 53  1  0  0  0
 49 64  1  0  0  0
 49124  1  0  0  0
 50 51  1  0  0  0
 50125  1  0  0  0
 50126  1  0  0  0
 51 52  1  0  0  0
 51127  1  0  0  0
 51128  1  0  0  0
 52129  1  0  0  0
 52130  1  0  0  0
 53 54  1  0  0  0
 54 55  2  0  0  0
 54131  1  0  0  0
 55 57  1  0  0  0
 55132  1  0  0  0
 56 69  2  0  0  0
 57 58  2  0  0  0
 57133  1  0  0  0
 58134  1  0  0  0
 59 60  1  0  0  0
 59 61  1  0  0  0
 59 62  1  0  0  0
 60135  1  0  0  0
 60136  1  0  0  0
 60137  1  0  0  0
 61138  1  0  0  0
 61139  1  0  0  0
 61140  1  0  0  0
 62141  1  0  0  0
 62142  1  0  0  0
 62143  1  0  0  0
 63 65  1  0  0  0
 63144  1  0  0  0
 63145  1  0  0  0
 63146  1  0  0  0
 64147  1  0  0  0
 65148  1  0  0  0
 68 84  1  0  0  0
 71 72  2  0  0  0
 71 73  1  0  0  0
 71149  1  0  0  0
 72 88  1  0  0  0
 73 79  1  0  0  0
 73 87  2  0  0  0
 74 80  1  0  0  0
 74150  1  0  0  0
 74151  1  0  0  0
 74152  1  0  0  0
 75153  1  0  0  0
 75154  1  0  0  0
 75155  1  0  0  0
 75 85  1  0  0  0
 76156  1  0  0  0
 76157  1  0  0  0
 76158  1  0  0  0
 76 86  1  0  0  0
 77 86  1  0  0  0
 77159  1  0  0  0
 77160  1  0  0  0
 77161  1  0  0  0
 78 88  1  0  0  0
 78162  1  0  0  0
 78163  1  0  0  0
 78164  1  0  0  0
 79 86  1  0  0  0
 79165  1  0  0  0
 79166  1  0  0  0
 80 81  1  0  0  0
 80167  1  0  0  0
 80168  1  0  0  0
 81169  1  0  0  0
 81170  1  0  0  0
 81 89  1  0  0  0
 82 84  1  0  0  0
 82 89  1  0  0  0
 82171  1  0  0  0
 82172  1  0  0  0
 83 85  1  0  0  0
 83 89  1  0  0  0
 83173  1  0  0  0
 83174  1  0  0  0
 84175  1  0  0  0
 84176  1  0  0  0
 85 86  1  0  0  0
 85177  1  0  0  0
 87 88  1  0  0  0
 89178  1  0  0  0
M  CHG  1  89   1
M  ISO  4   1 100  68 101  72 100  84 101
M  END
> <chiral flag>
0

> <version>
0

> <s_m_source_file>
/data/baiqing/PycharmProjects/Reinvent-master-3.2/result/LINK_invent/BTK/process_docking_weight1_custom_sum_contain_oxygen_bond_distance_aromatic_linkinvent_7_9_3/rearranged_h_0061.sdf

> <i_m_source_file_index>
24

> <r_mmod_Potential_Energy-OPLS-2005>
79.7393188476562

> <r_mmod_Stretch_Energy-OPLS-2005>
47.5048866271973

> <r_mmod_Bend_Energy-OPLS-2005>
131.837326049805

> <r_mmod_Torsional_Energy-OPLS-2005>
271.354278564453

> <r_mmod_Improper_Torsional_Energy-OPLS-2005>
9.15741443634033

> <r_mmod_Van_der_Waal_Energy-OPLS-2005>
122.450263977051

> <r_mmod_Electrostatic_Energy-OPLS-2005>
-143.622802734375

> <r_mmod_Solvation_Energy-OPLS-2005>
-375.802459716797

> <b_mmod_Minimization_Converged-OPLS-2005>
0

> <r_mmod_RMS_Derivative-OPLS-2005>
1.94527947902679

$$$$
24
                    3D
 Structure written by MMmdl.
152160  0  0  1  0            999 V2000
  -30.5966  -14.7671   20.4845 C   0  0  0  0  0  0
  -30.4417  -12.4732   19.4947 C   0  0  0  0  0  0
  -29.5270  -12.5204   18.2525 C   0  0  0  0  0  0
  -28.0476  -12.3495   18.6525 C   0  0  0  0  0  0
  -27.6493  -13.2399   19.8605 C   0  0  2  0  0  0
  -28.6848  -13.1718   21.0019 C   0  0  0  0  0  0
  -25.2531  -13.8229   20.5733 C   0  0  0  0  0  0
  -24.1828  -13.0450   20.9218 C   0  0  0  0  0  0
  -24.6428  -11.6931   20.8738 C   0  0  0  0  0  0
  -23.9124  -10.4287   21.0395 C   0  0  0  0  0  0
  -24.3665   -9.4207   21.9195 C   0  0  0  0  0  0
  -23.6325   -8.2244   22.0754 C   0  0  0  0  0  0
  -22.4303   -8.0296   21.3533 C   0  0  0  0  0  0
  -21.9943   -9.0285   20.4648 C   0  0  0  0  0  0
  -22.7282  -10.2159   20.3049 C   0  0  0  0  0  0
  -21.6859   -6.0764   22.5279 C   0  0  0  0  0  0
  -21.4026   -6.5649   23.8223 C   0  0  0  0  0  0
  -21.3660   -5.6783   24.9172 C   0  0  0  0  0  0
  -21.6043   -4.3049   24.7211 C   0  0  0  0  0  0
  -21.8811   -3.8160   23.4327 C   0  0  0  0  0  0
  -21.9189   -4.6990   22.3393 C   0  0  0  0  0  0
  -22.7834  -13.5219   21.1851 C   0  0  0  0  0  0
  -22.1653   -4.2191   21.0967 F   0  0  0  0  0  0
  -21.5626   -3.4518   25.7719 F   0  0  0  0  0  0
  -29.9882  -13.5290   20.4292 N   0  0  0  0  0  0
  -26.2975  -12.9458   20.3294 N   0  0  0  0  0  0
  -25.9361  -11.6592   20.5750 N   0  0  0  0  0  0
  -22.0456  -12.8233   22.0407 N   0  0  0  0  0  0
  -25.4189  -15.1971   20.4210 N   0  0  0  0  0  0
  -31.7723  -14.8846   20.1296 O   0  0  0  0  0  0
  -21.6638   -6.8917   21.4243 O   0  0  0  0  0  0
  -22.3528  -14.5518   20.6677 O   0  0  0  0  0  0
  -24.6305  -31.8564   23.1970 C   0  0  0  0  0  0
  -25.9112  -32.4746   23.8368 C   0  0  1  0  0  0
  -27.2281  -27.2659   20.1379 C   0  0  0  0  0  0
  -25.5895  -33.8550   24.2272 N   0  0  0  0  0  0
  -23.4304  -30.4749   21.5396 C   0  0  2  0  0  0
  -24.8813  -28.9239   20.1023 C   0  0  0  0  0  0
  -22.7521  -29.4596   22.4909 C   0  0  0  0  0  0
  -18.0309  -28.1419   22.8510 C   0  0  0  0  0  0
  -24.1490  -36.7317   23.2634 C   0  0  0  0  0  0
  -25.9740  -30.7680   21.3786 C   0  0  0  0  0  0
  -26.0475  -29.3914   20.7200 C   0  0  0  0  0  0
  -27.2214  -28.5742   20.7261 C   0  0  0  0  0  0
  -26.0401  -26.8656   19.4848 C   0  0  0  0  0  0
  -24.8839  -27.6699   19.4702 C   0  0  0  0  0  0
  -23.6518  -29.8106   20.1537 C   0  0  0  0  0  0
  -25.4096  -36.3054   24.0328 C   0  0  1  0  0  0
  -20.5917  -28.3725   23.1294 C   0  0  2  0  0  0
  -20.6797  -26.9442   22.5429 C   0  0  0  0  0  0
  -19.5751  -26.6397   21.5258 C   0  0  0  0  0  0
  -18.1935  -26.7954   22.1658 C   0  0  0  0  0  0
  -19.1554  -28.8885   23.2896 C   0  0  0  0  0  0
  -18.9463  -30.1500   23.8902 C   0  0  0  0  0  0
  -17.6452  -30.6598   24.0587 C   0  0  0  0  0  0
  -25.9039  -34.9430   23.5100 C   0  0  0  0  0  0
  -16.5356  -29.9108   23.6326 C   0  0  0  0  0  0
  -16.7293  -28.6535   23.0331 C   0  0  0  0  0  0
  -26.4464  -31.6554   25.0759 C   0  0  0  0  0  0
  -25.3679  -31.3758   26.1483 C   0  0  0  0  0  0
  -27.0280  -30.2937   24.6263 C   0  0  0  0  0  0
  -27.6001  -32.4316   25.7538 C   0  0  0  0  0  0
  -27.5580  -37.1792   24.8446 C   0  0  0  0  0  0
  -21.4224  -29.3051   22.3651 N   0  0  0  0  0  0
  -26.4269  -37.3757   23.9424 N   0  0  0  0  0  0
  -24.6978  -31.0518   22.0954 N   0  0  0  0  0  0
  -23.4211  -28.8152   23.3026 O   0  0  0  0  0  0
  -28.3324  -26.3852   20.2270 O   0  0  0  0  0  0
  -26.5640  -34.8899   22.4694 O   0  0  0  0  0  0
  -23.5438  -32.1431   23.7207 O   0  0  0  0  0  0
  -28.9947  -21.2175   21.3402 C   0  0  0  0  0  0
  -29.1515  -22.2834   20.4540 C   0  0  0  0  0  0
  -29.6144  -18.4903   22.6350 C   0  0  0  0  0  0
  -29.1976  -23.8597   20.6759 C   0  0  0  0  0  0
  -30.0550  -17.3629   20.3705 C   0  0  0  0  0  0
  -28.1541  -24.9035   20.0179 C   0  0  0  0  0  0
  -29.2403  -18.5422   21.1423 C   0  0  2  0  0  0
  -29.5201  -21.6574   19.2517 N   0  0  0  0  0  0
  -29.5718  -20.3444   19.3758 N   0  0  0  0  0  0
  -29.3092  -20.0064   20.6682 N   0  0  0  0  0  0
  -29.8086  -15.8853   20.7274 N   0  0  0  0  0  0
  -31.4822  -12.6099   19.1941 H   0  0  0  0  0  0
  -30.3987  -11.4959   19.9799 H   0  0  0  0  0  0
  -29.8227  -11.7451   17.5446 H   0  0  0  0  0  0
  -29.6584  -13.4719   17.7367 H   0  0  0  0  0  0
  -27.8913  -11.2995   18.9016 H   0  0  0  0  0  0
  -27.4029  -12.5672   17.8011 H   0  0  0  0  0  0
  -27.6486  -14.2662   19.4903 H   0  0  0  0  0  0
  -28.7180  -12.1774   21.4496 H   0  0  0  0  0  0
  -28.4121  -13.8591   21.8050 H   0  0  0  0  0  0
  -25.2818   -9.5690   22.4763 H   0  0  0  0  0  0
  -24.0035   -7.4639   22.7468 H   0  0  0  0  0  0
  -21.0872   -8.8827   19.8960 H   0  0  0  0  0  0
  -22.3762  -10.9708   19.6160 H   0  0  0  0  0  0
  -21.2015   -7.6156   23.9750 H   0  0  0  0  0  0
  -21.1494   -6.0499   25.9086 H   0  0  0  0  0  0
  -22.0590   -2.7627   23.2790 H   0  0  0  0  0  0
  -22.4067  -11.9923   22.4837 H   0  0  0  0  0  0
  -21.1074  -13.1287   22.2589 H   0  0  0  0  0  0
  -24.6467  -15.8407   20.5518 H   0  0  0  0  0  0
  -26.2540  -15.6470   20.0671 H   0  0  0  0  0  0
  -26.7196  -32.5394   23.1140 H   0  0  0  0  0  0
  -24.9940  -33.9717   25.0335 H   0  0  0  0  0  0
  -22.7264  -31.2960   21.3941 H   0  0  0  0  0  0
  -23.3717  -35.9678   23.3243 H   0  0  0  0  0  0
  -24.3618  -36.9002   22.2063 H   0  0  0  0  0  0
  -23.7270  -37.6510   23.6712 H   0  0  0  0  0  0
  -26.1095  -31.5254   20.6053 H   0  0  0  0  0  0
  -26.8533  -30.8224   22.0104 H   0  0  0  0  0  0
  -28.1091  -28.9254   21.2337 H   0  0  0  0  0  0
  -25.9766  -25.9027   18.9974 H   0  0  0  0  0  0
  -23.9920  -27.3099   18.9756 H   0  0  0  0  0  0
  -23.7798  -30.5929   19.4046 H   0  0  0  0  0  0
  -22.7721  -29.2448   19.8420 H   0  0  0  0  0  0
  -25.1254  -36.1901   25.0814 H   0  0  0  0  0  0
  -21.0033  -28.3306   24.1410 H   0  0  0  0  0  0
  -20.5790  -26.2322   23.3635 H   0  0  0  0  0  0
  -21.6651  -26.7533   22.1162 H   0  0  0  0  0  0
  -19.6910  -25.6314   21.1270 H   0  0  0  0  0  0
  -19.6654  -27.3229   20.6806 H   0  0  0  0  0  0
  -17.4219  -26.6765   21.4038 H   0  0  0  0  0  0
  -18.0297  -26.0115   22.9063 H   0  0  0  0  0  0
  -19.7929  -30.7351   24.2241 H   0  0  0  0  0  0
  -17.4987  -31.6266   24.5224 H   0  0  0  0  0  0
  -15.5346  -30.2999   23.7619 H   0  0  0  0  0  0
  -15.8711  -28.0862   22.6991 H   0  0  0  0  0  0
  -24.5831  -30.7125   25.7841 H   0  0  0  0  0  0
  -24.8898  -32.2951   26.4870 H   0  0  0  0  0  0
  -25.7979  -30.8969   27.0287 H   0  0  0  0  0  0
  -26.2872  -29.6717   24.1221 H   0  0  0  0  0  0
  -27.3842  -29.7173   25.4815 H   0  0  0  0  0  0
  -27.8814  -30.4164   23.9590 H   0  0  0  0  0  0
  -27.2557  -33.3601   26.2121 H   0  0  0  0  0  0
  -28.3793  -32.6910   25.0356 H   0  0  0  0  0  0
  -28.0693  -31.8456   26.5456 H   0  0  0  0  0  0
  -28.2511  -38.0156   24.7510 H   0  0  0  0  0  0
  -28.1146  -36.2684   24.6194 H   0  0  0  0  0  0
  -27.2348  -37.1356   25.8857 H   0  0  0  0  0  0
  -20.9424  -29.8736   21.6805 H   0  0  0  0  0  0
  -26.0128  -38.2821   24.1425 H   0  0  0  0  0  0
  -28.7312  -21.2281   22.3906 H   0  0  0  0  0  0
  -29.5638  -17.4750   23.0257 H   0  0  0  0  0  0
  -28.9514  -19.1054   23.2460 H   0  0  0  0  0  0
  -30.6349  -18.8465   22.7828 H   0  0  0  0  0  0
  -30.1929  -24.1953   20.3838 H   0  0  0  0  0  0
  -29.1679  -24.0445   21.7482 H   0  0  0  0  0  0
  -31.1228  -17.5636   20.4646 H   0  0  0  0  0  0
  -29.8371  -17.4558   19.3066 H   0  0  0  0  0  0
  -27.1659  -24.6086   20.3712 H   0  0  0  0  0  0
  -28.1565  -24.7452   18.9397 H   0  0  0  0  0  0
  -28.1844  -18.2781   21.0708 H   0  0  0  0  0  0
  -28.8636  -15.6711   21.0116 H   0  0  0  0  0  0
  1 25  1  0  0  0
  1 30  2  0  0  0
  1 81  1  0  0  0
  2  3  1  0  0  0
  2 25  1  0  0  0
  2 82  1  0  0  0
  2 83  1  0  0  0
  3  4  1  0  0  0
  3 84  1  0  0  0
  3 85  1  0  0  0
  4  5  1  0  0  0
  4 86  1  0  0  0
  4 87  1  0  0  0
  5  6  1  0  0  0
  5 26  1  0  0  0
  5 88  1  0  0  0
  6 25  1  0  0  0
  6 89  1  0  0  0
  6 90  1  0  0  0
  7  8  2  0  0  0
  7 26  1  0  0  0
  7 29  1  0  0  0
  8  9  1  0  0  0
  8 22  1  0  0  0
  9 10  1  0  0  0
  9 27  2  0  0  0
 10 11  2  0  0  0
 10 15  1  0  0  0
 11 12  1  0  0  0
 11 91  1  0  0  0
 12 13  2  0  0  0
 12 92  1  0  0  0
 13 14  1  0  0  0
 13 31  1  0  0  0
 14 15  2  0  0  0
 14 93  1  0  0  0
 15 94  1  0  0  0
 16 17  2  0  0  0
 16 21  1  0  0  0
 16 31  1  0  0  0
 17 18  1  0  0  0
 17 95  1  0  0  0
 18 19  2  0  0  0
 18 96  1  0  0  0
 19 20  1  0  0  0
 19 24  1  0  0  0
 20 21  2  0  0  0
 20 97  1  0  0  0
 21 23  1  0  0  0
 22 28  1  0  0  0
 22 32  2  0  0  0
 26 27  1  0  0  0
 28 98  1  0  0  0
 28 99  1  0  0  0
 29100  1  0  0  0
 29101  1  0  0  0
 33 34  1  0  0  0
 33 66  1  0  0  0
 33 70  2  0  0  0
 34 36  1  0  0  0
 34 59  1  0  0  0
 34102  1  0  0  0
 35 44  2  0  0  0
 35 45  1  0  0  0
 35 68  1  0  0  0
 36 56  1  0  0  0
 36103  1  0  0  0
 37 39  1  0  0  0
 37 47  1  0  0  0
 37 66  1  0  0  0
 37104  1  0  0  0
 38 43  2  0  0  0
 38 46  1  0  0  0
 38 47  1  0  0  0
 39 64  1  0  0  0
 39 67  2  0  0  0
 40 52  1  0  0  0
 40 53  2  0  0  0
 40 58  1  0  0  0
 41105  1  0  0  0
 41106  1  0  0  0
 41107  1  0  0  0
 41 48  1  0  0  0
 42 43  1  0  0  0
 42 66  1  0  0  0
 42108  1  0  0  0
 42109  1  0  0  0
 43 44  1  0  0  0
 44110  1  0  0  0
 45 46  2  0  0  0
 45111  1  0  0  0
 46112  1  0  0  0
 47113  1  0  0  0
 47114  1  0  0  0
 48 56  1  0  0  0
 48 65  1  0  0  0
 48115  1  0  0  0
 49 50  1  0  0  0
 49 53  1  0  0  0
 49 64  1  0  0  0
 49116  1  0  0  0
 50 51  1  0  0  0
 50117  1  0  0  0
 50118  1  0  0  0
 51 52  1  0  0  0
 51119  1  0  0  0
 51120  1  0  0  0
 52121  1  0  0  0
 52122  1  0  0  0
 53 54  1  0  0  0
 54 55  2  0  0  0
 54123  1  0  0  0
 55 57  1  0  0  0
 55124  1  0  0  0
 56 69  2  0  0  0
 57 58  2  0  0  0
 57125  1  0  0  0
 58126  1  0  0  0
 59 60  1  0  0  0
 59 61  1  0  0  0
 59 62  1  0  0  0
 60127  1  0  0  0
 60128  1  0  0  0
 60129  1  0  0  0
 61130  1  0  0  0
 61131  1  0  0  0
 61132  1  0  0  0
 62133  1  0  0  0
 62134  1  0  0  0
 62135  1  0  0  0
 63 65  1  0  0  0
 63136  1  0  0  0
 63137  1  0  0  0
 63138  1  0  0  0
 64139  1  0  0  0
 65140  1  0  0  0
 68 76  1  0  0  0
 71 72  2  0  0  0
 71 80  1  0  0  0
 71141  1  0  0  0
 72 74  1  0  0  0
 72 78  1  0  0  0
 73142  1  0  0  0
 73143  1  0  0  0
 73144  1  0  0  0
 73 77  1  0  0  0
 74 76  1  0  0  0
 74145  1  0  0  0
 74146  1  0  0  0
 75 77  1  0  0  0
 75 81  1  0  0  0
 75147  1  0  0  0
 75148  1  0  0  0
 76149  1  0  0  0
 76150  1  0  0  0
 77 80  1  0  0  0
 77151  1  0  0  0
 78 79  2  0  0  0
 79 80  1  0  0  0
 81152  1  0  0  0
M  ISO  4   1 100  68 101  76 101  81 100
M  END
> <chiral flag>
0

> <version>
0

> <s_m_source_file>
/data/baiqing/PycharmProjects/Reinvent-master-3.2/result/LINK_invent/BTK/process_docking_weight1_custom_sum_contain_oxygen_bond_distance_aromatic_linkinvent_7_9_3/rearranged_h_0061.sdf

> <i_m_source_file_index>
25

> <r_mmod_Potential_Energy-OPLS-2005>
102.763885498047

> <r_mmod_Stretch_Energy-OPLS-2005>
123.861968994141

> <r_mmod_Bend_Energy-OPLS-2005>
166.182388305664

> <r_mmod_Torsional_Energy-OPLS-2005>
222.885818481445

> <r_mmod_Improper_Torsional_Energy-OPLS-2005>
6.67933034896851

> <r_mmod_Van_der_Waal_Energy-OPLS-2005>
115.49535369873

> <r_mmod_Electrostatic_Energy-OPLS-2005>
-390.793334960938

> <r_mmod_Solvation_Energy-OPLS-2005>
-231.755172729492

> <b_mmod_Minimization_Converged-OPLS-2005>
0

> <r_mmod_RMS_Derivative-OPLS-2005>
3.86863851547241

$$$$
25
                    3D
 Structure written by MMmdl.
154162  0  0  1  0            999 V2000
  -30.3911  -15.3709   20.3580 C   0  0  0  0  0  0
  -30.4356  -12.8769   19.5544 C   0  0  0  0  0  0
  -29.5474  -12.6041   18.3094 C   0  0  0  0  0  0
  -28.0962  -12.3108   18.7266 C   0  0  0  0  0  0
  -27.6085  -13.2890   19.8246 C   0  0  2  0  0  0
  -28.6334  -13.4979   20.9637 C   0  0  0  0  0  0
  -25.2363  -13.8262   20.5754 C   0  0  0  0  0  0
  -24.1735  -13.0434   20.9260 C   0  0  0  0  0  0
  -24.6403  -11.6940   20.8751 C   0  0  0  0  0  0
  -23.9101  -10.4292   21.0373 C   0  0  0  0  0  0
  -24.3639   -9.4211   21.9163 C   0  0  0  0  0  0
  -23.6318   -8.2241   22.0733 C   0  0  0  0  0  0
  -22.4302   -8.0276   21.3525 C   0  0  0  0  0  0
  -21.9942   -9.0251   20.4627 C   0  0  0  0  0  0
  -22.7264  -10.2132   20.3036 C   0  0  0  0  0  0
  -21.6861   -6.0740   22.5286 C   0  0  0  0  0  0
  -21.4016   -6.5638   23.8218 C   0  0  0  0  0  0
  -21.3664   -5.6788   24.9180 C   0  0  0  0  0  0
  -21.6050   -4.3056   24.7223 C   0  0  0  0  0  0
  -21.8818   -3.8147   23.4346 C   0  0  0  0  0  0
  -21.9193   -4.6960   22.3404 C   0  0  0  0  0  0
  -22.7751  -13.5180   21.1911 C   0  0  0  0  0  0
  -22.1653   -4.2142   21.0985 F   0  0  0  0  0  0
  -21.5636   -3.4537   25.7734 F   0  0  0  0  0  0
  -29.8572  -14.0366   20.3461 N   0  0  0  0  0  0
  -26.2802  -12.9564   20.3212 N   0  0  0  0  0  0
  -25.9351  -11.6653   20.5701 N   0  0  0  0  0  0
  -22.0403  -12.8168   22.0467 N   0  0  0  0  0  0
  -25.3986  -15.1995   20.4190 N   0  0  0  0  0  0
  -31.5997  -15.3680   20.0769 O   0  0  0  0  0  0
  -21.6647   -6.8879   21.4241 O   0  0  0  0  0  0
  -22.3432  -14.5472   20.6733 O   0  0  0  0  0  0
  -24.6687  -31.8147   23.1648 C   0  0  0  0  0  0
  -25.9340  -32.4545   23.8133 C   0  0  1  0  0  0
  -27.2226  -26.8476   20.2082 C   0  0  0  0  0  0
  -25.5981  -33.8362   24.2021 N   0  0  0  0  0  0
  -23.4892  -30.4216   21.5147 C   0  0  2  0  0  0
  -24.9480  -28.7942   20.1121 C   0  0  0  0  0  0
  -22.7697  -29.4381   22.4756 C   0  0  0  0  0  0
  -18.0326  -28.1407   22.8467 C   0  0  0  0  0  0
  -24.1496  -36.7176   23.2646 C   0  0  0  0  0  0
  -26.0621  -30.5960   21.4097 C   0  0  0  0  0  0
  -26.1309  -29.1774   20.7567 C   0  0  0  0  0  0
  -27.2581  -28.2259   20.7798 C   0  0  0  0  0  0
  -26.0151  -26.6411   19.4994 C   0  0  0  0  0  0
  -24.9213  -27.5504   19.4602 C   0  0  0  0  0  0
  -23.7361  -29.7293   20.1436 C   0  0  0  0  0  0
  -25.4143  -36.2936   24.0280 C   0  0  1  0  0  0
  -20.5949  -28.3755   23.1177 C   0  0  2  0  0  0
  -20.6791  -26.9428   22.5407 C   0  0  0  0  0  0
  -19.5766  -26.6369   21.5218 C   0  0  0  0  0  0
  -18.1952  -26.7940   22.1627 C   0  0  0  0  0  0
  -19.1590  -28.8905   23.2801 C   0  0  0  0  0  0
  -18.9493  -30.1496   23.8837 C   0  0  0  0  0  0
  -17.6484  -30.6597   24.0548 C   0  0  0  0  0  0
  -25.9117  -34.9321   23.4986 C   0  0  0  0  0  0
  -16.5369  -29.9080   23.6353 C   0  0  0  0  0  0
  -16.7306  -28.6499   23.0370 C   0  0  0  0  0  0
  -26.4576  -31.6518   25.0694 C   0  0  0  0  0  0
  -25.3677  -31.3815   26.1337 C   0  0  0  0  0  0
  -27.0470  -30.2860   24.6498 C   0  0  0  0  0  0
  -27.6061  -32.4341   25.7496 C   0  0  0  0  0  0
  -27.5570  -37.1746   24.8463 C   0  0  0  0  0  0
  -21.4355  -29.3028   22.3515 N   0  0  0  0  0  0
  -26.4284  -37.3681   23.9400 N   0  0  0  0  0  0
  -24.7612  -30.9734   22.0830 N   0  0  0  0  0  0
  -23.4213  -28.7971   23.3040 O   0  0  0  0  0  0
  -28.1983  -25.6965   20.3405 O   0  0  0  0  0  0
  -26.5735  -34.8880   22.4592 O   0  0  0  0  0  0
  -23.5739  -32.1157   23.6694 O   0  0  0  0  0  0
  -29.1469  -21.1104   22.6209 C   0  0  0  0  0  0
  -28.8151  -22.3814   22.0674 C   0  0  0  0  0  0
  -28.6455  -22.5028   20.6578 C   0  0  0  0  0  0
  -29.2226  -19.8801   20.6481 C   0  0  0  0  0  0
  -28.3830  -23.2335   24.4871 C   0  0  0  0  0  0
  -29.8637  -24.5269   22.9216 C   0  0  0  0  0  0
  -28.0326  -24.0516   19.9820 C   0  0  0  0  0  0
  -29.7099  -18.2909   20.0106 C   0  0  0  0  0  0
  -28.6481  -23.5891   23.0096 C   0  0  0  0  0  0
  -29.3278  -19.9357   21.9642 N   0  0  0  0  0  0
  -28.8803  -21.1651   20.0141 N   0  0  0  0  0  0
  -29.6218  -16.6573   20.4880 N   0  0  0  0  0  0
  -27.5560  -24.2632   22.6578 F   0  0  0  0  0  0
  -31.4550  -13.0863   19.2264 H   0  0  0  0  0  0
  -30.5152  -11.9838   20.1765 H   0  0  0  0  0  0
  -29.9509  -11.7724   17.7296 H   0  0  0  0  0  0
  -29.5701  -13.4741   17.6520 H   0  0  0  0  0  0
  -28.0606  -11.2893   19.1071 H   0  0  0  0  0  0
  -27.4339  -12.3363   17.8596 H   0  0  0  0  0  0
  -27.5136  -14.2472   19.3132 H   0  0  0  0  0  0
  -28.8217  -12.5732   21.5115 H   0  0  0  0  0  0
  -28.2505  -14.2156   21.6910 H   0  0  0  0  0  0
  -25.2764   -9.5696   22.4758 H   0  0  0  0  0  0
  -24.0021   -7.4641   22.7475 H   0  0  0  0  0  0
  -21.0855   -8.8776   19.8958 H   0  0  0  0  0  0
  -22.3696  -10.9675   19.6163 H   0  0  0  0  0  0
  -21.2000   -7.6145   23.9720 H   0  0  0  0  0  0
  -21.1493   -6.0514   25.9085 H   0  0  0  0  0  0
  -22.0591   -2.7606   23.2844 H   0  0  0  0  0  0
  -22.4023  -11.9856   22.4889 H   0  0  0  0  0  0
  -21.1004  -13.1178   22.2633 H   0  0  0  0  0  0
  -24.6284  -15.8495   20.5339 H   0  0  0  0  0  0
  -26.2360  -15.6386   20.0598 H   0  0  0  0  0  0
  -26.7412  -32.5061   23.0842 H   0  0  0  0  0  0
  -25.0060  -33.9431   25.0131 H   0  0  0  0  0  0
  -22.8063  -31.2541   21.3352 H   0  0  0  0  0  0
  -23.3772  -35.9492   23.3283 H   0  0  0  0  0  0
  -24.3562  -36.8854   22.2063 H   0  0  0  0  0  0
  -23.7248  -37.6352   23.6727 H   0  0  0  0  0  0
  -26.2534  -31.3330   20.6283 H   0  0  0  0  0  0
  -26.9164  -30.6558   22.0710 H   0  0  0  0  0  0
  -28.1467  -28.5150   21.3237 H   0  0  0  0  0  0
  -25.8731  -25.6923   19.0028 H   0  0  0  0  0  0
  -24.0250  -27.2525   18.9332 H   0  0  0  0  0  0
  -23.8935  -30.4926   19.3804 H   0  0  0  0  0  0
  -22.8466  -29.1812   19.8288 H   0  0  0  0  0  0
  -25.1354  -36.1712   25.0768 H   0  0  0  0  0  0
  -21.0039  -28.3363   24.1298 H   0  0  0  0  0  0
  -20.5656  -26.2373   23.3654 H   0  0  0  0  0  0
  -21.6652  -26.7384   22.1223 H   0  0  0  0  0  0
  -19.6922  -25.6265   21.1287 H   0  0  0  0  0  0
  -19.6710  -27.3148   20.6721 H   0  0  0  0  0  0
  -17.4220  -26.6675   21.4032 H   0  0  0  0  0  0
  -18.0345  -26.0093   22.9037 H   0  0  0  0  0  0
  -19.7964  -30.7324   24.2180 H   0  0  0  0  0  0
  -17.5033  -31.6272   24.5149 H   0  0  0  0  0  0
  -15.5370  -30.2955   23.7712 H   0  0  0  0  0  0
  -15.8705  -28.0798   22.7120 H   0  0  0  0  0  0
  -24.5829  -30.7217   25.7620 H   0  0  0  0  0  0
  -24.8919  -32.3048   26.4647 H   0  0  0  0  0  0
  -25.7866  -30.9016   27.0191 H   0  0  0  0  0  0
  -26.3152  -29.6523   24.1480 H   0  0  0  0  0  0
  -27.3924  -29.7245   25.5188 H   0  0  0  0  0  0
  -27.9130  -30.3990   23.9975 H   0  0  0  0  0  0
  -27.2615  -33.3670   26.1963 H   0  0  0  0  0  0
  -28.3928  -32.6860   25.0372 H   0  0  0  0  0  0
  -28.0676  -31.8552   26.5506 H   0  0  0  0  0  0
  -28.2572  -38.0059   24.7508 H   0  0  0  0  0  0
  -28.1084  -36.2584   24.6297 H   0  0  0  0  0  0
  -27.2284  -37.1389   25.8867 H   0  0  0  0  0  0
  -20.9625  -29.8689   21.6601 H   0  0  0  0  0  0
  -26.0119  -38.2729   24.1420 H   0  0  0  0  0  0
  -29.2860  -20.9974   23.6841 H   0  0  0  0  0  0
  -29.2362  -22.7502   24.9638 H   0  0  0  0  0  0
  -27.5137  -22.5842   24.5966 H   0  0  0  0  0  0
  -28.1810  -24.1344   25.0677 H   0  0  0  0  0  0
  -30.7710  -24.0245   23.2589 H   0  0  0  0  0  0
  -29.7273  -25.4111   23.5449 H   0  0  0  0  0  0
  -30.0459  -24.8717   21.9062 H   0  0  0  0  0  0
  -26.9548  -23.8965   20.0156 H   0  0  0  0  0  0
  -28.2699  -23.9867   18.9208 H   0  0  0  0  0  0
  -30.7687  -18.4284   19.7933 H   0  0  0  0  0  0
  -29.2444  -18.2818   19.0252 H   0  0  0  0  0  0
  -28.6923  -16.4685   20.8296 H   0  0  0  0  0  0
  1 25  1  0  0  0
  1 30  2  0  0  0
  1 82  1  0  0  0
  2  3  1  0  0  0
  2 25  1  0  0  0
  2 84  1  0  0  0
  2 85  1  0  0  0
  3  4  1  0  0  0
  3 86  1  0  0  0
  3 87  1  0  0  0
  4  5  1  0  0  0
  4 88  1  0  0  0
  4 89  1  0  0  0
  5  6  1  0  0  0
  5 26  1  0  0  0
  5 90  1  0  0  0
  6 25  1  0  0  0
  6 91  1  0  0  0
  6 92  1  0  0  0
  7  8  2  0  0  0
  7 26  1  0  0  0
  7 29  1  0  0  0
  8  9  1  0  0  0
  8 22  1  0  0  0
  9 10  1  0  0  0
  9 27  2  0  0  0
 10 11  2  0  0  0
 10 15  1  0  0  0
 11 12  1  0  0  0
 11 93  1  0  0  0
 12 13  2  0  0  0
 12 94  1  0  0  0
 13 14  1  0  0  0
 13 31  1  0  0  0
 14 15  2  0  0  0
 14 95  1  0  0  0
 15 96  1  0  0  0
 16 17  2  0  0  0
 16 21  1  0  0  0
 16 31  1  0  0  0
 17 18  1  0  0  0
 17 97  1  0  0  0
 18 19  2  0  0  0
 18 98  1  0  0  0
 19 20  1  0  0  0
 19 24  1  0  0  0
 20 21  2  0  0  0
 20 99  1  0  0  0
 21 23  1  0  0  0
 22 28  1  0  0  0
 22 32  2  0  0  0
 26 27  1  0  0  0
 28100  1  0  0  0
 28101  1  0  0  0
 29102  1  0  0  0
 29103  1  0  0  0
 33 34  1  0  0  0
 33 66  1  0  0  0
 33 70  2  0  0  0
 34 36  1  0  0  0
 34 59  1  0  0  0
 34104  1  0  0  0
 35 44  2  0  0  0
 35 45  1  0  0  0
 35 68  1  0  0  0
 36 56  1  0  0  0
 36105  1  0  0  0
 37 39  1  0  0  0
 37 47  1  0  0  0
 37 66  1  0  0  0
 37106  1  0  0  0
 38 43  2  0  0  0
 38 46  1  0  0  0
 38 47  1  0  0  0
 39 64  1  0  0  0
 39 67  2  0  0  0
 40 52  1  0  0  0
 40 53  2  0  0  0
 40 58  1  0  0  0
 41107  1  0  0  0
 41108  1  0  0  0
 41109  1  0  0  0
 41 48  1  0  0  0
 42 43  1  0  0  0
 42 66  1  0  0  0
 42110  1  0  0  0
 42111  1  0  0  0
 43 44  1  0  0  0
 44112  1  0  0  0
 45 46  2  0  0  0
 45113  1  0  0  0
 46114  1  0  0  0
 47115  1  0  0  0
 47116  1  0  0  0
 48 56  1  0  0  0
 48 65  1  0  0  0
 48117  1  0  0  0
 49 50  1  0  0  0
 49 53  1  0  0  0
 49 64  1  0  0  0
 49118  1  0  0  0
 50 51  1  0  0  0
 50119  1  0  0  0
 50120  1  0  0  0
 51 52  1  0  0  0
 51121  1  0  0  0
 51122  1  0  0  0
 52123  1  0  0  0
 52124  1  0  0  0
 53 54  1  0  0  0
 54 55  2  0  0  0
 54125  1  0  0  0
 55 57  1  0  0  0
 55126  1  0  0  0
 56 69  2  0  0  0
 57 58  2  0  0  0
 57127  1  0  0  0
 58128  1  0  0  0
 59 60  1  0  0  0
 59 61  1  0  0  0
 59 62  1  0  0  0
 60129  1  0  0  0
 60130  1  0  0  0
 60131  1  0  0  0
 61132  1  0  0  0
 61133  1  0  0  0
 61134  1  0  0  0
 62135  1  0  0  0
 62136  1  0  0  0
 62137  1  0  0  0
 63 65  1  0  0  0
 63138  1  0  0  0
 63139  1  0  0  0
 63140  1  0  0  0
 64141  1  0  0  0
 65142  1  0  0  0
 68 77  1  0  0  0
 71 72  2  0  0  0
 71 80  1  0  0  0
 71143  1  0  0  0
 72 73  1  0  0  0
 72 79  1  0  0  0
 73 77  1  0  0  0
 73 81  2  0  0  0
 74 78  1  0  0  0
 74 80  2  0  0  0
 74 81  1  0  0  0
 75144  1  0  0  0
 75145  1  0  0  0
 75146  1  0  0  0
 75 79  1  0  0  0
 76 79  1  0  0  0
 76147  1  0  0  0
 76148  1  0  0  0
 76149  1  0  0  0
 77150  1  0  0  0
 77151  1  0  0  0
 78 82  1  0  0  0
 78152  1  0  0  0
 78153  1  0  0  0
 79 83  1  0  0  0
 82154  1  0  0  0
M  ISO  4   1 100  68 101  77 101  82 100
M  END
> <chiral flag>
0

> <version>
0

> <s_m_source_file>
/data/baiqing/PycharmProjects/Reinvent-master-3.2/result/LINK_invent/BTK/process_docking_weight1_custom_sum_contain_oxygen_bond_distance_aromatic_linkinvent_7_9_3/rearranged_h_0061.sdf

> <i_m_source_file_index>
26

> <r_mmod_Potential_Energy-OPLS-2005>
1034.08117675781

> <r_mmod_Stretch_Energy-OPLS-2005>
707.882629394531

> <r_mmod_Bend_Energy-OPLS-2005>
488.014221191406

> <r_mmod_Torsional_Energy-OPLS-2005>
217.652221679688

> <r_mmod_Improper_Torsional_Energy-OPLS-2005>
5.7205057144165

> <r_mmod_Van_der_Waal_Energy-OPLS-2005>
137.647262573242

> <r_mmod_Electrostatic_Energy-OPLS-2005>
-863.001953125

> <r_mmod_Solvation_Energy-OPLS-2005>
-244.596542358398

> <b_mmod_Minimization_Converged-OPLS-2005>
0

> <r_mmod_RMS_Derivative-OPLS-2005>
1.9023312330246

$$$$
26
                    3D
 Structure written by MMmdl.
167175  0  0  1  0            999 V2000
  -30.6040  -14.7993   20.5080 C   0  0  0  0  0  0
  -30.4386  -12.5071   19.4715 C   0  0  0  0  0  0
  -29.5138  -12.5433   18.2327 C   0  0  0  0  0  0
  -28.0372  -12.3601   18.6374 C   0  0  0  0  0  0
  -27.6442  -13.2343   19.8574 C   0  0  2  0  0  0
  -28.6895  -13.1210   20.9837 C   0  0  0  0  0  0
  -25.2527  -13.8201   20.5719 C   0  0  0  0  0  0
  -24.1813  -13.0439   20.9204 C   0  0  0  0  0  0
  -24.6410  -11.6919   20.8721 C   0  0  0  0  0  0
  -23.9093  -10.4292   21.0393 C   0  0  0  0  0  0
  -24.3644   -9.4207   21.9175 C   0  0  0  0  0  0
  -23.6317   -8.2239   22.0755 C   0  0  0  0  0  0
  -22.4290   -8.0287   21.3547 C   0  0  0  0  0  0
  -21.9926   -9.0260   20.4648 C   0  0  0  0  0  0
  -22.7256  -10.2138   20.3046 C   0  0  0  0  0  0
  -21.6873   -6.0728   22.5279 C   0  0  0  0  0  0
  -21.4014   -6.5628   23.8211 C   0  0  0  0  0  0
  -21.3666   -5.6781   24.9174 C   0  0  0  0  0  0
  -21.6050   -4.3046   24.7227 C   0  0  0  0  0  0
  -21.8821   -3.8141   23.4349 C   0  0  0  0  0  0
  -21.9204   -4.6953   22.3400 C   0  0  0  0  0  0
  -22.7834  -13.5221   21.1877 C   0  0  0  0  0  0
  -22.1671   -4.2137   21.0974 F   0  0  0  0  0  0
  -21.5645   -3.4532   25.7739 F   0  0  0  0  0  0
  -29.9807  -13.5574   20.4237 N   0  0  0  0  0  0
  -26.2958  -12.9404   20.3298 N   0  0  0  0  0  0
  -25.9339  -11.6541   20.5703 N   0  0  0  0  0  0
  -22.0492  -12.8200   22.0432 N   0  0  0  0  0  0
  -25.4219  -15.1918   20.4165 N   0  0  0  0  0  0
  -31.7596  -14.8913   20.0795 O   0  0  0  0  0  0
  -21.6664   -6.8875   21.4240 O   0  0  0  0  0  0
  -22.3488  -14.5519   20.6725 O   0  0  0  0  0  0
  -24.6344  -31.8516   23.1934 C   0  0  0  0  0  0
  -25.9159  -32.4732   23.8295 C   0  0  1  0  0  0
  -27.2229  -27.2352   20.1434 C   0  0  0  0  0  0
  -25.5943  -33.8539   24.2226 N   0  0  0  0  0  0
  -23.4330  -30.4724   21.5377 C   0  0  2  0  0  0
  -24.8816  -28.9099   20.1115 C   0  0  0  0  0  0
  -22.7520  -29.4582   22.4891 C   0  0  0  0  0  0
  -18.0301  -28.1377   22.8478 C   0  0  0  0  0  0
  -24.1490  -36.7274   23.2636 C   0  0  0  0  0  0
  -25.9809  -30.7550   21.3789 C   0  0  0  0  0  0
  -26.0551  -29.3751   20.7221 C   0  0  0  0  0  0
  -27.2303  -28.5524   20.7219 C   0  0  0  0  0  0
  -26.0302  -26.8411   19.5034 C   0  0  0  0  0  0
  -24.8755  -27.6506   19.4903 C   0  0  0  0  0  0
  -23.6542  -29.8018   20.1557 C   0  0  0  0  0  0
  -25.4121  -36.3064   24.0320 C   0  0  1  0  0  0
  -20.5906  -28.3695   23.1243 C   0  0  2  0  0  0
  -20.6786  -26.9403   22.5404 C   0  0  0  0  0  0
  -19.5763  -26.6372   21.5206 C   0  0  0  0  0  0
  -18.1946  -26.7922   22.1617 C   0  0  0  0  0  0
  -19.1553  -28.8856   23.2854 C   0  0  0  0  0  0
  -18.9474  -30.1459   23.8865 C   0  0  0  0  0  0
  -17.6470  -30.6577   24.0559 C   0  0  0  0  0  0
  -25.9066  -34.9433   23.5079 C   0  0  0  0  0  0
  -16.5363  -29.9070   23.6328 C   0  0  0  0  0  0
  -16.7286  -28.6492   23.0340 C   0  0  0  0  0  0
  -26.4509  -31.6561   25.0701 C   0  0  0  0  0  0
  -25.3723  -31.3728   26.1414 C   0  0  0  0  0  0
  -27.0365  -30.2965   24.6229 C   0  0  0  0  0  0
  -27.6043  -32.4320   25.7494 C   0  0  0  0  0  0
  -27.5584  -37.1798   24.8465 C   0  0  0  0  0  0
  -21.4221  -29.3035   22.3634 N   0  0  0  0  0  0
  -26.4297  -37.3765   23.9410 N   0  0  0  0  0  0
  -24.7019  -31.0461   22.0925 N   0  0  0  0  0  0
  -23.4203  -28.8133   23.3014 O   0  0  0  0  0  0
  -28.2973  -26.3086   20.1578 O   0  0  0  0  0  0
  -26.5650  -34.8912   22.4655 O   0  0  0  0  0  0
  -23.5487  -32.1361   23.7209 O   0  0  0  0  0  0
  -29.7631  -20.9707   20.7232 C   0  0  0  0  0  0
  -29.8866  -18.7598   20.5076 C   0  0  0  0  0  0
  -33.0967  -18.4401   21.5325 C   0  0  0  0  0  0
  -28.7117  -17.1243   18.9144 C   0  0  0  0  0  0
  -30.5756  -23.3026   21.4680 C   0  0  0  0  0  0
  -30.4619  -22.7557   19.0625 C   0  0  0  0  0  0
  -29.0733  -16.1099   21.9892 C   0  0  0  0  0  0
  -28.3384  -23.4238   20.3104 C   0  0  0  0  0  0
  -31.7350  -18.4505   22.2419 C   0  0  0  0  0  0
  -28.0900  -24.9730   20.8421 C   0  0  0  0  0  0
  -29.8843  -17.2677   19.9003 C   0  0  2  0  0  0
  -29.7266  -22.5639   20.4019 C   0  0  0  0  0  0
  -29.2692  -19.8817   19.9858 N   0  0  0  0  0  0
  -30.6281  -20.5277   21.6472 N   0  0  0  0  0  0
  -30.7253  -19.1694   21.4781 N   0  0  0  0  0  0
  -29.8649  -15.9763   20.7606 N   0  0  0  0  0  0
  -31.4763  -12.6469   19.1630 H   0  0  0  0  0  0
  -30.4086  -11.5208   19.9354 H   0  0  0  0  0  0
  -29.8037  -11.7716   17.5186 H   0  0  0  0  0  0
  -29.6328  -13.4969   17.7162 H   0  0  0  0  0  0
  -27.8901  -11.3066   18.8763 H   0  0  0  0  0  0
  -27.3830  -12.5737   17.7904 H   0  0  0  0  0  0
  -27.6447  -14.2662   19.5080 H   0  0  0  0  0  0
  -28.7516  -12.0860   21.3232 H   0  0  0  0  0  0
  -28.3843  -13.6773   21.8629 H   0  0  0  0  0  0
  -25.2789   -9.5699   22.4743 H   0  0  0  0  0  0
  -24.0053   -7.4626   22.7454 H   0  0  0  0  0  0
  -21.0871   -8.8772   19.8932 H   0  0  0  0  0  0
  -22.3721  -10.9683   19.6157 H   0  0  0  0  0  0
  -21.1987   -7.6132   23.9705 H   0  0  0  0  0  0
  -21.1500   -6.0514   25.9076 H   0  0  0  0  0  0
  -22.0595   -2.7605   23.2854 H   0  0  0  0  0  0
  -22.4142  -11.9900   22.4865 H   0  0  0  0  0  0
  -21.1083  -13.1171   22.2576 H   0  0  0  0  0  0
  -24.6608  -15.8489   20.5450 H   0  0  0  0  0  0
  -26.2798  -15.6333   20.1149 H   0  0  0  0  0  0
  -26.7228  -32.5374   23.1032 H   0  0  0  0  0  0
  -25.0109  -33.9664   25.0383 H   0  0  0  0  0  0
  -22.7304  -31.2946   21.3875 H   0  0  0  0  0  0
  -23.3764  -35.9594   23.3289 H   0  0  0  0  0  0
  -24.3576  -36.8913   22.2052 H   0  0  0  0  0  0
  -23.7224  -37.6461   23.6670 H   0  0  0  0  0  0
  -26.1307  -31.5135   20.6092 H   0  0  0  0  0  0
  -26.8526  -30.7984   22.0211 H   0  0  0  0  0  0
  -28.1291  -28.9043   21.2087 H   0  0  0  0  0  0
  -25.9854  -25.8733   19.0245 H   0  0  0  0  0  0
  -23.9794  -27.2851   19.0066 H   0  0  0  0  0  0
  -23.7830  -30.5754   19.3981 H   0  0  0  0  0  0
  -22.7712  -29.2381   19.8496 H   0  0  0  0  0  0
  -25.1306  -36.1913   25.0815 H   0  0  0  0  0  0
  -20.9995  -28.3285   24.1363 H   0  0  0  0  0  0
  -20.5666  -26.2315   23.3624 H   0  0  0  0  0  0
  -21.6656  -26.7418   22.1206 H   0  0  0  0  0  0
  -19.6921  -25.6274   21.1250 H   0  0  0  0  0  0
  -19.6694  -27.3172   20.6726 H   0  0  0  0  0  0
  -17.4214  -26.6659   21.4019 H   0  0  0  0  0  0
  -18.0339  -26.0062   22.9010 H   0  0  0  0  0  0
  -19.7947  -30.7293   24.2199 H   0  0  0  0  0  0
  -17.5020  -31.6244   24.5179 H   0  0  0  0  0  0
  -15.5358  -30.2962   23.7662 H   0  0  0  0  0  0
  -15.8691  -28.0815   22.7041 H   0  0  0  0  0  0
  -24.5905  -30.7067   25.7738 H   0  0  0  0  0  0
  -24.8907  -32.2901   26.4806 H   0  0  0  0  0  0
  -25.8027  -30.8927   27.0210 H   0  0  0  0  0  0
  -26.2959  -29.6702   24.1240 H   0  0  0  0  0  0
  -27.4003  -29.7244   25.4774 H   0  0  0  0  0  0
  -27.8855  -30.4208   23.9507 H   0  0  0  0  0  0
  -27.2620  -33.3620   26.2043 H   0  0  0  0  0  0
  -28.3866  -32.6885   25.0341 H   0  0  0  0  0  0
  -28.0692  -31.8474   26.5440 H   0  0  0  0  0  0
  -28.2601  -38.0099   24.7526 H   0  0  0  0  0  0
  -28.1090  -36.2634   24.6286 H   0  0  0  0  0  0
  -27.2310  -37.1434   25.8871 H   0  0  0  0  0  0
  -20.9417  -29.8769   21.6842 H   0  0  0  0  0  0
  -26.0181  -38.2847   24.1394 H   0  0  0  0  0  0
  -33.8546  -17.9659   22.1569 H   0  0  0  0  0  0
  -33.4403  -19.4504   21.3071 H   0  0  0  0  0  0
  -33.0494  -17.8853   20.5947 H   0  0  0  0  0  0
  -28.7510  -17.8857   18.1366 H   0  0  0  0  0  0
  -27.7581  -17.2269   19.4326 H   0  0  0  0  0  0
  -28.7210  -16.1571   18.4139 H   0  0  0  0  0  0
  -31.5919  -22.9121   21.5315 H   0  0  0  0  0  0
  -30.1281  -23.2159   22.4582 H   0  0  0  0  0  0
  -30.6826  -24.3637   21.2413 H   0  0  0  0  0  0
  -31.4748  -22.3522   19.0995 H   0  0  0  0  0  0
  -30.5315  -23.8096   18.7896 H   0  0  0  0  0  0
  -29.9379  -22.2394   18.2572 H   0  0  0  0  0  0
  -29.1389  -17.1007   22.4338 H   0  0  0  0  0  0
  -29.4003  -15.4078   22.7575 H   0  0  0  0  0  0
  -28.0186  -15.9336   21.7761 H   0  0  0  0  0  0
  -27.9066  -23.3148   19.3166 H   0  0  0  0  0  0
  -27.6649  -22.8396   20.9388 H   0  0  0  0  0  0
  -31.8293  -18.9180   23.2222 H   0  0  0  0  0  0
  -31.4093  -17.4298   22.4233 H   0  0  0  0  0  0
  -28.5731  -25.0765   21.8122 H   0  0  0  0  0  0
  -27.0354  -24.9656   21.1191 H   0  0  0  0  0  0
  -30.7966  -17.2122   19.3052 H   0  0  0  0  0  0
  1 25  1  0  0  0
  1 30  2  0  0  0
  1 86  1  0  0  0
  2  3  1  0  0  0
  2 25  1  0  0  0
  2 87  1  0  0  0
  2 88  1  0  0  0
  3  4  1  0  0  0
  3 89  1  0  0  0
  3 90  1  0  0  0
  4  5  1  0  0  0
  4 91  1  0  0  0
  4 92  1  0  0  0
  5  6  1  0  0  0
  5 26  1  0  0  0
  5 93  1  0  0  0
  6 25  1  0  0  0
  6 94  1  0  0  0
  6 95  1  0  0  0
  7  8  2  0  0  0
  7 26  1  0  0  0
  7 29  1  0  0  0
  8  9  1  0  0  0
  8 22  1  0  0  0
  9 10  1  0  0  0
  9 27  2  0  0  0
 10 11  2  0  0  0
 10 15  1  0  0  0
 11 12  1  0  0  0
 11 96  1  0  0  0
 12 13  2  0  0  0
 12 97  1  0  0  0
 13 14  1  0  0  0
 13 31  1  0  0  0
 14 15  2  0  0  0
 14 98  1  0  0  0
 15 99  1  0  0  0
 16 17  2  0  0  0
 16 21  1  0  0  0
 16 31  1  0  0  0
 17 18  1  0  0  0
 17100  1  0  0  0
 18 19  2  0  0  0
 18101  1  0  0  0
 19 20  1  0  0  0
 19 24  1  0  0  0
 20 21  2  0  0  0
 20102  1  0  0  0
 21 23  1  0  0  0
 22 28  1  0  0  0
 22 32  2  0  0  0
 26 27  1  0  0  0
 28103  1  0  0  0
 28104  1  0  0  0
 29105  1  0  0  0
 29106  1  0  0  0
 33 34  1  0  0  0
 33 66  1  0  0  0
 33 70  2  0  0  0
 34 36  1  0  0  0
 34 59  1  0  0  0
 34107  1  0  0  0
 35 44  2  0  0  0
 35 45  1  0  0  0
 35 68  1  0  0  0
 36 56  1  0  0  0
 36108  1  0  0  0
 37 39  1  0  0  0
 37 47  1  0  0  0
 37 66  1  0  0  0
 37109  1  0  0  0
 38 43  2  0  0  0
 38 46  1  0  0  0
 38 47  1  0  0  0
 39 64  1  0  0  0
 39 67  2  0  0  0
 40 52  1  0  0  0
 40 53  2  0  0  0
 40 58  1  0  0  0
 41110  1  0  0  0
 41111  1  0  0  0
 41112  1  0  0  0
 41 48  1  0  0  0
 42 43  1  0  0  0
 42 66  1  0  0  0
 42113  1  0  0  0
 42114  1  0  0  0
 43 44  1  0  0  0
 44115  1  0  0  0
 45 46  2  0  0  0
 45116  1  0  0  0
 46117  1  0  0  0
 47118  1  0  0  0
 47119  1  0  0  0
 48 56  1  0  0  0
 48 65  1  0  0  0
 48120  1  0  0  0
 49 50  1  0  0  0
 49 53  1  0  0  0
 49 64  1  0  0  0
 49121  1  0  0  0
 50 51  1  0  0  0
 50122  1  0  0  0
 50123  1  0  0  0
 51 52  1  0  0  0
 51124  1  0  0  0
 51125  1  0  0  0
 52126  1  0  0  0
 52127  1  0  0  0
 53 54  1  0  0  0
 54 55  2  0  0  0
 54128  1  0  0  0
 55 57  1  0  0  0
 55129  1  0  0  0
 56 69  2  0  0  0
 57 58  2  0  0  0
 57130  1  0  0  0
 58131  1  0  0  0
 59 60  1  0  0  0
 59 61  1  0  0  0
 59 62  1  0  0  0
 60132  1  0  0  0
 60133  1  0  0  0
 60134  1  0  0  0
 61135  1  0  0  0
 61136  1  0  0  0
 61137  1  0  0  0
 62138  1  0  0  0
 62139  1  0  0  0
 62140  1  0  0  0
 63 65  1  0  0  0
 63141  1  0  0  0
 63142  1  0  0  0
 63143  1  0  0  0
 64144  1  0  0  0
 65145  1  0  0  0
 68 80  1  0  0  0
 71 82  1  0  0  0
 71 83  1  0  0  0
 71 84  2  0  0  0
 72 81  1  0  0  0
 72 83  2  0  0  0
 72 85  1  0  0  0
 73 79  1  0  0  0
 73146  1  0  0  0
 73147  1  0  0  0
 73148  1  0  0  0
 74149  1  0  0  0
 74150  1  0  0  0
 74151  1  0  0  0
 74 81  1  0  0  0
 75152  1  0  0  0
 75153  1  0  0  0
 75154  1  0  0  0
 75 82  1  0  0  0
 76 82  1  0  0  0
 76155  1  0  0  0
 76156  1  0  0  0
 76157  1  0  0  0
 77 86  1  0  0  0
 77158  1  0  0  0
 77159  1  0  0  0
 77160  1  0  0  0
 78 80  1  0  0  0
 78 82  1  0  0  0
 78161  1  0  0  0
 78162  1  0  0  0
 79 85  1  0  0  0
 79163  1  0  0  0
 79164  1  0  0  0
 80165  1  0  0  0
 80166  1  0  0  0
 81 86  1  0  0  0
 81167  1  0  0  0
 84 85  1  0  0  0
M  ISO  4   1 100  68 101  80 101  86 100
M  END
> <chiral flag>
0

> <version>
0

> <s_m_source_file>
/data/baiqing/PycharmProjects/Reinvent-master-3.2/result/LINK_invent/BTK/process_docking_weight1_custom_sum_contain_oxygen_bond_distance_aromatic_linkinvent_7_9_3/rearranged_h_0061.sdf

> <i_m_source_file_index>
27

> <r_mmod_Potential_Energy-OPLS-2005>
402.227813720703

> <r_mmod_Stretch_Energy-OPLS-2005>
176.388000488281

> <r_mmod_Bend_Energy-OPLS-2005>
259.8583984375

> <r_mmod_Torsional_Energy-OPLS-2005>
315.047302246094

> <r_mmod_Improper_Torsional_Energy-OPLS-2005>
11.3800487518311

> <r_mmod_Van_der_Waal_Energy-OPLS-2005>
118.138381958008

> <r_mmod_Electrostatic_Energy-OPLS-2005>
-380.740295410156

> <r_mmod_Solvation_Energy-OPLS-2005>
-198.668411254883

> <b_mmod_Minimization_Converged-OPLS-2005>
0

> <r_mmod_RMS_Derivative-OPLS-2005>
2.27592420578003

$$$$
27
                    3D
 Structure written by MMmdl.
171179  0  0  1  0            999 V2000
  -30.7212  -14.5234   20.6166 C   0  0  0  0  0  0
  -30.4192  -12.3551   19.4331 C   0  0  0  0  0  0
  -29.4941  -12.5316   18.2105 C   0  0  0  0  0  0
  -28.0149  -12.3780   18.6146 C   0  0  0  0  0  0
  -27.6580  -13.2116   19.8729 C   0  0  2  0  0  0
  -28.6976  -12.9879   20.9895 C   0  0  0  0  0  0
  -25.2603  -13.8179   20.5711 C   0  0  0  0  0  0
  -24.1834  -13.0451   20.9137 C   0  0  0  0  0  0
  -24.6382  -11.6911   20.8693 C   0  0  0  0  0  0
  -23.9045  -10.4295   21.0389 C   0  0  0  0  0  0
  -24.3607   -9.4218   21.9170 C   0  0  0  0  0  0
  -23.6289   -8.2248   22.0747 C   0  0  0  0  0  0
  -22.4270   -8.0279   21.3538 C   0  0  0  0  0  0
  -21.9896   -9.0246   20.4640 C   0  0  0  0  0  0
  -22.7218  -10.2129   20.3043 C   0  0  0  0  0  0
  -21.6852   -6.0733   22.5273 C   0  0  0  0  0  0
  -21.4015   -6.5642   23.8208 C   0  0  0  0  0  0
  -21.3660   -5.6797   24.9168 C   0  0  0  0  0  0
  -21.6052   -4.3058   24.7218 C   0  0  0  0  0  0
  -21.8823   -3.8145   23.4340 C   0  0  0  0  0  0
  -21.9197   -4.6958   22.3396 C   0  0  0  0  0  0
  -22.7860  -13.5241   21.1837 C   0  0  0  0  0  0
  -22.1670   -4.2143   21.0971 F   0  0  0  0  0  0
  -21.5628   -3.4547   25.7734 F   0  0  0  0  0  0
  -30.0233  -13.3490   20.4568 N   0  0  0  0  0  0
  -26.3011  -12.9345   20.3352 N   0  0  0  0  0  0
  -25.9307  -11.6496   20.5721 N   0  0  0  0  0  0
  -22.0531  -12.8201   22.0395 N   0  0  0  0  0  0
  -25.4418  -15.1897   20.4257 N   0  0  0  0  0  0
  -31.8040  -14.6593   20.0326 O   0  0  0  0  0  0
  -21.6640   -6.8870   21.4234 O   0  0  0  0  0  0
  -22.3529  -14.5559   20.6726 O   0  0  0  0  0  0
  -24.6208  -31.8655   23.2101 C   0  0  0  0  0  0
  -25.9081  -32.4811   23.8402 C   0  0  1  0  0  0
  -27.2174  -27.3719   20.0914 C   0  0  0  0  0  0
  -25.5922  -33.8614   24.2322 N   0  0  0  0  0  0
  -23.4102  -30.4934   21.5526 C   0  0  2  0  0  0
  -24.8531  -28.9642   20.1098 C   0  0  0  0  0  0
  -22.7446  -29.4647   22.4968 C   0  0  0  0  0  0
  -18.0279  -28.1371   22.8485 C   0  0  0  0  0  0
  -24.1491  -36.7313   23.2638 C   0  0  0  0  0  0
  -25.9491  -30.8095   21.3769 C   0  0  0  0  0  0
  -26.0210  -29.4438   20.7155 C   0  0  0  0  0  0
  -27.2052  -28.6558   20.7057 C   0  0  0  0  0  0
  -26.0253  -26.9449   19.4535 C   0  0  0  0  0  0
  -24.8539  -27.7167   19.4735 C   0  0  0  0  0  0
  -23.6203  -29.8384   20.1640 C   0  0  0  0  0  0
  -25.4113  -36.3108   24.0335 C   0  0  1  0  0  0
  -20.5877  -28.3671   23.1294 C   0  0  2  0  0  0
  -20.6772  -26.9401   22.5408 C   0  0  0  0  0  0
  -19.5749  -26.6376   21.5207 C   0  0  0  0  0  0
  -18.1927  -26.7916   22.1619 C   0  0  0  0  0  0
  -19.1532  -28.8837   23.2884 C   0  0  0  0  0  0
  -18.9457  -30.1439   23.8899 C   0  0  0  0  0  0
  -17.6458  -30.6579   24.0555 C   0  0  0  0  0  0
  -25.9045  -34.9472   23.5125 C   0  0  0  0  0  0
  -16.5347  -29.9077   23.6324 C   0  0  0  0  0  0
  -16.7268  -28.6491   23.0349 C   0  0  0  0  0  0
  -26.4480  -31.6599   25.0749 C   0  0  0  0  0  0
  -25.3727  -31.3715   26.1481 C   0  0  0  0  0  0
  -27.0323  -30.3036   24.6162 C   0  0  0  0  0  0
  -27.6049  -32.4321   25.7517 C   0  0  0  0  0  0
  -27.5584  -37.1814   24.8460 C   0  0  0  0  0  0
  -21.4168  -29.3039   22.3705 N   0  0  0  0  0  0
  -26.4295  -37.3795   23.9407 N   0  0  0  0  0  0
  -24.6784  -31.0715   22.1032 N   0  0  0  0  0  0
  -23.4200  -28.8173   23.3011 O   0  0  0  0  0  0
  -28.3451  -26.5468   20.1388 O   0  0  0  0  0  0
  -26.5606  -34.8922   22.4687 O   0  0  0  0  0  0
  -23.5383  -32.1440   23.7451 O   0  0  0  0  0  0
  -29.6051  -16.9071   20.7078 C   0  0  0  0  0  0
  -28.1851  -18.0472   19.6789 C   0  0  0  0  0  0
  -26.9472  -18.4798   18.9638 C   0  0  0  0  0  0
  -31.4470  -16.2697   22.3403 C   0  0  0  0  0  0
  -30.7319  -21.4010   17.2260 C   0  0  0  0  0  0
  -32.1239  -19.9062   18.6467 C   0  0  0  0  0  0
  -30.4477  -18.9394   17.0660 C   0  0  0  0  0  0
  -28.8009  -22.6330   19.6922 C   0  0  0  0  0  0
  -29.1747  -24.0567   20.2422 C   0  0  0  0  0  0
  -29.6408  -21.3780   20.1390 C   0  0  0  0  0  0
  -28.1329  -25.1395   19.8075 C   0  0  0  0  0  0
  -29.5699  -20.1488   19.1478 C   0  0  1  0  0  0
  -30.2596  -15.7551   21.4973 C   0  0  2  0  0  0
  -30.7080  -20.0997   18.0553 C   0  0  0  0  0  0
  -28.3130  -16.8515   20.2545 N   0  0  0  0  0  0
  -30.2140  -18.0854   20.4653 N   0  0  0  0  0  0
  -29.2874  -18.8147   19.7677 N   0  0  0  0  0  0
  -29.3932  -15.3752   22.4359 F   0  0  0  0  0  0
  -31.4634  -12.4438   19.1288 H   0  0  0  0  0  0
  -30.3275  -11.3450   19.8354 H   0  0  0  0  0  0
  -29.7457  -11.8060   17.4360 H   0  0  0  0  0  0
  -29.6528  -13.5177   17.7706 H   0  0  0  0  0  0
  -27.8276  -11.3209   18.8059 H   0  0  0  0  0  0
  -27.3646  -12.6563   17.7839 H   0  0  0  0  0  0
  -27.6996  -14.2593   19.5808 H   0  0  0  0  0  0
  -28.6992  -11.9373   21.2854 H   0  0  0  0  0  0
  -28.4022  -13.5090   21.8921 H   0  0  0  0  0  0
  -25.2767   -9.5702   22.4720 H   0  0  0  0  0  0
  -24.0020   -7.4641   22.7465 H   0  0  0  0  0  0
  -21.0837   -8.8755   19.8935 H   0  0  0  0  0  0
  -22.3686  -10.9660   19.6144 H   0  0  0  0  0  0
  -21.2011   -7.6151   23.9703 H   0  0  0  0  0  0
  -21.1483   -6.0527   25.9070 H   0  0  0  0  0  0
  -22.0604   -2.7605   23.2839 H   0  0  0  0  0  0
  -22.4187  -11.9853   22.4730 H   0  0  0  0  0  0
  -21.1150  -13.1188   22.2653 H   0  0  0  0  0  0
  -24.6988  -15.8586   20.5906 H   0  0  0  0  0  0
  -26.3453  -15.6284   20.2602 H   0  0  0  0  0  0
  -26.7148  -32.5491   23.1155 H   0  0  0  0  0  0
  -25.0076  -33.9773   25.0470 H   0  0  0  0  0  0
  -22.7006  -31.3127   21.4181 H   0  0  0  0  0  0
  -23.3752  -35.9645   23.3300 H   0  0  0  0  0  0
  -24.3585  -36.8932   22.2052 H   0  0  0  0  0  0
  -23.7241  -37.6516   23.6657 H   0  0  0  0  0  0
  -26.0782  -31.5760   20.6117 H   0  0  0  0  0  0
  -26.8313  -30.8529   22.0036 H   0  0  0  0  0  0
  -28.0997  -29.0172   21.1934 H   0  0  0  0  0  0
  -25.9574  -26.0039   18.9291 H   0  0  0  0  0  0
  -23.9609  -27.3472   18.9881 H   0  0  0  0  0  0
  -23.7355  -30.6203   19.4123 H   0  0  0  0  0  0
  -22.7401  -29.2684   19.8610 H   0  0  0  0  0  0
  -25.1287  -36.1976   25.0827 H   0  0  0  0  0  0
  -20.9962  -28.3236   24.1416 H   0  0  0  0  0  0
  -20.5669  -26.2279   23.3600 H   0  0  0  0  0  0
  -21.6642  -26.7433   22.1203 H   0  0  0  0  0  0
  -19.6913  -25.6288   21.1230 H   0  0  0  0  0  0
  -19.6686  -27.3189   20.6738 H   0  0  0  0  0  0
  -17.4198  -26.6658   21.4021 H   0  0  0  0  0  0
  -18.0330  -26.0055   22.9012 H   0  0  0  0  0  0
  -19.7935  -30.7250   24.2275 H   0  0  0  0  0  0
  -17.5016  -31.6262   24.5155 H   0  0  0  0  0  0
  -15.5349  -30.2980   23.7647 H   0  0  0  0  0  0
  -15.8667  -28.0808   22.7069 H   0  0  0  0  0  0
  -24.5898  -30.7068   25.7809 H   0  0  0  0  0  0
  -24.8918  -32.2873   26.4930 H   0  0  0  0  0  0
  -25.8060  -30.8876   27.0243 H   0  0  0  0  0  0
  -26.2891  -29.6798   24.1178 H   0  0  0  0  0  0
  -27.4039  -29.7270   25.4645 H   0  0  0  0  0  0
  -27.8754  -30.4349   23.9375 H   0  0  0  0  0  0
  -27.2666  -33.3610   26.2121 H   0  0  0  0  0  0
  -28.3850  -32.6894   25.0342 H   0  0  0  0  0  0
  -28.0729  -31.8428   26.5413 H   0  0  0  0  0  0
  -28.2592  -38.0118   24.7518 H   0  0  0  0  0  0
  -28.1087  -36.2651   24.6275 H   0  0  0  0  0  0
  -27.2301  -37.1450   25.8860 H   0  0  0  0  0  0
  -20.9335  -29.8789   21.6948 H   0  0  0  0  0  0
  -26.0182  -38.2872   24.1404 H   0  0  0  0  0  0
  -26.1640  -17.7285   19.0647 H   0  0  0  0  0  0
  -27.1565  -18.6146   17.9025 H   0  0  0  0  0  0
  -26.5789  -19.4181   19.3765 H   0  0  0  0  0  0
  -31.1273  -17.0517   23.0281 H   0  0  0  0  0  0
  -32.2322  -16.6883   21.7100 H   0  0  0  0  0  0
  -31.8898  -15.4687   22.9319 H   0  0  0  0  0  0
  -31.4772  -21.3532   16.4311 H   0  0  0  0  0  0
  -30.9853  -22.2675   17.8362 H   0  0  0  0  0  0
  -29.7704  -21.5940   16.7490 H   0  0  0  0  0  0
  -32.8767  -19.8937   17.8579 H   0  0  0  0  0  0
  -32.2306  -18.9657   19.1837 H   0  0  0  0  0  0
  -32.4016  -20.7077   19.3294 H   0  0  0  0  0  0
  -31.1814  -18.9301   16.2586 H   0  0  0  0  0  0
  -29.4630  -19.0216   16.6045 H   0  0  0  0  0  0
  -30.5028  -17.9642   17.5503 H   0  0  0  0  0  0
  -28.8135  -22.7067   18.6066 H   0  0  0  0  0  0
  -27.7580  -22.4258   19.9357 H   0  0  0  0  0  0
  -30.1664  -24.3374   19.8861 H   0  0  0  0  0  0
  -29.2315  -24.0286   21.3304 H   0  0  0  0  0  0
  -29.2901  -21.0673   21.1232 H   0  0  0  0  0  0
  -30.6763  -21.6745   20.2931 H   0  0  0  0  0  0
  -27.1956  -24.8076   20.2575 H   0  0  0  0  0  0
  -28.0100  -25.0726   18.7257 H   0  0  0  0  0  0
  -28.6726  -20.3552   18.5664 H   0  0  0  0  0  0
  1 25  1  0  0  0
  1 30  2  0  0  0
  1 83  1  0  0  0
  2  3  1  0  0  0
  2 25  1  0  0  0
  2 89  1  0  0  0
  2 90  1  0  0  0
  3  4  1  0  0  0
  3 91  1  0  0  0
  3 92  1  0  0  0
  4  5  1  0  0  0
  4 93  1  0  0  0
  4 94  1  0  0  0
  5  6  1  0  0  0
  5 26  1  0  0  0
  5 95  1  0  0  0
  6 25  1  0  0  0
  6 96  1  0  0  0
  6 97  1  0  0  0
  7  8  2  0  0  0
  7 26  1  0  0  0
  7 29  1  0  0  0
  8  9  1  0  0  0
  8 22  1  0  0  0
  9 10  1  0  0  0
  9 27  2  0  0  0
 10 11  2  0  0  0
 10 15  1  0  0  0
 11 12  1  0  0  0
 11 98  1  0  0  0
 12 13  2  0  0  0
 12 99  1  0  0  0
 13 14  1  0  0  0
 13 31  1  0  0  0
 14 15  2  0  0  0
 14100  1  0  0  0
 15101  1  0  0  0
 16 17  2  0  0  0
 16 21  1  0  0  0
 16 31  1  0  0  0
 17 18  1  0  0  0
 17102  1  0  0  0
 18 19  2  0  0  0
 18103  1  0  0  0
 19 20  1  0  0  0
 19 24  1  0  0  0
 20 21  2  0  0  0
 20104  1  0  0  0
 21 23  1  0  0  0
 22 28  1  0  0  0
 22 32  2  0  0  0
 26 27  1  0  0  0
 28105  1  0  0  0
 28106  1  0  0  0
 29107  1  0  0  0
 29108  1  0  0  0
 33 34  1  0  0  0
 33 66  1  0  0  0
 33 70  2  0  0  0
 34 36  1  0  0  0
 34 59  1  0  0  0
 34109  1  0  0  0
 35 44  2  0  0  0
 35 45  1  0  0  0
 35 68  1  0  0  0
 36 56  1  0  0  0
 36110  1  0  0  0
 37 39  1  0  0  0
 37 47  1  0  0  0
 37 66  1  0  0  0
 37111  1  0  0  0
 38 43  2  0  0  0
 38 46  1  0  0  0
 38 47  1  0  0  0
 39 64  1  0  0  0
 39 67  2  0  0  0
 40 52  1  0  0  0
 40 53  2  0  0  0
 40 58  1  0  0  0
 41112  1  0  0  0
 41113  1  0  0  0
 41114  1  0  0  0
 41 48  1  0  0  0
 42 43  1  0  0  0
 42 66  1  0  0  0
 42115  1  0  0  0
 42116  1  0  0  0
 43 44  1  0  0  0
 44117  1  0  0  0
 45 46  2  0  0  0
 45118  1  0  0  0
 46119  1  0  0  0
 47120  1  0  0  0
 47121  1  0  0  0
 48 56  1  0  0  0
 48 65  1  0  0  0
 48122  1  0  0  0
 49 50  1  0  0  0
 49 53  1  0  0  0
 49 64  1  0  0  0
 49123  1  0  0  0
 50 51  1  0  0  0
 50124  1  0  0  0
 50125  1  0  0  0
 51 52  1  0  0  0
 51126  1  0  0  0
 51127  1  0  0  0
 52128  1  0  0  0
 52129  1  0  0  0
 53 54  1  0  0  0
 54 55  2  0  0  0
 54130  1  0  0  0
 55 57  1  0  0  0
 55131  1  0  0  0
 56 69  2  0  0  0
 57 58  2  0  0  0
 57132  1  0  0  0
 58133  1  0  0  0
 59 60  1  0  0  0
 59 61  1  0  0  0
 59 62  1  0  0  0
 60134  1  0  0  0
 60135  1  0  0  0
 60136  1  0  0  0
 61137  1  0  0  0
 61138  1  0  0  0
 61139  1  0  0  0
 62140  1  0  0  0
 62141  1  0  0  0
 62142  1  0  0  0
 63 65  1  0  0  0
 63143  1  0  0  0
 63144  1  0  0  0
 63145  1  0  0  0
 64146  1  0  0  0
 65147  1  0  0  0
 68 81  1  0  0  0
 71 83  1  0  0  0
 71 85  1  0  0  0
 71 86  2  0  0  0
 72 73  1  0  0  0
 72 85  2  0  0  0
 72 87  1  0  0  0
 73148  1  0  0  0
 73149  1  0  0  0
 73150  1  0  0  0
 74151  1  0  0  0
 74152  1  0  0  0
 74153  1  0  0  0
 74 83  1  0  0  0
 75154  1  0  0  0
 75155  1  0  0  0
 75156  1  0  0  0
 75 84  1  0  0  0
 76 84  1  0  0  0
 76157  1  0  0  0
 76158  1  0  0  0
 76159  1  0  0  0
 77 84  1  0  0  0
 77160  1  0  0  0
 77161  1  0  0  0
 77162  1  0  0  0
 78 79  1  0  0  0
 78 80  1  0  0  0
 78163  1  0  0  0
 78164  1  0  0  0
 79 81  1  0  0  0
 79165  1  0  0  0
 79166  1  0  0  0
 80167  1  0  0  0
 80168  1  0  0  0
 80 82  1  0  0  0
 81169  1  0  0  0
 81170  1  0  0  0
 82 84  1  0  0  0
 82 87  1  0  0  0
 82171  1  0  0  0
 83 88  1  0  0  0
 86 87  1  0  0  0
M  ISO  4   1 100  68 101  81 101  83 100
M  END
> <chiral flag>
0

> <version>
0

> <s_m_source_file>
/data/baiqing/PycharmProjects/Reinvent-master-3.2/result/LINK_invent/BTK/process_docking_weight1_custom_sum_contain_oxygen_bond_distance_aromatic_linkinvent_7_9_3/rearranged_h_0061.sdf

> <i_m_source_file_index>
28

> <r_mmod_Potential_Energy-OPLS-2005>
228.531066894531

> <r_mmod_Stretch_Energy-OPLS-2005>
67.4780578613281

> <r_mmod_Bend_Energy-OPLS-2005>
149.984283447266

> <r_mmod_Torsional_Energy-OPLS-2005>
214.866912841797

> <r_mmod_Improper_Torsional_Energy-OPLS-2005>
2.09190320968628

> <r_mmod_Van_der_Waal_Energy-OPLS-2005>
138.349578857422

> <r_mmod_Electrostatic_Energy-OPLS-2005>
-193.294448852539

> <r_mmod_Solvation_Energy-OPLS-2005>
-174.844161987305

> <b_mmod_Minimization_Converged-OPLS-2005>
0

> <r_mmod_RMS_Derivative-OPLS-2005>
1.04415857791901

$$$$
28
                    3D
 Structure written by MMmdl.
157165  0  0  1  0            999 V2000
  -30.4959  -15.0081   20.3998 C   0  0  0  0  0  0
  -30.4441  -12.6185   19.5241 C   0  0  0  0  0  0
  -29.5315  -12.5437   18.2754 C   0  0  0  0  0  0
  -28.0644  -12.3204   18.6856 C   0  0  0  0  0  0
  -27.6321  -13.2529   19.8469 C   0  0  2  0  0  0
  -28.6690  -13.2895   20.9917 C   0  0  0  0  0  0
  -25.2461  -13.8222   20.5719 C   0  0  0  0  0  0
  -24.1777  -13.0440   20.9223 C   0  0  0  0  0  0
  -24.6399  -11.6927   20.8749 C   0  0  0  0  0  0
  -23.9084  -10.4295   21.0403 C   0  0  0  0  0  0
  -24.3630   -9.4209   21.9182 C   0  0  0  0  0  0
  -23.6300   -8.2246   22.0754 C   0  0  0  0  0  0
  -22.4281   -8.0284   21.3544 C   0  0  0  0  0  0
  -21.9921   -9.0258   20.4646 C   0  0  0  0  0  0
  -22.7254  -10.2135   20.3054 C   0  0  0  0  0  0
  -21.6856   -6.0737   22.5278 C   0  0  0  0  0  0
  -21.4015   -6.5641   23.8211 C   0  0  0  0  0  0
  -21.3660   -5.6793   24.9174 C   0  0  0  0  0  0
  -21.6045   -4.3056   24.7224 C   0  0  0  0  0  0
  -21.8819   -3.8148   23.4345 C   0  0  0  0  0  0
  -21.9193   -4.6965   22.3402 C   0  0  0  0  0  0
  -22.7797  -13.5207   21.1879 C   0  0  0  0  0  0
  -22.1662   -4.2150   21.0979 F   0  0  0  0  0  0
  -21.5629   -3.4540   25.7737 F   0  0  0  0  0  0
  -29.9461  -13.7198   20.4064 N   0  0  0  0  0  0
  -26.2894  -12.9464   20.3269 N   0  0  0  0  0  0
  -25.9336  -11.6587   20.5745 N   0  0  0  0  0  0
  -22.0451  -12.8192   22.0435 N   0  0  0  0  0  0
  -25.4125  -15.1952   20.4149 N   0  0  0  0  0  0
  -31.6703  -15.1025   20.0261 O   0  0  0  0  0  0
  -21.6643   -6.8882   21.4241 O   0  0  0  0  0  0
  -22.3476  -14.5510   20.6723 O   0  0  0  0  0  0
  -24.6459  -31.8377   23.1819 C   0  0  0  0  0  0
  -25.9214  -32.4659   23.8229 C   0  0  1  0  0  0
  -27.2285  -27.0944   20.1553 C   0  0  0  0  0  0
  -25.5945  -33.8468   24.2144 N   0  0  0  0  0  0
  -23.4530  -30.4519   21.5266 C   0  0  2  0  0  0
  -24.9065  -28.8671   20.1020 C   0  0  0  0  0  0
  -22.7582  -29.4503   22.4831 C   0  0  0  0  0  0
  -18.0304  -28.1396   22.8475 C   0  0  0  0  0  0
  -24.1490  -36.7241   23.2645 C   0  0  0  0  0  0
  -26.0089  -30.6962   21.3876 C   0  0  0  0  0  0
  -26.0792  -29.3027   20.7298 C   0  0  0  0  0  0
  -27.2325  -28.4288   20.7445 C   0  0  0  0  0  0
  -26.0334  -26.7658   19.4809 C   0  0  0  0  0  0
  -24.8988  -27.6145   19.4626 C   0  0  0  0  0  0
  -23.6822  -29.7727   20.1474 C   0  0  0  0  0  0
  -25.4126  -36.3010   24.0308 C   0  0  1  0  0  0
  -20.5918  -28.3722   23.1229 C   0  0  2  0  0  0
  -20.6785  -26.9420   22.5410 C   0  0  0  0  0  0
  -19.5762  -26.6378   21.5216 C   0  0  0  0  0  0
  -18.1942  -26.7934   22.1622 C   0  0  0  0  0  0
  -19.1562  -28.8879   23.2842 C   0  0  0  0  0  0
  -18.9480  -30.1475   23.8867 C   0  0  0  0  0  0
  -17.6476  -30.6592   24.0559 C   0  0  0  0  0  0
  -25.9078  -34.9388   23.5042 C   0  0  0  0  0  0
  -16.5366  -29.9085   23.6339 C   0  0  0  0  0  0
  -16.7289  -28.6504   23.0358 C   0  0  0  0  0  0
  -26.4527  -31.6554   25.0697 C   0  0  0  0  0  0
  -25.3699  -31.3761   26.1386 C   0  0  0  0  0  0
  -27.0408  -30.2945   24.6320 C   0  0  0  0  0  0
  -27.6042  -32.4341   25.7488 C   0  0  0  0  0  0
  -27.5572  -37.1775   24.8464 C   0  0  0  0  0  0
  -21.4268  -29.3034   22.3589 N   0  0  0  0  0  0
  -26.4282  -37.3731   23.9407 N   0  0  0  0  0  0
  -24.7223  -31.0187   22.0870 N   0  0  0  0  0  0
  -23.4204  -28.8070   23.3014 O   0  0  0  0  0  0
  -28.2829  -26.1107   20.3103 O   0  0  0  0  0  0
  -26.5678  -34.8898   22.4631 O   0  0  0  0  0  0
  -23.5569  -32.1276   23.7014 O   0  0  0  0  0  0
  -29.2320  -21.9822   20.1889 C   0  0  0  0  0  0
  -28.2959  -23.1440   20.2020 C   0  0  0  0  0  0
  -28.8163  -20.5765   20.4542 C   0  0  0  0  0  0
  -26.6969  -21.5275   20.7054 C   0  0  0  0  0  0
  -25.2384  -21.2616   21.0097 C   0  0  0  0  0  0
  -29.5193  -18.9007   22.2879 C   0  0  0  0  0  0
  -31.1811  -19.5312   20.5687 C   0  0  0  0  0  0
  -28.4785  -24.7070   19.6250 C   0  0  0  0  0  0
  -29.5110  -17.6495   20.0274 C   0  0  0  0  0  0
  -29.6999  -19.1741   20.7825 C   0  0  0  0  0  0
  -27.0214  -22.8071   20.4878 N   0  0  0  0  0  0
  -27.4950  -20.4531   20.6939 N   0  0  0  0  0  0
  -29.6840  -16.1661   20.6308 N   0  0  0  0  0  0
  -31.4784  -12.7796   19.2168 H   0  0  0  0  0  0
  -30.4431  -11.6682   20.0604 H   0  0  0  0  0  0
  -29.8613  -11.7439   17.6109 H   0  0  0  0  0  0
  -29.6156  -13.4706   17.7057 H   0  0  0  0  0  0
  -27.9649  -11.2794   18.9949 H   0  0  0  0  0  0
  -27.4042  -12.4480   17.8269 H   0  0  0  0  0  0
  -27.5937  -14.2541   19.4166 H   0  0  0  0  0  0
  -28.7625  -12.3136   21.4705 H   0  0  0  0  0  0
  -28.3547  -13.9853   21.7710 H   0  0  0  0  0  0
  -25.2772   -9.5685   22.4761 H   0  0  0  0  0  0
  -24.0006   -7.4638   22.7476 H   0  0  0  0  0  0
  -21.0851   -8.8780   19.8952 H   0  0  0  0  0  0
  -22.3711  -10.9675   19.6165 H   0  0  0  0  0  0
  -21.2008   -7.6149   23.9715 H   0  0  0  0  0  0
  -21.1483   -6.0524   25.9077 H   0  0  0  0  0  0
  -22.0597   -2.7610   23.2845 H   0  0  0  0  0  0
  -22.4078  -11.9857   22.4823 H   0  0  0  0  0  0
  -21.1066  -13.1206   22.2643 H   0  0  0  0  0  0
  -24.6419  -15.8453   20.5249 H   0  0  0  0  0  0
  -26.2549  -15.6369   20.0704 H   0  0  0  0  0  0
  -26.7277  -32.5248   23.0950 H   0  0  0  0  0  0
  -25.0055  -33.9572   25.0267 H   0  0  0  0  0  0
  -22.7576  -31.2784   21.3664 H   0  0  0  0  0  0
  -23.3758  -35.9567   23.3289 H   0  0  0  0  0  0
  -24.3570  -36.8900   22.2063 H   0  0  0  0  0  0
  -23.7244  -37.6428   23.6703 H   0  0  0  0  0  0
  -26.1699  -31.4476   20.6133 H   0  0  0  0  0  0
  -26.8767  -30.7483   22.0334 H   0  0  0  0  0  0
  -28.1196  -28.7515   21.2714 H   0  0  0  0  0  0
  -25.9380  -25.7970   19.0126 H   0  0  0  0  0  0
  -24.0015  -27.2742   18.9641 H   0  0  0  0  0  0
  -23.8175  -30.5441   19.3885 H   0  0  0  0  0  0
  -22.7970  -29.2131   19.8396 H   0  0  0  0  0  0
  -25.1319  -36.1825   25.0800 H   0  0  0  0  0  0
  -21.0010  -28.3322   24.1351 H   0  0  0  0  0  0
  -20.5674  -26.2336   23.3634 H   0  0  0  0  0  0
  -21.6651  -26.7418   22.1212 H   0  0  0  0  0  0
  -19.6922  -25.6283   21.1261 H   0  0  0  0  0  0
  -19.6703  -27.3175   20.6735 H   0  0  0  0  0  0
  -17.4213  -26.6680   21.4023 H   0  0  0  0  0  0
  -18.0334  -26.0081   22.9023 H   0  0  0  0  0  0
  -19.7956  -30.7298   24.2220 H   0  0  0  0  0  0
  -17.5030  -31.6269   24.5167 H   0  0  0  0  0  0
  -15.5365  -30.2978   23.7681 H   0  0  0  0  0  0
  -15.8688  -28.0816   22.7088 H   0  0  0  0  0  0
  -24.5885  -30.7102   25.7707 H   0  0  0  0  0  0
  -24.8881  -32.2949   26.4739 H   0  0  0  0  0  0
  -25.7970  -30.8983   27.0211 H   0  0  0  0  0  0
  -26.3041  -29.6647   24.1319 H   0  0  0  0  0  0
  -27.3994  -29.7269   25.4917 H   0  0  0  0  0  0
  -27.8955  -30.4169   23.9665 H   0  0  0  0  0  0
  -27.2621  -33.3668   26.1985 H   0  0  0  0  0  0
  -28.3893  -32.6862   25.0347 H   0  0  0  0  0  0
  -28.0664  -31.8523   26.5473 H   0  0  0  0  0  0
  -28.2577  -38.0084   24.7514 H   0  0  0  0  0  0
  -28.1081  -36.2612   24.6288 H   0  0  0  0  0  0
  -27.2287  -37.1418   25.8866 H   0  0  0  0  0  0
  -20.9488  -29.8731   21.6747 H   0  0  0  0  0  0
  -26.0141  -38.2794   24.1419 H   0  0  0  0  0  0
  -30.2731  -22.1768   19.9684 H   0  0  0  0  0  0
  -24.5929  -21.9586   20.4750 H   0  0  0  0  0  0
  -25.0514  -21.3728   22.0774 H   0  0  0  0  0  0
  -24.9515  -20.2513   20.7169 H   0  0  0  0  0  0
  -29.7549  -19.7841   22.8823 H   0  0  0  0  0  0
  -30.1612  -18.0901   22.6324 H   0  0  0  0  0  0
  -28.4897  -18.6217   22.5118 H   0  0  0  0  0  0
  -31.4821  -20.3810   21.1821 H   0  0  0  0  0  0
  -31.3697  -19.7943   19.5278 H   0  0  0  0  0  0
  -31.8347  -18.6959   20.8213 H   0  0  0  0  0  0
  -27.9178  -24.7386   18.6913 H   0  0  0  0  0  0
  -29.5163  -24.7342   19.2936 H   0  0  0  0  0  0
  -30.0483  -17.6721   19.0786 H   0  0  0  0  0  0
  -28.4645  -17.6462   19.7211 H   0  0  0  0  0  0
  -28.8313  -15.8820   21.0905 H   0  0  0  0  0  0
  1 25  1  0  0  0
  1 30  2  0  0  0
  1 83  1  0  0  0
  2  3  1  0  0  0
  2 25  1  0  0  0
  2 84  1  0  0  0
  2 85  1  0  0  0
  3  4  1  0  0  0
  3 86  1  0  0  0
  3 87  1  0  0  0
  4  5  1  0  0  0
  4 88  1  0  0  0
  4 89  1  0  0  0
  5  6  1  0  0  0
  5 26  1  0  0  0
  5 90  1  0  0  0
  6 25  1  0  0  0
  6 91  1  0  0  0
  6 92  1  0  0  0
  7  8  2  0  0  0
  7 26  1  0  0  0
  7 29  1  0  0  0
  8  9  1  0  0  0
  8 22  1  0  0  0
  9 10  1  0  0  0
  9 27  2  0  0  0
 10 11  2  0  0  0
 10 15  1  0  0  0
 11 12  1  0  0  0
 11 93  1  0  0  0
 12 13  2  0  0  0
 12 94  1  0  0  0
 13 14  1  0  0  0
 13 31  1  0  0  0
 14 15  2  0  0  0
 14 95  1  0  0  0
 15 96  1  0  0  0
 16 17  2  0  0  0
 16 21  1  0  0  0
 16 31  1  0  0  0
 17 18  1  0  0  0
 17 97  1  0  0  0
 18 19  2  0  0  0
 18 98  1  0  0  0
 19 20  1  0  0  0
 19 24  1  0  0  0
 20 21  2  0  0  0
 20 99  1  0  0  0
 21 23  1  0  0  0
 22 28  1  0  0  0
 22 32  2  0  0  0
 26 27  1  0  0  0
 28100  1  0  0  0
 28101  1  0  0  0
 29102  1  0  0  0
 29103  1  0  0  0
 33 34  1  0  0  0
 33 66  1  0  0  0
 33 70  2  0  0  0
 34 36  1  0  0  0
 34 59  1  0  0  0
 34104  1  0  0  0
 35 44  2  0  0  0
 35 45  1  0  0  0
 35 68  1  0  0  0
 36 56  1  0  0  0
 36105  1  0  0  0
 37 39  1  0  0  0
 37 47  1  0  0  0
 37 66  1  0  0  0
 37106  1  0  0  0
 38 43  2  0  0  0
 38 46  1  0  0  0
 38 47  1  0  0  0
 39 64  1  0  0  0
 39 67  2  0  0  0
 40 52  1  0  0  0
 40 53  2  0  0  0
 40 58  1  0  0  0
 41107  1  0  0  0
 41108  1  0  0  0
 41109  1  0  0  0
 41 48  1  0  0  0
 42 43  1  0  0  0
 42 66  1  0  0  0
 42110  1  0  0  0
 42111  1  0  0  0
 43 44  1  0  0  0
 44112  1  0  0  0
 45 46  2  0  0  0
 45113  1  0  0  0
 46114  1  0  0  0
 47115  1  0  0  0
 47116  1  0  0  0
 48 56  1  0  0  0
 48 65  1  0  0  0
 48117  1  0  0  0
 49 50  1  0  0  0
 49 53  1  0  0  0
 49 64  1  0  0  0
 49118  1  0  0  0
 50 51  1  0  0  0
 50119  1  0  0  0
 50120  1  0  0  0
 51 52  1  0  0  0
 51121  1  0  0  0
 51122  1  0  0  0
 52123  1  0  0  0
 52124  1  0  0  0
 53 54  1  0  0  0
 54 55  2  0  0  0
 54125  1  0  0  0
 55 57  1  0  0  0
 55126  1  0  0  0
 56 69  2  0  0  0
 57 58  2  0  0  0
 57127  1  0  0  0
 58128  1  0  0  0
 59 60  1  0  0  0
 59 61  1  0  0  0
 59 62  1  0  0  0
 60129  1  0  0  0
 60130  1  0  0  0
 60131  1  0  0  0
 61132  1  0  0  0
 61133  1  0  0  0
 61134  1  0  0  0
 62135  1  0  0  0
 62136  1  0  0  0
 62137  1  0  0  0
 63 65  1  0  0  0
 63138  1  0  0  0
 63139  1  0  0  0
 63140  1  0  0  0
 64141  1  0  0  0
 65142  1  0  0  0
 68 78  1  0  0  0
 71 72  2  0  0  0
 71 73  1  0  0  0
 71143  1  0  0  0
 72 78  1  0  0  0
 72 81  1  0  0  0
 73 80  1  0  0  0
 73 82  2  0  0  0
 74 75  1  0  0  0
 74 81  2  0  0  0
 74 82  1  0  0  0
 75144  1  0  0  0
 75145  1  0  0  0
 75146  1  0  0  0
 76147  1  0  0  0
 76148  1  0  0  0
 76149  1  0  0  0
 76 80  1  0  0  0
 77 80  1  0  0  0
 77150  1  0  0  0
 77151  1  0  0  0
 77152  1  0  0  0
 78153  1  0  0  0
 78154  1  0  0  0
 79 80  1  0  0  0
 79 83  1  0  0  0
 79155  1  0  0  0
 79156  1  0  0  0
 83157  1  0  0  0
M  ISO  4   1 100  68 101  78 101  83 100
M  END
> <chiral flag>
0

> <version>
0

> <s_m_source_file>
/data/baiqing/PycharmProjects/Reinvent-master-3.2/result/LINK_invent/BTK/process_docking_weight1_custom_sum_contain_oxygen_bond_distance_aromatic_linkinvent_7_9_3/rearranged_h_0061.sdf

> <i_m_source_file_index>
29

> <r_mmod_Potential_Energy-OPLS-2005>
219.29426574707

> <r_mmod_Stretch_Energy-OPLS-2005>
312.706756591797

> <r_mmod_Bend_Energy-OPLS-2005>
338.782928466797

> <r_mmod_Torsional_Energy-OPLS-2005>
235.475830078125

> <r_mmod_Improper_Torsional_Energy-OPLS-2005>
8.10598659515381

> <r_mmod_Van_der_Waal_Energy-OPLS-2005>
131.795654296875

> <r_mmod_Electrostatic_Energy-OPLS-2005>
-812.345703125

> <r_mmod_Solvation_Energy-OPLS-2005>
-232.662750244141

> <b_mmod_Minimization_Converged-OPLS-2005>
0

> <r_mmod_RMS_Derivative-OPLS-2005>
0.20890636742115

$$$$
30
                    3D
 Structure written by MMmdl.
158166  0  0  1  0            999 V2000
  -30.6800  -14.6141   20.5542 C   0  0  0  0  0  0
  -30.4484  -12.4123   19.4147 C   0  0  0  0  0  0
  -29.5069  -12.5249   18.1965 C   0  0  0  0  0  0
  -28.0268  -12.3591   18.6078 C   0  0  0  0  0  0
  -27.6591  -13.1908   19.8665 C   0  0  2  0  0  0
  -28.7226  -12.9826   20.9737 C   0  0  0  0  0  0
  -25.2584  -13.8078   20.5625 C   0  0  0  0  0  0
  -24.1811  -13.0391   20.9166 C   0  0  0  0  0  0
  -24.6347  -11.6860   20.8713 C   0  0  0  0  0  0
  -23.8996  -10.4259   21.0382 C   0  0  0  0  0  0
  -24.3556   -9.4187   21.9167 C   0  0  0  0  0  0
  -23.6243   -8.2224   22.0730 C   0  0  0  0  0  0
  -22.4237   -8.0245   21.3522 C   0  0  0  0  0  0
  -21.9856   -9.0209   20.4634 C   0  0  0  0  0  0
  -22.7164  -10.2097   20.3036 C   0  0  0  0  0  0
  -21.6843   -6.0693   22.5257 C   0  0  0  0  0  0
  -21.4000   -6.5598   23.8190 C   0  0  0  0  0  0
  -21.3668   -5.6757   24.9162 C   0  0  0  0  0  0
  -21.6056   -4.3020   24.7217 C   0  0  0  0  0  0
  -21.8825   -3.8104   23.4343 C   0  0  0  0  0  0
  -21.9190   -4.6919   22.3395 C   0  0  0  0  0  0
  -22.7849  -13.5255   21.1811 C   0  0  0  0  0  0
  -22.1661   -4.2098   21.0976 F   0  0  0  0  0  0
  -21.5645   -3.4514   25.7740 F   0  0  0  0  0  0
  -30.0127  -13.4140   20.4163 N   0  0  0  0  0  0
  -26.3014  -12.9208   20.3345 N   0  0  0  0  0  0
  -25.9276  -11.6391   20.5740 N   0  0  0  0  0  0
  -22.0445  -12.8290   22.0377 N   0  0  0  0  0  0
  -25.4301  -15.1771   20.3938 N   0  0  0  0  0  0
  -31.8424  -14.6952   20.1428 O   0  0  0  0  0  0
  -21.6618   -6.8828   21.4217 O   0  0  0  0  0  0
  -22.3565  -14.5559   20.6633 O   0  0  0  0  0  0
  -24.6200  -31.8640   23.2034 C   0  0  0  0  0  0
  -25.9066  -32.4806   23.8353 C   0  0  1  0  0  0
  -27.2331  -27.3781   20.1047 C   0  0  0  0  0  0
  -25.5902  -33.8600   24.2273 N   0  0  0  0  0  0
  -23.4113  -30.4871   21.5444 C   0  0  2  0  0  0
  -24.8589  -28.9537   20.1052 C   0  0  0  0  0  0
  -22.7429  -29.4631   22.4915 C   0  0  0  0  0  0
  -18.0262  -28.1400   22.8494 C   0  0  0  0  0  0
  -24.1478  -36.7307   23.2634 C   0  0  0  0  0  0
  -25.9448  -30.8142   21.3637 C   0  0  0  0  0  0
  -26.0210  -29.4449   20.7101 C   0  0  0  0  0  0
  -27.2085  -28.6660   20.7060 C   0  0  0  0  0  0
  -26.0505  -26.9320   19.4641 C   0  0  0  0  0  0
  -24.8720  -27.7012   19.4736 C   0  0  0  0  0  0
  -23.6231  -29.8253   20.1567 C   0  0  0  0  0  0
  -25.4103  -36.3104   24.0326 C   0  0  1  0  0  0
  -20.5860  -28.3680   23.1300 C   0  0  2  0  0  0
  -20.6741  -26.9397   22.5422 C   0  0  0  0  0  0
  -19.5729  -26.6391   21.5210 C   0  0  0  0  0  0
  -18.1910  -26.7945   22.1631 C   0  0  0  0  0  0
  -19.1513  -28.8853   23.2902 C   0  0  0  0  0  0
  -18.9453  -30.1460   23.8911 C   0  0  0  0  0  0
  -17.6455  -30.6601   24.0580 C   0  0  0  0  0  0
  -25.9051  -34.9471   23.5100 C   0  0  0  0  0  0
  -16.5344  -29.9114   23.6332 C   0  0  0  0  0  0
  -16.7247  -28.6537   23.0338 C   0  0  0  0  0  0
  -26.4445  -31.6609   25.0717 C   0  0  0  0  0  0
  -25.3692  -31.3776   26.1468 C   0  0  0  0  0  0
  -27.0251  -30.3037   24.6117 C   0  0  0  0  0  0
  -27.5999  -32.4333   25.7519 C   0  0  0  0  0  0
  -27.5583  -37.1795   24.8450 C   0  0  0  0  0  0
  -21.4137  -29.3063   22.3707 N   0  0  0  0  0  0
  -26.4266  -37.3813   23.9442 N   0  0  0  0  0  0
  -24.6773  -31.0704   22.0953 N   0  0  0  0  0  0
  -23.4190  -28.8137   23.2937 O   0  0  0  0  0  0
  -28.3798  -26.5846   20.1729 O   0  0  0  0  0  0
  -26.5613  -34.8934   22.4669 O   0  0  0  0  0  0
  -23.5384  -32.1397   23.7408 O   0  0  0  0  0  0
  -30.0775  -20.1881   18.6844 C   0  0  0  0  0  0
  -30.4072  -18.9028   18.2395 C   0  0  0  0  0  0
  -30.0809  -20.4195   20.0678 C   0  0  0  0  0  0
  -30.6094  -18.1724   20.3982 C   0  0  0  0  0  0
  -30.5320  -18.5948   16.7630 C   0  0  0  0  0  0
  -28.6412  -16.0664   21.1309 C   0  0  0  0  0  0
  -30.8614  -16.9853   21.3577 C   0  0  0  0  0  0
  -29.3077  -24.1869   20.4806 C   0  0  0  0  0  0
  -28.2550  -25.1660   19.8555 C   0  0  0  0  0  0
  -29.2631  -22.7358   19.8748 C   0  0  0  0  0  0
  -30.6607  -17.8992   19.0987 N   0  0  0  0  0  0
  -30.3512  -19.3892   20.9151 N   0  0  0  0  0  0
  -30.0777  -15.7366   21.0927 N   0  0  0  0  0  0
  -29.8667  -21.6701   20.6593 O   0  0  0  0  0  0
  -31.4791  -12.5611   19.0869 H   0  0  0  0  0  0
  -30.4286  -11.4053   19.8341 H   0  0  0  0  0  0
  -29.7787  -11.7830   17.4432 H   0  0  0  0  0  0
  -29.6453  -13.4958   17.7168 H   0  0  0  0  0  0
  -27.8469  -11.2989   18.7909 H   0  0  0  0  0  0
  -27.3804  -12.6357   17.7737 H   0  0  0  0  0  0
  -27.6848  -14.2240   19.5344 H   0  0  0  0  0  0
  -28.7651  -11.9208   21.2186 H   0  0  0  0  0  0
  -28.4981  -13.4416   21.9316 H   0  0  0  0  0  0
  -25.2684   -9.5675   22.4760 H   0  0  0  0  0  0
  -23.9942   -7.4615   22.7445 H   0  0  0  0  0  0
  -21.0787   -8.8699   19.8957 H   0  0  0  0  0  0
  -22.3583  -10.9616   19.6148 H   0  0  0  0  0  0
  -21.1969   -7.6098   23.9679 H   0  0  0  0  0  0
  -21.1507   -6.0488   25.9067 H   0  0  0  0  0  0
  -22.0604   -2.7561   23.2855 H   0  0  0  0  0  0
  -22.4028  -11.9982   22.4822 H   0  0  0  0  0  0
  -21.1038  -13.1314   22.2501 H   0  0  0  0  0  0
  -24.6654  -15.8375   20.4784 H   0  0  0  0  0  0
  -26.2888  -15.5995   20.0659 H   0  0  0  0  0  0
  -26.7141  -32.5496   23.1123 H   0  0  0  0  0  0
  -25.0043  -33.9737   25.0411 H   0  0  0  0  0  0
  -22.7043  -31.3064   21.4042 H   0  0  0  0  0  0
  -23.3744  -35.9631   23.3268 H   0  0  0  0  0  0
  -24.3600  -36.8953   22.2059 H   0  0  0  0  0  0
  -23.7195  -37.6488   23.6665 H   0  0  0  0  0  0
  -26.0578  -31.5768   20.5924 H   0  0  0  0  0  0
  -26.8341  -30.8733   21.9793 H   0  0  0  0  0  0
  -28.0982  -29.0418   21.1911 H   0  0  0  0  0  0
  -26.0111  -25.9824   18.9504 H   0  0  0  0  0  0
  -23.9828  -27.3258   18.9854 H   0  0  0  0  0  0
  -23.7340  -30.6034   19.4003 H   0  0  0  0  0  0
  -22.7469  -29.2480   19.8565 H   0  0  0  0  0  0
  -25.1269  -36.1944   25.0809 H   0  0  0  0  0  0
  -20.9953  -28.3233   24.1419 H   0  0  0  0  0  0
  -20.5602  -26.2271   23.3609 H   0  0  0  0  0  0
  -21.6614  -26.7412   22.1238 H   0  0  0  0  0  0
  -19.6871  -25.6299   21.1242 H   0  0  0  0  0  0
  -19.6680  -27.3201   20.6741 H   0  0  0  0  0  0
  -17.4165  -26.6665   21.4048 H   0  0  0  0  0  0
  -18.0330  -26.0095   22.9044 H   0  0  0  0  0  0
  -19.7925  -30.7279   24.2269 H   0  0  0  0  0  0
  -17.5018  -31.6276   24.5204 H   0  0  0  0  0  0
  -15.5354  -30.3045   23.7648 H   0  0  0  0  0  0
  -15.8639  -28.0894   22.7023 H   0  0  0  0  0  0
  -24.5896  -30.7050   25.7879 H   0  0  0  0  0  0
  -24.8834  -32.2943   26.4820 H   0  0  0  0  0  0
  -25.8061  -30.9077   27.0285 H   0  0  0  0  0  0
  -26.2798  -29.6865   24.1082 H   0  0  0  0  0  0
  -27.3897  -29.7226   25.4596 H   0  0  0  0  0  0
  -27.8692  -30.4347   23.9341 H   0  0  0  0  0  0
  -27.2591  -33.3653   26.2043 H   0  0  0  0  0  0
  -28.3864  -32.6847   25.0393 H   0  0  0  0  0  0
  -28.0568  -31.8465   26.5496 H   0  0  0  0  0  0
  -28.2546  -38.0154   24.7614 H   0  0  0  0  0  0
  -28.1129  -36.2692   24.6115 H   0  0  0  0  0  0
  -27.2330  -37.1258   25.8855 H   0  0  0  0  0  0
  -20.9249  -29.8872   21.7037 H   0  0  0  0  0  0
  -26.0135  -38.2866   24.1521 H   0  0  0  0  0  0
  -29.8722  -20.9606   17.9601 H   0  0  0  0  0  0
  -31.5825  -18.5823   16.4732 H   0  0  0  0  0  0
  -30.0290  -19.3538   16.1643 H   0  0  0  0  0  0
  -30.0968  -17.6262   16.5200 H   0  0  0  0  0  0
  -28.4493  -17.0034   21.6577 H   0  0  0  0  0  0
  -28.0069  -15.3600   21.6487 H   0  0  0  0  0  0
  -28.2763  -16.2211   20.1170 H   0  0  0  0  0  0
  -30.6335  -17.3108   22.3741 H   0  0  0  0  0  0
  -31.9358  -16.7959   21.3741 H   0  0  0  0  0  0
  -29.1402  -24.1434   21.5560 H   0  0  0  0  0  0
  -30.3099  -24.5959   20.3458 H   0  0  0  0  0  0
  -27.2900  -24.7867   20.1943 H   0  0  0  0  0  0
  -28.2661  -25.0754   18.7685 H   0  0  0  0  0  0
  -28.2249  -22.4497   19.6975 H   0  0  0  0  0  0
  -29.7444  -22.8072   18.9015 H   0  0  0  0  0  0
  1 25  1  0  0  0
  1 30  2  0  0  0
  1 83  1  0  0  0
  2  3  1  0  0  0
  2 25  1  0  0  0
  2 85  1  0  0  0
  2 86  1  0  0  0
  3  4  1  0  0  0
  3 87  1  0  0  0
  3 88  1  0  0  0
  4  5  1  0  0  0
  4 89  1  0  0  0
  4 90  1  0  0  0
  5  6  1  0  0  0
  5 26  1  0  0  0
  5 91  1  0  0  0
  6 25  1  0  0  0
  6 92  1  0  0  0
  6 93  1  0  0  0
  7  8  2  0  0  0
  7 26  1  0  0  0
  7 29  1  0  0  0
  8  9  1  0  0  0
  8 22  1  0  0  0
  9 10  1  0  0  0
  9 27  2  0  0  0
 10 11  2  0  0  0
 10 15  1  0  0  0
 11 12  1  0  0  0
 11 94  1  0  0  0
 12 13  2  0  0  0
 12 95  1  0  0  0
 13 14  1  0  0  0
 13 31  1  0  0  0
 14 15  2  0  0  0
 14 96  1  0  0  0
 15 97  1  0  0  0
 16 17  2  0  0  0
 16 21  1  0  0  0
 16 31  1  0  0  0
 17 18  1  0  0  0
 17 98  1  0  0  0
 18 19  2  0  0  0
 18 99  1  0  0  0
 19 20  1  0  0  0
 19 24  1  0  0  0
 20 21  2  0  0  0
 20100  1  0  0  0
 21 23  1  0  0  0
 22 28  1  0  0  0
 22 32  2  0  0  0
 26 27  1  0  0  0
 28101  1  0  0  0
 28102  1  0  0  0
 29103  1  0  0  0
 29104  1  0  0  0
 33 34  1  0  0  0
 33 66  1  0  0  0
 33 70  2  0  0  0
 34 36  1  0  0  0
 34 59  1  0  0  0
 34105  1  0  0  0
 35 44  2  0  0  0
 35 45  1  0  0  0
 35 68  1  0  0  0
 36 56  1  0  0  0
 36106  1  0  0  0
 37 39  1  0  0  0
 37 47  1  0  0  0
 37 66  1  0  0  0
 37107  1  0  0  0
 38 43  2  0  0  0
 38 46  1  0  0  0
 38 47  1  0  0  0
 39 64  1  0  0  0
 39 67  2  0  0  0
 40 52  1  0  0  0
 40 53  2  0  0  0
 40 58  1  0  0  0
 41108  1  0  0  0
 41109  1  0  0  0
 41110  1  0  0  0
 41 48  1  0  0  0
 42 43  1  0  0  0
 42 66  1  0  0  0
 42111  1  0  0  0
 42112  1  0  0  0
 43 44  1  0  0  0
 44113  1  0  0  0
 45 46  2  0  0  0
 45114  1  0  0  0
 46115  1  0  0  0
 47116  1  0  0  0
 47117  1  0  0  0
 48 56  1  0  0  0
 48 65  1  0  0  0
 48118  1  0  0  0
 49 50  1  0  0  0
 49 53  1  0  0  0
 49 64  1  0  0  0
 49119  1  0  0  0
 50 51  1  0  0  0
 50120  1  0  0  0
 50121  1  0  0  0
 51 52  1  0  0  0
 51122  1  0  0  0
 51123  1  0  0  0
 52124  1  0  0  0
 52125  1  0  0  0
 53 54  1  0  0  0
 54 55  2  0  0  0
 54126  1  0  0  0
 55 57  1  0  0  0
 55127  1  0  0  0
 56 69  2  0  0  0
 57 58  2  0  0  0
 57128  1  0  0  0
 58129  1  0  0  0
 59 60  1  0  0  0
 59 61  1  0  0  0
 59 62  1  0  0  0
 60130  1  0  0  0
 60131  1  0  0  0
 60132  1  0  0  0
 61133  1  0  0  0
 61134  1  0  0  0
 61135  1  0  0  0
 62136  1  0  0  0
 62137  1  0  0  0
 62138  1  0  0  0
 63 65  1  0  0  0
 63139  1  0  0  0
 63140  1  0  0  0
 63141  1  0  0  0
 64142  1  0  0  0
 65143  1  0  0  0
 68 79  1  0  0  0
 71 72  2  0  0  0
 71 73  1  0  0  0
 71144  1  0  0  0
 72 75  1  0  0  0
 72 81  1  0  0  0
 73 82  2  0  0  0
 73 84  1  0  0  0
 74 77  1  0  0  0
 74 81  2  0  0  0
 74 82  1  0  0  0
 75145  1  0  0  0
 75146  1  0  0  0
 75147  1  0  0  0
 76 83  1  0  0  0
 76148  1  0  0  0
 76149  1  0  0  0
 76150  1  0  0  0
 77 83  1  0  0  0
 77151  1  0  0  0
 77152  1  0  0  0
 78 79  1  0  0  0
 78 80  1  0  0  0
 78153  1  0  0  0
 78154  1  0  0  0
 79155  1  0  0  0
 79156  1  0  0  0
 80 84  1  0  0  0
 80157  1  0  0  0
 80158  1  0  0  0
M  ISO  4   1 100  68 101  79 101  83 100
M  END
> <chiral flag>
0

> <version>
0

> <s_m_source_file>
/data/baiqing/PycharmProjects/Reinvent-master-3.2/result/LINK_invent/BTK/process_docking_weight1_custom_sum_contain_oxygen_bond_distance_aromatic_linkinvent_7_9_3/rearranged_h_0061.sdf

> <i_m_source_file_index>
30

> <r_mmod_Potential_Energy-OPLS-2005>
-416.262969970703

> <r_mmod_Stretch_Energy-OPLS-2005>
61.9204940795898

> <r_mmod_Bend_Energy-OPLS-2005>
148.840118408203

> <r_mmod_Torsional_Energy-OPLS-2005>
237.639663696289

> <r_mmod_Improper_Torsional_Energy-OPLS-2005>
2.72795724868774

> <r_mmod_Van_der_Waal_Energy-OPLS-2005>
181.441146850586

> <r_mmod_Electrostatic_Energy-OPLS-2005>
-850.945373535156

> <r_mmod_Solvation_Energy-OPLS-2005>
-231.144683837891

> <b_mmod_Minimization_Converged-OPLS-2005>
0

> <r_mmod_RMS_Derivative-OPLS-2005>
2.96970081329346

$$$$
31
                    3D
 Structure written by MMmdl.
154162  0  0  1  0            999 V2000
  -30.6989  -14.5180   20.5093 C   0  0  0  0  0  0
  -30.4171  -12.3255   19.4215 C   0  0  0  0  0  0
  -29.4917  -12.5023   18.2007 C   0  0  0  0  0  0
  -28.0103  -12.3747   18.6128 C   0  0  0  0  0  0
  -27.6556  -13.2193   19.8686 C   0  0  2  0  0  0
  -28.7067  -13.0318   20.9869 C   0  0  0  0  0  0
  -25.2565  -13.8203   20.5707 C   0  0  0  0  0  0
  -24.1836  -13.0458   20.9192 C   0  0  0  0  0  0
  -24.6406  -11.6926   20.8752 C   0  0  0  0  0  0
  -23.9067  -10.4310   21.0400 C   0  0  0  0  0  0
  -24.3615   -9.4224   21.9173 C   0  0  0  0  0  0
  -23.6294   -8.2259   22.0748 C   0  0  0  0  0  0
  -22.4270   -8.0290   21.3554 C   0  0  0  0  0  0
  -21.9912   -9.0261   20.4643 C   0  0  0  0  0  0
  -22.7239  -10.2146   20.3047 C   0  0  0  0  0  0
  -21.6862   -6.0727   22.5282 C   0  0  0  0  0  0
  -21.4021   -6.5634   23.8211 C   0  0  0  0  0  0
  -21.3661   -5.6789   24.9175 C   0  0  0  0  0  0
  -21.6043   -4.3054   24.7232 C   0  0  0  0  0  0
  -21.8817   -3.8140   23.4358 C   0  0  0  0  0  0
  -21.9192   -4.6952   22.3407 C   0  0  0  0  0  0
  -22.7841  -13.5225   21.1844 C   0  0  0  0  0  0
  -22.1658   -4.2138   21.0985 F   0  0  0  0  0  0
  -21.5619   -3.4534   25.7743 F   0  0  0  0  0  0
  -30.0207  -13.3402   20.4109 N   0  0  0  0  0  0
  -26.3012  -12.9392   20.3370 N   0  0  0  0  0  0
  -25.9346  -11.6537   20.5784 N   0  0  0  0  0  0
  -22.0480  -12.8230   22.0400 N   0  0  0  0  0  0
  -25.4260  -15.1942   20.4161 N   0  0  0  0  0  0
  -31.8747  -14.6309   20.1652 O   0  0  0  0  0  0
  -21.6649   -6.8880   21.4247 O   0  0  0  0  0  0
  -22.3531  -14.5527   20.6684 O   0  0  0  0  0  0
  -24.6180  -31.8649   23.2104 C   0  0  0  0  0  0
  -25.9059  -32.4811   23.8401 C   0  0  1  0  0  0
  -27.2298  -27.3984   20.1093 C   0  0  0  0  0  0
  -25.5915  -33.8616   24.2332 N   0  0  0  0  0  0
  -23.4078  -30.4915   21.5498 C   0  0  2  0  0  0
  -24.8540  -28.9559   20.1105 C   0  0  0  0  0  0
  -22.7419  -29.4685   22.4980 C   0  0  0  0  0  0
  -18.0268  -28.1384   22.8465 C   0  0  0  0  0  0
  -24.1475  -36.7316   23.2638 C   0  0  0  0  0  0
  -25.9403  -30.8201   21.3703 C   0  0  0  0  0  0
  -26.0155  -29.4533   20.7135 C   0  0  0  0  0  0
  -27.2056  -28.6843   20.7064 C   0  0  0  0  0  0
  -26.0499  -26.9330   19.4815 C   0  0  0  0  0  0
  -24.8695  -27.6977   19.4872 C   0  0  0  0  0  0
  -23.6164  -29.8233   20.1647 C   0  0  0  0  0  0
  -25.4097  -36.3113   24.0336 C   0  0  1  0  0  0
  -20.5869  -28.3718   23.1288 C   0  0  2  0  0  0
  -20.6777  -26.9452   22.5436 C   0  0  0  0  0  0
  -19.5798  -26.6425   21.5201 C   0  0  0  0  0  0
  -18.1942  -26.7946   22.1560 C   0  0  0  0  0  0
  -19.1515  -28.8862   23.2885 C   0  0  0  0  0  0
  -18.9432  -30.1474   23.8873 C   0  0  0  0  0  0
  -17.6426  -30.6583   24.0524 C   0  0  0  0  0  0
  -25.9031  -34.9475   23.5125 C   0  0  0  0  0  0
  -16.5322  -29.9072   23.6304 C   0  0  0  0  0  0
  -16.7245  -28.6483   23.0352 C   0  0  0  0  0  0
  -26.4467  -31.6612   25.0749 C   0  0  0  0  0  0
  -25.3714  -31.3741   26.1486 C   0  0  0  0  0  0
  -27.0297  -30.3051   24.6155 C   0  0  0  0  0  0
  -27.6038  -32.4336   25.7513 C   0  0  0  0  0  0
  -27.5571  -37.1809   24.8464 C   0  0  0  0  0  0
  -21.4154  -29.3081   22.3699 N   0  0  0  0  0  0
  -26.4285  -37.3799   23.9402 N   0  0  0  0  0  0
  -24.6739  -31.0732   22.1020 N   0  0  0  0  0  0
  -23.4168  -28.8233   23.3055 O   0  0  0  0  0  0
  -28.3835  -26.6300   20.1648 O   0  0  0  0  0  0
  -26.5591  -34.8924   22.4687 O   0  0  0  0  0  0
  -23.5370  -32.1415   23.7478 O   0  0  0  0  0  0
  -29.8393  -19.9028   21.7922 C   0  0  0  0  0  0
  -27.8523  -19.5412   20.5496 C   0  0  0  0  0  0
  -28.7365  -20.4688   21.1290 C   0  0  0  0  0  0
  -29.0878  -17.7789   21.3495 C   0  0  0  0  0  0
  -28.4483  -21.9846   21.1274 C   0  0  0  0  0  0
  -29.2257  -16.2643   21.5508 C   0  0  0  0  0  0
  -29.4975  -22.8875   20.4246 C   0  0  0  0  0  0
  -29.3956  -24.4178   20.7256 C   0  0  0  0  0  0
  -28.2562  -25.1933   20.0137 C   0  0  0  0  0  0
  -30.0160  -18.5650   21.8864 N   0  0  0  0  0  0
  -28.0361  -18.2065   20.6591 N   0  0  0  0  0  0
  -29.9558  -15.6331   20.4557 N   0  0  0  0  0  0
  -31.4616  -12.4141   19.1178 H   0  0  0  0  0  0
  -30.3109  -11.3250   19.8418 H   0  0  0  0  0  0
  -29.7324  -11.7650   17.4343 H   0  0  0  0  0  0
  -29.6618  -13.4802   17.7458 H   0  0  0  0  0  0
  -27.8117  -11.3199   18.8048 H   0  0  0  0  0  0
  -27.3640  -12.6595   17.7807 H   0  0  0  0  0  0
  -27.6839  -14.2642   19.5590 H   0  0  0  0  0  0
  -28.6962  -12.0063   21.3561 H   0  0  0  0  0  0
  -28.4867  -13.6546   21.8522 H   0  0  0  0  0  0
  -25.2756   -9.5696   22.4751 H   0  0  0  0  0  0
  -23.9996   -7.4649   22.7464 H   0  0  0  0  0  0
  -21.0844   -8.8770   19.8954 H   0  0  0  0  0  0
  -22.3676  -10.9677   19.6149 H   0  0  0  0  0  0
  -21.2025   -7.6142   23.9715 H   0  0  0  0  0  0
  -21.1483   -6.0518   25.9075 H   0  0  0  0  0  0
  -22.0599   -2.7604   23.2861 H   0  0  0  0  0  0
  -22.4093  -11.9894   22.4794 H   0  0  0  0  0  0
  -21.1088  -13.1243   22.2582 H   0  0  0  0  0  0
  -24.6599  -15.8461   20.5445 H   0  0  0  0  0  0
  -26.2793  -15.6458   20.1077 H   0  0  0  0  0  0
  -26.7127  -32.5500   23.1158 H   0  0  0  0  0  0
  -25.0073  -33.9769   25.0488 H   0  0  0  0  0  0
  -22.7004  -31.3104   21.4082 H   0  0  0  0  0  0
  -23.3739  -35.9652   23.3313 H   0  0  0  0  0  0
  -24.3570  -36.8917   22.2052 H   0  0  0  0  0  0
  -23.7213  -37.6517   23.6651 H   0  0  0  0  0  0
  -26.0564  -31.5833   20.5992 H   0  0  0  0  0  0
  -26.8288  -30.8744   21.9900 H   0  0  0  0  0  0
  -28.1004  -29.0609   21.1837 H   0  0  0  0  0  0
  -26.0200  -25.9744   18.9854 H   0  0  0  0  0  0
  -23.9810  -27.3151   19.0036 H   0  0  0  0  0  0
  -23.7222  -30.5980   19.4059 H   0  0  0  0  0  0
  -22.7418  -29.2389   19.8715 H   0  0  0  0  0  0
  -25.1267  -36.1986   25.0832 H   0  0  0  0  0  0
  -20.9974  -28.3318   24.1402 H   0  0  0  0  0  0
  -20.5691  -26.2323   23.3630 H   0  0  0  0  0  0
  -21.6656  -26.7505   22.1244 H   0  0  0  0  0  0
  -19.6988  -25.6353   21.1207 H   0  0  0  0  0  0
  -19.6756  -27.3263   20.6752 H   0  0  0  0  0  0
  -17.4261  -26.6684   21.3928 H   0  0  0  0  0  0
  -18.0306  -26.0057   22.8907 H   0  0  0  0  0  0
  -19.7909  -30.7328   24.2196 H   0  0  0  0  0  0
  -17.4969  -31.6297   24.5060 H   0  0  0  0  0  0
  -15.5334  -30.2996   23.7619 H   0  0  0  0  0  0
  -15.8642  -28.0804   22.7062 H   0  0  0  0  0  0
  -24.5900  -30.7066   25.7831 H   0  0  0  0  0  0
  -24.8888  -32.2906   26.4902 H   0  0  0  0  0  0
  -25.8048  -30.8940   27.0268 H   0  0  0  0  0  0
  -26.2862  -29.6828   24.1161 H   0  0  0  0  0  0
  -27.3999  -29.7266   25.4629 H   0  0  0  0  0  0
  -27.8730  -30.4364   23.9368 H   0  0  0  0  0  0
  -27.2668  -33.3646   26.2091 H   0  0  0  0  0  0
  -28.3860  -32.6878   25.0347 H   0  0  0  0  0  0
  -28.0705  -31.8461   26.5431 H   0  0  0  0  0  0
  -28.2591  -38.0104   24.7508 H   0  0  0  0  0  0
  -28.1057  -36.2630   24.6295 H   0  0  0  0  0  0
  -27.2293  -37.1467   25.8870 H   0  0  0  0  0  0
  -20.9329  -29.8804   21.6914 H   0  0  0  0  0  0
  -26.0175  -38.2874   24.1421 H   0  0  0  0  0  0
  -30.5737  -20.5240   22.2832 H   0  0  0  0  0  0
  -26.9625  -19.8657   20.0295 H   0  0  0  0  0  0
  -28.3613  -22.2922   22.1694 H   0  0  0  0  0  0
  -27.4698  -22.1622   20.6784 H   0  0  0  0  0  0
  -29.7236  -16.0675   22.5013 H   0  0  0  0  0  0
  -28.2280  -15.8348   21.6219 H   0  0  0  0  0  0
  -29.4850  -22.7123   19.3477 H   0  0  0  0  0  0
  -30.4854  -22.5705   20.7627 H   0  0  0  0  0  0
  -30.3399  -24.8791   20.4349 H   0  0  0  0  0  0
  -29.3209  -24.5723   21.8026 H   0  0  0  0  0  0
  -27.3132  -24.8334   20.4281 H   0  0  0  0  0  0
  -28.2575  -24.9528   18.9506 H   0  0  0  0  0  0
  -30.4442  -16.3561   19.9466 H   0  0  0  0  0  0
  1 25  1  0  0  0
  1 30  2  0  0  0
  1 82  1  0  0  0
  2  3  1  0  0  0
  2 25  1  0  0  0
  2 83  1  0  0  0
  2 84  1  0  0  0
  3  4  1  0  0  0
  3 85  1  0  0  0
  3 86  1  0  0  0
  4  5  1  0  0  0
  4 87  1  0  0  0
  4 88  1  0  0  0
  5  6  1  0  0  0
  5 26  1  0  0  0
  5 89  1  0  0  0
  6 25  1  0  0  0
  6 90  1  0  0  0
  6 91  1  0  0  0
  7  8  2  0  0  0
  7 26  1  0  0  0
  7 29  1  0  0  0
  8  9  1  0  0  0
  8 22  1  0  0  0
  9 10  1  0  0  0
  9 27  2  0  0  0
 10 11  2  0  0  0
 10 15  1  0  0  0
 11 12  1  0  0  0
 11 92  1  0  0  0
 12 13  2  0  0  0
 12 93  1  0  0  0
 13 14  1  0  0  0
 13 31  1  0  0  0
 14 15  2  0  0  0
 14 94  1  0  0  0
 15 95  1  0  0  0
 16 17  2  0  0  0
 16 21  1  0  0  0
 16 31  1  0  0  0
 17 18  1  0  0  0
 17 96  1  0  0  0
 18 19  2  0  0  0
 18 97  1  0  0  0
 19 20  1  0  0  0
 19 24  1  0  0  0
 20 21  2  0  0  0
 20 98  1  0  0  0
 21 23  1  0  0  0
 22 28  1  0  0  0
 22 32  2  0  0  0
 26 27  1  0  0  0
 28 99  1  0  0  0
 28100  1  0  0  0
 29101  1  0  0  0
 29102  1  0  0  0
 33 34  1  0  0  0
 33 66  1  0  0  0
 33 70  2  0  0  0
 34 36  1  0  0  0
 34 59  1  0  0  0
 34103  1  0  0  0
 35 44  2  0  0  0
 35 45  1  0  0  0
 35 68  1  0  0  0
 36 56  1  0  0  0
 36104  1  0  0  0
 37 39  1  0  0  0
 37 47  1  0  0  0
 37 66  1  0  0  0
 37105  1  0  0  0
 38 43  2  0  0  0
 38 46  1  0  0  0
 38 47  1  0  0  0
 39 64  1  0  0  0
 39 67  2  0  0  0
 40 52  1  0  0  0
 40 53  2  0  0  0
 40 58  1  0  0  0
 41106  1  0  0  0
 41107  1  0  0  0
 41108  1  0  0  0
 41 48  1  0  0  0
 42 43  1  0  0  0
 42 66  1  0  0  0
 42109  1  0  0  0
 42110  1  0  0  0
 43 44  1  0  0  0
 44111  1  0  0  0
 45 46  2  0  0  0
 45112  1  0  0  0
 46113  1  0  0  0
 47114  1  0  0  0
 47115  1  0  0  0
 48 56  1  0  0  0
 48 65  1  0  0  0
 48116  1  0  0  0
 49 50  1  0  0  0
 49 53  1  0  0  0
 49 64  1  0  0  0
 49117  1  0  0  0
 50 51  1  0  0  0
 50118  1  0  0  0
 50119  1  0  0  0
 51 52  1  0  0  0
 51120  1  0  0  0
 51121  1  0  0  0
 52122  1  0  0  0
 52123  1  0  0  0
 53 54  1  0  0  0
 54 55  2  0  0  0
 54124  1  0  0  0
 55 57  1  0  0  0
 55125  1  0  0  0
 56 69  2  0  0  0
 57 58  2  0  0  0
 57126  1  0  0  0
 58127  1  0  0  0
 59 60  1  0  0  0
 59 61  1  0  0  0
 59 62  1  0  0  0
 60128  1  0  0  0
 60129  1  0  0  0
 60130  1  0  0  0
 61131  1  0  0  0
 61132  1  0  0  0
 61133  1  0  0  0
 62134  1  0  0  0
 62135  1  0  0  0
 62136  1  0  0  0
 63 65  1  0  0  0
 63137  1  0  0  0
 63138  1  0  0  0
 63139  1  0  0  0
 64140  1  0  0  0
 65141  1  0  0  0
 68 79  1  0  0  0
 71 73  2  0  0  0
 71 80  1  0  0  0
 71142  1  0  0  0
 72 73  1  0  0  0
 72 81  2  0  0  0
 72143  1  0  0  0
 73 75  1  0  0  0
 74 76  1  0  0  0
 74 80  2  0  0  0
 74 81  1  0  0  0
 75 77  1  0  0  0
 75144  1  0  0  0
 75145  1  0  0  0
 76 82  1  0  0  0
 76146  1  0  0  0
 76147  1  0  0  0
 77 78  1  0  0  0
 77148  1  0  0  0
 77149  1  0  0  0
 78 79  1  0  0  0
 78150  1  0  0  0
 78151  1  0  0  0
 79152  1  0  0  0
 79153  1  0  0  0
 82154  1  0  0  0
M  ISO  4   1 100  68 101  79 101  82 100
M  END
> <chiral flag>
0

> <version>
0

> <s_m_source_file>
/data/baiqing/PycharmProjects/Reinvent-master-3.2/result/LINK_invent/BTK/process_docking_weight1_custom_sum_contain_oxygen_bond_distance_aromatic_linkinvent_7_9_3/rearranged_h_0061.sdf

> <i_m_source_file_index>
31

> <r_mmod_Potential_Energy-OPLS-2005>
-548.40869140625

> <r_mmod_Stretch_Energy-OPLS-2005>
38.9701080322266

> <r_mmod_Bend_Energy-OPLS-2005>
113.576309204102

> <r_mmod_Torsional_Energy-OPLS-2005>
256.391845703125

> <r_mmod_Improper_Torsional_Energy-OPLS-2005>
22.1217613220215

> <r_mmod_Van_der_Waal_Energy-OPLS-2005>
150.723297119141

> <r_mmod_Electrostatic_Energy-OPLS-2005>
-933.608154296875

> <r_mmod_Solvation_Energy-OPLS-2005>
-220.010208129883

> <b_mmod_Minimization_Converged-OPLS-2005>
0

> <r_mmod_RMS_Derivative-OPLS-2005>
2.79461693763733

$$$$
32
                    3D
 Structure written by MMmdl.
160168  0  0  1  0            999 V2000
  -30.5087  -15.0099   20.4254 C   0  0  0  0  0  0
  -30.4427  -12.6248   19.5284 C   0  0  0  0  0  0
  -29.5458  -12.5587   18.2705 C   0  0  0  0  0  0
  -28.0665  -12.3601   18.6575 C   0  0  0  0  0  0
  -27.6334  -13.2633   19.8443 C   0  0  2  0  0  0
  -28.6673  -13.2931   20.9898 C   0  0  0  0  0  0
  -25.2465  -13.8219   20.5674 C   0  0  0  0  0  0
  -24.1799  -13.0430   20.9199 C   0  0  0  0  0  0
  -24.6447  -11.6921   20.8719 C   0  0  0  0  0  0
  -23.9124  -10.4295   21.0386 C   0  0  0  0  0  0
  -24.3680   -9.4208   21.9168 C   0  0  0  0  0  0
  -23.6335   -8.2247   22.0754 C   0  0  0  0  0  0
  -22.4306   -8.0293   21.3550 C   0  0  0  0  0  0
  -21.9948   -9.0266   20.4651 C   0  0  0  0  0  0
  -22.7295  -10.2134   20.3044 C   0  0  0  0  0  0
  -21.6866   -6.0750   22.5270 C   0  0  0  0  0  0
  -21.4019   -6.5642   23.8209 C   0  0  0  0  0  0
  -21.3668   -5.6790   24.9167 C   0  0  0  0  0  0
  -21.6042   -4.3051   24.7212 C   0  0  0  0  0  0
  -21.8829   -3.8153   23.4336 C   0  0  0  0  0  0
  -21.9196   -4.6971   22.3396 C   0  0  0  0  0  0
  -22.7833  -13.5192   21.1848 C   0  0  0  0  0  0
  -22.1668   -4.2163   21.0972 F   0  0  0  0  0  0
  -21.5636   -3.4534   25.7726 F   0  0  0  0  0  0
  -29.9413  -13.7307   20.4030 N   0  0  0  0  0  0
  -26.2914  -12.9484   20.3210 N   0  0  0  0  0  0
  -25.9387  -11.6602   20.5679 N   0  0  0  0  0  0
  -22.0494  -12.8188   22.0399 N   0  0  0  0  0  0
  -25.4059  -15.1972   20.4114 N   0  0  0  0  0  0
  -31.7008  -15.0841   20.1026 O   0  0  0  0  0  0
  -21.6661   -6.8898   21.4241 O   0  0  0  0  0  0
  -22.3500  -14.5483   20.6661 O   0  0  0  0  0  0
  -24.6487  -31.8403   23.1839 C   0  0  0  0  0  0
  -25.9238  -32.4665   23.8250 C   0  0  1  0  0  0
  -27.2093  -27.0763   20.1857 C   0  0  0  0  0  0
  -25.5980  -33.8481   24.2163 N   0  0  0  0  0  0
  -23.4551  -30.4565   21.5315 C   0  0  2  0  0  0
  -24.9041  -28.8702   20.1153 C   0  0  0  0  0  0
  -22.7588  -29.4523   22.4855 C   0  0  0  0  0  0
  -18.0310  -28.1393   22.8475 C   0  0  0  0  0  0
  -24.1484  -36.7235   23.2645 C   0  0  0  0  0  0
  -26.0146  -30.6946   21.3923 C   0  0  0  0  0  0
  -26.0838  -29.2995   20.7387 C   0  0  0  0  0  0
  -27.2411  -28.4238   20.7488 C   0  0  0  0  0  0
  -26.0049  -26.7574   19.5269 C   0  0  0  0  0  0
  -24.8828  -27.6159   19.4865 C   0  0  0  0  0  0
  -23.6849  -29.7824   20.1517 C   0  0  0  0  0  0
  -25.4130  -36.3016   24.0308 C   0  0  1  0  0  0
  -20.5924  -28.3733   23.1208 C   0  0  2  0  0  0
  -20.6793  -26.9427   22.5398 C   0  0  0  0  0  0
  -19.5762  -26.6371   21.5209 C   0  0  0  0  0  0
  -18.1947  -26.7925   22.1615 C   0  0  0  0  0  0
  -19.1571  -28.8880   23.2828 C   0  0  0  0  0  0
  -18.9489  -30.1481   23.8848 C   0  0  0  0  0  0
  -17.6487  -30.6596   24.0547 C   0  0  0  0  0  0
  -25.9089  -34.9399   23.5050 C   0  0  0  0  0  0
  -16.5382  -29.9085   23.6339 C   0  0  0  0  0  0
  -16.7292  -28.6507   23.0349 C   0  0  0  0  0  0
  -26.4544  -31.6555   25.0724 C   0  0  0  0  0  0
  -25.3710  -31.3772   26.1414 C   0  0  0  0  0  0
  -27.0438  -30.2944   24.6361 C   0  0  0  0  0  0
  -27.6044  -32.4368   25.7517 C   0  0  0  0  0  0
  -27.5570  -37.1776   24.8470 C   0  0  0  0  0  0
  -21.4275  -29.3055   22.3584 N   0  0  0  0  0  0
  -26.4287  -37.3740   23.9421 N   0  0  0  0  0  0
  -24.7260  -31.0203   22.0903 N   0  0  0  0  0  0
  -23.4204  -28.8078   23.3036 O   0  0  0  0  0  0
  -28.2442  -26.0559   20.1977 O   0  0  0  0  0  0
  -26.5679  -34.8911   22.4632 O   0  0  0  0  0  0
  -23.5591  -32.1332   23.7009 O   0  0  0  0  0  0
  -28.8365  -23.0187   18.7222 C   0  0  0  0  0  0
  -29.1564  -21.7596   18.1661 C   0  0  0  0  0  0
  -28.5839  -23.1252   20.0970 C   0  0  0  0  0  0
  -29.0901  -20.6540   20.2079 C   0  0  0  0  0  0
  -28.8748  -22.6671   15.7525 C   0  0  0  0  0  0
  -27.5515  -18.6875   20.8646 C   0  0  0  0  0  0
  -29.5235  -19.1927   22.3237 C   0  0  0  0  0  0
  -29.3119  -21.5191   16.6720 C   0  0  0  0  0  0
  -27.9784  -24.5749   20.6913 C   0  0  0  0  0  0
  -29.8886  -17.7481   20.2257 C   0  0  0  0  0  0
  -29.0351  -19.1011   20.8668 C   0  0  0  0  0  0
  -29.2858  -20.6366   18.9009 N   0  0  0  0  0  0
  -28.6950  -21.8770   20.8034 N   0  0  0  0  0  0
  -29.7165  -16.1941   20.6113 N   0  0  0  0  0  0
  -31.4800  -12.7852   19.2331 H   0  0  0  0  0  0
  -30.4274  -11.6719   20.0596 H   0  0  0  0  0  0
  -29.8746  -11.7547   17.6120 H   0  0  0  0  0  0
  -29.6557  -13.4817   17.6989 H   0  0  0  0  0  0
  -27.9279  -11.3093   18.9136 H   0  0  0  0  0  0
  -27.4322  -12.5539   17.7919 H   0  0  0  0  0  0
  -27.5941  -14.2733   19.4345 H   0  0  0  0  0  0
  -28.7613  -12.3151   21.4670 H   0  0  0  0  0  0
  -28.3538  -13.9923   21.7654 H   0  0  0  0  0  0
  -25.2853   -9.5678   22.4710 H   0  0  0  0  0  0
  -24.0055   -7.4649   22.7489 H   0  0  0  0  0  0
  -21.0874   -8.8802   19.8975 H   0  0  0  0  0  0
  -22.3769  -10.9674   19.6143 H   0  0  0  0  0  0
  -21.2007   -7.6154   23.9706 H   0  0  0  0  0  0
  -21.1483   -6.0525   25.9070 H   0  0  0  0  0  0
  -22.0597   -2.7612   23.2824 H   0  0  0  0  0  0
  -22.4180  -11.9907   22.4840 H   0  0  0  0  0  0
  -21.1092  -13.1174   22.2549 H   0  0  0  0  0  0
  -24.6229  -15.8328   20.5186 H   0  0  0  0  0  0
  -26.2283  -15.6463   20.0301 H   0  0  0  0  0  0
  -26.7306  -32.5250   23.0974 H   0  0  0  0  0  0
  -25.0114  -33.9591   25.0299 H   0  0  0  0  0  0
  -22.7617  -31.2862   21.3723 H   0  0  0  0  0  0
  -23.3766  -35.9545   23.3306 H   0  0  0  0  0  0
  -24.3560  -36.8873   22.2059 H   0  0  0  0  0  0
  -23.7227  -37.6420   23.6699 H   0  0  0  0  0  0
  -26.1848  -31.4406   20.6150 H   0  0  0  0  0  0
  -26.8802  -30.7404   22.0429 H   0  0  0  0  0  0
  -28.1420  -28.7553   21.2471 H   0  0  0  0  0  0
  -25.9139  -25.7894   19.0557 H   0  0  0  0  0  0
  -23.9870  -27.2796   18.9845 H   0  0  0  0  0  0
  -23.8319  -30.5583   19.3995 H   0  0  0  0  0  0
  -22.7958  -29.2322   19.8360 H   0  0  0  0  0  0
  -25.1311  -36.1829   25.0796 H   0  0  0  0  0  0
  -21.0019  -28.3337   24.1326 H   0  0  0  0  0  0
  -20.5678  -26.2357   23.3640 H   0  0  0  0  0  0
  -21.6662  -26.7422   22.1200 H   0  0  0  0  0  0
  -19.6940  -25.6273   21.1266 H   0  0  0  0  0  0
  -19.6694  -27.3155   20.6721 H   0  0  0  0  0  0
  -17.4218  -26.6672   21.4019 H   0  0  0  0  0  0
  -18.0344  -26.0072   22.9013 H   0  0  0  0  0  0
  -19.7982  -30.7310   24.2177 H   0  0  0  0  0  0
  -17.5055  -31.6257   24.5177 H   0  0  0  0  0  0
  -15.5388  -30.2972   23.7693 H   0  0  0  0  0  0
  -15.8693  -28.0812   22.7083 H   0  0  0  0  0  0
  -24.5873  -30.7132   25.7741 H   0  0  0  0  0  0
  -24.8914  -32.2956   26.4803 H   0  0  0  0  0  0
  -25.7966  -30.8964   27.0226 H   0  0  0  0  0  0
  -26.3080  -29.6651   24.1337 H   0  0  0  0  0  0
  -27.3996  -29.7270   25.4972 H   0  0  0  0  0  0
  -27.9001  -30.4187   23.9736 H   0  0  0  0  0  0
  -27.2598  -33.3697   26.2012 H   0  0  0  0  0  0
  -28.3882  -32.6907   25.0361 H   0  0  0  0  0  0
  -28.0691  -31.8568   26.5506 H   0  0  0  0  0  0
  -28.2572  -38.0076   24.7523 H   0  0  0  0  0  0
  -28.1067  -36.2619   24.6283 H   0  0  0  0  0  0
  -27.2294  -37.1398   25.8865 H   0  0  0  0  0  0
  -20.9524  -29.8763   21.6729 H   0  0  0  0  0  0
  -26.0136  -38.2796   24.1441 H   0  0  0  0  0  0
  -28.7142  -23.9001   18.1052 H   0  0  0  0  0  0
  -28.9839  -22.3734   14.7074 H   0  0  0  0  0  0
  -29.4818  -23.5582   15.9101 H   0  0  0  0  0  0
  -27.8281  -22.9284   15.9161 H   0  0  0  0  0  0
  -26.9365  -19.4207   21.3869 H   0  0  0  0  0  0
  -27.3963  -17.7214   21.3472 H   0  0  0  0  0  0
  -27.1725  -18.6194   19.8449 H   0  0  0  0  0  0
  -30.5652  -19.5085   22.3635 H   0  0  0  0  0  0
  -29.4507  -18.2297   22.8303 H   0  0  0  0  0  0
  -28.9432  -19.9169   22.8972 H   0  0  0  0  0  0
  -28.7202  -20.6363   16.4205 H   0  0  0  0  0  0
  -30.3498  -21.2543   16.4694 H   0  0  0  0  0  0
  -26.8987  -24.4357   20.7116 H   0  0  0  0  0  0
  -28.2608  -24.5899   21.7432 H   0  0  0  0  0  0
  -30.9522  -17.9807   20.2807 H   0  0  0  0  0  0
  -29.6711  -17.7606   19.1570 H   0  0  0  0  0  0
  -28.7820  -15.9711   20.9198 H   0  0  0  0  0  0
  1 25  1  0  0  0
  1 30  2  0  0  0
  1 84  1  0  0  0
  2  3  1  0  0  0
  2 25  1  0  0  0
  2 85  1  0  0  0
  2 86  1  0  0  0
  3  4  1  0  0  0
  3 87  1  0  0  0
  3 88  1  0  0  0
  4  5  1  0  0  0
  4 89  1  0  0  0
  4 90  1  0  0  0
  5  6  1  0  0  0
  5 26  1  0  0  0
  5 91  1  0  0  0
  6 25  1  0  0  0
  6 92  1  0  0  0
  6 93  1  0  0  0
  7  8  2  0  0  0
  7 26  1  0  0  0
  7 29  1  0  0  0
  8  9  1  0  0  0
  8 22  1  0  0  0
  9 10  1  0  0  0
  9 27  2  0  0  0
 10 11  2  0  0  0
 10 15  1  0  0  0
 11 12  1  0  0  0
 11 94  1  0  0  0
 12 13  2  0  0  0
 12 95  1  0  0  0
 13 14  1  0  0  0
 13 31  1  0  0  0
 14 15  2  0  0  0
 14 96  1  0  0  0
 15 97  1  0  0  0
 16 17  2  0  0  0
 16 21  1  0  0  0
 16 31  1  0  0  0
 17 18  1  0  0  0
 17 98  1  0  0  0
 18 19  2  0  0  0
 18 99  1  0  0  0
 19 20  1  0  0  0
 19 24  1  0  0  0
 20 21  2  0  0  0
 20100  1  0  0  0
 21 23  1  0  0  0
 22 28  1  0  0  0
 22 32  2  0  0  0
 26 27  1  0  0  0
 28101  1  0  0  0
 28102  1  0  0  0
 29103  1  0  0  0
 29104  1  0  0  0
 33 34  1  0  0  0
 33 66  1  0  0  0
 33 70  2  0  0  0
 34 36  1  0  0  0
 34 59  1  0  0  0
 34105  1  0  0  0
 35 44  2  0  0  0
 35 45  1  0  0  0
 35 68  1  0  0  0
 36 56  1  0  0  0
 36106  1  0  0  0
 37 39  1  0  0  0
 37 47  1  0  0  0
 37 66  1  0  0  0
 37107  1  0  0  0
 38 43  2  0  0  0
 38 46  1  0  0  0
 38 47  1  0  0  0
 39 64  1  0  0  0
 39 67  2  0  0  0
 40 52  1  0  0  0
 40 53  2  0  0  0
 40 58  1  0  0  0
 41108  1  0  0  0
 41109  1  0  0  0
 41110  1  0  0  0
 41 48  1  0  0  0
 42 43  1  0  0  0
 42 66  1  0  0  0
 42111  1  0  0  0
 42112  1  0  0  0
 43 44  1  0  0  0
 44113  1  0  0  0
 45 46  2  0  0  0
 45114  1  0  0  0
 46115  1  0  0  0
 47116  1  0  0  0
 47117  1  0  0  0
 48 56  1  0  0  0
 48 65  1  0  0  0
 48118  1  0  0  0
 49 50  1  0  0  0
 49 53  1  0  0  0
 49 64  1  0  0  0
 49119  1  0  0  0
 50 51  1  0  0  0
 50120  1  0  0  0
 50121  1  0  0  0
 51 52  1  0  0  0
 51122  1  0  0  0
 51123  1  0  0  0
 52124  1  0  0  0
 52125  1  0  0  0
 53 54  1  0  0  0
 54 55  2  0  0  0
 54126  1  0  0  0
 55 57  1  0  0  0
 55127  1  0  0  0
 56 69  2  0  0  0
 57 58  2  0  0  0
 57128  1  0  0  0
 58129  1  0  0  0
 59 60  1  0  0  0
 59 61  1  0  0  0
 59 62  1  0  0  0
 60130  1  0  0  0
 60131  1  0  0  0
 60132  1  0  0  0
 61133  1  0  0  0
 61134  1  0  0  0
 61135  1  0  0  0
 62136  1  0  0  0
 62137  1  0  0  0
 62138  1  0  0  0
 63 65  1  0  0  0
 63139  1  0  0  0
 63140  1  0  0  0
 63141  1  0  0  0
 64142  1  0  0  0
 65143  1  0  0  0
 68 79  1  0  0  0
 71 72  2  0  0  0
 71 73  1  0  0  0
 71144  1  0  0  0
 72 78  1  0  0  0
 72 82  1  0  0  0
 73 79  1  0  0  0
 73 83  2  0  0  0
 74 81  1  0  0  0
 74 82  2  0  0  0
 74 83  1  0  0  0
 75 78  1  0  0  0
 75145  1  0  0  0
 75146  1  0  0  0
 75147  1  0  0  0
 76148  1  0  0  0
 76149  1  0  0  0
 76150  1  0  0  0
 76 81  1  0  0  0
 77 81  1  0  0  0
 77151  1  0  0  0
 77152  1  0  0  0
 77153  1  0  0  0
 78154  1  0  0  0
 78155  1  0  0  0
 79156  1  0  0  0
 79157  1  0  0  0
 80 81  1  0  0  0
 80 84  1  0  0  0
 80158  1  0  0  0
 80159  1  0  0  0
 84160  1  0  0  0
M  ISO  4   1 100  68 101  79 101  84 100
M  END
> <chiral flag>
0

> <version>
0

> <s_m_source_file>
/data/baiqing/PycharmProjects/Reinvent-master-3.2/result/LINK_invent/BTK/process_docking_weight1_custom_sum_contain_oxygen_bond_distance_aromatic_linkinvent_7_9_3/rearranged_h_0061.sdf

> <i_m_source_file_index>
32

> <r_mmod_Potential_Energy-OPLS-2005>
205.935806274414

> <r_mmod_Stretch_Energy-OPLS-2005>
330.865112304688

> <r_mmod_Bend_Energy-OPLS-2005>
296.536834716797

> <r_mmod_Torsional_Energy-OPLS-2005>
233.0439453125

> <r_mmod_Improper_Torsional_Energy-OPLS-2005>
7.95159006118774

> <r_mmod_Van_der_Waal_Energy-OPLS-2005>
127.08032989502

> <r_mmod_Electrostatic_Energy-OPLS-2005>
-799.669067382812

> <r_mmod_Solvation_Energy-OPLS-2005>
-231.013290405273

> <b_mmod_Minimization_Converged-OPLS-2005>
0

> <r_mmod_RMS_Derivative-OPLS-2005>
3.51380348205566

$$$$
33
                    3D
 Structure written by MMmdl.
161169  0  0  1  0            999 V2000
  -30.6894  -14.6799   20.4913 C   0  0  0  0  0  0
  -30.3984  -12.4218   19.4796 C   0  0  0  0  0  0
  -29.4922  -12.4687   18.2344 C   0  0  0  0  0  0
  -28.0196  -12.2999   18.6438 C   0  0  0  0  0  0
  -27.6234  -13.2150   19.8288 C   0  0  2  0  0  0
  -28.6618  -13.2001   20.9735 C   0  0  0  0  0  0
  -25.2443  -13.8188   20.5653 C   0  0  0  0  0  0
  -24.1736  -13.0424   20.9177 C   0  0  0  0  0  0
  -24.6302  -11.6910   20.8696 C   0  0  0  0  0  0
  -23.8991  -10.4289   21.0372 C   0  0  0  0  0  0
  -24.3561   -9.4243   21.9165 C   0  0  0  0  0  0
  -23.6268   -8.2255   22.0753 C   0  0  0  0  0  0
  -22.4260   -8.0272   21.3525 C   0  0  0  0  0  0
  -21.9868   -9.0205   20.4620 C   0  0  0  0  0  0
  -22.7156  -10.2115   20.3016 C   0  0  0  0  0  0
  -21.6862   -6.0707   22.5275 C   0  0  0  0  0  0
  -21.4008   -6.5616   23.8194 C   0  0  0  0  0  0
  -21.3654   -5.6772   24.9167 C   0  0  0  0  0  0
  -21.6049   -4.3041   24.7230 C   0  0  0  0  0  0
  -21.8832   -3.8121   23.4356 C   0  0  0  0  0  0
  -21.9196   -4.6934   22.3397 C   0  0  0  0  0  0
  -22.7795  -13.5235   21.1868 C   0  0  0  0  0  0
  -22.1675   -4.2099   21.0986 F   0  0  0  0  0  0
  -21.5630   -3.4545   25.7762 F   0  0  0  0  0  0
  -29.9699  -13.5099   20.3924 N   0  0  0  0  0  0
  -26.2808  -12.9333   20.3167 N   0  0  0  0  0  0
  -25.9212  -11.6501   20.5700 N   0  0  0  0  0  0
  -22.0444  -12.8205   22.0414 N   0  0  0  0  0  0
  -25.4126  -15.1910   20.4103 N   0  0  0  0  0  0
  -31.8660  -14.6769   20.1179 O   0  0  0  0  0  0
  -21.6641   -6.8853   21.4245 O   0  0  0  0  0  0
  -22.3470  -14.5521   20.6712 O   0  0  0  0  0  0
  -24.6299  -31.8508   23.2022 C   0  0  0  0  0  0
  -25.9149  -32.4702   23.8350 C   0  0  1  0  0  0
  -27.2415  -27.3242   20.1128 C   0  0  0  0  0  0
  -25.5950  -33.8511   24.2281 N   0  0  0  0  0  0
  -23.4213  -30.4689   21.5451 C   0  0  2  0  0  0
  -24.8707  -28.9150   20.1143 C   0  0  0  0  0  0
  -22.7482  -29.4538   22.4971 C   0  0  0  0  0  0
  -18.0240  -28.1366   22.8411 C   0  0  0  0  0  0
  -24.1470  -36.7275   23.2637 C   0  0  0  0  0  0
  -25.9589  -30.7856   21.3690 C   0  0  0  0  0  0
  -26.0348  -29.4108   20.7153 C   0  0  0  0  0  0
  -27.2190  -28.6247   20.7041 C   0  0  0  0  0  0
  -26.0585  -26.8668   19.4962 C   0  0  0  0  0  0
  -24.8799  -27.6484   19.5016 C   0  0  0  0  0  0
  -23.6362  -29.7916   20.1643 C   0  0  0  0  0  0
  -25.4094  -36.3030   24.0299 C   0  0  1  0  0  0
  -20.5839  -28.3647   23.1260 C   0  0  2  0  0  0
  -20.6734  -26.9382   22.5379 C   0  0  0  0  0  0
  -19.5712  -26.6356   21.5171 C   0  0  0  0  0  0
  -18.1883  -26.7874   22.1582 C   0  0  0  0  0  0
  -19.1500  -28.8828   23.2774 C   0  0  0  0  0  0
  -18.9455  -30.1436   23.8763 C   0  0  0  0  0  0
  -17.6474  -30.6567   24.0539 C   0  0  0  0  0  0
  -25.9040  -34.9397   23.5096 C   0  0  0  0  0  0
  -16.5346  -29.9060   23.6371 C   0  0  0  0  0  0
  -16.7236  -28.6508   23.0318 C   0  0  0  0  0  0
  -26.4557  -31.6523   25.0730 C   0  0  0  0  0  0
  -25.3792  -31.3573   26.1432 C   0  0  0  0  0  0
  -27.0535  -30.2978   24.6236 C   0  0  0  0  0  0
  -27.6084  -32.4290   25.7542 C   0  0  0  0  0  0
  -27.5550  -37.1783   24.8461 C   0  0  0  0  0  0
  -21.4200  -29.2991   22.3712 N   0  0  0  0  0  0
  -26.4258  -37.3749   23.9407 N   0  0  0  0  0  0
  -24.6888  -31.0504   22.0981 N   0  0  0  0  0  0
  -23.4201  -28.8059   23.3032 O   0  0  0  0  0  0
  -28.4021  -26.5471   20.1757 O   0  0  0  0  0  0
  -26.5636  -34.8874   22.4675 O   0  0  0  0  0  0
  -23.5465  -32.1332   23.7358 O   0  0  0  0  0  0
  -28.9741  -18.0127   19.9362 C   0  0  0  0  0  0
  -29.1260  -18.1912   18.5251 C   0  0  0  0  0  0
  -27.9618  -24.4183   22.1615 C   0  0  0  0  0  0
  -31.1252  -16.7030   21.7620 C   0  0  0  0  0  0
  -28.9197  -16.6428   20.7037 C   0  0  0  0  0  0
  -28.2893  -22.4574   20.6191 C   0  0  0  0  0  0
  -28.2629  -21.5556   19.3145 C   0  0  0  0  0  0
  -28.4953  -25.1184   19.7963 C   0  0  0  0  0  0
  -27.8045  -23.9977   20.6856 C   0  0  2  0  0  0
  -29.3321  -17.1395   17.4547 C   0  0  0  0  0  0
  -28.6878  -19.2170   20.4534 N   0  0  0  0  0  0
  -28.9464  -19.4585   18.2080 N   0  0  0  0  0  0
  -28.6802  -20.0943   19.3756 N   0  0  0  0  0  0
  -30.1725  -15.8559   21.0236 N   0  0  0  0  0  0
  -29.7803  -15.9910   17.9544 F   0  0  0  0  0  0
  -28.1887  -16.8669   16.8221 F   0  0  0  0  0  0
  -30.2165  -17.5410   16.5417 F   0  0  0  0  0  0
  -31.4430  -12.4968   19.1732 H   0  0  0  0  0  0
  -30.3107  -11.4570   19.9834 H   0  0  0  0  0  0
  -29.7762  -11.6826   17.5313 H   0  0  0  0  0  0
  -29.6246  -13.4136   17.7059 H   0  0  0  0  0  0
  -27.8726  -11.2541   18.9182 H   0  0  0  0  0  0
  -27.3649  -12.4793   17.7897 H   0  0  0  0  0  0
  -27.5899  -14.2054   19.3896 H   0  0  0  0  0  0
  -28.6841  -12.2268   21.4652 H   0  0  0  0  0  0
  -28.3914  -13.9250   21.7414 H   0  0  0  0  0  0
  -25.2710   -9.5757   22.4715 H   0  0  0  0  0  0
  -23.9984   -7.4683   22.7496 H   0  0  0  0  0  0
  -21.0796   -8.8693   19.8936 H   0  0  0  0  0  0
  -22.3598  -10.9617   19.6090 H   0  0  0  0  0  0
  -21.2005   -7.6127   23.9681 H   0  0  0  0  0  0
  -21.1465   -6.0515   25.9058 H   0  0  0  0  0  0
  -22.0617   -2.7579   23.2879 H   0  0  0  0  0  0
  -22.4115  -11.9877   22.4770 H   0  0  0  0  0  0
  -21.1030  -13.1169   22.2602 H   0  0  0  0  0  0
  -24.6402  -15.8385   20.5258 H   0  0  0  0  0  0
  -26.2532  -15.6384   20.0730 H   0  0  0  0  0  0
  -26.7222  -32.5374   23.1103 H   0  0  0  0  0  0
  -25.0034  -33.9618   25.0385 H   0  0  0  0  0  0
  -22.7115  -31.2864   21.3971 H   0  0  0  0  0  0
  -23.3708  -35.9630   23.3279 H   0  0  0  0  0  0
  -24.3514  -36.8976   22.2049 H   0  0  0  0  0  0
  -23.7294  -37.6470   23.6727 H   0  0  0  0  0  0
  -26.0800  -31.5436   20.5930 H   0  0  0  0  0  0
  -26.8450  -30.8416   21.9917 H   0  0  0  0  0  0
  -28.1160  -28.9945   21.1803 H   0  0  0  0  0  0
  -26.0269  -25.8942   19.0243 H   0  0  0  0  0  0
  -23.9844  -27.2582   19.0364 H   0  0  0  0  0  0
  -23.7496  -30.5631   19.4010 H   0  0  0  0  0  0
  -22.7608  -29.2077   19.8687 H   0  0  0  0  0  0
  -25.1293  -36.1830   25.0784 H   0  0  0  0  0  0
  -20.9841  -28.3228   24.1416 H   0  0  0  0  0  0
  -20.5655  -26.2242   23.3556 H   0  0  0  0  0  0
  -21.6591  -26.7414   22.1171 H   0  0  0  0  0  0
  -19.6882  -25.6267   21.1182 H   0  0  0  0  0  0
  -19.6666  -27.3147   20.6693 H   0  0  0  0  0  0
  -17.4156  -26.6542   21.3993 H   0  0  0  0  0  0
  -18.0301  -26.0026   22.9022 H   0  0  0  0  0  0
  -19.7956  -30.7239   24.2061 H   0  0  0  0  0  0
  -17.5067  -31.6224   24.5199 H   0  0  0  0  0  0
  -15.5352  -30.2957   23.7800 H   0  0  0  0  0  0
  -15.8602  -28.0873   22.7065 H   0  0  0  0  0  0
  -24.5989  -30.6925   25.7712 H   0  0  0  0  0  0
  -24.8942  -32.2675   26.4947 H   0  0  0  0  0  0
  -25.8101  -30.8670   27.0176 H   0  0  0  0  0  0
  -26.3203  -29.6512   24.1395 H   0  0  0  0  0  0
  -27.4434  -29.7391   25.4770 H   0  0  0  0  0  0
  -27.8927  -30.4293   23.9398 H   0  0  0  0  0  0
  -27.2715  -33.3619   26.2068 H   0  0  0  0  0  0
  -28.3950  -32.6798   25.0411 H   0  0  0  0  0  0
  -28.0691  -31.8439   26.5515 H   0  0  0  0  0  0
  -28.2528  -38.0124   24.7570 H   0  0  0  0  0  0
  -28.1112  -36.2653   24.6263 H   0  0  0  0  0  0
  -27.2221  -37.1371   25.8851 H   0  0  0  0  0  0
  -20.9429  -29.8756   21.6918 H   0  0  0  0  0  0
  -26.0102  -38.2793   24.1482 H   0  0  0  0  0  0
  -27.3410  -23.8091   22.8211 H   0  0  0  0  0  0
  -27.6746  -25.4556   22.3341 H   0  0  0  0  0  0
  -28.9974  -24.3133   22.4888 H   0  0  0  0  0  0
  -30.6282  -17.5066   22.3088 H   0  0  0  0  0  0
  -31.8531  -17.1611   21.0875 H   0  0  0  0  0  0
  -31.6802  -16.1099   22.4925 H   0  0  0  0  0  0
  -28.2399  -15.9949   20.1684 H   0  0  0  0  0  0
  -28.4122  -16.8007   21.6561 H   0  0  0  0  0  0
  -29.2954  -22.3980   21.0363 H   0  0  0  0  0  0
  -27.6458  -21.9303   21.3295 H   0  0  0  0  0  0
  -28.9157  -22.0287   18.5753 H   0  0  0  0  0  0
  -27.2678  -21.5884   18.8636 H   0  0  0  0  0  0
  -28.2305  -24.9978   18.7457 H   0  0  0  0  0  0
  -29.5662  -24.9129   19.8426 H   0  0  0  0  0  0
  -26.7366  -24.0303   20.4585 H   0  0  0  0  0  0
  1 25  1  0  0  0
  1 30  2  0  0  0
  1 84  1  0  0  0
  2  3  1  0  0  0
  2 25  1  0  0  0
  2 88  1  0  0  0
  2 89  1  0  0  0
  3  4  1  0  0  0
  3 90  1  0  0  0
  3 91  1  0  0  0
  4  5  1  0  0  0
  4 92  1  0  0  0
  4 93  1  0  0  0
  5  6  1  0  0  0
  5 26  1  0  0  0
  5 94  1  0  0  0
  6 25  1  0  0  0
  6 95  1  0  0  0
  6 96  1  0  0  0
  7  8  2  0  0  0
  7 26  1  0  0  0
  7 29  1  0  0  0
  8  9  1  0  0  0
  8 22  1  0  0  0
  9 10  1  0  0  0
  9 27  2  0  0  0
 10 11  2  0  0  0
 10 15  1  0  0  0
 11 12  1  0  0  0
 11 97  1  0  0  0
 12 13  2  0  0  0
 12 98  1  0  0  0
 13 14  1  0  0  0
 13 31  1  0  0  0
 14 15  2  0  0  0
 14 99  1  0  0  0
 15100  1  0  0  0
 16 17  2  0  0  0
 16 21  1  0  0  0
 16 31  1  0  0  0
 17 18  1  0  0  0
 17101  1  0  0  0
 18 19  2  0  0  0
 18102  1  0  0  0
 19 20  1  0  0  0
 19 24  1  0  0  0
 20 21  2  0  0  0
 20103  1  0  0  0
 21 23  1  0  0  0
 22 28  1  0  0  0
 22 32  2  0  0  0
 26 27  1  0  0  0
 28104  1  0  0  0
 28105  1  0  0  0
 29106  1  0  0  0
 29107  1  0  0  0
 33 34  1  0  0  0
 33 66  1  0  0  0
 33 70  2  0  0  0
 34 36  1  0  0  0
 34 59  1  0  0  0
 34108  1  0  0  0
 35 44  2  0  0  0
 35 45  1  0  0  0
 35 68  1  0  0  0
 36 56  1  0  0  0
 36109  1  0  0  0
 37 39  1  0  0  0
 37 47  1  0  0  0
 37 66  1  0  0  0
 37110  1  0  0  0
 38 43  2  0  0  0
 38 46  1  0  0  0
 38 47  1  0  0  0
 39 64  1  0  0  0
 39 67  2  0  0  0
 40 52  1  0  0  0
 40 53  2  0  0  0
 40 58  1  0  0  0
 41111  1  0  0  0
 41112  1  0  0  0
 41113  1  0  0  0
 41 48  1  0  0  0
 42 43  1  0  0  0
 42 66  1  0  0  0
 42114  1  0  0  0
 42115  1  0  0  0
 43 44  1  0  0  0
 44116  1  0  0  0
 45 46  2  0  0  0
 45117  1  0  0  0
 46118  1  0  0  0
 47119  1  0  0  0
 47120  1  0  0  0
 48 56  1  0  0  0
 48 65  1  0  0  0
 48121  1  0  0  0
 49 50  1  0  0  0
 49 53  1  0  0  0
 49 64  1  0  0  0
 49122  1  0  0  0
 50 51  1  0  0  0
 50123  1  0  0  0
 50124  1  0  0  0
 51 52  1  0  0  0
 51125  1  0  0  0
 51126  1  0  0  0
 52127  1  0  0  0
 52128  1  0  0  0
 53 54  1  0  0  0
 54 55  2  0  0  0
 54129  1  0  0  0
 55 57  1  0  0  0
 55130  1  0  0  0
 56 69  2  0  0  0
 57 58  2  0  0  0
 57131  1  0  0  0
 58132  1  0  0  0
 59 60  1  0  0  0
 59 61  1  0  0  0
 59 62  1  0  0  0
 60133  1  0  0  0
 60134  1  0  0  0
 60135  1  0  0  0
 61136  1  0  0  0
 61137  1  0  0  0
 61138  1  0  0  0
 62139  1  0  0  0
 62140  1  0  0  0
 62141  1  0  0  0
 63 65  1  0  0  0
 63142  1  0  0  0
 63143  1  0  0  0
 63144  1  0  0  0
 64145  1  0  0  0
 65146  1  0  0  0
 68 78  1  0  0  0
 71 72  1  0  0  0
 71 75  1  0  0  0
 71 81  2  0  0  0
 72 80  1  0  0  0
 72 82  2  0  0  0
 73147  1  0  0  0
 73148  1  0  0  0
 73149  1  0  0  0
 73 79  1  0  0  0
 74 84  1  0  0  0
 74150  1  0  0  0
 74151  1  0  0  0
 74152  1  0  0  0
 75 84  1  0  0  0
 75153  1  0  0  0
 75154  1  0  0  0
 76 77  1  0  0  0
 76 79  1  0  0  0
 76155  1  0  0  0
 76156  1  0  0  0
 77 83  1  0  0  0
 77157  1  0  0  0
 77158  1  0  0  0
 78 79  1  0  0  0
 78159  1  0  0  0
 78160  1  0  0  0
 79161  1  0  0  0
 80 85  1  0  0  0
 80 86  1  0  0  0
 80 87  1  0  0  0
 81 83  1  0  0  0
 82 83  1  0  0  0
M  ISO  4   1 100  68 101  78 101  84 100
M  END
> <chiral flag>
0

> <version>
0

> <s_m_source_file>
/data/baiqing/PycharmProjects/Reinvent-master-3.2/result/LINK_invent/BTK/process_docking_weight1_custom_sum_contain_oxygen_bond_distance_aromatic_linkinvent_7_9_3/rearranged_h_0061.sdf

> <i_m_source_file_index>
33

> <r_mmod_Potential_Energy-OPLS-2005>
284.560882568359

> <r_mmod_Stretch_Energy-OPLS-2005>
94.8149719238281

> <r_mmod_Bend_Energy-OPLS-2005>
217.735443115234

> <r_mmod_Torsional_Energy-OPLS-2005>
265.005218505859

> <r_mmod_Improper_Torsional_Energy-OPLS-2005>
3.99736762046814

> <r_mmod_Van_der_Waal_Energy-OPLS-2005>
111.43359375

> <r_mmod_Electrostatic_Energy-OPLS-2005>
-273.211151123047

> <r_mmod_Solvation_Energy-OPLS-2005>
-194.64338684082

> <b_mmod_Minimization_Converged-OPLS-2005>
0

> <r_mmod_RMS_Derivative-OPLS-2005>
5.36690378189087

$$$$
34
                    3D
 Structure written by MMmdl.
156164  0  0  1  0            999 V2000
  -30.6272  -14.8012   20.4738 C   0  0  0  0  0  0
  -30.4197  -12.4989   19.4889 C   0  0  0  0  0  0
  -29.5069  -12.5195   18.2453 C   0  0  0  0  0  0
  -28.0367  -12.3330   18.6599 C   0  0  0  0  0  0
  -27.6341  -13.2444   19.8499 C   0  0  2  0  0  0
  -28.6750  -13.2220   20.9899 C   0  0  0  0  0  0
  -25.2471  -13.8222   20.5739 C   0  0  0  0  0  0
  -24.1776  -13.0445   20.9228 C   0  0  0  0  0  0
  -24.6388  -11.6930   20.8753 C   0  0  0  0  0  0
  -23.9073  -10.4296   21.0406 C   0  0  0  0  0  0
  -24.3625   -9.4210   21.9182 C   0  0  0  0  0  0
  -23.6299   -8.2245   22.0751 C   0  0  0  0  0  0
  -22.4279   -8.0282   21.3543 C   0  0  0  0  0  0
  -21.9916   -9.0255   20.4645 C   0  0  0  0  0  0
  -22.7245  -10.2136   20.3054 C   0  0  0  0  0  0
  -21.6856   -6.0735   22.5277 C   0  0  0  0  0  0
  -21.4017   -6.5639   23.8210 C   0  0  0  0  0  0
  -21.3659   -5.6793   24.9173 C   0  0  0  0  0  0
  -21.6043   -4.3055   24.7224 C   0  0  0  0  0  0
  -21.8820   -3.8146   23.4345 C   0  0  0  0  0  0
  -21.9195   -4.6963   22.3403 C   0  0  0  0  0  0
  -22.7796  -13.5216   21.1880 C   0  0  0  0  0  0
  -22.1662   -4.2149   21.0980 F   0  0  0  0  0  0
  -21.5629   -3.4538   25.7735 F   0  0  0  0  0  0
  -29.9713  -13.5833   20.4050 N   0  0  0  0  0  0
  -26.2898  -12.9453   20.3296 N   0  0  0  0  0  0
  -25.9321  -11.6582   20.5760 N   0  0  0  0  0  0
  -22.0445  -12.8199   22.0433 N   0  0  0  0  0  0
  -25.4158  -15.1950   20.4199 N   0  0  0  0  0  0
  -31.7915  -14.8527   20.0617 O   0  0  0  0  0  0
  -21.6642   -6.8879   21.4239 O   0  0  0  0  0  0
  -22.3479  -14.5522   20.6727 O   0  0  0  0  0  0
  -24.6332  -31.8493   23.1914 C   0  0  0  0  0  0
  -25.9141  -32.4716   23.8278 C   0  0  1  0  0  0
  -27.2210  -27.2161   20.1344 C   0  0  0  0  0  0
  -25.5920  -33.8524   24.2197 N   0  0  0  0  0  0
  -23.4325  -30.4676   21.5354 C   0  0  2  0  0  0
  -24.8805  -28.9028   20.1033 C   0  0  0  0  0  0
  -22.7510  -29.4562   22.4889 C   0  0  0  0  0  0
  -18.0291  -28.1389   22.8484 C   0  0  0  0  0  0
  -24.1493  -36.7275   23.2643 C   0  0  0  0  0  0
  -25.9792  -30.7464   21.3773 C   0  0  0  0  0  0
  -26.0494  -29.3641   20.7201 C   0  0  0  0  0  0
  -27.2162  -28.5305   20.7267 C   0  0  0  0  0  0
  -26.0303  -26.8265   19.4862 C   0  0  0  0  0  0
  -24.8787  -27.6451   19.4749 C   0  0  0  0  0  0
  -23.6519  -29.7951   20.1524 C   0  0  0  0  0  0
  -25.4119  -36.3047   24.0318 C   0  0  1  0  0  0
  -20.5894  -28.3697   23.1270 C   0  0  2  0  0  0
  -20.6778  -26.9412   22.5418 C   0  0  0  0  0  0
  -19.5757  -26.6380   21.5220 C   0  0  0  0  0  0
  -18.1933  -26.7930   22.1626 C   0  0  0  0  0  0
  -19.1544  -28.8861   23.2873 C   0  0  0  0  0  0
  -18.9466  -30.1462   23.8890 C   0  0  0  0  0  0
  -17.6465  -30.6590   24.0563 C   0  0  0  0  0  0
  -25.9062  -34.9421   23.5068 C   0  0  0  0  0  0
  -16.5355  -29.9085   23.6337 C   0  0  0  0  0  0
  -16.7278  -28.6505   23.0355 C   0  0  0  0  0  0
  -26.4490  -31.6565   25.0694 C   0  0  0  0  0  0
  -25.3707  -31.3751   26.1420 C   0  0  0  0  0  0
  -27.0330  -30.2965   24.6221 C   0  0  0  0  0  0
  -27.6043  -32.4315   25.7463 C   0  0  0  0  0  0
  -27.5577  -37.1789   24.8461 C   0  0  0  0  0  0
  -21.4211  -29.3032   22.3646 N   0  0  0  0  0  0
  -26.4286  -37.3755   23.9409 N   0  0  0  0  0  0
  -24.7009  -31.0413   22.0907 N   0  0  0  0  0  0
  -23.4192  -28.8123   23.3018 O   0  0  0  0  0  0
  -28.3183  -26.3209   20.2525 O   0  0  0  0  0  0
  -26.5658  -34.8912   22.4653 O   0  0  0  0  0  0
  -23.5473  -32.1337   23.7187 O   0  0  0  0  0  0
  -30.4045  -19.7261   18.4698 C   0  0  0  0  0  0
  -29.2586  -20.8359   20.0493 C   0  0  0  0  0  0
  -29.5054  -18.4932   20.1071 C   0  0  0  0  0  0
  -31.2076  -19.7674   17.1868 C   0  0  0  0  0  0
  -30.8614  -16.4939   22.1794 C   0  0  0  0  0  0
  -29.0066  -22.2919   20.7038 C   0  0  0  0  0  0
  -29.0956  -16.9983   20.5459 C   0  0  0  0  0  0
  -28.0072  -23.4624   20.1242 C   0  0  0  0  0  0
  -28.4565  -24.9575   19.5966 C   0  0  0  0  0  0
  -29.9507  -20.8938   18.9191 N   0  0  0  0  0  0
  -30.2389  -18.5202   19.0047 N   0  0  0  0  0  0
  -28.9899  -19.6383   20.6813 N   0  0  0  0  0  0
  -30.0673  -15.9308   21.0832 N   0  0  0  0  0  0
  -31.4615  -12.6086   19.1842 H   0  0  0  0  0  0
  -30.3641  -11.5317   19.9910 H   0  0  0  0  0  0
  -29.8008  -11.7351   17.5466 H   0  0  0  0  0  0
  -29.6252  -13.4649   17.7136 H   0  0  0  0  0  0
  -27.9054  -11.2861   18.9359 H   0  0  0  0  0  0
  -27.3773  -12.5074   17.8086 H   0  0  0  0  0  0
  -27.6152  -14.2589   19.4522 H   0  0  0  0  0  0
  -28.7235  -12.2379   21.4588 H   0  0  0  0  0  0
  -28.3940  -13.9243   21.7763 H   0  0  0  0  0  0
  -25.2770   -9.5688   22.4759 H   0  0  0  0  0  0
  -24.0008   -7.4636   22.7469 H   0  0  0  0  0  0
  -21.0847   -8.8777   19.8949 H   0  0  0  0  0  0
  -22.3703  -10.9676   19.6164 H   0  0  0  0  0  0
  -21.2009   -7.6145   23.9715 H   0  0  0  0  0  0
  -21.1480   -6.0520   25.9076 H   0  0  0  0  0  0
  -22.0600   -2.7607   23.2846 H   0  0  0  0  0  0
  -22.4070  -11.9865   22.4827 H   0  0  0  0  0  0
  -21.1058  -13.1210   22.2633 H   0  0  0  0  0  0
  -24.6503  -15.8490   20.5436 H   0  0  0  0  0  0
  -26.2648  -15.6369   20.0954 H   0  0  0  0  0  0
  -26.7199  -32.5341   23.1007 H   0  0  0  0  0  0
  -25.0032  -33.9653   25.0318 H   0  0  0  0  0  0
  -22.7310  -31.2908   21.3850 H   0  0  0  0  0  0
  -23.3758  -35.9604   23.3281 H   0  0  0  0  0  0
  -24.3585  -36.8927   22.2064 H   0  0  0  0  0  0
  -23.7242  -37.6462   23.6694 H   0  0  0  0  0  0
  -26.1240  -31.5035   20.6054 H   0  0  0  0  0  0
  -26.8546  -30.7960   22.0133 H   0  0  0  0  0  0
  -28.1073  -28.8734   21.2332 H   0  0  0  0  0  0
  -25.9593  -25.8543   19.0208 H   0  0  0  0  0  0
  -23.9816  -27.2853   18.9897 H   0  0  0  0  0  0
  -23.7755  -30.5693   19.3943 H   0  0  0  0  0  0
  -22.7692  -29.2289   19.8497 H   0  0  0  0  0  0
  -25.1303  -36.1881   25.0809 H   0  0  0  0  0  0
  -20.9989  -28.3285   24.1391 H   0  0  0  0  0  0
  -20.5682  -26.2307   23.3626 H   0  0  0  0  0  0
  -21.6645  -26.7437   22.1210 H   0  0  0  0  0  0
  -19.6923  -25.6291   21.1254 H   0  0  0  0  0  0
  -19.6698  -27.3191   20.6753 H   0  0  0  0  0  0
  -17.4206  -26.6680   21.4026 H   0  0  0  0  0  0
  -18.0330  -26.0071   22.9020 H   0  0  0  0  0  0
  -19.7942  -30.7283   24.2250 H   0  0  0  0  0  0
  -17.5018  -31.6272   24.5163 H   0  0  0  0  0  0
  -15.5357  -30.2986   23.7667 H   0  0  0  0  0  0
  -15.8675  -28.0826   22.7072 H   0  0  0  0  0  0
  -24.5849  -30.7135   25.7747 H   0  0  0  0  0  0
  -24.8946  -32.2943   26.4845 H   0  0  0  0  0  0
  -25.8007  -30.8908   27.0196 H   0  0  0  0  0  0
  -26.2910  -29.6710   24.1243 H   0  0  0  0  0  0
  -27.3974  -29.7237   25.4759 H   0  0  0  0  0  0
  -27.8809  -30.4203   23.9482 H   0  0  0  0  0  0
  -27.2648  -33.3639   26.1987 H   0  0  0  0  0  0
  -28.3874  -32.6832   25.0300 H   0  0  0  0  0  0
  -28.0678  -31.8471   26.5420 H   0  0  0  0  0  0
  -28.2581  -38.0099   24.7512 H   0  0  0  0  0  0
  -28.1082  -36.2627   24.6270 H   0  0  0  0  0  0
  -27.2302  -37.1416   25.8867 H   0  0  0  0  0  0
  -20.9402  -29.8736   21.6832 H   0  0  0  0  0  0
  -26.0155  -38.2822   24.1417 H   0  0  0  0  0  0
  -31.3510  -20.7884   16.8319 H   0  0  0  0  0  0
  -30.6985  -19.2074   16.4026 H   0  0  0  0  0  0
  -32.1913  -19.3234   17.3385 H   0  0  0  0  0  0
  -30.2597  -17.1429   22.8170 H   0  0  0  0  0  0
  -31.6955  -17.0802   21.7896 H   0  0  0  0  0  0
  -31.2724  -15.7104   22.8197 H   0  0  0  0  0  0
  -29.9913  -22.7434   20.8226 H   0  0  0  0  0  0
  -28.6914  -22.0956   21.7286 H   0  0  0  0  0  0
  -28.5939  -16.5556   19.6852 H   0  0  0  0  0  0
  -28.3071  -17.0971   21.2924 H   0  0  0  0  0  0
  -27.2098  -23.6057   20.8527 H   0  0  0  0  0  0
  -27.4936  -22.9918   19.2858 H   0  0  0  0  0  0
  -28.0308  -25.0709   18.5995 H   0  0  0  0  0  0
  -29.5236  -24.8761   19.3889 H   0  0  0  0  0  0
  1 25  1  0  0  0
  1 30  2  0  0  0
  1 83  1  0  0  0
  2  3  1  0  0  0
  2 25  1  0  0  0
  2 84  1  0  0  0
  2 85  1  0  0  0
  3  4  1  0  0  0
  3 86  1  0  0  0
  3 87  1  0  0  0
  4  5  1  0  0  0
  4 88  1  0  0  0
  4 89  1  0  0  0
  5  6  1  0  0  0
  5 26  1  0  0  0
  5 90  1  0  0  0
  6 25  1  0  0  0
  6 91  1  0  0  0
  6 92  1  0  0  0
  7  8  2  0  0  0
  7 26  1  0  0  0
  7 29  1  0  0  0
  8  9  1  0  0  0
  8 22  1  0  0  0
  9 10  1  0  0  0
  9 27  2  0  0  0
 10 11  2  0  0  0
 10 15  1  0  0  0
 11 12  1  0  0  0
 11 93  1  0  0  0
 12 13  2  0  0  0
 12 94  1  0  0  0
 13 14  1  0  0  0
 13 31  1  0  0  0
 14 15  2  0  0  0
 14 95  1  0  0  0
 15 96  1  0  0  0
 16 17  2  0  0  0
 16 21  1  0  0  0
 16 31  1  0  0  0
 17 18  1  0  0  0
 17 97  1  0  0  0
 18 19  2  0  0  0
 18 98  1  0  0  0
 19 20  1  0  0  0
 19 24  1  0  0  0
 20 21  2  0  0  0
 20 99  1  0  0  0
 21 23  1  0  0  0
 22 28  1  0  0  0
 22 32  2  0  0  0
 26 27  1  0  0  0
 28100  1  0  0  0
 28101  1  0  0  0
 29102  1  0  0  0
 29103  1  0  0  0
 33 34  1  0  0  0
 33 66  1  0  0  0
 33 70  2  0  0  0
 34 36  1  0  0  0
 34 59  1  0  0  0
 34104  1  0  0  0
 35 44  2  0  0  0
 35 45  1  0  0  0
 35 68  1  0  0  0
 36 56  1  0  0  0
 36105  1  0  0  0
 37 39  1  0  0  0
 37 47  1  0  0  0
 37 66  1  0  0  0
 37106  1  0  0  0
 38 43  2  0  0  0
 38 46  1  0  0  0
 38 47  1  0  0  0
 39 64  1  0  0  0
 39 67  2  0  0  0
 40 52  1  0  0  0
 40 53  2  0  0  0
 40 58  1  0  0  0
 41107  1  0  0  0
 41108  1  0  0  0
 41109  1  0  0  0
 41 48  1  0  0  0
 42 43  1  0  0  0
 42 66  1  0  0  0
 42110  1  0  0  0
 42111  1  0  0  0
 43 44  1  0  0  0
 44112  1  0  0  0
 45 46  2  0  0  0
 45113  1  0  0  0
 46114  1  0  0  0
 47115  1  0  0  0
 47116  1  0  0  0
 48 56  1  0  0  0
 48 65  1  0  0  0
 48117  1  0  0  0
 49 50  1  0  0  0
 49 53  1  0  0  0
 49 64  1  0  0  0
 49118  1  0  0  0
 50 51  1  0  0  0
 50119  1  0  0  0
 50120  1  0  0  0
 51 52  1  0  0  0
 51121  1  0  0  0
 51122  1  0  0  0
 52123  1  0  0  0
 52124  1  0  0  0
 53 54  1  0  0  0
 54 55  2  0  0  0
 54125  1  0  0  0
 55 57  1  0  0  0
 55126  1  0  0  0
 56 69  2  0  0  0
 57 58  2  0  0  0
 57127  1  0  0  0
 58128  1  0  0  0
 59 60  1  0  0  0
 59 61  1  0  0  0
 59 62  1  0  0  0
 60129  1  0  0  0
 60130  1  0  0  0
 60131  1  0  0  0
 61132  1  0  0  0
 61133  1  0  0  0
 61134  1  0  0  0
 62135  1  0  0  0
 62136  1  0  0  0
 62137  1  0  0  0
 63 65  1  0  0  0
 63138  1  0  0  0
 63139  1  0  0  0
 63140  1  0  0  0
 64141  1  0  0  0
 65142  1  0  0  0
 68 79  1  0  0  0
 71 74  1  0  0  0
 71 80  2  0  0  0
 71 81  1  0  0  0
 72 76  1  0  0  0
 72 80  1  0  0  0
 72 82  2  0  0  0
 73 77  1  0  0  0
 73 81  2  0  0  0
 73 82  1  0  0  0
 74143  1  0  0  0
 74144  1  0  0  0
 74145  1  0  0  0
 75 83  1  0  0  0
 75146  1  0  0  0
 75147  1  0  0  0
 75148  1  0  0  0
 76 78  1  0  0  0
 76149  1  0  0  0
 76150  1  0  0  0
 77 83  1  0  0  0
 77151  1  0  0  0
 77152  1  0  0  0
 78 79  1  0  0  0
 78153  1  0  0  0
 78154  1  0  0  0
 79155  1  0  0  0
 79156  1  0  0  0
M  ISO  4   1 100  68 101  79 101  83 100
M  END
> <chiral flag>
0

> <version>
0

> <s_m_source_file>
/data/baiqing/PycharmProjects/Reinvent-master-3.2/result/LINK_invent/BTK/process_docking_weight1_custom_sum_contain_oxygen_bond_distance_aromatic_linkinvent_7_9_3/rearranged_h_0061.sdf

> <i_m_source_file_index>
34

> <r_mmod_Potential_Energy-OPLS-2005>
-341.442596435547

> <r_mmod_Stretch_Energy-OPLS-2005>
157.874435424805

> <r_mmod_Bend_Energy-OPLS-2005>
257.58251953125

> <r_mmod_Torsional_Energy-OPLS-2005>
276.782257080078

> <r_mmod_Improper_Torsional_Energy-OPLS-2005>
6.37377214431763

> <r_mmod_Van_der_Waal_Energy-OPLS-2005>
146.055572509766

> <r_mmod_Electrostatic_Energy-OPLS-2005>
-1065.46545410156

> <r_mmod_Solvation_Energy-OPLS-2005>
-233.094680786133

> <b_mmod_Minimization_Converged-OPLS-2005>
0

> <r_mmod_RMS_Derivative-OPLS-2005>
0.622076511383057

$$$$
35
                    3D
 Structure written by MMmdl.
160168  0  0  1  0            999 V2000
  -30.4493  -15.2452   20.4160 C   0  0  0  0  0  0
  -30.4443  -12.7903   19.5582 C   0  0  0  0  0  0
  -29.5515  -12.5976   18.3018 C   0  0  0  0  0  0
  -28.0952  -12.3100   18.7072 C   0  0  0  0  0  0
  -27.6117  -13.2748   19.8160 C   0  0  2  0  0  0
  -28.6379  -13.4001   20.9629 C   0  0  0  0  0  0
  -25.2323  -13.8205   20.5628 C   0  0  0  0  0  0
  -24.1693  -13.0441   20.9252 C   0  0  0  0  0  0
  -24.6394  -11.6949   20.8802 C   0  0  0  0  0  0
  -23.9083  -10.4326   21.0464 C   0  0  0  0  0  0
  -24.3630   -9.4232   21.9234 C   0  0  0  0  0  0
  -23.6307   -8.2254   22.0764 C   0  0  0  0  0  0
  -22.4286   -8.0305   21.3545 C   0  0  0  0  0  0
  -21.9927   -9.0291   20.4656 C   0  0  0  0  0  0
  -22.7273  -10.2157   20.3096 C   0  0  0  0  0  0
  -21.6848   -6.0742   22.5271 C   0  0  0  0  0  0
  -21.4012   -6.5637   23.8211 C   0  0  0  0  0  0
  -21.3683   -5.6786   24.9170 C   0  0  0  0  0  0
  -21.6069   -4.3049   24.7199 C   0  0  0  0  0  0
  -21.8819   -3.8137   23.4314 C   0  0  0  0  0  0
  -21.9190   -4.6966   22.3382 C   0  0  0  0  0  0
  -22.7724  -13.5196   21.1902 C   0  0  0  0  0  0
  -22.1681   -4.2177   21.0957 F   0  0  0  0  0  0
  -21.5651   -3.4526   25.7702 F   0  0  0  0  0  0
  -29.8880  -13.9290   20.3841 N   0  0  0  0  0  0
  -26.2777  -12.9514   20.3081 N   0  0  0  0  0  0
  -25.9300  -11.6642   20.5650 N   0  0  0  0  0  0
  -22.0328  -12.8223   22.0452 N   0  0  0  0  0  0
  -25.3858  -15.1939   20.4043 N   0  0  0  0  0  0
  -31.6441  -15.2084   20.0835 O   0  0  0  0  0  0
  -21.6664   -6.8886   21.4230 O   0  0  0  0  0  0
  -22.3411  -14.5503   20.6723 O   0  0  0  0  0  0
  -24.6586  -31.8272   23.1728 C   0  0  0  0  0  0
  -25.9277  -32.4601   23.8190 C   0  0  1  0  0  0
  -27.2306  -26.9754   20.2089 C   0  0  0  0  0  0
  -25.5943  -33.8410   24.2115 N   0  0  0  0  0  0
  -23.4740  -30.4369   21.5169 C   0  0  2  0  0  0
  -24.9323  -28.8277   20.1155 C   0  0  0  0  0  0
  -22.7667  -29.4454   22.4781 C   0  0  0  0  0  0
  -18.0342  -28.1439   22.8428 C   0  0  0  0  0  0
  -24.1482  -36.7212   23.2645 C   0  0  0  0  0  0
  -26.0365  -30.6574   21.3904 C   0  0  0  0  0  0
  -26.1143  -29.2464   20.7413 C   0  0  0  0  0  0
  -27.2606  -28.3422   20.7584 C   0  0  0  0  0  0
  -26.0207  -26.6934   19.5390 C   0  0  0  0  0  0
  -24.9077  -27.5704   19.4915 C   0  0  0  0  0  0
  -23.7180  -29.7477   20.1435 C   0  0  0  0  0  0
  -25.4103  -36.2977   24.0335 C   0  0  1  0  0  0
  -20.5952  -28.3756   23.1166 C   0  0  2  0  0  0
  -20.6807  -26.9431   22.5386 C   0  0  0  0  0  0
  -19.5781  -26.6375   21.5194 C   0  0  0  0  0  0
  -18.1963  -26.7971   22.1604 C   0  0  0  0  0  0
  -19.1595  -28.8921   23.2785 C   0  0  0  0  0  0
  -18.9497  -30.1491   23.8849 C   0  0  0  0  0  0
  -17.6491  -30.6592   24.0568 C   0  0  0  0  0  0
  -25.9055  -34.9347   23.5038 C   0  0  0  0  0  0
  -16.5384  -29.9078   23.6354 C   0  0  0  0  0  0
  -16.7331  -28.6524   23.0334 C   0  0  0  0  0  0
  -26.4578  -31.6513   25.0668 C   0  0  0  0  0  0
  -25.3765  -31.3725   26.1376 C   0  0  0  0  0  0
  -27.0481  -30.2892   24.6335 C   0  0  0  0  0  0
  -27.6075  -32.4324   25.7468 C   0  0  0  0  0  0
  -27.5571  -37.1732   24.8465 C   0  0  0  0  0  0
  -21.4338  -29.3065   22.3547 N   0  0  0  0  0  0
  -26.4270  -37.3677   23.9428 N   0  0  0  0  0  0
  -24.7432  -30.9959   22.0839 N   0  0  0  0  0  0
  -23.4231  -28.8015   23.3008 O   0  0  0  0  0  0
  -28.2698  -25.9210   20.2312 O   0  0  0  0  0  0
  -26.5613  -34.8900   22.4611 O   0  0  0  0  0  0
  -23.5652  -32.1235   23.6841 O   0  0  0  0  0  0
  -30.3156  -17.9061   18.5348 C   0  0  0  0  0  0
  -29.7636  -19.9564   18.3685 C   0  0  0  0  0  0
  -29.8206  -18.2246   19.7848 C   0  0  0  0  0  0
  -28.3517  -16.7558   21.2777 C   0  0  0  0  0  0
  -30.6530  -17.2892   22.0255 C   0  0  0  0  0  0
  -28.6162  -23.0198   18.4324 C   0  0  0  0  0  0
  -30.4266  -23.2525   20.1075 C   0  0  0  0  0  0
  -28.8398  -21.1301   20.4090 C   0  0  0  0  0  0
  -28.0891  -24.3289   20.5364 C   0  0  0  0  0  0
  -29.8054  -16.8606   20.8062 C   0  0  0  0  0  0
  -28.9401  -22.8844   19.9316 C   0  0  0  0  0  0
  -30.2678  -18.9651   17.6602 N   0  0  0  0  0  0
  -29.4694  -19.7664   19.6698 N   0  0  0  0  0  0
  -31.4742  -12.9685   19.2495 H   0  0  0  0  0  0
  -30.4880  -11.8709   20.1432 H   0  0  0  0  0  0
  -29.9384  -11.7944   17.6716 H   0  0  0  0  0  0
  -29.5872  -13.5048   17.6956 H   0  0  0  0  0  0
  -28.0601  -11.2849   19.0811 H   0  0  0  0  0  0
  -27.4408  -12.3515   17.8339 H   0  0  0  0  0  0
  -27.5390  -14.2524   19.3367 H   0  0  0  0  0  0
  -28.7996  -12.4348   21.4438 H   0  0  0  0  0  0
  -28.2534  -14.0456   21.7491 H   0  0  0  0  0  0
  -25.2769   -9.5719   22.4800 H   0  0  0  0  0  0
  -24.0062   -7.4622   22.7425 H   0  0  0  0  0  0
  -21.0881   -8.8804   19.8915 H   0  0  0  0  0  0
  -22.3763  -10.9701   19.6197 H   0  0  0  0  0  0
  -21.2006   -7.6142   23.9724 H   0  0  0  0  0  0
  -21.1517   -6.0504   25.9083 H   0  0  0  0  0  0
  -22.0567   -2.7593   23.2777 H   0  0  0  0  0  0
  -22.3944  -11.9958   22.4954 H   0  0  0  0  0  0
  -21.0935  -13.1236   22.2563 H   0  0  0  0  0  0
  -24.6085  -15.8370   20.5039 H   0  0  0  0  0  0
  -26.2246  -15.6343   20.0495 H   0  0  0  0  0  0
  -26.7359  -32.5218   23.0934 H   0  0  0  0  0  0
  -25.0171  -33.9449   25.0338 H   0  0  0  0  0  0
  -22.7898  -31.2684   21.3359 H   0  0  0  0  0  0
  -23.3751  -35.9524   23.3248 H   0  0  0  0  0  0
  -24.3608  -36.8888   22.2066 H   0  0  0  0  0  0
  -23.7217  -37.6391   23.6719 H   0  0  0  0  0  0
  -26.1965  -31.4021   20.6095 H   0  0  0  0  0  0
  -26.9059  -30.7254   22.0348 H   0  0  0  0  0  0
  -28.1625  -28.6617   21.2629 H   0  0  0  0  0  0
  -25.9156  -25.7294   19.0662 H   0  0  0  0  0  0
  -24.0129  -27.2444   18.9824 H   0  0  0  0  0  0
  -23.8765  -30.5102   19.3786 H   0  0  0  0  0  0
  -22.8363  -29.1892   19.8245 H   0  0  0  0  0  0
  -25.1288  -36.1787   25.0818 H   0  0  0  0  0  0
  -21.0051  -28.3369   24.1290 H   0  0  0  0  0  0
  -20.5651  -26.2375   23.3637 H   0  0  0  0  0  0
  -21.6665  -26.7409   22.1199 H   0  0  0  0  0  0
  -19.6909  -25.6265   21.1262 H   0  0  0  0  0  0
  -19.6721  -27.3175   20.6718 H   0  0  0  0  0  0
  -17.4229  -26.6687   21.4024 H   0  0  0  0  0  0
  -18.0363  -26.0149   22.9044 H   0  0  0  0  0  0
  -19.7958  -30.7302   24.2211 H   0  0  0  0  0  0
  -17.5047  -31.6283   24.5152 H   0  0  0  0  0  0
  -15.5376  -30.2964   23.7711 H   0  0  0  0  0  0
  -15.8737  -28.0847   22.7054 H   0  0  0  0  0  0
  -24.5940  -30.7078   25.7706 H   0  0  0  0  0  0
  -24.8986  -32.2917   26.4772 H   0  0  0  0  0  0
  -25.8065  -30.8920   27.0186 H   0  0  0  0  0  0
  -26.3149  -29.6537   24.1348 H   0  0  0  0  0  0
  -27.4078  -29.7253   25.4958 H   0  0  0  0  0  0
  -27.9065  -30.4073   23.9715 H   0  0  0  0  0  0
  -27.2636  -33.3651   26.1966 H   0  0  0  0  0  0
  -28.3936  -32.6839   25.0335 H   0  0  0  0  0  0
  -28.0724  -31.8521   26.5454 H   0  0  0  0  0  0
  -28.2530  -38.0076   24.7551 H   0  0  0  0  0  0
  -28.1118  -36.2600   24.6249 H   0  0  0  0  0  0
  -27.2313  -37.1366   25.8873 H   0  0  0  0  0  0
  -20.9614  -29.8816   21.6721 H   0  0  0  0  0  0
  -26.0128  -38.2735   24.1470 H   0  0  0  0  0  0
  -30.6768  -16.9569   18.1652 H   0  0  0  0  0  0
  -29.5902  -20.8692   17.8398 H   0  0  0  0  0  0
  -27.9736  -17.7332   21.5837 H   0  0  0  0  0  0
  -28.2333  -16.1129   22.1468 H   0  0  0  0  0  0
  -27.7119  -16.4166   20.4663 H   0  0  0  0  0  0
  -30.7717  -16.4795   22.7446 H   0  0  0  0  0  0
  -31.6529  -17.5914   21.7141 H   0  0  0  0  0  0
  -30.2120  -18.1320   22.5598 H   0  0  0  0  0  0
  -28.2613  -24.0199   18.1802 H   0  0  0  0  0  0
  -27.8257  -22.3331   18.1316 H   0  0  0  0  0  0
  -29.4908  -22.8880   17.7941 H   0  0  0  0  0  0
  -30.7225  -23.2124   21.1583 H   0  0  0  0  0  0
  -30.6313  -24.2633   19.7503 H   0  0  0  0  0  0
  -31.0796  -22.5813   19.5514 H   0  0  0  0  0  0
  -27.7687  -20.9241   20.4563 H   0  0  0  0  0  0
  -29.1426  -21.0671   21.4545 H   0  0  0  0  0  0
  -28.1906  -24.2801   21.6216 H   0  0  0  0  0  0
  -27.0289  -24.1225   20.3881 H   0  0  0  0  0  0
  1 25  1  0  0  0
  1 30  2  0  0  0
  1 80  1  0  0  0
  2  3  1  0  0  0
  2 25  1  0  0  0
  2 84  1  0  0  0
  2 85  1  0  0  0
  3  4  1  0  0  0
  3 86  1  0  0  0
  3 87  1  0  0  0
  4  5  1  0  0  0
  4 88  1  0  0  0
  4 89  1  0  0  0
  5  6  1  0  0  0
  5 26  1  0  0  0
  5 90  1  0  0  0
  6 25  1  0  0  0
  6 91  1  0  0  0
  6 92  1  0  0  0
  7  8  2  0  0  0
  7 26  1  0  0  0
  7 29  1  0  0  0
  8  9  1  0  0  0
  8 22  1  0  0  0
  9 10  1  0  0  0
  9 27  2  0  0  0
 10 11  2  0  0  0
 10 15  1  0  0  0
 11 12  1  0  0  0
 11 93  1  0  0  0
 12 13  2  0  0  0
 12 94  1  0  0  0
 13 14  1  0  0  0
 13 31  1  0  0  0
 14 15  2  0  0  0
 14 95  1  0  0  0
 15 96  1  0  0  0
 16 17  2  0  0  0
 16 21  1  0  0  0
 16 31  1  0  0  0
 17 18  1  0  0  0
 17 97  1  0  0  0
 18 19  2  0  0  0
 18 98  1  0  0  0
 19 20  1  0  0  0
 19 24  1  0  0  0
 20 21  2  0  0  0
 20 99  1  0  0  0
 21 23  1  0  0  0
 22 28  1  0  0  0
 22 32  2  0  0  0
 26 27  1  0  0  0
 28100  1  0  0  0
 28101  1  0  0  0
 29102  1  0  0  0
 29103  1  0  0  0
 33 34  1  0  0  0
 33 66  1  0  0  0
 33 70  2  0  0  0
 34 36  1  0  0  0
 34 59  1  0  0  0
 34104  1  0  0  0
 35 44  2  0  0  0
 35 45  1  0  0  0
 35 68  1  0  0  0
 36 56  1  0  0  0
 36105  1  0  0  0
 37 39  1  0  0  0
 37 47  1  0  0  0
 37 66  1  0  0  0
 37106  1  0  0  0
 38 43  2  0  0  0
 38 46  1  0  0  0
 38 47  1  0  0  0
 39 64  1  0  0  0
 39 67  2  0  0  0
 40 52  1  0  0  0
 40 53  2  0  0  0
 40 58  1  0  0  0
 41107  1  0  0  0
 41108  1  0  0  0
 41109  1  0  0  0
 41 48  1  0  0  0
 42 43  1  0  0  0
 42 66  1  0  0  0
 42110  1  0  0  0
 42111  1  0  0  0
 43 44  1  0  0  0
 44112  1  0  0  0
 45 46  2  0  0  0
 45113  1  0  0  0
 46114  1  0  0  0
 47115  1  0  0  0
 47116  1  0  0  0
 48 56  1  0  0  0
 48 65  1  0  0  0
 48117  1  0  0  0
 49 50  1  0  0  0
 49 53  1  0  0  0
 49 64  1  0  0  0
 49118  1  0  0  0
 50 51  1  0  0  0
 50119  1  0  0  0
 50120  1  0  0  0
 51 52  1  0  0  0
 51121  1  0  0  0
 51122  1  0  0  0
 52123  1  0  0  0
 52124  1  0  0  0
 53 54  1  0  0  0
 54 55  2  0  0  0
 54125  1  0  0  0
 55 57  1  0  0  0
 55126  1  0  0  0
 56 69  2  0  0  0
 57 58  2  0  0  0
 57127  1  0  0  0
 58128  1  0  0  0
 59 60  1  0  0  0
 59 61  1  0  0  0
 59 62  1  0  0  0
 60129  1  0  0  0
 60130  1  0  0  0
 60131  1  0  0  0
 61132  1  0  0  0
 61133  1  0  0  0
 61134  1  0  0  0
 62135  1  0  0  0
 62136  1  0  0  0
 62137  1  0  0  0
 63 65  1  0  0  0
 63138  1  0  0  0
 63139  1  0  0  0
 63140  1  0  0  0
 64141  1  0  0  0
 65142  1  0  0  0
 68 79  1  0  0  0
 71 73  2  0  0  0
 71 82  1  0  0  0
 71143  1  0  0  0
 72 82  2  0  0  0
 72 83  1  0  0  0
 72144  1  0  0  0
 73 80  1  0  0  0
 73 83  1  0  0  0
 74145  1  0  0  0
 74146  1  0  0  0
 74147  1  0  0  0
 74 80  1  0  0  0
 75 80  1  0  0  0
 75148  1  0  0  0
 75149  1  0  0  0
 75150  1  0  0  0
 76151  1  0  0  0
 76152  1  0  0  0
 76153  1  0  0  0
 76 81  1  0  0  0
 77 81  1  0  0  0
 77154  1  0  0  0
 77155  1  0  0  0
 77156  1  0  0  0
 78 81  1  0  0  0
 78 83  1  0  0  0
 78157  1  0  0  0
 78158  1  0  0  0
 79 81  1  0  0  0
 79159  1  0  0  0
 79160  1  0  0  0
M  ISO  4   1 100  68 101  79 101  80 100
M  END
> <chiral flag>
0

> <version>
0

> <s_m_source_file>
/data/baiqing/PycharmProjects/Reinvent-master-3.2/result/LINK_invent/BTK/process_docking_weight1_custom_sum_contain_oxygen_bond_distance_aromatic_linkinvent_7_9_3/rearranged_h_0061.sdf

> <i_m_source_file_index>
35

> <r_mmod_Potential_Energy-OPLS-2005>
1385.94702148438

> <r_mmod_Stretch_Energy-OPLS-2005>
632.044311523438

> <r_mmod_Bend_Energy-OPLS-2005>
503.8115234375

> <r_mmod_Torsional_Energy-OPLS-2005>
229.265640258789

> <r_mmod_Improper_Torsional_Energy-OPLS-2005>
2.10115671157837

> <r_mmod_Van_der_Waal_Energy-OPLS-2005>
115.249221801758

> <r_mmod_Electrostatic_Energy-OPLS-2005>
-295.441589355469

> <r_mmod_Solvation_Energy-OPLS-2005>
-201.286880493164

> <b_mmod_Minimization_Converged-OPLS-2005>
0

> <r_mmod_RMS_Derivative-OPLS-2005>
5.63504409790039

$$$$
36
                    3D
 Structure written by MMmdl.
155163  0  0  1  0            999 V2000
  -30.5969  -14.7677   20.4518 C   0  0  0  0  0  0
  -30.4333  -12.4544   19.4915 C   0  0  0  0  0  0
  -29.5220  -12.5370   18.2490 C   0  0  0  0  0  0
  -28.0441  -12.3587   18.6457 C   0  0  0  0  0  0
  -27.6531  -13.2370   19.8636 C   0  0  2  0  0  0
  -28.6956  -13.1547   21.0007 C   0  0  0  0  0  0
  -25.2541  -13.8216   20.5604 C   0  0  0  0  0  0
  -24.1838  -13.0452   20.9125 C   0  0  0  0  0  0
  -24.6448  -11.6936   20.8715 C   0  0  0  0  0  0
  -23.9117  -10.4316   21.0367 C   0  0  0  0  0  0
  -24.3671   -9.4240   21.9141 C   0  0  0  0  0  0
  -23.6359   -8.2274   22.0729 C   0  0  0  0  0  0
  -22.4336   -8.0317   21.3521 C   0  0  0  0  0  0
  -21.9984   -9.0282   20.4615 C   0  0  0  0  0  0
  -22.7302  -10.2159   20.2998 C   0  0  0  0  0  0
  -21.6883   -6.0776   22.5270 C   0  0  0  0  0  0
  -21.4032   -6.5652   23.8221 C   0  0  0  0  0  0
  -21.3680   -5.6789   24.9166 C   0  0  0  0  0  0
  -21.6048   -4.3047   24.7201 C   0  0  0  0  0  0
  -21.8820   -3.8159   23.4306 C   0  0  0  0  0  0
  -21.9209   -4.6992   22.3374 C   0  0  0  0  0  0
  -22.7855  -13.5216   21.1829 C   0  0  0  0  0  0
  -22.1652   -4.2170   21.0952 F   0  0  0  0  0  0
  -21.5649   -3.4521   25.7706 F   0  0  0  0  0  0
  -30.0075  -13.5156   20.4395 N   0  0  0  0  0  0
  -26.2996  -12.9425   20.3304 N   0  0  0  0  0  0
  -25.9386  -11.6558   20.5770 N   0  0  0  0  0  0
  -22.0517  -12.8186   22.0374 N   0  0  0  0  0  0
  -25.4246  -15.1949   20.4010 N   0  0  0  0  0  0
  -31.7289  -14.9196   19.9879 O   0  0  0  0  0  0
  -21.6661   -6.8928   21.4244 O   0  0  0  0  0  0
  -22.3519  -14.5532   20.6731 O   0  0  0  0  0  0
  -24.6329  -31.8559   23.1975 C   0  0  0  0  0  0
  -25.9133  -32.4773   23.8339 C   0  0  1  0  0  0
  -27.2275  -27.2435   20.1290 C   0  0  0  0  0  0
  -25.5941  -33.8575   24.2289 N   0  0  0  0  0  0
  -23.4306  -30.4743   21.5436 C   0  0  2  0  0  0
  -24.8796  -28.9184   20.1093 C   0  0  0  0  0  0
  -22.7518  -29.4587   22.4949 C   0  0  0  0  0  0
  -18.0308  -28.1373   22.8485 C   0  0  0  0  0  0
  -24.1501  -36.7270   23.2641 C   0  0  0  0  0  0
  -25.9780  -30.7579   21.3827 C   0  0  0  0  0  0
  -26.0519  -29.3789   20.7240 C   0  0  0  0  0  0
  -27.2244  -28.5546   20.7235 C   0  0  0  0  0  0
  -26.0331  -26.8578   19.4773 C   0  0  0  0  0  0
  -24.8792  -27.6680   19.4713 C   0  0  0  0  0  0
  -23.6475  -29.8050   20.1607 C   0  0  0  0  0  0
  -25.4133  -36.3082   24.0337 C   0  0  1  0  0  0
  -20.5907  -28.3679   23.1291 C   0  0  2  0  0  0
  -20.6799  -26.9404   22.5410 C   0  0  0  0  0  0
  -19.5777  -26.6371   21.5220 C   0  0  0  0  0  0
  -18.1948  -26.7919   22.1614 C   0  0  0  0  0  0
  -19.1554  -28.8853   23.2869 C   0  0  0  0  0  0
  -18.9466  -30.1458   23.8880 C   0  0  0  0  0  0
  -17.6454  -30.6575   24.0558 C   0  0  0  0  0  0
  -25.9070  -34.9459   23.5124 C   0  0  0  0  0  0
  -16.5353  -29.9058   23.6330 C   0  0  0  0  0  0
  -16.7282  -28.6474   23.0356 C   0  0  0  0  0  0
  -26.4500  -31.6586   25.0718 C   0  0  0  0  0  0
  -25.3685  -31.3702   26.1394 C   0  0  0  0  0  0
  -27.0374  -30.3032   24.6154 C   0  0  0  0  0  0
  -27.6090  -32.4307   25.7457 C   0  0  0  0  0  0
  -27.5602  -37.1784   24.8465 C   0  0  0  0  0  0
  -21.4231  -29.3023   22.3686 N   0  0  0  0  0  0
  -26.4310  -37.3783   23.9413 N   0  0  0  0  0  0
  -24.6998  -31.0462   22.0988 N   0  0  0  0  0  0
  -23.4212  -28.8148   23.3068 O   0  0  0  0  0  0
  -28.3245  -26.3445   20.1958 O   0  0  0  0  0  0
  -26.5634  -34.8929   22.4683 O   0  0  0  0  0  0
  -23.5457  -32.1433   23.7215 O   0  0  0  0  0  0
  -28.1102  -20.3241   20.6349 C   0  0  0  0  0  0
  -29.5010  -20.0517   20.4381 C   0  0  0  0  0  0
  -31.0787  -18.5778   21.8057 C   0  0  0  0  0  0
  -31.3136  -18.6702   19.3171 C   0  0  0  0  0  0
  -29.2417  -23.7567   20.4835 C   0  0  0  0  0  0
  -29.4750  -17.2437   20.2737 C   0  0  0  0  0  0
  -28.1255  -24.8507   20.0063 C   0  0  0  0  0  0
  -30.2982  -18.6472   20.4791 C   0  0  0  0  0  0
  -27.8338  -21.6229   20.6242 N   0  0  0  0  0  0
  -30.0584  -21.2715   20.3201 N   0  0  0  0  0  0
  -29.0313  -22.2297   20.3986 N   0  0  0  0  0  0
  -29.8194  -15.8484   20.8496 N   0  0  0  0  0  0
  -31.4776  -12.5567   19.1956 H   0  0  0  0  0  0
  -30.3514  -11.4705   19.9574 H   0  0  0  0  0  0
  -29.8197  -11.7876   17.5144 H   0  0  0  0  0  0
  -29.6551  -13.5101   17.7738 H   0  0  0  0  0  0
  -27.8865  -11.3078   18.8871 H   0  0  0  0  0  0
  -27.3981  -12.5776   17.7940 H   0  0  0  0  0  0
  -27.6563  -14.2638   19.5009 H   0  0  0  0  0  0
  -28.7160  -12.1461   21.4160 H   0  0  0  0  0  0
  -28.4246  -13.8173   21.8254 H   0  0  0  0  0  0
  -25.2825   -9.5732   22.4706 H   0  0  0  0  0  0
  -24.0081   -7.4667   22.7452 H   0  0  0  0  0  0
  -21.0922   -8.8811   19.8920 H   0  0  0  0  0  0
  -22.3773  -10.9702   19.6096 H   0  0  0  0  0  0
  -21.2003   -7.6155   23.9727 H   0  0  0  0  0  0
  -21.1502   -6.0498   25.9082 H   0  0  0  0  0  0
  -22.0582   -2.7623   23.2776 H   0  0  0  0  0  0
  -22.4190  -11.9872   22.4778 H   0  0  0  0  0  0
  -21.1117  -13.1154   22.2577 H   0  0  0  0  0  0
  -24.6600  -15.8538   20.5034 H   0  0  0  0  0  0
  -26.2846  -15.6311   20.0904 H   0  0  0  0  0  0
  -26.7170  -32.5419   23.1056 H   0  0  0  0  0  0
  -25.0112  -33.9739   25.0446 H   0  0  0  0  0  0
  -22.7272  -31.2972   21.3979 H   0  0  0  0  0  0
  -23.3814  -35.9551   23.3292 H   0  0  0  0  0  0
  -24.3583  -36.8899   22.2056 H   0  0  0  0  0  0
  -23.7203  -37.6444   23.6668 H   0  0  0  0  0  0
  -26.1142  -31.5167   20.6116 H   0  0  0  0  0  0
  -26.8569  -30.8090   22.0134 H   0  0  0  0  0  0
  -28.1210  -28.9000   21.2228 H   0  0  0  0  0  0
  -25.9672  -25.9043   18.9737 H   0  0  0  0  0  0
  -23.9856  -27.3130   18.9765 H   0  0  0  0  0  0
  -23.7643  -30.5829   19.4046 H   0  0  0  0  0  0
  -22.7645  -29.2359   19.8625 H   0  0  0  0  0  0
  -25.1316  -36.1951   25.0833 H   0  0  0  0  0  0
  -20.9986  -28.3236   24.1422 H   0  0  0  0  0  0
  -20.5714  -26.2287   23.3603 H   0  0  0  0  0  0
  -21.6664  -26.7446   22.1200 H   0  0  0  0  0  0
  -19.6946  -25.6287   21.1244 H   0  0  0  0  0  0
  -19.6722  -27.3190   20.6764 H   0  0  0  0  0  0
  -17.4235  -26.6706   21.3991 H   0  0  0  0  0  0
  -18.0320  -26.0045   22.8988 H   0  0  0  0  0  0
  -19.7940  -30.7289   24.2227 H   0  0  0  0  0  0
  -17.5006  -31.6245   24.5162 H   0  0  0  0  0  0
  -15.5346  -30.2943   23.7674 H   0  0  0  0  0  0
  -15.8693  -28.0780   22.7082 H   0  0  0  0  0  0
  -24.5863  -30.7082   25.7655 H   0  0  0  0  0  0
  -24.8842  -32.2848   26.4833 H   0  0  0  0  0  0
  -25.7933  -30.8817   27.0168 H   0  0  0  0  0  0
  -26.2954  -29.6744   24.1211 H   0  0  0  0  0  0
  -27.4171  -29.7314   25.4631 H   0  0  0  0  0  0
  -27.8781  -30.4401   23.9350 H   0  0  0  0  0  0
  -27.2772  -33.3638   26.2029 H   0  0  0  0  0  0
  -28.3876  -32.6811   25.0238 H   0  0  0  0  0  0
  -28.0785  -31.8410   26.5340 H   0  0  0  0  0  0
  -28.2606  -38.0100   24.7563 H   0  0  0  0  0  0
  -28.1117  -36.2634   24.6252 H   0  0  0  0  0  0
  -27.2301  -37.1373   25.8857 H   0  0  0  0  0  0
  -20.9439  -29.8694   21.6840 H   0  0  0  0  0  0
  -26.0213  -38.2858   24.1413 H   0  0  0  0  0  0
  -27.3235  -19.6063   20.8249 H   0  0  0  0  0  0
  -31.6914  -19.4711   21.9474 H   0  0  0  0  0  0
  -31.7571  -17.7243   21.8273 H   0  0  0  0  0  0
  -30.4129  -18.4969   22.6655 H   0  0  0  0  0  0
  -32.0980  -19.4101   19.4814 H   0  0  0  0  0  0
  -30.8237  -18.9141   18.3706 H   0  0  0  0  0  0
  -31.7986  -17.7007   19.1923 H   0  0  0  0  0  0
  -29.4597  -23.9635   21.5305 H   0  0  0  0  0  0
  -30.1701  -23.9773   19.9564 H   0  0  0  0  0  0
  -29.2836  -17.1112   19.2065 H   0  0  0  0  0  0
  -28.4827  -17.4188   20.6906 H   0  0  0  0  0  0
  -27.1827  -24.5827   20.4842 H   0  0  0  0  0  0
  -27.9639  -24.6931   18.9405 H   0  0  0  0  0  0
  -29.0617  -15.5087   21.4233 H   0  0  0  0  0  0
  1 25  1  0  0  0
  1 30  2  0  0  0
  1 82  1  0  0  0
  2  3  1  0  0  0
  2 25  1  0  0  0
  2 83  1  0  0  0
  2 84  1  0  0  0
  3  4  1  0  0  0
  3 85  1  0  0  0
  3 86  1  0  0  0
  4  5  1  0  0  0
  4 87  1  0  0  0
  4 88  1  0  0  0
  5  6  1  0  0  0
  5 26  1  0  0  0
  5 89  1  0  0  0
  6 25  1  0  0  0
  6 90  1  0  0  0
  6 91  1  0  0  0
  7  8  2  0  0  0
  7 26  1  0  0  0
  7 29  1  0  0  0
  8  9  1  0  0  0
  8 22  1  0  0  0
  9 10  1  0  0  0
  9 27  2  0  0  0
 10 11  2  0  0  0
 10 15  1  0  0  0
 11 12  1  0  0  0
 11 92  1  0  0  0
 12 13  2  0  0  0
 12 93  1  0  0  0
 13 14  1  0  0  0
 13 31  1  0  0  0
 14 15  2  0  0  0
 14 94  1  0  0  0
 15 95  1  0  0  0
 16 17  2  0  0  0
 16 21  1  0  0  0
 16 31  1  0  0  0
 17 18  1  0  0  0
 17 96  1  0  0  0
 18 19  2  0  0  0
 18 97  1  0  0  0
 19 20  1  0  0  0
 19 24  1  0  0  0
 20 21  2  0  0  0
 20 98  1  0  0  0
 21 23  1  0  0  0
 22 28  1  0  0  0
 22 32  2  0  0  0
 26 27  1  0  0  0
 28 99  1  0  0  0
 28100  1  0  0  0
 29101  1  0  0  0
 29102  1  0  0  0
 33 34  1  0  0  0
 33 66  1  0  0  0
 33 70  2  0  0  0
 34 36  1  0  0  0
 34 59  1  0  0  0
 34103  1  0  0  0
 35 44  2  0  0  0
 35 45  1  0  0  0
 35 68  1  0  0  0
 36 56  1  0  0  0
 36104  1  0  0  0
 37 39  1  0  0  0
 37 47  1  0  0  0
 37 66  1  0  0  0
 37105  1  0  0  0
 38 43  2  0  0  0
 38 46  1  0  0  0
 38 47  1  0  0  0
 39 64  1  0  0  0
 39 67  2  0  0  0
 40 52  1  0  0  0
 40 53  2  0  0  0
 40 58  1  0  0  0
 41106  1  0  0  0
 41107  1  0  0  0
 41108  1  0  0  0
 41 48  1  0  0  0
 42 43  1  0  0  0
 42 66  1  0  0  0
 42109  1  0  0  0
 42110  1  0  0  0
 43 44  1  0  0  0
 44111  1  0  0  0
 45 46  2  0  0  0
 45112  1  0  0  0
 46113  1  0  0  0
 47114  1  0  0  0
 47115  1  0  0  0
 48 56  1  0  0  0
 48 65  1  0  0  0
 48116  1  0  0  0
 49 50  1  0  0  0
 49 53  1  0  0  0
 49 64  1  0  0  0
 49117  1  0  0  0
 50 51  1  0  0  0
 50118  1  0  0  0
 50119  1  0  0  0
 51 52  1  0  0  0
 51120  1  0  0  0
 51121  1  0  0  0
 52122  1  0  0  0
 52123  1  0  0  0
 53 54  1  0  0  0
 54 55  2  0  0  0
 54124  1  0  0  0
 55 57  1  0  0  0
 55125  1  0  0  0
 56 69  2  0  0  0
 57 58  2  0  0  0
 57126  1  0  0  0
 58127  1  0  0  0
 59 60  1  0  0  0
 59 61  1  0  0  0
 59 62  1  0  0  0
 60128  1  0  0  0
 60129  1  0  0  0
 60130  1  0  0  0
 61131  1  0  0  0
 61132  1  0  0  0
 61133  1  0  0  0
 62134  1  0  0  0
 62135  1  0  0  0
 62136  1  0  0  0
 63 65  1  0  0  0
 63137  1  0  0  0
 63138  1  0  0  0
 63139  1  0  0  0
 64140  1  0  0  0
 65141  1  0  0  0
 68 77  1  0  0  0
 71 72  1  0  0  0
 71 79  2  0  0  0
 71142  1  0  0  0
 72 78  1  0  0  0
 72 80  2  0  0  0
 73143  1  0  0  0
 73144  1  0  0  0
 73145  1  0  0  0
 73 78  1  0  0  0
 74 78  1  0  0  0
 74146  1  0  0  0
 74147  1  0  0  0
 74148  1  0  0  0
 75 77  1  0  0  0
 75 81  1  0  0  0
 75149  1  0  0  0
 75150  1  0  0  0
 76 78  1  0  0  0
 76 82  1  0  0  0
 76151  1  0  0  0
 76152  1  0  0  0
 77153  1  0  0  0
 77154  1  0  0  0
 79 81  1  0  0  0
 80 81  1  0  0  0
 82155  1  0  0  0
M  ISO  4   1 100  68 101  77 101  82 100
M  END
> <chiral flag>
0

> <version>
0

> <s_m_source_file>
/data/baiqing/PycharmProjects/Reinvent-master-3.2/result/LINK_invent/BTK/process_docking_weight1_custom_sum_contain_oxygen_bond_distance_aromatic_linkinvent_7_9_3/rearranged_h_0061.sdf

> <i_m_source_file_index>
36

> <r_mmod_Potential_Energy-OPLS-2005>
175.296463012695

> <r_mmod_Stretch_Energy-OPLS-2005>
150.920532226562

> <r_mmod_Bend_Energy-OPLS-2005>
216.974044799805

> <r_mmod_Torsional_Energy-OPLS-2005>
237.042510986328

> <r_mmod_Improper_Torsional_Energy-OPLS-2005>
6.97521543502808

> <r_mmod_Van_der_Waal_Energy-OPLS-2005>
111.64232635498

> <r_mmod_Electrostatic_Energy-OPLS-2005>
-417.375427246094

> <r_mmod_Solvation_Energy-OPLS-2005>
-225.893905639648

> <b_mmod_Minimization_Converged-OPLS-2005>
0

> <r_mmod_RMS_Derivative-OPLS-2005>
4.18558883666992

$$$$
37
                    3D
 Structure written by MMmdl.
165173  0  0  1  0            999 V2000
  -30.6604  -14.8052   20.4330 C   0  0  0  0  0  0
  -30.4280  -12.5033   19.4698 C   0  0  0  0  0  0
  -29.5013  -12.4871   18.2359 C   0  0  0  0  0  0
  -28.0405  -12.2525   18.6671 C   0  0  0  0  0  0
  -27.6198  -13.1840   19.8298 C   0  0  2  0  0  0
  -28.6807  -13.2296   20.9611 C   0  0  0  0  0  0
  -25.2445  -13.8024   20.5683 C   0  0  0  0  0  0
  -24.1730  -13.0338   20.9260 C   0  0  0  0  0  0
  -24.6294  -11.6813   20.8817 C   0  0  0  0  0  0
  -23.8985  -10.4224   21.0444 C   0  0  0  0  0  0
  -24.3568   -9.4142   21.9199 C   0  0  0  0  0  0
  -23.6253   -8.2179   22.0755 C   0  0  0  0  0  0
  -22.4238   -8.0231   21.3537 C   0  0  0  0  0  0
  -21.9868   -9.0198   20.4639 C   0  0  0  0  0  0
  -22.7182  -10.2079   20.3060 C   0  0  0  0  0  0
  -21.6822   -6.0710   22.5285 C   0  0  0  0  0  0
  -21.3982   -6.5620   23.8218 C   0  0  0  0  0  0
  -21.3663   -5.6779   24.9184 C   0  0  0  0  0  0
  -21.6056   -4.3042   24.7231 C   0  0  0  0  0  0
  -21.8820   -3.8129   23.4352 C   0  0  0  0  0  0
  -21.9178   -4.6942   22.3407 C   0  0  0  0  0  0
  -22.7767  -13.5182   21.1899 C   0  0  0  0  0  0
  -22.1645   -4.2132   21.0983 F   0  0  0  0  0  0
  -21.5652   -3.4528   25.7747 F   0  0  0  0  0  0
  -29.9690  -13.6033   20.3547 N   0  0  0  0  0  0
  -26.2818  -12.9129   20.3268 N   0  0  0  0  0  0
  -25.9202  -11.6338   20.5823 N   0  0  0  0  0  0
  -22.0388  -12.8209   22.0462 N   0  0  0  0  0  0
  -25.4050  -15.1742   20.4001 N   0  0  0  0  0  0
  -31.8774  -14.7807   20.2265 O   0  0  0  0  0  0
  -21.6599   -6.8839   21.4238 O   0  0  0  0  0  0
  -22.3485  -14.5488   20.6719 O   0  0  0  0  0  0
  -24.6307  -31.8575   23.2003 C   0  0  0  0  0  0
  -25.9136  -32.4769   23.8341 C   0  0  1  0  0  0
  -27.2234  -27.2770   20.1219 C   0  0  0  0  0  0
  -25.5932  -33.8572   24.2265 N   0  0  0  0  0  0
  -23.4267  -30.4813   21.5453 C   0  0  2  0  0  0
  -24.8734  -28.9335   20.1121 C   0  0  0  0  0  0
  -22.7505  -29.4618   22.4934 C   0  0  0  0  0  0
  -18.0294  -28.1385   22.8494 C   0  0  0  0  0  0
  -24.1489  -36.7291   23.2639 C   0  0  0  0  0  0
  -25.9726  -30.7751   21.3783 C   0  0  0  0  0  0
  -26.0464  -29.4003   20.7182 C   0  0  0  0  0  0
  -27.2248  -28.5867   20.7099 C   0  0  0  0  0  0
  -26.0218  -26.8799   19.4872 C   0  0  0  0  0  0
  -24.8659  -27.6812   19.4854 C   0  0  0  0  0  0
  -23.6430  -29.8172   20.1614 C   0  0  0  0  0  0
  -25.4116  -36.3083   24.0327 C   0  0  1  0  0  0
  -20.5899  -28.3698   23.1274 C   0  0  2  0  0  0
  -20.6781  -26.9418   22.5408 C   0  0  0  0  0  0
  -19.5751  -26.6383   21.5217 C   0  0  0  0  0  0
  -18.1933  -26.7927   22.1630 C   0  0  0  0  0  0
  -19.1545  -28.8858   23.2878 C   0  0  0  0  0  0
  -18.9467  -30.1458   23.8897 C   0  0  0  0  0  0
  -17.6466  -30.6585   24.0562 C   0  0  0  0  0  0
  -25.9061  -34.9451   23.5099 C   0  0  0  0  0  0
  -16.5359  -29.9082   23.6335 C   0  0  0  0  0  0
  -16.7280  -28.6498   23.0362 C   0  0  0  0  0  0
  -26.4501  -31.6589   25.0727 C   0  0  0  0  0  0
  -25.3716  -31.3739   26.1440 C   0  0  0  0  0  0
  -27.0349  -30.3007   24.6208 C   0  0  0  0  0  0
  -27.6057  -32.4326   25.7501 C   0  0  0  0  0  0
  -27.5581  -37.1800   24.8466 C   0  0  0  0  0  0
  -21.4213  -29.3048   22.3664 N   0  0  0  0  0  0
  -26.4293  -37.3777   23.9409 N   0  0  0  0  0  0
  -24.6959  -31.0549   22.0973 N   0  0  0  0  0  0
  -23.4209  -28.8151   23.3022 O   0  0  0  0  0  0
  -28.3205  -26.3843   20.1801 O   0  0  0  0  0  0
  -26.5635  -34.8921   22.4671 O   0  0  0  0  0  0
  -23.5465  -32.1387   23.7308 O   0  0  0  0  0  0
  -31.3060  -23.2687   20.2640 C   0  0  0  0  0  0
  -29.1450  -23.7995   20.2725 C   0  0  0  0  0  0
  -29.8279  -21.5773   20.3786 C   0  0  0  0  0  0
  -32.7501  -23.7135   20.1879 C   0  0  0  0  0  0
  -29.7402  -19.6946   18.6955 C   0  0  0  0  0  0
  -31.4473  -19.4003   21.8854 C   0  0  0  0  0  0
  -29.2086  -18.4880   22.2829 C   0  0  0  0  0  0
  -28.6754  -16.2680   19.9944 C   0  0  0  0  0  0
  -28.0249  -24.9107   20.0937 C   0  0  0  0  0  0
  -30.7625  -17.4026   20.4936 C   0  0  0  0  0  0
  -29.5525  -20.0002   20.1925 C   0  0  1  0  0  0
  -30.2138  -18.8173   21.1523 C   0  0  0  0  0  0
  -30.3979  -24.2359   20.2497 N   0  0  0  0  0  0
  -31.0995  -21.9569   20.2955 N   0  0  0  0  0  0
  -28.8033  -22.4761   20.3405 N   0  0  0  0  0  0
  -30.0181  -16.0613   20.5251 N   0  0  0  0  0  0
  -31.4625  -12.6301   19.1476 H   0  0  0  0  0  0
  -30.3964  -11.5482   19.9962 H   0  0  0  0  0  0
  -29.8164  -11.7112   17.5374 H   0  0  0  0  0  0
  -29.5830  -13.4347   17.7006 H   0  0  0  0  0  0
  -27.9512  -11.2120   18.9816 H   0  0  0  0  0  0
  -27.3697  -12.3715   17.8154 H   0  0  0  0  0  0
  -27.5352  -14.1408   19.3426 H   0  0  0  0  0  0
  -28.7566  -12.2585   21.4516 H   0  0  0  0  0  0
  -28.4004  -13.9365   21.7431 H   0  0  0  0  0  0
  -25.2712   -9.5617   22.4776 H   0  0  0  0  0  0
  -23.9958   -7.4564   22.7469 H   0  0  0  0  0  0
  -21.0803   -8.8707   19.8943 H   0  0  0  0  0  0
  -22.3641  -10.9624   19.6170 H   0  0  0  0  0  0
  -21.1941   -7.6122   23.9714 H   0  0  0  0  0  0
  -21.1502   -6.0507   25.9092 H   0  0  0  0  0  0
  -22.0596   -2.7592   23.2856 H   0  0  0  0  0  0
  -22.3983  -11.9883   22.4881 H   0  0  0  0  0  0
  -21.0999  -13.1235   22.2639 H   0  0  0  0  0  0
  -24.6294  -15.8190   20.5071 H   0  0  0  0  0  0
  -26.2481  -15.6201   20.0649 H   0  0  0  0  0  0
  -26.7205  -32.5428   23.1089 H   0  0  0  0  0  0
  -25.0061  -33.9711   25.0396 H   0  0  0  0  0  0
  -22.7225  -31.3037   21.4011 H   0  0  0  0  0  0
  -23.3755  -35.9617   23.3299 H   0  0  0  0  0  0
  -24.3580  -36.8917   22.2053 H   0  0  0  0  0  0
  -23.7233  -37.6485   23.6669 H   0  0  0  0  0  0
  -26.1116  -31.5365   20.6090 H   0  0  0  0  0  0
  -26.8501  -30.8218   22.0117 H   0  0  0  0  0  0
  -28.1224  -28.9427   21.1963 H   0  0  0  0  0  0
  -25.9296  -25.9281   18.9888 H   0  0  0  0  0  0
  -23.9687  -27.3182   19.0025 H   0  0  0  0  0  0
  -23.7650  -30.5931   19.4048 H   0  0  0  0  0  0
  -22.7615  -29.2490   19.8583 H   0  0  0  0  0  0
  -25.1298  -36.1932   25.0818 H   0  0  0  0  0  0
  -20.9998  -28.3272   24.1391 H   0  0  0  0  0  0
  -20.5684  -26.2316   23.3617 H   0  0  0  0  0  0
  -21.6647  -26.7446   22.1195 H   0  0  0  0  0  0
  -19.6913  -25.6294   21.1244 H   0  0  0  0  0  0
  -19.6674  -27.3197   20.6748 H   0  0  0  0  0  0
  -17.4206  -26.6689   21.4027 H   0  0  0  0  0  0
  -18.0324  -26.0061   22.9018 H   0  0  0  0  0  0
  -19.7944  -30.7271   24.2268 H   0  0  0  0  0  0
  -17.5021  -31.6268   24.5155 H   0  0  0  0  0  0
  -15.5357  -30.2980   23.7655 H   0  0  0  0  0  0
  -15.8685  -28.0806   22.7088 H   0  0  0  0  0  0
  -24.5891  -30.7096   25.7759 H   0  0  0  0  0  0
  -24.8909  -32.2912   26.4854 H   0  0  0  0  0  0
  -25.8015  -30.8914   27.0228 H   0  0  0  0  0  0
  -26.2936  -29.6750   24.1224 H   0  0  0  0  0  0
  -27.4025  -29.7273   25.4729 H   0  0  0  0  0  0
  -27.8819  -30.4282   23.9460 H   0  0  0  0  0  0
  -27.2668  -33.3633   26.2063 H   0  0  0  0  0  0
  -28.3874  -32.6870   25.0333 H   0  0  0  0  0  0
  -28.0716  -31.8458   26.5426 H   0  0  0  0  0  0
  -28.2600  -38.0096   24.7522 H   0  0  0  0  0  0
  -28.1073  -36.2630   24.6285 H   0  0  0  0  0  0
  -27.2303  -37.1445   25.8868 H   0  0  0  0  0  0
  -20.9404  -29.8775   21.6866 H   0  0  0  0  0  0
  -26.0176  -38.2853   24.1396 H   0  0  0  0  0  0
  -32.8916  -24.6758   20.6796 H   0  0  0  0  0  0
  -33.0561  -23.8158   19.1466 H   0  0  0  0  0  0
  -33.4109  -22.9919   20.6684 H   0  0  0  0  0  0
  -29.1737  -20.3987   18.0854 H   0  0  0  0  0  0
  -29.3988  -18.6988   18.4239 H   0  0  0  0  0  0
  -30.7887  -19.7867   18.4125 H   0  0  0  0  0  0
  -31.8739  -18.6953   22.6013 H   0  0  0  0  0  0
  -31.2035  -20.2962   22.4567 H   0  0  0  0  0  0
  -32.2398  -19.6596   21.1814 H   0  0  0  0  0  0
  -29.6008  -17.7275   22.9598 H   0  0  0  0  0  0
  -28.2520  -18.1255   21.9112 H   0  0  0  0  0  0
  -28.9848  -19.3714   22.8821 H   0  0  0  0  0  0
  -28.4017  -17.3130   19.8779 H   0  0  0  0  0  0
  -27.9366  -15.8449   20.6676 H   0  0  0  0  0  0
  -28.6047  -15.8556   18.9895 H   0  0  0  0  0  0
  -27.2312  -24.6813   20.8060 H   0  0  0  0  0  0
  -27.6255  -24.7070   19.1006 H   0  0  0  0  0  0
  -31.7053  -17.1728   20.9913 H   0  0  0  0  0  0
  -31.0848  -17.5689   19.4665 H   0  0  0  0  0  0
  -28.4752  -19.9156   20.3412 H   0  0  0  0  0  0
  1 25  1  0  0  0
  1 30  2  0  0  0
  1 86  1  0  0  0
  2  3  1  0  0  0
  2 25  1  0  0  0
  2 87  1  0  0  0
  2 88  1  0  0  0
  3  4  1  0  0  0
  3 89  1  0  0  0
  3 90  1  0  0  0
  4  5  1  0  0  0
  4 91  1  0  0  0
  4 92  1  0  0  0
  5  6  1  0  0  0
  5 26  1  0  0  0
  5 93  1  0  0  0
  6 25  1  0  0  0
  6 94  1  0  0  0
  6 95  1  0  0  0
  7  8  2  0  0  0
  7 26  1  0  0  0
  7 29  1  0  0  0
  8  9  1  0  0  0
  8 22  1  0  0  0
  9 10  1  0  0  0
  9 27  2  0  0  0
 10 11  2  0  0  0
 10 15  1  0  0  0
 11 12  1  0  0  0
 11 96  1  0  0  0
 12 13  2  0  0  0
 12 97  1  0  0  0
 13 14  1  0  0  0
 13 31  1  0  0  0
 14 15  2  0  0  0
 14 98  1  0  0  0
 15 99  1  0  0  0
 16 17  2  0  0  0
 16 21  1  0  0  0
 16 31  1  0  0  0
 17 18  1  0  0  0
 17100  1  0  0  0
 18 19  2  0  0  0
 18101  1  0  0  0
 19 20  1  0  0  0
 19 24  1  0  0  0
 20 21  2  0  0  0
 20102  1  0  0  0
 21 23  1  0  0  0
 22 28  1  0  0  0
 22 32  2  0  0  0
 26 27  1  0  0  0
 28103  1  0  0  0
 28104  1  0  0  0
 29105  1  0  0  0
 29106  1  0  0  0
 33 34  1  0  0  0
 33 66  1  0  0  0
 33 70  2  0  0  0
 34 36  1  0  0  0
 34 59  1  0  0  0
 34107  1  0  0  0
 35 44  2  0  0  0
 35 45  1  0  0  0
 35 68  1  0  0  0
 36 56  1  0  0  0
 36108  1  0  0  0
 37 39  1  0  0  0
 37 47  1  0  0  0
 37 66  1  0  0  0
 37109  1  0  0  0
 38 43  2  0  0  0
 38 46  1  0  0  0
 38 47  1  0  0  0
 39 64  1  0  0  0
 39 67  2  0  0  0
 40 52  1  0  0  0
 40 53  2  0  0  0
 40 58  1  0  0  0
 41110  1  0  0  0
 41111  1  0  0  0
 41112  1  0  0  0
 41 48  1  0  0  0
 42 43  1  0  0  0
 42 66  1  0  0  0
 42113  1  0  0  0
 42114  1  0  0  0
 43 44  1  0  0  0
 44115  1  0  0  0
 45 46  2  0  0  0
 45116  1  0  0  0
 46117  1  0  0  0
 47118  1  0  0  0
 47119  1  0  0  0
 48 56  1  0  0  0
 48 65  1  0  0  0
 48120  1  0  0  0
 49 50  1  0  0  0
 49 53  1  0  0  0
 49 64  1  0  0  0
 49121  1  0  0  0
 50 51  1  0  0  0
 50122  1  0  0  0
 50123  1  0  0  0
 51 52  1  0  0  0
 51124  1  0  0  0
 51125  1  0  0  0
 52126  1  0  0  0
 52127  1  0  0  0
 53 54  1  0  0  0
 54 55  2  0  0  0
 54128  1  0  0  0
 55 57  1  0  0  0
 55129  1  0  0  0
 56 69  2  0  0  0
 57 58  2  0  0  0
 57130  1  0  0  0
 58131  1  0  0  0
 59 60  1  0  0  0
 59 61  1  0  0  0
 59 62  1  0  0  0
 60132  1  0  0  0
 60133  1  0  0  0
 60134  1  0  0  0
 61135  1  0  0  0
 61136  1  0  0  0
 61137  1  0  0  0
 62138  1  0  0  0
 62139  1  0  0  0
 62140  1  0  0  0
 63 65  1  0  0  0
 63141  1  0  0  0
 63142  1  0  0  0
 63143  1  0  0  0
 64144  1  0  0  0
 65145  1  0  0  0
 68 79  1  0  0  0
 71 74  1  0  0  0
 71 83  2  0  0  0
 71 84  1  0  0  0
 72 79  1  0  0  0
 72 83  1  0  0  0
 72 85  2  0  0  0
 73 81  1  0  0  0
 73 84  2  0  0  0
 73 85  1  0  0  0
 74146  1  0  0  0
 74147  1  0  0  0
 74148  1  0  0  0
 75149  1  0  0  0
 75150  1  0  0  0
 75151  1  0  0  0
 75 81  1  0  0  0
 76152  1  0  0  0
 76153  1  0  0  0
 76154  1  0  0  0
 76 82  1  0  0  0
 77 82  1  0  0  0
 77155  1  0  0  0
 77156  1  0  0  0
 77157  1  0  0  0
 78 86  1  0  0  0
 78158  1  0  0  0
 78159  1  0  0  0
 78160  1  0  0  0
 79161  1  0  0  0
 79162  1  0  0  0
 80 82  1  0  0  0
 80 86  1  0  0  0
 80163  1  0  0  0
 80164  1  0  0  0
 81 82  1  0  0  0
 81165  1  0  0  0
M  ISO  4   1 100  68 101  79 101  86 100
M  END
> <chiral flag>
0

> <version>
0

> <s_m_source_file>
/data/baiqing/PycharmProjects/Reinvent-master-3.2/result/LINK_invent/BTK/process_docking_weight1_custom_sum_contain_oxygen_bond_distance_aromatic_linkinvent_7_9_3/rearranged_h_0061.sdf

> <i_m_source_file_index>
37

> <r_mmod_Potential_Energy-OPLS-2005>
-142.757369995117

> <r_mmod_Stretch_Energy-OPLS-2005>
147.615798950195

> <r_mmod_Bend_Energy-OPLS-2005>
211.771957397461

> <r_mmod_Torsional_Energy-OPLS-2005>
280.750732421875

> <r_mmod_Improper_Torsional_Energy-OPLS-2005>
8.87262725830078

> <r_mmod_Van_der_Waal_Energy-OPLS-2005>
187.444595336914

> <r_mmod_Electrostatic_Energy-OPLS-2005>
-860.498779296875

> <r_mmod_Solvation_Energy-OPLS-2005>
-222.086959838867

> <b_mmod_Minimization_Converged-OPLS-2005>
0

> <r_mmod_RMS_Derivative-OPLS-2005>
1.21523928642273

$$$$
38
                    3D
 Structure written by MMmdl.
153161  0  0  1  0            999 V2000
  -30.6585  -14.6447   20.5273 C   0  0  0  0  0  0
  -30.4308  -12.4102   19.4482 C   0  0  0  0  0  0
  -29.4988  -12.5032   18.2205 C   0  0  0  0  0  0
  -28.0253  -12.3329   18.6349 C   0  0  0  0  0  0
  -27.6481  -13.2122   19.8557 C   0  0  2  0  0  0
  -28.6900  -13.0625   20.9815 C   0  0  0  0  0  0
  -25.2552  -13.8161   20.5657 C   0  0  0  0  0  0
  -24.1818  -13.0435   20.9173 C   0  0  0  0  0  0
  -24.6375  -11.6900   20.8728 C   0  0  0  0  0  0
  -23.9049  -10.4288   21.0401 C   0  0  0  0  0  0
  -24.3607   -9.4206   21.9176 C   0  0  0  0  0  0
  -23.6285   -8.2243   22.0758 C   0  0  0  0  0  0
  -22.4268   -8.0277   21.3545 C   0  0  0  0  0  0
  -21.9900   -9.0248   20.4646 C   0  0  0  0  0  0
  -22.7228  -10.2125   20.3046 C   0  0  0  0  0  0
  -21.6850   -6.0732   22.5290 C   0  0  0  0  0  0
  -21.4014   -6.5637   23.8224 C   0  0  0  0  0  0
  -21.3653   -5.6791   24.9185 C   0  0  0  0  0  0
  -21.6042   -4.3056   24.7238 C   0  0  0  0  0  0
  -21.8817   -3.8144   23.4358 C   0  0  0  0  0  0
  -21.9195   -4.6958   22.3413 C   0  0  0  0  0  0
  -22.7849  -13.5235   21.1846 C   0  0  0  0  0  0
  -22.1660   -4.2148   21.0990 F   0  0  0  0  0  0
  -21.5625   -3.4536   25.7746 F   0  0  0  0  0  0
  -30.0003  -13.4385   20.4247 N   0  0  0  0  0  0
  -26.2963  -12.9324   20.3276 N   0  0  0  0  0  0
  -25.9294  -11.6487   20.5735 N   0  0  0  0  0  0
  -22.0492  -12.8225   22.0402 N   0  0  0  0  0  0
  -25.4312  -15.1880   20.4084 N   0  0  0  0  0  0
  -31.8064  -14.7513   20.0820 O   0  0  0  0  0  0
  -21.6639   -6.8872   21.4247 O   0  0  0  0  0  0
  -22.3530  -14.5542   20.6701 O   0  0  0  0  0  0
  -24.6243  -31.8581   23.1982 C   0  0  0  0  0  0
  -25.9103  -32.4773   23.8291 C   0  0  1  0  0  0
  -27.2270  -27.3349   20.1165 C   0  0  0  0  0  0
  -25.5934  -33.8569   24.2245 N   0  0  0  0  0  0
  -23.4175  -30.4814   21.5395 C   0  0  2  0  0  0
  -24.8652  -28.9323   20.1097 C   0  0  0  0  0  0
  -22.7459  -29.4630   22.4915 C   0  0  0  0  0  0
  -18.0285  -28.1400   22.8489 C   0  0  0  0  0  0
  -24.1483  -36.7294   23.2637 C   0  0  0  0  0  0
  -25.9539  -30.7985   21.3571 C   0  0  0  0  0  0
  -26.0339  -29.4221   20.7103 C   0  0  0  0  0  0
  -27.2205  -28.6336   20.7058 C   0  0  0  0  0  0
  -26.0409  -26.8889   19.4958 C   0  0  0  0  0  0
  -24.8685  -27.6688   19.4954 C   0  0  0  0  0  0
  -23.6314  -29.8101   20.1561 C   0  0  0  0  0  0
  -25.4109  -36.3073   24.0323 C   0  0  1  0  0  0
  -20.5884  -28.3695   23.1288 C   0  0  2  0  0  0
  -20.6775  -26.9421   22.5414 C   0  0  0  0  0  0
  -19.5758  -26.6402   21.5206 C   0  0  0  0  0  0
  -18.1931  -26.7951   22.1605 C   0  0  0  0  0  0
  -19.1537  -28.8859   23.2886 C   0  0  0  0  0  0
  -18.9461  -30.1468   23.8900 C   0  0  0  0  0  0
  -17.6461  -30.6592   24.0577 C   0  0  0  0  0  0
  -25.9052  -34.9460   23.5078 C   0  0  0  0  0  0
  -16.5354  -29.9107   23.6323 C   0  0  0  0  0  0
  -16.7264  -28.6525   23.0327 C   0  0  0  0  0  0
  -26.4514  -31.6562   25.0641 C   0  0  0  0  0  0
  -25.3777  -31.3713   26.1391 C   0  0  0  0  0  0
  -27.0327  -30.2995   24.6032 C   0  0  0  0  0  0
  -27.6074  -32.4294   25.7413 C   0  0  0  0  0  0
  -27.5572  -37.1790   24.8465 C   0  0  0  0  0  0
  -21.4165  -29.3058   22.3674 N   0  0  0  0  0  0
  -26.4277  -37.3777   23.9423 N   0  0  0  0  0  0
  -24.6857  -31.0613   22.0914 N   0  0  0  0  0  0
  -23.4183  -28.8165   23.2989 O   0  0  0  0  0  0
  -28.3253  -26.4716   20.1247 O   0  0  0  0  0  0
  -26.5606  -34.8945   22.4639 O   0  0  0  0  0  0
  -23.5420  -32.1352   23.7343 O   0  0  0  0  0  0
  -29.9486  -23.3381   20.7019 C   0  0  0  0  0  0
  -28.6425  -23.8366   20.4614 C   0  0  0  0  0  0
  -29.2969  -21.2046   20.0514 C   0  0  0  0  0  0
  -29.3498  -15.9635   22.1554 C   0  0  0  0  0  0
  -28.1532  -25.2561   20.9427 C   0  0  0  0  0  0
  -29.6932  -19.7446   19.6109 C   0  0  0  0  0  0
  -29.5318  -18.4885   20.5770 C   0  0  0  0  0  0
  -30.1273  -17.0917   20.0482 C   0  0  0  0  0  0
  -30.2687  -22.0211   20.4951 N   0  0  0  0  0  0
  -27.7094  -22.9370   20.0283 N   0  0  0  0  0  0
  -28.0356  -21.6344   19.8167 N   0  0  0  0  0  0
  -29.9360  -15.7940   20.8208 N   0  0  0  0  0  0
  -31.4670  -12.5359   19.1294 H   0  0  0  0  0  0
  -30.3841  -11.4158   19.8942 H   0  0  0  0  0  0
  -29.7693  -11.7453   17.4837 H   0  0  0  0  0  0
  -29.6328  -13.4688   17.7307 H   0  0  0  0  0  0
  -27.8716  -11.2803   18.8781 H   0  0  0  0  0  0
  -27.3665  -12.5468   17.7930 H   0  0  0  0  0  0
  -27.6692  -14.2480   19.5155 H   0  0  0  0  0  0
  -28.7165  -12.0322   21.3389 H   0  0  0  0  0  0
  -28.3950  -13.6480   21.8459 H   0  0  0  0  0  0
  -25.2754   -9.5695   22.4744 H   0  0  0  0  0  0
  -24.0007   -7.4634   22.7474 H   0  0  0  0  0  0
  -21.0837   -8.8749   19.8946 H   0  0  0  0  0  0
  -22.3682  -10.9653   19.6148 H   0  0  0  0  0  0
  -21.1999   -7.6147   23.9729 H   0  0  0  0  0  0
  -21.1471   -6.0521   25.9091 H   0  0  0  0  0  0
  -22.0596   -2.7609   23.2862 H   0  0  0  0  0  0
  -22.4104  -11.9875   22.4782 H   0  0  0  0  0  0
  -21.1110  -13.1249   22.2602 H   0  0  0  0  0  0
  -24.6718  -15.8511   20.5187 H   0  0  0  0  0  0
  -26.2956  -15.6222   20.1101 H   0  0  0  0  0  0
  -26.7168  -32.5462   23.1030 H   0  0  0  0  0  0
  -25.0117  -33.9708   25.0417 H   0  0  0  0  0  0
  -22.7124  -31.3022   21.3929 H   0  0  0  0  0  0
  -23.3743  -35.9628   23.3282 H   0  0  0  0  0  0
  -24.3581  -36.8924   22.2055 H   0  0  0  0  0  0
  -23.7249  -37.6501   23.6666 H   0  0  0  0  0  0
  -26.0652  -31.5538   20.5779 H   0  0  0  0  0  0
  -26.8442  -30.8649   21.9701 H   0  0  0  0  0  0
  -28.1192  -29.0049   21.1782 H   0  0  0  0  0  0
  -26.0204  -25.9157   19.0250 H   0  0  0  0  0  0
  -23.9737  -27.2845   19.0245 H   0  0  0  0  0  0
  -23.7468  -30.5815   19.3936 H   0  0  0  0  0  0
  -22.7536  -29.2339   19.8559 H   0  0  0  0  0  0
  -25.1301  -36.1883   25.0811 H   0  0  0  0  0  0
  -20.9982  -28.3269   24.1404 H   0  0  0  0  0  0
  -20.5679  -26.2311   23.3611 H   0  0  0  0  0  0
  -21.6648  -26.7458   22.1213 H   0  0  0  0  0  0
  -19.6928  -25.6318   21.1230 H   0  0  0  0  0  0
  -19.6706  -27.3215   20.6737 H   0  0  0  0  0  0
  -17.4213  -26.6697   21.3987 H   0  0  0  0  0  0
  -18.0317  -26.0103   22.8998 H   0  0  0  0  0  0
  -19.7939  -30.7287   24.2258 H   0  0  0  0  0  0
  -17.5018  -31.6264   24.5196 H   0  0  0  0  0  0
  -15.5358  -30.3011   23.7663 H   0  0  0  0  0  0
  -15.8655  -28.0862   22.7012 H   0  0  0  0  0  0
  -24.6021  -30.6945   25.7788 H   0  0  0  0  0  0
  -24.8889  -32.2878   26.4697 H   0  0  0  0  0  0
  -25.8166  -30.9038   27.0208 H   0  0  0  0  0  0
  -26.2824  -29.6763   24.1153 H   0  0  0  0  0  0
  -27.4166  -29.7230   25.4452 H   0  0  0  0  0  0
  -27.8644  -30.4299   23.9113 H   0  0  0  0  0  0
  -27.2668  -33.3612   26.1934 H   0  0  0  0  0  0
  -28.3919  -32.6810   25.0264 H   0  0  0  0  0  0
  -28.0694  -31.8439   26.5369 H   0  0  0  0  0  0
  -28.2595  -38.0081   24.7509 H   0  0  0  0  0  0
  -28.1052  -36.2620   24.6262 H   0  0  0  0  0  0
  -27.2304  -37.1405   25.8870 H   0  0  0  0  0  0
  -20.9320  -29.8787   21.6907 H   0  0  0  0  0  0
  -26.0143  -38.2840   24.1438 H   0  0  0  0  0  0
  -30.7223  -23.9749   21.1070 H   0  0  0  0  0  0
  -28.2614  -15.9936   22.0907 H   0  0  0  0  0  0
  -29.6897  -16.8759   22.6405 H   0  0  0  0  0  0
  -29.6320  -15.1606   22.8386 H   0  0  0  0  0  0
  -28.6788  -25.4597   21.8763 H   0  0  0  0  0  0
  -27.1096  -25.1459   21.2433 H   0  0  0  0  0  0
  -30.7361  -19.7910   19.2959 H   0  0  0  0  0  0
  -29.1401  -19.5334   18.6954 H   0  0  0  0  0  0
  -28.4710  -18.3697   20.7970 H   0  0  0  0  0  0
  -30.0168  -18.7467   21.5172 H   0  0  0  0  0  0
  -31.1970  -17.2376   19.8918 H   0  0  0  0  0  0
  -29.7161  -16.9097   19.0534 H   0  0  0  0  0  0
  1 25  1  0  0  0
  1 30  2  0  0  0
  1 82  1  0  0  0
  2  3  1  0  0  0
  2 25  1  0  0  0
  2 83  1  0  0  0
  2 84  1  0  0  0
  3  4  1  0  0  0
  3 85  1  0  0  0
  3 86  1  0  0  0
  4  5  1  0  0  0
  4 87  1  0  0  0
  4 88  1  0  0  0
  5  6  1  0  0  0
  5 26  1  0  0  0
  5 89  1  0  0  0
  6 25  1  0  0  0
  6 90  1  0  0  0
  6 91  1  0  0  0
  7  8  2  0  0  0
  7 26  1  0  0  0
  7 29  1  0  0  0
  8  9  1  0  0  0
  8 22  1  0  0  0
  9 10  1  0  0  0
  9 27  2  0  0  0
 10 11  2  0  0  0
 10 15  1  0  0  0
 11 12  1  0  0  0
 11 92  1  0  0  0
 12 13  2  0  0  0
 12 93  1  0  0  0
 13 14  1  0  0  0
 13 31  1  0  0  0
 14 15  2  0  0  0
 14 94  1  0  0  0
 15 95  1  0  0  0
 16 17  2  0  0  0
 16 21  1  0  0  0
 16 31  1  0  0  0
 17 18  1  0  0  0
 17 96  1  0  0  0
 18 19  2  0  0  0
 18 97  1  0  0  0
 19 20  1  0  0  0
 19 24  1  0  0  0
 20 21  2  0  0  0
 20 98  1  0  0  0
 21 23  1  0  0  0
 22 28  1  0  0  0
 22 32  2  0  0  0
 26 27  1  0  0  0
 28 99  1  0  0  0
 28100  1  0  0  0
 29101  1  0  0  0
 29102  1  0  0  0
 33 34  1  0  0  0
 33 66  1  0  0  0
 33 70  2  0  0  0
 34 36  1  0  0  0
 34 59  1  0  0  0
 34103  1  0  0  0
 35 44  2  0  0  0
 35 45  1  0  0  0
 35 68  1  0  0  0
 36 56  1  0  0  0
 36104  1  0  0  0
 37 39  1  0  0  0
 37 47  1  0  0  0
 37 66  1  0  0  0
 37105  1  0  0  0
 38 43  2  0  0  0
 38 46  1  0  0  0
 38 47  1  0  0  0
 39 64  1  0  0  0
 39 67  2  0  0  0
 40 52  1  0  0  0
 40 53  2  0  0  0
 40 58  1  0  0  0
 41106  1  0  0  0
 41107  1  0  0  0
 41108  1  0  0  0
 41 48  1  0  0  0
 42 43  1  0  0  0
 42 66  1  0  0  0
 42109  1  0  0  0
 42110  1  0  0  0
 43 44  1  0  0  0
 44111  1  0  0  0
 45 46  2  0  0  0
 45112  1  0  0  0
 46113  1  0  0  0
 47114  1  0  0  0
 47115  1  0  0  0
 48 56  1  0  0  0
 48 65  1  0  0  0
 48116  1  0  0  0
 49 50  1  0  0  0
 49 53  1  0  0  0
 49 64  1  0  0  0
 49117  1  0  0  0
 50 51  1  0  0  0
 50118  1  0  0  0
 50119  1  0  0  0
 51 52  1  0  0  0
 51120  1  0  0  0
 51121  1  0  0  0
 52122  1  0  0  0
 52123  1  0  0  0
 53 54  1  0  0  0
 54 55  2  0  0  0
 54124  1  0  0  0
 55 57  1  0  0  0
 55125  1  0  0  0
 56 69  2  0  0  0
 57 58  2  0  0  0
 57126  1  0  0  0
 58127  1  0  0  0
 59 60  1  0  0  0
 59 61  1  0  0  0
 59 62  1  0  0  0
 60128  1  0  0  0
 60129  1  0  0  0
 60130  1  0  0  0
 61131  1  0  0  0
 61132  1  0  0  0
 61133  1  0  0  0
 62134  1  0  0  0
 62135  1  0  0  0
 62136  1  0  0  0
 63 65  1  0  0  0
 63137  1  0  0  0
 63138  1  0  0  0
 63139  1  0  0  0
 64140  1  0  0  0
 65141  1  0  0  0
 68 75  1  0  0  0
 71 72  2  0  0  0
 71 79  1  0  0  0
 71142  1  0  0  0
 72 75  1  0  0  0
 72 80  1  0  0  0
 73 76  1  0  0  0
 73 79  2  0  0  0
 73 81  1  0  0  0
 74 82  1  0  0  0
 74143  1  0  0  0
 74144  1  0  0  0
 74145  1  0  0  0
 75146  1  0  0  0
 75147  1  0  0  0
 76 77  1  0  0  0
 76148  1  0  0  0
 76149  1  0  0  0
 77 78  1  0  0  0
 77150  1  0  0  0
 77151  1  0  0  0
 78 82  1  0  0  0
 78152  1  0  0  0
 78153  1  0  0  0
 80 81  2  0  0  0
M  ISO  4   1 100  68 101  75 101  82 100
M  END
> <chiral flag>
0

> <version>
0

> <s_m_source_file>
/data/baiqing/PycharmProjects/Reinvent-master-3.2/result/LINK_invent/BTK/process_docking_weight1_custom_sum_contain_oxygen_bond_distance_aromatic_linkinvent_7_9_3/rearranged_h_0061.sdf

> <i_m_source_file_index>
38

> <r_mmod_Potential_Energy-OPLS-2005>
240.882568359375

> <r_mmod_Stretch_Energy-OPLS-2005>
90.4655380249023

> <r_mmod_Bend_Energy-OPLS-2005>
150.875823974609

> <r_mmod_Torsional_Energy-OPLS-2005>
293.604156494141

> <r_mmod_Improper_Torsional_Energy-OPLS-2005>
11.4765243530273

> <r_mmod_Van_der_Waal_Energy-OPLS-2005>
154.000946044922

> <r_mmod_Electrostatic_Energy-OPLS-2005>
-280.701232910156

> <r_mmod_Solvation_Energy-OPLS-2005>
-224.016723632812

> <b_mmod_Minimization_Converged-OPLS-2005>
0

> <r_mmod_RMS_Derivative-OPLS-2005>
2.14997315406799

$$$$
40
                    3D
 Structure written by MMmdl.
153161  0  0  1  0            999 V2000
  -30.4987  -15.0819   20.3557 C   0  0  0  0  0  0
  -30.4461  -12.6747   19.4874 C   0  0  0  0  0  0
  -29.5260  -12.5021   18.2558 C   0  0  0  0  0  0
  -28.0610  -12.2857   18.6872 C   0  0  0  0  0  0
  -27.6160  -13.2467   19.8202 C   0  0  2  0  0  0
  -28.6656  -13.3618   20.9427 C   0  0  0  0  0  0
  -25.2460  -13.8199   20.5759 C   0  0  0  0  0  0
  -24.1764  -13.0433   20.9252 C   0  0  0  0  0  0
  -24.6373  -11.6918   20.8764 C   0  0  0  0  0  0
  -23.9061  -10.4294   21.0410 C   0  0  0  0  0  0
  -24.3620   -9.4209   21.9185 C   0  0  0  0  0  0
  -23.6301   -8.2238   22.0747 C   0  0  0  0  0  0
  -22.4281   -8.0277   21.3537 C   0  0  0  0  0  0
  -21.9915   -9.0249   20.4641 C   0  0  0  0  0  0
  -22.7234  -10.2133   20.3059 C   0  0  0  0  0  0
  -21.6859   -6.0740   22.5280 C   0  0  0  0  0  0
  -21.4012   -6.5639   23.8211 C   0  0  0  0  0  0
  -21.3660   -5.6789   24.9173 C   0  0  0  0  0  0
  -21.6049   -4.3054   24.7223 C   0  0  0  0  0  0
  -21.8815   -3.8150   23.4342 C   0  0  0  0  0  0
  -21.9193   -4.6969   22.3403 C   0  0  0  0  0  0
  -22.7790  -13.5214   21.1902 C   0  0  0  0  0  0
  -22.1664   -4.2160   21.0979 F   0  0  0  0  0  0
  -21.5635   -3.4533   25.7732 F   0  0  0  0  0  0
  -29.9115  -13.8063   20.3029 N   0  0  0  0  0  0
  -26.2848  -12.9407   20.3247 N   0  0  0  0  0  0
  -25.9302  -11.6543   20.5746 N   0  0  0  0  0  0
  -22.0432  -12.8198   22.0448 N   0  0  0  0  0  0
  -25.4184  -15.1929   20.4220 N   0  0  0  0  0  0
  -31.7346  -15.0998   20.2943 O   0  0  0  0  0  0
  -21.6640   -6.8878   21.4238 O   0  0  0  0  0  0
  -22.3481  -14.5518   20.6747 O   0  0  0  0  0  0
  -24.6511  -31.8369   23.1820 C   0  0  0  0  0  0
  -25.9247  -32.4655   23.8241 C   0  0  1  0  0  0
  -27.2169  -27.0585   20.1775 C   0  0  0  0  0  0
  -25.5966  -33.8464   24.2154 N   0  0  0  0  0  0
  -23.4595  -30.4530   21.5297 C   0  0  2  0  0  0
  -24.9104  -28.8589   20.1218 C   0  0  0  0  0  0
  -22.7611  -29.4512   22.4841 C   0  0  0  0  0  0
  -18.0314  -28.1401   22.8476 C   0  0  0  0  0  0
  -24.1492  -36.7237   23.2642 C   0  0  0  0  0  0
  -26.0212  -30.6855   21.3928 C   0  0  0  0  0  0
  -26.0922  -29.2861   20.7424 C   0  0  0  0  0  0
  -27.2496  -28.4060   20.7455 C   0  0  0  0  0  0
  -26.0081  -26.7458   19.5231 C   0  0  0  0  0  0
  -24.8844  -27.6035   19.4953 C   0  0  0  0  0  0
  -23.6928  -29.7738   20.1536 C   0  0  0  0  0  0
  -25.4124  -36.3006   24.0310 C   0  0  1  0  0  0
  -20.5932  -28.3734   23.1215 C   0  0  2  0  0  0
  -20.6796  -26.9427   22.5400 C   0  0  0  0  0  0
  -19.5767  -26.6381   21.5212 C   0  0  0  0  0  0
  -18.1950  -26.7937   22.1626 C   0  0  0  0  0  0
  -19.1572  -28.8887   23.2835 C   0  0  0  0  0  0
  -18.9486  -30.1481   23.8862 C   0  0  0  0  0  0
  -17.6480  -30.6590   24.0559 C   0  0  0  0  0  0
  -25.9084  -34.9384   23.5044 C   0  0  0  0  0  0
  -16.5372  -29.9082   23.6336 C   0  0  0  0  0  0
  -16.7298  -28.6504   23.0355 C   0  0  0  0  0  0
  -26.4540  -31.6551   25.0715 C   0  0  0  0  0  0
  -25.3703  -31.3762   26.1396 C   0  0  0  0  0  0
  -27.0418  -30.2937   24.6349 C   0  0  0  0  0  0
  -27.6054  -32.4339   25.7505 C   0  0  0  0  0  0
  -27.5577  -37.1764   24.8456 C   0  0  0  0  0  0
  -21.4296  -29.3049   22.3583 N   0  0  0  0  0  0
  -26.4275  -37.3733   23.9417 N   0  0  0  0  0  0
  -24.7311  -31.0155   22.0894 N   0  0  0  0  0  0
  -23.4214  -28.8068   23.3028 O   0  0  0  0  0  0
  -28.2514  -26.0314   20.1343 O   0  0  0  0  0  0
  -26.5678  -34.8897   22.4627 O   0  0  0  0  0  0
  -23.5611  -32.1285   23.6988 O   0  0  0  0  0  0
  -27.1143  -22.1835   20.2182 C   0  0  0  0  0  0
  -27.5002  -20.8508   20.1511 C   0  0  0  0  0  0
  -28.2625  -23.0203   20.4043 C   0  0  0  0  0  0
  -29.0114  -24.8302   22.1482 C   0  0  0  0  0  0
  -29.1652  -16.4095   18.7875 C   0  0  0  0  0  0
  -29.7094  -19.3313   20.0043 C   0  0  0  0  0  0
  -29.6331  -17.7837   20.7832 C   0  0  0  0  0  0
  -28.1543  -24.6466   20.8926 C   0  0  1  0  0  0
  -29.3216  -22.0704   20.4070 N   0  0  0  0  0  0
  -28.8717  -20.6914   20.2788 N   0  0  0  0  0  0
  -29.7312  -16.3020   20.1345 N   0  0  0  0  0  0
  -31.4676  -12.8691   19.1569 H   0  0  0  0  0  0
  -30.4888  -11.7575   20.0768 H   0  0  0  0  0  0
  -29.8623  -11.6580   17.6515 H   0  0  0  0  0  0
  -29.6001  -13.3783   17.6118 H   0  0  0  0  0  0
  -27.9790  -11.2555   19.0357 H   0  0  0  0  0  0
  -27.3941  -12.3712   17.8289 H   0  0  0  0  0  0
  -27.5355  -14.2232   19.3498 H   0  0  0  0  0  0
  -28.7963  -12.4146   21.4679 H   0  0  0  0  0  0
  -28.3470  -14.0948   21.6857 H   0  0  0  0  0  0
  -25.2761   -9.5694   22.4764 H   0  0  0  0  0  0
  -24.0017   -7.4629   22.7460 H   0  0  0  0  0  0
  -21.0851   -8.8763   19.8946 H   0  0  0  0  0  0
  -22.3684  -10.9675   19.6176 H   0  0  0  0  0  0
  -21.1993   -7.6144   23.9718 H   0  0  0  0  0  0
  -21.1492   -6.0519   25.9077 H   0  0  0  0  0  0
  -22.0595   -2.7615   23.2838 H   0  0  0  0  0  0
  -22.4053  -11.9872   22.4855 H   0  0  0  0  0  0
  -21.1045  -13.1211   22.2640 H   0  0  0  0  0  0
  -24.6604  -15.8536   20.5509 H   0  0  0  0  0  0
  -26.2842  -15.6339   20.1382 H   0  0  0  0  0  0
  -26.7317  -32.5240   23.0967 H   0  0  0  0  0  0
  -25.0076  -33.9571   25.0277 H   0  0  0  0  0  0
  -22.7664  -31.2806   21.3663 H   0  0  0  0  0  0
  -23.3765  -35.9555   23.3264 H   0  0  0  0  0  0
  -24.3582  -36.8919   22.2065 H   0  0  0  0  0  0
  -23.7237  -37.6414   23.6714 H   0  0  0  0  0  0
  -26.1840  -31.4316   20.6139 H   0  0  0  0  0  0
  -26.8886  -30.7422   22.0382 H   0  0  0  0  0  0
  -28.1570  -28.7361   21.2318 H   0  0  0  0  0  0
  -25.9195  -25.7836   19.0379 H   0  0  0  0  0  0
  -23.9844  -27.2709   18.9963 H   0  0  0  0  0  0
  -23.8418  -30.5443   19.3963 H   0  0  0  0  0  0
  -22.8053  -29.2225   19.8382 H   0  0  0  0  0  0
  -25.1311  -36.1813   25.0800 H   0  0  0  0  0  0
  -21.0023  -28.3328   24.1339 H   0  0  0  0  0  0
  -20.5690  -26.2348   23.3630 H   0  0  0  0  0  0
  -21.6660  -26.7424   22.1197 H   0  0  0  0  0  0
  -19.6928  -25.6285   21.1264 H   0  0  0  0  0  0
  -19.6701  -27.3170   20.6726 H   0  0  0  0  0  0
  -17.4218  -26.6678   21.4031 H   0  0  0  0  0  0
  -18.0348  -26.0083   22.9028 H   0  0  0  0  0  0
  -19.7960  -30.7308   24.2217 H   0  0  0  0  0  0
  -17.5031  -31.6267   24.5167 H   0  0  0  0  0  0
  -15.5372  -30.2971   23.7677 H   0  0  0  0  0  0
  -15.8702  -28.0812   22.7083 H   0  0  0  0  0  0
  -24.5882  -30.7114   25.7709 H   0  0  0  0  0  0
  -24.8892  -32.2953   26.4756 H   0  0  0  0  0  0
  -25.7968  -30.8972   27.0221 H   0  0  0  0  0  0
  -26.3057  -29.6643   24.1338 H   0  0  0  0  0  0
  -27.3986  -29.7258   25.4952 H   0  0  0  0  0  0
  -27.8984  -30.4155   23.9714 H   0  0  0  0  0  0
  -27.2629  -33.3659   26.2018 H   0  0  0  0  0  0
  -28.3895  -32.6881   25.0359 H   0  0  0  0  0  0
  -28.0692  -31.8516   26.5480 H   0  0  0  0  0  0
  -28.2545  -38.0108   24.7551 H   0  0  0  0  0  0
  -28.1126  -36.2639   24.6215 H   0  0  0  0  0  0
  -27.2305  -37.1323   25.8859 H   0  0  0  0  0  0
  -20.9526  -29.8756   21.6741 H   0  0  0  0  0  0
  -26.0130  -38.2786   24.1460 H   0  0  0  0  0  0
  -26.0874  -22.5206   20.1944 H   0  0  0  0  0  0
  -26.8800  -19.9772   20.0021 H   0  0  0  0  0  0
  -28.7893  -24.0608   22.8879 H   0  0  0  0  0  0
  -28.8341  -25.7994   22.6132 H   0  0  0  0  0  0
  -30.0714  -24.7633   21.9034 H   0  0  0  0  0  0
  -29.8293  -16.9916   18.1474 H   0  0  0  0  0  0
  -28.1933  -16.9038   18.8140 H   0  0  0  0  0  0
  -29.0269  -15.4522   18.2894 H   0  0  0  0  0  0
  -29.5293  -19.1367   18.9476 H   0  0  0  0  0  0
  -30.7594  -19.6253   20.0229 H   0  0  0  0  0  0
  -28.6751  -17.7698   21.3032 H   0  0  0  0  0  0
  -30.3660  -17.8032   21.5912 H   0  0  0  0  0  0
  -27.1325  -24.7084   21.2690 H   0  0  0  0  0  0
  1 25  1  0  0  0
  1 30  2  0  0  0
  1 81  1  0  0  0
  2  3  1  0  0  0
  2 25  1  0  0  0
  2 82  1  0  0  0
  2 83  1  0  0  0
  3  4  1  0  0  0
  3 84  1  0  0  0
  3 85  1  0  0  0
  4  5  1  0  0  0
  4 86  1  0  0  0
  4 87  1  0  0  0
  5  6  1  0  0  0
  5 26  1  0  0  0
  5 88  1  0  0  0
  6 25  1  0  0  0
  6 89  1  0  0  0
  6 90  1  0  0  0
  7  8  2  0  0  0
  7 26  1  0  0  0
  7 29  1  0  0  0
  8  9  1  0  0  0
  8 22  1  0  0  0
  9 10  1  0  0  0
  9 27  2  0  0  0
 10 11  2  0  0  0
 10 15  1  0  0  0
 11 12  1  0  0  0
 11 91  1  0  0  0
 12 13  2  0  0  0
 12 92  1  0  0  0
 13 14  1  0  0  0
 13 31  1  0  0  0
 14 15  2  0  0  0
 14 93  1  0  0  0
 15 94  1  0  0  0
 16 17  2  0  0  0
 16 21  1  0  0  0
 16 31  1  0  0  0
 17 18  1  0  0  0
 17 95  1  0  0  0
 18 19  2  0  0  0
 18 96  1  0  0  0
 19 20  1  0  0  0
 19 24  1  0  0  0
 20 21  2  0  0  0
 20 97  1  0  0  0
 21 23  1  0  0  0
 22 28  1  0  0  0
 22 32  2  0  0  0
 26 27  1  0  0  0
 28 98  1  0  0  0
 28 99  1  0  0  0
 29100  1  0  0  0
 29101  1  0  0  0
 33 34  1  0  0  0
 33 66  1  0  0  0
 33 70  2  0  0  0
 34 36  1  0  0  0
 34 59  1  0  0  0
 34102  1  0  0  0
 35 44  2  0  0  0
 35 45  1  0  0  0
 35 68  1  0  0  0
 36 56  1  0  0  0
 36103  1  0  0  0
 37 39  1  0  0  0
 37 47  1  0  0  0
 37 66  1  0  0  0
 37104  1  0  0  0
 38 43  2  0  0  0
 38 46  1  0  0  0
 38 47  1  0  0  0
 39 64  1  0  0  0
 39 67  2  0  0  0
 40 52  1  0  0  0
 40 53  2  0  0  0
 40 58  1  0  0  0
 41105  1  0  0  0
 41106  1  0  0  0
 41107  1  0  0  0
 41 48  1  0  0  0
 42 43  1  0  0  0
 42 66  1  0  0  0
 42108  1  0  0  0
 42109  1  0  0  0
 43 44  1  0  0  0
 44110  1  0  0  0
 45 46  2  0  0  0
 45111  1  0  0  0
 46112  1  0  0  0
 47113  1  0  0  0
 47114  1  0  0  0
 48 56  1  0  0  0
 48 65  1  0  0  0
 48115  1  0  0  0
 49 50  1  0  0  0
 49 53  1  0  0  0
 49 64  1  0  0  0
 49116  1  0  0  0
 50 51  1  0  0  0
 50117  1  0  0  0
 50118  1  0  0  0
 51 52  1  0  0  0
 51119  1  0  0  0
 51120  1  0  0  0
 52121  1  0  0  0
 52122  1  0  0  0
 53 54  1  0  0  0
 54 55  2  0  0  0
 54123  1  0  0  0
 55 57  1  0  0  0
 55124  1  0  0  0
 56 69  2  0  0  0
 57 58  2  0  0  0
 57125  1  0  0  0
 58126  1  0  0  0
 59 60  1  0  0  0
 59 61  1  0  0  0
 59 62  1  0  0  0
 60127  1  0  0  0
 60128  1  0  0  0
 60129  1  0  0  0
 61130  1  0  0  0
 61131  1  0  0  0
 61132  1  0  0  0
 62133  1  0  0  0
 62134  1  0  0  0
 62135  1  0  0  0
 63 65  1  0  0  0
 63136  1  0  0  0
 63137  1  0  0  0
 63138  1  0  0  0
 64139  1  0  0  0
 65140  1  0  0  0
 68 78  1  0  0  0
 71 72  2  0  0  0
 71 73  1  0  0  0
 71141  1  0  0  0
 72 80  1  0  0  0
 72142  1  0  0  0
 73 78  1  0  0  0
 73 79  2  0  0  0
 74143  1  0  0  0
 74144  1  0  0  0
 74145  1  0  0  0
 74 78  1  0  0  0
 75 81  1  0  0  0
 75146  1  0  0  0
 75147  1  0  0  0
 75148  1  0  0  0
 76 77  1  0  0  0
 76 80  1  0  0  0
 76149  1  0  0  0
 76150  1  0  0  0
 77 81  1  0  0  0
 77151  1  0  0  0
 77152  1  0  0  0
 78153  1  0  0  0
 79 80  1  0  0  0
M  ISO  4   1 100  68 101  78 101  81 100
M  END
> <chiral flag>
0

> <version>
0

> <s_m_source_file>
/data/baiqing/PycharmProjects/Reinvent-master-3.2/result/LINK_invent/BTK/process_docking_weight1_custom_sum_contain_oxygen_bond_distance_aromatic_linkinvent_7_9_3/rearranged_h_0061.sdf

> <i_m_source_file_index>
39

> <r_mmod_Potential_Energy-OPLS-2005>
992.335021972656

> <r_mmod_Stretch_Energy-OPLS-2005>
367.074340820312

> <r_mmod_Bend_Energy-OPLS-2005>
372.538269042969

> <r_mmod_Torsional_Energy-OPLS-2005>
362.894500732422

> <r_mmod_Improper_Torsional_Energy-OPLS-2005>
13.8381814956665

> <r_mmod_Van_der_Waal_Energy-OPLS-2005>
103.468635559082

> <r_mmod_Electrostatic_Energy-OPLS-2005>
-295.149749755859

> <r_mmod_Solvation_Energy-OPLS-2005>
-221.85237121582

> <b_mmod_Minimization_Converged-OPLS-2005>
0

> <r_mmod_RMS_Derivative-OPLS-2005>
1.10008955001831

$$$$
41
                    3D
 Structure written by MMmdl.
148156  0  0  1  0            999 V2000
  -30.4714  -15.2178   20.3767 C   0  0  0  0  0  0
  -30.4364  -12.7754   19.5235 C   0  0  0  0  0  0
  -29.5346  -12.5670   18.2818 C   0  0  0  0  0  0
  -28.0804  -12.3000   18.7071 C   0  0  0  0  0  0
  -27.6143  -13.2724   19.8197 C   0  0  2  0  0  0
  -28.6478  -13.4347   20.9556 C   0  0  0  0  0  0
  -25.2408  -13.8240   20.5714 C   0  0  0  0  0  0
  -24.1756  -13.0440   20.9248 C   0  0  0  0  0  0
  -24.6408  -11.6936   20.8767 C   0  0  0  0  0  0
  -23.9105  -10.4297   21.0414 C   0  0  0  0  0  0
  -24.3653   -9.4206   21.9190 C   0  0  0  0  0  0
  -23.6319   -8.2241   22.0756 C   0  0  0  0  0  0
  -22.4297   -8.0289   21.3551 C   0  0  0  0  0  0
  -21.9937   -9.0259   20.4649 C   0  0  0  0  0  0
  -22.7274  -10.2132   20.3064 C   0  0  0  0  0  0
  -21.6852   -6.0752   22.5288 C   0  0  0  0  0  0
  -21.4008   -6.5655   23.8225 C   0  0  0  0  0  0
  -21.3658   -5.6799   24.9179 C   0  0  0  0  0  0
  -21.6041   -4.3064   24.7222 C   0  0  0  0  0  0
  -21.8820   -3.8160   23.4344 C   0  0  0  0  0  0
  -21.9186   -4.6977   22.3402 C   0  0  0  0  0  0
  -22.7776  -13.5200   21.1895 C   0  0  0  0  0  0
  -22.1662   -4.2167   21.0978 F   0  0  0  0  0  0
  -21.5622   -3.4543   25.7737 F   0  0  0  0  0  0
  -29.8875  -13.9234   20.3336 N   0  0  0  0  0  0
  -26.2834  -12.9507   20.3182 N   0  0  0  0  0  0
  -25.9346  -11.6622   20.5711 N   0  0  0  0  0  0
  -22.0433  -12.8190   22.0443 N   0  0  0  0  0  0
  -25.4062  -15.1960   20.4137 N   0  0  0  0  0  0
  -31.6916  -15.1998   20.1655 O   0  0  0  0  0  0
  -21.6645   -6.8897   21.4255 O   0  0  0  0  0  0
  -22.3463  -14.5496   20.6718 O   0  0  0  0  0  0
  -24.6620  -31.8263   23.1721 C   0  0  0  0  0  0
  -25.9314  -32.4611   23.8180 C   0  0  1  0  0  0
  -27.2094  -26.9472   20.1816 C   0  0  0  0  0  0
  -25.5989  -33.8423   24.2090 N   0  0  0  0  0  0
  -23.4755  -30.4426   21.5198 C   0  0  2  0  0  0
  -24.9267  -28.8382   20.1101 C   0  0  0  0  0  0
  -22.7665  -29.4476   22.4763 C   0  0  0  0  0  0
  -18.0324  -28.1418   22.8475 C   0  0  0  0  0  0
  -24.1488  -36.7212   23.2645 C   0  0  0  0  0  0
  -26.0456  -30.6406   21.3992 C   0  0  0  0  0  0
  -26.1113  -29.2330   20.7447 C   0  0  0  0  0  0
  -27.2485  -28.3086   20.7584 C   0  0  0  0  0  0
  -25.9961  -26.7064   19.4953 C   0  0  0  0  0  0
  -24.8946  -27.5950   19.4650 C   0  0  0  0  0  0
  -23.7137  -29.7646   20.1438 C   0  0  0  0  0  0
  -25.4124  -36.2979   24.0314 C   0  0  1  0  0  0
  -20.5959  -28.3767   23.1180 C   0  0  2  0  0  0
  -20.6807  -26.9447   22.5393 C   0  0  0  0  0  0
  -19.5769  -26.6382   21.5219 C   0  0  0  0  0  0
  -18.1952  -26.7956   22.1625 C   0  0  0  0  0  0
  -19.1590  -28.8907   23.2820 C   0  0  0  0  0  0
  -18.9498  -30.1496   23.8862 C   0  0  0  0  0  0
  -17.6492  -30.6609   24.0554 C   0  0  0  0  0  0
  -25.9093  -34.9365   23.5013 C   0  0  0  0  0  0
  -16.5381  -29.9104   23.6340 C   0  0  0  0  0  0
  -16.7309  -28.6519   23.0372 C   0  0  0  0  0  0
  -26.4558  -31.6548   25.0703 C   0  0  0  0  0  0
  -25.3683  -31.3841   26.1358 C   0  0  0  0  0  0
  -27.0423  -30.2908   24.6440 C   0  0  0  0  0  0
  -27.6067  -32.4348   25.7485 C   0  0  0  0  0  0
  -27.5578  -37.1736   24.8448 C   0  0  0  0  0  0
  -21.4333  -29.3065   22.3525 N   0  0  0  0  0  0
  -26.4253  -37.3727   23.9448 N   0  0  0  0  0  0
  -24.7493  -30.9969   22.0835 N   0  0  0  0  0  0
  -23.4228  -28.8032   23.2985 O   0  0  0  0  0  0
  -28.1916  -25.8284   20.2647 O   0  0  0  0  0  0
  -26.5688  -34.8901   22.4606 O   0  0  0  0  0  0
  -23.5693  -32.1211   23.6816 O   0  0  0  0  0  0
  -27.9447  -21.4998   19.5071 C   0  0  0  0  0  0
  -29.9399  -20.8282   21.0765 C   0  0  0  0  0  0
  -28.5069  -22.6657   20.1942 C   0  0  0  0  0  0
  -29.3768  -19.6619   20.3742 C   0  0  0  0  0  0
  -30.7831  -18.1536   18.8081 C   0  0  0  0  0  0
  -27.7792  -24.2548   20.0833 C   0  0  0  0  0  0
  -30.1369  -18.0967   20.2034 C   0  0  2  0  0  0
  -29.5367  -22.2038   21.0186 N   0  0  0  0  0  0
  -28.3409  -20.1305   19.5696 N   0  0  0  0  0  0
  -29.7378  -16.5018   20.4422 N   0  0  0  0  0  0
  -31.4607  -12.9606   19.1985 H   0  0  0  0  0  0
  -30.4837  -11.8659   20.1237 H   0  0  0  0  0  0
  -29.9084  -11.7406   17.6758 H   0  0  0  0  0  0
  -29.5746  -13.4545   17.6488 H   0  0  0  0  0  0
  -28.0302  -11.2744   19.0748 H   0  0  0  0  0  0
  -27.4121  -12.3503   17.8460 H   0  0  0  0  0  0
  -27.5333  -14.2418   19.3266 H   0  0  0  0  0  0
  -28.8026  -12.4968   21.4908 H   0  0  0  0  0  0
  -28.2926  -14.1596   21.6901 H   0  0  0  0  0  0
  -25.2801   -9.5669   22.4762 H   0  0  0  0  0  0
  -24.0024   -7.4630   22.7479 H   0  0  0  0  0  0
  -21.0863   -8.8781   19.8960 H   0  0  0  0  0  0
  -22.3740  -10.9670   19.6171 H   0  0  0  0  0  0
  -21.2005   -7.6168   23.9729 H   0  0  0  0  0  0
  -21.1476   -6.0532   25.9081 H   0  0  0  0  0  0
  -22.0596   -2.7625   23.2830 H   0  0  0  0  0  0
  -22.4065  -11.9868   22.4848 H   0  0  0  0  0  0
  -21.1043  -13.1193   22.2639 H   0  0  0  0  0  0
  -24.6340  -15.8467   20.5122 H   0  0  0  0  0  0
  -26.2462  -15.6318   20.0554 H   0  0  0  0  0  0
  -26.7387  -32.5139   23.0900 H   0  0  0  0  0  0
  -25.0128  -33.9512   25.0239 H   0  0  0  0  0  0
  -22.7896  -31.2751   21.3518 H   0  0  0  0  0  0
  -23.3778  -35.9503   23.3214 H   0  0  0  0  0  0
  -24.3601  -36.8940   22.2077 H   0  0  0  0  0  0
  -23.7176  -37.6359   23.6740 H   0  0  0  0  0  0
  -26.2262  -31.3807   20.6186 H   0  0  0  0  0  0
  -26.9065  -30.6948   22.0540 H   0  0  0  0  0  0
  -28.1431  -28.6064   21.2867 H   0  0  0  0  0  0
  -25.8489  -25.7627   18.9939 H   0  0  0  0  0  0
  -23.9969  -27.2896   18.9452 H   0  0  0  0  0  0
  -23.8682  -30.5339   19.3857 H   0  0  0  0  0  0
  -22.8229  -29.2209   19.8251 H   0  0  0  0  0  0
  -25.1302  -36.1766   25.0797 H   0  0  0  0  0  0
  -21.0047  -28.3361   24.1306 H   0  0  0  0  0  0
  -20.5683  -26.2395   23.3644 H   0  0  0  0  0  0
  -21.6665  -26.7424   22.1189 H   0  0  0  0  0  0
  -19.6922  -25.6277   21.1288 H   0  0  0  0  0  0
  -19.6697  -27.3163   20.6729 H   0  0  0  0  0  0
  -17.4217  -26.6705   21.4031 H   0  0  0  0  0  0
  -18.0332  -26.0121   22.9035 H   0  0  0  0  0  0
  -19.7974  -30.7314   24.2223 H   0  0  0  0  0  0
  -17.5051  -31.6288   24.5154 H   0  0  0  0  0  0
  -15.5379  -30.2992   23.7696 H   0  0  0  0  0  0
  -15.8708  -28.0816   22.7127 H   0  0  0  0  0  0
  -24.5840  -30.7223   25.7675 H   0  0  0  0  0  0
  -24.8899  -32.3062   26.4670 H   0  0  0  0  0  0
  -25.7887  -30.9060   27.0215 H   0  0  0  0  0  0
  -26.3071  -29.6610   24.1424 H   0  0  0  0  0  0
  -27.3916  -29.7275   25.5108 H   0  0  0  0  0  0
  -27.9042  -30.4090   23.9874 H   0  0  0  0  0  0
  -27.2670  -33.3717   26.1926 H   0  0  0  0  0  0
  -28.3942  -32.6801   25.0343 H   0  0  0  0  0  0
  -28.0669  -31.8554   26.5509 H   0  0  0  0  0  0
  -28.2493  -38.0130   24.7612 H   0  0  0  0  0  0
  -28.1157  -36.2666   24.6084 H   0  0  0  0  0  0
  -27.2333  -37.1146   25.8850 H   0  0  0  0  0  0
  -20.9575  -29.8800   21.6695 H   0  0  0  0  0  0
  -26.0090  -38.2760   24.1541 H   0  0  0  0  0  0
  -27.0987  -21.6715   18.8567 H   0  0  0  0  0  0
  -30.8130  -20.6614   21.6919 H   0  0  0  0  0  0
  -31.3166  -19.0928   18.6599 H   0  0  0  0  0  0
  -30.0220  -18.0873   18.0305 H   0  0  0  0  0  0
  -31.5029  -17.3532   18.6403 H   0  0  0  0  0  0
  -26.8901  -24.1537   20.7052 H   0  0  0  0  0  0
  -27.3997  -24.2271   19.0631 H   0  0  0  0  0  0
  -30.9628  -18.1974   20.9088 H   0  0  0  0  0  0
  -28.7517  -16.3716   20.6112 H   0  0  0  0  0  0
  1 25  1  0  0  0
  1 30  2  0  0  0
  1 80  1  0  0  0
  2  3  1  0  0  0
  2 25  1  0  0  0
  2 81  1  0  0  0
  2 82  1  0  0  0
  3  4  1  0  0  0
  3 83  1  0  0  0
  3 84  1  0  0  0
  4  5  1  0  0  0
  4 85  1  0  0  0
  4 86  1  0  0  0
  5  6  1  0  0  0
  5 26  1  0  0  0
  5 87  1  0  0  0
  6 25  1  0  0  0
  6 88  1  0  0  0
  6 89  1  0  0  0
  7  8  2  0  0  0
  7 26  1  0  0  0
  7 29  1  0  0  0
  8  9  1  0  0  0
  8 22  1  0  0  0
  9 10  1  0  0  0
  9 27  2  0  0  0
 10 11  2  0  0  0
 10 15  1  0  0  0
 11 12  1  0  0  0
 11 90  1  0  0  0
 12 13  2  0  0  0
 12 91  1  0  0  0
 13 14  1  0  0  0
 13 31  1  0  0  0
 14 15  2  0  0  0
 14 92  1  0  0  0
 15 93  1  0  0  0
 16 17  2  0  0  0
 16 21  1  0  0  0
 16 31  1  0  0  0
 17 18  1  0  0  0
 17 94  1  0  0  0
 18 19  2  0  0  0
 18 95  1  0  0  0
 19 20  1  0  0  0
 19 24  1  0  0  0
 20 21  2  0  0  0
 20 96  1  0  0  0
 21 23  1  0  0  0
 22 28  1  0  0  0
 22 32  2  0  0  0
 26 27  1  0  0  0
 28 97  1  0  0  0
 28 98  1  0  0  0
 29 99  1  0  0  0
 29100  1  0  0  0
 33 34  1  0  0  0
 33 66  1  0  0  0
 33 70  2  0  0  0
 34 36  1  0  0  0
 34 59  1  0  0  0
 34101  1  0  0  0
 35 44  2  0  0  0
 35 45  1  0  0  0
 35 68  1  0  0  0
 36 56  1  0  0  0
 36102  1  0  0  0
 37 39  1  0  0  0
 37 47  1  0  0  0
 37 66  1  0  0  0
 37103  1  0  0  0
 38 43  2  0  0  0
 38 46  1  0  0  0
 38 47  1  0  0  0
 39 64  1  0  0  0
 39 67  2  0  0  0
 40 52  1  0  0  0
 40 53  2  0  0  0
 40 58  1  0  0  0
 41104  1  0  0  0
 41105  1  0  0  0
 41106  1  0  0  0
 41 48  1  0  0  0
 42 43  1  0  0  0
 42 66  1  0  0  0
 42107  1  0  0  0
 42108  1  0  0  0
 43 44  1  0  0  0
 44109  1  0  0  0
 45 46  2  0  0  0
 45110  1  0  0  0
 46111  1  0  0  0
 47112  1  0  0  0
 47113  1  0  0  0
 48 56  1  0  0  0
 48 65  1  0  0  0
 48114  1  0  0  0
 49 50  1  0  0  0
 49 53  1  0  0  0
 49 64  1  0  0  0
 49115  1  0  0  0
 50 51  1  0  0  0
 50116  1  0  0  0
 50117  1  0  0  0
 51 52  1  0  0  0
 51118  1  0  0  0
 51119  1  0  0  0
 52120  1  0  0  0
 52121  1  0  0  0
 53 54  1  0  0  0
 54 55  2  0  0  0
 54122  1  0  0  0
 55 57  1  0  0  0
 55123  1  0  0  0
 56 69  2  0  0  0
 57 58  2  0  0  0
 57124  1  0  0  0
 58125  1  0  0  0
 59 60  1  0  0  0
 59 61  1  0  0  0
 59 62  1  0  0  0
 60126  1  0  0  0
 60127  1  0  0  0
 60128  1  0  0  0
 61129  1  0  0  0
 61130  1  0  0  0
 61131  1  0  0  0
 62132  1  0  0  0
 62133  1  0  0  0
 62134  1  0  0  0
 63 65  1  0  0  0
 63135  1  0  0  0
 63136  1  0  0  0
 63137  1  0  0  0
 64138  1  0  0  0
 65139  1  0  0  0
 68 76  1  0  0  0
 71 73  2  0  0  0
 71 79  1  0  0  0
 71140  1  0  0  0
 72 74  1  0  0  0
 72 78  2  0  0  0
 72141  1  0  0  0
 73 76  1  0  0  0
 73 78  1  0  0  0
 74 77  1  0  0  0
 74 79  2  0  0  0
 75142  1  0  0  0
 75143  1  0  0  0
 75144  1  0  0  0
 75 77  1  0  0  0
 76145  1  0  0  0
 76146  1  0  0  0
 77 80  1  0  0  0
 77147  1  0  0  0
 80148  1  0  0  0
M  ISO  4   1 100  68 101  76 101  80 100
M  END
> <chiral flag>
0

> <version>
0

> <s_m_source_file>
/data/baiqing/PycharmProjects/Reinvent-master-3.2/result/LINK_invent/BTK/process_docking_weight1_custom_sum_contain_oxygen_bond_distance_aromatic_linkinvent_7_9_3/rearranged_h_0061.sdf

> <i_m_source_file_index>
40

> <r_mmod_Potential_Energy-OPLS-2005>
1181.44128417969

> <r_mmod_Stretch_Energy-OPLS-2005>
500.701019287109

> <r_mmod_Bend_Energy-OPLS-2005>
444.829254150391

> <r_mmod_Torsional_Energy-OPLS-2005>
206.243377685547

> <r_mmod_Improper_Torsional_Energy-OPLS-2005>
7.70886373519897

> <r_mmod_Van_der_Waal_Energy-OPLS-2005>
135.286590576172

> <r_mmod_Electrostatic_Energy-OPLS-2005>
-301.779327392578

> <r_mmod_Solvation_Energy-OPLS-2005>
-232.690002441406

> <b_mmod_Minimization_Converged-OPLS-2005>
0

> <r_mmod_RMS_Derivative-OPLS-2005>
1.96933960914612

$$$$
42
                    3D
 Structure written by MMmdl.
178186  0  0  1  0            999 V2000
  -30.8196  -14.3262   20.7578 C   0  0  0  0  0  0
  -30.3936  -12.2839   19.4288 C   0  0  0  0  0  0
  -29.4825  -12.5238   18.2112 C   0  0  0  0  0  0
  -28.0117  -12.3433   18.6145 C   0  0  0  0  0  0
  -27.6496  -13.2028   19.8473 C   0  0  2  0  0  0
  -28.6675  -13.0226   20.9873 C   0  0  0  0  0  0
  -25.2528  -13.8147   20.5615 C   0  0  0  0  0  0
  -24.1803  -13.0437   20.9174 C   0  0  0  0  0  0
  -24.6344  -11.6895   20.8722 C   0  0  0  0  0  0
  -23.9037  -10.4292   21.0432 C   0  0  0  0  0  0
  -24.3587   -9.4204   21.9205 C   0  0  0  0  0  0
  -23.6266   -8.2241   22.0763 C   0  0  0  0  0  0
  -22.4256   -8.0271   21.3554 C   0  0  0  0  0  0
  -21.9901   -9.0249   20.4656 C   0  0  0  0  0  0
  -22.7218  -10.2126   20.3075 C   0  0  0  0  0  0
  -21.6849   -6.0736   22.5278 C   0  0  0  0  0  0
  -21.4015   -6.5643   23.8201 C   0  0  0  0  0  0
  -21.3670   -5.6800   24.9168 C   0  0  0  0  0  0
  -21.6028   -4.3062   24.7224 C   0  0  0  0  0  0
  -21.8819   -3.8149   23.4351 C   0  0  0  0  0  0
  -21.9184   -4.6967   22.3399 C   0  0  0  0  0  0
  -22.7831  -13.5219   21.1863 C   0  0  0  0  0  0
  -22.1652   -4.2146   21.0984 F   0  0  0  0  0  0
  -21.5633   -3.4544   25.7742 F   0  0  0  0  0  0
  -30.0379  -13.2418   20.4951 N   0  0  0  0  0  0
  -26.2929  -12.9310   20.3168 N   0  0  0  0  0  0
  -25.9246  -11.6484   20.5669 N   0  0  0  0  0  0
  -22.0496  -12.8222   22.0436 N   0  0  0  0  0  0
  -25.4278  -15.1884   20.4080 N   0  0  0  0  0  0
  -31.7547  -14.6264   20.0038 O   0  0  0  0  0  0
  -21.6631   -6.8867   21.4230 O   0  0  0  0  0  0
  -22.3522  -14.5536   20.6707 O   0  0  0  0  0  0
  -24.6096  -31.8729   23.2172 C   0  0  0  0  0  0
  -25.9013  -32.4855   23.8453 C   0  0  1  0  0  0
  -27.2280  -27.4711   20.0709 C   0  0  0  0  0  0
  -25.5879  -33.8652   24.2370 N   0  0  0  0  0  0
  -23.3933  -30.4991   21.5578 C   0  0  2  0  0  0
  -24.8315  -28.9669   20.1158 C   0  0  0  0  0  0
  -22.7369  -29.4689   22.5035 C   0  0  0  0  0  0
  -18.0259  -28.1377   22.8507 C   0  0  0  0  0  0
  -24.1480  -36.7330   23.2635 C   0  0  0  0  0  0
  -25.9189  -30.8440   21.3639 C   0  0  0  0  0  0
  -25.9895  -29.4796   20.7127 C   0  0  0  0  0  0
  -27.1842  -28.7346   20.6950 C   0  0  0  0  0  0
  -26.0470  -26.9602   19.4787 C   0  0  0  0  0  0
  -24.8521  -27.7031   19.5018 C   0  0  0  0  0  0
  -23.5978  -29.8378   20.1693 C   0  0  0  0  0  0
  -25.4100  -36.3139   24.0347 C   0  0  1  0  0  0
  -20.5848  -28.3653   23.1337 C   0  0  2  0  0  0
  -20.6741  -26.9396   22.5420 C   0  0  0  0  0  0
  -19.5720  -26.6382   21.5211 C   0  0  0  0  0  0
  -18.1901  -26.7916   22.1636 C   0  0  0  0  0  0
  -19.1509  -28.8825   23.2918 C   0  0  0  0  0  0
  -18.9442  -30.1429   23.8928 C   0  0  0  0  0  0
  -17.6448  -30.6579   24.0562 C   0  0  0  0  0  0
  -25.9022  -34.9495   23.5154 C   0  0  0  0  0  0
  -16.5340  -29.9090   23.6323 C   0  0  0  0  0  0
  -16.7244  -28.6506   23.0344 C   0  0  0  0  0  0
  -26.4484  -31.6638   25.0760 C   0  0  0  0  0  0
  -25.3782  -31.3714   26.1531 C   0  0  0  0  0  0
  -27.0392  -30.3115   24.6119 C   0  0  0  0  0  0
  -27.6060  -32.4402   25.7493 C   0  0  0  0  0  0
  -27.5594  -37.1803   24.8464 C   0  0  0  0  0  0
  -21.4113  -29.3034   22.3761 N   0  0  0  0  0  0
  -26.4303  -37.3807   23.9407 N   0  0  0  0  0  0
  -24.6593  -31.0866   22.1060 N   0  0  0  0  0  0
  -23.4153  -28.8216   23.3052 O   0  0  0  0  0  0
  -28.4303  -26.8059   20.0710 O   0  0  0  0  0  0
  -26.5586  -34.8928   22.4719 O   0  0  0  0  0  0
  -23.5298  -32.1481   23.7585 O   0  0  0  0  0  0
  -29.8135  -21.1952   21.2067 C   0  0  0  0  0  0
  -32.0510  -20.4324   21.4028 C   0  0  0  0  0  0
  -31.1810  -21.4966   21.1335 C   0  0  0  0  0  0
  -30.2788  -18.9868   21.6391 C   0  0  0  0  0  0
  -29.5340  -13.9346   23.9618 C   0  0  0  0  0  0
  -31.9480  -13.5049   23.3603 C   0  0  0  0  0  0
  -28.5562  -17.1567   21.2020 C   0  0  0  0  0  0
  -29.3796  -17.6214   23.5359 C   0  0  0  0  0  0
  -30.2953  -23.8390   17.4400 C   0  0  0  0  0  0
  -31.7323  -22.8957   20.8733 C   0  0  0  0  0  0
  -30.9097  -16.5169   21.8020 C   0  0  0  0  0  0
  -31.7022  -23.3779   19.3980 C   0  0  0  0  0  0
  -30.0281  -25.1863   19.4966 C   0  0  0  0  0  0
  -28.5669  -25.6203   19.2998 C   0  0  0  0  0  0
  -30.7836  -14.5146   23.2657 C   0  0  0  0  0  0
  -29.7774  -17.5736   22.0486 C   0  0  0  0  0  0
  -29.3718  -19.9455   21.4482 N   0  0  0  0  0  0
  -31.5920  -19.2021   21.6726 N   0  0  0  0  0  0
  -30.5634  -15.0628   21.8863 N   0  0  0  0  0  0
  -30.3741  -23.8540   18.9230 N   0  3  1  0  0  0
  -31.4436  -12.3521   19.1371 H   0  0  0  0  0  0
  -30.2613  -11.2670   19.8060 H   0  0  0  0  0  0
  -29.7385  -11.8379   17.4020 H   0  0  0  0  0  0
  -29.6407  -13.5314   17.8232 H   0  0  0  0  0  0
  -27.8504  -11.2858   18.8360 H   0  0  0  0  0  0
  -27.3541  -12.5866   17.7788 H   0  0  0  0  0  0
  -27.6909  -14.2453   19.5266 H   0  0  0  0  0  0
  -28.5884  -12.0321   21.4380 H   0  0  0  0  0  0
  -28.3797  -13.7413   21.7474 H   0  0  0  0  0  0
  -25.2742   -9.5674   22.4757 H   0  0  0  0  0  0
  -23.9973   -7.4641   22.7485 H   0  0  0  0  0  0
  -21.0841   -8.8766   19.8961 H   0  0  0  0  0  0
  -22.3700  -10.9655   19.6168 H   0  0  0  0  0  0
  -21.2009   -7.6152   23.9702 H   0  0  0  0  0  0
  -21.1495   -6.0540   25.9067 H   0  0  0  0  0  0
  -22.0589   -2.7614   23.2861 H   0  0  0  0  0  0
  -22.4112  -11.9842   22.4767 H   0  0  0  0  0  0
  -21.1114  -13.1256   22.2638 H   0  0  0  0  0  0
  -24.6675  -15.8466   20.5314 H   0  0  0  0  0  0
  -26.2805  -15.6313   20.0946 H   0  0  0  0  0  0
  -26.7069  -32.5580   23.1206 H   0  0  0  0  0  0
  -25.0042  -33.9818   25.0524 H   0  0  0  0  0  0
  -22.6798  -31.3160   21.4250 H   0  0  0  0  0  0
  -23.3742  -35.9662   23.3309 H   0  0  0  0  0  0
  -24.3570  -36.8914   22.2046 H   0  0  0  0  0  0
  -23.7217  -37.6535   23.6626 H   0  0  0  0  0  0
  -26.0297  -31.6115   20.5967 H   0  0  0  0  0  0
  -26.8072  -30.8939   21.9828 H   0  0  0  0  0  0
  -28.0787  -29.1360   21.1498 H   0  0  0  0  0  0
  -26.0218  -25.9993   18.9910 H   0  0  0  0  0  0
  -23.9571  -27.3020   19.0424 H   0  0  0  0  0  0
  -23.7138  -30.6208   19.4180 H   0  0  0  0  0  0
  -22.7169  -29.2680   19.8682 H   0  0  0  0  0  0
  -25.1260  -36.2032   25.0840 H   0  0  0  0  0  0
  -20.9923  -28.3187   24.1461 H   0  0  0  0  0  0
  -20.5639  -26.2263   23.3607 H   0  0  0  0  0  0
  -21.6612  -26.7437   22.1214 H   0  0  0  0  0  0
  -19.6879  -25.6303   21.1212 H   0  0  0  0  0  0
  -19.6640  -27.3212   20.6758 H   0  0  0  0  0  0
  -17.4171  -26.6678   21.4030 H   0  0  0  0  0  0
  -18.0287  -26.0045   22.9028 H   0  0  0  0  0  0
  -19.7916  -30.7228   24.2311 H   0  0  0  0  0  0
  -17.5008  -31.6257   24.5175 H   0  0  0  0  0  0
  -15.5344  -30.3005   23.7614 H   0  0  0  0  0  0
  -15.8647  -28.0826   22.7046 H   0  0  0  0  0  0
  -24.5885  -30.7149   25.7879 H   0  0  0  0  0  0
  -24.9069  -32.2883   26.5097 H   0  0  0  0  0  0
  -25.8155  -30.8803   27.0240 H   0  0  0  0  0  0
  -26.2989  -29.6757   24.1264 H   0  0  0  0  0  0
  -27.8666  -30.4531   23.9154 H   0  0  0  0  0  0
  -27.4355  -29.7446   25.4555 H   0  0  0  0  0  0
  -27.2655  -33.3696   26.2090 H   0  0  0  0  0  0
  -28.3813  -32.7013   25.0283 H   0  0  0  0  0  0
  -28.0769  -31.8559   26.5392 H   0  0  0  0  0  0
  -28.2640  -38.0080   24.7510 H   0  0  0  0  0  0
  -28.1065  -36.2619   24.6298 H   0  0  0  0  0  0
  -27.2309  -37.1462   25.8866 H   0  0  0  0  0  0
  -20.9260  -29.8771   21.7016 H   0  0  0  0  0  0
  -26.0210  -38.2893   24.1414 H   0  0  0  0  0  0
  -29.0642  -21.9610   21.0737 H   0  0  0  0  0  0
  -33.1235  -20.5645   21.4212 H   0  0  0  0  0  0
  -29.6883  -13.8645   25.0403 H   0  0  0  0  0  0
  -29.2978  -12.9277   23.6196 H   0  0  0  0  0  0
  -28.6455  -14.5450   23.8235 H   0  0  0  0  0  0
  -31.7530  -12.6041   22.7769 H   0  0  0  0  0  0
  -32.8839  -13.9410   23.0087 H   0  0  0  0  0  0
  -32.1027  -13.1863   24.3932 H   0  0  0  0  0  0
  -27.7384  -17.8705   21.3016 H   0  0  0  0  0  0
  -28.1649  -16.1914   21.5221 H   0  0  0  0  0  0
  -28.8096  -17.0888   20.1433 H   0  0  0  0  0  0
  -28.6418  -18.4065   23.7104 H   0  0  0  0  0  0
  -30.2376  -17.8316   24.1758 H   0  0  0  0  0  0
  -28.9296  -16.6890   23.8610 H   0  0  0  0  0  0
  -30.5149  -22.8462   17.0420 H   0  0  0  0  0  0
  -31.0003  -24.5411   16.9945 H   0  0  0  0  0  0
  -29.3015  -24.1109   17.0873 H   0  0  0  0  0  0
  -31.2409  -23.5913   21.5501 H   0  0  0  0  0  0
  -32.7748  -22.8991   21.1930 H   0  0  0  0  0  0
  -31.7671  -16.7335   22.4388 H   0  0  0  0  0  0
  -31.2827  -16.7591   20.8062 H   0  0  0  0  0  0
  -32.0816  -22.5784   18.7603 H   0  0  0  0  0  0
  -32.4071  -24.2003   19.2705 H   0  0  0  0  0  0
  -30.2063  -25.1789   20.5703 H   0  0  0  0  0  0
  -30.6943  -25.9492   19.0896 H   0  0  0  0  0  0
  -27.8808  -24.8469   19.6551 H   0  0  0  0  0  0
  -28.3508  -25.8363   18.2515 H   0  0  0  0  0  0
  -31.0711  -15.3450   23.9120 H   0  0  0  0  0  0
  -29.6957  -23.1812   19.2420 H   0  0  0  0  0  0
  1 25  1  0  0  0
  1 30  2  0  0  0
  1 89  1  0  0  0
  2  3  1  0  0  0
  2 25  1  0  0  0
  2 91  1  0  0  0
  2 92  1  0  0  0
  3  4  1  0  0  0
  3 93  1  0  0  0
  3 94  1  0  0  0
  4  5  1  0  0  0
  4 95  1  0  0  0
  4 96  1  0  0  0
  5  6  1  0  0  0
  5 26  1  0  0  0
  5 97  1  0  0  0
  6 25  1  0  0  0
  6 98  1  0  0  0
  6 99  1  0  0  0
  7  8  2  0  0  0
  7 26  1  0  0  0
  7 29  1  0  0  0
  8  9  1  0  0  0
  8 22  1  0  0  0
  9 10  1  0  0  0
  9 27  2  0  0  0
 10 11  2  0  0  0
 10 15  1  0  0  0
 11 12  1  0  0  0
 11100  1  0  0  0
 12 13  2  0  0  0
 12101  1  0  0  0
 13 14  1  0  0  0
 13 31  1  0  0  0
 14 15  2  0  0  0
 14102  1  0  0  0
 15103  1  0  0  0
 16 17  2  0  0  0
 16 21  1  0  0  0
 16 31  1  0  0  0
 17 18  1  0  0  0
 17104  1  0  0  0
 18 19  2  0  0  0
 18105  1  0  0  0
 19 20  1  0  0  0
 19 24  1  0  0  0
 20 21  2  0  0  0
 20106  1  0  0  0
 21 23  1  0  0  0
 22 28  1  0  0  0
 22 32  2  0  0  0
 26 27  1  0  0  0
 28107  1  0  0  0
 28108  1  0  0  0
 29109  1  0  0  0
 29110  1  0  0  0
 33 34  1  0  0  0
 33 66  1  0  0  0
 33 70  2  0  0  0
 34 36  1  0  0  0
 34 59  1  0  0  0
 34111  1  0  0  0
 35 44  2  0  0  0
 35 45  1  0  0  0
 35 68  1  0  0  0
 36 56  1  0  0  0
 36112  1  0  0  0
 37 39  1  0  0  0
 37 47  1  0  0  0
 37 66  1  0  0  0
 37113  1  0  0  0
 38 43  2  0  0  0
 38 46  1  0  0  0
 38 47  1  0  0  0
 39 64  1  0  0  0
 39 67  2  0  0  0
 40 52  1  0  0  0
 40 53  2  0  0  0
 40 58  1  0  0  0
 41114  1  0  0  0
 41115  1  0  0  0
 41116  1  0  0  0
 41 48  1  0  0  0
 42 43  1  0  0  0
 42 66  1  0  0  0
 42117  1  0  0  0
 42118  1  0  0  0
 43 44  1  0  0  0
 44119  1  0  0  0
 45 46  2  0  0  0
 45120  1  0  0  0
 46121  1  0  0  0
 47122  1  0  0  0
 47123  1  0  0  0
 48 56  1  0  0  0
 48 65  1  0  0  0
 48124  1  0  0  0
 49 50  1  0  0  0
 49 53  1  0  0  0
 49 64  1  0  0  0
 49125  1  0  0  0
 50 51  1  0  0  0
 50126  1  0  0  0
 50127  1  0  0  0
 51 52  1  0  0  0
 51128  1  0  0  0
 51129  1  0  0  0
 52130  1  0  0  0
 52131  1  0  0  0
 53 54  1  0  0  0
 54 55  2  0  0  0
 54132  1  0  0  0
 55 57  1  0  0  0
 55133  1  0  0  0
 56 69  2  0  0  0
 57 58  2  0  0  0
 57134  1  0  0  0
 58135  1  0  0  0
 59 60  1  0  0  0
 59 61  1  0  0  0
 59 62  1  0  0  0
 60136  1  0  0  0
 60137  1  0  0  0
 60138  1  0  0  0
 61139  1  0  0  0
 61140  1  0  0  0
 61141  1  0  0  0
 62142  1  0  0  0
 62143  1  0  0  0
 62144  1  0  0  0
 63 65  1  0  0  0
 63145  1  0  0  0
 63146  1  0  0  0
 63147  1  0  0  0
 64148  1  0  0  0
 65149  1  0  0  0
 68 84  1  0  0  0
 71 73  2  0  0  0
 71 87  1  0  0  0
 71150  1  0  0  0
 72 73  1  0  0  0
 72 88  2  0  0  0
 72151  1  0  0  0
 73 80  1  0  0  0
 74 86  1  0  0  0
 74 87  2  0  0  0
 74 88  1  0  0  0
 75152  1  0  0  0
 75153  1  0  0  0
 75154  1  0  0  0
 75 85  1  0  0  0
 76 85  1  0  0  0
 76155  1  0  0  0
 76156  1  0  0  0
 76157  1  0  0  0
 77158  1  0  0  0
 77159  1  0  0  0
 77160  1  0  0  0
 77 86  1  0  0  0
 78 86  1  0  0  0
 78161  1  0  0  0
 78162  1  0  0  0
 78163  1  0  0  0
 79164  1  0  0  0
 79165  1  0  0  0
 79166  1  0  0  0
 79 90  1  0  0  0
 80 82  1  0  0  0
 80167  1  0  0  0
 80168  1  0  0  0
 81 86  1  0  0  0
 81 89  1  0  0  0
 81169  1  0  0  0
 81170  1  0  0  0
 82 90  1  0  0  0
 82171  1  0  0  0
 82172  1  0  0  0
 83 84  1  0  0  0
 83 90  1  0  0  0
 83173  1  0  0  0
 83174  1  0  0  0
 84175  1  0  0  0
 84176  1  0  0  0
 85 89  1  0  0  0
 85177  1  0  0  0
 90178  1  0  0  0
M  CHG  1  90   1
M  ISO  4   1 100  68 101  84 101  89 100
M  END
> <chiral flag>
0

> <version>
0

> <s_m_source_file>
/data/baiqing/PycharmProjects/Reinvent-master-3.2/result/LINK_invent/BTK/process_docking_weight1_custom_sum_contain_oxygen_bond_distance_aromatic_linkinvent_7_9_3/rearranged_h_0061.sdf

> <i_m_source_file_index>
41

> <r_mmod_Potential_Energy-OPLS-2005>
-327.777923583984

> <r_mmod_Stretch_Energy-OPLS-2005>
46.8031311035156

> <r_mmod_Bend_Energy-OPLS-2005>
135.230758666992

> <r_mmod_Torsional_Energy-OPLS-2005>
294.322448730469

> <r_mmod_Improper_Torsional_Energy-OPLS-2005>
5.8539867401123

> <r_mmod_Van_der_Waal_Energy-OPLS-2005>
186.065444946289

> <r_mmod_Electrostatic_Energy-OPLS-2005>
-587.718933105469

> <r_mmod_Solvation_Energy-OPLS-2005>
-419.641693115234

> <b_mmod_Minimization_Converged-OPLS-2005>
0

> <r_mmod_RMS_Derivative-OPLS-2005>
4.05537033081055

$$$$
43
                    3D
 Structure written by MMmdl.
158166  0  0  1  0            999 V2000
  -30.7312  -14.4454   20.6512 C   0  0  0  0  0  0
  -30.4208  -12.3163   19.4233 C   0  0  0  0  0  0
  -29.4956  -12.5412   18.2112 C   0  0  0  0  0  0
  -28.0183  -12.3804   18.6194 C   0  0  0  0  0  0
  -27.6663  -13.2067   19.8850 C   0  0  2  0  0  0
  -28.7030  -12.9640   21.0026 C   0  0  0  0  0  0
  -25.2598  -13.8162   20.5676 C   0  0  0  0  0  0
  -24.1840  -13.0433   20.9145 C   0  0  0  0  0  0
  -24.6398  -11.6900   20.8719 C   0  0  0  0  0  0
  -23.9055  -10.4284   21.0385 C   0  0  0  0  0  0
  -24.3615   -9.4201   21.9164 C   0  0  0  0  0  0
  -23.6298   -8.2232   22.0740 C   0  0  0  0  0  0
  -22.4277   -8.0268   21.3533 C   0  0  0  0  0  0
  -21.9906   -9.0232   20.4625 C   0  0  0  0  0  0
  -22.7226  -10.2116   20.3030 C   0  0  0  0  0  0
  -21.6859   -6.0724   22.5273 C   0  0  0  0  0  0
  -21.4028   -6.5636   23.8207 C   0  0  0  0  0  0
  -21.3659   -5.6786   24.9167 C   0  0  0  0  0  0
  -21.6050   -4.3049   24.7225 C   0  0  0  0  0  0
  -21.8821   -3.8132   23.4347 C   0  0  0  0  0  0
  -21.9194   -4.6949   22.3401 C   0  0  0  0  0  0
  -22.7862  -13.5229   21.1803 C   0  0  0  0  0  0
  -22.1655   -4.2131   21.0977 F   0  0  0  0  0  0
  -21.5626   -3.4532   25.7739 F   0  0  0  0  0  0
  -30.0401  -13.2807   20.4701 N   0  0  0  0  0  0
  -26.3047  -12.9336   20.3396 N   0  0  0  0  0  0
  -25.9335  -11.6491   20.5783 N   0  0  0  0  0  0
  -22.0510  -12.8230   22.0372 N   0  0  0  0  0  0
  -25.4340  -15.1876   20.4084 N   0  0  0  0  0  0
  -31.7722  -14.6953   20.0340 O   0  0  0  0  0  0
  -21.6648   -6.8863   21.4234 O   0  0  0  0  0  0
  -22.3548  -14.5525   20.6634 O   0  0  0  0  0  0
  -24.6149  -31.8675   23.2117 C   0  0  0  0  0  0
  -25.9049  -32.4811   23.8411 C   0  0  1  0  0  0
  -27.2421  -27.4337   20.1017 C   0  0  0  0  0  0
  -25.5927  -33.8620   24.2327 N   0  0  0  0  0  0
  -23.4024  -30.4895   21.5505 C   0  0  2  0  0  0
  -24.8535  -28.9530   20.1201 C   0  0  0  0  0  0
  -22.7411  -29.4650   22.5001 C   0  0  0  0  0  0
  -18.0271  -28.1368   22.8493 C   0  0  0  0  0  0
  -24.1489  -36.7307   23.2636 C   0  0  0  0  0  0
  -25.9324  -30.8313   21.3671 C   0  0  0  0  0  0
  -26.0107  -29.4622   20.7225 C   0  0  0  0  0  0
  -27.2079  -28.7091   20.7188 C   0  0  0  0  0  0
  -26.0714  -26.9444   19.4906 C   0  0  0  0  0  0
  -24.8772  -27.6890   19.5059 C   0  0  0  0  0  0
  -23.6132  -29.8171   20.1663 C   0  0  0  0  0  0
  -25.4115  -36.3102   24.0320 C   0  0  1  0  0  0
  -20.5867  -28.3648   23.1329 C   0  0  2  0  0  0
  -20.6774  -26.9386   22.5423 C   0  0  0  0  0  0
  -19.5748  -26.6380   21.5218 C   0  0  0  0  0  0
  -18.1919  -26.7923   22.1625 C   0  0  0  0  0  0
  -19.1523  -28.8827   23.2906 C   0  0  0  0  0  0
  -18.9454  -30.1439   23.8905 C   0  0  0  0  0  0
  -17.6458  -30.6583   24.0558 C   0  0  0  0  0  0
  -25.9046  -34.9468   23.5116 C   0  0  0  0  0  0
  -16.5345  -29.9078   23.6330 C   0  0  0  0  0  0
  -16.7262  -28.6491   23.0357 C   0  0  0  0  0  0
  -26.4485  -31.6591   25.0736 C   0  0  0  0  0  0
  -25.3753  -31.3704   26.1486 C   0  0  0  0  0  0
  -27.0316  -30.3032   24.6107 C   0  0  0  0  0  0
  -27.6062  -32.4321   25.7487 C   0  0  0  0  0  0
  -27.5577  -37.1803   24.8459 C   0  0  0  0  0  0
  -21.4144  -29.3010   22.3734 N   0  0  0  0  0  0
  -26.4291  -37.3795   23.9402 N   0  0  0  0  0  0
  -24.6672  -31.0784   22.1007 N   0  0  0  0  0  0
  -23.4188  -28.8200   23.3053 O   0  0  0  0  0  0
  -28.3709  -26.6449   20.0069 O   0  0  0  0  0  0
  -26.5596  -34.8925   22.4664 O   0  0  0  0  0  0
  -23.5346  -32.1415   23.7516 O   0  0  0  0  0  0
  -28.4616  -22.8420   22.6107 C   0  0  0  0  0  0
  -29.1294  -23.4116   20.4043 C   0  0  0  0  0  0
  -28.7216  -23.8532   21.6743 C   0  0  0  0  0  0
  -28.9633  -21.2247   21.0780 C   0  0  0  0  0  0
  -30.1924  -15.2019   22.8946 C   0  0  0  0  0  0
  -28.5542  -25.3211   22.0935 C   0  0  0  0  0  0
  -28.7141  -17.4564   21.2037 C   0  0  0  0  0  0
  -30.1248  -16.8251   21.0607 C   0  0  0  0  0  0
  -29.1447  -26.4261   21.1854 C   0  0  0  0  0  0
  -28.6773  -18.9223   21.7038 C   0  0  0  0  0  0
  -28.5827  -21.5383   22.3114 N   0  0  0  0  0  0
  -29.2511  -22.0948   20.1149 N   0  0  0  0  0  0
  -30.1424  -15.3893   21.4369 N   0  0  0  0  0  0
  -29.0714  -19.9099   20.7353 O   0  0  0  0  0  0
  -31.4676  -12.4086   19.1283 H   0  0  0  0  0  0
  -30.3111  -11.2988   19.8019 H   0  0  0  0  0  0
  -29.7445  -11.8472   17.4076 H   0  0  0  0  0  0
  -29.6545  -13.5447   17.8138 H   0  0  0  0  0  0
  -27.8333  -11.3221   18.8035 H   0  0  0  0  0  0
  -27.3654  -12.6644   17.7937 H   0  0  0  0  0  0
  -27.7206  -14.2603   19.6089 H   0  0  0  0  0  0
  -28.6797  -11.9192   21.3173 H   0  0  0  0  0  0
  -28.4381  -13.5355   21.8895 H   0  0  0  0  0  0
  -25.2763   -9.5688   22.4736 H   0  0  0  0  0  0
  -24.0000   -7.4641   22.7485 H   0  0  0  0  0  0
  -21.0823   -8.8745   19.8956 H   0  0  0  0  0  0
  -22.3670  -10.9646   19.6134 H   0  0  0  0  0  0
  -21.2032   -7.6147   23.9709 H   0  0  0  0  0  0
  -21.1481   -6.0516   25.9072 H   0  0  0  0  0  0
  -22.0606   -2.7593   23.2855 H   0  0  0  0  0  0
  -22.4148  -11.9902   22.4765 H   0  0  0  0  0  0
  -21.1122  -13.1240   22.2571 H   0  0  0  0  0  0
  -24.6740  -15.8499   20.5190 H   0  0  0  0  0  0
  -26.2973  -15.6187   20.1040 H   0  0  0  0  0  0
  -26.7114  -32.5513   23.1175 H   0  0  0  0  0  0
  -25.0117  -33.9794   25.0500 H   0  0  0  0  0  0
  -22.6894  -31.3037   21.4065 H   0  0  0  0  0  0
  -23.3749  -35.9642   23.3316 H   0  0  0  0  0  0
  -24.3572  -36.8916   22.2047 H   0  0  0  0  0  0
  -23.7251  -37.6520   23.6646 H   0  0  0  0  0  0
  -26.0481  -31.5955   20.5964 H   0  0  0  0  0  0
  -26.8197  -30.8860   21.9865 H   0  0  0  0  0  0
  -28.0974  -29.1224   21.1687 H   0  0  0  0  0  0
  -26.0823  -25.9771   19.0077 H   0  0  0  0  0  0
  -23.9869  -27.2867   19.0429 H   0  0  0  0  0  0
  -23.7165  -30.5873   19.4011 H   0  0  0  0  0  0
  -22.7393  -29.2309   19.8764 H   0  0  0  0  0  0
  -25.1295  -36.1956   25.0811 H   0  0  0  0  0  0
  -20.9941  -28.3191   24.1457 H   0  0  0  0  0  0
  -20.5691  -26.2237   23.3601 H   0  0  0  0  0  0
  -21.6638  -26.7446   22.1190 H   0  0  0  0  0  0
  -19.6911  -25.6295   21.1225 H   0  0  0  0  0  0
  -19.6693  -27.3211   20.6764 H   0  0  0  0  0  0
  -17.4201  -26.6681   21.4013 H   0  0  0  0  0  0
  -18.0296  -26.0052   22.9007 H   0  0  0  0  0  0
  -19.7929  -30.7247   24.2271 H   0  0  0  0  0  0
  -17.5017  -31.6262   24.5154 H   0  0  0  0  0  0
  -15.5348  -30.2989   23.7657 H   0  0  0  0  0  0
  -15.8657  -28.0813   22.7088 H   0  0  0  0  0  0
  -24.5924  -30.7042   25.7845 H   0  0  0  0  0  0
  -24.8947  -32.2867   26.4931 H   0  0  0  0  0  0
  -25.8122  -30.8890   27.0241 H   0  0  0  0  0  0
  -26.2847  -29.6788   24.1184 H   0  0  0  0  0  0
  -27.4119  -29.7277   25.4558 H   0  0  0  0  0  0
  -27.8677  -30.4365   23.9230 H   0  0  0  0  0  0
  -27.2683  -33.3632   26.2044 H   0  0  0  0  0  0
  -28.3885  -32.6858   25.0322 H   0  0  0  0  0  0
  -28.0705  -31.8451   26.5419 H   0  0  0  0  0  0
  -28.2596  -38.0105   24.7528 H   0  0  0  0  0  0
  -28.1070  -36.2637   24.6257 H   0  0  0  0  0  0
  -27.2288  -37.1425   25.8861 H   0  0  0  0  0  0
  -20.9303  -29.8711   21.6942 H   0  0  0  0  0  0
  -26.0170  -38.2857   24.1446 H   0  0  0  0  0  0
  -28.1505  -23.0766   23.6185 H   0  0  0  0  0  0
  -29.3677  -24.1046   19.6113 H   0  0  0  0  0  0
  -30.6531  -14.2548   23.1818 H   0  0  0  0  0  0
  -29.1861  -15.2198   23.3116 H   0  0  0  0  0  0
  -30.7605  -15.9903   23.3905 H   0  0  0  0  0  0
  -29.0205  -25.4245   23.0747 H   0  0  0  0  0  0
  -27.4931  -25.5139   22.2568 H   0  0  0  0  0  0
  -28.1426  -16.8797   21.9327 H   0  0  0  0  0  0
  -28.1598  -17.3636   20.2681 H   0  0  0  0  0  0
  -30.8536  -17.3768   21.6561 H   0  0  0  0  0  0
  -30.4499  -16.9563   20.0270 H   0  0  0  0  0  0
  -30.1631  -26.1655   20.8926 H   0  0  0  0  0  0
  -29.2384  -27.3468   21.7582 H   0  0  0  0  0  0
  -29.2928  -19.0068   22.6002 H   0  0  0  0  0  0
  -27.6508  -19.1335   22.0136 H   0  0  0  0  0  0
  1 25  1  0  0  0
  1 30  2  0  0  0
  1 83  1  0  0  0
  2  3  1  0  0  0
  2 25  1  0  0  0
  2 85  1  0  0  0
  2 86  1  0  0  0
  3  4  1  0  0  0
  3 87  1  0  0  0
  3 88  1  0  0  0
  4  5  1  0  0  0
  4 89  1  0  0  0
  4 90  1  0  0  0
  5  6  1  0  0  0
  5 26  1  0  0  0
  5 91  1  0  0  0
  6 25  1  0  0  0
  6 92  1  0  0  0
  6 93  1  0  0  0
  7  8  2  0  0  0
  7 26  1  0  0  0
  7 29  1  0  0  0
  8  9  1  0  0  0
  8 22  1  0  0  0
  9 10  1  0  0  0
  9 27  2  0  0  0
 10 11  2  0  0  0
 10 15  1  0  0  0
 11 12  1  0  0  0
 11 94  1  0  0  0
 12 13  2  0  0  0
 12 95  1  0  0  0
 13 14  1  0  0  0
 13 31  1  0  0  0
 14 15  2  0  0  0
 14 96  1  0  0  0
 15 97  1  0  0  0
 16 17  2  0  0  0
 16 21  1  0  0  0
 16 31  1  0  0  0
 17 18  1  0  0  0
 17 98  1  0  0  0
 18 19  2  0  0  0
 18 99  1  0  0  0
 19 20  1  0  0  0
 19 24  1  0  0  0
 20 21  2  0  0  0
 20100  1  0  0  0
 21 23  1  0  0  0
 22 28  1  0  0  0
 22 32  2  0  0  0
 26 27  1  0  0  0
 28101  1  0  0  0
 28102  1  0  0  0
 29103  1  0  0  0
 29104  1  0  0  0
 33 34  1  0  0  0
 33 66  1  0  0  0
 33 70  2  0  0  0
 34 36  1  0  0  0
 34 59  1  0  0  0
 34105  1  0  0  0
 35 44  2  0  0  0
 35 45  1  0  0  0
 35 68  1  0  0  0
 36 56  1  0  0  0
 36106  1  0  0  0
 37 39  1  0  0  0
 37 47  1  0  0  0
 37 66  1  0  0  0
 37107  1  0  0  0
 38 43  2  0  0  0
 38 46  1  0  0  0
 38 47  1  0  0  0
 39 64  1  0  0  0
 39 67  2  0  0  0
 40 52  1  0  0  0
 40 53  2  0  0  0
 40 58  1  0  0  0
 41108  1  0  0  0
 41109  1  0  0  0
 41110  1  0  0  0
 41 48  1  0  0  0
 42 43  1  0  0  0
 42 66  1  0  0  0
 42111  1  0  0  0
 42112  1  0  0  0
 43 44  1  0  0  0
 44113  1  0  0  0
 45 46  2  0  0  0
 45114  1  0  0  0
 46115  1  0  0  0
 47116  1  0  0  0
 47117  1  0  0  0
 48 56  1  0  0  0
 48 65  1  0  0  0
 48118  1  0  0  0
 49 50  1  0  0  0
 49 53  1  0  0  0
 49 64  1  0  0  0
 49119  1  0  0  0
 50 51  1  0  0  0
 50120  1  0  0  0
 50121  1  0  0  0
 51 52  1  0  0  0
 51122  1  0  0  0
 51123  1  0  0  0
 52124  1  0  0  0
 52125  1  0  0  0
 53 54  1  0  0  0
 54 55  2  0  0  0
 54126  1  0  0  0
 55 57  1  0  0  0
 55127  1  0  0  0
 56 69  2  0  0  0
 57 58  2  0  0  0
 57128  1  0  0  0
 58129  1  0  0  0
 59 60  1  0  0  0
 59 61  1  0  0  0
 59 62  1  0  0  0
 60130  1  0  0  0
 60131  1  0  0  0
 60132  1  0  0  0
 61133  1  0  0  0
 61134  1  0  0  0
 61135  1  0  0  0
 62136  1  0  0  0
 62137  1  0  0  0
 62138  1  0  0  0
 63 65  1  0  0  0
 63139  1  0  0  0
 63140  1  0  0  0
 63141  1  0  0  0
 64142  1  0  0  0
 65143  1  0  0  0
 68 79  1  0  0  0
 71 73  2  0  0  0
 71 81  1  0  0  0
 71144  1  0  0  0
 72 73  1  0  0  0
 72 82  2  0  0  0
 72145  1  0  0  0
 73 76  1  0  0  0
 74 81  2  0  0  0
 74 82  1  0  0  0
 74 84  1  0  0  0
 75 83  1  0  0  0
 75146  1  0  0  0
 75147  1  0  0  0
 75148  1  0  0  0
 76 79  1  0  0  0
 76149  1  0  0  0
 76150  1  0  0  0
 77 78  1  0  0  0
 77 80  1  0  0  0
 77151  1  0  0  0
 77152  1  0  0  0
 78 83  1  0  0  0
 78153  1  0  0  0
 78154  1  0  0  0
 79155  1  0  0  0
 79156  1  0  0  0
 80 84  1  0  0  0
 80157  1  0  0  0
 80158  1  0  0  0
M  ISO  4   1 100  68 101  79 101  83 100
M  END
> <chiral flag>
0

> <version>
0

> <s_m_source_file>
/data/baiqing/PycharmProjects/Reinvent-master-3.2/result/LINK_invent/BTK/process_docking_weight1_custom_sum_contain_oxygen_bond_distance_aromatic_linkinvent_7_9_3/rearranged_h_0061.sdf

> <i_m_source_file_index>
42

> <r_mmod_Potential_Energy-OPLS-2005>
-352.373168945312

> <r_mmod_Stretch_Energy-OPLS-2005>
40.4074440002441

> <r_mmod_Bend_Energy-OPLS-2005>
115.366653442383

> <r_mmod_Torsional_Energy-OPLS-2005>
281.683441162109

> <r_mmod_Improper_Torsional_Energy-OPLS-2005>
5.67698049545288

> <r_mmod_Van_der_Waal_Energy-OPLS-2005>
168.49462890625

> <r_mmod_Electrostatic_Energy-OPLS-2005>
-760.962646484375

> <r_mmod_Solvation_Energy-OPLS-2005>
-212.889038085938

> <b_mmod_Minimization_Converged-OPLS-2005>
0

> <r_mmod_RMS_Derivative-OPLS-2005>
2.378990650177

$$$$
44
                    3D
 Structure written by MMmdl.
151159  0  0  1  0            999 V2000
  -30.5735  -14.8770   20.4380 C   0  0  0  0  0  0
  -30.4399  -12.5419   19.4896 C   0  0  0  0  0  0
  -29.5187  -12.5167   18.2483 C   0  0  0  0  0  0
  -28.0500  -12.3151   18.6671 C   0  0  0  0  0  0
  -27.6353  -13.2417   19.8402 C   0  0  2  0  0  0
  -28.6784  -13.2405   20.9787 C   0  0  0  0  0  0
  -25.2480  -13.8211   20.5695 C   0  0  0  0  0  0
  -24.1792  -13.0442   20.9220 C   0  0  0  0  0  0
  -24.6398  -11.6922   20.8752 C   0  0  0  0  0  0
  -23.9075  -10.4298   21.0414 C   0  0  0  0  0  0
  -24.3627   -9.4211   21.9189 C   0  0  0  0  0  0
  -23.6297   -8.2246   22.0759 C   0  0  0  0  0  0
  -22.4278   -8.0290   21.3546 C   0  0  0  0  0  0
  -21.9916   -9.0268   20.4653 C   0  0  0  0  0  0
  -22.7249  -10.2142   20.3061 C   0  0  0  0  0  0
  -21.6852   -6.0744   22.5282 C   0  0  0  0  0  0
  -21.4018   -6.5643   23.8223 C   0  0  0  0  0  0
  -21.3654   -5.6790   24.9179 C   0  0  0  0  0  0
  -21.6045   -4.3055   24.7227 C   0  0  0  0  0  0
  -21.8813   -3.8152   23.4343 C   0  0  0  0  0  0
  -21.9194   -4.6970   22.3402 C   0  0  0  0  0  0
  -22.7810  -13.5224   21.1879 C   0  0  0  0  0  0
  -22.1658   -4.2153   21.0980 F   0  0  0  0  0  0
  -21.5625   -3.4540   25.7737 F   0  0  0  0  0  0
  -29.9642  -13.6305   20.3855 N   0  0  0  0  0  0
  -26.2909  -12.9438   20.3236 N   0  0  0  0  0  0
  -25.9332  -11.6572   20.5738 N   0  0  0  0  0  0
  -22.0442  -12.8229   22.0431 N   0  0  0  0  0  0
  -25.4125  -15.1940   20.4086 N   0  0  0  0  0  0
  -31.7701  -14.9503   20.1463 O   0  0  0  0  0  0
  -21.6636   -6.8890   21.4246 O   0  0  0  0  0  0
  -22.3495  -14.5525   20.6712 O   0  0  0  0  0  0
  -24.6422  -31.8486   23.1939 C   0  0  0  0  0  0
  -25.9207  -32.4713   23.8307 C   0  0  1  0  0  0
  -27.2055  -27.1586   20.1436 C   0  0  0  0  0  0
  -25.5976  -33.8523   24.2231 N   0  0  0  0  0  0
  -23.4435  -30.4741   21.5385 C   0  0  2  0  0  0
  -24.8916  -28.9137   20.1094 C   0  0  0  0  0  0
  -22.7558  -29.4591   22.4861 C   0  0  0  0  0  0
  -18.0310  -28.1394   22.8485 C   0  0  0  0  0  0
  -24.1490  -36.7260   23.2644 C   0  0  0  0  0  0
  -26.0005  -30.7275   21.3939 C   0  0  0  0  0  0
  -26.0697  -29.3424   20.7347 C   0  0  0  0  0  0
  -27.2293  -28.4801   20.7414 C   0  0  0  0  0  0
  -26.0115  -26.8509   19.4503 C   0  0  0  0  0  0
  -24.8747  -27.6792   19.4519 C   0  0  0  0  0  0
  -23.6687  -29.8127   20.1553 C   0  0  0  0  0  0
  -25.4122  -36.3046   24.0323 C   0  0  1  0  0  0
  -20.5921  -28.3731   23.1230 C   0  0  2  0  0  0
  -20.6796  -26.9438   22.5389 C   0  0  0  0  0  0
  -19.5763  -26.6388   21.5208 C   0  0  0  0  0  0
  -18.1948  -26.7934   22.1630 C   0  0  0  0  0  0
  -19.1564  -28.8879   23.2854 C   0  0  0  0  0  0
  -18.9486  -30.1473   23.8880 C   0  0  0  0  0  0
  -17.6485  -30.6593   24.0562 C   0  0  0  0  0  0
  -25.9078  -34.9420   23.5078 C   0  0  0  0  0  0
  -16.5374  -29.9085   23.6335 C   0  0  0  0  0  0
  -16.7294  -28.6499   23.0358 C   0  0  0  0  0  0
  -26.4534  -31.6554   25.0726 C   0  0  0  0  0  0
  -25.3726  -31.3721   26.1417 C   0  0  0  0  0  0
  -27.0405  -30.2957   24.6287 C   0  0  0  0  0  0
  -27.6065  -32.4314   25.7513 C   0  0  0  0  0  0
  -27.5574  -37.1790   24.8470 C   0  0  0  0  0  0
  -21.4254  -29.3075   22.3609 N   0  0  0  0  0  0
  -26.4284  -37.3757   23.9412 N   0  0  0  0  0  0
  -24.7147  -31.0375   22.0964 N   0  0  0  0  0  0
  -23.4211  -28.8132   23.3000 O   0  0  0  0  0  0
  -28.2268  -26.1429   20.2117 O   0  0  0  0  0  0
  -26.5646  -34.8904   22.4647 O   0  0  0  0  0  0
  -23.5546  -32.1347   23.7173 O   0  0  0  0  0  0
  -28.5743  -22.3813   21.5679 C   0  0  0  0  0  0
  -28.9288  -22.5015   19.2882 C   0  0  0  0  0  0
  -28.5506  -23.2532   20.4385 C   0  0  0  0  0  0
  -29.1514  -20.3840   20.3980 C   0  0  0  0  0  0
  -27.7535  -24.6881   20.4499 C   0  0  0  0  0  0
  -29.0353  -18.7453   20.2859 C   0  0  0  0  0  0
  -30.1697  -17.5747   20.6293 C   0  0  1  0  0  0
  -30.8185  -17.9211   21.9839 C   0  0  0  0  0  0
  -28.8458  -21.0229   21.5433 N   0  0  0  0  0  0
  -29.2144  -21.1402   19.2789 N   0  0  0  0  0  0
  -29.7987  -16.0409   20.6068 N   0  0  0  0  0  0
  -29.8943  -17.8813   22.9435 F   0  0  0  0  0  0
  -31.7834  -17.0586   22.2983 F   0  0  0  0  0  0
  -31.3594  -19.1376   21.9490 F   0  0  0  0  0  0
  -31.4766  -12.6869   19.1805 H   0  0  0  0  0  0
  -30.4168  -11.5824   20.0078 H   0  0  0  0  0  0
  -29.8258  -11.7245   17.5636 H   0  0  0  0  0  0
  -29.6179  -13.4526   17.6973 H   0  0  0  0  0  0
  -27.9372  -11.2727   18.9658 H   0  0  0  0  0  0
  -27.3865  -12.4596   17.8139 H   0  0  0  0  0  0
  -27.6097  -14.2490   19.4230 H   0  0  0  0  0  0
  -28.7450  -12.2563   21.4461 H   0  0  0  0  0  0
  -28.3897  -13.9379   21.7667 H   0  0  0  0  0  0
  -25.2774   -9.5683   22.4764 H   0  0  0  0  0  0
  -24.0002   -7.4635   22.7474 H   0  0  0  0  0  0
  -21.0851   -8.8796   19.8958 H   0  0  0  0  0  0
  -22.3717  -10.9683   19.6170 H   0  0  0  0  0  0
  -21.2012   -7.6152   23.9728 H   0  0  0  0  0  0
  -21.1474   -6.0521   25.9083 H   0  0  0  0  0  0
  -22.0594   -2.7612   23.2845 H   0  0  0  0  0  0
  -22.4054  -11.9909   22.4860 H   0  0  0  0  0  0
  -21.1054  -13.1254   22.2603 H   0  0  0  0  0  0
  -24.6327  -15.8359   20.5068 H   0  0  0  0  0  0
  -26.2385  -15.6317   20.0232 H   0  0  0  0  0  0
  -26.7279  -32.5328   23.1045 H   0  0  0  0  0  0
  -25.0115  -33.9651   25.0371 H   0  0  0  0  0  0
  -22.7452  -31.2999   21.3899 H   0  0  0  0  0  0
  -23.3755  -35.9588   23.3297 H   0  0  0  0  0  0
  -24.3581  -36.8890   22.2060 H   0  0  0  0  0  0
  -23.7231  -37.6452   23.6673 H   0  0  0  0  0  0
  -26.1579  -31.4828   20.6227 H   0  0  0  0  0  0
  -26.8718  -30.7745   22.0349 H   0  0  0  0  0  0
  -28.1219  -28.7997   21.2608 H   0  0  0  0  0  0
  -25.9106  -25.9370   18.8877 H   0  0  0  0  0  0
  -23.9832  -27.3545   18.9324 H   0  0  0  0  0  0
  -23.8060  -30.5903   19.4033 H   0  0  0  0  0  0
  -22.7830  -29.2565   19.8420 H   0  0  0  0  0  0
  -25.1305  -36.1884   25.0813 H   0  0  0  0  0  0
  -21.0024  -28.3317   24.1348 H   0  0  0  0  0  0
  -20.5694  -26.2354   23.3611 H   0  0  0  0  0  0
  -21.6664  -26.7450   22.1190 H   0  0  0  0  0  0
  -19.6925  -25.6294   21.1252 H   0  0  0  0  0  0
  -19.6682  -27.3184   20.6725 H   0  0  0  0  0  0
  -17.4214  -26.6679   21.4033 H   0  0  0  0  0  0
  -18.0356  -26.0075   22.9030 H   0  0  0  0  0  0
  -19.7959  -30.7291   24.2241 H   0  0  0  0  0  0
  -17.5034  -31.6269   24.5168 H   0  0  0  0  0  0
  -15.5368  -30.2982   23.7664 H   0  0  0  0  0  0
  -15.8696  -28.0807   22.7085 H   0  0  0  0  0  0
  -24.5922  -30.7055   25.7728 H   0  0  0  0  0  0
  -24.8900  -32.2897   26.4789 H   0  0  0  0  0  0
  -25.8020  -30.8930   27.0223 H   0  0  0  0  0  0
  -26.3027  -29.6685   24.1275 H   0  0  0  0  0  0
  -27.4005  -29.7244   25.4852 H   0  0  0  0  0  0
  -27.8938  -30.4200   23.9617 H   0  0  0  0  0  0
  -27.2654  -33.3620   26.2056 H   0  0  0  0  0  0
  -28.3897  -32.6865   25.0363 H   0  0  0  0  0  0
  -28.0708  -31.8463   26.5459 H   0  0  0  0  0  0
  -28.2595  -38.0085   24.7513 H   0  0  0  0  0  0
  -28.1067  -36.2614   24.6301 H   0  0  0  0  0  0
  -27.2297  -37.1448   25.8875 H   0  0  0  0  0  0
  -20.9456  -29.8809   21.6814 H   0  0  0  0  0  0
  -26.0153  -38.2826   24.1403 H   0  0  0  0  0  0
  -28.2437  -22.7539   22.5261 H   0  0  0  0  0  0
  -28.8902  -22.9682   18.3154 H   0  0  0  0  0  0
  -27.2576  -24.7256   21.4213 H   0  0  0  0  0  0
  -26.9552  -24.4591   19.7528 H   0  0  0  0  0  0
  -28.7023  -18.5489   19.2673 H   0  0  0  0  0  0
  -28.1686  -18.5022   20.8995 H   0  0  0  0  0  0
  -30.9512  -17.6911   19.8779 H   0  0  0  0  0  0
  -28.8272  -15.8549   20.7944 H   0  0  0  0  0  0
  1 25  1  0  0  0
  1 30  2  0  0  0
  1 81  1  0  0  0
  2  3  1  0  0  0
  2 25  1  0  0  0
  2 85  1  0  0  0
  2 86  1  0  0  0
  3  4  1  0  0  0
  3 87  1  0  0  0
  3 88  1  0  0  0
  4  5  1  0  0  0
  4 89  1  0  0  0
  4 90  1  0  0  0
  5  6  1  0  0  0
  5 26  1  0  0  0
  5 91  1  0  0  0
  6 25  1  0  0  0
  6 92  1  0  0  0
  6 93  1  0  0  0
  7  8  2  0  0  0
  7 26  1  0  0  0
  7 29  1  0  0  0
  8  9  1  0  0  0
  8 22  1  0  0  0
  9 10  1  0  0  0
  9 27  2  0  0  0
 10 11  2  0  0  0
 10 15  1  0  0  0
 11 12  1  0  0  0
 11 94  1  0  0  0
 12 13  2  0  0  0
 12 95  1  0  0  0
 13 14  1  0  0  0
 13 31  1  0  0  0
 14 15  2  0  0  0
 14 96  1  0  0  0
 15 97  1  0  0  0
 16 17  2  0  0  0
 16 21  1  0  0  0
 16 31  1  0  0  0
 17 18  1  0  0  0
 17 98  1  0  0  0
 18 19  2  0  0  0
 18 99  1  0  0  0
 19 20  1  0  0  0
 19 24  1  0  0  0
 20 21  2  0  0  0
 20100  1  0  0  0
 21 23  1  0  0  0
 22 28  1  0  0  0
 22 32  2  0  0  0
 26 27  1  0  0  0
 28101  1  0  0  0
 28102  1  0  0  0
 29103  1  0  0  0
 29104  1  0  0  0
 33 34  1  0  0  0
 33 66  1  0  0  0
 33 70  2  0  0  0
 34 36  1  0  0  0
 34 59  1  0  0  0
 34105  1  0  0  0
 35 44  2  0  0  0
 35 45  1  0  0  0
 35 68  1  0  0  0
 36 56  1  0  0  0
 36106  1  0  0  0
 37 39  1  0  0  0
 37 47  1  0  0  0
 37 66  1  0  0  0
 37107  1  0  0  0
 38 43  2  0  0  0
 38 46  1  0  0  0
 38 47  1  0  0  0
 39 64  1  0  0  0
 39 67  2  0  0  0
 40 52  1  0  0  0
 40 53  2  0  0  0
 40 58  1  0  0  0
 41108  1  0  0  0
 41109  1  0  0  0
 41110  1  0  0  0
 41 48  1  0  0  0
 42 43  1  0  0  0
 42 66  1  0  0  0
 42111  1  0  0  0
 42112  1  0  0  0
 43 44  1  0  0  0
 44113  1  0  0  0
 45 46  2  0  0  0
 45114  1  0  0  0
 46115  1  0  0  0
 47116  1  0  0  0
 47117  1  0  0  0
 48 56  1  0  0  0
 48 65  1  0  0  0
 48118  1  0  0  0
 49 50  1  0  0  0
 49 53  1  0  0  0
 49 64  1  0  0  0
 49119  1  0  0  0
 50 51  1  0  0  0
 50120  1  0  0  0
 50121  1  0  0  0
 51 52  1  0  0  0
 51122  1  0  0  0
 51123  1  0  0  0
 52124  1  0  0  0
 52125  1  0  0  0
 53 54  1  0  0  0
 54 55  2  0  0  0
 54126  1  0  0  0
 55 57  1  0  0  0
 55127  1  0  0  0
 56 69  2  0  0  0
 57 58  2  0  0  0
 57128  1  0  0  0
 58129  1  0  0  0
 59 60  1  0  0  0
 59 61  1  0  0  0
 59 62  1  0  0  0
 60130  1  0  0  0
 60131  1  0  0  0
 60132  1  0  0  0
 61133  1  0  0  0
 61134  1  0  0  0
 61135  1  0  0  0
 62136  1  0  0  0
 62137  1  0  0  0
 62138  1  0  0  0
 63 65  1  0  0  0
 63139  1  0  0  0
 63140  1  0  0  0
 63141  1  0  0  0
 64142  1  0  0  0
 65143  1  0  0  0
 68 75  1  0  0  0
 71 73  2  0  0  0
 71 79  1  0  0  0
 71144  1  0  0  0
 72 73  1  0  0  0
 72 80  2  0  0  0
 72145  1  0  0  0
 73 75  1  0  0  0
 74 76  1  0  0  0
 74 79  2  0  0  0
 74 80  1  0  0  0
 75146  1  0  0  0
 75147  1  0  0  0
 76148  1  0  0  0
 76149  1  0  0  0
 76 77  1  0  0  0
 77 78  1  0  0  0
 77 81  1  0  0  0
 77150  1  0  0  0
 78 82  1  0  0  0
 78 83  1  0  0  0
 78 84  1  0  0  0
 81151  1  0  0  0
M  ISO  4   1 100  68 101  75 101  81 100
M  END
> <chiral flag>
0

> <version>
0

> <s_m_source_file>
/data/baiqing/PycharmProjects/Reinvent-master-3.2/result/LINK_invent/BTK/process_docking_weight1_custom_sum_contain_oxygen_bond_distance_aromatic_linkinvent_7_9_3/rearranged_h_0061.sdf

> <i_m_source_file_index>
43

> <r_mmod_Potential_Energy-OPLS-2005>
-100.13533782959

> <r_mmod_Stretch_Energy-OPLS-2005>
202.306884765625

> <r_mmod_Bend_Energy-OPLS-2005>
250.150192260742

> <r_mmod_Torsional_Energy-OPLS-2005>
235.015014648438

> <r_mmod_Improper_Torsional_Energy-OPLS-2005>
12.0356168746948

> <r_mmod_Van_der_Waal_Energy-OPLS-2005>
145.733032226562

> <r_mmod_Electrostatic_Energy-OPLS-2005>
-872.802612304688

> <r_mmod_Solvation_Energy-OPLS-2005>
-236.610992431641

> <b_mmod_Minimization_Converged-OPLS-2005>
0

> <r_mmod_RMS_Derivative-OPLS-2005>
1.46456372737885

$$$$
45
                    3D
 Structure written by MMmdl.
164172  0  0  1  0            999 V2000
  -30.6983  -14.5885   20.4129 C   0  0  0  0  0  0
  -30.4107  -12.3481   19.4373 C   0  0  0  0  0  0
  -29.4843  -12.4417   18.2102 C   0  0  0  0  0  0
  -28.0060  -12.3284   18.6347 C   0  0  0  0  0  0
  -27.6393  -13.2162   19.8572 C   0  0  2  0  0  0
  -28.6970  -13.1327   20.9736 C   0  0  0  0  0  0
  -25.2497  -13.8187   20.5759 C   0  0  0  0  0  0
  -24.1759  -13.0451   20.9219 C   0  0  0  0  0  0
  -24.6343  -11.6913   20.8763 C   0  0  0  0  0  0
  -23.9041  -10.4286   21.0432 C   0  0  0  0  0  0
  -24.3611   -9.4203   21.9209 C   0  0  0  0  0  0
  -23.6291   -8.2228   22.0773 C   0  0  0  0  0  0
  -22.4265   -8.0272   21.3558 C   0  0  0  0  0  0
  -21.9903   -9.0244   20.4656 C   0  0  0  0  0  0
  -22.7229  -10.2127   20.3071 C   0  0  0  0  0  0
  -21.6838   -6.0737   22.5280 C   0  0  0  0  0  0
  -21.3999   -6.5645   23.8215 C   0  0  0  0  0  0
  -21.3658   -5.6796   24.9181 C   0  0  0  0  0  0
  -21.6045   -4.3061   24.7219 C   0  0  0  0  0  0
  -21.8811   -3.8151   23.4341 C   0  0  0  0  0  0
  -21.9183   -4.6969   22.3404 C   0  0  0  0  0  0
  -22.7783  -13.5244   21.1854 C   0  0  0  0  0  0
  -22.1656   -4.2162   21.0977 F   0  0  0  0  0  0
  -21.5640   -3.4549   25.7736 F   0  0  0  0  0  0
  -29.9970  -13.4181   20.3595 N   0  0  0  0  0  0
  -26.2923  -12.9370   20.3408 N   0  0  0  0  0  0
  -25.9274  -11.6527   20.5843 N   0  0  0  0  0  0
  -22.0415  -12.8225   22.0403 N   0  0  0  0  0  0
  -25.4245  -15.1914   20.4255 N   0  0  0  0  0  0
  -31.9196  -14.5864   20.2515 O   0  0  0  0  0  0
  -21.6628   -6.8871   21.4239 O   0  0  0  0  0  0
  -22.3478  -14.5548   20.6702 O   0  0  0  0  0  0
  -24.6228  -31.8603   23.2046 C   0  0  0  0  0  0
  -25.9108  -32.4761   23.8348 C   0  0  1  0  0  0
  -27.2215  -27.3635   20.0967 C   0  0  0  0  0  0
  -25.5942  -33.8564   24.2267 N   0  0  0  0  0  0
  -23.4089  -30.4870   21.5456 C   0  0  2  0  0  0
  -24.8510  -28.9436   20.1115 C   0  0  0  0  0  0
  -22.7423  -29.4636   22.4945 C   0  0  0  0  0  0
  -18.0267  -28.1381   22.8501 C   0  0  0  0  0  0
  -24.1464  -36.7251   23.2635 C   0  0  0  0  0  0
  -25.9470  -30.8052   21.3652 C   0  0  0  0  0  0
  -26.0184  -29.4357   20.7062 C   0  0  0  0  0  0
  -27.2044  -28.6582   20.6899 C   0  0  0  0  0  0
  -26.0204  -26.8962   19.5134 C   0  0  0  0  0  0
  -24.8503  -27.6768   19.5089 C   0  0  0  0  0  0
  -23.6158  -29.8153   20.1619 C   0  0  0  0  0  0
  -25.4094  -36.3078   24.0330 C   0  0  1  0  0  0
  -20.5864  -28.3672   23.1299 C   0  0  2  0  0  0
  -20.6772  -26.9408   22.5410 C   0  0  0  0  0  0
  -19.5739  -26.6387   21.5226 C   0  0  0  0  0  0
  -18.1921  -26.7922   22.1641 C   0  0  0  0  0  0
  -19.1521  -28.8850   23.2895 C   0  0  0  0  0  0
  -18.9455  -30.1467   23.8895 C   0  0  0  0  0  0
  -17.6458  -30.6596   24.0571 C   0  0  0  0  0  0
  -25.9046  -34.9449   23.5097 C   0  0  0  0  0  0
  -16.5345  -29.9088   23.6337 C   0  0  0  0  0  0
  -16.7259  -28.6494   23.0370 C   0  0  0  0  0  0
  -26.4528  -31.6564   25.0690 C   0  0  0  0  0  0
  -25.3782  -31.3699   26.1418 C   0  0  0  0  0  0
  -27.0363  -30.2988   24.6119 C   0  0  0  0  0  0
  -27.6085  -32.4296   25.7471 C   0  0  0  0  0  0
  -27.5563  -37.1767   24.8466 C   0  0  0  0  0  0
  -21.4139  -29.3031   22.3694 N   0  0  0  0  0  0
  -26.4251  -37.3794   23.9438 N   0  0  0  0  0  0
  -24.6781  -31.0672   22.0957 N   0  0  0  0  0  0
  -23.4169  -28.8183   23.3007 O   0  0  0  0  0  0
  -28.3921  -26.6071   20.1176 O   0  0  0  0  0  0
  -26.5581  -34.8943   22.4649 O   0  0  0  0  0  0
  -23.5414  -32.1395   23.7415 O   0  0  0  0  0  0
  -27.4636  -19.3282   21.0321 C   0  0  0  0  0  0
  -29.0894  -18.0325   21.1684 C   0  0  0  0  0  0
  -31.3241  -17.1025   21.9417 C   0  0  0  0  0  0
  -31.1372  -16.1125   17.9098 C   0  0  0  0  0  0
  -28.6297  -16.2705   18.1648 C   0  0  0  0  0  0
  -28.3647  -22.6035   20.2262 C   0  0  0  0  0  0
  -28.3853  -24.1089   20.7117 C   0  0  0  0  0  0
  -28.6600  -21.5686   21.3711 C   0  0  0  0  0  0
  -28.4488  -25.2321   19.6186 C   0  0  0  0  0  0
  -29.9253  -16.7503   21.3690 C   0  0  2  0  0  0
  -29.9834  -16.4416   18.8827 C   0  0  0  0  0  0
  -27.7260  -18.0170   21.0632 N   0  0  0  0  0  0
  -29.6264  -19.2708   21.1460 N   0  0  0  0  0  0
  -28.5453  -20.1122   21.0976 N   0  0  0  0  0  0
  -30.0074  -15.7670   20.2292 N   0  0  0  0  0  0
  -31.4513  -12.4367   19.1224 H   0  0  0  0  0  0
  -30.3225  -11.3744   19.9196 H   0  0  0  0  0  0
  -29.7245  -11.6534   17.4977 H   0  0  0  0  0  0
  -29.6509  -13.3772   17.6815 H   0  0  0  0  0  0
  -27.8275  -11.2807   18.8770 H   0  0  0  0  0  0
  -27.3491  -12.5560   17.7938 H   0  0  0  0  0  0
  -27.6334  -14.2436   19.5121 H   0  0  0  0  0  0
  -28.6987  -12.1416   21.4319 H   0  0  0  0  0  0
  -28.4736  -13.8477   21.7663 H   0  0  0  0  0  0
  -25.2765   -9.5687   22.4780 H   0  0  0  0  0  0
  -24.0019   -7.4614   22.7489 H   0  0  0  0  0  0
  -21.0839   -8.8750   19.8951 H   0  0  0  0  0  0
  -22.3702  -10.9660   19.6168 H   0  0  0  0  0  0
  -21.1984   -7.6148   23.9724 H   0  0  0  0  0  0
  -21.1498   -6.0529   25.9091 H   0  0  0  0  0  0
  -22.0588   -2.7609   23.2833 H   0  0  0  0  0  0
  -22.4045  -11.9899   22.4787 H   0  0  0  0  0  0
  -21.1042  -13.1263   22.2617 H   0  0  0  0  0  0
  -24.6737  -15.8534   20.5816 H   0  0  0  0  0  0
  -26.3108  -15.6441   20.2376 H   0  0  0  0  0  0
  -26.7185  -32.5436   23.1112 H   0  0  0  0  0  0
  -25.0217  -33.9720   25.0500 H   0  0  0  0  0  0
  -22.7018  -31.3088   21.4074 H   0  0  0  0  0  0
  -23.3761  -35.9550   23.3276 H   0  0  0  0  0  0
  -24.3589  -36.8859   22.2059 H   0  0  0  0  0  0
  -23.7176  -37.6431   23.6656 H   0  0  0  0  0  0
  -26.0765  -31.5684   20.5975 H   0  0  0  0  0  0
  -26.8310  -30.8524   21.9893 H   0  0  0  0  0  0
  -28.1020  -29.0407   21.1560 H   0  0  0  0  0  0
  -25.9381  -25.9204   19.0670 H   0  0  0  0  0  0
  -23.9489  -27.2863   19.0562 H   0  0  0  0  0  0
  -23.7231  -30.5846   19.3980 H   0  0  0  0  0  0
  -22.7404  -29.2309   19.8708 H   0  0  0  0  0  0
  -25.1283  -36.1912   25.0818 H   0  0  0  0  0  0
  -20.9999  -28.3260   24.1412 H   0  0  0  0  0  0
  -20.5717  -26.2279   23.3596 H   0  0  0  0  0  0
  -21.6637  -26.7454   22.1198 H   0  0  0  0  0  0
  -19.6884  -25.6308   21.1224 H   0  0  0  0  0  0
  -19.6688  -27.3221   20.6786 H   0  0  0  0  0  0
  -17.4212  -26.6708   21.4022 H   0  0  0  0  0  0
  -18.0303  -26.0055   22.9033 H   0  0  0  0  0  0
  -19.7939  -30.7294   24.2233 H   0  0  0  0  0  0
  -17.5013  -31.6272   24.5190 H   0  0  0  0  0  0
  -15.5346  -30.3002   23.7655 H   0  0  0  0  0  0
  -15.8660  -28.0819   22.7081 H   0  0  0  0  0  0
  -24.5988  -30.6996   25.7756 H   0  0  0  0  0  0
  -24.8953  -32.2863   26.4797 H   0  0  0  0  0  0
  -25.8132  -30.8926   27.0201 H   0  0  0  0  0  0
  -26.2913  -29.6727   24.1174 H   0  0  0  0  0  0
  -27.4111  -29.7251   25.4609 H   0  0  0  0  0  0
  -27.8770  -30.4266   23.9300 H   0  0  0  0  0  0
  -27.2682  -33.3607   26.2021 H   0  0  0  0  0  0
  -28.3922  -32.6807   25.0306 H   0  0  0  0  0  0
  -28.0723  -31.8426   26.5411 H   0  0  0  0  0  0
  -28.2568  -38.0088   24.7592 H   0  0  0  0  0  0
  -28.1084  -36.2626   24.6205 H   0  0  0  0  0  0
  -27.2300  -37.1279   25.8874 H   0  0  0  0  0  0
  -20.9308  -29.8719   21.6888 H   0  0  0  0  0  0
  -26.0113  -38.2840   24.1534 H   0  0  0  0  0  0
  -26.4585  -19.7251   21.0482 H   0  0  0  0  0  0
  -31.2446  -17.7804   22.7920 H   0  0  0  0  0  0
  -31.9392  -17.5947   21.1867 H   0  0  0  0  0  0
  -31.8698  -16.2285   22.2964 H   0  0  0  0  0  0
  -31.0724  -16.7371   17.0176 H   0  0  0  0  0  0
  -31.1297  -15.0755   17.5762 H   0  0  0  0  0  0
  -32.1086  -16.3180   18.3625 H   0  0  0  0  0  0
  -28.5563  -16.9552   17.3194 H   0  0  0  0  0  0
  -27.7843  -16.4873   18.8164 H   0  0  0  0  0  0
  -28.4981  -15.2682   17.7622 H   0  0  0  0  0  0
  -29.0933  -22.4631   19.4274 H   0  0  0  0  0  0
  -27.3890  -22.3910   19.7843 H   0  0  0  0  0  0
  -29.2466  -24.2451   21.3675 H   0  0  0  0  0  0
  -27.5091  -24.2819   21.3359 H   0  0  0  0  0  0
  -27.9762  -21.7794   22.1970 H   0  0  0  0  0  0
  -29.6602  -21.7544   21.7622 H   0  0  0  0  0  0
  -27.7468  -25.0326   18.8120 H   0  0  0  0  0  0
  -29.4181  -25.1452   19.1276 H   0  0  0  0  0  0
  -29.4149  -16.2082   22.1661 H   0  0  0  0  0  0
  -30.1191  -17.5126   19.0150 H   0  0  0  0  0  0
  1 25  1  0  0  0
  1 30  2  0  0  0
  1 85  1  0  0  0
  2  3  1  0  0  0
  2 25  1  0  0  0
  2 86  1  0  0  0
  2 87  1  0  0  0
  3  4  1  0  0  0
  3 88  1  0  0  0
  3 89  1  0  0  0
  4  5  1  0  0  0
  4 90  1  0  0  0
  4 91  1  0  0  0
  5  6  1  0  0  0
  5 26  1  0  0  0
  5 92  1  0  0  0
  6 25  1  0  0  0
  6 93  1  0  0  0
  6 94  1  0  0  0
  7  8  2  0  0  0
  7 26  1  0  0  0
  7 29  1  0  0  0
  8  9  1  0  0  0
  8 22  1  0  0  0
  9 10  1  0  0  0
  9 27  2  0  0  0
 10 11  2  0  0  0
 10 15  1  0  0  0
 11 12  1  0  0  0
 11 95  1  0  0  0
 12 13  2  0  0  0
 12 96  1  0  0  0
 13 14  1  0  0  0
 13 31  1  0  0  0
 14 15  2  0  0  0
 14 97  1  0  0  0
 15 98  1  0  0  0
 16 17  2  0  0  0
 16 21  1  0  0  0
 16 31  1  0  0  0
 17 18  1  0  0  0
 17 99  1  0  0  0
 18 19  2  0  0  0
 18100  1  0  0  0
 19 20  1  0  0  0
 19 24  1  0  0  0
 20 21  2  0  0  0
 20101  1  0  0  0
 21 23  1  0  0  0
 22 28  1  0  0  0
 22 32  2  0  0  0
 26 27  1  0  0  0
 28102  1  0  0  0
 28103  1  0  0  0
 29104  1  0  0  0
 29105  1  0  0  0
 33 34  1  0  0  0
 33 66  1  0  0  0
 33 70  2  0  0  0
 34 36  1  0  0  0
 34 59  1  0  0  0
 34106  1  0  0  0
 35 44  2  0  0  0
 35 45  1  0  0  0
 35 68  1  0  0  0
 36 56  1  0  0  0
 36107  1  0  0  0
 37 39  1  0  0  0
 37 47  1  0  0  0
 37 66  1  0  0  0
 37108  1  0  0  0
 38 43  2  0  0  0
 38 46  1  0  0  0
 38 47  1  0  0  0
 39 64  1  0  0  0
 39 67  2  0  0  0
 40 52  1  0  0  0
 40 53  2  0  0  0
 40 58  1  0  0  0
 41109  1  0  0  0
 41110  1  0  0  0
 41111  1  0  0  0
 41 48  1  0  0  0
 42 43  1  0  0  0
 42 66  1  0  0  0
 42112  1  0  0  0
 42113  1  0  0  0
 43 44  1  0  0  0
 44114  1  0  0  0
 45 46  2  0  0  0
 45115  1  0  0  0
 46116  1  0  0  0
 47117  1  0  0  0
 47118  1  0  0  0
 48 56  1  0  0  0
 48 65  1  0  0  0
 48119  1  0  0  0
 49 50  1  0  0  0
 49 53  1  0  0  0
 49 64  1  0  0  0
 49120  1  0  0  0
 50 51  1  0  0  0
 50121  1  0  0  0
 50122  1  0  0  0
 51 52  1  0  0  0
 51123  1  0  0  0
 51124  1  0  0  0
 52125  1  0  0  0
 52126  1  0  0  0
 53 54  1  0  0  0
 54 55  2  0  0  0
 54127  1  0  0  0
 55 57  1  0  0  0
 55128  1  0  0  0
 56 69  2  0  0  0
 57 58  2  0  0  0
 57129  1  0  0  0
 58130  1  0  0  0
 59 60  1  0  0  0
 59 61  1  0  0  0
 59 62  1  0  0  0
 60131  1  0  0  0
 60132  1  0  0  0
 60133  1  0  0  0
 61134  1  0  0  0
 61135  1  0  0  0
 61136  1  0  0  0
 62137  1  0  0  0
 62138  1  0  0  0
 62139  1  0  0  0
 63 65  1  0  0  0
 63140  1  0  0  0
 63141  1  0  0  0
 63142  1  0  0  0
 64143  1  0  0  0
 65144  1  0  0  0
 68 79  1  0  0  0
 71 82  2  0  0  0
 71 84  1  0  0  0
 71145  1  0  0  0
 72 80  1  0  0  0
 72 82  1  0  0  0
 72 83  2  0  0  0
 73146  1  0  0  0
 73147  1  0  0  0
 73148  1  0  0  0
 73 80  1  0  0  0
 74149  1  0  0  0
 74150  1  0  0  0
 74151  1  0  0  0
 74 81  1  0  0  0
 75 81  1  0  0  0
 75152  1  0  0  0
 75153  1  0  0  0
 75154  1  0  0  0
 76 77  1  0  0  0
 76 78  1  0  0  0
 76155  1  0  0  0
 76156  1  0  0  0
 77 79  1  0  0  0
 77157  1  0  0  0
 77158  1  0  0  0
 78 84  1  0  0  0
 78159  1  0  0  0
 78160  1  0  0  0
 79161  1  0  0  0
 79162  1  0  0  0
 80 85  1  0  0  0
 80163  1  0  0  0
 81 85  1  0  0  0
 81164  1  0  0  0
 83 84  1  0  0  0
M  ISO  4   1 100  68 101  79 101  85 100
M  END
> <chiral flag>
0

> <version>
0

> <s_m_source_file>
/data/baiqing/PycharmProjects/Reinvent-master-3.2/result/LINK_invent/BTK/process_docking_weight1_custom_sum_contain_oxygen_bond_distance_aromatic_linkinvent_7_9_3/rearranged_h_0061.sdf

> <i_m_source_file_index>
44

> <r_mmod_Potential_Energy-OPLS-2005>
207.367874145508

> <r_mmod_Stretch_Energy-OPLS-2005>
67.3057556152344

> <r_mmod_Bend_Energy-OPLS-2005>
146.457778930664

> <r_mmod_Torsional_Energy-OPLS-2005>
320.267181396484

> <r_mmod_Improper_Torsional_Energy-OPLS-2005>
15.4319114685059

> <r_mmod_Van_der_Waal_Energy-OPLS-2005>
129.329406738281

> <r_mmod_Electrostatic_Energy-OPLS-2005>
-319.978057861328

> <r_mmod_Solvation_Energy-OPLS-2005>
-196.202362060547

> <b_mmod_Minimization_Converged-OPLS-2005>
0

> <r_mmod_RMS_Derivative-OPLS-2005>
3.74671506881714

$$$$
46
                    3D
 Structure written by MMmdl.
175184  0  0  1  0            999 V2000
  -30.7255  -14.4733   20.5915 C   0  0  0  0  0  0
  -30.4176  -12.3122   19.4231 C   0  0  0  0  0  0
  -29.5037  -12.5248   18.1991 C   0  0  0  0  0  0
  -28.0189  -12.3915   18.5988 C   0  0  0  0  0  0
  -27.6621  -13.2132   19.8681 C   0  0  2  0  0  0
  -28.6998  -12.9651   20.9802 C   0  0  0  0  0  0
  -25.2612  -13.8192   20.5673 C   0  0  0  0  0  0
  -24.1870  -13.0457   20.9165 C   0  0  0  0  0  0
  -24.6428  -11.6919   20.8728 C   0  0  0  0  0  0
  -23.9084  -10.4309   21.0422 C   0  0  0  0  0  0
  -24.3635   -9.4224   21.9196 C   0  0  0  0  0  0
  -23.6332   -8.2244   22.0740 C   0  0  0  0  0  0
  -22.4311   -8.0281   21.3543 C   0  0  0  0  0  0
  -21.9947   -9.0251   20.4653 C   0  0  0  0  0  0
  -22.7265  -10.2131   20.3066 C   0  0  0  0  0  0
  -21.6873   -6.0758   22.5305 C   0  0  0  0  0  0
  -21.4028   -6.5644   23.8247 C   0  0  0  0  0  0
  -21.3644   -5.6776   24.9193 C   0  0  0  0  0  0
  -21.6040   -4.3046   24.7232 C   0  0  0  0  0  0
  -21.8823   -3.8148   23.4353 C   0  0  0  0  0  0
  -21.9200   -4.6982   22.3416 C   0  0  0  0  0  0
  -22.7893  -13.5246   21.1832 C   0  0  0  0  0  0
  -22.1676   -4.2179   21.0992 F   0  0  0  0  0  0
  -21.5614   -3.4505   25.7732 F   0  0  0  0  0  0
  -30.0294  -13.3032   20.4443 N   0  0  0  0  0  0
  -26.3030  -12.9354   20.3290 N   0  0  0  0  0  0
  -25.9348  -11.6512   20.5724 N   0  0  0  0  0  0
  -22.0509  -12.8249   22.0380 N   0  0  0  0  0  0
  -25.4364  -15.1923   20.4145 N   0  0  0  0  0  0
  -31.8352  -14.6234   20.0708 O   0  0  0  0  0  0
  -21.6656   -6.8888   21.4263 O   0  0  0  0  0  0
  -22.3587  -14.5553   20.6688 O   0  0  0  0  0  0
  -24.6169  -31.8645   23.2120 C   0  0  0  0  0  0
  -25.9044  -32.4815   23.8405 C   0  0  1  0  0  0
  -27.2248  -27.4191   20.0820 C   0  0  0  0  0  0
  -25.5891  -33.8613   24.2312 N   0  0  0  0  0  0
  -23.4021  -30.4897   21.5587 C   0  0  2  0  0  0
  -24.8401  -28.9512   20.1244 C   0  0  0  0  0  0
  -22.7409  -29.4615   22.5043 C   0  0  0  0  0  0
  -18.0254  -28.1380   22.8485 C   0  0  0  0  0  0
  -24.1482  -36.7304   23.2642 C   0  0  0  0  0  0
  -25.9329  -30.8238   21.3642 C   0  0  0  0  0  0
  -26.0054  -29.4589   20.7087 C   0  0  0  0  0  0
  -27.2005  -28.7029   20.6789 C   0  0  0  0  0  0
  -26.0299  -26.9202   19.5117 C   0  0  0  0  0  0
  -24.8463  -27.6806   19.5253 C   0  0  0  0  0  0
  -23.6066  -29.8242   20.1733 C   0  0  0  0  0  0
  -25.4112  -36.3107   24.0332 C   0  0  1  0  0  0
  -20.5841  -28.3633   23.1347 C   0  0  2  0  0  0
  -20.6741  -26.9377   22.5432 C   0  0  0  0  0  0
  -19.5727  -26.6381   21.5210 C   0  0  0  0  0  0
  -18.1901  -26.7925   22.1616 C   0  0  0  0  0  0
  -19.1506  -28.8833   23.2908 C   0  0  0  0  0  0
  -18.9439  -30.1447   23.8901 C   0  0  0  0  0  0
  -17.6443  -30.6590   24.0555 C   0  0  0  0  0  0
  -25.9046  -34.9473   23.5130 C   0  0  0  0  0  0
  -16.5331  -29.9081   23.6342 C   0  0  0  0  0  0
  -16.7252  -28.6509   23.0354 C   0  0  0  0  0  0
  -26.4470  -31.6625   25.0755 C   0  0  0  0  0  0
  -25.3756  -31.3691   26.1521 C   0  0  0  0  0  0
  -27.0295  -30.3078   24.6112 C   0  0  0  0  0  0
  -27.6056  -32.4350   25.7498 C   0  0  0  0  0  0
  -27.5579  -37.1813   24.8468 C   0  0  0  0  0  0
  -21.4142  -29.2991   22.3771 N   0  0  0  0  0  0
  -26.4281  -37.3810   23.9424 N   0  0  0  0  0  0
  -24.6703  -31.0737   22.1023 N   0  0  0  0  0  0
  -23.4186  -28.8136   23.3067 O   0  0  0  0  0  0
  -28.4154  -26.7150   20.0662 O   0  0  0  0  0  0
  -26.5618  -34.8925   22.4693 O   0  0  0  0  0  0
  -23.5368  -32.1376   23.7526 O   0  0  0  0  0  0
  -28.0813  -25.0866   16.3365 C   0  0  0  0  0  0
  -28.3436  -23.2664   18.3165 C   0  0  0  0  0  0
  -28.0883  -22.8926   16.9750 C   0  0  0  0  0  0
  -28.3244  -24.6660   18.5730 C   0  0  0  0  0  0
  -31.0207  -21.6447   18.7033 C   0  0  0  0  0  0
  -29.9349  -20.0009   19.4341 C   0  0  0  0  0  0
  -29.0402  -20.9446   15.6315 C   0  0  0  0  0  0
  -32.9116  -23.3266   18.3533 C   0  0  0  0  0  0
  -29.6122  -15.6049   22.4770 C   0  0  0  0  0  0
  -28.6282  -22.2210   19.4215 C   0  0  0  0  0  0
  -27.8912  -21.4539   16.5102 C   0  0  0  0  0  0
  -28.3997  -25.2726   19.9852 C   0  0  0  0  0  0
  -31.4141  -23.0157   18.2335 C   0  0  0  0  0  0
  -28.8842  -19.1496   20.1118 C   0  0  0  0  0  0
  -28.9950  -17.5949   19.9858 C   0  0  0  0  0  0
  -30.2821  -16.9234   20.5414 C   0  0  0  0  0  0
  -27.9737  -23.8114   15.9997 N   0  0  0  0  0  0
  -28.2267  -25.5541   17.5640 N   0  0  0  0  0  0
  -31.8416  -20.5931   18.6037 N   0  0  0  0  0  0
  -31.1459  -19.5332   19.1130 N   0  0  0  0  0  0
  -29.7853  -21.3330   19.1733 N   0  0  0  0  0  0
  -30.0487  -15.5541   21.0741 N   0  0  0  0  0  0
  -31.4673  -12.3862   19.1356 H   0  0  0  0  0  0
  -30.2941  -11.3003   19.8107 H   0  0  0  0  0  0
  -29.7485  -11.8100   17.4117 H   0  0  0  0  0  0
  -29.6856  -13.5146   17.7784 H   0  0  0  0  0  0
  -27.8201  -11.3327   18.7730 H   0  0  0  0  0  0
  -27.3763  -12.6827   17.7677 H   0  0  0  0  0  0
  -27.7117  -14.2699   19.5959 H   0  0  0  0  0  0
  -28.6923  -11.9150   21.2770 H   0  0  0  0  0  0
  -28.4288  -13.4992   21.8820 H   0  0  0  0  0  0
  -25.2797   -9.5698   22.4748 H   0  0  0  0  0  0
  -24.0070   -7.4627   22.7439 H   0  0  0  0  0  0
  -21.0874   -8.8764   19.8980 H   0  0  0  0  0  0
  -22.3753  -10.9642   19.6139 H   0  0  0  0  0  0
  -21.2046   -7.6154   23.9784 H   0  0  0  0  0  0
  -21.1455   -6.0487   25.9100 H   0  0  0  0  0  0
  -22.0630   -2.7622   23.2840 H   0  0  0  0  0  0
  -22.4081  -11.9913   22.4808 H   0  0  0  0  0  0
  -21.1126  -13.1316   22.2539 H   0  0  0  0  0  0
  -24.6786  -15.8519   20.5423 H   0  0  0  0  0  0
  -26.2987  -15.6319   20.1173 H   0  0  0  0  0  0
  -26.7110  -32.5501   23.1162 H   0  0  0  0  0  0
  -25.0081  -33.9771   25.0485 H   0  0  0  0  0  0
  -22.6901  -31.3070   21.4279 H   0  0  0  0  0  0
  -23.3752  -35.9626   23.3296 H   0  0  0  0  0  0
  -24.3595  -36.8922   22.2060 H   0  0  0  0  0  0
  -23.7194  -37.6490   23.6666 H   0  0  0  0  0  0
  -26.0557  -31.5894   20.5965 H   0  0  0  0  0  0
  -26.8145  -30.8666   21.9911 H   0  0  0  0  0  0
  -28.1034  -29.0953   21.1234 H   0  0  0  0  0  0
  -25.9895  -25.9522   19.0370 H   0  0  0  0  0  0
  -23.9428  -27.2859   19.0816 H   0  0  0  0  0  0
  -23.7265  -30.5997   19.4164 H   0  0  0  0  0  0
  -22.7233  -29.2566   19.8765 H   0  0  0  0  0  0
  -25.1289  -36.1971   25.0822 H   0  0  0  0  0  0
  -20.9918  -28.3171   24.1472 H   0  0  0  0  0  0
  -20.5638  -26.2220   23.3598 H   0  0  0  0  0  0
  -21.6612  -26.7436   22.1216 H   0  0  0  0  0  0
  -19.6889  -25.6300   21.1214 H   0  0  0  0  0  0
  -19.6683  -27.3209   20.6752 H   0  0  0  0  0  0
  -17.4175  -26.6666   21.4014 H   0  0  0  0  0  0
  -18.0313  -26.0066   22.9018 H   0  0  0  0  0  0
  -19.7927  -30.7256   24.2250 H   0  0  0  0  0  0
  -17.5014  -31.6271   24.5155 H   0  0  0  0  0  0
  -15.5336  -30.2983   23.7703 H   0  0  0  0  0  0
  -15.8638  -28.0844   22.7065 H   0  0  0  0  0  0
  -24.5936  -30.7021   25.7859 H   0  0  0  0  0  0
  -24.8954  -32.2829   26.5038 H   0  0  0  0  0  0
  -25.8152  -30.8831   27.0242 H   0  0  0  0  0  0
  -26.2815  -29.6839   24.1202 H   0  0  0  0  0  0
  -27.4104  -29.7320   25.4554 H   0  0  0  0  0  0
  -27.8642  -30.4407   23.9222 H   0  0  0  0  0  0
  -27.2687  -33.3646   26.2088 H   0  0  0  0  0  0
  -28.3850  -32.6899   25.0309 H   0  0  0  0  0  0
  -28.0737  -31.8473   26.5399 H   0  0  0  0  0  0
  -28.2603  -38.0110   24.7573 H   0  0  0  0  0  0
  -28.1070  -36.2659   24.6238 H   0  0  0  0  0  0
  -27.2328  -37.1389   25.8876 H   0  0  0  0  0  0
  -20.9307  -29.8723   21.7002 H   0  0  0  0  0  0
  -26.0164  -38.2869   24.1485 H   0  0  0  0  0  0
  -28.0400  -25.8114   15.5379 H   0  0  0  0  0  0
  -28.9032  -19.8921   15.3817 H   0  0  0  0  0  0
  -30.0001  -21.0460   16.1340 H   0  0  0  0  0  0
  -29.0911  -21.5061   14.6979 H   0  0  0  0  0  0
  -33.1277  -24.3243   17.9730 H   0  0  0  0  0  0
  -33.5119  -22.6202   17.7795 H   0  0  0  0  0  0
  -33.2408  -23.2857   19.3922 H   0  0  0  0  0  0
  -30.0516  -16.4400   23.0256 H   0  0  0  0  0  0
  -29.8803  -14.7073   23.0376 H   0  0  0  0  0  0
  -28.5286  -15.7300   22.5152 H   0  0  0  0  0  0
  -27.7287  -21.6261   19.5742 H   0  0  0  0  0  0
  -28.8105  -22.7058   20.3784 H   0  0  0  0  0  0
  -26.9617  -21.4063   15.9380 H   0  0  0  0  0  0
  -27.7429  -20.7851   17.3553 H   0  0  0  0  0  0
  -29.3249  -24.9278   20.4482 H   0  0  0  0  0  0
  -27.5912  -24.8614   20.5930 H   0  0  0  0  0  0
  -30.8832  -23.7613   18.8206 H   0  0  0  0  0  0
  -31.0849  -23.1308   17.2014 H   0  0  0  0  0  0
  -27.9161  -19.4291   19.6976 H   0  0  0  0  0  0
  -28.8477  -19.4357   21.1641 H   0  0  0  0  0  0
  -28.8747  -17.3092   18.9414 H   0  0  0  0  0  0
  -28.1350  -17.1740   20.5073 H   0  0  0  0  0  0
  -30.7303  -17.5527   21.3094 H   0  0  0  0  0  0
  -31.0218  -16.9110   19.7371 H   0  0  0  0  0  0
  1 25  1  0  0  0
  1 30  2  0  0  0
  1 92  1  0  0  0
  2  3  1  0  0  0
  2 25  1  0  0  0
  2 93  1  0  0  0
  2 94  1  0  0  0
  3  4  1  0  0  0
  3 95  1  0  0  0
  3 96  1  0  0  0
  4  5  1  0  0  0
  4 97  1  0  0  0
  4 98  1  0  0  0
  5  6  1  0  0  0
  5 26  1  0  0  0
  5 99  1  0  0  0
  6 25  1  0  0  0
  6100  1  0  0  0
  6101  1  0  0  0
  7  8  2  0  0  0
  7 26  1  0  0  0
  7 29  1  0  0  0
  8  9  1  0  0  0
  8 22  1  0  0  0
  9 10  1  0  0  0
  9 27  2  0  0  0
 10 11  2  0  0  0
 10 15  1  0  0  0
 11 12  1  0  0  0
 11102  1  0  0  0
 12 13  2  0  0  0
 12103  1  0  0  0
 13 14  1  0  0  0
 13 31  1  0  0  0
 14 15  2  0  0  0
 14104  1  0  0  0
 15105  1  0  0  0
 16 17  2  0  0  0
 16 21  1  0  0  0
 16 31  1  0  0  0
 17 18  1  0  0  0
 17106  1  0  0  0
 18 19  2  0  0  0
 18107  1  0  0  0
 19 20  1  0  0  0
 19 24  1  0  0  0
 20 21  2  0  0  0
 20108  1  0  0  0
 21 23  1  0  0  0
 22 28  1  0  0  0
 22 32  2  0  0  0
 26 27  1  0  0  0
 28109  1  0  0  0
 28110  1  0  0  0
 29111  1  0  0  0
 29112  1  0  0  0
 33 34  1  0  0  0
 33 66  1  0  0  0
 33 70  2  0  0  0
 34 36  1  0  0  0
 34 59  1  0  0  0
 34113  1  0  0  0
 35 44  2  0  0  0
 35 45  1  0  0  0
 35 68  1  0  0  0
 36 56  1  0  0  0
 36114  1  0  0  0
 37 39  1  0  0  0
 37 47  1  0  0  0
 37 66  1  0  0  0
 37115  1  0  0  0
 38 43  2  0  0  0
 38 46  1  0  0  0
 38 47  1  0  0  0
 39 64  1  0  0  0
 39 67  2  0  0  0
 40 52  1  0  0  0
 40 53  2  0  0  0
 40 58  1  0  0  0
 41116  1  0  0  0
 41117  1  0  0  0
 41118  1  0  0  0
 41 48  1  0  0  0
 42 43  1  0  0  0
 42 66  1  0  0  0
 42119  1  0  0  0
 42120  1  0  0  0
 43 44  1  0  0  0
 44121  1  0  0  0
 45 46  2  0  0  0
 45122  1  0  0  0
 46123  1  0  0  0
 47124  1  0  0  0
 47125  1  0  0  0
 48 56  1  0  0  0
 48 65  1  0  0  0
 48126  1  0  0  0
 49 50  1  0  0  0
 49 53  1  0  0  0
 49 64  1  0  0  0
 49127  1  0  0  0
 50 51  1  0  0  0
 50128  1  0  0  0
 50129  1  0  0  0
 51 52  1  0  0  0
 51130  1  0  0  0
 51131  1  0  0  0
 52132  1  0  0  0
 52133  1  0  0  0
 53 54  1  0  0  0
 54 55  2  0  0  0
 54134  1  0  0  0
 55 57  1  0  0  0
 55135  1  0  0  0
 56 69  2  0  0  0
 57 58  2  0  0  0
 57136  1  0  0  0
 58137  1  0  0  0
 59 60  1  0  0  0
 59 61  1  0  0  0
 59 62  1  0  0  0
 60138  1  0  0  0
 60139  1  0  0  0
 60140  1  0  0  0
 61141  1  0  0  0
 61142  1  0  0  0
 61143  1  0  0  0
 62144  1  0  0  0
 62145  1  0  0  0
 62146  1  0  0  0
 63 65  1  0  0  0
 63147  1  0  0  0
 63148  1  0  0  0
 63149  1  0  0  0
 64150  1  0  0  0
 65151  1  0  0  0
 68 82  1  0  0  0
 71 87  2  0  0  0
 71 88  1  0  0  0
 71152  1  0  0  0
 72 73  2  0  0  0
 72 74  1  0  0  0
 72 80  1  0  0  0
 73 81  1  0  0  0
 73 87  1  0  0  0
 74 82  1  0  0  0
 74 88  2  0  0  0
 75 83  1  0  0  0
 75 89  2  0  0  0
 75 91  1  0  0  0
 76 84  1  0  0  0
 76 90  2  0  0  0
 76 91  1  0  0  0
 77 81  1  0  0  0
 77153  1  0  0  0
 77154  1  0  0  0
 77155  1  0  0  0
 78 83  1  0  0  0
 78156  1  0  0  0
 78157  1  0  0  0
 78158  1  0  0  0
 79 92  1  0  0  0
 79159  1  0  0  0
 79160  1  0  0  0
 79161  1  0  0  0
 80 91  1  0  0  0
 80162  1  0  0  0
 80163  1  0  0  0
 81164  1  0  0  0
 81165  1  0  0  0
 82166  1  0  0  0
 82167  1  0  0  0
 83168  1  0  0  0
 83169  1  0  0  0
 84 85  1  0  0  0
 84170  1  0  0  0
 84171  1  0  0  0
 85 86  1  0  0  0
 85172  1  0  0  0
 85173  1  0  0  0
 86 92  1  0  0  0
 86174  1  0  0  0
 86175  1  0  0  0
 89 90  1  0  0  0
M  ISO  4   1 100  68 101  82 101  92 100
M  END
> <chiral flag>
0

> <version>
0

> <s_m_source_file>
/data/baiqing/PycharmProjects/Reinvent-master-3.2/result/LINK_invent/BTK/process_docking_weight1_custom_sum_contain_oxygen_bond_distance_aromatic_linkinvent_7_9_3/rearranged_h_0061.sdf

> <i_m_source_file_index>
45

> <r_mmod_Potential_Energy-OPLS-2005>
-242.710693359375

> <r_mmod_Stretch_Energy-OPLS-2005>
49.0158424377441

> <r_mmod_Bend_Energy-OPLS-2005>
136.033142089844

> <r_mmod_Torsional_Energy-OPLS-2005>
279.981018066406

> <r_mmod_Improper_Torsional_Energy-OPLS-2005>
9.4697093963623

> <r_mmod_Van_der_Waal_Energy-OPLS-2005>
159.851699829102

> <r_mmod_Electrostatic_Energy-OPLS-2005>
-635.709411621094

> <r_mmod_Solvation_Energy-OPLS-2005>
-254.389053344727

> <b_mmod_Minimization_Converged-OPLS-2005>
0

> <r_mmod_RMS_Derivative-OPLS-2005>
4.08563423156738

$$$$
47
                    3D
 Structure written by MMmdl.
161169  0  0  1  0            999 V2000
  -30.6295  -14.7729   20.4874 C   0  0  0  0  0  0
  -30.4182  -12.4773   19.4880 C   0  0  0  0  0  0
  -29.5105  -12.5506   18.2327 C   0  0  0  0  0  0
  -28.0414  -12.3477   18.6471 C   0  0  0  0  0  0
  -27.6410  -13.2421   19.8546 C   0  0  2  0  0  0
  -28.6850  -13.1894   20.9963 C   0  0  0  0  0  0
  -25.2561  -13.8218   20.5900 C   0  0  0  0  0  0
  -24.1794  -13.0458   20.9272 C   0  0  0  0  0  0
  -24.6355  -11.6958   20.8780 C   0  0  0  0  0  0
  -23.9030  -10.4312   21.0437 C   0  0  0  0  0  0
  -24.3572   -9.4267   21.9236 C   0  0  0  0  0  0
  -23.6263   -8.2305   22.0801 C   0  0  0  0  0  0
  -22.4288   -8.0266   21.3563 C   0  0  0  0  0  0
  -21.9897   -9.0263   20.4723 C   0  0  0  0  0  0
  -22.7184  -10.2160   20.3115 C   0  0  0  0  0  0
  -21.6874   -6.0748   22.5318 C   0  0  0  0  0  0
  -21.4004   -6.5645   23.8224 C   0  0  0  0  0  0
  -21.3696   -5.6799   24.9194 C   0  0  0  0  0  0
  -21.6012   -4.3063   24.7255 C   0  0  0  0  0  0
  -21.8787   -3.8170   23.4377 C   0  0  0  0  0  0
  -21.9184   -4.6994   22.3433 C   0  0  0  0  0  0
  -22.7841  -13.5371   21.1874 C   0  0  0  0  0  0
  -22.1669   -4.2157   21.1032 F   0  0  0  0  0  0
  -21.5638   -3.4563   25.7782 F   0  0  0  0  0  0
  -29.9921  -13.5447   20.4268 N   0  0  0  0  0  0
  -26.2935  -12.9412   20.3322 N   0  0  0  0  0  0
  -25.9271  -11.6570   20.5705 N   0  0  0  0  0  0
  -22.0379  -12.8398   22.0400 N   0  0  0  0  0  0
  -25.4411  -15.1878   20.4514 N   0  0  0  0  0  0
  -31.7939  -14.8705   20.0852 O   0  0  0  0  0  0
  -21.6655   -6.8877   21.4253 O   0  0  0  0  0  0
  -22.3613  -14.5705   20.6752 O   0  0  0  0  0  0
  -24.6348  -31.8672   23.2000 C   0  0  0  0  0  0
  -25.9187  -32.4855   23.8337 C   0  0  1  0  0  0
  -27.1436  -27.2044   20.1656 C   0  0  0  0  0  0
  -25.5964  -33.8634   24.2265 N   0  0  0  0  0  0
  -23.4233  -30.4943   21.5565 C   0  0  2  0  0  0
  -24.8474  -28.9310   20.1269 C   0  0  0  0  0  0
  -22.7482  -29.4675   22.5000 C   0  0  0  0  0  0
  -18.0364  -28.1443   22.8442 C   0  0  0  0  0  0
  -24.1452  -36.7239   23.2614 C   0  0  0  0  0  0
  -25.9732  -30.7575   21.3871 C   0  0  0  0  0  0
  -26.0280  -29.3763   20.7290 C   0  0  0  0  0  0
  -27.1800  -28.5225   20.7481 C   0  0  0  0  0  0
  -25.9376  -26.8295   19.5377 C   0  0  0  0  0  0
  -24.8037  -27.6620   19.5317 C   0  0  0  0  0  0
  -23.6361  -29.8404   20.1719 C   0  0  0  0  0  0
  -25.4100  -36.3117   24.0311 C   0  0  1  0  0  0
  -20.5923  -28.3735   23.1258 C   0  0  2  0  0  0
  -20.6902  -26.9492   22.5251 C   0  0  0  0  0  0
  -19.5840  -26.6424   21.5111 C   0  0  0  0  0  0
  -18.2047  -26.7981   22.1597 C   0  0  0  0  0  0
  -19.1611  -28.8901   23.2875 C   0  0  0  0  0  0
  -18.9537  -30.1466   23.8965 C   0  0  0  0  0  0
  -17.6528  -30.6605   24.0650 C   0  0  0  0  0  0
  -25.9046  -34.9507   23.5086 C   0  0  0  0  0  0
  -16.5429  -29.9161   23.6345 C   0  0  0  0  0  0
  -16.7344  -28.6563   23.0344 C   0  0  0  0  0  0
  -26.4422  -31.6712   25.0773 C   0  0  0  0  0  0
  -25.3526  -31.4030   26.1442 C   0  0  0  0  0  0
  -27.0313  -30.3125   24.6360 C   0  0  0  0  0  0
  -27.6000  -32.4412   25.7551 C   0  0  0  0  0  0
  -27.5583  -37.1833   24.8469 C   0  0  0  0  0  0
  -21.4222  -29.3138   22.3718 N   0  0  0  0  0  0
  -26.4281  -37.3810   23.9396 N   0  0  0  0  0  0
  -24.7001  -31.0537   22.1055 N   0  0  0  0  0  0
  -23.4205  -28.8218   23.3107 O   0  0  0  0  0  0
  -28.1896  -26.2624   20.2919 O   0  0  0  0  0  0
  -26.5559  -34.8970   22.4624 O   0  0  0  0  0  0
  -23.5527  -32.1554   23.7260 O   0  0  0  0  0  0
  -29.9453  -22.0730   20.0175 C   0  0  0  0  0  0
  -29.2514  -20.1198   20.4924 C   0  0  0  0  0  0
  -25.2992  -22.2740   20.0055 C   0  0  0  0  0  0
  -27.7384  -18.1051   20.7501 C   0  0  0  0  0  0
  -26.3076  -23.2876   20.6386 C   0  0  0  0  0  0
  -30.1783  -17.4170   20.5325 C   0  0  0  0  0  0
  -28.2269  -24.9443   19.5544 C   0  0  0  0  0  0
  -27.6811  -23.4226   19.9024 C   0  0  1  0  0  0
  -29.1655  -18.6180   21.0692 C   0  0  1  0  0  0
  -29.3279  -18.7451   22.6149 C   0  0  0  0  0  0
  -30.4071  -20.8186   20.2241 N   0  0  0  0  0  0
  -28.1726  -20.9557   20.4758 N   0  0  0  0  0  0
  -28.6250  -22.2390   20.1729 N   0  0  0  0  0  0
  -29.8870  -15.9105   20.7963 N   0  0  0  0  0  0
  -28.4626  -19.6149   23.1429 F   0  0  0  0  0  0
  -30.5608  -19.1523   22.9260 F   0  0  0  0  0  0
  -29.1288  -17.5604   23.1959 F   0  0  0  0  0  0
  -31.4755  -12.5632   19.2294 H   0  0  0  0  0  0
  -30.3169  -11.5051   19.9712 H   0  0  0  0  0  0
  -29.7990  -11.7976   17.4995 H   0  0  0  0  0  0
  -29.6126  -13.5210   17.7328 H   0  0  0  0  0  0
  -27.9217  -11.2926   18.8986 H   0  0  0  0  0  0
  -27.3723  -12.5256   17.8065 H   0  0  0  0  0  0
  -27.6336  -14.2606   19.4676 H   0  0  0  0  0  0
  -28.7289  -12.1881   21.4255 H   0  0  0  0  0  0
  -28.4066  -13.8552   21.8191 H   0  0  0  0  0  0
  -25.2709   -9.5755   22.4824 H   0  0  0  0  0  0
  -23.9955   -7.4750   22.7537 H   0  0  0  0  0  0
  -21.0835   -8.8768   19.9078 H   0  0  0  0  0  0
  -22.3623  -10.9671   19.6230 H   0  0  0  0  0  0
  -21.1983   -7.6156   23.9757 H   0  0  0  0  0  0
  -21.1548   -6.0542   25.9096 H   0  0  0  0  0  0
  -22.0535   -2.7630   23.2884 H   0  0  0  0  0  0
  -22.3807  -11.9970   22.4703 H   0  0  0  0  0  0
  -21.1052  -13.1553   22.2601 H   0  0  0  0  0  0
  -24.7113  -15.8683   20.6140 H   0  0  0  0  0  0
  -26.3197  -15.6010   20.1644 H   0  0  0  0  0  0
  -26.7254  -32.5428   23.1082 H   0  0  0  0  0  0
  -25.0305  -33.9713   25.0553 H   0  0  0  0  0  0
  -22.7217  -31.3200   21.4183 H   0  0  0  0  0  0
  -23.3783  -35.9501   23.3330 H   0  0  0  0  0  0
  -24.3558  -36.8802   22.2018 H   0  0  0  0  0  0
  -23.7128  -37.6413   23.6621 H   0  0  0  0  0  0
  -26.1097  -31.5076   20.6037 H   0  0  0  0  0  0
  -26.8505  -30.8079   22.0203 H   0  0  0  0  0  0
  -28.0703  -28.8407   21.2694 H   0  0  0  0  0  0
  -25.8035  -25.8409   19.1202 H   0  0  0  0  0  0
  -23.8702  -27.3015   19.1137 H   0  0  0  0  0  0
  -23.8061  -30.6336   19.4442 H   0  0  0  0  0  0
  -22.7360  -29.3191   19.8396 H   0  0  0  0  0  0
  -25.1320  -36.1958   25.0810 H   0  0  0  0  0  0
  -21.0027  -28.3246   24.1367 H   0  0  0  0  0  0
  -21.6750  -26.7665   22.0936 H   0  0  0  0  0  0
  -20.5960  -26.2267   23.3400 H   0  0  0  0  0  0
  -19.7038  -25.6341   21.1086 H   0  0  0  0  0  0
  -19.6765  -27.3197   20.6623 H   0  0  0  0  0  0
  -17.4280  -26.6637   21.4070 H   0  0  0  0  0  0
  -18.0579  -26.0202   22.9105 H   0  0  0  0  0  0
  -19.7974  -30.7259   24.2416 H   0  0  0  0  0  0
  -17.5124  -31.6285   24.5306 H   0  0  0  0  0  0
  -15.5448  -30.3115   23.7724 H   0  0  0  0  0  0
  -15.8721  -28.0924   22.7054 H   0  0  0  0  0  0
  -24.5683  -30.7368   25.7826 H   0  0  0  0  0  0
  -24.8615  -32.3261   26.4555 H   0  0  0  0  0  0
  -25.7629  -30.9450   27.0454 H   0  0  0  0  0  0
  -26.3011  -29.6865   24.1230 H   0  0  0  0  0  0
  -27.3870  -29.7386   25.4932 H   0  0  0  0  0  0
  -27.8904  -30.4374   23.9758 H   0  0  0  0  0  0
  -27.2714  -33.3810   26.1987 H   0  0  0  0  0  0
  -28.3919  -32.6836   25.0455 H   0  0  0  0  0  0
  -28.0584  -31.8634   26.5589 H   0  0  0  0  0  0
  -28.2673  -38.0085   24.7582 H   0  0  0  0  0  0
  -28.1064  -36.2655   24.6300 H   0  0  0  0  0  0
  -27.2327  -37.1473   25.8881 H   0  0  0  0  0  0
  -20.9440  -29.8932   21.6946 H   0  0  0  0  0  0
  -26.0207  -38.2901   24.1385 H   0  0  0  0  0  0
  -30.5855  -22.8905   19.7191 H   0  0  0  0  0  0
  -24.2743  -22.4602   20.3407 H   0  0  0  0  0  0
  -25.5448  -21.2368   20.2677 H   0  0  0  0  0  0
  -25.2777  -22.3215   18.9122 H   0  0  0  0  0  0
  -27.5988  -18.0099   19.6742 H   0  0  0  0  0  0
  -26.9686  -18.7844   21.1248 H   0  0  0  0  0  0
  -27.5357  -17.1406   21.2065 H   0  0  0  0  0  0
  -26.4787  -23.0053   21.6795 H   0  0  0  0  0  0
  -25.8181  -24.2583   20.6826 H   0  0  0  0  0  0
  -31.1780  -17.6219   20.9245 H   0  0  0  0  0  0
  -30.2702  -17.5017   19.4494 H   0  0  0  0  0  0
  -27.7945  -25.1740   18.5835 H   0  0  0  0  0  0
  -29.2804  -24.8416   19.3214 H   0  0  0  0  0  0
  -27.3939  -23.1649   18.8806 H   0  0  0  0  0  0
  -28.9890  -15.7130   21.2071 H   0  0  0  0  0  0
  1 25  1  0  0  0
  1 30  2  0  0  0
  1 84  1  0  0  0
  2  3  1  0  0  0
  2 25  1  0  0  0
  2 88  1  0  0  0
  2 89  1  0  0  0
  3  4  1  0  0  0
  3 90  1  0  0  0
  3 91  1  0  0  0
  4  5  1  0  0  0
  4 92  1  0  0  0
  4 93  1  0  0  0
  5  6  1  0  0  0
  5 26  1  0  0  0
  5 94  1  0  0  0
  6 25  1  0  0  0
  6 95  1  0  0  0
  6 96  1  0  0  0
  7  8  2  0  0  0
  7 26  1  0  0  0
  7 29  1  0  0  0
  8  9  1  0  0  0
  8 22  1  0  0  0
  9 10  1  0  0  0
  9 27  2  0  0  0
 10 11  2  0  0  0
 10 15  1  0  0  0
 11 12  1  0  0  0
 11 97  1  0  0  0
 12 13  2  0  0  0
 12 98  1  0  0  0
 13 14  1  0  0  0
 13 31  1  0  0  0
 14 15  2  0  0  0
 14 99  1  0  0  0
 15100  1  0  0  0
 16 17  2  0  0  0
 16 21  1  0  0  0
 16 31  1  0  0  0
 17 18  1  0  0  0
 17101  1  0  0  0
 18 19  2  0  0  0
 18102  1  0  0  0
 19 20  1  0  0  0
 19 24  1  0  0  0
 20 21  2  0  0  0
 20103  1  0  0  0
 21 23  1  0  0  0
 22 28  1  0  0  0
 22 32  2  0  0  0
 26 27  1  0  0  0
 28104  1  0  0  0
 28105  1  0  0  0
 29106  1  0  0  0
 29107  1  0  0  0
 33 34  1  0  0  0
 33 66  1  0  0  0
 33 70  2  0  0  0
 34 36  1  0  0  0
 34 59  1  0  0  0
 34108  1  0  0  0
 35 44  2  0  0  0
 35 45  1  0  0  0
 35 68  1  0  0  0
 36 56  1  0  0  0
 36109  1  0  0  0
 37 39  1  0  0  0
 37 47  1  0  0  0
 37 66  1  0  0  0
 37110  1  0  0  0
 38 43  2  0  0  0
 38 46  1  0  0  0
 38 47  1  0  0  0
 39 64  1  0  0  0
 39 67  2  0  0  0
 40 52  1  0  0  0
 40 53  2  0  0  0
 40 58  1  0  0  0
 41111  1  0  0  0
 41112  1  0  0  0
 41113  1  0  0  0
 41 48  1  0  0  0
 42 43  1  0  0  0
 42 66  1  0  0  0
 42114  1  0  0  0
 42115  1  0  0  0
 43 44  1  0  0  0
 44116  1  0  0  0
 45 46  2  0  0  0
 45117  1  0  0  0
 46118  1  0  0  0
 47119  1  0  0  0
 47120  1  0  0  0
 48 56  1  0  0  0
 48 65  1  0  0  0
 48121  1  0  0  0
 49 50  1  0  0  0
 49 53  1  0  0  0
 49 64  1  0  0  0
 49122  1  0  0  0
 50 51  1  0  0  0
 50123  1  0  0  0
 50124  1  0  0  0
 51 52  1  0  0  0
 51125  1  0  0  0
 51126  1  0  0  0
 52127  1  0  0  0
 52128  1  0  0  0
 53 54  1  0  0  0
 54 55  2  0  0  0
 54129  1  0  0  0
 55 57  1  0  0  0
 55130  1  0  0  0
 56 69  2  0  0  0
 57 58  2  0  0  0
 57131  1  0  0  0
 58132  1  0  0  0
 59 60  1  0  0  0
 59 61  1  0  0  0
 59 62  1  0  0  0
 60133  1  0  0  0
 60134  1  0  0  0
 60135  1  0  0  0
 61136  1  0  0  0
 61137  1  0  0  0
 61138  1  0  0  0
 62139  1  0  0  0
 62140  1  0  0  0
 62141  1  0  0  0
 63 65  1  0  0  0
 63142  1  0  0  0
 63143  1  0  0  0
 63144  1  0  0  0
 64145  1  0  0  0
 65146  1  0  0  0
 68 77  1  0  0  0
 71 81  2  0  0  0
 71 83  1  0  0  0
 71147  1  0  0  0
 72 79  1  0  0  0
 72 81  1  0  0  0
 72 82  2  0  0  0
 73 75  1  0  0  0
 73148  1  0  0  0
 73149  1  0  0  0
 73150  1  0  0  0
 74151  1  0  0  0
 74152  1  0  0  0
 74153  1  0  0  0
 74 79  1  0  0  0
 75154  1  0  0  0
 75155  1  0  0  0
 75 78  1  0  0  0
 76 79  1  0  0  0
 76 84  1  0  0  0
 76156  1  0  0  0
 76157  1  0  0  0
 77 78  1  0  0  0
 77158  1  0  0  0
 77159  1  0  0  0
 78 83  1  0  0  0
 78160  1  0  0  0
 79 80  1  0  0  0
 80 85  1  0  0  0
 80 86  1  0  0  0
 80 87  1  0  0  0
 82 83  1  0  0  0
 84161  1  0  0  0
M  ISO  4   1 100  68 101  77 101  84 100
M  END
> <chiral flag>
0

> <version>
0

> <s_m_source_file>
/data/baiqing/PycharmProjects/Reinvent-master-3.2/result/LINK_invent/BTK/process_docking_weight1_custom_sum_contain_oxygen_bond_distance_aromatic_linkinvent_7_9_3/rearranged_h_0061.sdf

> <i_m_source_file_index>
46

> <r_mmod_Potential_Energy-OPLS-2005>
455.410247802734

> <r_mmod_Stretch_Energy-OPLS-2005>
162.828872680664

> <r_mmod_Bend_Energy-OPLS-2005>
255.558380126953

> <r_mmod_Torsional_Energy-OPLS-2005>
248.277450561523

> <r_mmod_Improper_Torsional_Energy-OPLS-2005>
7.1281213760376

> <r_mmod_Van_der_Waal_Energy-OPLS-2005>
120.189643859863

> <r_mmod_Electrostatic_Energy-OPLS-2005>
-236.112518310547

> <r_mmod_Solvation_Energy-OPLS-2005>
-221.998458862305

> <b_mmod_Minimization_Converged-OPLS-2005>
0

> <r_mmod_RMS_Derivative-OPLS-2005>
10.1428327560425

$$$$
48
                    3D
 Structure written by MMmdl.
154162  0  0  1  0            999 V2000
  -30.5236  -15.0143   20.4041 C   0  0  0  0  0  0
  -30.4427  -12.6353   19.4960 C   0  0  0  0  0  0
  -29.5226  -12.5321   18.2566 C   0  0  0  0  0  0
  -28.0598  -12.3076   18.6812 C   0  0  0  0  0  0
  -27.6266  -13.2526   19.8315 C   0  0  2  0  0  0
  -28.6704  -13.3149   20.9663 C   0  0  0  0  0  0
  -25.2462  -13.8230   20.5694 C   0  0  0  0  0  0
  -24.1788  -13.0451   20.9228 C   0  0  0  0  0  0
  -24.6399  -11.6932   20.8751 C   0  0  0  0  0  0
  -23.9077  -10.4299   21.0400 C   0  0  0  0  0  0
  -24.3627   -9.4218   21.9179 C   0  0  0  0  0  0
  -23.6298   -8.2255   22.0753 C   0  0  0  0  0  0
  -22.4280   -8.0286   21.3547 C   0  0  0  0  0  0
  -21.9918   -9.0262   20.4650 C   0  0  0  0  0  0
  -22.7245  -10.2142   20.3055 C   0  0  0  0  0  0
  -21.6866   -6.0733   22.5271 C   0  0  0  0  0  0
  -21.4024   -6.5638   23.8203 C   0  0  0  0  0  0
  -21.3661   -5.6796   24.9165 C   0  0  0  0  0  0
  -21.6043   -4.3055   24.7216 C   0  0  0  0  0  0
  -21.8827   -3.8144   23.4336 C   0  0  0  0  0  0
  -21.9199   -4.6961   22.3393 C   0  0  0  0  0  0
  -22.7812  -13.5213   21.1872 C   0  0  0  0  0  0
  -22.1674   -4.2143   21.0970 F   0  0  0  0  0  0
  -21.5616   -3.4538   25.7729 F   0  0  0  0  0  0
  -29.9349  -13.7458   20.3567 N   0  0  0  0  0  0
  -26.2878  -12.9463   20.3216 N   0  0  0  0  0  0
  -25.9330  -11.6592   20.5738 N   0  0  0  0  0  0
  -22.0470  -12.8201   22.0434 N   0  0  0  0  0  0
  -25.4121  -15.1955   20.4072 N   0  0  0  0  0  0
  -31.7354  -15.0673   20.1676 O   0  0  0  0  0  0
  -21.6656   -6.8874   21.4232 O   0  0  0  0  0  0
  -22.3483  -14.5507   20.6704 O   0  0  0  0  0  0
  -24.6487  -31.8402   23.1867 C   0  0  0  0  0  0
  -25.9237  -32.4677   23.8267 C   0  0  1  0  0  0
  -27.2135  -27.0860   20.1504 C   0  0  0  0  0  0
  -25.5969  -33.8485   24.2183 N   0  0  0  0  0  0
  -23.4543  -30.4604   21.5333 C   0  0  2  0  0  0
  -24.9040  -28.8833   20.1108 C   0  0  0  0  0  0
  -22.7593  -29.4530   22.4847 C   0  0  0  0  0  0
  -18.0309  -28.1393   22.8474 C   0  0  0  0  0  0
  -24.1496  -36.7250   23.2639 C   0  0  0  0  0  0
  -26.0151  -30.6976   21.3943 C   0  0  0  0  0  0
  -26.0859  -29.3047   20.7341 C   0  0  0  0  0  0
  -27.2397  -28.4235   20.7376 C   0  0  0  0  0  0
  -26.0024  -26.7868   19.4834 C   0  0  0  0  0  0
  -24.8785  -27.6388   19.4693 C   0  0  0  0  0  0
  -23.6837  -29.7916   20.1532 C   0  0  0  0  0  0
  -25.4127  -36.3022   24.0312 C   0  0  1  0  0  0
  -20.5925  -28.3727   23.1224 C   0  0  2  0  0  0
  -20.6796  -26.9428   22.5400 C   0  0  0  0  0  0
  -19.5769  -26.6379   21.5214 C   0  0  0  0  0  0
  -18.1951  -26.7931   22.1622 C   0  0  0  0  0  0
  -19.1566  -28.8879   23.2838 C   0  0  0  0  0  0
  -18.9481  -30.1473   23.8866 C   0  0  0  0  0  0
  -17.6477  -30.6589   24.0556 C   0  0  0  0  0  0
  -25.9080  -34.9398   23.5055 C   0  0  0  0  0  0
  -16.5368  -29.9080   23.6334 C   0  0  0  0  0  0
  -16.7293  -28.6496   23.0359 C   0  0  0  0  0  0
  -26.4538  -31.6553   25.0724 C   0  0  0  0  0  0
  -25.3718  -31.3752   26.1417 C   0  0  0  0  0  0
  -27.0408  -30.2940   24.6340 C   0  0  0  0  0  0
  -27.6061  -32.4329   25.7513 C   0  0  0  0  0  0
  -27.5579  -37.1781   24.8462 C   0  0  0  0  0  0
  -21.4279  -29.3048   22.3594 N   0  0  0  0  0  0
  -26.4288  -37.3740   23.9409 N   0  0  0  0  0  0
  -24.7263  -31.0214   22.0927 N   0  0  0  0  0  0
  -23.4211  -28.8071   23.3013 O   0  0  0  0  0  0
  -28.2339  -26.0465   20.2224 O   0  0  0  0  0  0
  -26.5667  -34.8894   22.4634 O   0  0  0  0  0  0
  -23.5590  -32.1306   23.7048 O   0  0  0  0  0  0
  -30.0489  -22.8212   20.4380 C   0  0  0  0  0  0
  -28.7138  -23.1167   20.2235 C   0  0  0  0  0  0
  -29.1275  -20.7145   20.2722 C   0  0  0  0  0  0
  -28.3837  -18.6885   18.7884 C   0  0  0  0  0  0
  -26.7815  -21.4694   19.8969 C   0  0  0  0  0  0
  -27.8467  -24.5276   20.0315 C   0  0  0  0  0  0
  -30.0630  -17.7889   20.5277 C   0  0  0  0  0  0
  -28.9485  -19.0410   20.1766 C   0  0  1  0  0  0
  -28.1980  -21.7649   20.1368 N   0  0  0  0  0  0
  -30.2539  -21.4300   20.4577 N   0  3  0  0  0  0
  -29.7417  -16.2137   20.5131 N   0  0  0  0  0  0
  -31.4706  -12.8100   19.1749 H   0  0  0  0  0  0
  -30.4585  -11.6953   20.0494 H   0  0  0  0  0  0
  -29.8533  -11.7212   17.6067 H   0  0  0  0  0  0
  -29.5967  -13.4475   17.6676 H   0  0  0  0  0  0
  -27.9712  -11.2707   19.0068 H   0  0  0  0  0  0
  -27.3936  -12.4157   17.8249 H   0  0  0  0  0  0
  -27.5788  -14.2462   19.3847 H   0  0  0  0  0  0
  -28.7792  -12.3485   21.4610 H   0  0  0  0  0  0
  -28.3607  -14.0248   21.7343 H   0  0  0  0  0  0
  -25.2773   -9.5696   22.4751 H   0  0  0  0  0  0
  -24.0013   -7.4647   22.7476 H   0  0  0  0  0  0
  -21.0849   -8.8771   19.8955 H   0  0  0  0  0  0
  -22.3689  -10.9680   19.6165 H   0  0  0  0  0  0
  -21.2030   -7.6153   23.9698 H   0  0  0  0  0  0
  -21.1474   -6.0527   25.9064 H   0  0  0  0  0  0
  -22.0605   -2.7605   23.2838 H   0  0  0  0  0  0
  -22.4126  -11.9877   22.4822 H   0  0  0  0  0  0
  -21.1083  -13.1204   22.2640 H   0  0  0  0  0  0
  -24.6343  -15.8406   20.4925 H   0  0  0  0  0  0
  -26.2377  -15.6253   20.0126 H   0  0  0  0  0  0
  -26.7301  -32.5271   23.0986 H   0  0  0  0  0  0
  -25.0091  -33.9593   25.0315 H   0  0  0  0  0  0
  -22.7590  -31.2883   21.3782 H   0  0  0  0  0  0
  -23.3770  -35.9569   23.3273 H   0  0  0  0  0  0
  -24.3581  -36.8916   22.2058 H   0  0  0  0  0  0
  -23.7241  -37.6431   23.6698 H   0  0  0  0  0  0
  -26.1771  -31.4507   20.6217 H   0  0  0  0  0  0
  -26.8825  -30.7480   22.0404 H   0  0  0  0  0  0
  -28.1336  -28.7403   21.2561 H   0  0  0  0  0  0
  -25.8717  -25.8427   18.9799 H   0  0  0  0  0  0
  -23.9786  -27.3121   18.9664 H   0  0  0  0  0  0
  -23.8258  -30.5678   19.4008 H   0  0  0  0  0  0
  -22.7966  -29.2391   19.8381 H   0  0  0  0  0  0
  -25.1317  -36.1841   25.0806 H   0  0  0  0  0  0
  -21.0012  -28.3324   24.1349 H   0  0  0  0  0  0
  -20.5698  -26.2344   23.3626 H   0  0  0  0  0  0
  -21.6661  -26.7437   22.1197 H   0  0  0  0  0  0
  -19.6934  -25.6283   21.1263 H   0  0  0  0  0  0
  -19.6703  -27.3171   20.6732 H   0  0  0  0  0  0
  -17.4220  -26.6673   21.4024 H   0  0  0  0  0  0
  -18.0346  -26.0077   22.9022 H   0  0  0  0  0  0
  -19.7955  -30.7299   24.2222 H   0  0  0  0  0  0
  -17.5027  -31.6266   24.5164 H   0  0  0  0  0  0
  -15.5365  -30.2971   23.7675 H   0  0  0  0  0  0
  -15.8695  -28.0804   22.7095 H   0  0  0  0  0  0
  -24.5876  -30.7128   25.7730 H   0  0  0  0  0  0
  -24.8933  -32.2939   26.4818 H   0  0  0  0  0  0
  -25.7989  -30.8923   27.0215 H   0  0  0  0  0  0
  -26.3032  -29.6653   24.1337 H   0  0  0  0  0  0
  -27.3984  -29.7249   25.4931 H   0  0  0  0  0  0
  -27.8960  -30.4155   23.9693 H   0  0  0  0  0  0
  -27.2639  -33.3633   26.2052 H   0  0  0  0  0  0
  -28.3889  -32.6887   25.0364 H   0  0  0  0  0  0
  -28.0714  -31.8491   26.5462 H   0  0  0  0  0  0
  -28.2579  -38.0095   24.7524 H   0  0  0  0  0  0
  -28.1097  -36.2626   24.6275 H   0  0  0  0  0  0
  -27.2297  -37.1407   25.8864 H   0  0  0  0  0  0
  -20.9498  -29.8762   21.6769 H   0  0  0  0  0  0
  -26.0153  -38.2805   24.1420 H   0  0  0  0  0  0
  -30.8778  -23.5032   20.5638 H   0  0  0  0  0  0
  -27.4650  -19.2249   18.5637 H   0  0  0  0  0  0
  -28.1480  -17.6269   18.7086 H   0  0  0  0  0  0
  -29.1056  -18.9228   18.0061 H   0  0  0  0  0  0
  -26.1601  -22.2706   20.2938 H   0  0  0  0  0  0
  -26.5026  -20.5411   20.3938 H   0  0  0  0  0  0
  -26.6105  -21.3842   18.8236 H   0  0  0  0  0  0
  -26.9590  -24.3998   20.6513 H   0  0  0  0  0  0
  -27.4933  -24.4591   19.0037 H   0  0  0  0  0  0
  -30.4540  -17.9904   21.5256 H   0  0  0  0  0  0
  -30.9188  -17.9278   19.8664 H   0  0  0  0  0  0
  -28.1388  -18.8744   20.8875 H   0  0  0  0  0  0
  -31.1648  -21.0072   20.5872 H   0  0  0  0  0  0
  -28.7614  -16.0127   20.6441 H   0  0  0  0  0  0
  1 25  1  0  0  0
  1 30  2  0  0  0
  1 81  1  0  0  0
  2  3  1  0  0  0
  2 25  1  0  0  0
  2 82  1  0  0  0
  2 83  1  0  0  0
  3  4  1  0  0  0
  3 84  1  0  0  0
  3 85  1  0  0  0
  4  5  1  0  0  0
  4 86  1  0  0  0
  4 87  1  0  0  0
  5  6  1  0  0  0
  5 26  1  0  0  0
  5 88  1  0  0  0
  6 25  1  0  0  0
  6 89  1  0  0  0
  6 90  1  0  0  0
  7  8  2  0  0  0
  7 26  1  0  0  0
  7 29  1  0  0  0
  8  9  1  0  0  0
  8 22  1  0  0  0
  9 10  1  0  0  0
  9 27  2  0  0  0
 10 11  2  0  0  0
 10 15  1  0  0  0
 11 12  1  0  0  0
 11 91  1  0  0  0
 12 13  2  0  0  0
 12 92  1  0  0  0
 13 14  1  0  0  0
 13 31  1  0  0  0
 14 15  2  0  0  0
 14 93  1  0  0  0
 15 94  1  0  0  0
 16 17  2  0  0  0
 16 21  1  0  0  0
 16 31  1  0  0  0
 17 18  1  0  0  0
 17 95  1  0  0  0
 18 19  2  0  0  0
 18 96  1  0  0  0
 19 20  1  0  0  0
 19 24  1  0  0  0
 20 21  2  0  0  0
 20 97  1  0  0  0
 21 23  1  0  0  0
 22 28  1  0  0  0
 22 32  2  0  0  0
 26 27  1  0  0  0
 28 98  1  0  0  0
 28 99  1  0  0  0
 29100  1  0  0  0
 29101  1  0  0  0
 33 34  1  0  0  0
 33 66  1  0  0  0
 33 70  2  0  0  0
 34 36  1  0  0  0
 34 59  1  0  0  0
 34102  1  0  0  0
 35 44  2  0  0  0
 35 45  1  0  0  0
 35 68  1  0  0  0
 36 56  1  0  0  0
 36103  1  0  0  0
 37 39  1  0  0  0
 37 47  1  0  0  0
 37 66  1  0  0  0
 37104  1  0  0  0
 38 43  2  0  0  0
 38 46  1  0  0  0
 38 47  1  0  0  0
 39 64  1  0  0  0
 39 67  2  0  0  0
 40 52  1  0  0  0
 40 53  2  0  0  0
 40 58  1  0  0  0
 41105  1  0  0  0
 41106  1  0  0  0
 41107  1  0  0  0
 41 48  1  0  0  0
 42 43  1  0  0  0
 42 66  1  0  0  0
 42108  1  0  0  0
 42109  1  0  0  0
 43 44  1  0  0  0
 44110  1  0  0  0
 45 46  2  0  0  0
 45111  1  0  0  0
 46112  1  0  0  0
 47113  1  0  0  0
 47114  1  0  0  0
 48 56  1  0  0  0
 48 65  1  0  0  0
 48115  1  0  0  0
 49 50  1  0  0  0
 49 53  1  0  0  0
 49 64  1  0  0  0
 49116  1  0  0  0
 50 51  1  0  0  0
 50117  1  0  0  0
 50118  1  0  0  0
 51 52  1  0  0  0
 51119  1  0  0  0
 51120  1  0  0  0
 52121  1  0  0  0
 52122  1  0  0  0
 53 54  1  0  0  0
 54 55  2  0  0  0
 54123  1  0  0  0
 55 57  1  0  0  0
 55124  1  0  0  0
 56 69  2  0  0  0
 57 58  2  0  0  0
 57125  1  0  0  0
 58126  1  0  0  0
 59 60  1  0  0  0
 59 61  1  0  0  0
 59 62  1  0  0  0
 60127  1  0  0  0
 60128  1  0  0  0
 60129  1  0  0  0
 61130  1  0  0  0
 61131  1  0  0  0
 61132  1  0  0  0
 62133  1  0  0  0
 62134  1  0  0  0
 62135  1  0  0  0
 63 65  1  0  0  0
 63136  1  0  0  0
 63137  1  0  0  0
 63138  1  0  0  0
 64139  1  0  0  0
 65140  1  0  0  0
 68 76  1  0  0  0
 71 72  2  0  0  0
 71 80  1  0  0  0
 71141  1  0  0  0
 72 76  1  0  0  0
 72 79  1  0  0  0
 73 78  1  0  0  0
 73 79  1  0  0  0
 73 80  2  0  0  0
 74142  1  0  0  0
 74143  1  0  0  0
 74144  1  0  0  0
 74 78  1  0  0  0
 75 79  1  0  0  0
 75145  1  0  0  0
 75146  1  0  0  0
 75147  1  0  0  0
 76148  1  0  0  0
 76149  1  0  0  0
 77 78  1  0  0  0
 77 81  1  0  0  0
 77150  1  0  0  0
 77151  1  0  0  0
 78152  1  0  0  0
 80153  1  0  0  0
 81154  1  0  0  0
M  CHG  1  80   1
M  ISO  4   1 100  68 101  76 101  81 100
M  END
> <chiral flag>
0

> <version>
0

> <s_m_source_file>
/data/baiqing/PycharmProjects/Reinvent-master-3.2/result/LINK_invent/BTK/process_docking_weight1_custom_sum_contain_oxygen_bond_distance_aromatic_linkinvent_7_9_3/rearranged_h_0061.sdf

> <i_m_source_file_index>
47

> <r_mmod_Potential_Energy-OPLS-2005>
504.960113525391

> <r_mmod_Stretch_Energy-OPLS-2005>
318.446594238281

> <r_mmod_Bend_Energy-OPLS-2005>
279.073547363281

> <r_mmod_Torsional_Energy-OPLS-2005>
227.856048583984

> <r_mmod_Improper_Torsional_Energy-OPLS-2005>
4.6067214012146

> <r_mmod_Van_der_Waal_Energy-OPLS-2005>
111.936347961426

> <r_mmod_Electrostatic_Energy-OPLS-2005>
-242.977813720703

> <r_mmod_Solvation_Energy-OPLS-2005>
-439.237457275391

> <b_mmod_Minimization_Converged-OPLS-2005>
0

> <r_mmod_RMS_Derivative-OPLS-2005>
1.37576866149902

$$$$
49
                    3D
 Structure written by MMmdl.
168176  0  0  1  0            999 V2000
  -30.7460  -14.4333   20.6237 C   0  0  0  0  0  0
  -30.4130  -12.3040   19.4186 C   0  0  0  0  0  0
  -29.4889  -12.5162   18.2042 C   0  0  0  0  0  0
  -28.0123  -12.3731   18.6176 C   0  0  0  0  0  0
  -27.6618  -13.2102   19.8769 C   0  0  2  0  0  0
  -28.7013  -12.9931   20.9992 C   0  0  0  0  0  0
  -25.2587  -13.8175   20.5686 C   0  0  0  0  0  0
  -24.1839  -13.0448   20.9176 C   0  0  0  0  0  0
  -24.6394  -11.6915   20.8737 C   0  0  0  0  0  0
  -23.9063  -10.4297   21.0407 C   0  0  0  0  0  0
  -24.3615   -9.4213   21.9186 C   0  0  0  0  0  0
  -23.6291   -8.2248   22.0756 C   0  0  0  0  0  0
  -22.4277   -8.0283   21.3543 C   0  0  0  0  0  0
  -21.9910   -9.0258   20.4648 C   0  0  0  0  0  0
  -22.7236  -10.2139   20.3058 C   0  0  0  0  0  0
  -21.6853   -6.0736   22.5279 C   0  0  0  0  0  0
  -21.4015   -6.5641   23.8211 C   0  0  0  0  0  0
  -21.3660   -5.6794   24.9176 C   0  0  0  0  0  0
  -21.6043   -4.3056   24.7227 C   0  0  0  0  0  0
  -21.8819   -3.8148   23.4348 C   0  0  0  0  0  0
  -21.9193   -4.6964   22.3404 C   0  0  0  0  0  0
  -22.7862  -13.5247   21.1840 C   0  0  0  0  0  0
  -22.1661   -4.2147   21.0980 F   0  0  0  0  0  0
  -21.5629   -3.4541   25.7740 F   0  0  0  0  0  0
  -30.0364  -13.2853   20.4500 N   0  0  0  0  0  0
  -26.3023  -12.9348   20.3377 N   0  0  0  0  0  0
  -25.9323  -11.6503   20.5770 N   0  0  0  0  0  0
  -22.0499  -12.8237   22.0392 N   0  0  0  0  0  0
  -25.4326  -15.1890   20.4092 N   0  0  0  0  0  0
  -31.8339  -14.6294   20.0755 O   0  0  0  0  0  0
  -21.6642   -6.8879   21.4240 O   0  0  0  0  0  0
  -22.3553  -14.5557   20.6695 O   0  0  0  0  0  0
  -24.6138  -31.8683   23.2117 C   0  0  0  0  0  0
  -25.9045  -32.4819   23.8402 C   0  0  1  0  0  0
  -27.2313  -27.4327   20.1054 C   0  0  0  0  0  0
  -25.5921  -33.8617   24.2341 N   0  0  0  0  0  0
  -23.4024  -30.4906   21.5508 C   0  0  2  0  0  0
  -24.8522  -28.9566   20.1161 C   0  0  0  0  0  0
  -22.7404  -29.4649   22.4990 C   0  0  0  0  0  0
  -18.0271  -28.1380   22.8469 C   0  0  0  0  0  0
  -24.1493  -36.7312   23.2634 C   0  0  0  0  0  0
  -25.9303  -30.8310   21.3687 C   0  0  0  0  0  0
  -26.0093  -29.4626   20.7236 C   0  0  0  0  0  0
  -27.2036  -28.7041   20.7247 C   0  0  0  0  0  0
  -26.0679  -26.9530   19.4716 C   0  0  0  0  0  0
  -24.8743  -27.6988   19.4894 C   0  0  0  0  0  0
  -23.6135  -29.8227   20.1652 C   0  0  0  0  0  0
  -25.4111  -36.3105   24.0333 C   0  0  1  0  0  0
  -20.5854  -28.3665   23.1309 C   0  0  2  0  0  0
  -20.6769  -26.9401   22.5413 C   0  0  0  0  0  0
  -19.5756  -26.6382   21.5202 C   0  0  0  0  0  0
  -18.1927  -26.7923   22.1606 C   0  0  0  0  0  0
  -19.1515  -28.8840   23.2882 C   0  0  0  0  0  0
  -18.9452  -30.1444   23.8898 C   0  0  0  0  0  0
  -17.6457  -30.6587   24.0558 C   0  0  0  0  0  0
  -25.9035  -34.9469   23.5131 C   0  0  0  0  0  0
  -16.5346  -29.9085   23.6327 C   0  0  0  0  0  0
  -16.7260  -28.6503   23.0337 C   0  0  0  0  0  0
  -26.4487  -31.6589   25.0721 C   0  0  0  0  0  0
  -25.3758  -31.3683   26.1471 C   0  0  0  0  0  0
  -27.0325  -30.3033   24.6096 C   0  0  0  0  0  0
  -27.6069  -32.4301   25.7484 C   0  0  0  0  0  0
  -27.5582  -37.1803   24.8458 C   0  0  0  0  0  0
  -21.4134  -29.3027   22.3719 N   0  0  0  0  0  0
  -26.4295  -37.3789   23.9404 N   0  0  0  0  0  0
  -24.6667  -31.0776   22.1026 N   0  0  0  0  0  0
  -23.4173  -28.8187   23.3032 O   0  0  0  0  0  0
  -28.3768  -26.6713   20.0444 O   0  0  0  0  0  0
  -26.5582  -34.8920   22.4680 O   0  0  0  0  0  0
  -23.5331  -32.1437   23.7510 O   0  0  0  0  0  0
  -26.0663  -23.5021   21.7757 C   0  0  0  0  0  0
  -27.9835  -22.3730   21.8288 C   0  0  0  0  0  0
  -27.9804  -24.5802   21.4181 C   0  0  0  0  0  0
  -24.5601  -23.5288   21.9200 C   0  0  0  0  0  0
  -29.9662  -17.5985   19.5498 C   0  0  0  0  0  0
  -31.5806  -18.9048   20.9575 C   0  0  0  0  0  0
  -27.4937  -19.8094   20.4072 C   0  0  0  0  0  0
  -28.7159  -21.0698   22.2043 C   0  0  0  0  0  0
  -28.7223  -25.9199   21.2237 C   0  0  0  0  0  0
  -30.8224  -16.6559   21.7758 C   0  0  0  0  0  0
  -29.2071  -18.6630   21.7699 C   0  0  0  0  0  0
  -30.3681  -17.9482   21.0008 C   0  0  0  0  0  0
  -26.6593  -22.3300   21.9419 N   0  0  0  0  0  0
  -26.6602  -24.6563   21.5339 N   0  0  0  0  0  0
  -28.7079  -23.4594   21.5404 N   0  0  0  0  0  0
  -30.1789  -15.3838   21.3910 N   0  0  0  0  0  0
  -28.7495  -19.9699   21.1862 N   0  3  1  0  0  0
  -31.4584  -12.3886   19.1168 H   0  0  0  0  0  0
  -30.3018  -11.2916   19.8104 H   0  0  0  0  0  0
  -29.7276  -11.7997   17.4171 H   0  0  0  0  0  0
  -29.6582  -13.5071   17.7799 H   0  0  0  0  0  0
  -27.8222  -11.3165   18.8098 H   0  0  0  0  0  0
  -27.3606  -12.6518   17.7887 H   0  0  0  0  0  0
  -27.7081  -14.2592   19.5826 H   0  0  0  0  0  0
  -28.6715  -11.9603   21.3492 H   0  0  0  0  0  0
  -28.4574  -13.6008   21.8707 H   0  0  0  0  0  0
  -25.2762   -9.5689   22.4761 H   0  0  0  0  0  0
  -24.0002   -7.4641   22.7477 H   0  0  0  0  0  0
  -21.0844   -8.8779   19.8951 H   0  0  0  0  0  0
  -22.3697  -10.9681   19.6168 H   0  0  0  0  0  0
  -21.2006   -7.6149   23.9714 H   0  0  0  0  0  0
  -21.1483   -6.0526   25.9078 H   0  0  0  0  0  0
  -22.0597   -2.7609   23.2852 H   0  0  0  0  0  0
  -22.4107  -11.9887   22.4768 H   0  0  0  0  0  0
  -21.1119  -13.1269   22.2601 H   0  0  0  0  0  0
  -24.6661  -15.8455   20.5066 H   0  0  0  0  0  0
  -26.2864  -15.6203   20.0791 H   0  0  0  0  0  0
  -26.7114  -32.5545   23.1165 H   0  0  0  0  0  0
  -25.0105  -33.9777   25.0512 H   0  0  0  0  0  0
  -22.6907  -31.3070   21.4106 H   0  0  0  0  0  0
  -23.3748  -35.9650   23.3301 H   0  0  0  0  0  0
  -24.3580  -36.8922   22.2046 H   0  0  0  0  0  0
  -23.7251  -37.6519   23.6647 H   0  0  0  0  0  0
  -26.0393  -31.5954   20.5978 H   0  0  0  0  0  0
  -26.8190  -30.8882   21.9855 H   0  0  0  0  0  0
  -28.0982  -29.0922   21.1917 H   0  0  0  0  0  0
  -26.0838  -25.9908   18.9780 H   0  0  0  0  0  0
  -23.9871  -27.3090   19.0096 H   0  0  0  0  0  0
  -23.7190  -30.5969   19.4041 H   0  0  0  0  0  0
  -22.7396  -29.2387   19.8714 H   0  0  0  0  0  0
  -25.1286  -36.1968   25.0822 H   0  0  0  0  0  0
  -20.9930  -28.3241   24.1437 H   0  0  0  0  0  0
  -20.5688  -26.2269   23.3599 H   0  0  0  0  0  0
  -21.6642  -26.7465   22.1200 H   0  0  0  0  0  0
  -19.6928  -25.6293   21.1235 H   0  0  0  0  0  0
  -19.6712  -27.3196   20.6731 H   0  0  0  0  0  0
  -17.4201  -26.6657   21.4011 H   0  0  0  0  0  0
  -18.0328  -26.0080   22.9017 H   0  0  0  0  0  0
  -19.7934  -30.7239   24.2288 H   0  0  0  0  0  0
  -17.5019  -31.6272   24.5156 H   0  0  0  0  0  0
  -15.5348  -30.2989   23.7664 H   0  0  0  0  0  0
  -15.8651  -28.0834   22.7048 H   0  0  0  0  0  0
  -24.5945  -30.7019   25.7799 H   0  0  0  0  0  0
  -24.8937  -32.2834   26.4923 H   0  0  0  0  0  0
  -25.8118  -30.8850   27.0226 H   0  0  0  0  0  0
  -26.2866  -29.6771   24.1188 H   0  0  0  0  0  0
  -27.4131  -29.7288   25.4550 H   0  0  0  0  0  0
  -27.8685  -30.4340   23.9220 H   0  0  0  0  0  0
  -27.2706  -33.3595   26.2089 H   0  0  0  0  0  0
  -28.3875  -32.6865   25.0311 H   0  0  0  0  0  0
  -28.0751  -31.8407   26.5379 H   0  0  0  0  0  0
  -28.2592  -38.0110   24.7523 H   0  0  0  0  0  0
  -28.1090  -36.2641   24.6272 H   0  0  0  0  0  0
  -27.2294  -37.1429   25.8859 H   0  0  0  0  0  0
  -20.9304  -29.8738   21.6927 H   0  0  0  0  0  0
  -26.0188  -38.2864   24.1424 H   0  0  0  0  0  0
  -24.1123  -22.6413   21.4732 H   0  0  0  0  0  0
  -24.1278  -24.4059   21.4371 H   0  0  0  0  0  0
  -24.2898  -23.5535   22.9748 H   0  0  0  0  0  0
  -30.7604  -17.0466   19.0455 H   0  0  0  0  0  0
  -29.7802  -18.4880   18.9485 H   0  0  0  0  0  0
  -29.0662  -16.9835   19.5130 H   0  0  0  0  0  0
  -32.4335  -18.4418   20.4584 H   0  0  0  0  0  0
  -31.9068  -19.1825   21.9613 H   0  0  0  0  0  0
  -31.3672  -19.8251   20.4140 H   0  0  0  0  0  0
  -27.2684  -20.6915   19.8077 H   0  0  0  0  0  0
  -26.6446  -19.6158   21.0643 H   0  0  0  0  0  0
  -27.5608  -18.9750   19.7104 H   0  0  0  0  0  0
  -28.2315  -20.6940   23.1072 H   0  0  0  0  0  0
  -29.7389  -21.3074   22.4973 H   0  0  0  0  0  0
  -29.7935  -25.7231   21.1717 H   0  0  0  0  0  0
  -28.5796  -26.5337   22.1146 H   0  0  0  0  0  0
  -30.6744  -16.7884   22.8485 H   0  0  0  0  0  0
  -31.9038  -16.5337   21.6823 H   0  0  0  0  0  0
  -29.5440  -18.8308   22.7951 H   0  0  0  0  0  0
  -28.3597  -17.9825   21.8729 H   0  0  0  0  0  0
  -29.2828  -15.1644   21.7995 H   0  0  0  0  0  0
  -29.4536  -20.2689   20.5297 H   0  0  0  0  0  0
  1 25  1  0  0  0
  1 30  2  0  0  0
  1 86  1  0  0  0
  2  3  1  0  0  0
  2 25  1  0  0  0
  2 88  1  0  0  0
  2 89  1  0  0  0
  3  4  1  0  0  0
  3 90  1  0  0  0
  3 91  1  0  0  0
  4  5  1  0  0  0
  4 92  1  0  0  0
  4 93  1  0  0  0
  5  6  1  0  0  0
  5 26  1  0  0  0
  5 94  1  0  0  0
  6 25  1  0  0  0
  6 95  1  0  0  0
  6 96  1  0  0  0
  7  8  2  0  0  0
  7 26  1  0  0  0
  7 29  1  0  0  0
  8  9  1  0  0  0
  8 22  1  0  0  0
  9 10  1  0  0  0
  9 27  2  0  0  0
 10 11  2  0  0  0
 10 15  1  0  0  0
 11 12  1  0  0  0
 11 97  1  0  0  0
 12 13  2  0  0  0
 12 98  1  0  0  0
 13 14  1  0  0  0
 13 31  1  0  0  0
 14 15  2  0  0  0
 14 99  1  0  0  0
 15100  1  0  0  0
 16 17  2  0  0  0
 16 21  1  0  0  0
 16 31  1  0  0  0
 17 18  1  0  0  0
 17101  1  0  0  0
 18 19  2  0  0  0
 18102  1  0  0  0
 19 20  1  0  0  0
 19 24  1  0  0  0
 20 21  2  0  0  0
 20103  1  0  0  0
 21 23  1  0  0  0
 22 28  1  0  0  0
 22 32  2  0  0  0
 26 27  1  0  0  0
 28104  1  0  0  0
 28105  1  0  0  0
 29106  1  0  0  0
 29107  1  0  0  0
 33 34  1  0  0  0
 33 66  1  0  0  0
 33 70  2  0  0  0
 34 36  1  0  0  0
 34 59  1  0  0  0
 34108  1  0  0  0
 35 44  2  0  0  0
 35 45  1  0  0  0
 35 68  1  0  0  0
 36 56  1  0  0  0
 36109  1  0  0  0
 37 39  1  0  0  0
 37 47  1  0  0  0
 37 66  1  0  0  0
 37110  1  0  0  0
 38 43  2  0  0  0
 38 46  1  0  0  0
 38 47  1  0  0  0
 39 64  1  0  0  0
 39 67  2  0  0  0
 40 52  1  0  0  0
 40 53  2  0  0  0
 40 58  1  0  0  0
 41111  1  0  0  0
 41112  1  0  0  0
 41113  1  0  0  0
 41 48  1  0  0  0
 42 43  1  0  0  0
 42 66  1  0  0  0
 42114  1  0  0  0
 42115  1  0  0  0
 43 44  1  0  0  0
 44116  1  0  0  0
 45 46  2  0  0  0
 45117  1  0  0  0
 46118  1  0  0  0
 47119  1  0  0  0
 47120  1  0  0  0
 48 56  1  0  0  0
 48 65  1  0  0  0
 48121  1  0  0  0
 49 50  1  0  0  0
 49 53  1  0  0  0
 49 64  1  0  0  0
 49122  1  0  0  0
 50 51  1  0  0  0
 50123  1  0  0  0
 50124  1  0  0  0
 51 52  1  0  0  0
 51125  1  0  0  0
 51126  1  0  0  0
 52127  1  0  0  0
 52128  1  0  0  0
 53 54  1  0  0  0
 54 55  2  0  0  0
 54129  1  0  0  0
 55 57  1  0  0  0
 55130  1  0  0  0
 56 69  2  0  0  0
 57 58  2  0  0  0
 57131  1  0  0  0
 58132  1  0  0  0
 59 60  1  0  0  0
 59 61  1  0  0  0
 59 62  1  0  0  0
 60133  1  0  0  0
 60134  1  0  0  0
 60135  1  0  0  0
 61136  1  0  0  0
 61137  1  0  0  0
 61138  1  0  0  0
 62139  1  0  0  0
 62140  1  0  0  0
 62141  1  0  0  0
 63 65  1  0  0  0
 63142  1  0  0  0
 63143  1  0  0  0
 63144  1  0  0  0
 64145  1  0  0  0
 65146  1  0  0  0
 68 79  1  0  0  0
 71 74  1  0  0  0
 71 83  2  0  0  0
 71 84  1  0  0  0
 72 78  1  0  0  0
 72 83  1  0  0  0
 72 85  2  0  0  0
 73 79  1  0  0  0
 73 84  2  0  0  0
 73 85  1  0  0  0
 74147  1  0  0  0
 74148  1  0  0  0
 74149  1  0  0  0
 75150  1  0  0  0
 75151  1  0  0  0
 75152  1  0  0  0
 75 82  1  0  0  0
 76 82  1  0  0  0
 76153  1  0  0  0
 76154  1  0  0  0
 76155  1  0  0  0
 77156  1  0  0  0
 77157  1  0  0  0
 77158  1  0  0  0
 77 87  1  0  0  0
 78 87  1  0  0  0
 78159  1  0  0  0
 78160  1  0  0  0
 79161  1  0  0  0
 79162  1  0  0  0
 80 82  1  0  0  0
 80 86  1  0  0  0
 80163  1  0  0  0
 80164  1  0  0  0
 81 82  1  0  0  0
 81 87  1  0  0  0
 81165  1  0  0  0
 81166  1  0  0  0
 86167  1  0  0  0
 87168  1  0  0  0
M  CHG  1  87   1
M  ISO  4   1 100  68 101  79 101  86 100
M  END
> <chiral flag>
0

> <version>
0

> <s_m_source_file>
/data/baiqing/PycharmProjects/Reinvent-master-3.2/result/LINK_invent/BTK/process_docking_weight1_custom_sum_contain_oxygen_bond_distance_aromatic_linkinvent_7_9_3/rearranged_h_0061.sdf

> <i_m_source_file_index>
48

> <r_mmod_Potential_Energy-OPLS-2005>
-853.726623535156

> <r_mmod_Stretch_Energy-OPLS-2005>
43.3453483581543

> <r_mmod_Bend_Energy-OPLS-2005>
112.066329956055

> <r_mmod_Torsional_Energy-OPLS-2005>
260.239807128906

> <r_mmod_Improper_Torsional_Energy-OPLS-2005>
2.74875211715698

> <r_mmod_Van_der_Waal_Energy-OPLS-2005>
174.168853759766

> <r_mmod_Electrostatic_Energy-OPLS-2005>
-999.457275390625

> <r_mmod_Solvation_Energy-OPLS-2005>
-456.869964599609

> <b_mmod_Minimization_Converged-OPLS-2005>
0

> <r_mmod_RMS_Derivative-OPLS-2005>
1.17677283287048

$$$$
50
                    3D
 Structure written by MMmdl.
162170  0  0  1  0            999 V2000
  -30.6153  -14.7463   20.6025 C   0  0  0  0  0  0
  -30.4470  -12.4860   19.4832 C   0  0  0  0  0  0
  -29.5217  -12.5465   18.2446 C   0  0  0  0  0  0
  -28.0460  -12.3385   18.6421 C   0  0  0  0  0  0
  -27.6538  -13.2066   19.8623 C   0  0  2  0  0  0
  -28.6931  -13.0328   20.9887 C   0  0  0  0  0  0
  -25.2546  -13.8125   20.5578 C   0  0  0  0  0  0
  -24.1842  -13.0398   20.9155 C   0  0  0  0  0  0
  -24.6424  -11.6873   20.8757 C   0  0  0  0  0  0
  -23.9108  -10.4277   21.0456 C   0  0  0  0  0  0
  -24.3673   -9.4188   21.9217 C   0  0  0  0  0  0
  -23.6336   -8.2228   22.0772 C   0  0  0  0  0  0
  -22.4306   -8.0312   21.3570 C   0  0  0  0  0  0
  -21.9972   -9.0277   20.4655 C   0  0  0  0  0  0
  -22.7303  -10.2145   20.3075 C   0  0  0  0  0  0
  -21.6844   -6.0802   22.5312 C   0  0  0  0  0  0
  -21.4009   -6.5692   23.8256 C   0  0  0  0  0  0
  -21.3660   -5.6836   24.9199 C   0  0  0  0  0  0
  -21.6028   -4.3094   24.7247 C   0  0  0  0  0  0
  -21.8813   -3.8208   23.4364 C   0  0  0  0  0  0
  -21.9184   -4.7031   22.3432 C   0  0  0  0  0  0
  -22.7865  -13.5194   21.1835 C   0  0  0  0  0  0
  -22.1647   -4.2231   21.0985 F   0  0  0  0  0  0
  -21.5625   -3.4568   25.7740 F   0  0  0  0  0  0
  -29.9871  -13.5082   20.4685 N   0  0  0  0  0  0
  -26.2979  -12.9300   20.3248 N   0  0  0  0  0  0
  -25.9336  -11.6474   20.5740 N   0  0  0  0  0  0
  -22.0520  -12.8192   22.0396 N   0  0  0  0  0  0
  -25.4155  -15.1843   20.3877 N   0  0  0  0  0  0
  -31.7401  -14.8327   20.0910 O   0  0  0  0  0  0
  -21.6619   -6.8945   21.4272 O   0  0  0  0  0  0
  -22.3566  -14.5519   20.6715 O   0  0  0  0  0  0
  -24.6273  -31.8554   23.1975 C   0  0  0  0  0  0
  -25.9124  -32.4751   23.8311 C   0  0  1  0  0  0
  -27.2222  -27.2764   20.1494 C   0  0  0  0  0  0
  -25.5932  -33.8554   24.2239 N   0  0  0  0  0  0
  -23.4232  -30.4763   21.5396 C   0  0  2  0  0  0
  -24.8736  -28.9158   20.1159 C   0  0  0  0  0  0
  -22.7472  -29.4601   22.4906 C   0  0  0  0  0  0
  -18.0280  -28.1379   22.8469 C   0  0  0  0  0  0
  -24.1490  -36.7284   23.2632 C   0  0  0  0  0  0
  -25.9655  -30.7766   21.3700 C   0  0  0  0  0  0
  -26.0420  -29.3954   20.7220 C   0  0  0  0  0  0
  -27.2233  -28.5904   20.7208 C   0  0  0  0  0  0
  -26.0328  -26.8475   19.5282 C   0  0  0  0  0  0
  -24.8708  -27.6481   19.5092 C   0  0  0  0  0  0
  -23.6426  -29.8026   20.1573 C   0  0  0  0  0  0
  -25.4115  -36.3068   24.0315 C   0  0  1  0  0  0
  -20.5879  -28.3696   23.1262 C   0  0  2  0  0  0
  -20.6776  -26.9415   22.5401 C   0  0  0  0  0  0
  -19.5766  -26.6375   21.5194 C   0  0  0  0  0  0
  -18.1939  -26.7916   22.1605 C   0  0  0  0  0  0
  -19.1532  -28.8848   23.2865 C   0  0  0  0  0  0
  -18.9468  -30.1445   23.8886 C   0  0  0  0  0  0
  -17.6472  -30.6583   24.0555 C   0  0  0  0  0  0
  -25.9058  -34.9436   23.5087 C   0  0  0  0  0  0
  -16.5359  -29.9091   23.6320 C   0  0  0  0  0  0
  -16.7271  -28.6497   23.0354 C   0  0  0  0  0  0
  -26.4504  -31.6564   25.0689 C   0  0  0  0  0  0
  -25.3740  -31.3715   26.1420 C   0  0  0  0  0  0
  -27.0336  -30.2979   24.6148 C   0  0  0  0  0  0
  -27.6049  -32.4293   25.7485 C   0  0  0  0  0  0
  -27.5585  -37.1785   24.8456 C   0  0  0  0  0  0
  -21.4181  -29.3050   22.3659 N   0  0  0  0  0  0
  -26.4282  -37.3773   23.9422 N   0  0  0  0  0  0
  -24.6910  -31.0533   22.0928 N   0  0  0  0  0  0
  -23.4175  -28.8146   23.3005 O   0  0  0  0  0  0
  -28.3343  -26.4145   20.1401 O   0  0  0  0  0  0
  -26.5642  -34.8920   22.4662 O   0  0  0  0  0  0
  -23.5439  -32.1363   23.7291 O   0  0  0  0  0  0
  -30.8092  -19.2498   19.6708 C   0  0  0  0  0  0
  -30.0562  -17.4991   20.5956 C   0  0  0  0  0  0
  -28.6979  -15.9199   22.0651 C   0  0  0  0  0  0
  -31.0631  -16.3276   22.5411 C   0  0  0  0  0  0
  -28.3917  -22.1590   22.1021 C   0  0  0  0  0  0
  -30.5779  -22.5486   20.9900 C   0  0  0  0  0  0
  -28.4946  -23.6718   19.9985 C   0  0  0  0  0  0
  -28.8602  -20.9358   19.9282 C   0  0  0  0  0  0
  -28.2389  -25.0667   20.7867 C   0  0  0  0  0  0
  -30.0715  -16.1009   21.3727 C   0  0  0  0  0  0
  -29.0759  -22.3312   20.7345 C   0  0  0  0  0  0
  -31.1278  -17.9602   19.8697 N   0  0  0  0  0  0
  -29.1486  -18.5031   20.8226 N   0  0  0  0  0  0
  -29.6428  -19.6446   20.1930 N   0  0  0  0  0  0
  -31.4842  -12.6260   19.1740 H   0  0  0  0  0  0
  -30.4235  -11.4900   19.9257 H   0  0  0  0  0  0
  -29.8232  -11.7966   17.5134 H   0  0  0  0  0  0
  -29.6382  -13.5140   17.7545 H   0  0  0  0  0  0
  -27.9105  -11.2822   18.8785 H   0  0  0  0  0  0
  -27.3896  -12.5433   17.7973 H   0  0  0  0  0  0
  -27.6752  -14.2428   19.5246 H   0  0  0  0  0  0
  -28.7590  -11.9766   21.2594 H   0  0  0  0  0  0
  -28.3722  -13.4791   21.9169 H   0  0  0  0  0  0
  -25.2830   -9.5655   22.4769 H   0  0  0  0  0  0
  -24.0059   -7.4626   22.7491 H   0  0  0  0  0  0
  -21.0918   -8.8822   19.8947 H   0  0  0  0  0  0
  -22.3806  -10.9710   19.6192 H   0  0  0  0  0  0
  -21.1994   -7.6199   23.9795 H   0  0  0  0  0  0
  -21.1479   -6.0540   25.9106 H   0  0  0  0  0  0
  -22.0587   -2.7673   23.2818 H   0  0  0  0  0  0
  -22.4131  -11.9833   22.4746 H   0  0  0  0  0  0
  -21.1151  -13.1243   22.2635 H   0  0  0  0  0  0
  -24.6387  -15.8281   20.4849 H   0  0  0  0  0  0
  -26.2529  -15.6298   20.0357 H   0  0  0  0  0  0
  -26.7186  -32.5419   23.1055 H   0  0  0  0  0  0
  -25.0070  -33.9680   25.0382 H   0  0  0  0  0  0
  -22.7181  -31.2972   21.3889 H   0  0  0  0  0  0
  -23.3763  -35.9603   23.3259 H   0  0  0  0  0  0
  -24.3588  -36.8951   22.2055 H   0  0  0  0  0  0
  -23.7230  -37.6463   23.6690 H   0  0  0  0  0  0
  -26.0931  -31.5311   20.5914 H   0  0  0  0  0  0
  -26.8468  -30.8347   21.9966 H   0  0  0  0  0  0
  -28.1257  -28.9567   21.1913 H   0  0  0  0  0  0
  -26.0024  -25.8728   19.0625 H   0  0  0  0  0  0
  -23.9747  -27.2705   19.0361 H   0  0  0  0  0  0
  -23.7695  -30.5742   19.3978 H   0  0  0  0  0  0
  -22.7616  -29.2351   19.8524 H   0  0  0  0  0  0
  -25.1290  -36.1899   25.0802 H   0  0  0  0  0  0
  -20.9965  -28.3287   24.1389 H   0  0  0  0  0  0
  -20.5657  -26.2311   23.3611 H   0  0  0  0  0  0
  -21.6655  -26.7430   22.1225 H   0  0  0  0  0  0
  -19.6939  -25.6281   21.1249 H   0  0  0  0  0  0
  -19.6714  -27.3161   20.6709 H   0  0  0  0  0  0
  -17.4205  -26.6635   21.4021 H   0  0  0  0  0  0
  -18.0365  -26.0052   22.9005 H   0  0  0  0  0  0
  -19.7947  -30.7244   24.2276 H   0  0  0  0  0  0
  -17.5038  -31.6273   24.5158 H   0  0  0  0  0  0
  -15.5366  -30.3011   23.7638 H   0  0  0  0  0  0
  -15.8661  -28.0817   22.7096 H   0  0  0  0  0  0
  -24.5910  -30.7061   25.7769 H   0  0  0  0  0  0
  -24.8944  -32.2891   26.4835 H   0  0  0  0  0  0
  -25.8068  -30.8910   27.0203 H   0  0  0  0  0  0
  -26.2901  -29.6735   24.1176 H   0  0  0  0  0  0
  -27.4034  -29.7220   25.4644 H   0  0  0  0  0  0
  -27.8775  -30.4245   23.9358 H   0  0  0  0  0  0
  -27.2638  -33.3583   26.2060 H   0  0  0  0  0  0
  -28.3882  -32.6858   25.0343 H   0  0  0  0  0  0
  -28.0690  -31.8417   26.5415 H   0  0  0  0  0  0
  -28.2556  -38.0125   24.7557 H   0  0  0  0  0  0
  -28.1120  -36.2659   24.6204 H   0  0  0  0  0  0
  -27.2312  -37.1339   25.8856 H   0  0  0  0  0  0
  -20.9359  -29.8782   21.6877 H   0  0  0  0  0  0
  -26.0152  -38.2828   24.1475 H   0  0  0  0  0  0
  -31.4281  -19.9141   19.0835 H   0  0  0  0  0  0
  -28.3424  -16.8376   22.5327 H   0  0  0  0  0  0
  -28.7611  -15.2224   22.8984 H   0  0  0  0  0  0
  -27.9221  -15.6111   21.3719 H   0  0  0  0  0  0
  -30.7481  -17.1570   23.1761 H   0  0  0  0  0  0
  -32.0617  -16.5672   22.1729 H   0  0  0  0  0  0
  -31.1536  -15.4464   23.1753 H   0  0  0  0  0  0
  -28.5287  -23.0284   22.7445 H   0  0  0  0  0  0
  -28.8006  -21.3017   22.6401 H   0  0  0  0  0  0
  -27.3189  -21.9942   21.9912 H   0  0  0  0  0  0
  -30.7549  -23.4613   21.5588 H   0  0  0  0  0  0
  -31.1333  -22.6313   20.0568 H   0  0  0  0  0  0
  -31.0106  -21.7296   21.5640 H   0  0  0  0  0  0
  -29.1469  -23.8926   19.1539 H   0  0  0  0  0  0
  -27.5448  -23.4047   19.5354 H   0  0  0  0  0  0
  -29.0483  -21.1683   18.8790 H   0  0  0  0  0  0
  -27.8005  -20.6815   19.9534 H   0  0  0  0  0  0
  -28.9682  -25.1136   21.5960 H   0  0  0  0  0  0
  -27.2775  -24.9876   21.3012 H   0  0  0  0  0  0
  1 25  1  0  0  0
  1 30  2  0  0  0
  1 80  1  0  0  0
  2  3  1  0  0  0
  2 25  1  0  0  0
  2 85  1  0  0  0
  2 86  1  0  0  0
  3  4  1  0  0  0
  3 87  1  0  0  0
  3 88  1  0  0  0
  4  5  1  0  0  0
  4 89  1  0  0  0
  4 90  1  0  0  0
  5  6  1  0  0  0
  5 26  1  0  0  0
  5 91  1  0  0  0
  6 25  1  0  0  0
  6 92  1  0  0  0
  6 93  1  0  0  0
  7  8  2  0  0  0
  7 26  1  0  0  0
  7 29  1  0  0  0
  8  9  1  0  0  0
  8 22  1  0  0  0
  9 10  1  0  0  0
  9 27  2  0  0  0
 10 11  2  0  0  0
 10 15  1  0  0  0
 11 12  1  0  0  0
 11 94  1  0  0  0
 12 13  2  0  0  0
 12 95  1  0  0  0
 13 14  1  0  0  0
 13 31  1  0  0  0
 14 15  2  0  0  0
 14 96  1  0  0  0
 15 97  1  0  0  0
 16 17  2  0  0  0
 16 21  1  0  0  0
 16 31  1  0  0  0
 17 18  1  0  0  0
 17 98  1  0  0  0
 18 19  2  0  0  0
 18 99  1  0  0  0
 19 20  1  0  0  0
 19 24  1  0  0  0
 20 21  2  0  0  0
 20100  1  0  0  0
 21 23  1  0  0  0
 22 28  1  0  0  0
 22 32  2  0  0  0
 26 27  1  0  0  0
 28101  1  0  0  0
 28102  1  0  0  0
 29103  1  0  0  0
 29104  1  0  0  0
 33 34  1  0  0  0
 33 66  1  0  0  0
 33 70  2  0  0  0
 34 36  1  0  0  0
 34 59  1  0  0  0
 34105  1  0  0  0
 35 44  2  0  0  0
 35 45  1  0  0  0
 35 68  1  0  0  0
 36 56  1  0  0  0
 36106  1  0  0  0
 37 39  1  0  0  0
 37 47  1  0  0  0
 37 66  1  0  0  0
 37107  1  0  0  0
 38 43  2  0  0  0
 38 46  1  0  0  0
 38 47  1  0  0  0
 39 64  1  0  0  0
 39 67  2  0  0  0
 40 52  1  0  0  0
 40 53  2  0  0  0
 40 58  1  0  0  0
 41108  1  0  0  0
 41109  1  0  0  0
 41110  1  0  0  0
 41 48  1  0  0  0
 42 43  1  0  0  0
 42 66  1  0  0  0
 42111  1  0  0  0
 42112  1  0  0  0
 43 44  1  0  0  0
 44113  1  0  0  0
 45 46  2  0  0  0
 45114  1  0  0  0
 46115  1  0  0  0
 47116  1  0  0  0
 47117  1  0  0  0
 48 56  1  0  0  0
 48 65  1  0  0  0
 48118  1  0  0  0
 49 50  1  0  0  0
 49 53  1  0  0  0
 49 64  1  0  0  0
 49119  1  0  0  0
 50 51  1  0  0  0
 50120  1  0  0  0
 50121  1  0  0  0
 51 52  1  0  0  0
 51122  1  0  0  0
 51123  1  0  0  0
 52124  1  0  0  0
 52125  1  0  0  0
 53 54  1  0  0  0
 54 55  2  0  0  0
 54126  1  0  0  0
 55 57  1  0  0  0
 55127  1  0  0  0
 56 69  2  0  0  0
 57 58  2  0  0  0
 57128  1  0  0  0
 58129  1  0  0  0
 59 60  1  0  0  0
 59 61  1  0  0  0
 59 62  1  0  0  0
 60130  1  0  0  0
 60131  1  0  0  0
 60132  1  0  0  0
 61133  1  0  0  0
 61134  1  0  0  0
 61135  1  0  0  0
 62136  1  0  0  0
 62137  1  0  0  0
 62138  1  0  0  0
 63 65  1  0  0  0
 63139  1  0  0  0
 63140  1  0  0  0
 63141  1  0  0  0
 64142  1  0  0  0
 65143  1  0  0  0
 68 79  1  0  0  0
 71 82  2  0  0  0
 71 84  1  0  0  0
 71144  1  0  0  0
 72 80  1  0  0  0
 72 82  1  0  0  0
 72 83  2  0  0  0
 73145  1  0  0  0
 73146  1  0  0  0
 73147  1  0  0  0
 73 80  1  0  0  0
 74 80  1  0  0  0
 74148  1  0  0  0
 74149  1  0  0  0
 74150  1  0  0  0
 75151  1  0  0  0
 75152  1  0  0  0
 75153  1  0  0  0
 75 81  1  0  0  0
 76 81  1  0  0  0
 76154  1  0  0  0
 76155  1  0  0  0
 76156  1  0  0  0
 77 79  1  0  0  0
 77 81  1  0  0  0
 77157  1  0  0  0
 77158  1  0  0  0
 78 81  1  0  0  0
 78 84  1  0  0  0
 78159  1  0  0  0
 78160  1  0  0  0
 79161  1  0  0  0
 79162  1  0  0  0
 83 84  1  0  0  0
M  ISO  4   1 100  68 101  79 101  80 100
M  END
> <chiral flag>
0

> <version>
0

> <s_m_source_file>
/data/baiqing/PycharmProjects/Reinvent-master-3.2/result/LINK_invent/BTK/process_docking_weight1_custom_sum_contain_oxygen_bond_distance_aromatic_linkinvent_7_9_3/rearranged_h_0061.sdf

> <i_m_source_file_index>
49

> <r_mmod_Potential_Energy-OPLS-2005>
358.309753417969

> <r_mmod_Stretch_Energy-OPLS-2005>
148.570449829102

> <r_mmod_Bend_Energy-OPLS-2005>
220.057189941406

> <r_mmod_Torsional_Energy-OPLS-2005>
226.823089599609

> <r_mmod_Improper_Torsional_Energy-OPLS-2005>
5.39601182937622

> <r_mmod_Van_der_Waal_Energy-OPLS-2005>
127.115432739258

> <r_mmod_Electrostatic_Energy-OPLS-2005>
-235.29362487793

> <r_mmod_Solvation_Energy-OPLS-2005>
-205.427490234375

> <b_mmod_Minimization_Converged-OPLS-2005>
0

> <r_mmod_RMS_Derivative-OPLS-2005>
3.14305973052979

$$$$
51
                    3D
 Structure written by MMmdl.
158166  0  0  1  0            999 V2000
  -30.6280  -15.0280   20.4351 C   0  0  0  0  0  0
  -30.4165  -12.6381   19.5470 C   0  0  0  0  0  0
  -29.5234  -12.5457   18.2887 C   0  0  0  0  0  0
  -28.0628  -12.3190   18.7071 C   0  0  0  0  0  0
  -27.6233  -13.2807   19.8371 C   0  0  2  0  0  0
  -28.6564  -13.4029   20.9803 C   0  0  0  0  0  0
  -25.2381  -13.8256   20.5712 C   0  0  0  0  0  0
  -24.1747  -13.0477   20.9229 C   0  0  0  0  0  0
  -24.6404  -11.6949   20.8783 C   0  0  0  0  0  0
  -23.9115  -10.4286   21.0420 C   0  0  0  0  0  0
  -24.3649   -9.4187   21.9197 C   0  0  0  0  0  0
  -23.6323   -8.2236   22.0759 C   0  0  0  0  0  0
  -22.4296   -8.0289   21.3564 C   0  0  0  0  0  0
  -21.9948   -9.0257   20.4651 C   0  0  0  0  0  0
  -22.7275  -10.2145   20.3064 C   0  0  0  0  0  0
  -21.6883   -6.0750   22.5269 C   0  0  0  0  0  0
  -21.4019   -6.5629   23.8206 C   0  0  0  0  0  0
  -21.3645   -5.6781   24.9159 C   0  0  0  0  0  0
  -21.6065   -4.3057   24.7216 C   0  0  0  0  0  0
  -21.8802   -3.8141   23.4334 C   0  0  0  0  0  0
  -21.9187   -4.6967   22.3395 C   0  0  0  0  0  0
  -22.7731  -13.5181   21.1910 C   0  0  0  0  0  0
  -22.1662   -4.2131   21.0981 F   0  0  0  0  0  0
  -21.5644   -3.4556   25.7737 F   0  0  0  0  0  0
  -29.9440  -13.7953   20.3890 N   0  0  0  0  0  0
  -26.2878  -12.9597   20.3247 N   0  0  0  0  0  0
  -25.9364  -11.6699   20.5792 N   0  0  0  0  0  0
  -22.0416  -12.8161   22.0467 N   0  0  0  0  0  0
  -25.4006  -15.1995   20.4049 N   0  0  0  0  0  0
  -31.8034  -14.9038   20.0725 O   0  0  0  0  0  0
  -21.6648   -6.8905   21.4233 O   0  0  0  0  0  0
  -22.3383  -14.5513   20.6769 O   0  0  0  0  0  0
  -24.6467  -31.8423   23.1848 C   0  0  0  0  0  0
  -25.9241  -32.4684   23.8227 C   0  0  1  0  0  0
  -27.1934  -27.1003   20.1539 C   0  0  0  0  0  0
  -25.6006  -33.8478   24.2170 N   0  0  0  0  0  0
  -23.4516  -30.4665   21.5317 C   0  0  2  0  0  0
  -24.8952  -28.8860   20.1043 C   0  0  0  0  0  0
  -22.7593  -29.4563   22.4838 C   0  0  0  0  0  0
  -18.0324  -28.1372   22.8489 C   0  0  0  0  0  0
  -24.1514  -36.7240   23.2654 C   0  0  0  0  0  0
  -26.0101  -30.7037   21.3896 C   0  0  0  0  0  0
  -26.0751  -29.3140   20.7275 C   0  0  0  0  0  0
  -27.2286  -28.4388   20.7334 C   0  0  0  0  0  0
  -25.9961  -26.7899   19.4772 C   0  0  0  0  0  0
  -24.8714  -27.6404   19.4603 C   0  0  0  0  0  0
  -23.6738  -29.7955   20.1499 C   0  0  0  0  0  0
  -25.4143  -36.3032   24.0326 C   0  0  1  0  0  0
  -20.5912  -28.3736   23.1195 C   0  0  2  0  0  0
  -20.6801  -26.9428   22.5386 C   0  0  0  0  0  0
  -19.5766  -26.6355   21.5213 C   0  0  0  0  0  0
  -18.1938  -26.7911   22.1630 C   0  0  0  0  0  0
  -19.1577  -28.8877   23.2831 C   0  0  0  0  0  0
  -18.9489  -30.1455   23.8876 C   0  0  0  0  0  0
  -17.6490  -30.6561   24.0559 C   0  0  0  0  0  0
  -25.9092  -34.9420   23.5062 C   0  0  0  0  0  0
  -16.5387  -29.9046   23.6338 C   0  0  0  0  0  0
  -16.7306  -28.6468   23.0359 C   0  0  0  0  0  0
  -26.4524  -31.6541   25.0680 C   0  0  0  0  0  0
  -25.3706  -31.3737   26.1389 C   0  0  0  0  0  0
  -27.0411  -30.2933   24.6317 C   0  0  0  0  0  0
  -27.6060  -32.4306   25.7466 C   0  0  0  0  0  0
  -27.5586  -37.1767   24.8464 C   0  0  0  0  0  0
  -21.4285  -29.3041   22.3567 N   0  0  0  0  0  0
  -26.4311  -37.3739   23.9401 N   0  0  0  0  0  0
  -24.7240  -31.0264   22.0878 N   0  0  0  0  0  0
  -23.4259  -28.8145   23.2990 O   0  0  0  0  0  0
  -28.2066  -26.0739   20.2447 O   0  0  0  0  0  0
  -26.5670  -34.8946   22.4633 O   0  0  0  0  0  0
  -23.5577  -32.1357   23.7044 O   0  0  0  0  0  0
  -29.2880  -20.3797   20.6057 C   0  0  0  0  0  0
  -28.6332  -21.5879   20.1879 C   0  0  0  0  0  0
  -27.8040  -19.7037   19.1506 C   0  0  0  0  0  0
  -26.9158  -18.9637   18.1757 C   0  0  0  0  0  0
  -31.5531  -17.4808   20.8589 C   0  0  0  0  0  0
  -29.7099  -16.6363   22.3628 C   0  0  0  0  0  0
  -28.8253  -23.2031   20.5130 C   0  0  0  0  0  0
  -29.1075  -17.5919   19.9493 C   0  0  0  0  0  0
  -27.8957  -24.5454   20.0358 C   0  0  0  0  0  0
  -30.1886  -16.6345   20.8617 C   0  0  0  0  0  0
  -28.7897  -19.2007   19.9582 N   0  0  0  0  0  0
  -27.7070  -21.0551   19.3161 N   0  3  0  0  0  0
  -31.4585  -12.7119   19.2370 H   0  0  0  0  0  0
  -30.3642  -11.7096   20.1180 H   0  0  0  0  0  0
  -29.8636  -11.7305   17.6451 H   0  0  0  0  0  0
  -29.6113  -13.4606   17.7001 H   0  0  0  0  0  0
  -27.9820  -11.2903   19.0600 H   0  0  0  0  0  0
  -27.3944  -12.4070   17.8496 H   0  0  0  0  0  0
  -27.5680  -14.2638   19.3696 H   0  0  0  0  0  0
  -28.7491  -12.4717   21.5430 H   0  0  0  0  0  0
  -28.3404  -14.1634   21.6930 H   0  0  0  0  0  0
  -25.2804   -9.5659   22.4740 H   0  0  0  0  0  0
  -24.0026   -7.4620   22.7459 H   0  0  0  0  0  0
  -21.0898   -8.8800   19.8920 H   0  0  0  0  0  0
  -22.3773  -10.9699   19.6144 H   0  0  0  0  0  0
  -21.2024   -7.6147   23.9703 H   0  0  0  0  0  0
  -21.1497   -6.0523   25.9062 H   0  0  0  0  0  0
  -22.0608   -2.7607   23.2845 H   0  0  0  0  0  0
  -22.4117  -11.9849   22.4851 H   0  0  0  0  0  0
  -21.0996  -13.1071   22.2677 H   0  0  0  0  0  0
  -24.6258  -15.8476   20.4993 H   0  0  0  0  0  0
  -26.2414  -15.6277   20.0455 H   0  0  0  0  0  0
  -26.7327  -32.5265   23.0947 H   0  0  0  0  0  0
  -25.0125  -33.9553   25.0319 H   0  0  0  0  0  0
  -22.7558  -31.2944   21.3761 H   0  0  0  0  0  0
  -23.3803  -35.9538   23.3292 H   0  0  0  0  0  0
  -24.3607  -36.8899   22.2073 H   0  0  0  0  0  0
  -23.7261  -37.6433   23.6687 H   0  0  0  0  0  0
  -26.1789  -31.4597   20.6227 H   0  0  0  0  0  0
  -26.8720  -30.7442   22.0397 H   0  0  0  0  0  0
  -28.1263  -28.7559   21.2497 H   0  0  0  0  0  0
  -25.8911  -25.8419   18.9713 H   0  0  0  0  0  0
  -23.9729  -27.3071   18.9589 H   0  0  0  0  0  0
  -23.8098  -30.5705   19.3945 H   0  0  0  0  0  0
  -22.7865  -29.2386   19.8456 H   0  0  0  0  0  0
  -25.1319  -36.1871   25.0814 H   0  0  0  0  0  0
  -21.0028  -28.3359   24.1304 H   0  0  0  0  0  0
  -20.5666  -26.2368   23.3630 H   0  0  0  0  0  0
  -21.6661  -26.7378   22.1190 H   0  0  0  0  0  0
  -19.6917  -25.6254   21.1241 H   0  0  0  0  0  0
  -19.6673  -27.3179   20.6753 H   0  0  0  0  0  0
  -17.4197  -26.6693   21.4024 H   0  0  0  0  0  0
  -18.0308  -26.0015   22.8998 H   0  0  0  0  0  0
  -19.7970  -30.7248   24.2235 H   0  0  0  0  0  0
  -17.5046  -31.6250   24.5168 H   0  0  0  0  0  0
  -15.5368  -30.2941   23.7637 H   0  0  0  0  0  0
  -15.8726  -28.0773   22.7052 H   0  0  0  0  0  0
  -24.5896  -30.7076   25.7698 H   0  0  0  0  0  0
  -24.8878  -32.2916   26.4734 H   0  0  0  0  0  0
  -25.7979  -30.8962   27.0226 H   0  0  0  0  0  0
  -26.3041  -29.6615   24.1344 H   0  0  0  0  0  0
  -27.4036  -29.7260   25.4898 H   0  0  0  0  0  0
  -27.8946  -30.4133   23.9648 H   0  0  0  0  0  0
  -27.2662  -33.3645   26.1948 H   0  0  0  0  0  0
  -28.3898  -32.6811   25.0305 H   0  0  0  0  0  0
  -28.0710  -31.8515   26.5457 H   0  0  0  0  0  0
  -28.2581  -38.0084   24.7504 H   0  0  0  0  0  0
  -28.1101  -36.2604   24.6272 H   0  0  0  0  0  0
  -27.2293  -37.1387   25.8869 H   0  0  0  0  0  0
  -20.9504  -29.8803   21.6777 H   0  0  0  0  0  0
  -26.0197  -38.2826   24.1364 H   0  0  0  0  0  0
  -30.1012  -20.2891   21.3126 H   0  0  0  0  0  0
  -27.5118  -18.5865   17.3425 H   0  0  0  0  0  0
  -26.1610  -19.6435   17.7774 H   0  0  0  0  0  0
  -26.3920  -18.1439   18.6686 H   0  0  0  0  0  0
  -31.4067  -18.5576   20.8133 H   0  0  0  0  0  0
  -32.2306  -17.3018   20.0116 H   0  0  0  0  0  0
  -32.1661  -17.3226   21.7539 H   0  0  0  0  0  0
  -28.6197  -16.5800   22.4674 H   0  0  0  0  0  0
  -30.0365  -17.5359   22.8947 H   0  0  0  0  0  0
  -30.1146  -15.8198   22.9672 H   0  0  0  0  0  0
  -29.8419  -23.4317   20.1934 H   0  0  0  0  0  0
  -28.8745  -23.2625   21.6037 H   0  0  0  0  0  0
  -28.1217  -17.1424   20.1265 H   0  0  0  0  0  0
  -29.2841  -17.3562   18.8945 H   0  0  0  0  0  0
  -26.9138  -24.3761   20.4770 H   0  0  0  0  0  0
  -27.7447  -24.4371   18.9630 H   0  0  0  0  0  0
  -27.0195  -21.6128   18.8190 H   0  0  0  0  0  0
  1 25  1  0  0  0
  1 30  2  0  0  0
  1 80  1  0  0  0
  2  3  1  0  0  0
  2 25  1  0  0  0
  2 83  1  0  0  0
  2 84  1  0  0  0
  3  4  1  0  0  0
  3 85  1  0  0  0
  3 86  1  0  0  0
  4  5  1  0  0  0
  4 87  1  0  0  0
  4 88  1  0  0  0
  5  6  1  0  0  0
  5 26  1  0  0  0
  5 89  1  0  0  0
  6 25  1  0  0  0
  6 90  1  0  0  0
  6 91  1  0  0  0
  7  8  2  0  0  0
  7 26  1  0  0  0
  7 29  1  0  0  0
  8  9  1  0  0  0
  8 22  1  0  0  0
  9 10  1  0  0  0
  9 27  2  0  0  0
 10 11  2  0  0  0
 10 15  1  0  0  0
 11 12  1  0  0  0
 11 92  1  0  0  0
 12 13  2  0  0  0
 12 93  1  0  0  0
 13 14  1  0  0  0
 13 31  1  0  0  0
 14 15  2  0  0  0
 14 94  1  0  0  0
 15 95  1  0  0  0
 16 17  2  0  0  0
 16 21  1  0  0  0
 16 31  1  0  0  0
 17 18  1  0  0  0
 17 96  1  0  0  0
 18 19  2  0  0  0
 18 97  1  0  0  0
 19 20  1  0  0  0
 19 24  1  0  0  0
 20 21  2  0  0  0
 20 98  1  0  0  0
 21 23  1  0  0  0
 22 28  1  0  0  0
 22 32  2  0  0  0
 26 27  1  0  0  0
 28 99  1  0  0  0
 28100  1  0  0  0
 29101  1  0  0  0
 29102  1  0  0  0
 33 34  1  0  0  0
 33 66  1  0  0  0
 33 70  2  0  0  0
 34 36  1  0  0  0
 34 59  1  0  0  0
 34103  1  0  0  0
 35 44  2  0  0  0
 35 45  1  0  0  0
 35 68  1  0  0  0
 36 56  1  0  0  0
 36104  1  0  0  0
 37 39  1  0  0  0
 37 47  1  0  0  0
 37 66  1  0  0  0
 37105  1  0  0  0
 38 43  2  0  0  0
 38 46  1  0  0  0
 38 47  1  0  0  0
 39 64  1  0  0  0
 39 67  2  0  0  0
 40 52  1  0  0  0
 40 53  2  0  0  0
 40 58  1  0  0  0
 41106  1  0  0  0
 41107  1  0  0  0
 41108  1  0  0  0
 41 48  1  0  0  0
 42 43  1  0  0  0
 42 66  1  0  0  0
 42109  1  0  0  0
 42110  1  0  0  0
 43 44  1  0  0  0
 44111  1  0  0  0
 45 46  2  0  0  0
 45112  1  0  0  0
 46113  1  0  0  0
 47114  1  0  0  0
 47115  1  0  0  0
 48 56  1  0  0  0
 48 65  1  0  0  0
 48116  1  0  0  0
 49 50  1  0  0  0
 49 53  1  0  0  0
 49 64  1  0  0  0
 49117  1  0  0  0
 50 51  1  0  0  0
 50118  1  0  0  0
 50119  1  0  0  0
 51 52  1  0  0  0
 51120  1  0  0  0
 51121  1  0  0  0
 52122  1  0  0  0
 52123  1  0  0  0
 53 54  1  0  0  0
 54 55  2  0  0  0
 54124  1  0  0  0
 55 57  1  0  0  0
 55125  1  0  0  0
 56 69  2  0  0  0
 57 58  2  0  0  0
 57126  1  0  0  0
 58127  1  0  0  0
 59 60  1  0  0  0
 59 61  1  0  0  0
 59 62  1  0  0  0
 60128  1  0  0  0
 60129  1  0  0  0
 60130  1  0  0  0
 61131  1  0  0  0
 61132  1  0  0  0
 61133  1  0  0  0
 62134  1  0  0  0
 62135  1  0  0  0
 62136  1  0  0  0
 63 65  1  0  0  0
 63137  1  0  0  0
 63138  1  0  0  0
 63139  1  0  0  0
 64140  1  0  0  0
 65141  1  0  0  0
 68 79  1  0  0  0
 71 72  2  0  0  0
 71 81  1  0  0  0
 71142  1  0  0  0
 72 77  1  0  0  0
 72 82  1  0  0  0
 73 74  1  0  0  0
 73 81  1  0  0  0
 73 82  2  0  0  0
 74143  1  0  0  0
 74144  1  0  0  0
 74145  1  0  0  0
 75146  1  0  0  0
 75147  1  0  0  0
 75148  1  0  0  0
 75 80  1  0  0  0
 76 80  1  0  0  0
 76149  1  0  0  0
 76150  1  0  0  0
 76151  1  0  0  0
 77 79  1  0  0  0
 77152  1  0  0  0
 77153  1  0  0  0
 78 80  1  0  0  0
 78 81  1  0  0  0
 78154  1  0  0  0
 78155  1  0  0  0
 79156  1  0  0  0
 79157  1  0  0  0
 82158  1  0  0  0
M  CHG  1  82   1
M  ISO  4   1 100  68 101  79 101  80 100
M  END
> <chiral flag>
0

> <version>
0

> <s_m_source_file>
/data/baiqing/PycharmProjects/Reinvent-master-3.2/result/LINK_invent/BTK/process_docking_weight1_custom_sum_contain_oxygen_bond_distance_aromatic_linkinvent_7_9_3/rearranged_h_0061.sdf

> <i_m_source_file_index>
50

> <r_mmod_Potential_Energy-OPLS-2005>
693.503723144531

> <r_mmod_Stretch_Energy-OPLS-2005>
338.159423828125

> <r_mmod_Bend_Energy-OPLS-2005>
339.275543212891

> <r_mmod_Torsional_Energy-OPLS-2005>
212.073348999023

> <r_mmod_Improper_Torsional_Energy-OPLS-2005>
1.77135598659515

> <r_mmod_Van_der_Waal_Energy-OPLS-2005>
116.075416564941

> <r_mmod_Electrostatic_Energy-OPLS-2005>
-146.264556884766

> <r_mmod_Solvation_Energy-OPLS-2005>
-407.560607910156

> <b_mmod_Minimization_Converged-OPLS-2005>
0

> <r_mmod_RMS_Derivative-OPLS-2005>
11.2975244522095

$$$$
52
                    3D
 Structure written by MMmdl.
167175  0  0  1  0            999 V2000
  -30.6218  -14.7621   20.4775 C   0  0  0  0  0  0
  -30.4350  -12.4707   19.4744 C   0  0  0  0  0  0
  -29.5149  -12.5067   18.2345 C   0  0  0  0  0  0
  -28.0406  -12.3334   18.6462 C   0  0  0  0  0  0
  -27.6426  -13.2328   19.8475 C   0  0  2  0  0  0
  -28.6875  -13.1777   20.9834 C   0  0  0  0  0  0
  -25.2532  -13.8173   20.5714 C   0  0  0  0  0  0
  -24.1802  -13.0433   20.9187 C   0  0  0  0  0  0
  -24.6377  -11.6909   20.8719 C   0  0  0  0  0  0
  -23.9036  -10.4293   21.0390 C   0  0  0  0  0  0
  -24.3582   -9.4221   21.9188 C   0  0  0  0  0  0
  -23.6271   -8.2247   22.0765 C   0  0  0  0  0  0
  -22.4270   -8.0262   21.3532 C   0  0  0  0  0  0
  -21.9878   -9.0238   20.4655 C   0  0  0  0  0  0
  -22.7190  -10.2122   20.3069 C   0  0  0  0  0  0
  -21.6860   -6.0699   22.5266 C   0  0  0  0  0  0
  -21.4012   -6.5616   23.8189 C   0  0  0  0  0  0
  -21.3678   -5.6778   24.9162 C   0  0  0  0  0  0
  -21.6058   -4.3037   24.7220 C   0  0  0  0  0  0
  -21.8815   -3.8117   23.4342 C   0  0  0  0  0  0
  -21.9191   -4.6923   22.3392 C   0  0  0  0  0  0
  -22.7829  -13.5252   21.1828 C   0  0  0  0  0  0
  -22.1665   -4.2107   21.0969 F   0  0  0  0  0  0
  -21.5634   -3.4529   25.7737 F   0  0  0  0  0  0
  -29.9898  -13.5370   20.4042 N   0  0  0  0  0  0
  -26.2951  -12.9384   20.3271 N   0  0  0  0  0  0
  -25.9319  -11.6513   20.5714 N   0  0  0  0  0  0
  -22.0425  -12.8304   22.0395 N   0  0  0  0  0  0
  -25.4260  -15.1887   20.4178 N   0  0  0  0  0  0
  -31.7786  -14.8702   20.0555 O   0  0  0  0  0  0
  -21.6644   -6.8848   21.4233 O   0  0  0  0  0  0
  -22.3566  -14.5574   20.6660 O   0  0  0  0  0  0
  -24.6344  -31.8544   23.1990 C   0  0  0  0  0  0
  -25.9162  -32.4741   23.8350 C   0  0  1  0  0  0
  -27.2071  -27.2404   20.1360 C   0  0  0  0  0  0
  -25.5948  -33.8550   24.2256 N   0  0  0  0  0  0
  -23.4327  -30.4771   21.5421 C   0  0  2  0  0  0
  -24.8781  -28.9222   20.1114 C   0  0  0  0  0  0
  -22.7524  -29.4597   22.4903 C   0  0  0  0  0  0
  -18.0294  -28.1391   22.8476 C   0  0  0  0  0  0
  -24.1487  -36.7283   23.2640 C   0  0  0  0  0  0
  -25.9823  -30.7545   21.3918 C   0  0  0  0  0  0
  -26.0515  -29.3792   20.7270 C   0  0  0  0  0  0
  -27.2217  -28.5511   20.7260 C   0  0  0  0  0  0
  -26.0199  -26.8672   19.4702 C   0  0  0  0  0  0
  -24.8688  -27.6756   19.4699 C   0  0  0  0  0  0
  -23.6543  -29.8141   20.1575 C   0  0  0  0  0  0
  -25.4117  -36.3065   24.0324 C   0  0  1  0  0  0
  -20.5902  -28.3716   23.1246 C   0  0  2  0  0  0
  -20.6781  -26.9432   22.5397 C   0  0  0  0  0  0
  -19.5760  -26.6380   21.5202 C   0  0  0  0  0  0
  -18.1938  -26.7931   22.1612 C   0  0  0  0  0  0
  -19.1551  -28.8867   23.2851 C   0  0  0  0  0  0
  -18.9478  -30.1462   23.8881 C   0  0  0  0  0  0
  -17.6481  -30.6594   24.0562 C   0  0  0  0  0  0
  -25.9064  -34.9433   23.5094 C   0  0  0  0  0  0
  -16.5369  -29.9097   23.6334 C   0  0  0  0  0  0
  -16.7280  -28.6508   23.0363 C   0  0  0  0  0  0
  -26.4501  -31.6595   25.0776 C   0  0  0  0  0  0
  -25.3699  -31.3817   26.1491 C   0  0  0  0  0  0
  -27.0354  -30.2982   24.6357 C   0  0  0  0  0  0
  -27.6046  -32.4359   25.7538 C   0  0  0  0  0  0
  -27.5584  -37.1795   24.8457 C   0  0  0  0  0  0
  -21.4228  -29.3063   22.3637 N   0  0  0  0  0  0
  -26.4289  -37.3773   23.9413 N   0  0  0  0  0  0
  -24.7013  -31.0484   22.0989 N   0  0  0  0  0  0
  -23.4200  -28.8153   23.3027 O   0  0  0  0  0  0
  -28.2694  -26.3054   20.1790 O   0  0  0  0  0  0
  -26.5638  -34.8911   22.4660 O   0  0  0  0  0  0
  -23.5482  -32.1382   23.7260 O   0  0  0  0  0  0
  -29.5556  -18.5820   20.4015 C   0  0  0  0  0  0
  -30.4709  -20.4935   20.2548 C   0  0  0  0  0  0
  -31.5645  -22.0215   18.5919 C   0  0  0  0  0  0
  -29.2827  -16.7896   18.6241 C   0  0  0  0  0  0
  -28.6637  -22.2330   22.4264 C   0  0  0  0  0  0
  -26.9126  -21.8350   20.6918 C   0  0  0  0  0  0
  -30.1340  -16.2134   22.3456 C   0  0  0  0  0  0
  -31.5172  -21.5375   20.0472 C   0  0  0  0  0  0
  -28.7764  -23.5423   20.2180 C   0  0  0  0  0  0
  -27.9493  -24.8959   20.6312 C   0  0  0  0  0  0
  -29.2776  -17.0392   20.1450 C   0  0  2  0  0  0
  -28.4257  -22.0835   20.9114 C   0  0  0  0  0  0
  -30.7592  -19.1790   20.1454 N   0  0  0  0  0  0
  -28.5851  -19.5048   20.6389 N   0  0  0  0  0  0
  -29.1747  -20.7749   20.5182 N   0  0  0  0  0  0
  -29.9264  -15.8833   20.9342 N   0  0  0  0  0  0
  -31.4779  -12.5898   19.1733 H   0  0  0  0  0  0
  -30.3787  -11.4995   19.9690 H   0  0  0  0  0  0
  -29.8052  -11.7234   17.5326 H   0  0  0  0  0  0
  -29.6420  -13.4498   17.7021 H   0  0  0  0  0  0
  -27.9005  -11.2842   18.9073 H   0  0  0  0  0  0
  -27.3838  -12.5229   17.7951 H   0  0  0  0  0  0
  -27.6288  -14.2535   19.4666 H   0  0  0  0  0  0
  -28.7301  -12.1829   21.4282 H   0  0  0  0  0  0
  -28.4145  -13.8606   21.7875 H   0  0  0  0  0  0
  -25.2711   -9.5708   22.4776 H   0  0  0  0  0  0
  -23.9961   -7.4664   22.7529 H   0  0  0  0  0  0
  -21.0778   -8.8742   19.9016 H   0  0  0  0  0  0
  -22.3609  -10.9651   19.6191 H   0  0  0  0  0  0
  -21.2021   -7.6128   23.9672 H   0  0  0  0  0  0
  -21.1529   -6.0517   25.9059 H   0  0  0  0  0  0
  -22.0596   -2.7579   23.2847 H   0  0  0  0  0  0
  -22.3991  -11.9964   22.4826 H   0  0  0  0  0  0
  -21.1073  -13.1443   22.2596 H   0  0  0  0  0  0
  -24.6622  -15.8459   20.5362 H   0  0  0  0  0  0
  -26.2782  -15.6249   20.0901 H   0  0  0  0  0  0
  -26.7234  -32.5359   23.1090 H   0  0  0  0  0  0
  -25.0089  -33.9686   25.0395 H   0  0  0  0  0  0
  -22.7319  -31.3014   21.3954 H   0  0  0  0  0  0
  -23.3752  -35.9611   23.3288 H   0  0  0  0  0  0
  -24.3575  -36.8925   22.2057 H   0  0  0  0  0  0
  -23.7230  -37.6477   23.6675 H   0  0  0  0  0  0
  -26.1453  -31.5176   20.6303 H   0  0  0  0  0  0
  -26.8498  -30.7854   22.0392 H   0  0  0  0  0  0
  -28.1200  -28.8920   21.2226 H   0  0  0  0  0  0
  -25.9641  -25.9203   18.9520 H   0  0  0  0  0  0
  -23.9756  -27.3278   18.9678 H   0  0  0  0  0  0
  -23.7917  -30.5931   19.4070 H   0  0  0  0  0  0
  -22.7703  -29.2563   19.8433 H   0  0  0  0  0  0
  -25.1293  -36.1915   25.0817 H   0  0  0  0  0  0
  -20.9976  -28.3298   24.1374 H   0  0  0  0  0  0
  -20.5667  -26.2346   23.3617 H   0  0  0  0  0  0
  -21.6656  -26.7451   22.1211 H   0  0  0  0  0  0
  -19.6938  -25.6280   21.1262 H   0  0  0  0  0  0
  -19.6696  -27.3160   20.6709 H   0  0  0  0  0  0
  -17.4215  -26.6666   21.4015 H   0  0  0  0  0  0
  -18.0354  -26.0068   22.9005 H   0  0  0  0  0  0
  -19.7960  -30.7264   24.2256 H   0  0  0  0  0  0
  -17.5049  -31.6275   24.5169 H   0  0  0  0  0  0
  -15.5373  -30.3006   23.7663 H   0  0  0  0  0  0
  -15.8673  -28.0813   22.7113 H   0  0  0  0  0  0
  -24.5847  -30.7187   25.7847 H   0  0  0  0  0  0
  -24.8920  -32.3019   26.4866 H   0  0  0  0  0  0
  -25.7978  -30.9035   27.0310 H   0  0  0  0  0  0
  -26.2985  -29.6731   24.1304 H   0  0  0  0  0  0
  -27.3886  -29.7263   25.4952 H   0  0  0  0  0  0
  -27.8929  -30.4209   23.9736 H   0  0  0  0  0  0
  -27.2640  -33.3660   26.2101 H   0  0  0  0  0  0
  -28.3851  -32.6928   25.0364 H   0  0  0  0  0  0
  -28.0727  -31.8513   26.5468 H   0  0  0  0  0  0
  -28.2590  -38.0104   24.7517 H   0  0  0  0  0  0
  -28.1089  -36.2636   24.6250 H   0  0  0  0  0  0
  -27.2314  -37.1412   25.8863 H   0  0  0  0  0  0
  -20.9440  -29.8789   21.6826 H   0  0  0  0  0  0
  -26.0163  -38.2846   24.1417 H   0  0  0  0  0  0
  -32.3431  -22.7707   18.4572 H   0  0  0  0  0  0
  -30.6165  -22.4650   18.2892 H   0  0  0  0  0  0
  -31.7744  -21.1947   17.9102 H   0  0  0  0  0  0
  -30.2713  -16.9735   18.2025 H   0  0  0  0  0  0
  -28.5904  -17.4688   18.1256 H   0  0  0  0  0  0
  -28.9844  -15.7777   18.3587 H   0  0  0  0  0  0
  -28.1093  -23.0655   22.8549 H   0  0  0  0  0  0
  -29.7202  -22.3929   22.6441 H   0  0  0  0  0  0
  -28.3549  -21.3370   22.9648 H   0  0  0  0  0  0
  -26.2997  -22.6774   21.0067 H   0  0  0  0  0  0
  -26.5509  -20.9823   21.2677 H   0  0  0  0  0  0
  -26.6877  -21.6378   19.6428 H   0  0  0  0  0  0
  -30.1319  -15.3196   22.9717 H   0  0  0  0  0  0
  -29.3509  -16.8708   22.7240 H   0  0  0  0  0  0
  -31.0978  -16.7072   22.4797 H   0  0  0  0  0  0
  -32.4842  -21.1095   20.3096 H   0  0  0  0  0  0
  -31.3718  -22.3558   20.7487 H   0  0  0  0  0  0
  -29.8221  -23.7791   20.3973 H   0  0  0  0  0  0
  -28.6865  -23.4290   19.1373 H   0  0  0  0  0  0
  -27.9714  -24.9734   21.7172 H   0  0  0  0  0  0
  -26.9075  -24.6802   20.4138 H   0  0  0  0  0  0
  -28.2325  -16.9169   20.4303 H   0  0  0  0  0  0
  1 25  1  0  0  0
  1 30  2  0  0  0
  1 86  1  0  0  0
  2  3  1  0  0  0
  2 25  1  0  0  0
  2 87  1  0  0  0
  2 88  1  0  0  0
  3  4  1  0  0  0
  3 89  1  0  0  0
  3 90  1  0  0  0
  4  5  1  0  0  0
  4 91  1  0  0  0
  4 92  1  0  0  0
  5  6  1  0  0  0
  5 26  1  0  0  0
  5 93  1  0  0  0
  6 25  1  0  0  0
  6 94  1  0  0  0
  6 95  1  0  0  0
  7  8  2  0  0  0
  7 26  1  0  0  0
  7 29  1  0  0  0
  8  9  1  0  0  0
  8 22  1  0  0  0
  9 10  1  0  0  0
  9 27  2  0  0  0
 10 11  2  0  0  0
 10 15  1  0  0  0
 11 12  1  0  0  0
 11 96  1  0  0  0
 12 13  2  0  0  0
 12 97  1  0  0  0
 13 14  1  0  0  0
 13 31  1  0  0  0
 14 15  2  0  0  0
 14 98  1  0  0  0
 15 99  1  0  0  0
 16 17  2  0  0  0
 16 21  1  0  0  0
 16 31  1  0  0  0
 17 18  1  0  0  0
 17100  1  0  0  0
 18 19  2  0  0  0
 18101  1  0  0  0
 19 20  1  0  0  0
 19 24  1  0  0  0
 20 21  2  0  0  0
 20102  1  0  0  0
 21 23  1  0  0  0
 22 28  1  0  0  0
 22 32  2  0  0  0
 26 27  1  0  0  0
 28103  1  0  0  0
 28104  1  0  0  0
 29105  1  0  0  0
 29106  1  0  0  0
 33 34  1  0  0  0
 33 66  1  0  0  0
 33 70  2  0  0  0
 34 36  1  0  0  0
 34 59  1  0  0  0
 34107  1  0  0  0
 35 44  2  0  0  0
 35 45  1  0  0  0
 35 68  1  0  0  0
 36 56  1  0  0  0
 36108  1  0  0  0
 37 39  1  0  0  0
 37 47  1  0  0  0
 37 66  1  0  0  0
 37109  1  0  0  0
 38 43  2  0  0  0
 38 46  1  0  0  0
 38 47  1  0  0  0
 39 64  1  0  0  0
 39 67  2  0  0  0
 40 52  1  0  0  0
 40 53  2  0  0  0
 40 58  1  0  0  0
 41110  1  0  0  0
 41111  1  0  0  0
 41112  1  0  0  0
 41 48  1  0  0  0
 42 43  1  0  0  0
 42 66  1  0  0  0
 42113  1  0  0  0
 42114  1  0  0  0
 43 44  1  0  0  0
 44115  1  0  0  0
 45 46  2  0  0  0
 45116  1  0  0  0
 46117  1  0  0  0
 47118  1  0  0  0
 47119  1  0  0  0
 48 56  1  0  0  0
 48 65  1  0  0  0
 48120  1  0  0  0
 49 50  1  0  0  0
 49 53  1  0  0  0
 49 64  1  0  0  0
 49121  1  0  0  0
 50 51  1  0  0  0
 50122  1  0  0  0
 50123  1  0  0  0
 51 52  1  0  0  0
 51124  1  0  0  0
 51125  1  0  0  0
 52126  1  0  0  0
 52127  1  0  0  0
 53 54  1  0  0  0
 54 55  2  0  0  0
 54128  1  0  0  0
 55 57  1  0  0  0
 55129  1  0  0  0
 56 69  2  0  0  0
 57 58  2  0  0  0
 57130  1  0  0  0
 58131  1  0  0  0
 59 60  1  0  0  0
 59 61  1  0  0  0
 59 62  1  0  0  0
 60132  1  0  0  0
 60133  1  0  0  0
 60134  1  0  0  0
 61135  1  0  0  0
 61136  1  0  0  0
 61137  1  0  0  0
 62138  1  0  0  0
 62139  1  0  0  0
 62140  1  0  0  0
 63 65  1  0  0  0
 63141  1  0  0  0
 63142  1  0  0  0
 63143  1  0  0  0
 64144  1  0  0  0
 65145  1  0  0  0
 68 80  1  0  0  0
 71 81  1  0  0  0
 71 83  1  0  0  0
 71 84  2  0  0  0
 72 78  1  0  0  0
 72 83  2  0  0  0
 72 85  1  0  0  0
 73 78  1  0  0  0
 73146  1  0  0  0
 73147  1  0  0  0
 73148  1  0  0  0
 74149  1  0  0  0
 74150  1  0  0  0
 74151  1  0  0  0
 74 81  1  0  0  0
 75152  1  0  0  0
 75153  1  0  0  0
 75154  1  0  0  0
 75 82  1  0  0  0
 76 82  1  0  0  0
 76155  1  0  0  0
 76156  1  0  0  0
 76157  1  0  0  0
 77 86  1  0  0  0
 77158  1  0  0  0
 77159  1  0  0  0
 77160  1  0  0  0
 78161  1  0  0  0
 78162  1  0  0  0
 79 80  1  0  0  0
 79 82  1  0  0  0
 79163  1  0  0  0
 79164  1  0  0  0
 80165  1  0  0  0
 80166  1  0  0  0
 81 86  1  0  0  0
 81167  1  0  0  0
 82 85  1  0  0  0
 84 85  1  0  0  0
M  ISO  4   1 100  68 101  80 101  86 100
M  END
> <chiral flag>
0

> <version>
0

> <s_m_source_file>
/data/baiqing/PycharmProjects/Reinvent-master-3.2/result/LINK_invent/BTK/process_docking_weight1_custom_sum_contain_oxygen_bond_distance_aromatic_linkinvent_7_9_3/rearranged_h_0061.sdf

> <i_m_source_file_index>
51

> <r_mmod_Potential_Energy-OPLS-2005>
314.968658447266

> <r_mmod_Stretch_Energy-OPLS-2005>
150.855758666992

> <r_mmod_Bend_Energy-OPLS-2005>
206.036468505859

> <r_mmod_Torsional_Energy-OPLS-2005>
318.194244384766

> <r_mmod_Improper_Torsional_Energy-OPLS-2005>
5.6346583366394

> <r_mmod_Van_der_Waal_Energy-OPLS-2005>
113.734382629395

> <r_mmod_Electrostatic_Energy-OPLS-2005>
-371.973602294922

> <r_mmod_Solvation_Energy-OPLS-2005>
-205.543014526367

> <b_mmod_Minimization_Converged-OPLS-2005>
0

> <r_mmod_RMS_Derivative-OPLS-2005>
3.06542444229126

$$$$
53
                    3D
 Structure written by MMmdl.
169177  0  0  1  0            999 V2000
  -30.5353  -14.8060   20.4668 C   0  0  0  0  0  0
  -30.4497  -12.4900   19.4955 C   0  0  0  0  0  0
  -29.5239  -12.5285   18.2550 C   0  0  0  0  0  0
  -28.0499  -12.3342   18.6616 C   0  0  0  0  0  0
  -27.6489  -13.2226   19.8673 C   0  0  2  0  0  0
  -28.6899  -13.1408   21.0072 C   0  0  0  0  0  0
  -25.2543  -13.8170   20.5703 C   0  0  0  0  0  0
  -24.1814  -13.0421   20.9181 C   0  0  0  0  0  0
  -24.6394  -11.6893   20.8739 C   0  0  0  0  0  0
  -23.9066  -10.4278   21.0405 C   0  0  0  0  0  0
  -24.3614   -9.4196   21.9187 C   0  0  0  0  0  0
  -23.6287   -8.2234   22.0758 C   0  0  0  0  0  0
  -22.4272   -8.0273   21.3539 C   0  0  0  0  0  0
  -21.9907   -9.0251   20.4644 C   0  0  0  0  0  0
  -22.7236  -10.2131   20.3053 C   0  0  0  0  0  0
  -21.6860   -6.0730   22.5273 C   0  0  0  0  0  0
  -21.4013   -6.5637   23.8205 C   0  0  0  0  0  0
  -21.3658   -5.6790   24.9170 C   0  0  0  0  0  0
  -21.6047   -4.3053   24.7224 C   0  0  0  0  0  0
  -21.8821   -3.8139   23.4345 C   0  0  0  0  0  0
  -21.9191   -4.6954   22.3399 C   0  0  0  0  0  0
  -22.7840  -13.5217   21.1844 C   0  0  0  0  0  0
  -22.1666   -4.2136   21.0980 F   0  0  0  0  0  0
  -21.5628   -3.4539   25.7743 F   0  0  0  0  0  0
  -29.9911  -13.5346   20.4461 N   0  0  0  0  0  0
  -26.2968  -12.9352   20.3332 N   0  0  0  0  0  0
  -25.9331  -11.6502   20.5769 N   0  0  0  0  0  0
  -22.0490  -12.8210   22.0402 N   0  0  0  0  0  0
  -25.4252  -15.1898   20.4132 N   0  0  0  0  0  0
  -31.6729  -14.9890   20.0218 O   0  0  0  0  0  0
  -21.6635   -6.8869   21.4235 O   0  0  0  0  0  0
  -22.3533  -14.5531   20.6703 O   0  0  0  0  0  0
  -24.6316  -31.8490   23.1923 C   0  0  0  0  0  0
  -25.9127  -32.4729   23.8284 C   0  0  1  0  0  0
  -27.2380  -27.2330   20.1471 C   0  0  0  0  0  0
  -25.5932  -33.8535   24.2219 N   0  0  0  0  0  0
  -23.4314  -30.4666   21.5321 C   0  0  2  0  0  0
  -24.8863  -28.8997   20.1093 C   0  0  0  0  0  0
  -22.7512  -29.4553   22.4866 C   0  0  0  0  0  0
  -18.0293  -28.1372   22.8479 C   0  0  0  0  0  0
  -24.1480  -36.7252   23.2644 C   0  0  0  0  0  0
  -25.9760  -30.7553   21.3747 C   0  0  0  0  0  0
  -26.0521  -29.3726   20.7215 C   0  0  0  0  0  0
  -27.2262  -28.5519   20.7253 C   0  0  0  0  0  0
  -26.0524  -26.8279   19.5021 C   0  0  0  0  0  0
  -24.8926  -27.6374   19.4888 C   0  0  0  0  0  0
  -23.6545  -29.7883   20.1513 C   0  0  0  0  0  0
  -25.4114  -36.3056   24.0323 C   0  0  1  0  0  0
  -20.5896  -28.3675   23.1259 C   0  0  2  0  0  0
  -20.6769  -26.9382   22.5410 C   0  0  0  0  0  0
  -19.5752  -26.6364   21.5204 C   0  0  0  0  0  0
  -18.1932  -26.7918   22.1608 C   0  0  0  0  0  0
  -19.1551  -28.8839   23.2868 C   0  0  0  0  0  0
  -18.9482  -30.1438   23.8888 C   0  0  0  0  0  0
  -17.6486  -30.6582   24.0541 C   0  0  0  0  0  0
  -25.9061  -34.9427   23.5080 C   0  0  0  0  0  0
  -16.5371  -29.9076   23.6327 C   0  0  0  0  0  0
  -16.7284  -28.6491   23.0361 C   0  0  0  0  0  0
  -26.4500  -31.6585   25.0701 C   0  0  0  0  0  0
  -25.3715  -31.3736   26.1421 C   0  0  0  0  0  0
  -27.0358  -30.3000   24.6202 C   0  0  0  0  0  0
  -27.6051  -32.4341   25.7476 C   0  0  0  0  0  0
  -27.5565  -37.1776   24.8473 C   0  0  0  0  0  0
  -21.4213  -29.3013   22.3630 N   0  0  0  0  0  0
  -26.4279  -37.3763   23.9420 N   0  0  0  0  0  0
  -24.6984  -31.0434   22.0898 N   0  0  0  0  0  0
  -23.4209  -28.8102   23.2980 O   0  0  0  0  0  0
  -28.3707  -26.3813   20.2327 O   0  0  0  0  0  0
  -26.5632  -34.8914   22.4647 O   0  0  0  0  0  0
  -23.5461  -32.1330   23.7193 O   0  0  0  0  0  0
  -28.6418  -22.2779   21.3232 C   0  0  0  0  0  0
  -28.8197  -21.6090   22.5403 C   0  0  0  0  0  0
  -29.4130  -20.0632   20.9955 C   0  0  0  0  0  0
  -29.0057  -20.9261   25.0132 C   0  0  0  0  0  0
  -28.8680  -17.1432   18.8504 C   0  0  0  0  0  0
  -28.0465  -24.5688   22.4317 C   0  0  0  0  0  0
  -26.4787  -23.4786   20.8618 C   0  0  0  0  0  0
  -29.0604  -21.4071   18.9382 C   0  0  0  0  0  0
  -28.5889  -21.9927   23.9835 C   0  0  0  0  0  0
  -30.0863  -18.6721   20.5460 C   0  0  0  0  0  0
  -28.4379  -24.8723   20.0043 C   0  0  0  0  0  0
  -29.2789  -17.2666   20.3280 C   0  0  1  0  0  0
  -27.9703  -23.7608   21.1132 C   0  0  0  0  0  0
  -29.0297  -21.2579   20.3921 N   0  0  0  0  0  0
  -29.2558  -20.3284   22.2847 N   0  3  0  0  0  0
  -29.6950  -15.8559   20.8444 N   0  0  0  0  0  0
  -31.4891  -12.6402   19.1968 H   0  0  0  0  0  0
  -30.4174  -11.5070   19.9701 H   0  0  0  0  0  0
  -29.8166  -11.7612   17.5372 H   0  0  0  0  0  0
  -29.6394  -13.4850   17.7431 H   0  0  0  0  0  0
  -27.9175  -11.2832   18.9205 H   0  0  0  0  0  0
  -27.3917  -12.5218   17.8115 H   0  0  0  0  0  0
  -27.6443  -14.2459   19.4973 H   0  0  0  0  0  0
  -28.7379  -12.1288   21.4126 H   0  0  0  0  0  0
  -28.4054  -13.7847   21.8413 H   0  0  0  0  0  0
  -25.2763   -9.5679   22.4756 H   0  0  0  0  0  0
  -23.9987   -7.4638   22.7500 H   0  0  0  0  0  0
  -21.0822   -8.8769   19.8973 H   0  0  0  0  0  0
  -22.3682  -10.9666   19.6158 H   0  0  0  0  0  0
  -21.2007   -7.6146   23.9702 H   0  0  0  0  0  0
  -21.1481   -6.0527   25.9073 H   0  0  0  0  0  0
  -22.0601   -2.7597   23.2855 H   0  0  0  0  0  0
  -22.4097  -11.9853   22.4755 H   0  0  0  0  0  0
  -21.1122  -13.1255   22.2642 H   0  0  0  0  0  0
  -24.6561  -15.8427   20.5199 H   0  0  0  0  0  0
  -26.2722  -15.6281   20.0779 H   0  0  0  0  0  0
  -26.7180  -32.5370   23.1003 H   0  0  0  0  0  0
  -25.0114  -33.9660   25.0389 H   0  0  0  0  0  0
  -22.7294  -31.2886   21.3770 H   0  0  0  0  0  0
  -23.3765  -35.9562   23.3316 H   0  0  0  0  0  0
  -24.3564  -36.8871   22.2060 H   0  0  0  0  0  0
  -23.7201  -37.6435   23.6670 H   0  0  0  0  0  0
  -26.1172  -31.5130   20.6027 H   0  0  0  0  0  0
  -26.8512  -30.8072   22.0108 H   0  0  0  0  0  0
  -28.1185  -28.9098   21.2196 H   0  0  0  0  0  0
  -26.0045  -25.8612   19.0230 H   0  0  0  0  0  0
  -24.0005  -27.2696   19.0032 H   0  0  0  0  0  0
  -23.7764  -30.5582   19.3885 H   0  0  0  0  0  0
  -22.7764  -29.2159   19.8465 H   0  0  0  0  0  0
  -25.1292  -36.1894   25.0811 H   0  0  0  0  0  0
  -20.9986  -28.3250   24.1382 H   0  0  0  0  0  0
  -20.5630  -26.2279   23.3613 H   0  0  0  0  0  0
  -21.6642  -26.7377   22.1220 H   0  0  0  0  0  0
  -19.6909  -25.6275   21.1235 H   0  0  0  0  0  0
  -19.6706  -27.3163   20.6730 H   0  0  0  0  0  0
  -17.4199  -26.6670   21.4008 H   0  0  0  0  0  0
  -18.0326  -26.0058   22.9001 H   0  0  0  0  0  0
  -19.7967  -30.7236   24.2266 H   0  0  0  0  0  0
  -17.5054  -31.6269   24.5125 H   0  0  0  0  0  0
  -15.5368  -30.2973   23.7675 H   0  0  0  0  0  0
  -15.8683  -28.0795   22.7098 H   0  0  0  0  0  0
  -24.5928  -30.7048   25.7750 H   0  0  0  0  0  0
  -24.8864  -32.2896   26.4805 H   0  0  0  0  0  0
  -25.8035  -30.8959   27.0222 H   0  0  0  0  0  0
  -26.2940  -29.6741   24.1226 H   0  0  0  0  0  0
  -27.4049  -29.7280   25.4723 H   0  0  0  0  0  0
  -27.8812  -30.4287   23.9437 H   0  0  0  0  0  0
  -27.2665  -33.3676   26.1981 H   0  0  0  0  0  0
  -28.3885  -32.6844   25.0315 H   0  0  0  0  0  0
  -28.0676  -31.8505   26.5449 H   0  0  0  0  0  0
  -28.2582  -38.0072   24.7521 H   0  0  0  0  0  0
  -28.1058  -36.2602   24.6305 H   0  0  0  0  0  0
  -27.2277  -37.1418   25.8874 H   0  0  0  0  0  0
  -20.9407  -29.8773   21.6857 H   0  0  0  0  0  0
  -26.0161  -38.2828   24.1471 H   0  0  0  0  0  0
  -28.8187  -21.2921   26.0224 H   0  0  0  0  0  0
  -30.0676  -20.6895   24.9478 H   0  0  0  0  0  0
  -28.4329  -20.0053   24.8989 H   0  0  0  0  0  0
  -29.7359  -16.9790   18.2096 H   0  0  0  0  0  0
  -28.3653  -18.0441   18.5006 H   0  0  0  0  0  0
  -28.1780  -16.3157   18.6904 H   0  0  0  0  0  0
  -27.4617  -24.1382   23.2374 H   0  0  0  0  0  0
  -27.6132  -25.5628   22.3341 H   0  0  0  0  0  0
  -29.0781  -24.7055   22.7570 H   0  0  0  0  0  0
  -26.0566  -22.8435   21.6431 H   0  0  0  0  0  0
  -26.3238  -22.9722   19.9096 H   0  0  0  0  0  0
  -25.8927  -24.3978   20.8520 H   0  0  0  0  0  0
  -28.9256  -20.4359   18.4616 H   0  0  0  0  0  0
  -28.2577  -22.0737   18.6245 H   0  0  0  0  0  0
  -30.0218  -21.8256   18.6444 H   0  0  0  0  0  0
  -27.5273  -22.1946   24.1282 H   0  0  0  0  0  0
  -29.1432  -22.9045   24.2049 H   0  0  0  0  0  0
  -30.8514  -18.4932   21.3009 H   0  0  0  0  0  0
  -30.6498  -18.9056   19.6429 H   0  0  0  0  0  0
  -28.0036  -24.6348   19.0337 H   0  0  0  0  0  0
  -29.5054  -24.7004   19.8611 H   0  0  0  0  0  0
  -28.3509  -17.4234   20.8813 H   0  0  0  0  0  0
  -29.4607  -19.6573   23.0153 H   0  0  0  0  0  0
  -28.9364  -15.4632   21.3844 H   0  0  0  0  0  0
  1 25  1  0  0  0
  1 30  2  0  0  0
  1 86  1  0  0  0
  2  3  1  0  0  0
  2 25  1  0  0  0
  2 87  1  0  0  0
  2 88  1  0  0  0
  3  4  1  0  0  0
  3 89  1  0  0  0
  3 90  1  0  0  0
  4  5  1  0  0  0
  4 91  1  0  0  0
  4 92  1  0  0  0
  5  6  1  0  0  0
  5 26  1  0  0  0
  5 93  1  0  0  0
  6 25  1  0  0  0
  6 94  1  0  0  0
  6 95  1  0  0  0
  7  8  2  0  0  0
  7 26  1  0  0  0
  7 29  1  0  0  0
  8  9  1  0  0  0
  8 22  1  0  0  0
  9 10  1  0  0  0
  9 27  2  0  0  0
 10 11  2  0  0  0
 10 15  1  0  0  0
 11 12  1  0  0  0
 11 96  1  0  0  0
 12 13  2  0  0  0
 12 97  1  0  0  0
 13 14  1  0  0  0
 13 31  1  0  0  0
 14 15  2  0  0  0
 14 98  1  0  0  0
 15 99  1  0  0  0
 16 17  2  0  0  0
 16 21  1  0  0  0
 16 31  1  0  0  0
 17 18  1  0  0  0
 17100  1  0  0  0
 18 19  2  0  0  0
 18101  1  0  0  0
 19 20  1  0  0  0
 19 24  1  0  0  0
 20 21  2  0  0  0
 20102  1  0  0  0
 21 23  1  0  0  0
 22 28  1  0  0  0
 22 32  2  0  0  0
 26 27  1  0  0  0
 28103  1  0  0  0
 28104  1  0  0  0
 29105  1  0  0  0
 29106  1  0  0  0
 33 34  1  0  0  0
 33 66  1  0  0  0
 33 70  2  0  0  0
 34 36  1  0  0  0
 34 59  1  0  0  0
 34107  1  0  0  0
 35 44  2  0  0  0
 35 45  1  0  0  0
 35 68  1  0  0  0
 36 56  1  0  0  0
 36108  1  0  0  0
 37 39  1  0  0  0
 37 47  1  0  0  0
 37 66  1  0  0  0
 37109  1  0  0  0
 38 43  2  0  0  0
 38 46  1  0  0  0
 38 47  1  0  0  0
 39 64  1  0  0  0
 39 67  2  0  0  0
 40 52  1  0  0  0
 40 53  2  0  0  0
 40 58  1  0  0  0
 41110  1  0  0  0
 41111  1  0  0  0
 41112  1  0  0  0
 41 48  1  0  0  0
 42 43  1  0  0  0
 42 66  1  0  0  0
 42113  1  0  0  0
 42114  1  0  0  0
 43 44  1  0  0  0
 44115  1  0  0  0
 45 46  2  0  0  0
 45116  1  0  0  0
 46117  1  0  0  0
 47118  1  0  0  0
 47119  1  0  0  0
 48 56  1  0  0  0
 48 65  1  0  0  0
 48120  1  0  0  0
 49 50  1  0  0  0
 49 53  1  0  0  0
 49 64  1  0  0  0
 49121  1  0  0  0
 50 51  1  0  0  0
 50122  1  0  0  0
 50123  1  0  0  0
 51 52  1  0  0  0
 51124  1  0  0  0
 51125  1  0  0  0
 52126  1  0  0  0
 52127  1  0  0  0
 53 54  1  0  0  0
 54 55  2  0  0  0
 54128  1  0  0  0
 55 57  1  0  0  0
 55129  1  0  0  0
 56 69  2  0  0  0
 57 58  2  0  0  0
 57130  1  0  0  0
 58131  1  0  0  0
 59 60  1  0  0  0
 59 61  1  0  0  0
 59 62  1  0  0  0
 60132  1  0  0  0
 60133  1  0  0  0
 60134  1  0  0  0
 61135  1  0  0  0
 61136  1  0  0  0
 61137  1  0  0  0
 62138  1  0  0  0
 62139  1  0  0  0
 62140  1  0  0  0
 63 65  1  0  0  0
 63141  1  0  0  0
 63142  1  0  0  0
 63143  1  0  0  0
 64144  1  0  0  0
 65145  1  0  0  0
 68 81  1  0  0  0
 71 72  2  0  0  0
 71 83  1  0  0  0
 71 84  1  0  0  0
 72 79  1  0  0  0
 72 85  1  0  0  0
 73 80  1  0  0  0
 73 84  1  0  0  0
 73 85  2  0  0  0
 74 79  1  0  0  0
 74146  1  0  0  0
 74147  1  0  0  0
 74148  1  0  0  0
 75149  1  0  0  0
 75150  1  0  0  0
 75151  1  0  0  0
 75 82  1  0  0  0
 76152  1  0  0  0
 76153  1  0  0  0
 76154  1  0  0  0
 76 83  1  0  0  0
 77 83  1  0  0  0
 77155  1  0  0  0
 77156  1  0  0  0
 77157  1  0  0  0
 78 84  1  0  0  0
 78158  1  0  0  0
 78159  1  0  0  0
 78160  1  0  0  0
 79161  1  0  0  0
 79162  1  0  0  0
 80 82  1  0  0  0
 80163  1  0  0  0
 80164  1  0  0  0
 81 83  1  0  0  0
 81165  1  0  0  0
 81166  1  0  0  0
 82 86  1  0  0  0
 82167  1  0  0  0
 85168  1  0  0  0
 86169  1  0  0  0
M  CHG  1  85   1
M  ISO  4   1 100  68 101  81 101  86 100
M  END
> <chiral flag>
0

> <version>
0

> <s_m_source_file>
/data/baiqing/PycharmProjects/Reinvent-master-3.2/result/LINK_invent/BTK/process_docking_weight1_custom_sum_contain_oxygen_bond_distance_aromatic_linkinvent_7_9_3/rearranged_h_0061.sdf

> <i_m_source_file_index>
52

> <r_mmod_Potential_Energy-OPLS-2005>
332.269409179688

> <r_mmod_Stretch_Energy-OPLS-2005>
182.070816040039

> <r_mmod_Bend_Energy-OPLS-2005>
284.273468017578

> <r_mmod_Torsional_Energy-OPLS-2005>
256.915069580078

> <r_mmod_Improper_Torsional_Energy-OPLS-2005>
6.79917287826538

> <r_mmod_Van_der_Waal_Energy-OPLS-2005>
112.186553955078

> <r_mmod_Electrostatic_Energy-OPLS-2005>
-209.324905395508

> <r_mmod_Solvation_Energy-OPLS-2005>
-408.513671875

> <b_mmod_Minimization_Converged-OPLS-2005>
0

> <r_mmod_RMS_Derivative-OPLS-2005>
2.11519408226013

$$$$
54
                    3D
 Structure written by MMmdl.
157165  0  0  1  0            999 V2000
  -30.5671  -14.8993   20.4676 C   0  0  0  0  0  0
  -30.4388  -12.5635   19.4906 C   0  0  0  0  0  0
  -29.5170  -12.5412   18.2484 C   0  0  0  0  0  0
  -28.0455  -12.3393   18.6581 C   0  0  0  0  0  0
  -27.6372  -13.2411   19.8518 C   0  0  2  0  0  0
  -28.6818  -13.1914   20.9846 C   0  0  0  0  0  0
  -25.2490  -13.8203   20.5708 C   0  0  0  0  0  0
  -24.1791  -13.0436   20.9209 C   0  0  0  0  0  0
  -24.6395  -11.6916   20.8749 C   0  0  0  0  0  0
  -23.9073  -10.4291   21.0407 C   0  0  0  0  0  0
  -24.3624   -9.4202   21.9183 C   0  0  0  0  0  0
  -23.6297   -8.2236   22.0754 C   0  0  0  0  0  0
  -22.4277   -8.0275   21.3545 C   0  0  0  0  0  0
  -21.9910   -9.0253   20.4652 C   0  0  0  0  0  0
  -22.7244  -10.2128   20.3059 C   0  0  0  0  0  0
  -21.6851   -6.0731   22.5276 C   0  0  0  0  0  0
  -21.4013   -6.5637   23.8209 C   0  0  0  0  0  0
  -21.3664   -5.6791   24.9172 C   0  0  0  0  0  0
  -21.6044   -4.3053   24.7224 C   0  0  0  0  0  0
  -21.8820   -3.8145   23.4344 C   0  0  0  0  0  0
  -21.9193   -4.6960   22.3400 C   0  0  0  0  0  0
  -22.7814  -13.5217   21.1863 C   0  0  0  0  0  0
  -22.1668   -4.2148   21.0977 F   0  0  0  0  0  0
  -21.5629   -3.4536   25.7736 F   0  0  0  0  0  0
  -29.9581  -13.6417   20.4062 N   0  0  0  0  0  0
  -26.2919  -12.9424   20.3287 N   0  0  0  0  0  0
  -25.9325  -11.6556   20.5745 N   0  0  0  0  0  0
  -22.0465  -12.8217   22.0426 N   0  0  0  0  0  0
  -25.4167  -15.1927   20.4131 N   0  0  0  0  0  0
  -31.7372  -14.9628   20.0700 O   0  0  0  0  0  0
  -21.6639   -6.8873   21.4237 O   0  0  0  0  0  0
  -22.3502  -14.5520   20.6705 O   0  0  0  0  0  0
  -24.6408  -31.8451   23.1886 C   0  0  0  0  0  0
  -25.9195  -32.4698   23.8263 C   0  0  1  0  0  0
  -27.2175  -27.1625   20.1449 C   0  0  0  0  0  0
  -25.5953  -33.8500   24.2186 N   0  0  0  0  0  0
  -23.4426  -30.4656   21.5327 C   0  0  2  0  0  0
  -24.8909  -28.8939   20.1084 C   0  0  0  0  0  0
  -22.7548  -29.4557   22.4851 C   0  0  0  0  0  0
  -18.0307  -28.1397   22.8483 C   0  0  0  0  0  0
  -24.1493  -36.7259   23.2643 C   0  0  0  0  0  0
  -25.9960  -30.7274   21.3827 C   0  0  0  0  0  0
  -26.0672  -29.3413   20.7236 C   0  0  0  0  0  0
  -27.2314  -28.4906   20.7245 C   0  0  0  0  0  0
  -26.0164  -26.8064   19.4941 C   0  0  0  0  0  0
  -24.8766  -27.6391   19.4789 C   0  0  0  0  0  0
  -23.6679  -29.7947   20.1517 C   0  0  0  0  0  0
  -25.4122  -36.3031   24.0318 C   0  0  1  0  0  0
  -20.5915  -28.3720   23.1242 C   0  0  2  0  0  0
  -20.6790  -26.9423   22.5409 C   0  0  0  0  0  0
  -19.5763  -26.6386   21.5215 C   0  0  0  0  0  0
  -18.1944  -26.7939   22.1625 C   0  0  0  0  0  0
  -19.1560  -28.8875   23.2859 C   0  0  0  0  0  0
  -18.9479  -30.1472   23.8883 C   0  0  0  0  0  0
  -17.6474  -30.6595   24.0561 C   0  0  0  0  0  0
  -25.9071  -34.9409   23.5058 C   0  0  0  0  0  0
  -16.5367  -29.9089   23.6334 C   0  0  0  0  0  0
  -16.7290  -28.6506   23.0360 C   0  0  0  0  0  0
  -26.4523  -31.6565   25.0701 C   0  0  0  0  0  0
  -25.3720  -31.3765   26.1409 C   0  0  0  0  0  0
  -27.0381  -30.2960   24.6274 C   0  0  0  0  0  0
  -27.6043  -32.4340   25.7487 C   0  0  0  0  0  0
  -27.5578  -37.1782   24.8460 C   0  0  0  0  0  0
  -21.4244  -29.3051   22.3609 N   0  0  0  0  0  0
  -26.4284  -37.3748   23.9414 N   0  0  0  0  0  0
  -24.7127  -31.0335   22.0904 N   0  0  0  0  0  0
  -23.4202  -28.8110   23.2998 O   0  0  0  0  0  0
  -28.2855  -26.2057   20.2170 O   0  0  0  0  0  0
  -26.5652  -34.8906   22.4635 O   0  0  0  0  0  0
  -23.5538  -32.1316   23.7131 O   0  0  0  0  0  0
  -28.3028  -20.9679   19.9357 C   0  0  0  0  0  0
  -29.2588  -21.9088   20.4322 C   0  0  0  0  0  0
  -30.4099  -21.1814   20.8860 C   0  0  0  0  0  0
  -29.6306  -18.9986   20.3210 C   0  0  0  0  0  0
  -32.6611  -22.2129   20.3347 C   0  0  0  0  0  0
  -29.0403  -16.2635   21.8979 C   0  0  0  0  0  0
  -29.1932  -23.5618   20.5263 C   0  0  0  0  0  0
  -31.6323  -21.9060   21.4321 C   0  0  0  0  0  0
  -30.0506  -17.4589   19.9203 C   0  0  0  0  0  0
  -28.0631  -24.6827   20.0486 C   0  0  0  0  0  0
  -28.4974  -19.5881   19.8703 N   0  0  0  0  0  0
  -30.5739  -19.8124   20.8177 N   0  0  0  0  0  0
  -29.8304  -16.1023   20.6755 N   0  0  0  0  0  0
  -31.4715  -12.7147   19.1742 H   0  0  0  0  0  0
  -30.4318  -11.5954   19.9943 H   0  0  0  0  0  0
  -29.8265  -11.7539   17.5594 H   0  0  0  0  0  0
  -29.6187  -13.4809   17.7042 H   0  0  0  0  0  0
  -27.9199  -11.2910   18.9308 H   0  0  0  0  0  0
  -27.3867  -12.5139   17.8063 H   0  0  0  0  0  0
  -27.6225  -14.2623   19.4690 H   0  0  0  0  0  0
  -28.7710  -12.1783   21.3805 H   0  0  0  0  0  0
  -28.3646  -13.7946   21.8303 H   0  0  0  0  0  0
  -25.2768   -9.5679   22.4761 H   0  0  0  0  0  0
  -24.0007   -7.4629   22.7475 H   0  0  0  0  0  0
  -21.0839   -8.8775   19.8964 H   0  0  0  0  0  0
  -22.3703  -10.9668   19.6172 H   0  0  0  0  0  0
  -21.2005   -7.6145   23.9712 H   0  0  0  0  0  0
  -21.1491   -6.0520   25.9075 H   0  0  0  0  0  0
  -22.0596   -2.7607   23.2842 H   0  0  0  0  0  0
  -22.4098  -11.9891   22.4821 H   0  0  0  0  0  0
  -21.1083  -13.1249   22.2635 H   0  0  0  0  0  0
  -24.6461  -15.8439   20.5197 H   0  0  0  0  0  0
  -26.2656  -15.6340   20.0839 H   0  0  0  0  0  0
  -26.7257  -32.5310   23.0987 H   0  0  0  0  0  0
  -25.0082  -33.9608   25.0322 H   0  0  0  0  0  0
  -22.7452  -31.2913   21.3792 H   0  0  0  0  0  0
  -23.3757  -35.9588   23.3283 H   0  0  0  0  0  0
  -24.3581  -36.8913   22.2062 H   0  0  0  0  0  0
  -23.7246  -37.6450   23.6690 H   0  0  0  0  0  0
  -26.1501  -31.4844   20.6126 H   0  0  0  0  0  0
  -26.8673  -30.7748   22.0247 H   0  0  0  0  0  0
  -28.1284  -28.8268   21.2259 H   0  0  0  0  0  0
  -25.9308  -25.8457   19.0080 H   0  0  0  0  0  0
  -23.9780  -27.2918   18.9878 H   0  0  0  0  0  0
  -23.8035  -30.5687   19.3953 H   0  0  0  0  0  0
  -22.7830  -29.2369   19.8410 H   0  0  0  0  0  0
  -25.1311  -36.1852   25.0810 H   0  0  0  0  0  0
  -21.0016  -28.3313   24.1358 H   0  0  0  0  0  0
  -20.5682  -26.2330   23.3627 H   0  0  0  0  0  0
  -21.6658  -26.7433   22.1205 H   0  0  0  0  0  0
  -19.6919  -25.6291   21.1258 H   0  0  0  0  0  0
  -19.6703  -27.3184   20.6734 H   0  0  0  0  0  0
  -17.4215  -26.6689   21.4029 H   0  0  0  0  0  0
  -18.0339  -26.0084   22.9024 H   0  0  0  0  0  0
  -19.7957  -30.7292   24.2247 H   0  0  0  0  0  0
  -17.5032  -31.6272   24.5170 H   0  0  0  0  0  0
  -15.5367  -30.2990   23.7665 H   0  0  0  0  0  0
  -15.8692  -28.0820   22.7086 H   0  0  0  0  0  0
  -24.5881  -30.7128   25.7747 H   0  0  0  0  0  0
  -24.8934  -32.2957   26.4797 H   0  0  0  0  0  0
  -25.8018  -30.8965   27.0211 H   0  0  0  0  0  0
  -26.2987  -29.6687   24.1281 H   0  0  0  0  0  0
  -27.3995  -29.7259   25.4843 H   0  0  0  0  0  0
  -27.8897  -30.4194   23.9578 H   0  0  0  0  0  0
  -27.2609  -33.3644   26.2024 H   0  0  0  0  0  0
  -28.3872  -32.6907   25.0337 H   0  0  0  0  0  0
  -28.0688  -31.8502   26.5444 H   0  0  0  0  0  0
  -28.2580  -38.0094   24.7520 H   0  0  0  0  0  0
  -28.1092  -36.2626   24.6268 H   0  0  0  0  0  0
  -27.2299  -37.1407   25.8863 H   0  0  0  0  0  0
  -20.9440  -29.8761   21.6797 H   0  0  0  0  0  0
  -26.0149  -38.2813   24.1433 H   0  0  0  0  0  0
  -27.3582  -21.3219   19.5502 H   0  0  0  0  0  0
  -33.5208  -22.7425   20.7448 H   0  0  0  0  0  0
  -32.2294  -22.8351   19.5506 H   0  0  0  0  0  0
  -33.0228  -21.2949   19.8706 H   0  0  0  0  0  0
  -29.3711  -15.5861   22.6870 H   0  0  0  0  0  0
  -27.9839  -16.0822   21.6991 H   0  0  0  0  0  0
  -29.1324  -17.2676   22.3105 H   0  0  0  0  0  0
  -30.1138  -23.8913   20.0454 H   0  0  0  0  0  0
  -29.3435  -23.7760   21.5843 H   0  0  0  0  0  0
  -32.1000  -21.2855   22.1974 H   0  0  0  0  0  0
  -31.3466  -22.8214   21.9470 H   0  0  0  0  0  0
  -31.1203  -17.5092   19.7165 H   0  0  0  0  0  0
  -29.6082  -17.2980   18.9372 H   0  0  0  0  0  0
  -27.1334  -24.4353   20.5625 H   0  0  0  0  0  0
  -27.8678  -24.5126   18.9891 H   0  0  0  0  0  0
  1 25  1  0  0  0
  1 30  2  0  0  0
  1 83  1  0  0  0
  2  3  1  0  0  0
  2 25  1  0  0  0
  2 84  1  0  0  0
  2 85  1  0  0  0
  3  4  1  0  0  0
  3 86  1  0  0  0
  3 87  1  0  0  0
  4  5  1  0  0  0
  4 88  1  0  0  0
  4 89  1  0  0  0
  5  6  1  0  0  0
  5 26  1  0  0  0
  5 90  1  0  0  0
  6 25  1  0  0  0
  6 91  1  0  0  0
  6 92  1  0  0  0
  7  8  2  0  0  0
  7 26  1  0  0  0
  7 29  1  0  0  0
  8  9  1  0  0  0
  8 22  1  0  0  0
  9 10  1  0  0  0
  9 27  2  0  0  0
 10 11  2  0  0  0
 10 15  1  0  0  0
 11 12  1  0  0  0
 11 93  1  0  0  0
 12 13  2  0  0  0
 12 94  1  0  0  0
 13 14  1  0  0  0
 13 31  1  0  0  0
 14 15  2  0  0  0
 14 95  1  0  0  0
 15 96  1  0  0  0
 16 17  2  0  0  0
 16 21  1  0  0  0
 16 31  1  0  0  0
 17 18  1  0  0  0
 17 97  1  0  0  0
 18 19  2  0  0  0
 18 98  1  0  0  0
 19 20  1  0  0  0
 19 24  1  0  0  0
 20 21  2  0  0  0
 20 99  1  0  0  0
 21 23  1  0  0  0
 22 28  1  0  0  0
 22 32  2  0  0  0
 26 27  1  0  0  0
 28100  1  0  0  0
 28101  1  0  0  0
 29102  1  0  0  0
 29103  1  0  0  0
 33 34  1  0  0  0
 33 66  1  0  0  0
 33 70  2  0  0  0
 34 36  1  0  0  0
 34 59  1  0  0  0
 34104  1  0  0  0
 35 44  2  0  0  0
 35 45  1  0  0  0
 35 68  1  0  0  0
 36 56  1  0  0  0
 36105  1  0  0  0
 37 39  1  0  0  0
 37 47  1  0  0  0
 37 66  1  0  0  0
 37106  1  0  0  0
 38 43  2  0  0  0
 38 46  1  0  0  0
 38 47  1  0  0  0
 39 64  1  0  0  0
 39 67  2  0  0  0
 40 52  1  0  0  0
 40 53  2  0  0  0
 40 58  1  0  0  0
 41107  1  0  0  0
 41108  1  0  0  0
 41109  1  0  0  0
 41 48  1  0  0  0
 42 43  1  0  0  0
 42 66  1  0  0  0
 42110  1  0  0  0
 42111  1  0  0  0
 43 44  1  0  0  0
 44112  1  0  0  0
 45 46  2  0  0  0
 45113  1  0  0  0
 46114  1  0  0  0
 47115  1  0  0  0
 47116  1  0  0  0
 48 56  1  0  0  0
 48 65  1  0  0  0
 48117  1  0  0  0
 49 50  1  0  0  0
 49 53  1  0  0  0
 49 64  1  0  0  0
 49118  1  0  0  0
 50 51  1  0  0  0
 50119  1  0  0  0
 50120  1  0  0  0
 51 52  1  0  0  0
 51121  1  0  0  0
 51122  1  0  0  0
 52123  1  0  0  0
 52124  1  0  0  0
 53 54  1  0  0  0
 54 55  2  0  0  0
 54125  1  0  0  0
 55 57  1  0  0  0
 55126  1  0  0  0
 56 69  2  0  0  0
 57 58  2  0  0  0
 57127  1  0  0  0
 58128  1  0  0  0
 59 60  1  0  0  0
 59 61  1  0  0  0
 59 62  1  0  0  0
 60129  1  0  0  0
 60130  1  0  0  0
 60131  1  0  0  0
 61132  1  0  0  0
 61133  1  0  0  0
 61134  1  0  0  0
 62135  1  0  0  0
 62136  1  0  0  0
 62137  1  0  0  0
 63 65  1  0  0  0
 63138  1  0  0  0
 63139  1  0  0  0
 63140  1  0  0  0
 64141  1  0  0  0
 65142  1  0  0  0
 68 80  1  0  0  0
 71 72  2  0  0  0
 71 81  1  0  0  0
 71143  1  0  0  0
 72 73  1  0  0  0
 72 77  1  0  0  0
 73 78  1  0  0  0
 73 82  2  0  0  0
 74 79  1  0  0  0
 74 81  2  0  0  0
 74 82  1  0  0  0
 75 78  1  0  0  0
 75144  1  0  0  0
 75145  1  0  0  0
 75146  1  0  0  0
 76 83  1  0  0  0
 76147  1  0  0  0
 76148  1  0  0  0
 76149  1  0  0  0
 77 80  1  0  0  0
 77150  1  0  0  0
 77151  1  0  0  0
 78152  1  0  0  0
 78153  1  0  0  0
 79 83  1  0  0  0
 79154  1  0  0  0
 79155  1  0  0  0
 80156  1  0  0  0
 80157  1  0  0  0
M  ISO  4   1 100  68 101  80 101  83 100
M  END
> <chiral flag>
0

> <version>
0

> <s_m_source_file>
/data/baiqing/PycharmProjects/Reinvent-master-3.2/result/LINK_invent/BTK/process_docking_weight1_custom_sum_contain_oxygen_bond_distance_aromatic_linkinvent_7_9_3/rearranged_h_0061.sdf

> <i_m_source_file_index>
53

> <r_mmod_Potential_Energy-OPLS-2005>
15.7620458602905

> <r_mmod_Stretch_Energy-OPLS-2005>
211.717254638672

> <r_mmod_Bend_Energy-OPLS-2005>
269.640899658203

> <r_mmod_Torsional_Energy-OPLS-2005>
248.251953125

> <r_mmod_Improper_Torsional_Energy-OPLS-2005>
10.5851078033447

> <r_mmod_Van_der_Waal_Energy-OPLS-2005>
142.90446472168

> <r_mmod_Electrostatic_Energy-OPLS-2005>
-801.361022949219

> <r_mmod_Solvation_Energy-OPLS-2005>
-222.064819335938

> <b_mmod_Minimization_Converged-OPLS-2005>
0

> <r_mmod_RMS_Derivative-OPLS-2005>
1.05856120586395

$$$$
55
                    3D
 Structure written by MMmdl.
174182  0  0  1  0            999 V2000
  -30.6746  -14.5765   20.5884 C   0  0  0  0  0  0
  -30.4383  -12.3798   19.4453 C   0  0  0  0  0  0
  -29.5054  -12.5167   18.2208 C   0  0  0  0  0  0
  -28.0274  -12.3566   18.6285 C   0  0  0  0  0  0
  -27.6586  -13.2092   19.8692 C   0  0  2  0  0  0
  -28.6970  -13.0093   20.9911 C   0  0  0  0  0  0
  -25.2599  -13.8159   20.5684 C   0  0  0  0  0  0
  -24.1846  -13.0430   20.9176 C   0  0  0  0  0  0
  -24.6404  -11.6900   20.8734 C   0  0  0  0  0  0
  -23.9071  -10.4287   21.0409 C   0  0  0  0  0  0
  -24.3618   -9.4197   21.9181 C   0  0  0  0  0  0
  -23.6294   -8.2235   22.0751 C   0  0  0  0  0  0
  -22.4276   -8.0278   21.3538 C   0  0  0  0  0  0
  -21.9914   -9.0252   20.4636 C   0  0  0  0  0  0
  -22.7248  -10.2131   20.3050 C   0  0  0  0  0  0
  -21.6848   -6.0733   22.5277 C   0  0  0  0  0  0
  -21.4011   -6.5641   23.8211 C   0  0  0  0  0  0
  -21.3663   -5.6795   24.9174 C   0  0  0  0  0  0
  -21.6045   -4.3059   24.7229 C   0  0  0  0  0  0
  -21.8823   -3.8146   23.4349 C   0  0  0  0  0  0
  -21.9192   -4.6961   22.3403 C   0  0  0  0  0  0
  -22.7863  -13.5217   21.1846 C   0  0  0  0  0  0
  -22.1658   -4.2143   21.0979 F   0  0  0  0  0  0
  -21.5632   -3.4545   25.7745 F   0  0  0  0  0  0
  -30.0192  -13.3766   20.4537 N   0  0  0  0  0  0
  -26.3015  -12.9322   20.3323 N   0  0  0  0  0  0
  -25.9328  -11.6484   20.5754 N   0  0  0  0  0  0
  -22.0510  -12.8198   22.0398 N   0  0  0  0  0  0
  -25.4361  -15.1873   20.4120 N   0  0  0  0  0  0
  -31.7842  -14.7518   20.0742 O   0  0  0  0  0  0
  -21.6636   -6.8880   21.4240 O   0  0  0  0  0  0
  -22.3547  -14.5526   20.6702 O   0  0  0  0  0  0
  -24.6189  -31.8642   23.2063 C   0  0  0  0  0  0
  -25.9053  -32.4810   23.8382 C   0  0  1  0  0  0
  -27.2321  -27.3802   20.1068 C   0  0  0  0  0  0
  -25.5895  -33.8609   24.2318 N   0  0  0  0  0  0
  -23.4125  -30.4855   21.5481 C   0  0  2  0  0  0
  -24.8641  -28.9478   20.1119 C   0  0  0  0  0  0
  -22.7445  -29.4629   22.4969 C   0  0  0  0  0  0
  -18.0280  -28.1357   22.8504 C   0  0  0  0  0  0
  -24.1487  -36.7301   23.2641 C   0  0  0  0  0  0
  -25.9476  -30.8124   21.3703 C   0  0  0  0  0  0
  -26.0284  -29.4435   20.7144 C   0  0  0  0  0  0
  -27.2199  -28.6673   20.7092 C   0  0  0  0  0  0
  -26.0558  -26.9224   19.4798 C   0  0  0  0  0  0
  -24.8753  -27.6888   19.4881 C   0  0  0  0  0  0
  -23.6261  -29.8178   20.1636 C   0  0  0  0  0  0
  -25.4108  -36.3106   24.0340 C   0  0  1  0  0  0
  -20.5877  -28.3662   23.1306 C   0  0  2  0  0  0
  -20.6772  -26.9391   22.5419 C   0  0  0  0  0  0
  -19.5747  -26.6372   21.5216 C   0  0  0  0  0  0
  -18.1923  -26.7910   22.1624 C   0  0  0  0  0  0
  -19.1530  -28.8827   23.2903 C   0  0  0  0  0  0
  -18.9451  -30.1430   23.8917 C   0  0  0  0  0  0
  -17.6452  -30.6577   24.0553 C   0  0  0  0  0  0
  -25.9037  -34.9471   23.5132 C   0  0  0  0  0  0
  -16.5345  -29.9075   23.6321 C   0  0  0  0  0  0
  -16.7269  -28.6477   23.0372 C   0  0  0  0  0  0
  -26.4463  -31.6598   25.0720 C   0  0  0  0  0  0
  -25.3715  -31.3683   26.1453 C   0  0  0  0  0  0
  -27.0301  -30.3042   24.6109 C   0  0  0  0  0  0
  -27.6053  -32.4315   25.7466 C   0  0  0  0  0  0
  -27.5586  -37.1796   24.8462 C   0  0  0  0  0  0
  -21.4167  -29.3024   22.3707 N   0  0  0  0  0  0
  -26.4290  -37.3797   23.9415 N   0  0  0  0  0  0
  -24.6781  -31.0692   22.0997 N   0  0  0  0  0  0
  -23.4196  -28.8171   23.3029 O   0  0  0  0  0  0
  -28.3296  -26.5286   20.1349 O   0  0  0  0  0  0
  -26.5610  -34.8927   22.4699 O   0  0  0  0  0  0
  -23.5362  -32.1422   23.7412 O   0  0  0  0  0  0
  -29.9047  -23.7939   19.9249 C   0  0  0  0  0  0
  -28.7086  -24.0623   20.5488 C   0  0  0  0  0  0
  -28.9847  -21.8380   20.2744 C   0  0  0  0  0  0
  -27.6545  -19.9045   19.2103 C   0  0  0  0  0  0
  -25.6374  -23.0448   20.5582 C   0  0  0  0  0  0
  -26.7718  -22.9307   22.8760 C   0  0  0  0  0  0
  -31.7156  -18.2449   21.3610 C   0  0  0  0  0  0
  -29.5210  -15.7361   22.4403 C   0  0  0  0  0  0
  -30.4863  -19.4485   18.6713 C   0  0  0  0  0  0
  -28.1624  -25.4111   21.0577 C   0  0  0  0  0  0
  -29.7979  -16.9334   20.2479 C   0  0  0  0  0  0
  -28.7083  -20.3073   20.2667 C   0  0  1  0  0  0
  -26.8163  -22.5135   21.3949 C   0  0  0  0  0  0
  -30.2433  -18.3123   20.9071 C   0  0  2  0  0  0
  -30.0731  -22.4131   19.7592 N   0  0  0  0  0  0
  -28.1180  -22.7850   20.7616 N   0  0  0  0  0  0
  -29.9527  -15.6572   21.0366 N   0  0  0  0  0  0
  -30.0239  -19.5761   20.0821 N   0  3  1  0  0  0
  -31.4780  -12.5070   19.1384 H   0  0  0  0  0  0
  -30.3787  -11.3744   19.8633 H   0  0  0  0  0  0
  -29.7645  -11.7735   17.4651 H   0  0  0  0  0  0
  -29.6510  -13.4919   17.7542 H   0  0  0  0  0  0
  -27.8569  -11.3009   18.8449 H   0  0  0  0  0  0
  -27.3749  -12.6042   17.7904 H   0  0  0  0  0  0
  -27.6956  -14.2543   19.5612 H   0  0  0  0  0  0
  -28.7082  -11.9678   21.3157 H   0  0  0  0  0  0
  -28.4017  -13.5688   21.8719 H   0  0  0  0  0  0
  -25.2767   -9.5668   22.4755 H   0  0  0  0  0  0
  -23.9999   -7.4623   22.7474 H   0  0  0  0  0  0
  -21.0847   -8.8776   19.8940 H   0  0  0  0  0  0
  -22.3713  -10.9670   19.6160 H   0  0  0  0  0  0
  -21.1996   -7.6151   23.9711 H   0  0  0  0  0  0
  -21.1483   -6.0527   25.9077 H   0  0  0  0  0  0
  -22.0600   -2.7609   23.2856 H   0  0  0  0  0  0
  -22.4134  -11.9862   22.4777 H   0  0  0  0  0  0
  -21.1124  -13.1210   22.2595 H   0  0  0  0  0  0
  -24.6793  -15.8524   20.5251 H   0  0  0  0  0  0
  -26.2990  -15.6169   20.1049 H   0  0  0  0  0  0
  -26.7120  -32.5511   23.1143 H   0  0  0  0  0  0
  -25.0037  -33.9768   25.0455 H   0  0  0  0  0  0
  -22.7031  -31.3032   21.4056 H   0  0  0  0  0  0
  -23.3763  -35.9616   23.3289 H   0  0  0  0  0  0
  -24.3590  -36.8931   22.2059 H   0  0  0  0  0  0
  -23.7211  -37.6487   23.6664 H   0  0  0  0  0  0
  -26.0678  -31.5794   20.6041 H   0  0  0  0  0  0
  -26.8315  -30.8669   21.9938 H   0  0  0  0  0  0
  -28.1137  -29.0388   21.1907 H   0  0  0  0  0  0
  -26.0505  -25.9550   18.9972 H   0  0  0  0  0  0
  -23.9835  -27.3040   19.0141 H   0  0  0  0  0  0
  -23.7349  -30.5937   19.4053 H   0  0  0  0  0  0
  -22.7493  -29.2394   19.8661 H   0  0  0  0  0  0
  -25.1280  -36.1978   25.0831 H   0  0  0  0  0  0
  -20.9968  -28.3230   24.1430 H   0  0  0  0  0  0
  -20.5681  -26.2263   23.3607 H   0  0  0  0  0  0
  -21.6640  -26.7435   22.1204 H   0  0  0  0  0  0
  -19.6912  -25.6288   21.1234 H   0  0  0  0  0  0
  -19.6683  -27.3190   20.6747 H   0  0  0  0  0  0
  -17.4200  -26.6677   21.4021 H   0  0  0  0  0  0
  -18.0309  -26.0038   22.9000 H   0  0  0  0  0  0
  -19.7922  -30.7229   24.2321 H   0  0  0  0  0  0
  -17.5006  -31.6269   24.5128 H   0  0  0  0  0  0
  -15.5341  -30.2979   23.7629 H   0  0  0  0  0  0
  -15.8666  -28.0781   22.7112 H   0  0  0  0  0  0
  -24.5917  -30.7010   25.7763 H   0  0  0  0  0  0
  -24.8859  -32.2818   26.4902 H   0  0  0  0  0  0
  -25.8059  -30.8849   27.0214 H   0  0  0  0  0  0
  -26.2851  -29.6794   24.1171 H   0  0  0  0  0  0
  -27.4079  -29.7287   25.4567 H   0  0  0  0  0  0
  -27.8684  -30.4358   23.9261 H   0  0  0  0  0  0
  -27.2710  -33.3635   26.2035 H   0  0  0  0  0  0
  -28.3853  -32.6844   25.0272 H   0  0  0  0  0  0
  -28.0727  -31.8436   26.5374 H   0  0  0  0  0  0
  -28.2587  -38.0114   24.7564 H   0  0  0  0  0  0
  -28.1106  -36.2652   24.6232 H   0  0  0  0  0  0
  -27.2311  -37.1374   25.8866 H   0  0  0  0  0  0
  -20.9335  -29.8750   21.6929 H   0  0  0  0  0  0
  -26.0184  -38.2869   24.1451 H   0  0  0  0  0  0
  -30.6700  -24.4905   19.6126 H   0  0  0  0  0  0
  -26.6861  -20.3584   19.4125 H   0  0  0  0  0  0
  -27.5023  -18.8267   19.1971 H   0  0  0  0  0  0
  -27.9413  -20.2189   18.2068 H   0  0  0  0  0  0
  -24.6879  -22.6978   20.9665 H   0  0  0  0  0  0
  -25.6962  -22.6865   19.5301 H   0  0  0  0  0  0
  -25.5858  -24.1295   20.5187 H   0  0  0  0  0  0
  -25.8446  -22.5921   23.3396 H   0  0  0  0  0  0
  -26.8254  -24.0053   23.0320 H   0  0  0  0  0  0
  -27.5926  -22.4788   23.4339 H   0  0  0  0  0  0
  -31.8870  -17.4283   22.0612 H   0  0  0  0  0  0
  -32.0188  -19.1623   21.8664 H   0  0  0  0  0  0
  -32.3936  -18.0848   20.5233 H   0  0  0  0  0  0
  -28.4386  -15.8545   22.5017 H   0  0  0  0  0  0
  -29.9788  -16.5677   22.9717 H   0  0  0  0  0  0
  -29.7963  -14.8473   23.0105 H   0  0  0  0  0  0
  -30.4513  -20.3995   18.1409 H   0  0  0  0  0  0
  -29.8798  -18.7411   18.1061 H   0  0  0  0  0  0
  -31.5192  -19.1042   18.6259 H   0  0  0  0  0  0
  -28.6941  -25.6714   21.9729 H   0  0  0  0  0  0
  -27.1241  -25.3231   21.3598 H   0  0  0  0  0  0
  -30.3223  -16.8041   19.3000 H   0  0  0  0  0  0
  -28.7443  -17.0004   19.9804 H   0  0  0  0  0  0
  -28.3305  -20.0509   21.2552 H   0  0  0  0  0  0
  -26.6680  -21.4377   21.4208 H   0  0  0  0  0  0
  -29.6615  -18.4431   21.8193 H   0  0  0  0  0  0
  -30.6518  -20.2616   20.4813 H   0  0  0  0  0  0
  1 25  1  0  0  0
  1 30  2  0  0  0
  1 87  1  0  0  0
  2  3  1  0  0  0
  2 25  1  0  0  0
  2 89  1  0  0  0
  2 90  1  0  0  0
  3  4  1  0  0  0
  3 91  1  0  0  0
  3 92  1  0  0  0
  4  5  1  0  0  0
  4 93  1  0  0  0
  4 94  1  0  0  0
  5  6  1  0  0  0
  5 26  1  0  0  0
  5 95  1  0  0  0
  6 25  1  0  0  0
  6 96  1  0  0  0
  6 97  1  0  0  0
  7  8  2  0  0  0
  7 26  1  0  0  0
  7 29  1  0  0  0
  8  9  1  0  0  0
  8 22  1  0  0  0
  9 10  1  0  0  0
  9 27  2  0  0  0
 10 11  2  0  0  0
 10 15  1  0  0  0
 11 12  1  0  0  0
 11 98  1  0  0  0
 12 13  2  0  0  0
 12 99  1  0  0  0
 13 14  1  0  0  0
 13 31  1  0  0  0
 14 15  2  0  0  0
 14100  1  0  0  0
 15101  1  0  0  0
 16 17  2  0  0  0
 16 21  1  0  0  0
 16 31  1  0  0  0
 17 18  1  0  0  0
 17102  1  0  0  0
 18 19  2  0  0  0
 18103  1  0  0  0
 19 20  1  0  0  0
 19 24  1  0  0  0
 20 21  2  0  0  0
 20104  1  0  0  0
 21 23  1  0  0  0
 22 28  1  0  0  0
 22 32  2  0  0  0
 26 27  1  0  0  0
 28105  1  0  0  0
 28106  1  0  0  0
 29107  1  0  0  0
 29108  1  0  0  0
 33 34  1  0  0  0
 33 66  1  0  0  0
 33 70  2  0  0  0
 34 36  1  0  0  0
 34 59  1  0  0  0
 34109  1  0  0  0
 35 44  2  0  0  0
 35 45  1  0  0  0
 35 68  1  0  0  0
 36 56  1  0  0  0
 36110  1  0  0  0
 37 39  1  0  0  0
 37 47  1  0  0  0
 37 66  1  0  0  0
 37111  1  0  0  0
 38 43  2  0  0  0
 38 46  1  0  0  0
 38 47  1  0  0  0
 39 64  1  0  0  0
 39 67  2  0  0  0
 40 52  1  0  0  0
 40 53  2  0  0  0
 40 58  1  0  0  0
 41112  1  0  0  0
 41113  1  0  0  0
 41114  1  0  0  0
 41 48  1  0  0  0
 42 43  1  0  0  0
 42 66  1  0  0  0
 42115  1  0  0  0
 42116  1  0  0  0
 43 44  1  0  0  0
 44117  1  0  0  0
 45 46  2  0  0  0
 45118  1  0  0  0
 46119  1  0  0  0
 47120  1  0  0  0
 47121  1  0  0  0
 48 56  1  0  0  0
 48 65  1  0  0  0
 48122  1  0  0  0
 49 50  1  0  0  0
 49 53  1  0  0  0
 49 64  1  0  0  0
 49123  1  0  0  0
 50 51  1  0  0  0
 50124  1  0  0  0
 50125  1  0  0  0
 51 52  1  0  0  0
 51126  1  0  0  0
 51127  1  0  0  0
 52128  1  0  0  0
 52129  1  0  0  0
 53 54  1  0  0  0
 54 55  2  0  0  0
 54130  1  0  0  0
 55 57  1  0  0  0
 55131  1  0  0  0
 56 69  2  0  0  0
 57 58  2  0  0  0
 57132  1  0  0  0
 58133  1  0  0  0
 59 60  1  0  0  0
 59 61  1  0  0  0
 59 62  1  0  0  0
 60134  1  0  0  0
 60135  1  0  0  0
 60136  1  0  0  0
 61137  1  0  0  0
 61138  1  0  0  0
 61139  1  0  0  0
 62140  1  0  0  0
 62141  1  0  0  0
 62142  1  0  0  0
 63 65  1  0  0  0
 63143  1  0  0  0
 63144  1  0  0  0
 63145  1  0  0  0
 64146  1  0  0  0
 65147  1  0  0  0
 68 80  1  0  0  0
 71 72  2  0  0  0
 71 85  1  0  0  0
 71148  1  0  0  0
 72 80  1  0  0  0
 72 86  1  0  0  0
 73 82  1  0  0  0
 73 85  2  0  0  0
 73 86  1  0  0  0
 74149  1  0  0  0
 74150  1  0  0  0
 74151  1  0  0  0
 74 82  1  0  0  0
 75152  1  0  0  0
 75153  1  0  0  0
 75154  1  0  0  0
 75 83  1  0  0  0
 76 83  1  0  0  0
 76155  1  0  0  0
 76156  1  0  0  0
 76157  1  0  0  0
 77158  1  0  0  0
 77159  1  0  0  0
 77160  1  0  0  0
 77 84  1  0  0  0
 78 87  1  0  0  0
 78161  1  0  0  0
 78162  1  0  0  0
 78163  1  0  0  0
 79164  1  0  0  0
 79165  1  0  0  0
 79166  1  0  0  0
 79 88  1  0  0  0
 80167  1  0  0  0
 80168  1  0  0  0
 81 84  1  0  0  0
 81 87  1  0  0  0
 81169  1  0  0  0
 81170  1  0  0  0
 82 88  1  0  0  0
 82171  1  0  0  0
 83 86  1  0  0  0
 83172  1  0  0  0
 84 88  1  0  0  0
 84173  1  0  0  0
 88174  1  0  0  0
M  CHG  1  88   1
M  ISO  4   1 100  68 101  80 101  87 100
M  END
> <chiral flag>
0

> <version>
0

> <s_m_source_file>
/data/baiqing/PycharmProjects/Reinvent-master-3.2/result/LINK_invent/BTK/process_docking_weight1_custom_sum_contain_oxygen_bond_distance_aromatic_linkinvent_7_9_3/rearranged_h_0061.sdf

> <i_m_source_file_index>
54

> <r_mmod_Potential_Energy-OPLS-2005>
59.9268112182617

> <r_mmod_Stretch_Energy-OPLS-2005>
75.0843353271484

> <r_mmod_Bend_Energy-OPLS-2005>
142.304702758789

> <r_mmod_Torsional_Energy-OPLS-2005>
362.794555664062

> <r_mmod_Improper_Torsional_Energy-OPLS-2005>
7.97769021987915

> <r_mmod_Van_der_Waal_Energy-OPLS-2005>
131.47834777832

> <r_mmod_Electrostatic_Energy-OPLS-2005>
-281.763732910156

> <r_mmod_Solvation_Energy-OPLS-2005>
-406.825164794922

> <b_mmod_Minimization_Converged-OPLS-2005>
0

> <r_mmod_RMS_Derivative-OPLS-2005>
1.43630015850067

$$$$
56
                    3D
 Structure written by MMmdl.
166174  0  0  1  0            999 V2000
  -30.6515  -14.7309   20.5847 C   0  0  0  0  0  0
  -30.4456  -12.4845   19.4693 C   0  0  0  0  0  0
  -29.5165  -12.5558   18.2362 C   0  0  0  0  0  0
  -28.0417  -12.3608   18.6349 C   0  0  0  0  0  0
  -27.6529  -13.2229   19.8627 C   0  0  2  0  0  0
  -28.6943  -13.0709   20.9878 C   0  0  0  0  0  0
  -25.2597  -13.8150   20.5696 C   0  0  0  0  0  0
  -24.1851  -13.0436   20.9151 C   0  0  0  0  0  0
  -24.6393  -11.6892   20.8676 C   0  0  0  0  0  0
  -23.9053  -10.4295   21.0373 C   0  0  0  0  0  0
  -24.3603   -9.4238   21.9176 C   0  0  0  0  0  0
  -23.6315   -8.2264   22.0774 C   0  0  0  0  0  0
  -22.4290   -8.0293   21.3560 C   0  0  0  0  0  0
  -21.9904   -9.0248   20.4653 C   0  0  0  0  0  0
  -22.7221  -10.2136   20.3056 C   0  0  0  0  0  0
  -21.6850   -6.0738   22.5289 C   0  0  0  0  0  0
  -21.3998   -6.5634   23.8212 C   0  0  0  0  0  0
  -21.3676   -5.6791   24.9184 C   0  0  0  0  0  0
  -21.6064   -4.3056   24.7224 C   0  0  0  0  0  0
  -21.8823   -3.8140   23.4345 C   0  0  0  0  0  0
  -21.9193   -4.6960   22.3398 C   0  0  0  0  0  0
  -22.7873  -13.5273   21.1849 C   0  0  0  0  0  0
  -22.1661   -4.2156   21.0972 F   0  0  0  0  0  0
  -21.5672   -3.4531   25.7732 F   0  0  0  0  0  0
  -29.9940  -13.5122   20.4481 N   0  0  0  0  0  0
  -26.3006  -12.9329   20.3296 N   0  0  0  0  0  0
  -25.9328  -11.6483   20.5714 N   0  0  0  0  0  0
  -22.0486  -12.8290   22.0407 N   0  0  0  0  0  0
  -25.4374  -15.1883   20.4191 N   0  0  0  0  0  0
  -31.7904  -14.8239   20.1129 O   0  0  0  0  0  0
  -21.6651   -6.8891   21.4268 O   0  0  0  0  0  0
  -22.3579  -14.5566   20.6673 O   0  0  0  0  0  0
  -24.6310  -31.8555   23.1996 C   0  0  0  0  0  0
  -25.9146  -32.4760   23.8342 C   0  0  1  0  0  0
  -27.2188  -27.2624   20.1346 C   0  0  0  0  0  0
  -25.5941  -33.8566   24.2280 N   0  0  0  0  0  0
  -23.4300  -30.4740   21.5457 C   0  0  2  0  0  0
  -24.8761  -28.9182   20.1165 C   0  0  0  0  0  0
  -22.7504  -29.4584   22.4950 C   0  0  0  0  0  0
  -18.0281  -28.1415   22.8439 C   0  0  0  0  0  0
  -24.1510  -36.7268   23.2635 C   0  0  0  0  0  0
  -25.9754  -30.7712   21.3774 C   0  0  0  0  0  0
  -26.0492  -29.3916   20.7194 C   0  0  0  0  0  0
  -27.2259  -28.5775   20.7123 C   0  0  0  0  0  0
  -26.0206  -26.8474   19.5175 C   0  0  0  0  0  0
  -24.8651  -27.6540   19.5079 C   0  0  0  0  0  0
  -23.6481  -29.8064   20.1633 C   0  0  0  0  0  0
  -25.4132  -36.3063   24.0326 C   0  0  1  0  0  0
  -20.5882  -28.3716   23.1265 C   0  0  2  0  0  0
  -20.6780  -26.9437   22.5401 C   0  0  0  0  0  0
  -19.5780  -26.6398   21.5193 C   0  0  0  0  0  0
  -18.1949  -26.7959   22.1592 C   0  0  0  0  0  0
  -19.1530  -28.8881   23.2849 C   0  0  0  0  0  0
  -18.9456  -30.1474   23.8877 C   0  0  0  0  0  0
  -17.6462  -30.6609   24.0557 C   0  0  0  0  0  0
  -25.9064  -34.9431   23.5113 C   0  0  0  0  0  0
  -16.5348  -29.9108   23.6338 C   0  0  0  0  0  0
  -16.7267  -28.6535   23.0338 C   0  0  0  0  0  0
  -26.4510  -31.6594   25.0741 C   0  0  0  0  0  0
  -25.3731  -31.3756   26.1465 C   0  0  0  0  0  0
  -27.0357  -30.3001   24.6251 C   0  0  0  0  0  0
  -27.6070  -32.4330   25.7517 C   0  0  0  0  0  0
  -27.5599  -37.1781   24.8467 C   0  0  0  0  0  0
  -21.4220  -29.3047   22.3665 N   0  0  0  0  0  0
  -26.4309  -37.3761   23.9410 N   0  0  0  0  0  0
  -24.6984  -31.0499   22.0988 N   0  0  0  0  0  0
  -23.4174  -28.8133   23.3075 O   0  0  0  0  0  0
  -28.3155  -26.3777   20.1228 O   0  0  0  0  0  0
  -26.5630  -34.8885   22.4676 O   0  0  0  0  0  0
  -23.5453  -32.1395   23.7283 O   0  0  0  0  0  0
  -28.0345  -23.5188   18.6499 C   0  0  0  0  0  0
  -28.0439  -22.2368   18.0893 C   0  0  0  0  0  0
  -28.4457  -23.6579   19.9786 C   0  0  0  0  0  0
  -28.9009  -21.2849   20.0143 C   0  0  0  0  0  0
  -28.1897  -20.6698   23.1184 C   0  0  0  0  0  0
  -28.2106  -17.7684   19.6833 C   0  0  0  0  0  0
  -30.2943  -18.6955   18.7199 C   0  0  0  0  0  0
  -29.1879  -15.8539   22.2668 C   0  0  0  0  0  0
  -28.1554  -25.0231   20.7564 C   0  0  0  0  0  0
  -28.2068  -19.6808   21.9405 C   0  0  0  0  0  0
  -30.4667  -17.3469   20.8221 C   0  0  0  0  0  0
  -29.2529  -19.9187   20.8144 C   0  0  1  0  0  0
  -29.5459  -18.4612   20.0521 C   0  0  0  0  0  0
  -28.4144  -21.1471   18.7853 N   0  0  0  0  0  0
  -28.9205  -22.5179   20.6206 N   0  0  0  0  0  0
  -29.9955  -15.8922   21.0366 N   0  0  0  0  0  0
  -31.4794  -12.6292   19.1522 H   0  0  0  0  0  0
  -30.4215  -11.4888   19.9153 H   0  0  0  0  0  0
  -29.8096  -11.8157   17.4905 H   0  0  0  0  0  0
  -29.6321  -13.5330   17.7647 H   0  0  0  0  0  0
  -27.8863  -11.3042   18.8566 H   0  0  0  0  0  0
  -27.3910  -12.5895   17.7892 H   0  0  0  0  0  0
  -27.6693  -14.2605   19.5312 H   0  0  0  0  0  0
  -28.7541  -12.0295   21.3024 H   0  0  0  0  0  0
  -28.3651  -13.5821   21.8820 H   0  0  0  0  0  0
  -25.2746   -9.5729   22.4734 H   0  0  0  0  0  0
  -24.0044   -7.4656   22.7480 H   0  0  0  0  0  0
  -21.0844   -8.8750   19.8925 H   0  0  0  0  0  0
  -22.3672  -10.9668   19.6158 H   0  0  0  0  0  0
  -21.1952   -7.6135   23.9728 H   0  0  0  0  0  0
  -21.1505   -6.0508   25.9088 H   0  0  0  0  0  0
  -22.0572   -2.7608   23.2832 H   0  0  0  0  0  0
  -22.4082  -11.9959   22.4806 H   0  0  0  0  0  0
  -21.1092  -13.1333   22.2555 H   0  0  0  0  0  0
  -26.3140  -15.6188   20.1572 H   0  0  0  0  0  0
  -24.6846  -15.8546   20.5492 H   0  0  0  0  0  0
  -26.7222  -32.5389   23.1092 H   0  0  0  0  0  0
  -25.0058  -33.9718   25.0406 H   0  0  0  0  0  0
  -22.7271  -31.2957   21.3979 H   0  0  0  0  0  0
  -23.3777  -35.9599   23.3285 H   0  0  0  0  0  0
  -24.3610  -36.8887   22.2050 H   0  0  0  0  0  0
  -23.7252  -37.6460   23.6666 H   0  0  0  0  0  0
  -26.1132  -31.5372   20.6126 H   0  0  0  0  0  0
  -26.8548  -30.8195   22.0083 H   0  0  0  0  0  0
  -28.1285  -28.9391   21.1869 H   0  0  0  0  0  0
  -25.9693  -25.8728   19.0515 H   0  0  0  0  0  0
  -23.9620  -27.2844   19.0412 H   0  0  0  0  0  0
  -23.7709  -30.5842   19.4082 H   0  0  0  0  0  0
  -22.7678  -29.2374   19.8579 H   0  0  0  0  0  0
  -25.1317  -36.1913   25.0816 H   0  0  0  0  0  0
  -20.9934  -28.3291   24.1410 H   0  0  0  0  0  0
  -20.5676  -26.2328   23.3601 H   0  0  0  0  0  0
  -21.6652  -26.7488   22.1200 H   0  0  0  0  0  0
  -19.6968  -25.6305   21.1247 H   0  0  0  0  0  0
  -19.6740  -27.3183   20.6702 H   0  0  0  0  0  0
  -17.4213  -26.6641   21.4010 H   0  0  0  0  0  0
  -18.0384  -26.0146   22.9030 H   0  0  0  0  0  0
  -19.7927  -30.7280   24.2256 H   0  0  0  0  0  0
  -17.5023  -31.6285   24.5165 H   0  0  0  0  0  0
  -15.5351  -30.3007   23.7708 H   0  0  0  0  0  0
  -15.8660  -28.0859   22.7085 H   0  0  0  0  0  0
  -24.5910  -30.7112   25.7790 H   0  0  0  0  0  0
  -24.8916  -32.2923   26.4867 H   0  0  0  0  0  0
  -25.8020  -30.8940   27.0264 H   0  0  0  0  0  0
  -26.2964  -29.6759   24.1221 H   0  0  0  0  0  0
  -27.3974  -29.7253   25.4790 H   0  0  0  0  0  0
  -27.8871  -30.4269   23.9569 H   0  0  0  0  0  0
  -27.2701  -33.3629   26.2121 H   0  0  0  0  0  0
  -28.3876  -32.6893   25.0346 H   0  0  0  0  0  0
  -28.0782  -31.8456   26.5413 H   0  0  0  0  0  0
  -28.2590  -38.0100   24.7511 H   0  0  0  0  0  0
  -28.1109  -36.2611   24.6298 H   0  0  0  0  0  0
  -27.2304  -37.1446   25.8867 H   0  0  0  0  0  0
  -20.9456  -29.8703   21.6780 H   0  0  0  0  0  0
  -26.0176  -38.2832   24.1400 H   0  0  0  0  0  0
  -27.6580  -24.3613   18.0883 H   0  0  0  0  0  0
  -27.7028  -22.0739   17.0777 H   0  0  0  0  0  0
  -29.1588  -20.7231   23.6138 H   0  0  0  0  0  0
  -27.4585  -20.3529   23.8619 H   0  0  0  0  0  0
  -27.9057  -21.6752   22.8132 H   0  0  0  0  0  0
  -28.3787  -16.8718   19.0823 H   0  0  0  0  0  0
  -27.5570  -18.4281   19.1168 H   0  0  0  0  0  0
  -27.6541  -17.4500   20.5631 H   0  0  0  0  0  0
  -30.5919  -17.7493   18.2629 H   0  0  0  0  0  0
  -31.1939  -19.2985   18.8694 H   0  0  0  0  0  0
  -29.6840  -19.1904   17.9699 H   0  0  0  0  0  0
  -28.1351  -15.7152   22.0284 H   0  0  0  0  0  0
  -29.2434  -16.7696   22.8548 H   0  0  0  0  0  0
  -29.5219  -15.0691   22.9484 H   0  0  0  0  0  0
  -28.7751  -25.0266   21.6539 H   0  0  0  0  0  0
  -27.1370  -24.9302   21.1377 H   0  0  0  0  0  0
  -27.2120  -19.6463   21.4974 H   0  0  0  0  0  0
  -28.3789  -18.7029   22.3790 H   0  0  0  0  0  0
  -31.4253  -17.2858   20.3039 H   0  0  0  0  0  0
  -30.7903  -17.7670   21.7753 H   0  0  0  0  0  0
  -30.1957  -20.1605   21.3072 H   0  0  0  0  0  0
  1 25  1  0  0  0
  1 30  2  0  0  0
  1 86  1  0  0  0
  2  3  1  0  0  0
  2 25  1  0  0  0
  2 87  1  0  0  0
  2 88  1  0  0  0
  3  4  1  0  0  0
  3 89  1  0  0  0
  3 90  1  0  0  0
  4  5  1  0  0  0
  4 91  1  0  0  0
  4 92  1  0  0  0
  5  6  1  0  0  0
  5 26  1  0  0  0
  5 93  1  0  0  0
  6 25  1  0  0  0
  6 94  1  0  0  0
  6 95  1  0  0  0
  7  8  2  0  0  0
  7 26  1  0  0  0
  7 29  1  0  0  0
  8  9  1  0  0  0
  8 22  1  0  0  0
  9 10  1  0  0  0
  9 27  2  0  0  0
 10 11  2  0  0  0
 10 15  1  0  0  0
 11 12  1  0  0  0
 11 96  1  0  0  0
 12 13  2  0  0  0
 12 97  1  0  0  0
 13 14  1  0  0  0
 13 31  1  0  0  0
 14 15  2  0  0  0
 14 98  1  0  0  0
 15 99  1  0  0  0
 16 17  2  0  0  0
 16 21  1  0  0  0
 16 31  1  0  0  0
 17 18  1  0  0  0
 17100  1  0  0  0
 18 19  2  0  0  0
 18101  1  0  0  0
 19 20  1  0  0  0
 19 24  1  0  0  0
 20 21  2  0  0  0
 20102  1  0  0  0
 21 23  1  0  0  0
 22 28  1  0  0  0
 22 32  2  0  0  0
 26 27  1  0  0  0
 28103  1  0  0  0
 28104  1  0  0  0
 29105  1  0  0  0
 29106  1  0  0  0
 33 34  1  0  0  0
 33 66  1  0  0  0
 33 70  2  0  0  0
 34 36  1  0  0  0
 34 59  1  0  0  0
 34107  1  0  0  0
 35 44  2  0  0  0
 35 45  1  0  0  0
 35 68  1  0  0  0
 36 56  1  0  0  0
 36108  1  0  0  0
 37 39  1  0  0  0
 37 47  1  0  0  0
 37 66  1  0  0  0
 37109  1  0  0  0
 38 43  2  0  0  0
 38 46  1  0  0  0
 38 47  1  0  0  0
 39 64  1  0  0  0
 39 67  2  0  0  0
 40 52  1  0  0  0
 40 53  2  0  0  0
 40 58  1  0  0  0
 41110  1  0  0  0
 41111  1  0  0  0
 41112  1  0  0  0
 41 48  1  0  0  0
 42 43  1  0  0  0
 42 66  1  0  0  0
 42113  1  0  0  0
 42114  1  0  0  0
 43 44  1  0  0  0
 44115  1  0  0  0
 45 46  2  0  0  0
 45116  1  0  0  0
 46117  1  0  0  0
 47118  1  0  0  0
 47119  1  0  0  0
 48 56  1  0  0  0
 48 65  1  0  0  0
 48120  1  0  0  0
 49 50  1  0  0  0
 49 53  1  0  0  0
 49 64  1  0  0  0
 49121  1  0  0  0
 50 51  1  0  0  0
 50122  1  0  0  0
 50123  1  0  0  0
 51 52  1  0  0  0
 51124  1  0  0  0
 51125  1  0  0  0
 52126  1  0  0  0
 52127  1  0  0  0
 53 54  1  0  0  0
 54 55  2  0  0  0
 54128  1  0  0  0
 55 57  1  0  0  0
 55129  1  0  0  0
 56 69  2  0  0  0
 57 58  2  0  0  0
 57130  1  0  0  0
 58131  1  0  0  0
 59 60  1  0  0  0
 59 61  1  0  0  0
 59 62  1  0  0  0
 60132  1  0  0  0
 60133  1  0  0  0
 60134  1  0  0  0
 61135  1  0  0  0
 61136  1  0  0  0
 61137  1  0  0  0
 62138  1  0  0  0
 62139  1  0  0  0
 62140  1  0  0  0
 63 65  1  0  0  0
 63141  1  0  0  0
 63142  1  0  0  0
 63143  1  0  0  0
 64144  1  0  0  0
 65145  1  0  0  0
 68 79  1  0  0  0
 71 72  2  0  0  0
 71 73  1  0  0  0
 71146  1  0  0  0
 72 84  1  0  0  0
 72147  1  0  0  0
 73 79  1  0  0  0
 73 85  2  0  0  0
 74 82  1  0  0  0
 74 84  2  0  0  0
 74 85  1  0  0  0
 75 80  1  0  0  0
 75148  1  0  0  0
 75149  1  0  0  0
 75150  1  0  0  0
 76151  1  0  0  0
 76152  1  0  0  0
 76153  1  0  0  0
 76 83  1  0  0  0
 77 83  1  0  0  0
 77154  1  0  0  0
 77155  1  0  0  0
 77156  1  0  0  0
 78 86  1  0  0  0
 78157  1  0  0  0
 78158  1  0  0  0
 78159  1  0  0  0
 79160  1  0  0  0
 79161  1  0  0  0
 80162  1  0  0  0
 80163  1  0  0  0
 80 82  1  0  0  0
 81 83  1  0  0  0
 81 86  1  0  0  0
 81164  1  0  0  0
 81165  1  0  0  0
 82 83  1  0  0  0
 82166  1  0  0  0
M  ISO  4   1 100  68 101  79 101  86 100
M  END
> <chiral flag>
0

> <version>
0

> <s_m_source_file>
/data/baiqing/PycharmProjects/Reinvent-master-3.2/result/LINK_invent/BTK/process_docking_weight1_custom_sum_contain_oxygen_bond_distance_aromatic_linkinvent_7_9_3/rearranged_h_0061.sdf

> <i_m_source_file_index>
55

> <r_mmod_Potential_Energy-OPLS-2005>
102.783233642578

> <r_mmod_Stretch_Energy-OPLS-2005>
157.434921264648

> <r_mmod_Bend_Energy-OPLS-2005>
209.330703735352

> <r_mmod_Torsional_Energy-OPLS-2005>
313.820343017578

> <r_mmod_Improper_Torsional_Energy-OPLS-2005>
8.18593215942383

> <r_mmod_Van_der_Waal_Energy-OPLS-2005>
161.64241027832

> <r_mmod_Electrostatic_Energy-OPLS-2005>
-614.459594726562

> <r_mmod_Solvation_Energy-OPLS-2005>
-206.752365112305

> <b_mmod_Minimization_Converged-OPLS-2005>
0

> <r_mmod_RMS_Derivative-OPLS-2005>
3.73429942131042

$$$$
57
                    3D
 Structure written by MMmdl.
153161  0  0  1  0            999 V2000
  -30.5194  -15.0408   20.3586 C   0  0  0  0  0  0
  -30.4374  -12.6473   19.4759 C   0  0  0  0  0  0
  -29.5422  -12.5979   18.2185 C   0  0  0  0  0  0
  -28.0532  -12.4151   18.6008 C   0  0  0  0  0  0
  -27.6327  -13.2783   19.8251 C   0  0  2  0  0  0
  -28.6856  -13.3136   20.9489 C   0  0  0  0  0  0
  -25.2520  -13.8252   20.5656 C   0  0  0  0  0  0
  -24.1875  -13.0419   20.9197 C   0  0  0  0  0  0
  -24.6550  -11.6899   20.8704 C   0  0  0  0  0  0
  -23.9205  -10.4291   21.0355 C   0  0  0  0  0  0
  -24.3726   -9.4226   21.9159 C   0  0  0  0  0  0
  -23.6403   -8.2261   22.0769 C   0  0  0  0  0  0
  -22.4376   -8.0309   21.3543 C   0  0  0  0  0  0
  -21.9998   -9.0278   20.4614 C   0  0  0  0  0  0
  -22.7354  -10.2156   20.3017 C   0  0  0  0  0  0
  -21.6900   -6.0755   22.5302 C   0  0  0  0  0  0
  -21.4033   -6.5663   23.8226 C   0  0  0  0  0  0
  -21.3660   -5.6807   24.9197 C   0  0  0  0  0  0
  -21.6054   -4.3072   24.7223 C   0  0  0  0  0  0
  -21.8787   -3.8154   23.4341 C   0  0  0  0  0  0
  -21.9220   -4.6981   22.3408 C   0  0  0  0  0  0
  -22.7900  -13.5190   21.1830 C   0  0  0  0  0  0
  -22.1667   -4.2150   21.0988 F   0  0  0  0  0  0
  -21.5637   -3.4549   25.7733 F   0  0  0  0  0  0
  -29.9371  -13.7653   20.3239 N   0  0  0  0  0  0
  -26.2958  -12.9533   20.3122 N   0  0  0  0  0  0
  -25.9489  -11.6608   20.5616 N   0  0  0  0  0  0
  -22.0498  -12.8199   22.0343 N   0  0  0  0  0  0
  -25.4026  -15.2010   20.4167 N   0  0  0  0  0  0
  -31.7456  -15.0808   20.2071 O   0  0  0  0  0  0
  -21.6697   -6.8929   21.4275 O   0  0  0  0  0  0
  -22.3586  -14.5513   20.6681 O   0  0  0  0  0  0
  -24.6503  -31.8389   23.1781 C   0  0  0  0  0  0
  -25.9260  -32.4643   23.8225 C   0  0  1  0  0  0
  -27.2310  -27.0823   20.0991 C   0  0  0  0  0  0
  -25.6000  -33.8457   24.2134 N   0  0  0  0  0  0
  -23.4569  -30.4518   21.5284 C   0  0  2  0  0  0
  -24.9024  -28.8638   20.0989 C   0  0  0  0  0  0
  -22.7616  -29.4508   22.4860 C   0  0  0  0  0  0
  -18.0297  -28.1380   22.8481 C   0  0  0  0  0  0
  -24.1475  -36.7210   23.2642 C   0  0  0  0  0  0
  -26.0170  -30.6827   21.3865 C   0  0  0  0  0  0
  -26.0819  -29.2892   20.7218 C   0  0  0  0  0  0
  -27.2391  -28.4131   20.7071 C   0  0  0  0  0  0
  -26.0197  -26.7695   19.4444 C   0  0  0  0  0  0
  -24.8865  -27.6167   19.4506 C   0  0  0  0  0  0
  -23.6827  -29.7747   20.1493 C   0  0  0  0  0  0
  -25.4117  -36.2994   24.0293 C   0  0  1  0  0  0
  -20.5923  -28.3703   23.1212 C   0  0  2  0  0  0
  -20.6775  -26.9412   22.5402 C   0  0  0  0  0  0
  -19.5761  -26.6351   21.5211 C   0  0  0  0  0  0
  -18.1927  -26.7925   22.1611 C   0  0  0  0  0  0
  -19.1563  -28.8866   23.2822 C   0  0  0  0  0  0
  -18.9480  -30.1456   23.8845 C   0  0  0  0  0  0
  -17.6486  -30.6581   24.0557 C   0  0  0  0  0  0
  -25.9094  -34.9369   23.5022 C   0  0  0  0  0  0
  -16.5364  -29.9071   23.6351 C   0  0  0  0  0  0
  -16.7291  -28.6480   23.0385 C   0  0  0  0  0  0
  -26.4565  -31.6548   25.0704 C   0  0  0  0  0  0
  -25.3716  -31.3759   26.1390 C   0  0  0  0  0  0
  -27.0474  -30.2952   24.6310 C   0  0  0  0  0  0
  -27.6078  -32.4338   25.7536 C   0  0  0  0  0  0
  -27.5554  -37.1762   24.8451 C   0  0  0  0  0  0
  -21.4292  -29.3013   22.3595 N   0  0  0  0  0  0
  -26.4264  -37.3721   23.9417 N   0  0  0  0  0  0
  -24.7306  -31.0141   22.0856 N   0  0  0  0  0  0
  -23.4232  -28.8079   23.3063 O   0  0  0  0  0  0
  -28.2857  -26.0820   20.1880 O   0  0  0  0  0  0
  -26.5683  -34.8905   22.4602 O   0  0  0  0  0  0
  -23.5607  -32.1347   23.6917 O   0  0  0  0  0  0
  -27.7088  -21.7815   21.7969 C   0  0  0  0  0  0
  -28.4647  -23.1228   20.1612 C   0  0  0  0  0  0
  -28.9754  -20.7191   20.2590 C   0  0  0  0  0  0
  -30.5302  -19.4166   18.6373 C   0  0  0  0  0  0
  -28.1770  -18.6804   18.8456 C   0  0  0  0  0  0
  -28.3988  -24.6631   19.4785 C   0  0  0  0  0  0
  -29.9463  -17.8385   20.5780 C   0  0  0  0  0  0
  -29.3873  -19.1884   19.6422 C   0  0  0  0  0  0
  -27.7768  -23.0121   21.2892 N   0  0  0  0  0  0
  -28.2496  -20.6404   21.3636 N   0  0  0  0  0  0
  -29.0558  -21.9654   19.5926 N   0  0  0  0  0  0
  -29.7292  -16.2460   20.3506 N   0  0  0  0  0  0
  -31.4861  -12.7798   19.2014 H   0  0  0  0  0  0
  -30.3897  -11.6958   20.0052 H   0  0  0  0  0  0
  -29.8696  -11.7956   17.5553 H   0  0  0  0  0  0
  -29.6641  -13.5217   17.6463 H   0  0  0  0  0  0
  -27.8806  -11.3578   18.7960 H   0  0  0  0  0  0
  -27.4314  -12.6761   17.7411 H   0  0  0  0  0  0
  -27.5825  -14.2973   19.4433 H   0  0  0  0  0  0
  -28.7941  -12.3323   21.4142 H   0  0  0  0  0  0
  -28.3877  -13.9888   21.7492 H   0  0  0  0  0  0
  -25.2844   -9.5749   22.4738 H   0  0  0  0  0  0
  -24.0089   -7.4694   22.7541 H   0  0  0  0  0  0
  -21.0883   -8.8830   19.8958 H   0  0  0  0  0  0
  -22.3799  -10.9711   19.6134 H   0  0  0  0  0  0
  -21.2006   -7.6152   23.9745 H   0  0  0  0  0  0
  -21.1528   -6.0525   25.9113 H   0  0  0  0  0  0
  -22.0560   -2.7605   23.2845 H   0  0  0  0  0  0
  -22.4144  -11.9918   22.4829 H   0  0  0  0  0  0
  -21.1076  -13.1200   22.2394 H   0  0  0  0  0  0
  -24.6041  -15.8197   20.5362 H   0  0  0  0  0  0
  -26.2133  -15.6654   20.0312 H   0  0  0  0  0  0
  -26.7323  -32.5201   23.0954 H   0  0  0  0  0  0
  -25.0190  -33.9572   25.0322 H   0  0  0  0  0  0
  -22.7602  -31.2778   21.3677 H   0  0  0  0  0  0
  -23.3756  -35.9521   23.3254 H   0  0  0  0  0  0
  -24.3572  -36.8902   22.2068 H   0  0  0  0  0  0
  -23.7195  -37.6366   23.6735 H   0  0  0  0  0  0
  -26.1824  -31.4317   20.6116 H   0  0  0  0  0  0
  -26.8876  -30.7355   22.0292 H   0  0  0  0  0  0
  -28.1393  -28.7380   21.2096 H   0  0  0  0  0  0
  -25.9089  -25.8190   18.9432 H   0  0  0  0  0  0
  -23.9854  -27.2884   18.9473 H   0  0  0  0  0  0
  -23.8112  -30.5502   19.3943 H   0  0  0  0  0  0
  -22.7971  -29.2145   19.8451 H   0  0  0  0  0  0
  -25.1302  -36.1799   25.0780 H   0  0  0  0  0  0
  -20.9997  -28.3270   24.1343 H   0  0  0  0  0  0
  -20.5596  -26.2362   23.3634 H   0  0  0  0  0  0
  -21.6640  -26.7357   22.1245 H   0  0  0  0  0  0
  -19.6923  -25.6246   21.1264 H   0  0  0  0  0  0
  -19.6679  -27.3132   20.6709 H   0  0  0  0  0  0
  -17.4217  -26.6676   21.3992 H   0  0  0  0  0  0
  -18.0293  -26.0062   22.8990 H   0  0  0  0  0  0
  -19.7957  -30.7282   24.2182 H   0  0  0  0  0  0
  -17.5040  -31.6255   24.5168 H   0  0  0  0  0  0
  -15.5373  -30.2967   23.7678 H   0  0  0  0  0  0
  -15.8690  -28.0775   22.7154 H   0  0  0  0  0  0
  -24.5903  -30.7118   25.7686 H   0  0  0  0  0  0
  -24.8922  -32.2953   26.4760 H   0  0  0  0  0  0
  -25.7984  -30.8958   27.0210 H   0  0  0  0  0  0
  -26.3124  -29.6658   24.1289 H   0  0  0  0  0  0
  -27.4085  -29.7268   25.4889 H   0  0  0  0  0  0
  -27.9028  -30.4222   23.9675 H   0  0  0  0  0  0
  -27.2678  -33.3699   26.1998 H   0  0  0  0  0  0
  -28.4000  -32.6789   25.0442 H   0  0  0  0  0  0
  -28.0656  -31.8539   26.5568 H   0  0  0  0  0  0
  -28.2508  -38.0112   24.7553 H   0  0  0  0  0  0
  -28.1100  -36.2636   24.6202 H   0  0  0  0  0  0
  -27.2298  -37.1328   25.8858 H   0  0  0  0  0  0
  -20.9528  -29.8756   21.6775 H   0  0  0  0  0  0
  -26.0084  -38.2765   24.1474 H   0  0  0  0  0  0
  -27.0988  -21.6973   22.6857 H   0  0  0  0  0  0
  -30.3056  -20.2206   17.9364 H   0  0  0  0  0  0
  -30.7247  -18.5216   18.0463 H   0  0  0  0  0  0
  -31.4552  -19.6798   19.1442 H   0  0  0  0  0  0
  -27.8641  -19.4198   18.1074 H   0  0  0  0  0  0
  -27.3321  -18.4910   19.5075 H   0  0  0  0  0  0
  -28.4086  -17.7601   18.3056 H   0  0  0  0  0  0
  -27.6838  -24.6107   18.6600 H   0  0  0  0  0  0
  -29.3577  -24.7400   18.9590 H   0  0  0  0  0  0
  -29.5048  -17.9947   21.5635 H   0  0  0  0  0  0
  -31.0133  -17.9891   20.7600 H   0  0  0  0  0  0
  -28.7498  -16.0054   20.3757 H   0  0  0  0  0  0
  1 25  1  0  0  0
  1 30  2  0  0  0
  1 82  1  0  0  0
  2  3  1  0  0  0
  2 25  1  0  0  0
  2 83  1  0  0  0
  2 84  1  0  0  0
  3  4  1  0  0  0
  3 85  1  0  0  0
  3 86  1  0  0  0
  4  5  1  0  0  0
  4 87  1  0  0  0
  4 88  1  0  0  0
  5  6  1  0  0  0
  5 26  1  0  0  0
  5 89  1  0  0  0
  6 25  1  0  0  0
  6 90  1  0  0  0
  6 91  1  0  0  0
  7  8  2  0  0  0
  7 26  1  0  0  0
  7 29  1  0  0  0
  8  9  1  0  0  0
  8 22  1  0  0  0
  9 10  1  0  0  0
  9 27  2  0  0  0
 10 11  2  0  0  0
 10 15  1  0  0  0
 11 12  1  0  0  0
 11 92  1  0  0  0
 12 13  2  0  0  0
 12 93  1  0  0  0
 13 14  1  0  0  0
 13 31  1  0  0  0
 14 15  2  0  0  0
 14 94  1  0  0  0
 15 95  1  0  0  0
 16 17  2  0  0  0
 16 21  1  0  0  0
 16 31  1  0  0  0
 17 18  1  0  0  0
 17 96  1  0  0  0
 18 19  2  0  0  0
 18 97  1  0  0  0
 19 20  1  0  0  0
 19 24  1  0  0  0
 20 21  2  0  0  0
 20 98  1  0  0  0
 21 23  1  0  0  0
 22 28  1  0  0  0
 22 32  2  0  0  0
 26 27  1  0  0  0
 28 99  1  0  0  0
 28100  1  0  0  0
 29101  1  0  0  0
 29102  1  0  0  0
 33 34  1  0  0  0
 33 66  1  0  0  0
 33 70  2  0  0  0
 34 36  1  0  0  0
 34 59  1  0  0  0
 34103  1  0  0  0
 35 44  2  0  0  0
 35 45  1  0  0  0
 35 68  1  0  0  0
 36 56  1  0  0  0
 36104  1  0  0  0
 37 39  1  0  0  0
 37 47  1  0  0  0
 37 66  1  0  0  0
 37105  1  0  0  0
 38 43  2  0  0  0
 38 46  1  0  0  0
 38 47  1  0  0  0
 39 64  1  0  0  0
 39 67  2  0  0  0
 40 52  1  0  0  0
 40 53  2  0  0  0
 40 58  1  0  0  0
 41106  1  0  0  0
 41107  1  0  0  0
 41108  1  0  0  0
 41 48  1  0  0  0
 42 43  1  0  0  0
 42 66  1  0  0  0
 42109  1  0  0  0
 42110  1  0  0  0
 43 44  1  0  0  0
 44111  1  0  0  0
 45 46  2  0  0  0
 45112  1  0  0  0
 46113  1  0  0  0
 47114  1  0  0  0
 47115  1  0  0  0
 48 56  1  0  0  0
 48 65  1  0  0  0
 48116  1  0  0  0
 49 50  1  0  0  0
 49 53  1  0  0  0
 49 64  1  0  0  0
 49117  1  0  0  0
 50 51  1  0  0  0
 50118  1  0  0  0
 50119  1  0  0  0
 51 52  1  0  0  0
 51120  1  0  0  0
 51121  1  0  0  0
 52122  1  0  0  0
 52123  1  0  0  0
 53 54  1  0  0  0
 54 55  2  0  0  0
 54124  1  0  0  0
 55 57  1  0  0  0
 55125  1  0  0  0
 56 69  2  0  0  0
 57 58  2  0  0  0
 57126  1  0  0  0
 58127  1  0  0  0
 59 60  1  0  0  0
 59 61  1  0  0  0
 59 62  1  0  0  0
 60128  1  0  0  0
 60129  1  0  0  0
 60130  1  0  0  0
 61131  1  0  0  0
 61132  1  0  0  0
 61133  1  0  0  0
 62134  1  0  0  0
 62135  1  0  0  0
 62136  1  0  0  0
 63 65  1  0  0  0
 63137  1  0  0  0
 63138  1  0  0  0
 63139  1  0  0  0
 64140  1  0  0  0
 65141  1  0  0  0
 68 76  1  0  0  0
 71 79  2  0  0  0
 71 80  1  0  0  0
 71142  1  0  0  0
 72 76  1  0  0  0
 72 79  1  0  0  0
 72 81  2  0  0  0
 73 78  1  0  0  0
 73 80  2  0  0  0
 73 81  1  0  0  0
 74143  1  0  0  0
 74144  1  0  0  0
 74145  1  0  0  0
 74 78  1  0  0  0
 75 78  1  0  0  0
 75146  1  0  0  0
 75147  1  0  0  0
 75148  1  0  0  0
 76149  1  0  0  0
 76150  1  0  0  0
 77 78  1  0  0  0
 77 82  1  0  0  0
 77151  1  0  0  0
 77152  1  0  0  0
 82153  1  0  0  0
M  ISO  4   1 100  68 101  76 101  82 100
M  END
> <chiral flag>
0

> <version>
0

> <s_m_source_file>
/data/baiqing/PycharmProjects/Reinvent-master-3.2/result/LINK_invent/BTK/process_docking_weight1_custom_sum_contain_oxygen_bond_distance_aromatic_linkinvent_7_9_3/rearranged_h_0061.sdf

> <i_m_source_file_index>
56

> <r_mmod_Potential_Energy-OPLS-2005>
85.2477035522461

> <r_mmod_Stretch_Energy-OPLS-2005>
358.169189453125

> <r_mmod_Bend_Energy-OPLS-2005>
337.568695068359

> <r_mmod_Torsional_Energy-OPLS-2005>
220.314422607422

> <r_mmod_Improper_Torsional_Energy-OPLS-2005>
8.12801456451416

> <r_mmod_Van_der_Waal_Energy-OPLS-2005>
139.063674926758

> <r_mmod_Electrostatic_Energy-OPLS-2005>
-990.410034179688

> <r_mmod_Solvation_Energy-OPLS-2005>
-240.982147216797

> <b_mmod_Minimization_Converged-OPLS-2005>
0

> <r_mmod_RMS_Derivative-OPLS-2005>
7.16432094573975

$$$$
59
                    3D
 Structure written by MMmdl.
166174  0  0  1  0            999 V2000
  -30.6504  -14.7313   20.5015 C   0  0  0  0  0  0
  -30.4164  -12.4580   19.4753 C   0  0  0  0  0  0
  -29.5013  -12.5194   18.2356 C   0  0  0  0  0  0
  -28.0325  -12.3324   18.6530 C   0  0  0  0  0  0
  -27.6373  -13.2353   19.8513 C   0  0  2  0  0  0
  -28.6784  -13.1833   20.9906 C   0  0  0  0  0  0
  -25.2482  -13.8209   20.5711 C   0  0  0  0  0  0
  -24.1783  -13.0449   20.9216 C   0  0  0  0  0  0
  -24.6382  -11.6926   20.8757 C   0  0  0  0  0  0
  -23.9074  -10.4297   21.0411 C   0  0  0  0  0  0
  -24.3622   -9.4203   21.9186 C   0  0  0  0  0  0
  -23.6293   -8.2239   22.0752 C   0  0  0  0  0  0
  -22.4275   -8.0280   21.3544 C   0  0  0  0  0  0
  -21.9917   -9.0254   20.4647 C   0  0  0  0  0  0
  -22.7248  -10.2131   20.3055 C   0  0  0  0  0  0
  -21.6854   -6.0735   22.5278 C   0  0  0  0  0  0
  -21.4016   -6.5638   23.8210 C   0  0  0  0  0  0
  -21.3658   -5.6792   24.9176 C   0  0  0  0  0  0
  -21.6044   -4.3053   24.7229 C   0  0  0  0  0  0
  -21.8818   -3.8145   23.4348 C   0  0  0  0  0  0
  -21.9191   -4.6964   22.3404 C   0  0  0  0  0  0
  -22.7800  -13.5214   21.1879 C   0  0  0  0  0  0
  -22.1657   -4.2148   21.0981 F   0  0  0  0  0  0
  -21.5631   -3.4536   25.7741 F   0  0  0  0  0  0
  -29.9840  -13.5256   20.4138 N   0  0  0  0  0  0
  -26.2909  -12.9425   20.3295 N   0  0  0  0  0  0
  -25.9310  -11.6563   20.5763 N   0  0  0  0  0  0
  -22.0453  -12.8197   22.0434 N   0  0  0  0  0  0
  -25.4178  -15.1937   20.4133 N   0  0  0  0  0  0
  -31.8001  -14.8114   20.0583 O   0  0  0  0  0  0
  -21.6635   -6.8877   21.4240 O   0  0  0  0  0  0
  -22.3482  -14.5525   20.6734 O   0  0  0  0  0  0
  -24.6333  -31.8533   23.1977 C   0  0  0  0  0  0
  -25.9149  -32.4747   23.8316 C   0  0  1  0  0  0
  -27.2065  -27.2307   20.1313 C   0  0  0  0  0  0
  -25.5929  -33.8544   24.2230 N   0  0  0  0  0  0
  -23.4307  -30.4767   21.5428 C   0  0  2  0  0  0
  -24.8753  -28.9239   20.1062 C   0  0  0  0  0  0
  -22.7523  -29.4587   22.4913 C   0  0  0  0  0  0
  -18.0291  -28.1380   22.8487 C   0  0  0  0  0  0
  -24.1491  -36.7286   23.2638 C   0  0  0  0  0  0
  -25.9789  -30.7552   21.3855 C   0  0  0  0  0  0
  -26.0471  -29.3760   20.7256 C   0  0  0  0  0  0
  -27.2125  -28.5396   20.7319 C   0  0  0  0  0  0
  -26.0186  -26.8690   19.4546 C   0  0  0  0  0  0
  -24.8687  -27.6805   19.4580 C   0  0  0  0  0  0
  -23.6477  -29.8137   20.1575 C   0  0  0  0  0  0
  -25.4117  -36.3064   24.0311 C   0  0  1  0  0  0
  -20.5899  -28.3691   23.1274 C   0  0  2  0  0  0
  -20.6792  -26.9409   22.5415 C   0  0  0  0  0  0
  -19.5770  -26.6382   21.5217 C   0  0  0  0  0  0
  -18.1941  -26.7923   22.1618 C   0  0  0  0  0  0
  -19.1543  -28.8851   23.2877 C   0  0  0  0  0  0
  -18.9464  -30.1454   23.8890 C   0  0  0  0  0  0
  -17.6464  -30.6588   24.0554 C   0  0  0  0  0  0
  -25.9062  -34.9437   23.5080 C   0  0  0  0  0  0
  -16.5358  -29.9082   23.6340 C   0  0  0  0  0  0
  -16.7275  -28.6497   23.0360 C   0  0  0  0  0  0
  -26.4490  -31.6590   25.0725 C   0  0  0  0  0  0
  -25.3688  -31.3747   26.1431 C   0  0  0  0  0  0
  -27.0346  -30.3000   24.6250 C   0  0  0  0  0  0
  -27.6040  -32.4336   25.7499 C   0  0  0  0  0  0
  -27.5581  -37.1794   24.8455 C   0  0  0  0  0  0
  -21.4223  -29.3033   22.3667 N   0  0  0  0  0  0
  -26.4296  -37.3760   23.9398 N   0  0  0  0  0  0
  -24.6997  -31.0480   22.0966 N   0  0  0  0  0  0
  -23.4222  -28.8132   23.3019 O   0  0  0  0  0  0
  -28.2823  -26.3072   20.2270 O   0  0  0  0  0  0
  -26.5655  -34.8923   22.4663 O   0  0  0  0  0  0
  -23.5479  -32.1358   23.7266 O   0  0  0  0  0  0
  -30.1009  -21.4268   22.2815 C   0  0  0  0  0  0
  -30.5240  -20.3383   22.9844 C   0  0  0  0  0  0
  -29.6170  -19.5858   21.0803 C   0  0  0  0  0  0
  -29.7048  -22.0646   18.8026 C   0  0  0  0  0  0
  -30.5965  -18.2242   19.1755 C   0  0  0  0  0  0
  -28.1247  -18.6976   19.2441 C   0  0  0  0  0  0
  -30.7754  -16.1955   22.4145 C   0  0  0  0  0  0
  -28.9068  -23.6457   20.6611 C   0  0  0  0  0  0
  -29.0697  -16.8742   20.7224 C   0  0  0  0  0  0
  -28.0924  -24.8357   19.9049 C   0  0  0  0  0  0
  -28.9389  -22.0780   20.1369 C   0  0  2  0  0  0
  -29.3706  -18.3703   20.0934 C   0  0  0  0  0  0
  -29.5218  -20.9987   21.1034 N   0  0  0  0  0  0
  -30.2248  -19.2553   22.2233 N   0  3  0  0  0  0
  -30.1044  -15.8305   21.1650 N   0  0  0  0  0  0
  -31.4599  -12.5591   19.1726 H   0  0  0  0  0  0
  -30.3449  -11.4805   19.9552 H   0  0  0  0  0  0
  -29.7851  -11.7522   17.5137 H   0  0  0  0  0  0
  -29.6237  -13.4782   17.7297 H   0  0  0  0  0  0
  -27.8997  -11.2842   18.9235 H   0  0  0  0  0  0
  -27.3694  -12.5131   17.8058 H   0  0  0  0  0  0
  -27.6271  -14.2529   19.4628 H   0  0  0  0  0  0
  -28.7090  -12.1926   21.4461 H   0  0  0  0  0  0
  -28.4060  -13.8781   21.7863 H   0  0  0  0  0  0
  -25.2763   -9.5676   22.4767 H   0  0  0  0  0  0
  -24.0000   -7.4628   22.7467 H   0  0  0  0  0  0
  -21.0851   -8.8779   19.8948 H   0  0  0  0  0  0
  -22.3710  -10.9674   19.6166 H   0  0  0  0  0  0
  -21.2006   -7.6146   23.9720 H   0  0  0  0  0  0
  -21.1483   -6.0519   25.9081 H   0  0  0  0  0  0
  -22.0598   -2.7607   23.2850 H   0  0  0  0  0  0
  -22.4067  -11.9841   22.4804 H   0  0  0  0  0  0
  -21.1065  -13.1209   22.2651 H   0  0  0  0  0  0
  -24.6509  -15.8482   20.5234 H   0  0  0  0  0  0
  -26.2706  -15.6325   20.0944 H   0  0  0  0  0  0
  -26.7230  -32.5390   23.1068 H   0  0  0  0  0  0
  -25.0006  -33.9667   25.0327 H   0  0  0  0  0  0
  -22.7275  -31.3001   21.4007 H   0  0  0  0  0  0
  -23.3756  -35.9617   23.3300 H   0  0  0  0  0  0
  -24.3582  -36.8924   22.2057 H   0  0  0  0  0  0
  -23.7255  -37.6482   23.6682 H   0  0  0  0  0  0
  -26.1259  -31.5165   20.6187 H   0  0  0  0  0  0
  -26.8533  -30.8010   22.0223 H   0  0  0  0  0  0
  -28.1049  -28.8703   21.2458 H   0  0  0  0  0  0
  -25.9385  -25.9339   18.9225 H   0  0  0  0  0  0
  -23.9744  -27.3374   18.9552 H   0  0  0  0  0  0
  -23.7731  -30.5917   19.4031 H   0  0  0  0  0  0
  -22.7641  -29.2482   19.8533 H   0  0  0  0  0  0
  -25.1311  -36.1911   25.0804 H   0  0  0  0  0  0
  -20.9976  -28.3275   24.1399 H   0  0  0  0  0  0
  -20.5707  -26.2285   23.3607 H   0  0  0  0  0  0
  -21.6657  -26.7448   22.1195 H   0  0  0  0  0  0
  -19.6926  -25.6291   21.1247 H   0  0  0  0  0  0
  -19.6718  -27.3197   20.6751 H   0  0  0  0  0  0
  -17.4216  -26.6673   21.4021 H   0  0  0  0  0  0
  -18.0335  -26.0061   22.9003 H   0  0  0  0  0  0
  -19.7942  -30.7264   24.2266 H   0  0  0  0  0  0
  -17.5024  -31.6271   24.5151 H   0  0  0  0  0  0
  -15.5358  -30.2977   23.7672 H   0  0  0  0  0  0
  -15.8675  -28.0817   22.7079 H   0  0  0  0  0  0
  -24.5896  -30.7062   25.7750 H   0  0  0  0  0  0
  -24.8832  -32.2912   26.4794 H   0  0  0  0  0  0
  -25.7989  -30.8973   27.0247 H   0  0  0  0  0  0
  -26.2945  -29.6738   24.1258 H   0  0  0  0  0  0
  -27.3985  -29.7284   25.4797 H   0  0  0  0  0  0
  -27.8841  -30.4252   23.9533 H   0  0  0  0  0  0
  -27.2654  -33.3659   26.2031 H   0  0  0  0  0  0
  -28.3870  -32.6858   25.0334 H   0  0  0  0  0  0
  -28.0681  -31.8483   26.5450 H   0  0  0  0  0  0
  -28.2583  -38.0104   24.7513 H   0  0  0  0  0  0
  -28.1096  -36.2637   24.6277 H   0  0  0  0  0  0
  -27.2296  -37.1430   25.8855 H   0  0  0  0  0  0
  -20.9414  -29.8726   21.6844 H   0  0  0  0  0  0
  -26.0180  -38.2833   24.1402 H   0  0  0  0  0  0
  -30.1905  -22.4646   22.5601 H   0  0  0  0  0  0
  -31.0210  -20.2574   23.9415 H   0  0  0  0  0  0
  -29.2316  -22.7256   18.0755 H   0  0  0  0  0  0
  -29.7504  -21.0798   18.3485 H   0  0  0  0  0  0
  -30.7317  -22.4044   18.9397 H   0  0  0  0  0  0
  -30.7873  -19.1241   18.5940 H   0  0  0  0  0  0
  -30.4681  -17.4023   18.4698 H   0  0  0  0  0  0
  -31.4964  -18.0155   19.7556 H   0  0  0  0  0  0
  -28.2055  -19.6414   18.7135 H   0  0  0  0  0  0
  -27.2315  -18.7539   19.8670 H   0  0  0  0  0  0
  -27.9418  -17.9369   18.4842 H   0  0  0  0  0  0
  -30.0882  -16.6661   23.1179 H   0  0  0  0  0  0
  -31.6148  -16.8647   22.2201 H   0  0  0  0  0  0
  -31.1769  -15.3156   22.9243 H   0  0  0  0  0  0
  -28.5245  -23.6472   21.6819 H   0  0  0  0  0  0
  -29.9409  -23.9820   20.7410 H   0  0  0  0  0  0
  -28.5068  -16.3304   19.9646 H   0  0  0  0  0  0
  -28.3487  -16.9908   21.5322 H   0  0  0  0  0  0
  -27.0491  -24.5607   20.0522 H   0  0  0  0  0  0
  -28.2722  -24.7392   18.8341 H   0  0  0  0  0  0
  -27.9086  -21.7705   19.9533 H   0  0  0  0  0  0
  -30.4590  -18.3013   22.4724 H   0  0  0  0  0  0
  1 25  1  0  0  0
  1 30  2  0  0  0
  1 85  1  0  0  0
  2  3  1  0  0  0
  2 25  1  0  0  0
  2 86  1  0  0  0
  2 87  1  0  0  0
  3  4  1  0  0  0
  3 88  1  0  0  0
  3 89  1  0  0  0
  4  5  1  0  0  0
  4 90  1  0  0  0
  4 91  1  0  0  0
  5  6  1  0  0  0
  5 26  1  0  0  0
  5 92  1  0  0  0
  6 25  1  0  0  0
  6 93  1  0  0  0
  6 94  1  0  0  0
  7  8  2  0  0  0
  7 26  1  0  0  0
  7 29  1  0  0  0
  8  9  1  0  0  0
  8 22  1  0  0  0
  9 10  1  0  0  0
  9 27  2  0  0  0
 10 11  2  0  0  0
 10 15  1  0  0  0
 11 12  1  0  0  0
 11 95  1  0  0  0
 12 13  2  0  0  0
 12 96  1  0  0  0
 13 14  1  0  0  0
 13 31  1  0  0  0
 14 15  2  0  0  0
 14 97  1  0  0  0
 15 98  1  0  0  0
 16 17  2  0  0  0
 16 21  1  0  0  0
 16 31  1  0  0  0
 17 18  1  0  0  0
 17 99  1  0  0  0
 18 19  2  0  0  0
 18100  1  0  0  0
 19 20  1  0  0  0
 19 24  1  0  0  0
 20 21  2  0  0  0
 20101  1  0  0  0
 21 23  1  0  0  0
 22 28  1  0  0  0
 22 32  2  0  0  0
 26 27  1  0  0  0
 28102  1  0  0  0
 28103  1  0  0  0
 29104  1  0  0  0
 29105  1  0  0  0
 33 34  1  0  0  0
 33 66  1  0  0  0
 33 70  2  0  0  0
 34 36  1  0  0  0
 34 59  1  0  0  0
 34106  1  0  0  0
 35 44  2  0  0  0
 35 45  1  0  0  0
 35 68  1  0  0  0
 36 56  1  0  0  0
 36107  1  0  0  0
 37 39  1  0  0  0
 37 47  1  0  0  0
 37 66  1  0  0  0
 37108  1  0  0  0
 38 43  2  0  0  0
 38 46  1  0  0  0
 38 47  1  0  0  0
 39 64  1  0  0  0
 39 67  2  0  0  0
 40 52  1  0  0  0
 40 53  2  0  0  0
 40 58  1  0  0  0
 41109  1  0  0  0
 41110  1  0  0  0
 41111  1  0  0  0
 41 48  1  0  0  0
 42 43  1  0  0  0
 42 66  1  0  0  0
 42112  1  0  0  0
 42113  1  0  0  0
 43 44  1  0  0  0
 44114  1  0  0  0
 45 46  2  0  0  0
 45115  1  0  0  0
 46116  1  0  0  0
 47117  1  0  0  0
 47118  1  0  0  0
 48 56  1  0  0  0
 48 65  1  0  0  0
 48119  1  0  0  0
 49 50  1  0  0  0
 49 53  1  0  0  0
 49 64  1  0  0  0
 49120  1  0  0  0
 50 51  1  0  0  0
 50121  1  0  0  0
 50122  1  0  0  0
 51 52  1  0  0  0
 51123  1  0  0  0
 51124  1  0  0  0
 52125  1  0  0  0
 52126  1  0  0  0
 53 54  1  0  0  0
 54 55  2  0  0  0
 54127  1  0  0  0
 55 57  1  0  0  0
 55128  1  0  0  0
 56 69  2  0  0  0
 57 58  2  0  0  0
 57129  1  0  0  0
 58130  1  0  0  0
 59 60  1  0  0  0
 59 61  1  0  0  0
 59 62  1  0  0  0
 60131  1  0  0  0
 60132  1  0  0  0
 60133  1  0  0  0
 61134  1  0  0  0
 61135  1  0  0  0
 61136  1  0  0  0
 62137  1  0  0  0
 62138  1  0  0  0
 62139  1  0  0  0
 63 65  1  0  0  0
 63140  1  0  0  0
 63141  1  0  0  0
 63142  1  0  0  0
 64143  1  0  0  0
 65144  1  0  0  0
 68 80  1  0  0  0
 71 72  2  0  0  0
 71 83  1  0  0  0
 71145  1  0  0  0
 72 84  1  0  0  0
 72146  1  0  0  0
 73 82  1  0  0  0
 73 83  1  0  0  0
 73 84  2  0  0  0
 74147  1  0  0  0
 74148  1  0  0  0
 74149  1  0  0  0
 74 81  1  0  0  0
 75150  1  0  0  0
 75151  1  0  0  0
 75152  1  0  0  0
 75 82  1  0  0  0
 76 82  1  0  0  0
 76153  1  0  0  0
 76154  1  0  0  0
 76155  1  0  0  0
 77 85  1  0  0  0
 77156  1  0  0  0
 77157  1  0  0  0
 77158  1  0  0  0
 78 80  1  0  0  0
 78 81  1  0  0  0
 78159  1  0  0  0
 78160  1  0  0  0
 79 82  1  0  0  0
 79 85  1  0  0  0
 79161  1  0  0  0
 79162  1  0  0  0
 80163  1  0  0  0
 80164  1  0  0  0
 81 83  1  0  0  0
 81165  1  0  0  0
 84166  1  0  0  0
M  CHG  1  84   1
M  ISO  4   1 100  68 101  80 101  85 100
M  END
> <chiral flag>
0

> <version>
0

> <s_m_source_file>
/data/baiqing/PycharmProjects/Reinvent-master-3.2/result/LINK_invent/BTK/process_docking_weight1_custom_sum_contain_oxygen_bond_distance_aromatic_linkinvent_7_9_3/rearranged_h_0061.sdf

> <i_m_source_file_index>
57

> <r_mmod_Potential_Energy-OPLS-2005>
411.088714599609

> <r_mmod_Stretch_Energy-OPLS-2005>
164.320373535156

> <r_mmod_Bend_Energy-OPLS-2005>
247.738098144531

> <r_mmod_Torsional_Energy-OPLS-2005>
354.109802246094

> <r_mmod_Improper_Torsional_Energy-OPLS-2005>
2.98872661590576

> <r_mmod_Van_der_Waal_Energy-OPLS-2005>
115.653366088867

> <r_mmod_Electrostatic_Energy-OPLS-2005>
-160.652526855469

> <r_mmod_Solvation_Energy-OPLS-2005>
-406.074859619141

> <b_mmod_Minimization_Converged-OPLS-2005>
0

> <r_mmod_RMS_Derivative-OPLS-2005>
1.6715726852417

$$$$
60
                    3D
 Structure written by MMmdl.
163171  0  0  1  0            999 V2000
  -30.5053  -15.0473   20.4270 C   0  0  0  0  0  0
  -30.4410  -12.6456   19.5446 C   0  0  0  0  0  0
  -29.5439  -12.5383   18.2872 C   0  0  0  0  0  0
  -28.0674  -12.3348   18.6877 C   0  0  0  0  0  0
  -27.6280  -13.2697   19.8471 C   0  0  2  0  0  0
  -28.6589  -13.3324   20.9949 C   0  0  0  0  0  0
  -25.2465  -13.8261   20.5738 C   0  0  0  0  0  0
  -24.1779  -13.0427   20.9260 C   0  0  0  0  0  0
  -24.6428  -11.6937   20.8776 C   0  0  0  0  0  0
  -23.9123  -10.4293   21.0420 C   0  0  0  0  0  0
  -24.3655   -9.4210   21.9198 C   0  0  0  0  0  0
  -23.6325   -8.2249   22.0754 C   0  0  0  0  0  0
  -22.4299   -8.0303   21.3564 C   0  0  0  0  0  0
  -21.9947   -9.0260   20.4643 C   0  0  0  0  0  0
  -22.7296  -10.2144   20.3053 C   0  0  0  0  0  0
  -21.6846   -6.0750   22.5281 C   0  0  0  0  0  0
  -21.4022   -6.5654   23.8207 C   0  0  0  0  0  0
  -21.3654   -5.6820   24.9170 C   0  0  0  0  0  0
  -21.6037   -4.3076   24.7229 C   0  0  0  0  0  0
  -21.8818   -3.8161   23.4345 C   0  0  0  0  0  0
  -21.9196   -4.6986   22.3406 C   0  0  0  0  0  0
  -22.7802  -13.5213   21.1916 C   0  0  0  0  0  0
  -22.1663   -4.2174   21.0990 F   0  0  0  0  0  0
  -21.5615   -3.4549   25.7726 F   0  0  0  0  0  0
  -29.9328  -13.7633   20.4033 N   0  0  0  0  0  0
  -26.2889  -12.9519   20.3280 N   0  0  0  0  0  0
  -25.9372  -11.6629   20.5737 N   0  0  0  0  0  0
  -22.0469  -12.8128   22.0456 N   0  0  0  0  0  0
  -25.4029  -15.1971   20.4157 N   0  0  0  0  0  0
  -31.6940  -15.1153   20.0960 O   0  0  0  0  0  0
  -21.6649   -6.8901   21.4248 O   0  0  0  0  0  0
  -22.3486  -14.5524   20.6810 O   0  0  0  0  0  0
  -24.6483  -31.8413   23.1790 C   0  0  0  0  0  0
  -25.9225  -32.4710   23.8251 C   0  0  1  0  0  0
  -27.2445  -27.1088   20.1493 C   0  0  0  0  0  0
  -25.5934  -33.8512   24.2196 N   0  0  0  0  0  0
  -23.4533  -30.4567   21.5237 C   0  0  2  0  0  0
  -24.9091  -28.8704   20.1155 C   0  0  0  0  0  0
  -22.7606  -29.4520   22.4812 C   0  0  0  0  0  0
  -18.0339  -28.1371   22.8456 C   0  0  0  0  0  0
  -24.1488  -36.7263   23.2641 C   0  0  0  0  0  0
  -26.0129  -30.7029   21.3821 C   0  0  0  0  0  0
  -26.0905  -29.3079   20.7329 C   0  0  0  0  0  0
  -27.2522  -28.4379   20.7326 C   0  0  0  0  0  0
  -26.0357  -26.7878   19.4783 C   0  0  0  0  0  0
  -24.8957  -27.6211   19.4832 C   0  0  0  0  0  0
  -23.6825  -29.7740   20.1507 C   0  0  0  0  0  0
  -25.4113  -36.3044   24.0333 C   0  0  1  0  0  0
  -20.5943  -28.3714   23.1212 C   0  0  2  0  0  0
  -20.6794  -26.9384   22.5436 C   0  0  0  0  0  0
  -19.5766  -26.6355   21.5223 C   0  0  0  0  0  0
  -18.1943  -26.7920   22.1596 C   0  0  0  0  0  0
  -19.1607  -28.8854   23.2824 C   0  0  0  0  0  0
  -18.9513  -30.1427   23.8866 C   0  0  0  0  0  0
  -17.6513  -30.6573   24.0517 C   0  0  0  0  0  0
  -25.9070  -34.9430   23.5093 C   0  0  0  0  0  0
  -16.5395  -29.9061   23.6330 C   0  0  0  0  0  0
  -16.7324  -28.6487   23.0349 C   0  0  0  0  0  0
  -26.4526  -31.6573   25.0718 C   0  0  0  0  0  0
  -25.3719  -31.3741   26.1428 C   0  0  0  0  0  0
  -27.0366  -30.2970   24.6269 C   0  0  0  0  0  0
  -27.6047  -32.4343   25.7498 C   0  0  0  0  0  0
  -27.5564  -37.1761   24.8458 C   0  0  0  0  0  0
  -21.4287  -29.3051   22.3579 N   0  0  0  0  0  0
  -26.4262  -37.3755   23.9437 N   0  0  0  0  0  0
  -24.7251  -31.0219   22.0837 N   0  0  0  0  0  0
  -23.4270  -28.8049   23.2937 O   0  0  0  0  0  0
  -28.3053  -26.1109   20.1908 O   0  0  0  0  0  0
  -26.5665  -34.8893   22.4677 O   0  0  0  0  0  0
  -23.5584  -32.1315   23.6974 O   0  0  0  0  0  0
  -29.9516  -22.8649   19.6703 C   0  0  0  0  0  0
  -28.8071  -23.1890   20.3690 C   0  0  0  0  0  0
  -29.3847  -20.8185   20.6193 C   0  0  0  0  0  0
  -25.9816  -22.1917   21.3365 C   0  0  0  0  0  0
  -27.7093  -22.1552   23.2639 C   0  0  0  0  0  0
  -28.8095  -18.7802   22.3633 C   0  0  0  0  0  0
  -31.1259  -19.2897   21.7410 C   0  0  0  0  0  0
  -27.9659  -24.6198   20.5385 C   0  0  0  0  0  0
  -29.7679  -17.7878   20.1733 C   0  0  0  0  0  0
  -27.3423  -21.6711   21.8503 C   0  0  0  0  0  0
  -29.6870  -19.2088   21.1501 C   0  0  0  0  0  0
  -28.4810  -21.8760   20.9222 N   0  0  0  0  0  0
  -30.2586  -21.5104   19.8505 N   0  3  0  0  0  0
  -29.7177  -16.2355   20.6312 N   0  0  0  0  0  0
  -31.4826  -12.7916   19.2579 H   0  0  0  0  0  0
  -30.4219  -11.7059   20.0987 H   0  0  0  0  0  0
  -29.8666  -11.7032   17.6644 H   0  0  0  0  0  0
  -29.6481  -13.4350   17.6761 H   0  0  0  0  0  0
  -27.9504  -11.2938   18.9955 H   0  0  0  0  0  0
  -27.4127  -12.4692   17.8236 H   0  0  0  0  0  0
  -27.5789  -14.2687   19.4122 H   0  0  0  0  0  0
  -28.7583  -12.3682   21.4955 H   0  0  0  0  0  0
  -28.3411  -14.0409   21.7633 H   0  0  0  0  0  0
  -25.2765   -9.5683   22.4808 H   0  0  0  0  0  0
  -24.0000   -7.4636   22.7490 H   0  0  0  0  0  0
  -21.0858   -8.8823   19.8946 H   0  0  0  0  0  0
  -22.3758  -10.9706   19.6181 H   0  0  0  0  0  0
  -21.2025   -7.6161   23.9733 H   0  0  0  0  0  0
  -21.1467   -6.0531   25.9083 H   0  0  0  0  0  0
  -22.0597   -2.7623   23.2837 H   0  0  0  0  0  0
  -22.4075  -11.9737   22.4741 H   0  0  0  0  0  0
  -21.1114  -13.1145   22.2751 H   0  0  0  0  0  0
  -24.6167  -15.8321   20.5040 H   0  0  0  0  0  0
  -26.2240  -15.6397   20.0228 H   0  0  0  0  0  0
  -26.7305  -32.5276   23.0983 H   0  0  0  0  0  0
  -25.0111  -33.9647   25.0364 H   0  0  0  0  0  0
  -22.7587  -31.2835   21.3547 H   0  0  0  0  0  0
  -23.3757  -35.9586   23.3303 H   0  0  0  0  0  0
  -24.3569  -36.8912   22.2060 H   0  0  0  0  0  0
  -23.7239  -37.6447   23.6702 H   0  0  0  0  0  0
  -26.1624  -31.4420   20.5924 H   0  0  0  0  0  0
  -26.8879  -30.7639   22.0173 H   0  0  0  0  0  0
  -28.1558  -28.7517   21.2373 H   0  0  0  0  0  0
  -25.9379  -25.8614   18.9384 H   0  0  0  0  0  0
  -23.9991  -27.2850   18.9833 H   0  0  0  0  0  0
  -23.8128  -30.5375   19.3862 H   0  0  0  0  0  0
  -22.7980  -29.2169   19.8371 H   0  0  0  0  0  0
  -25.1258  -36.1857   25.0815 H   0  0  0  0  0  0
  -21.0048  -28.3270   24.1340 H   0  0  0  0  0  0
  -20.5653  -26.2262   23.3622 H   0  0  0  0  0  0
  -21.6632  -26.7352   22.1208 H   0  0  0  0  0  0
  -19.6933  -25.6278   21.1225 H   0  0  0  0  0  0
  -19.6742  -27.3165   20.6740 H   0  0  0  0  0  0
  -17.4212  -26.6722   21.3973 H   0  0  0  0  0  0
  -18.0279  -26.0070   22.8982 H   0  0  0  0  0  0
  -19.7995  -30.7220   24.2223 H   0  0  0  0  0  0
  -17.5074  -31.6244   24.5142 H   0  0  0  0  0  0
  -15.5383  -30.2933   23.7664 H   0  0  0  0  0  0
  -15.8713  -28.0745   22.7104 H   0  0  0  0  0  0
  -24.6016  -30.6925   25.7788 H   0  0  0  0  0  0
  -24.8721  -32.2842   26.4749 H   0  0  0  0  0  0
  -25.7994  -30.9090   27.0301 H   0  0  0  0  0  0
  -26.2971  -29.6708   24.1242 H   0  0  0  0  0  0
  -27.3961  -29.7264   25.4822 H   0  0  0  0  0  0
  -27.8863  -30.4253   23.9557 H   0  0  0  0  0  0
  -27.2753  -33.3757   26.1918 H   0  0  0  0  0  0
  -28.3914  -32.6727   25.0344 H   0  0  0  0  0  0
  -28.0619  -31.8561   26.5553 H   0  0  0  0  0  0
  -28.2503  -38.0101   24.7530 H   0  0  0  0  0  0
  -28.1116  -36.2637   24.6226 H   0  0  0  0  0  0
  -27.2291  -37.1304   25.8848 H   0  0  0  0  0  0
  -20.9500  -29.8882   21.6856 H   0  0  0  0  0  0
  -26.0130  -38.2810   24.1507 H   0  0  0  0  0  0
  -30.5978  -23.5060   19.0828 H   0  0  0  0  0  0
  -25.1876  -22.0048   22.0543 H   0  0  0  0  0  0
  -25.7031  -21.6789   20.4139 H   0  0  0  0  0  0
  -25.9040  -23.2595   21.1763 H   0  0  0  0  0  0
  -26.9300  -21.8943   23.9801 H   0  0  0  0  0  0
  -27.8527  -23.2340   23.3185 H   0  0  0  0  0  0
  -28.6377  -21.6846   23.5960 H   0  0  0  0  0  0
  -28.8489  -19.4983   23.1850 H   0  0  0  0  0  0
  -29.1791  -17.8425   22.7901 H   0  0  0  0  0  0
  -27.7611  -18.6070   22.1061 H   0  0  0  0  0  0
  -31.2292  -20.0515   22.5167 H   0  0  0  0  0  0
  -31.8768  -19.5050   20.9807 H   0  0  0  0  0  0
  -31.4303  -18.3477   22.1975 H   0  0  0  0  0  0
  -27.7189  -24.6685   21.5992 H   0  0  0  0  0  0
  -27.0451  -24.4462   20.0039 H   0  0  0  0  0  0
  -30.6156  -17.8840   19.4961 H   0  0  0  0  0  0
  -28.9056  -17.8629   19.5073 H   0  0  0  0  0  0
  -27.1613  -20.6064   21.9082 H   0  0  0  0  0  0
  -31.1105  -21.1060   19.4882 H   0  0  0  0  0  0
  -28.7800  -15.9823   20.9090 H   0  0  0  0  0  0
  1 25  1  0  0  0
  1 30  2  0  0  0
  1 84  1  0  0  0
  2  3  1  0  0  0
  2 25  1  0  0  0
  2 85  1  0  0  0
  2 86  1  0  0  0
  3  4  1  0  0  0
  3 87  1  0  0  0
  3 88  1  0  0  0
  4  5  1  0  0  0
  4 89  1  0  0  0
  4 90  1  0  0  0
  5  6  1  0  0  0
  5 26  1  0  0  0
  5 91  1  0  0  0
  6 25  1  0  0  0
  6 92  1  0  0  0
  6 93  1  0  0  0
  7  8  2  0  0  0
  7 26  1  0  0  0
  7 29  1  0  0  0
  8  9  1  0  0  0
  8 22  1  0  0  0
  9 10  1  0  0  0
  9 27  2  0  0  0
 10 11  2  0  0  0
 10 15  1  0  0  0
 11 12  1  0  0  0
 11 94  1  0  0  0
 12 13  2  0  0  0
 12 95  1  0  0  0
 13 14  1  0  0  0
 13 31  1  0  0  0
 14 15  2  0  0  0
 14 96  1  0  0  0
 15 97  1  0  0  0
 16 17  2  0  0  0
 16 21  1  0  0  0
 16 31  1  0  0  0
 17 18  1  0  0  0
 17 98  1  0  0  0
 18 19  2  0  0  0
 18 99  1  0  0  0
 19 20  1  0  0  0
 19 24  1  0  0  0
 20 21  2  0  0  0
 20100  1  0  0  0
 21 23  1  0  0  0
 22 28  1  0  0  0
 22 32  2  0  0  0
 26 27  1  0  0  0
 28101  1  0  0  0
 28102  1  0  0  0
 29103  1  0  0  0
 29104  1  0  0  0
 33 34  1  0  0  0
 33 66  1  0  0  0
 33 70  2  0  0  0
 34 36  1  0  0  0
 34 59  1  0  0  0
 34105  1  0  0  0
 35 44  2  0  0  0
 35 45  1  0  0  0
 35 68  1  0  0  0
 36 56  1  0  0  0
 36106  1  0  0  0
 37 39  1  0  0  0
 37 47  1  0  0  0
 37 66  1  0  0  0
 37107  1  0  0  0
 38 43  2  0  0  0
 38 46  1  0  0  0
 38 47  1  0  0  0
 39 64  1  0  0  0
 39 67  2  0  0  0
 40 52  1  0  0  0
 40 53  2  0  0  0
 40 58  1  0  0  0
 41108  1  0  0  0
 41109  1  0  0  0
 41110  1  0  0  0
 41 48  1  0  0  0
 42 43  1  0  0  0
 42 66  1  0  0  0
 42111  1  0  0  0
 42112  1  0  0  0
 43 44  1  0  0  0
 44113  1  0  0  0
 45 46  2  0  0  0
 45114  1  0  0  0
 46115  1  0  0  0
 47116  1  0  0  0
 47117  1  0  0  0
 48 56  1  0  0  0
 48 65  1  0  0  0
 48118  1  0  0  0
 49 50  1  0  0  0
 49 53  1  0  0  0
 49 64  1  0  0  0
 49119  1  0  0  0
 50 51  1  0  0  0
 50120  1  0  0  0
 50121  1  0  0  0
 51 52  1  0  0  0
 51122  1  0  0  0
 51123  1  0  0  0
 52124  1  0  0  0
 52125  1  0  0  0
 53 54  1  0  0  0
 54 55  2  0  0  0
 54126  1  0  0  0
 55 57  1  0  0  0
 55127  1  0  0  0
 56 69  2  0  0  0
 57 58  2  0  0  0
 57128  1  0  0  0
 58129  1  0  0  0
 59 60  1  0  0  0
 59 61  1  0  0  0
 59 62  1  0  0  0
 60130  1  0  0  0
 60131  1  0  0  0
 60132  1  0  0  0
 61133  1  0  0  0
 61134  1  0  0  0
 61135  1  0  0  0
 62136  1  0  0  0
 62137  1  0  0  0
 62138  1  0  0  0
 63 65  1  0  0  0
 63139  1  0  0  0
 63140  1  0  0  0
 63141  1  0  0  0
 64142  1  0  0  0
 65143  1  0  0  0
 68 78  1  0  0  0
 71 72  2  0  0  0
 71 83  1  0  0  0
 71144  1  0  0  0
 72 78  1  0  0  0
 72 82  1  0  0  0
 73 81  1  0  0  0
 73 82  1  0  0  0
 73 83  2  0  0  0
 74145  1  0  0  0
 74146  1  0  0  0
 74147  1  0  0  0
 74 80  1  0  0  0
 75 80  1  0  0  0
 75148  1  0  0  0
 75149  1  0  0  0
 75150  1  0  0  0
 76151  1  0  0  0
 76152  1  0  0  0
 76153  1  0  0  0
 76 81  1  0  0  0
 77 81  1  0  0  0
 77154  1  0  0  0
 77155  1  0  0  0
 77156  1  0  0  0
 78157  1  0  0  0
 78158  1  0  0  0
 79 81  1  0  0  0
 79 84  1  0  0  0
 79159  1  0  0  0
 79160  1  0  0  0
 80 82  1  0  0  0
 80161  1  0  0  0
 83162  1  0  0  0
 84163  1  0  0  0
M  CHG  1  83   1
M  ISO  4   1 100  68 101  78 101  84 100
M  END
> <chiral flag>
0

> <version>
0

> <s_m_source_file>
/data/baiqing/PycharmProjects/Reinvent-master-3.2/result/LINK_invent/BTK/process_docking_weight1_custom_sum_contain_oxygen_bond_distance_aromatic_linkinvent_7_9_3/rearranged_h_0061.sdf

> <i_m_source_file_index>
58

> <r_mmod_Potential_Energy-OPLS-2005>
664.95361328125

> <r_mmod_Stretch_Energy-OPLS-2005>
358.6630859375

> <r_mmod_Bend_Energy-OPLS-2005>
329.315399169922

> <r_mmod_Torsional_Energy-OPLS-2005>
288.774505615234

> <r_mmod_Improper_Torsional_Energy-OPLS-2005>
6.49814414978027

> <r_mmod_Van_der_Waal_Energy-OPLS-2005>
119.959762573242

> <r_mmod_Electrostatic_Energy-OPLS-2005>
-263.919830322266

> <r_mmod_Solvation_Energy-OPLS-2005>
-417.700378417969

> <b_mmod_Minimization_Converged-OPLS-2005>
0

> <r_mmod_RMS_Derivative-OPLS-2005>
9.12599182128906

$$$$
61
                    3D
 Structure written by MMmdl.
163171  0  0  1  0            999 V2000
  -30.5007  -15.0604   20.4081 C   0  0  0  0  0  0
  -30.4421  -12.6669   19.5327 C   0  0  0  0  0  0
  -29.5299  -12.5530   18.2868 C   0  0  0  0  0  0
  -28.0665  -12.3133   18.6970 C   0  0  0  0  0  0
  -27.6242  -13.2568   19.8432 C   0  0  2  0  0  0
  -28.6574  -13.3323   20.9894 C   0  0  0  0  0  0
  -25.2441  -13.8217   20.5719 C   0  0  0  0  0  0
  -24.1763  -13.0437   20.9235 C   0  0  0  0  0  0
  -24.6368  -11.6930   20.8763 C   0  0  0  0  0  0
  -23.9055  -10.4297   21.0418 C   0  0  0  0  0  0
  -24.3625   -9.4219   21.9198 C   0  0  0  0  0  0
  -23.6295   -8.2261   22.0770 C   0  0  0  0  0  0
  -22.4275   -8.0291   21.3556 C   0  0  0  0  0  0
  -21.9901   -9.0256   20.4646 C   0  0  0  0  0  0
  -22.7229  -10.2136   20.3058 C   0  0  0  0  0  0
  -21.6871   -6.0739   22.5279 C   0  0  0  0  0  0
  -21.4010   -6.5636   23.8208 C   0  0  0  0  0  0
  -21.3655   -5.6782   24.9171 C   0  0  0  0  0  0
  -21.6062   -4.3049   24.7232 C   0  0  0  0  0  0
  -21.8813   -3.8146   23.4344 C   0  0  0  0  0  0
  -21.9201   -4.6959   22.3401 C   0  0  0  0  0  0
  -22.7785  -13.5219   21.1869 C   0  0  0  0  0  0
  -22.1680   -4.2148   21.0976 F   0  0  0  0  0  0
  -21.5619   -3.4531   25.7743 F   0  0  0  0  0  0
  -29.9257  -13.7788   20.3971 N   0  0  0  0  0  0
  -26.2857  -12.9457   20.3273 N   0  0  0  0  0  0
  -25.9313  -11.6578   20.5734 N   0  0  0  0  0  0
  -22.0450  -12.8223   22.0417 N   0  0  0  0  0  0
  -25.4126  -15.1947   20.4105 N   0  0  0  0  0  0
  -31.6919  -15.1065   20.0806 O   0  0  0  0  0  0
  -21.6664   -6.8880   21.4245 O   0  0  0  0  0  0
  -22.3499  -14.5543   20.6710 O   0  0  0  0  0  0
  -24.6453  -31.8415   23.1854 C   0  0  0  0  0  0
  -25.9241  -32.4658   23.8240 C   0  0  1  0  0  0
  -27.1988  -27.0909   20.1727 C   0  0  0  0  0  0
  -25.6006  -33.8474   24.2152 N   0  0  0  0  0  0
  -23.4464  -30.4561   21.5371 C   0  0  2  0  0  0
  -24.8919  -28.8733   20.1136 C   0  0  0  0  0  0
  -22.7573  -29.4512   22.4924 C   0  0  0  0  0  0
  -18.0304  -28.1362   22.8482 C   0  0  0  0  0  0
  -24.1492  -36.7224   23.2636 C   0  0  0  0  0  0
  -26.0048  -30.6991   21.3890 C   0  0  0  0  0  0
  -26.0718  -29.3066   20.7323 C   0  0  0  0  0  0
  -27.2296  -28.4344   20.7361 C   0  0  0  0  0  0
  -25.9918  -26.7610   19.5254 C   0  0  0  0  0  0
  -24.8670  -27.6153   19.4908 C   0  0  0  0  0  0
  -23.6696  -29.7807   20.1580 C   0  0  0  0  0  0
  -25.4123  -36.2999   24.0306 C   0  0  1  0  0  0
  -20.5913  -28.3687   23.1258 C   0  0  2  0  0  0
  -20.6811  -26.9407   22.5409 C   0  0  0  0  0  0
  -19.5785  -26.6373   21.5215 C   0  0  0  0  0  0
  -18.1951  -26.7918   22.1608 C   0  0  0  0  0  0
  -19.1563  -28.8855   23.2839 C   0  0  0  0  0  0
  -18.9477  -30.1474   23.8846 C   0  0  0  0  0  0
  -17.6475  -30.6577   24.0547 C   0  0  0  0  0  0
  -25.9100  -34.9385   23.5022 C   0  0  0  0  0  0
  -16.5367  -29.9064   23.6358 C   0  0  0  0  0  0
  -16.7290  -28.6476   23.0384 C   0  0  0  0  0  0
  -26.4581  -31.6530   25.0673 C   0  0  0  0  0  0
  -25.3763  -31.3735   26.1360 C   0  0  0  0  0  0
  -27.0480  -30.2930   24.6270 C   0  0  0  0  0  0
  -27.6092  -32.4328   25.7464 C   0  0  0  0  0  0
  -27.5573  -37.1748   24.8473 C   0  0  0  0  0  0
  -21.4271  -29.2993   22.3657 N   0  0  0  0  0  0
  -26.4281  -37.3721   23.9417 N   0  0  0  0  0  0
  -24.7192  -31.0204   22.0924 N   0  0  0  0  0  0
  -23.4201  -28.8091   23.3100 O   0  0  0  0  0  0
  -28.2543  -26.0983   20.1704 O   0  0  0  0  0  0
  -26.5676  -34.8904   22.4594 O   0  0  0  0  0  0
  -23.5579  -32.1355   23.7063 O   0  0  0  0  0  0
  -28.5819  -20.3394   19.9990 C   0  0  0  0  0  0
  -29.5502  -19.3177   20.3050 C   0  0  0  0  0  0
  -30.3223  -21.4993   20.6700 C   0  0  0  0  0  0
  -27.2024  -22.8577   18.8423 C   0  0  0  0  0  0
  -31.2197  -23.8967   21.1993 C   0  0  0  0  0  0
  -32.1405  -22.5185   19.3360 C   0  0  0  0  0  0
  -32.5996  -21.8957   21.7048 C   0  0  0  0  0  0
  -29.8924  -17.7189   19.8930 C   0  0  0  0  0  0
  -28.0719  -24.5827   20.5779 C   0  0  0  0  0  0
  -28.4431  -23.1496   19.7044 C   0  0  1  0  0  0
  -31.5204  -22.4524   20.7450 C   0  0  0  0  0  0
  -29.0539  -21.6993   20.2080 N   0  0  0  0  0  0
  -30.5496  -20.1526   20.7690 N   0  3  0  0  0  0
  -29.7342  -16.2724   20.5668 N   0  0  0  0  0  0
  -31.4696  -12.8477   19.2086 H   0  0  0  0  0  0
  -30.4713  -11.7296   20.0904 H   0  0  0  0  0  0
  -29.8685  -11.7438   17.6385 H   0  0  0  0  0  0
  -29.5976  -13.4699   17.6993 H   0  0  0  0  0  0
  -27.9810  -11.2737   19.0159 H   0  0  0  0  0  0
  -27.4069  -12.4244   17.8372 H   0  0  0  0  0  0
  -27.5704  -14.2503   19.3941 H   0  0  0  0  0  0
  -28.7741  -12.3652   21.4820 H   0  0  0  0  0  0
  -28.3261  -14.0349   21.7570 H   0  0  0  0  0  0
  -25.2758   -9.5712   22.4796 H   0  0  0  0  0  0
  -24.0008   -7.4645   22.7480 H   0  0  0  0  0  0
  -21.0852   -8.8740   19.8936 H   0  0  0  0  0  0
  -22.3669  -10.9678   19.6169 H   0  0  0  0  0  0
  -21.2008   -7.6143   23.9699 H   0  0  0  0  0  0
  -21.1475   -6.0530   25.9064 H   0  0  0  0  0  0
  -22.0603   -2.7610   23.2848 H   0  0  0  0  0  0
  -22.4061  -11.9871   22.4791 H   0  0  0  0  0  0
  -21.1059  -13.1241   22.2619 H   0  0  0  0  0  0
  -24.6372  -15.8435   20.4898 H   0  0  0  0  0  0
  -26.2413  -15.6173   20.0143 H   0  0  0  0  0  0
  -26.7282  -32.5236   23.0944 H   0  0  0  0  0  0
  -25.0232  -33.9620   25.0355 H   0  0  0  0  0  0
  -22.7466  -31.2791   21.3805 H   0  0  0  0  0  0
  -23.3788  -35.9528   23.3269 H   0  0  0  0  0  0
  -24.3581  -36.8896   22.2064 H   0  0  0  0  0  0
  -23.7233  -37.6392   23.6709 H   0  0  0  0  0  0
  -26.1594  -31.4549   20.6180 H   0  0  0  0  0  0
  -26.8790  -30.7519   22.0292 H   0  0  0  0  0  0
  -28.1347  -28.7647   21.2260 H   0  0  0  0  0  0
  -25.8989  -25.7947   19.0521 H   0  0  0  0  0  0
  -23.9678  -27.2753   18.9944 H   0  0  0  0  0  0
  -23.7939  -30.5511   19.3968 H   0  0  0  0  0  0
  -22.7853  -29.2156   19.8578 H   0  0  0  0  0  0
  -25.1305  -36.1804   25.0800 H   0  0  0  0  0  0
  -20.9972  -28.3272   24.1392 H   0  0  0  0  0  0
  -20.5735  -26.2300   23.3613 H   0  0  0  0  0  0
  -21.6673  -26.7439   22.1181 H   0  0  0  0  0  0
  -19.6968  -25.6283   21.1262 H   0  0  0  0  0  0
  -19.6740  -27.3189   20.6743 H   0  0  0  0  0  0
  -17.4242  -26.6696   21.3993 H   0  0  0  0  0  0
  -18.0313  -26.0033   22.8963 H   0  0  0  0  0  0
  -19.7952  -30.7304   24.2172 H   0  0  0  0  0  0
  -17.5024  -31.6262   24.5150 H   0  0  0  0  0  0
  -15.5367  -30.2940   23.7709 H   0  0  0  0  0  0
  -15.8685  -28.0769   22.7138 H   0  0  0  0  0  0
  -24.5943  -30.7095   25.7665 H   0  0  0  0  0  0
  -24.8985  -32.2945   26.4704 H   0  0  0  0  0  0
  -25.8062  -30.8942   27.0168 H   0  0  0  0  0  0
  -26.3132  -29.6608   24.1290 H   0  0  0  0  0  0
  -27.4132  -29.7236   25.4824 H   0  0  0  0  0  0
  -27.9004  -30.4163   23.9592 H   0  0  0  0  0  0
  -27.2669  -33.3660   26.1947 H   0  0  0  0  0  0
  -28.3970  -32.6848   25.0350 H   0  0  0  0  0  0
  -28.0699  -31.8523   26.5464 H   0  0  0  0  0  0
  -28.2555  -38.0070   24.7527 H   0  0  0  0  0  0
  -28.1102  -36.2599   24.6287 H   0  0  0  0  0  0
  -27.2297  -37.1373   25.8877 H   0  0  0  0  0  0
  -20.9521  -29.8632   21.6757 H   0  0  0  0  0  0
  -26.0137  -38.2778   24.1454 H   0  0  0  0  0  0
  -27.6250  -20.1884   19.5184 H   0  0  0  0  0  0
  -26.8538  -23.7595   18.3378 H   0  0  0  0  0  0
  -26.3797  -22.4851   19.4561 H   0  0  0  0  0  0
  -27.4027  -22.1208   18.0633 H   0  0  0  0  0  0
  -30.6500  -24.4635   20.4685 H   0  0  0  0  0  0
  -32.1453  -24.4637   21.3072 H   0  0  0  0  0  0
  -30.7163  -23.9373   22.1647 H   0  0  0  0  0  0
  -31.4457  -22.9416   18.6125 H   0  0  0  0  0  0
  -32.4041  -21.5242   18.9743 H   0  0  0  0  0  0
  -33.0461  -23.1269   19.3203 H   0  0  0  0  0  0
  -32.2069  -21.7648   22.7143 H   0  0  0  0  0  0
  -33.4578  -22.5675   21.7735 H   0  0  0  0  0  0
  -32.9913  -20.9346   21.3679 H   0  0  0  0  0  0
  -30.9467  -17.7394   19.6163 H   0  0  0  0  0  0
  -29.3864  -17.5780   18.9371 H   0  0  0  0  0  0
  -28.5907  -24.5068   21.5300 H   0  0  0  0  0  0
  -27.0285  -24.5000   20.8878 H   0  0  0  0  0  0
  -29.1973  -23.4875   18.9941 H   0  0  0  0  0  0
  -31.4650  -19.8037   21.0243 H   0  0  0  0  0  0
  -28.8099  -16.1122   20.9314 H   0  0  0  0  0  0
  1 25  1  0  0  0
  1 30  2  0  0  0
  1 84  1  0  0  0
  2  3  1  0  0  0
  2 25  1  0  0  0
  2 85  1  0  0  0
  2 86  1  0  0  0
  3  4  1  0  0  0
  3 87  1  0  0  0
  3 88  1  0  0  0
  4  5  1  0  0  0
  4 89  1  0  0  0
  4 90  1  0  0  0
  5  6  1  0  0  0
  5 26  1  0  0  0
  5 91  1  0  0  0
  6 25  1  0  0  0
  6 92  1  0  0  0
  6 93  1  0  0  0
  7  8  2  0  0  0
  7 26  1  0  0  0
  7 29  1  0  0  0
  8  9  1  0  0  0
  8 22  1  0  0  0
  9 10  1  0  0  0
  9 27  2  0  0  0
 10 11  2  0  0  0
 10 15  1  0  0  0
 11 12  1  0  0  0
 11 94  1  0  0  0
 12 13  2  0  0  0
 12 95  1  0  0  0
 13 14  1  0  0  0
 13 31  1  0  0  0
 14 15  2  0  0  0
 14 96  1  0  0  0
 15 97  1  0  0  0
 16 17  2  0  0  0
 16 21  1  0  0  0
 16 31  1  0  0  0
 17 18  1  0  0  0
 17 98  1  0  0  0
 18 19  2  0  0  0
 18 99  1  0  0  0
 19 20  1  0  0  0
 19 24  1  0  0  0
 20 21  2  0  0  0
 20100  1  0  0  0
 21 23  1  0  0  0
 22 28  1  0  0  0
 22 32  2  0  0  0
 26 27  1  0  0  0
 28101  1  0  0  0
 28102  1  0  0  0
 29103  1  0  0  0
 29104  1  0  0  0
 33 34  1  0  0  0
 33 66  1  0  0  0
 33 70  2  0  0  0
 34 36  1  0  0  0
 34 59  1  0  0  0
 34105  1  0  0  0
 35 44  2  0  0  0
 35 45  1  0  0  0
 35 68  1  0  0  0
 36 56  1  0  0  0
 36106  1  0  0  0
 37 39  1  0  0  0
 37 47  1  0  0  0
 37 66  1  0  0  0
 37107  1  0  0  0
 38 43  2  0  0  0
 38 46  1  0  0  0
 38 47  1  0  0  0
 39 64  1  0  0  0
 39 67  2  0  0  0
 40 52  1  0  0  0
 40 53  2  0  0  0
 40 58  1  0  0  0
 41108  1  0  0  0
 41109  1  0  0  0
 41110  1  0  0  0
 41 48  1  0  0  0
 42 43  1  0  0  0
 42 66  1  0  0  0
 42111  1  0  0  0
 42112  1  0  0  0
 43 44  1  0  0  0
 44113  1  0  0  0
 45 46  2  0  0  0
 45114  1  0  0  0
 46115  1  0  0  0
 47116  1  0  0  0
 47117  1  0  0  0
 48 56  1  0  0  0
 48 65  1  0  0  0
 48118  1  0  0  0
 49 50  1  0  0  0
 49 53  1  0  0  0
 49 64  1  0  0  0
 49119  1  0  0  0
 50 51  1  0  0  0
 50120  1  0  0  0
 50121  1  0  0  0
 51 52  1  0  0  0
 51122  1  0  0  0
 51123  1  0  0  0
 52124  1  0  0  0
 52125  1  0  0  0
 53 54  1  0  0  0
 54 55  2  0  0  0
 54126  1  0  0  0
 55 57  1  0  0  0
 55127  1  0  0  0
 56 69  2  0  0  0
 57 58  2  0  0  0
 57128  1  0  0  0
 58129  1  0  0  0
 59 60  1  0  0  0
 59 61  1  0  0  0
 59 62  1  0  0  0
 60130  1  0  0  0
 60131  1  0  0  0
 60132  1  0  0  0
 61133  1  0  0  0
 61134  1  0  0  0
 61135  1  0  0  0
 62136  1  0  0  0
 62137  1  0  0  0
 62138  1  0  0  0
 63 65  1  0  0  0
 63139  1  0  0  0
 63140  1  0  0  0
 63141  1  0  0  0
 64142  1  0  0  0
 65143  1  0  0  0
 68 79  1  0  0  0
 71 72  2  0  0  0
 71 82  1  0  0  0
 71144  1  0  0  0
 72 78  1  0  0  0
 72 83  1  0  0  0
 73 81  1  0  0  0
 73 82  1  0  0  0
 73 83  2  0  0  0
 74145  1  0  0  0
 74146  1  0  0  0
 74147  1  0  0  0
 74 80  1  0  0  0
 75148  1  0  0  0
 75149  1  0  0  0
 75150  1  0  0  0
 75 81  1  0  0  0
 76 81  1  0  0  0
 76151  1  0  0  0
 76152  1  0  0  0
 76153  1  0  0  0
 77 81  1  0  0  0
 77154  1  0  0  0
 77155  1  0  0  0
 77156  1  0  0  0
 78 84  1  0  0  0
 78157  1  0  0  0
 78158  1  0  0  0
 79 80  1  0  0  0
 79159  1  0  0  0
 79160  1  0  0  0
 80 82  1  0  0  0
 80161  1  0  0  0
 83162  1  0  0  0
 84163  1  0  0  0
M  CHG  1  83   1
M  ISO  4   1 100  68 101  79 101  84 100
M  END
> <chiral flag>
0

> <version>
0

> <s_m_source_file>
/data/baiqing/PycharmProjects/Reinvent-master-3.2/result/LINK_invent/BTK/process_docking_weight1_custom_sum_contain_oxygen_bond_distance_aromatic_linkinvent_7_9_3/rearranged_h_0061.sdf

> <i_m_source_file_index>
59

> <r_mmod_Potential_Energy-OPLS-2005>
654.346923828125

> <r_mmod_Stretch_Energy-OPLS-2005>
335.200714111328

> <r_mmod_Bend_Energy-OPLS-2005>
348.368377685547

> <r_mmod_Torsional_Energy-OPLS-2005>
299.340240478516

> <r_mmod_Improper_Torsional_Energy-OPLS-2005>
13.6087970733643

> <r_mmod_Van_der_Waal_Energy-OPLS-2005>
115.516014099121

> <r_mmod_Electrostatic_Energy-OPLS-2005>
-295.680419921875

> <r_mmod_Solvation_Energy-OPLS-2005>
-415.802673339844

> <b_mmod_Minimization_Converged-OPLS-2005>
0

> <r_mmod_RMS_Derivative-OPLS-2005>
4.44115591049194

$$$$
62
                    3D
 Structure written by MMmdl.
158167  0  0  1  0            999 V2000
  -30.7103  -14.5175   20.5849 C   0  0  0  0  0  0
  -30.4184  -12.3438   19.4298 C   0  0  0  0  0  0
  -29.4913  -12.5074   18.2091 C   0  0  0  0  0  0
  -28.0161  -12.3532   18.6248 C   0  0  0  0  0  0
  -27.6530  -13.2106   19.8655 C   0  0  2  0  0  0
  -28.6955  -13.0376   20.9922 C   0  0  0  0  0  0
  -25.2553  -13.8164   20.5677 C   0  0  0  0  0  0
  -24.1824  -13.0434   20.9193 C   0  0  0  0  0  0
  -24.6386  -11.6904   20.8748 C   0  0  0  0  0  0
  -23.9056  -10.4289   21.0412 C   0  0  0  0  0  0
  -24.3613   -9.4204   21.9186 C   0  0  0  0  0  0
  -23.6293   -8.2238   22.0752 C   0  0  0  0  0  0
  -22.4273   -8.0276   21.3543 C   0  0  0  0  0  0
  -21.9905   -9.0250   20.4646 C   0  0  0  0  0  0
  -22.7229  -10.2132   20.3058 C   0  0  0  0  0  0
  -21.6853   -6.0733   22.5279 C   0  0  0  0  0  0
  -21.4012   -6.5638   23.8212 C   0  0  0  0  0  0
  -21.3660   -5.6792   24.9175 C   0  0  0  0  0  0
  -21.6045   -4.3056   24.7227 C   0  0  0  0  0  0
  -21.8820   -3.8146   23.4348 C   0  0  0  0  0  0
  -21.9193   -4.6962   22.3404 C   0  0  0  0  0  0
  -22.7849  -13.5233   21.1859 C   0  0  0  0  0  0
  -22.1664   -4.2146   21.0983 F   0  0  0  0  0  0
  -21.5628   -3.4539   25.7740 F   0  0  0  0  0  0
  -30.0210  -13.3478   20.4338 N   0  0  0  0  0  0
  -26.2982  -12.9336   20.3331 N   0  0  0  0  0  0
  -25.9310  -11.6495   20.5767 N   0  0  0  0  0  0
  -22.0495  -12.8223   22.0416 N   0  0  0  0  0  0
  -25.4250  -15.1880   20.4060 N   0  0  0  0  0  0
  -31.8368  -14.6770   20.1027 O   0  0  0  0  0  0
  -21.6639   -6.8874   21.4240 O   0  0  0  0  0  0
  -22.3535  -14.5539   20.6709 O   0  0  0  0  0  0
  -24.6174  -31.8658   23.2090 C   0  0  0  0  0  0
  -25.9058  -32.4810   23.8389 C   0  0  1  0  0  0
  -27.2270  -27.3892   20.1145 C   0  0  0  0  0  0
  -25.5911  -33.8610   24.2320 N   0  0  0  0  0  0
  -23.4071  -30.4893   21.5495 C   0  0  2  0  0  0
  -24.8533  -28.9488   20.1154 C   0  0  0  0  0  0
  -22.7423  -29.4648   22.4979 C   0  0  0  0  0  0
  -18.0274  -28.1379   22.8496 C   0  0  0  0  0  0
  -24.1484  -36.7305   23.2633 C   0  0  0  0  0  0
  -25.9397  -30.8159   21.3705 C   0  0  0  0  0  0
  -26.0136  -29.4449   20.7229 C   0  0  0  0  0  0
  -27.2015  -28.6713   20.7229 C   0  0  0  0  0  0
  -26.0549  -26.9319   19.4722 C   0  0  0  0  0  0
  -24.8702  -27.6922   19.4866 C   0  0  0  0  0  0
  -23.6181  -29.8215   20.1641 C   0  0  0  0  0  0
  -25.4102  -36.3104   24.0339 C   0  0  1  0  0  0
  -20.5867  -28.3669   23.1314 C   0  0  2  0  0  0
  -20.6764  -26.9402   22.5423 C   0  0  0  0  0  0
  -19.5744  -26.6386   21.5218 C   0  0  0  0  0  0
  -18.1921  -26.7928   22.1623 C   0  0  0  0  0  0
  -19.1524  -28.8840   23.2904 C   0  0  0  0  0  0
  -18.9448  -30.1447   23.8911 C   0  0  0  0  0  0
  -17.6451  -30.6586   24.0565 C   0  0  0  0  0  0
  -25.9041  -34.9471   23.5128 C   0  0  0  0  0  0
  -16.5343  -29.9087   23.6328 C   0  0  0  0  0  0
  -16.7262  -28.6503   23.0353 C   0  0  0  0  0  0
  -26.4476  -31.6598   25.0727 C   0  0  0  0  0  0
  -25.3742  -31.3716   26.1478 C   0  0  0  0  0  0
  -27.0301  -30.3032   24.6125 C   0  0  0  0  0  0
  -27.6058  -32.4316   25.7480 C   0  0  0  0  0  0
  -27.5597  -37.1777   24.8445 C   0  0  0  0  0  0
  -21.4147  -29.3032   22.3712 N   0  0  0  0  0  0
  -26.4274  -37.3804   23.9442 N   0  0  0  0  0  0
  -24.6729  -31.0729   22.1008 N   0  0  0  0  0  0
  -23.4180  -28.8193   23.3035 O   0  0  0  0  0  0
  -28.3917  -26.6342   20.0924 O   0  0  0  0  0  0
  -26.5601  -34.8929   22.4690 O   0  0  0  0  0  0
  -23.5358  -32.1426   23.7466 O   0  0  0  0  0  0
  -30.0502  -18.7173   19.8339 C   0  0  0  0  0  0
  -28.8260  -18.6962   21.9193 C   0  0  0  0  0  0
  -30.2126  -20.1220   19.9443 C   0  0  0  0  0  0
  -28.9992  -20.0984   22.0364 C   0  0  0  0  0  0
  -29.3672  -17.9778   20.8268 C   0  0  0  0  0  0
  -29.7122  -20.8397   21.0618 C   0  0  0  0  0  0
  -28.4305  -25.2773   20.4290 C   0  0  0  0  0  0
  -31.5498  -22.6172   20.9124 C   0  0  0  0  0  0
  -30.8564  -16.0449   22.4582 C   0  0  0  0  0  0
  -29.1496  -16.4490   20.6829 C   0  0  0  0  0  0
  -30.0891  -22.3283   21.3257 C   0  0  1  0  0  0
  -27.3518  -24.5479   20.8422 N   0  0  0  0  0  0
  -29.5788  -24.6178   20.4247 N   0  0  0  0  0  0
  -27.8189  -23.3607   21.1134 N   0  0  0  0  0  0
  -29.1552  -23.3872   20.8523 N   0  0  0  0  0  0
  -30.1233  -15.5110   21.3082 N   0  0  0  0  0  0
  -31.4620  -12.4430   19.1255 H   0  0  0  0  0  0
  -30.3278  -11.3406   19.8493 H   0  0  0  0  0  0
  -29.7418  -11.7714   17.4438 H   0  0  0  0  0  0
  -29.6464  -13.4873   17.7545 H   0  0  0  0  0  0
  -27.8422  -11.2984   18.8408 H   0  0  0  0  0  0
  -27.3606  -12.6029   17.7896 H   0  0  0  0  0  0
  -27.6794  -14.2487   19.5388 H   0  0  0  0  0  0
  -28.6855  -12.0141   21.3694 H   0  0  0  0  0  0
  -28.4456  -13.6687   21.8461 H   0  0  0  0  0  0
  -25.2758   -9.5684   22.4757 H   0  0  0  0  0  0
  -24.0006   -7.4627   22.7467 H   0  0  0  0  0  0
  -21.0835   -8.8766   19.8954 H   0  0  0  0  0  0
  -22.3685  -10.9670   19.6168 H   0  0  0  0  0  0
  -21.2003   -7.6144   23.9713 H   0  0  0  0  0  0
  -21.1481   -6.0524   25.9078 H   0  0  0  0  0  0
  -22.0598   -2.7609   23.2850 H   0  0  0  0  0  0
  -22.4113  -11.9883   22.4802 H   0  0  0  0  0  0
  -21.1116  -13.1249   22.2634 H   0  0  0  0  0  0
  -24.6544  -15.8395   20.5088 H   0  0  0  0  0  0
  -26.2684  -15.6255   20.0601 H   0  0  0  0  0  0
  -26.7126  -32.5511   23.1145 H   0  0  0  0  0  0
  -25.0077  -33.9771   25.0475 H   0  0  0  0  0  0
  -22.6981  -31.3078   21.4095 H   0  0  0  0  0  0
  -23.3763  -35.9616   23.3254 H   0  0  0  0  0  0
  -24.3599  -36.8958   22.2057 H   0  0  0  0  0  0
  -23.7205  -37.6486   23.6668 H   0  0  0  0  0  0
  -26.0588  -31.5778   20.5986 H   0  0  0  0  0  0
  -26.8261  -30.8708   21.9909 H   0  0  0  0  0  0
  -28.0976  -29.0523   21.1929 H   0  0  0  0  0  0
  -26.0499  -25.9778   18.9643 H   0  0  0  0  0  0
  -23.9818  -27.3101   19.0024 H   0  0  0  0  0  0
  -23.7299  -30.5963   19.4049 H   0  0  0  0  0  0
  -22.7408  -29.2442   19.8670 H   0  0  0  0  0  0
  -25.1266  -36.1952   25.0826 H   0  0  0  0  0  0
  -20.9964  -28.3236   24.1432 H   0  0  0  0  0  0
  -20.5666  -26.2277   23.3613 H   0  0  0  0  0  0
  -21.6636  -26.7441   22.1216 H   0  0  0  0  0  0
  -19.6904  -25.6299   21.1243 H   0  0  0  0  0  0
  -19.6686  -27.3203   20.6754 H   0  0  0  0  0  0
  -17.4197  -26.6686   21.4020 H   0  0  0  0  0  0
  -18.0311  -26.0065   22.9013 H   0  0  0  0  0  0
  -19.7924  -30.7263   24.2284 H   0  0  0  0  0  0
  -17.5005  -31.6268   24.5164 H   0  0  0  0  0  0
  -15.5343  -30.2991   23.7649 H   0  0  0  0  0  0
  -15.8663  -28.0829   22.7057 H   0  0  0  0  0  0
  -24.5923  -30.7046   25.7832 H   0  0  0  0  0  0
  -24.8918  -32.2872   26.4911 H   0  0  0  0  0  0
  -25.8100  -30.8910   27.0246 H   0  0  0  0  0  0
  -26.2846  -29.6801   24.1172 H   0  0  0  0  0  0
  -27.4047  -29.7267   25.4593 H   0  0  0  0  0  0
  -27.8697  -30.4339   23.9295 H   0  0  0  0  0  0
  -27.2684  -33.3606   26.2089 H   0  0  0  0  0  0
  -28.3843  -32.6895   25.0289 H   0  0  0  0  0  0
  -28.0754  -31.8424   26.5365 H   0  0  0  0  0  0
  -28.2538  -38.0153   24.7625 H   0  0  0  0  0  0
  -28.1168  -36.2698   24.6082 H   0  0  0  0  0  0
  -27.2348  -37.1196   25.8848 H   0  0  0  0  0  0
  -20.9309  -29.8748   21.6930 H   0  0  0  0  0  0
  -26.0155  -38.2859   24.1532 H   0  0  0  0  0  0
  -30.4634  -18.2062   18.9752 H   0  0  0  0  0  0
  -28.2806  -18.1676   22.6890 H   0  0  0  0  0  0
  -30.7712  -20.6356   19.1749 H   0  0  0  0  0  0
  -28.6083  -20.6003   22.9111 H   0  0  0  0  0  0
  -32.2284  -21.8743   21.3315 H   0  0  0  0  0  0
  -31.8807  -23.5897   21.2774 H   0  0  0  0  0  0
  -31.6717  -22.6164   19.8297 H   0  0  0  0  0  0
  -30.1720  -16.4898   23.1806 H   0  0  0  0  0  0
  -31.5735  -16.8051   22.1450 H   0  0  0  0  0  0
  -31.4066  -15.2595   22.9800 H   0  0  0  0  0  0
  -29.0648  -16.2316   19.6160 H   0  0  0  0  0  0
  -28.1701  -16.2138   21.1000 H   0  0  0  0  0  0
  -30.0793  -22.4268   22.4120 H   0  0  0  0  0  0
  1 25  1  0  0  0
  1 30  2  0  0  0
  1 86  1  0  0  0
  2  3  1  0  0  0
  2 25  1  0  0  0
  2 87  1  0  0  0
  2 88  1  0  0  0
  3  4  1  0  0  0
  3 89  1  0  0  0
  3 90  1  0  0  0
  4  5  1  0  0  0
  4 91  1  0  0  0
  4 92  1  0  0  0
  5  6  1  0  0  0
  5 26  1  0  0  0
  5 93  1  0  0  0
  6 25  1  0  0  0
  6 94  1  0  0  0
  6 95  1  0  0  0
  7  8  2  0  0  0
  7 26  1  0  0  0
  7 29  1  0  0  0
  8  9  1  0  0  0
  8 22  1  0  0  0
  9 10  1  0  0  0
  9 27  2  0  0  0
 10 11  2  0  0  0
 10 15  1  0  0  0
 11 12  1  0  0  0
 11 96  1  0  0  0
 12 13  2  0  0  0
 12 97  1  0  0  0
 13 14  1  0  0  0
 13 31  1  0  0  0
 14 15  2  0  0  0
 14 98  1  0  0  0
 15 99  1  0  0  0
 16 17  2  0  0  0
 16 21  1  0  0  0
 16 31  1  0  0  0
 17 18  1  0  0  0
 17100  1  0  0  0
 18 19  2  0  0  0
 18101  1  0  0  0
 19 20  1  0  0  0
 19 24  1  0  0  0
 20 21  2  0  0  0
 20102  1  0  0  0
 21 23  1  0  0  0
 22 28  1  0  0  0
 22 32  2  0  0  0
 26 27  1  0  0  0
 28103  1  0  0  0
 28104  1  0  0  0
 29105  1  0  0  0
 29106  1  0  0  0
 33 34  1  0  0  0
 33 66  1  0  0  0
 33 70  2  0  0  0
 34 36  1  0  0  0
 34 59  1  0  0  0
 34107  1  0  0  0
 35 44  2  0  0  0
 35 45  1  0  0  0
 35 68  1  0  0  0
 36 56  1  0  0  0
 36108  1  0  0  0
 37 39  1  0  0  0
 37 47  1  0  0  0
 37 66  1  0  0  0
 37109  1  0  0  0
 38 43  2  0  0  0
 38 46  1  0  0  0
 38 47  1  0  0  0
 39 64  1  0  0  0
 39 67  2  0  0  0
 40 52  1  0  0  0
 40 53  2  0  0  0
 40 58  1  0  0  0
 41110  1  0  0  0
 41111  1  0  0  0
 41112  1  0  0  0
 41 48  1  0  0  0
 42 43  1  0  0  0
 42 66  1  0  0  0
 42113  1  0  0  0
 42114  1  0  0  0
 43 44  1  0  0  0
 44115  1  0  0  0
 45 46  2  0  0  0
 45116  1  0  0  0
 46117  1  0  0  0
 47118  1  0  0  0
 47119  1  0  0  0
 48 56  1  0  0  0
 48 65  1  0  0  0
 48120  1  0  0  0
 49 50  1  0  0  0
 49 53  1  0  0  0
 49 64  1  0  0  0
 49121  1  0  0  0
 50 51  1  0  0  0
 50122  1  0  0  0
 50123  1  0  0  0
 51 52  1  0  0  0
 51124  1  0  0  0
 51125  1  0  0  0
 52126  1  0  0  0
 52127  1  0  0  0
 53 54  1  0  0  0
 54 55  2  0  0  0
 54128  1  0  0  0
 55 57  1  0  0  0
 55129  1  0  0  0
 56 69  2  0  0  0
 57 58  2  0  0  0
 57130  1  0  0  0
 58131  1  0  0  0
 59 60  1  0  0  0
 59 61  1  0  0  0
 59 62  1  0  0  0
 60132  1  0  0  0
 60133  1  0  0  0
 60134  1  0  0  0
 61135  1  0  0  0
 61136  1  0  0  0
 61137  1  0  0  0
 62138  1  0  0  0
 62139  1  0  0  0
 62140  1  0  0  0
 63 65  1  0  0  0
 63141  1  0  0  0
 63142  1  0  0  0
 63143  1  0  0  0
 64144  1  0  0  0
 65145  1  0  0  0
 68 77  1  0  0  0
 71 73  2  0  0  0
 71 75  1  0  0  0
 71146  1  0  0  0
 72 74  1  0  0  0
 72 75  2  0  0  0
 72147  1  0  0  0
 73 76  1  0  0  0
 73148  1  0  0  0
 74 76  2  0  0  0
 74149  1  0  0  0
 75 80  1  0  0  0
 76 81  1  0  0  0
 77 82  1  0  0  0
 77 83  2  0  0  0
 78150  1  0  0  0
 78151  1  0  0  0
 78152  1  0  0  0
 78 81  1  0  0  0
 79 86  1  0  0  0
 79153  1  0  0  0
 79154  1  0  0  0
 79155  1  0  0  0
 80 86  1  0  0  0
 80156  1  0  0  0
 80157  1  0  0  0
 81 85  1  0  0  0
 81158  1  0  0  0
 82 84  2  0  0  0
 83 85  1  0  0  0
 84 85  1  0  0  0
M  ISO  4   1 100  68 101  77 101  86 100
M  END
> <chiral flag>
0

> <version>
0

> <s_m_source_file>
/data/baiqing/PycharmProjects/Reinvent-master-3.2/result/LINK_invent/BTK/process_docking_weight1_custom_sum_contain_oxygen_bond_distance_aromatic_linkinvent_7_9_3/rearranged_h_0061.sdf

> <i_m_source_file_index>
60

> <r_mmod_Potential_Energy-OPLS-2005>
173.658950805664

> <r_mmod_Stretch_Energy-OPLS-2005>
51.2904510498047

> <r_mmod_Bend_Energy-OPLS-2005>
126.861068725586

> <r_mmod_Torsional_Energy-OPLS-2005>
293.408355712891

> <r_mmod_Improper_Torsional_Energy-OPLS-2005>
7.07218027114868

> <r_mmod_Van_der_Waal_Energy-OPLS-2005>
145.915267944336

> <r_mmod_Electrostatic_Energy-OPLS-2005>
-266.113433837891

> <r_mmod_Solvation_Energy-OPLS-2005>
-203.970962524414

> <b_mmod_Minimization_Converged-OPLS-2005>
0

> <r_mmod_RMS_Derivative-OPLS-2005>
0.546610057353973

$$$$
63
                    3D
 Structure written by MMmdl.
161169  0  0  1  0            999 V2000
  -30.5774  -14.8020   20.3560 C   0  0  0  0  0  0
  -30.4225  -12.4604   19.4882 C   0  0  0  0  0  0
  -29.5148  -12.4104   18.2425 C   0  0  0  0  0  0
  -28.0285  -12.2897   18.6522 C   0  0  0  0  0  0
  -27.6204  -13.2296   19.8234 C   0  0  2  0  0  0
  -28.6645  -13.2333   20.9537 C   0  0  0  0  0  0
  -25.2425  -13.8165   20.5788 C   0  0  0  0  0  0
  -24.1728  -13.0410   20.9245 C   0  0  0  0  0  0
  -24.6321  -11.6898   20.8734 C   0  0  0  0  0  0
  -23.9037  -10.4259   21.0387 C   0  0  0  0  0  0
  -24.3606   -9.4193   21.9173 C   0  0  0  0  0  0
  -23.6273   -8.2233   22.0752 C   0  0  0  0  0  0
  -22.4263   -8.0256   21.3531 C   0  0  0  0  0  0
  -21.9874   -9.0241   20.4660 C   0  0  0  0  0  0
  -22.7201  -10.2112   20.3056 C   0  0  0  0  0  0
  -21.6838   -6.0729   22.5281 C   0  0  0  0  0  0
  -21.4030   -6.5642   23.8222 C   0  0  0  0  0  0
  -21.3658   -5.6787   24.9179 C   0  0  0  0  0  0
  -21.6034   -4.3049   24.7218 C   0  0  0  0  0  0
  -21.8810   -3.8142   23.4337 C   0  0  0  0  0  0
  -21.9188   -4.6959   22.3394 C   0  0  0  0  0  0
  -22.7765  -13.5215   21.1891 C   0  0  0  0  0  0
  -22.1648   -4.2158   21.0959 F   0  0  0  0  0  0
  -21.5616   -3.4531   25.7722 F   0  0  0  0  0  0
  -29.9503  -13.5753   20.3378 N   0  0  0  0  0  0
  -26.2811  -12.9387   20.3203 N   0  0  0  0  0  0
  -25.9238  -11.6541   20.5729 N   0  0  0  0  0  0
  -22.0379  -12.8267   22.0457 N   0  0  0  0  0  0
  -25.4078  -15.1881   20.4430 N   0  0  0  0  0  0
  -31.8103  -14.8369   20.2555 O   0  0  0  0  0  0
  -21.6619   -6.8863   21.4236 O   0  0  0  0  0  0
  -22.3487  -14.5512   20.6692 O   0  0  0  0  0  0
  -24.6378  -31.8490   23.1974 C   0  0  0  0  0  0
  -25.9158  -32.4734   23.8362 C   0  0  1  0  0  0
  -27.2286  -27.2383   20.1295 C   0  0  0  0  0  0
  -25.5908  -33.8548   24.2270 N   0  0  0  0  0  0
  -23.4403  -30.4719   21.5390 C   0  0  2  0  0  0
  -24.8834  -28.9074   20.1173 C   0  0  0  0  0  0
  -22.7565  -29.4578   22.4882 C   0  0  0  0  0  0
  -18.0291  -28.1422   22.8466 C   0  0  0  0  0  0
  -24.1473  -36.7304   23.2637 C   0  0  0  0  0  0
  -25.9892  -30.7531   21.3811 C   0  0  0  0  0  0
  -26.0574  -29.3757   20.7185 C   0  0  0  0  0  0
  -27.2315  -28.5563   20.7048 C   0  0  0  0  0  0
  -26.0216  -26.8257   19.5224 C   0  0  0  0  0  0
  -24.8706  -27.6407   19.5120 C   0  0  0  0  0  0
  -23.6626  -29.8045   20.1567 C   0  0  0  0  0  0
  -25.4092  -36.3083   24.0335 C   0  0  1  0  0  0
  -20.5907  -28.3741   23.1220 C   0  0  2  0  0  0
  -20.6769  -26.9439   22.5379 C   0  0  0  0  0  0
  -19.5738  -26.6390   21.5186 C   0  0  0  0  0  0
  -18.1926  -26.7956   22.1610 C   0  0  0  0  0  0
  -19.1551  -28.8896   23.2838 C   0  0  0  0  0  0
  -18.9474  -30.1483   23.8882 C   0  0  0  0  0  0
  -17.6475  -30.6600   24.0578 C   0  0  0  0  0  0
  -25.9039  -34.9440   23.5116 C   0  0  0  0  0  0
  -16.5371  -29.9106   23.6329 C   0  0  0  0  0  0
  -16.7279  -28.6526   23.0350 C   0  0  0  0  0  0
  -26.4488  -31.6612   25.0807 C   0  0  0  0  0  0
  -25.3695  -31.3792   26.1532 C   0  0  0  0  0  0
  -27.0341  -30.3015   24.6359 C   0  0  0  0  0  0
  -27.6050  -32.4377   25.7566 C   0  0  0  0  0  0
  -27.5573  -37.1800   24.8449 C   0  0  0  0  0  0
  -21.4257  -29.3083   22.3624 N   0  0  0  0  0  0
  -26.4270  -37.3776   23.9419 N   0  0  0  0  0  0
  -24.7085  -31.0447   22.0953 N   0  0  0  0  0  0
  -23.4227  -28.8084   23.2988 O   0  0  0  0  0  0
  -28.3488  -26.3755   20.2160 O   0  0  0  0  0  0
  -26.5632  -34.8912   22.4699 O   0  0  0  0  0  0
  -23.5511  -32.1316   23.7243 O   0  0  0  0  0  0
  -28.9832  -20.7881   20.4079 C   0  0  0  0  0  0
  -29.4635  -18.6684   20.7115 C   0  0  0  0  0  0
  -28.0502  -16.9279   18.5431 C   0  0  0  0  0  0
  -30.5158  -16.9168   17.9076 C   0  0  0  0  0  0
  -27.2533  -18.0594   21.8149 C   0  0  0  0  0  0
  -28.9942  -22.2453   19.7950 C   0  0  0  0  0  0
  -30.2109  -17.2755   20.9015 C   0  0  0  0  0  0
  -28.4760  -23.6016   20.5323 C   0  0  0  0  0  0
  -28.4278  -24.9769   19.6552 C   0  0  0  0  0  0
  -29.4143  -16.2346   18.7464 C   0  0  0  0  0  0
  -29.9938  -19.8323   20.2404 N   0  0  0  0  0  0
  -27.8868  -20.2457   20.9387 N   0  0  0  0  0  0
  -28.2149  -18.9266   21.1608 N   0  0  0  0  0  0
  -29.8264  -15.9832   20.1643 N   0  0  0  0  0  0
  -31.4689  -12.5716   19.1961 H   0  0  0  0  0  0
  -30.3653  -11.5223   20.0420 H   0  0  0  0  0  0
  -29.7930  -11.5503   17.6284 H   0  0  0  0  0  0
  -29.6794  -13.2787   17.6093 H   0  0  0  0  0  0
  -27.8727  -11.2535   18.9590 H   0  0  0  0  0  0
  -27.3819  -12.4476   17.7888 H   0  0  0  0  0  0
  -27.5815  -14.2307   19.4016 H   0  0  0  0  0  0
  -28.7080  -12.2593   21.4418 H   0  0  0  0  0  0
  -28.3986  -13.9640   21.7236 H   0  0  0  0  0  0
  -25.2755   -9.5687   22.4752 H   0  0  0  0  0  0
  -23.9981   -7.4624   22.7470 H   0  0  0  0  0  0
  -21.0803   -8.8785   19.8968 H   0  0  0  0  0  0
  -22.3665  -10.9669   19.6179 H   0  0  0  0  0  0
  -21.2054   -7.6155   23.9749 H   0  0  0  0  0  0
  -21.1484   -6.0503   25.9093 H   0  0  0  0  0  0
  -22.0589   -2.7605   23.2833 H   0  0  0  0  0  0
  -22.4005  -12.0001   22.4952 H   0  0  0  0  0  0
  -21.1002  -13.1333   22.2618 H   0  0  0  0  0  0
  -24.6451  -15.8385   20.6022 H   0  0  0  0  0  0
  -26.2683  -15.6393   20.1678 H   0  0  0  0  0  0
  -26.7259  -32.5326   23.1128 H   0  0  0  0  0  0
  -25.0027  -33.9674   25.0400 H   0  0  0  0  0  0
  -22.7410  -31.2965   21.3872 H   0  0  0  0  0  0
  -23.3733  -35.9634   23.3271 H   0  0  0  0  0  0
  -24.3579  -36.8952   22.2057 H   0  0  0  0  0  0
  -23.7211  -37.6495   23.6678 H   0  0  0  0  0  0
  -26.1433  -31.5113   20.6134 H   0  0  0  0  0  0
  -26.8645  -30.7955   22.0194 H   0  0  0  0  0  0
  -28.1383  -28.9158   21.1708 H   0  0  0  0  0  0
  -25.9221  -25.8453   19.0826 H   0  0  0  0  0  0
  -23.9642  -27.2670   19.0562 H   0  0  0  0  0  0
  -23.8154  -30.5811   19.4059 H   0  0  0  0  0  0
  -22.7791  -29.2512   19.8348 H   0  0  0  0  0  0
  -25.1255  -36.1949   25.0825 H   0  0  0  0  0  0
  -20.9998  -28.3323   24.1344 H   0  0  0  0  0  0
  -20.5623  -26.2365   23.3610 H   0  0  0  0  0  0
  -21.6640  -26.7417   22.1207 H   0  0  0  0  0  0
  -19.6894  -25.6280   21.1252 H   0  0  0  0  0  0
  -19.6673  -27.3169   20.6692 H   0  0  0  0  0  0
  -17.4180  -26.6682   21.4036 H   0  0  0  0  0  0
  -18.0356  -26.0118   22.9031 H   0  0  0  0  0  0
  -19.7951  -30.7291   24.2275 H   0  0  0  0  0  0
  -17.5028  -31.6273   24.5194 H   0  0  0  0  0  0
  -15.5374  -30.3011   23.7663 H   0  0  0  0  0  0
  -15.8678  -28.0839   22.7096 H   0  0  0  0  0  0
  -24.5851  -30.7149   25.7877 H   0  0  0  0  0  0
  -24.8889  -32.2964   26.4965 H   0  0  0  0  0  0
  -25.7990  -30.8973   27.0323 H   0  0  0  0  0  0
  -26.2959  -29.6785   24.1292 H   0  0  0  0  0  0
  -27.3876  -29.7277   25.4936 H   0  0  0  0  0  0
  -27.8904  -30.4273   23.9731 H   0  0  0  0  0  0
  -27.2666  -33.3679   26.2150 H   0  0  0  0  0  0
  -28.3848  -32.6943   25.0385 H   0  0  0  0  0  0
  -28.0749  -31.8510   26.5468 H   0  0  0  0  0  0
  -28.2576  -38.0117   24.7529 H   0  0  0  0  0  0
  -28.1090  -36.2649   24.6225 H   0  0  0  0  0  0
  -27.2309  -37.1403   25.8857 H   0  0  0  0  0  0
  -20.9478  -29.8873   21.6856 H   0  0  0  0  0  0
  -26.0152  -38.2847   24.1442 H   0  0  0  0  0  0
  -27.6356  -16.6745   17.5650 H   0  0  0  0  0  0
  -28.1310  -18.0138   18.5506 H   0  0  0  0  0  0
  -27.3114  -16.6432   19.2861 H   0  0  0  0  0  0
  -30.2241  -16.9698   16.8575 H   0  0  0  0  0  0
  -31.4608  -16.3743   17.9508 H   0  0  0  0  0  0
  -30.7071  -17.9381   18.2333 H   0  0  0  0  0  0
  -27.6264  -17.0360   21.8707 H   0  0  0  0  0  0
  -26.3135  -18.0552   21.2611 H   0  0  0  0  0  0
  -27.0625  -18.4161   22.8276 H   0  0  0  0  0  0
  -28.4704  -22.1762   18.8425 H   0  0  0  0  0  0
  -30.0297  -22.4418   19.5190 H   0  0  0  0  0  0
  -30.1675  -17.0435   21.9655 H   0  0  0  0  0  0
  -31.2678  -17.4545   20.7003 H   0  0  0  0  0  0
  -29.1110  -23.7661   21.4018 H   0  0  0  0  0  0
  -27.4782  -23.4181   20.9327 H   0  0  0  0  0  0
  -27.7256  -24.8433   18.8329 H   0  0  0  0  0  0
  -29.3844  -24.9974   19.1352 H   0  0  0  0  0  0
  -29.2659  -15.2664   18.2738 H   0  0  0  0  0  0
  1 25  1  0  0  0
  1 30  2  0  0  0
  1 84  1  0  0  0
  2  3  1  0  0  0
  2 25  1  0  0  0
  2 85  1  0  0  0
  2 86  1  0  0  0
  3  4  1  0  0  0
  3 87  1  0  0  0
  3 88  1  0  0  0
  4  5  1  0  0  0
  4 89  1  0  0  0
  4 90  1  0  0  0
  5  6  1  0  0  0
  5 26  1  0  0  0
  5 91  1  0  0  0
  6 25  1  0  0  0
  6 92  1  0  0  0
  6 93  1  0  0  0
  7  8  2  0  0  0
  7 26  1  0  0  0
  7 29  1  0  0  0
  8  9  1  0  0  0
  8 22  1  0  0  0
  9 10  1  0  0  0
  9 27  2  0  0  0
 10 11  2  0  0  0
 10 15  1  0  0  0
 11 12  1  0  0  0
 11 94  1  0  0  0
 12 13  2  0  0  0
 12 95  1  0  0  0
 13 14  1  0  0  0
 13 31  1  0  0  0
 14 15  2  0  0  0
 14 96  1  0  0  0
 15 97  1  0  0  0
 16 17  2  0  0  0
 16 21  1  0  0  0
 16 31  1  0  0  0
 17 18  1  0  0  0
 17 98  1  0  0  0
 18 19  2  0  0  0
 18 99  1  0  0  0
 19 20  1  0  0  0
 19 24  1  0  0  0
 20 21  2  0  0  0
 20100  1  0  0  0
 21 23  1  0  0  0
 22 28  1  0  0  0
 22 32  2  0  0  0
 26 27  1  0  0  0
 28101  1  0  0  0
 28102  1  0  0  0
 29103  1  0  0  0
 29104  1  0  0  0
 33 34  1  0  0  0
 33 66  1  0  0  0
 33 70  2  0  0  0
 34 36  1  0  0  0
 34 59  1  0  0  0
 34105  1  0  0  0
 35 44  2  0  0  0
 35 45  1  0  0  0
 35 68  1  0  0  0
 36 56  1  0  0  0
 36106  1  0  0  0
 37 39  1  0  0  0
 37 47  1  0  0  0
 37 66  1  0  0  0
 37107  1  0  0  0
 38 43  2  0  0  0
 38 46  1  0  0  0
 38 47  1  0  0  0
 39 64  1  0  0  0
 39 67  2  0  0  0
 40 52  1  0  0  0
 40 53  2  0  0  0
 40 58  1  0  0  0
 41108  1  0  0  0
 41109  1  0  0  0
 41110  1  0  0  0
 41 48  1  0  0  0
 42 43  1  0  0  0
 42 66  1  0  0  0
 42111  1  0  0  0
 42112  1  0  0  0
 43 44  1  0  0  0
 44113  1  0  0  0
 45 46  2  0  0  0
 45114  1  0  0  0
 46115  1  0  0  0
 47116  1  0  0  0
 47117  1  0  0  0
 48 56  1  0  0  0
 48 65  1  0  0  0
 48118  1  0  0  0
 49 50  1  0  0  0
 49 53  1  0  0  0
 49 64  1  0  0  0
 49119  1  0  0  0
 50 51  1  0  0  0
 50120  1  0  0  0
 50121  1  0  0  0
 51 52  1  0  0  0
 51122  1  0  0  0
 51123  1  0  0  0
 52124  1  0  0  0
 52125  1  0  0  0
 53 54  1  0  0  0
 54 55  2  0  0  0
 54126  1  0  0  0
 55 57  1  0  0  0
 55127  1  0  0  0
 56 69  2  0  0  0
 57 58  2  0  0  0
 57128  1  0  0  0
 58129  1  0  0  0
 59 60  1  0  0  0
 59 61  1  0  0  0
 59 62  1  0  0  0
 60130  1  0  0  0
 60131  1  0  0  0
 60132  1  0  0  0
 61133  1  0  0  0
 61134  1  0  0  0
 61135  1  0  0  0
 62136  1  0  0  0
 62137  1  0  0  0
 62138  1  0  0  0
 63 65  1  0  0  0
 63139  1  0  0  0
 63140  1  0  0  0
 63141  1  0  0  0
 64142  1  0  0  0
 65143  1  0  0  0
 68 79  1  0  0  0
 71 76  1  0  0  0
 71 81  1  0  0  0
 71 82  2  0  0  0
 72 77  1  0  0  0
 72 81  2  0  0  0
 72 83  1  0  0  0
 73144  1  0  0  0
 73145  1  0  0  0
 73146  1  0  0  0
 73 80  1  0  0  0
 74 80  1  0  0  0
 74147  1  0  0  0
 74148  1  0  0  0
 74149  1  0  0  0
 75 83  1  0  0  0
 75150  1  0  0  0
 75151  1  0  0  0
 75152  1  0  0  0
 76 78  1  0  0  0
 76153  1  0  0  0
 76154  1  0  0  0
 77 84  1  0  0  0
 77155  1  0  0  0
 77156  1  0  0  0
 78 79  1  0  0  0
 78157  1  0  0  0
 78158  1  0  0  0
 79159  1  0  0  0
 79160  1  0  0  0
 80 84  1  0  0  0
 80161  1  0  0  0
 82 83  1  0  0  0
M  ISO  4   1 100  68 101  79 101  84 100
M  END
> <chiral flag>
0

> <version>
0

> <s_m_source_file>
/data/baiqing/PycharmProjects/Reinvent-master-3.2/result/LINK_invent/BTK/process_docking_weight1_custom_sum_contain_oxygen_bond_distance_aromatic_linkinvent_7_9_3/rearranged_h_0061.sdf

> <i_m_source_file_index>
61

> <r_mmod_Potential_Energy-OPLS-2005>
327.124328613281

> <r_mmod_Stretch_Energy-OPLS-2005>
138.180923461914

> <r_mmod_Bend_Energy-OPLS-2005>
223.150817871094

> <r_mmod_Torsional_Energy-OPLS-2005>
303.612640380859

> <r_mmod_Improper_Torsional_Energy-OPLS-2005>
13.0501985549927

> <r_mmod_Van_der_Waal_Energy-OPLS-2005>
106.330680847168

> <r_mmod_Electrostatic_Energy-OPLS-2005>
-361.536285400391

> <r_mmod_Solvation_Energy-OPLS-2005>
-213.418914794922

> <b_mmod_Minimization_Converged-OPLS-2005>
0

> <r_mmod_RMS_Derivative-OPLS-2005>
4.31814050674438

$$$$
64
                    3D
 Structure written by MMmdl.
146154  0  0  1  0            999 V2000
  -30.3782  -15.4638   20.3540 C   0  0  0  0  0  0
  -30.4377  -12.9625   19.5061 C   0  0  0  0  0  0
  -29.5360  -12.6102   18.2924 C   0  0  0  0  0  0
  -28.1031  -12.2767   18.7426 C   0  0  0  0  0  0
  -27.6025  -13.2680   19.8180 C   0  0  2  0  0  0
  -28.6438  -13.5240   20.9329 C   0  0  0  0  0  0
  -25.2312  -13.8154   20.5744 C   0  0  0  0  0  0
  -24.1691  -13.0355   20.9282 C   0  0  0  0  0  0
  -24.6379  -11.6871   20.8797 C   0  0  0  0  0  0
  -23.9080  -10.4245   21.0424 C   0  0  0  0  0  0
  -24.3626   -9.4165   21.9200 C   0  0  0  0  0  0
  -23.6291   -8.2210   22.0762 C   0  0  0  0  0  0
  -22.4276   -8.0259   21.3545 C   0  0  0  0  0  0
  -21.9920   -9.0233   20.4646 C   0  0  0  0  0  0
  -22.7258  -10.2102   20.3060 C   0  0  0  0  0  0
  -21.6844   -6.0727   22.5281 C   0  0  0  0  0  0
  -21.4012   -6.5635   23.8213 C   0  0  0  0  0  0
  -21.3664   -5.6790   24.9176 C   0  0  0  0  0  0
  -21.6046   -4.3052   24.7227 C   0  0  0  0  0  0
  -21.8815   -3.8141   23.4349 C   0  0  0  0  0  0
  -21.9186   -4.6956   22.3404 C   0  0  0  0  0  0
  -22.7710  -13.5126   21.1909 C   0  0  0  0  0  0
  -22.1655   -4.2142   21.0981 F   0  0  0  0  0  0
  -21.5631   -3.4537   25.7742 F   0  0  0  0  0  0
  -29.8264  -14.1258   20.2727 N   0  0  0  0  0  0
  -26.2782  -12.9445   20.3273 N   0  0  0  0  0  0
  -25.9321  -11.6560   20.5776 N   0  0  0  0  0  0
  -22.0365  -12.8133   22.0477 N   0  0  0  0  0  0
  -25.3771  -15.1876   20.4096 N   0  0  0  0  0  0
  -31.6167  -15.4066   20.2486 O   0  0  0  0  0  0
  -21.6628   -6.8868   21.4243 O   0  0  0  0  0  0
  -22.3402  -14.5431   20.6742 O   0  0  0  0  0  0
  -24.6730  -31.8131   23.1615 C   0  0  0  0  0  0
  -25.9362  -32.4537   23.8120 C   0  0  1  0  0  0
  -27.2276  -26.8235   20.2051 C   0  0  0  0  0  0
  -25.5985  -33.8354   24.2017 N   0  0  0  0  0  0
  -23.4934  -30.4197   21.5138 C   0  0  2  0  0  0
  -24.9501  -28.7833   20.1222 C   0  0  0  0  0  0
  -22.7714  -29.4388   22.4757 C   0  0  0  0  0  0
  -18.0328  -28.1413   22.8459 C   0  0  0  0  0  0
  -24.1496  -36.7186   23.2648 C   0  0  0  0  0  0
  -26.0691  -30.5869   21.4072 C   0  0  0  0  0  0
  -26.1386  -29.1633   20.7583 C   0  0  0  0  0  0
  -27.2706  -28.2103   20.7665 C   0  0  0  0  0  0
  -26.0054  -26.6231   19.5196 C   0  0  0  0  0  0
  -24.9149  -27.5352   19.4807 C   0  0  0  0  0  0
  -23.7410  -29.7241   20.1465 C   0  0  0  0  0  0
  -25.4140  -36.2935   24.0291 C   0  0  1  0  0  0
  -20.5958  -28.3768   23.1165 C   0  0  2  0  0  0
  -20.6800  -26.9440   22.5398 C   0  0  0  0  0  0
  -19.5776  -26.6376   21.5210 C   0  0  0  0  0  0
  -18.1959  -26.7943   22.1620 C   0  0  0  0  0  0
  -19.1591  -28.8912   23.2796 C   0  0  0  0  0  0
  -18.9499  -30.1498   23.8840 C   0  0  0  0  0  0
  -17.6490  -30.6600   24.0549 C   0  0  0  0  0  0
  -25.9111  -34.9322   23.4982 C   0  0  0  0  0  0
  -16.5380  -29.9083   23.6345 C   0  0  0  0  0  0
  -16.7308  -28.6503   23.0365 C   0  0  0  0  0  0
  -26.4577  -31.6519   25.0690 C   0  0  0  0  0  0
  -25.3671  -31.3804   26.1323 C   0  0  0  0  0  0
  -27.0485  -30.2870   24.6498 C   0  0  0  0  0  0
  -27.6049  -32.4348   25.7504 C   0  0  0  0  0  0
  -27.5568  -37.1750   24.8465 C   0  0  0  0  0  0
  -21.4373  -29.3041   22.3506 N   0  0  0  0  0  0
  -26.4276  -37.3682   23.9405 N   0  0  0  0  0  0
  -24.7675  -30.9694   22.0807 N   0  0  0  0  0  0
  -23.4210  -28.7971   23.3047 O   0  0  0  0  0  0
  -28.2174  -25.6665   20.2158 O   0  0  0  0  0  0
  -26.5736  -34.8876   22.4589 O   0  0  0  0  0  0
  -23.5775  -32.1147   23.6641 O   0  0  0  0  0  0
  -28.7242  -21.6989   18.8815 C   0  0  0  0  0  0
  -28.6513  -22.3892   20.1555 C   0  0  0  0  0  0
  -28.1949  -16.7429   20.1661 C   0  0  0  0  0  0
  -27.9189  -24.0181   20.4949 C   0  0  0  0  0  0
  -29.9880  -18.4708   20.6010 C   0  0  0  0  0  0
  -29.0717  -20.3899   18.8875 N   0  0  0  0  0  0
  -29.0128  -21.2703   20.9489 N   0  0  0  0  0  0
  -29.2565  -19.9894   20.1872 N   0  0  0  0  0  0
  -29.6357  -16.8084   20.3623 N   0  0  0  0  0  0
  -31.4328  -13.2166   19.1387 H   0  0  0  0  0  0
  -30.5831  -12.0934   20.1501 H   0  0  0  0  0  0
  -29.9596  -11.7762   17.7315 H   0  0  0  0  0  0
  -29.5106  -13.4588   17.6071 H   0  0  0  0  0  0
  -28.1106  -11.2671   19.1556 H   0  0  0  0  0  0
  -27.4255  -12.2552   17.8880 H   0  0  0  0  0  0
  -27.4763  -14.1940   19.2661 H   0  0  0  0  0  0
  -28.8853  -12.6029   21.4654 H   0  0  0  0  0  0
  -28.2508  -14.2026   21.6886 H   0  0  0  0  0  0
  -25.2766   -9.5637   22.4783 H   0  0  0  0  0  0
  -23.9983   -7.4603   22.7494 H   0  0  0  0  0  0
  -21.0845   -8.8763   19.8957 H   0  0  0  0  0  0
  -22.3727  -10.9645   19.6169 H   0  0  0  0  0  0
  -21.2010   -7.6146   23.9715 H   0  0  0  0  0  0
  -21.1494   -6.0523   25.9079 H   0  0  0  0  0  0
  -22.0593   -2.7602   23.2848 H   0  0  0  0  0  0
  -22.3990  -11.9809   22.4886 H   0  0  0  0  0  0
  -21.0980  -13.1153   22.2676 H   0  0  0  0  0  0
  -24.6003  -15.8274   20.5349 H   0  0  0  0  0  0
  -26.2175  -15.6433   20.0824 H   0  0  0  0  0  0
  -26.7439  -32.5050   23.0836 H   0  0  0  0  0  0
  -25.0055  -33.9415   25.0117 H   0  0  0  0  0  0
  -22.8123  -31.2537   21.3322 H   0  0  0  0  0  0
  -23.3770  -35.9504   23.3271 H   0  0  0  0  0  0
  -24.3571  -36.8879   22.2071 H   0  0  0  0  0  0
  -23.7246  -37.6356   23.6740 H   0  0  0  0  0  0
  -26.2566  -31.3189   20.6204 H   0  0  0  0  0  0
  -26.9258  -30.6531   22.0657 H   0  0  0  0  0  0
  -28.1728  -28.5094   21.2813 H   0  0  0  0  0  0
  -25.8624  -25.6788   19.0148 H   0  0  0  0  0  0
  -24.0160  -27.2367   18.9585 H   0  0  0  0  0  0
  -23.9068  -30.4863   19.3846 H   0  0  0  0  0  0
  -22.8488  -29.1832   19.8264 H   0  0  0  0  0  0
  -25.1345  -36.1715   25.0781 H   0  0  0  0  0  0
  -21.0039  -28.3381   24.1291 H   0  0  0  0  0  0
  -20.5669  -26.2390   23.3647 H   0  0  0  0  0  0
  -21.6664  -26.7401   22.1213 H   0  0  0  0  0  0
  -19.6936  -25.6271   21.1280 H   0  0  0  0  0  0
  -19.6715  -27.3150   20.6711 H   0  0  0  0  0  0
  -17.4225  -26.6674   21.4029 H   0  0  0  0  0  0
  -18.0363  -26.0104   22.9036 H   0  0  0  0  0  0
  -19.7974  -30.7326   24.2191 H   0  0  0  0  0  0
  -17.5040  -31.6276   24.5161 H   0  0  0  0  0  0
  -15.5377  -30.2963   23.7707 H   0  0  0  0  0  0
  -15.8709  -28.0799   22.7118 H   0  0  0  0  0  0
  -24.5866  -30.7146   25.7621 H   0  0  0  0  0  0
  -24.8848  -32.3017   26.4597 H   0  0  0  0  0  0
  -25.7868  -30.9059   27.0202 H   0  0  0  0  0  0
  -26.3171  -29.6520   24.1486 H   0  0  0  0  0  0
  -27.3955  -29.7273   25.5194 H   0  0  0  0  0  0
  -27.9139  -30.4022   23.9969 H   0  0  0  0  0  0
  -27.2605  -33.3702   26.1927 H   0  0  0  0  0  0
  -28.3944  -32.6823   25.0395 H   0  0  0  0  0  0
  -28.0625  -31.8576   26.5550 H   0  0  0  0  0  0
  -28.2558  -38.0070   24.7510 H   0  0  0  0  0  0
  -28.1090  -36.2593   24.6293 H   0  0  0  0  0  0
  -27.2282  -37.1389   25.8866 H   0  0  0  0  0  0
  -20.9653  -29.8713   21.6602 H   0  0  0  0  0  0
  -26.0115  -38.2736   24.1410 H   0  0  0  0  0  0
  -28.4672  -22.1514   17.9329 H   0  0  0  0  0  0
  -27.7260  -17.7264   20.1336 H   0  0  0  0  0  0
  -27.7304  -16.2106   20.9923 H   0  0  0  0  0  0
  -27.9635  -16.2646   19.2166 H   0  0  0  0  0  0
  -27.7652  -24.0204   21.5738 H   0  0  0  0  0  0
  -26.9028  -23.9201   20.1152 H   0  0  0  0  0  0
  -30.1237  -18.5341   21.6803 H   0  0  0  0  0  0
  -31.0041  -18.5582   20.2173 H   0  0  0  0  0  0
  1 25  1  0  0  0
  1 30  2  0  0  0
  1 79  1  0  0  0
  2  3  1  0  0  0
  2 25  1  0  0  0
  2 80  1  0  0  0
  2 81  1  0  0  0
  3  4  1  0  0  0
  3 82  1  0  0  0
  3 83  1  0  0  0
  4  5  1  0  0  0
  4 84  1  0  0  0
  4 85  1  0  0  0
  5  6  1  0  0  0
  5 26  1  0  0  0
  5 86  1  0  0  0
  6 25  1  0  0  0
  6 87  1  0  0  0
  6 88  1  0  0  0
  7  8  2  0  0  0
  7 26  1  0  0  0
  7 29  1  0  0  0
  8  9  1  0  0  0
  8 22  1  0  0  0
  9 10  1  0  0  0
  9 27  2  0  0  0
 10 11  2  0  0  0
 10 15  1  0  0  0
 11 12  1  0  0  0
 11 89  1  0  0  0
 12 13  2  0  0  0
 12 90  1  0  0  0
 13 14  1  0  0  0
 13 31  1  0  0  0
 14 15  2  0  0  0
 14 91  1  0  0  0
 15 92  1  0  0  0
 16 17  2  0  0  0
 16 21  1  0  0  0
 16 31  1  0  0  0
 17 18  1  0  0  0
 17 93  1  0  0  0
 18 19  2  0  0  0
 18 94  1  0  0  0
 19 20  1  0  0  0
 19 24  1  0  0  0
 20 21  2  0  0  0
 20 95  1  0  0  0
 21 23  1  0  0  0
 22 28  1  0  0  0
 22 32  2  0  0  0
 26 27  1  0  0  0
 28 96  1  0  0  0
 28 97  1  0  0  0
 29 98  1  0  0  0
 29 99  1  0  0  0
 33 34  1  0  0  0
 33 66  1  0  0  0
 33 70  2  0  0  0
 34 36  1  0  0  0
 34 59  1  0  0  0
 34100  1  0  0  0
 35 44  2  0  0  0
 35 45  1  0  0  0
 35 68  1  0  0  0
 36 56  1  0  0  0
 36101  1  0  0  0
 37 39  1  0  0  0
 37 47  1  0  0  0
 37 66  1  0  0  0
 37102  1  0  0  0
 38 43  2  0  0  0
 38 46  1  0  0  0
 38 47  1  0  0  0
 39 64  1  0  0  0
 39 67  2  0  0  0
 40 52  1  0  0  0
 40 53  2  0  0  0
 40 58  1  0  0  0
 41103  1  0  0  0
 41104  1  0  0  0
 41105  1  0  0  0
 41 48  1  0  0  0
 42 43  1  0  0  0
 42 66  1  0  0  0
 42106  1  0  0  0
 42107  1  0  0  0
 43 44  1  0  0  0
 44108  1  0  0  0
 45 46  2  0  0  0
 45109  1  0  0  0
 46110  1  0  0  0
 47111  1  0  0  0
 47112  1  0  0  0
 48 56  1  0  0  0
 48 65  1  0  0  0
 48113  1  0  0  0
 49 50  1  0  0  0
 49 53  1  0  0  0
 49 64  1  0  0  0
 49114  1  0  0  0
 50 51  1  0  0  0
 50115  1  0  0  0
 50116  1  0  0  0
 51 52  1  0  0  0
 51117  1  0  0  0
 51118  1  0  0  0
 52119  1  0  0  0
 52120  1  0  0  0
 53 54  1  0  0  0
 54 55  2  0  0  0
 54121  1  0  0  0
 55 57  1  0  0  0
 55122  1  0  0  0
 56 69  2  0  0  0
 57 58  2  0  0  0
 57123  1  0  0  0
 58124  1  0  0  0
 59 60  1  0  0  0
 59 61  1  0  0  0
 59 62  1  0  0  0
 60125  1  0  0  0
 60126  1  0  0  0
 60127  1  0  0  0
 61128  1  0  0  0
 61129  1  0  0  0
 61130  1  0  0  0
 62131  1  0  0  0
 62132  1  0  0  0
 62133  1  0  0  0
 63 65  1  0  0  0
 63134  1  0  0  0
 63135  1  0  0  0
 63136  1  0  0  0
 64137  1  0  0  0
 65138  1  0  0  0
 68 74  1  0  0  0
 71 72  1  0  0  0
 71 76  2  0  0  0
 71139  1  0  0  0
 72 74  1  0  0  0
 72 77  2  0  0  0
 73 79  1  0  0  0
 73140  1  0  0  0
 73141  1  0  0  0
 73142  1  0  0  0
 74143  1  0  0  0
 74144  1  0  0  0
 75 78  1  0  0  0
 75 79  1  0  0  0
 75145  1  0  0  0
 75146  1  0  0  0
 76 78  1  0  0  0
 77 78  1  0  0  0
M  ISO  4   1 100  68 101  74 101  79 100
M  END
> <chiral flag>
0

> <version>
0

> <s_m_source_file>
/data/baiqing/PycharmProjects/Reinvent-master-3.2/result/LINK_invent/BTK/process_docking_weight1_custom_sum_contain_oxygen_bond_distance_aromatic_linkinvent_7_9_3/rearranged_h_0061.sdf

> <i_m_source_file_index>
62

> <r_mmod_Potential_Energy-OPLS-2005>
1812.37390136719

> <r_mmod_Stretch_Energy-OPLS-2005>
770.669677734375

> <r_mmod_Bend_Energy-OPLS-2005>
544.13134765625

> <r_mmod_Torsional_Energy-OPLS-2005>
279.280090332031

> <r_mmod_Improper_Torsional_Energy-OPLS-2005>
8.31353187561035

> <r_mmod_Van_der_Waal_Energy-OPLS-2005>
111.614204406738

> <r_mmod_Electrostatic_Energy-OPLS-2005>
-326.344543457031

> <r_mmod_Solvation_Energy-OPLS-2005>
-231.368087768555

> <b_mmod_Minimization_Converged-OPLS-2005>
0

> <r_mmod_RMS_Derivative-OPLS-2005>
0.460006862878799

$$$$
65
                    3D
 Structure written by MMmdl.
157165  0  0  1  0            999 V2000
  -30.5519  -14.9257   20.3427 C   0  0  0  0  0  0
  -30.4442  -12.5561   19.4729 C   0  0  0  0  0  0
  -29.5166  -12.4450   18.2412 C   0  0  0  0  0  0
  -28.0360  -12.2982   18.6566 C   0  0  0  0  0  0
  -27.6197  -13.2262   19.8291 C   0  0  2  0  0  0
  -28.6788  -13.2833   20.9466 C   0  0  0  0  0  0
  -25.2484  -13.8161   20.5763 C   0  0  0  0  0  0
  -24.1769  -13.0428   20.9247 C   0  0  0  0  0  0
  -24.6354  -11.6900   20.8795 C   0  0  0  0  0  0
  -23.9046  -10.4285   21.0429 C   0  0  0  0  0  0
  -24.3611   -9.4201   21.9198 C   0  0  0  0  0  0
  -23.6286   -8.2240   22.0762 C   0  0  0  0  0  0
  -22.4271   -8.0277   21.3550 C   0  0  0  0  0  0
  -21.9907   -9.0252   20.4658 C   0  0  0  0  0  0
  -22.7232  -10.2130   20.3066 C   0  0  0  0  0  0
  -21.6853   -6.0742   22.5281 C   0  0  0  0  0  0
  -21.4007   -6.5639   23.8216 C   0  0  0  0  0  0
  -21.3641   -5.6788   24.9175 C   0  0  0  0  0  0
  -21.6039   -4.3052   24.7222 C   0  0  0  0  0  0
  -21.8820   -3.8152   23.4340 C   0  0  0  0  0  0
  -21.9194   -4.6972   22.3403 C   0  0  0  0  0  0
  -22.7789  -13.5231   21.1861 C   0  0  0  0  0  0
  -22.1669   -4.2152   21.0982 F   0  0  0  0  0  0
  -21.5626   -3.4538   25.7739 F   0  0  0  0  0  0
  -29.9458  -13.6738   20.3134 N   0  0  0  0  0  0
  -26.2864  -12.9331   20.3306 N   0  0  0  0  0  0
  -25.9280  -11.6494   20.5807 N   0  0  0  0  0  0
  -22.0417  -12.8239   22.0403 N   0  0  0  0  0  0
  -25.4206  -15.1902   20.4229 N   0  0  0  0  0  0
  -31.7855  -14.9643   20.2817 O   0  0  0  0  0  0
  -21.6632   -6.8881   21.4240 O   0  0  0  0  0  0
  -22.3498  -14.5543   20.6685 O   0  0  0  0  0  0
  -24.6399  -31.8485   23.1921 C   0  0  0  0  0  0
  -25.9186  -32.4727   23.8304 C   0  0  1  0  0  0
  -27.2292  -27.1806   20.1294 C   0  0  0  0  0  0
  -25.5951  -33.8536   24.2230 N   0  0  0  0  0  0
  -23.4421  -30.4694   21.5365 C   0  0  2  0  0  0
  -24.8927  -28.9082   20.1045 C   0  0  0  0  0  0
  -22.7560  -29.4559   22.4863 C   0  0  0  0  0  0
  -18.0298  -28.1401   22.8484 C   0  0  0  0  0  0
  -24.1486  -36.7272   23.2643 C   0  0  0  0  0  0
  -25.9959  -30.7360   21.3850 C   0  0  0  0  0  0
  -26.0672  -29.3521   20.7237 C   0  0  0  0  0  0
  -27.2316  -28.5018   20.7252 C   0  0  0  0  0  0
  -26.0186  -26.8244   19.4877 C   0  0  0  0  0  0
  -24.8803  -27.6563   19.4751 C   0  0  0  0  0  0
  -23.6660  -29.8029   20.1535 C   0  0  0  0  0  0
  -25.4121  -36.3058   24.0322 C   0  0  1  0  0  0
  -20.5912  -28.3717   23.1255 C   0  0  2  0  0  0
  -20.6785  -26.9424   22.5406 C   0  0  0  0  0  0
  -19.5752  -26.6386   21.5218 C   0  0  0  0  0  0
  -18.1934  -26.7943   22.1630 C   0  0  0  0  0  0
  -19.1554  -28.8877   23.2863 C   0  0  0  0  0  0
  -18.9470  -30.1477   23.8886 C   0  0  0  0  0  0
  -17.6465  -30.6597   24.0566 C   0  0  0  0  0  0
  -25.9068  -34.9432   23.5079 C   0  0  0  0  0  0
  -16.5359  -29.9093   23.6330 C   0  0  0  0  0  0
  -16.7285  -28.6509   23.0359 C   0  0  0  0  0  0
  -26.4524  -31.6575   25.0733 C   0  0  0  0  0  0
  -25.3713  -31.3744   26.1428 C   0  0  0  0  0  0
  -27.0387  -30.2976   24.6285 C   0  0  0  0  0  0
  -27.6062  -32.4336   25.7532 C   0  0  0  0  0  0
  -27.5580  -37.1804   24.8465 C   0  0  0  0  0  0
  -21.4252  -29.3051   22.3629 N   0  0  0  0  0  0
  -26.4288  -37.3766   23.9405 N   0  0  0  0  0  0
  -24.7121  -31.0380   22.0935 N   0  0  0  0  0  0
  -23.4226  -28.8086   23.2978 O   0  0  0  0  0  0
  -28.3063  -26.2361   20.2455 O   0  0  0  0  0  0
  -26.5645  -34.8920   22.4653 O   0  0  0  0  0  0
  -23.5530  -32.1340   23.7159 O   0  0  0  0  0  0
  -27.8580  -21.1470   20.1975 C   0  0  0  0  0  0
  -29.1369  -20.4916   20.1865 C   0  0  0  0  0  0
  -30.0032  -22.7451   20.1067 C   0  0  0  0  0  0
  -28.7093  -23.3955   20.0466 C   0  0  0  0  0  0
  -32.1114  -23.4425   21.3393 C   0  0  0  0  0  0
  -29.0928  -16.1558   18.8279 C   0  0  0  0  0  0
  -29.2983  -18.9047   19.8076 C   0  0  0  0  0  0
  -31.2965  -23.5439   20.0406 C   0  0  0  0  0  0
  -28.4030  -24.9087   19.4799 C   0  0  0  0  0  0
  -29.9536  -17.6007   20.6358 C   0  0  0  0  0  0
  -27.6536  -22.5190   20.1226 N   0  0  0  0  0  0
  -30.2003  -21.3607   20.1563 N   0  0  0  0  0  0
  -29.7806  -16.1111   20.1286 N   0  0  0  0  0  0
  -31.4727  -12.7264   19.1471 H   0  0  0  0  0  0
  -30.4524  -11.6231   20.0391 H   0  0  0  0  0  0
  -29.8107  -11.5865   17.6375 H   0  0  0  0  0  0
  -29.6488  -13.3037   17.5856 H   0  0  0  0  0  0
  -27.8850  -11.2584   18.9457 H   0  0  0  0  0  0
  -27.3849  -12.4651   17.7980 H   0  0  0  0  0  0
  -27.5435  -14.2145   19.3969 H   0  0  0  0  0  0
  -28.7707  -12.3215   21.4532 H   0  0  0  0  0  0
  -28.3932  -14.0166   21.7028 H   0  0  0  0  0  0
  -25.2760   -9.5679   22.4770 H   0  0  0  0  0  0
  -23.9995   -7.4632   22.7482 H   0  0  0  0  0  0
  -21.0842   -8.8782   19.8965 H   0  0  0  0  0  0
  -22.3708  -10.9673   19.6176 H   0  0  0  0  0  0
  -21.1997   -7.6147   23.9716 H   0  0  0  0  0  0
  -21.1456   -6.0521   25.9074 H   0  0  0  0  0  0
  -22.0615   -2.7612   23.2843 H   0  0  0  0  0  0
  -22.4029  -11.9907   22.4812 H   0  0  0  0  0  0
  -21.1021  -13.1260   22.2577 H   0  0  0  0  0  0
  -24.6612  -15.8499   20.5524 H   0  0  0  0  0  0
  -26.2879  -15.6308   20.1455 H   0  0  0  0  0  0
  -26.7260  -32.5354   23.1044 H   0  0  0  0  0  0
  -25.0093  -33.9667   25.0374 H   0  0  0  0  0  0
  -22.7423  -31.2937   21.3862 H   0  0  0  0  0  0
  -23.3754  -35.9595   23.3300 H   0  0  0  0  0  0
  -24.3562  -36.8912   22.2056 H   0  0  0  0  0  0
  -23.7231  -37.6466   23.6682 H   0  0  0  0  0  0
  -26.1454  -31.4937   20.6142 H   0  0  0  0  0  0
  -26.8695  -30.7870   22.0241 H   0  0  0  0  0  0
  -28.1270  -28.8352   21.2319 H   0  0  0  0  0  0
  -25.8806  -25.8604   19.0283 H   0  0  0  0  0  0
  -23.9793  -27.3099   18.9876 H   0  0  0  0  0  0
  -23.7930  -30.5796   19.3986 H   0  0  0  0  0  0
  -22.7842  -29.2388   19.8459 H   0  0  0  0  0  0
  -25.1305  -36.1896   25.0815 H   0  0  0  0  0  0
  -21.0002  -28.3296   24.1378 H   0  0  0  0  0  0
  -20.5677  -26.2326   23.3614 H   0  0  0  0  0  0
  -21.6651  -26.7434   22.1201 H   0  0  0  0  0  0
  -19.6909  -25.6287   21.1267 H   0  0  0  0  0  0
  -19.6696  -27.3180   20.6734 H   0  0  0  0  0  0
  -17.4203  -26.6691   21.4038 H   0  0  0  0  0  0
  -18.0337  -26.0094   22.9034 H   0  0  0  0  0  0
  -19.7945  -30.7300   24.2256 H   0  0  0  0  0  0
  -17.5016  -31.6274   24.5173 H   0  0  0  0  0  0
  -15.5359  -30.2994   23.7658 H   0  0  0  0  0  0
  -15.8685  -28.0823   22.7090 H   0  0  0  0  0  0
  -24.5904  -30.7088   25.7738 H   0  0  0  0  0  0
  -24.8881  -32.2916   26.4807 H   0  0  0  0  0  0
  -25.7988  -30.8948   27.0241 H   0  0  0  0  0  0
  -26.2997  -29.6718   24.1272 H   0  0  0  0  0  0
  -27.3994  -29.7262   25.4846 H   0  0  0  0  0  0
  -27.8908  -30.4231   23.9603 H   0  0  0  0  0  0
  -27.2661  -33.3660   26.2055 H   0  0  0  0  0  0
  -28.3908  -32.6863   25.0387 H   0  0  0  0  0  0
  -28.0691  -31.8495   26.5496 H   0  0  0  0  0  0
  -28.2595  -38.0106   24.7508 H   0  0  0  0  0  0
  -28.1082  -36.2633   24.6297 H   0  0  0  0  0  0
  -27.2297  -37.1461   25.8871 H   0  0  0  0  0  0
  -20.9444  -29.8775   21.6829 H   0  0  0  0  0  0
  -26.0161  -38.2839   24.1404 H   0  0  0  0  0  0
  -26.9554  -20.5548   20.1505 H   0  0  0  0  0  0
  -33.0334  -24.0201   21.2679 H   0  0  0  0  0  0
  -32.3825  -22.4081   21.5572 H   0  0  0  0  0  0
  -31.5434  -23.8225   22.1887 H   0  0  0  0  0  0
  -28.0458  -16.4341   18.9455 H   0  0  0  0  0  0
  -29.5692  -16.8630   18.1518 H   0  0  0  0  0  0
  -29.1179  -15.2232   18.2753 H   0  0  0  0  0  0
  -29.8122  -18.9434   18.8472 H   0  0  0  0  0  0
  -28.2765  -18.6214   19.5609 H   0  0  0  0  0  0
  -31.0896  -24.5942   19.8407 H   0  0  0  0  0  0
  -31.8899  -23.1824   19.1992 H   0  0  0  0  0  0
  -27.5616  -24.7849   18.8075 H   0  0  0  0  0  0
  -29.2089  -25.1018   18.7734 H   0  0  0  0  0  0
  -31.0226  -17.7779   20.7573 H   0  0  0  0  0  0
  -29.5440  -17.6204   21.6466 H   0  0  0  0  0  0
  1 25  1  0  0  0
  1 30  2  0  0  0
  1 83  1  0  0  0
  2  3  1  0  0  0
  2 25  1  0  0  0
  2 84  1  0  0  0
  2 85  1  0  0  0
  3  4  1  0  0  0
  3 86  1  0  0  0
  3 87  1  0  0  0
  4  5  1  0  0  0
  4 88  1  0  0  0
  4 89  1  0  0  0
  5  6  1  0  0  0
  5 26  1  0  0  0
  5 90  1  0  0  0
  6 25  1  0  0  0
  6 91  1  0  0  0
  6 92  1  0  0  0
  7  8  2  0  0  0
  7 26  1  0  0  0
  7 29  1  0  0  0
  8  9  1  0  0  0
  8 22  1  0  0  0
  9 10  1  0  0  0
  9 27  2  0  0  0
 10 11  2  0  0  0
 10 15  1  0  0  0
 11 12  1  0  0  0
 11 93  1  0  0  0
 12 13  2  0  0  0
 12 94  1  0  0  0
 13 14  1  0  0  0
 13 31  1  0  0  0
 14 15  2  0  0  0
 14 95  1  0  0  0
 15 96  1  0  0  0
 16 17  2  0  0  0
 16 21  1  0  0  0
 16 31  1  0  0  0
 17 18  1  0  0  0
 17 97  1  0  0  0
 18 19  2  0  0  0
 18 98  1  0  0  0
 19 20  1  0  0  0
 19 24  1  0  0  0
 20 21  2  0  0  0
 20 99  1  0  0  0
 21 23  1  0  0  0
 22 28  1  0  0  0
 22 32  2  0  0  0
 26 27  1  0  0  0
 28100  1  0  0  0
 28101  1  0  0  0
 29102  1  0  0  0
 29103  1  0  0  0
 33 34  1  0  0  0
 33 66  1  0  0  0
 33 70  2  0  0  0
 34 36  1  0  0  0
 34 59  1  0  0  0
 34104  1  0  0  0
 35 44  2  0  0  0
 35 45  1  0  0  0
 35 68  1  0  0  0
 36 56  1  0  0  0
 36105  1  0  0  0
 37 39  1  0  0  0
 37 47  1  0  0  0
 37 66  1  0  0  0
 37106  1  0  0  0
 38 43  2  0  0  0
 38 46  1  0  0  0
 38 47  1  0  0  0
 39 64  1  0  0  0
 39 67  2  0  0  0
 40 52  1  0  0  0
 40 53  2  0  0  0
 40 58  1  0  0  0
 41107  1  0  0  0
 41108  1  0  0  0
 41109  1  0  0  0
 41 48  1  0  0  0
 42 43  1  0  0  0
 42 66  1  0  0  0
 42110  1  0  0  0
 42111  1  0  0  0
 43 44  1  0  0  0
 44112  1  0  0  0
 45 46  2  0  0  0
 45113  1  0  0  0
 46114  1  0  0  0
 47115  1  0  0  0
 47116  1  0  0  0
 48 56  1  0  0  0
 48 65  1  0  0  0
 48117  1  0  0  0
 49 50  1  0  0  0
 49 53  1  0  0  0
 49 64  1  0  0  0
 49118  1  0  0  0
 50 51  1  0  0  0
 50119  1  0  0  0
 50120  1  0  0  0
 51 52  1  0  0  0
 51121  1  0  0  0
 51122  1  0  0  0
 52123  1  0  0  0
 52124  1  0  0  0
 53 54  1  0  0  0
 54 55  2  0  0  0
 54125  1  0  0  0
 55 57  1  0  0  0
 55126  1  0  0  0
 56 69  2  0  0  0
 57 58  2  0  0  0
 57127  1  0  0  0
 58128  1  0  0  0
 59 60  1  0  0  0
 59 61  1  0  0  0
 59 62  1  0  0  0
 60129  1  0  0  0
 60130  1  0  0  0
 60131  1  0  0  0
 61132  1  0  0  0
 61133  1  0  0  0
 61134  1  0  0  0
 62135  1  0  0  0
 62136  1  0  0  0
 62137  1  0  0  0
 63 65  1  0  0  0
 63138  1  0  0  0
 63139  1  0  0  0
 63140  1  0  0  0
 64141  1  0  0  0
 65142  1  0  0  0
 68 79  1  0  0  0
 71 72  2  0  0  0
 71 81  1  0  0  0
 71143  1  0  0  0
 72 77  1  0  0  0
 72 82  1  0  0  0
 73 74  1  0  0  0
 73 78  1  0  0  0
 73 82  2  0  0  0
 74 79  1  0  0  0
 74 81  2  0  0  0
 75 78  1  0  0  0
 75144  1  0  0  0
 75145  1  0  0  0
 75146  1  0  0  0
 76 83  1  0  0  0
 76147  1  0  0  0
 76148  1  0  0  0
 76149  1  0  0  0
 77 80  1  0  0  0
 77150  1  0  0  0
 77151  1  0  0  0
 78152  1  0  0  0
 78153  1  0  0  0
 79154  1  0  0  0
 79155  1  0  0  0
 80 83  1  0  0  0
 80156  1  0  0  0
 80157  1  0  0  0
M  ISO  4   1 100  68 101  79 101  83 100
M  END
> <chiral flag>
0

> <version>
0

> <s_m_source_file>
/data/baiqing/PycharmProjects/Reinvent-master-3.2/result/LINK_invent/BTK/process_docking_weight1_custom_sum_contain_oxygen_bond_distance_aromatic_linkinvent_7_9_3/rearranged_h_0061.sdf

> <i_m_source_file_index>
63

> <r_mmod_Potential_Energy-OPLS-2005>
703.945251464844

> <r_mmod_Stretch_Energy-OPLS-2005>
218.688522338867

> <r_mmod_Bend_Energy-OPLS-2005>
267.583648681641

> <r_mmod_Torsional_Energy-OPLS-2005>
310.013580322266

> <r_mmod_Improper_Torsional_Energy-OPLS-2005>
15.5214033126831

> <r_mmod_Van_der_Waal_Energy-OPLS-2005>
150.506332397461

> <r_mmod_Electrostatic_Energy-OPLS-2005>
-215.441970825195

> <r_mmod_Solvation_Energy-OPLS-2005>
-219.224746704102

> <b_mmod_Minimization_Converged-OPLS-2005>
0

> <r_mmod_RMS_Derivative-OPLS-2005>
2.1624116897583

$$$$
66
                    3D
 Structure written by MMmdl.
148156  0  0  1  0            999 V2000
  -30.4688  -15.2176   20.3731 C   0  0  0  0  0  0
  -30.4346  -12.7753   19.5219 C   0  0  0  0  0  0
  -29.5316  -12.5649   18.2820 C   0  0  0  0  0  0
  -28.0767  -12.3031   18.7079 C   0  0  0  0  0  0
  -27.6121  -13.2733   19.8232 C   0  0  2  0  0  0
  -28.6475  -13.4336   20.9562 C   0  0  0  0  0  0
  -25.2390  -13.8249   20.5751 C   0  0  0  0  0  0
  -24.1741  -13.0437   20.9260 C   0  0  0  0  0  0
  -24.6397  -11.6933   20.8764 C   0  0  0  0  0  0
  -23.9091  -10.4293   21.0406 C   0  0  0  0  0  0
  -24.3636   -9.4206   21.9183 C   0  0  0  0  0  0
  -23.6306   -8.2242   22.0752 C   0  0  0  0  0  0
  -22.4284   -8.0284   21.3546 C   0  0  0  0  0  0
  -21.9924   -9.0261   20.4649 C   0  0  0  0  0  0
  -22.7258  -10.2136   20.3060 C   0  0  0  0  0  0
  -21.6856   -6.0739   22.5281 C   0  0  0  0  0  0
  -21.4017   -6.5643   23.8215 C   0  0  0  0  0  0
  -21.3659   -5.6794   24.9176 C   0  0  0  0  0  0
  -21.6043   -4.3057   24.7225 C   0  0  0  0  0  0
  -21.8817   -3.8151   23.4347 C   0  0  0  0  0  0
  -21.9195   -4.6968   22.3404 C   0  0  0  0  0  0
  -22.7760  -13.5190   21.1909 C   0  0  0  0  0  0
  -22.1662   -4.2154   21.0981 F   0  0  0  0  0  0
  -21.5626   -3.4539   25.7738 F   0  0  0  0  0  0
  -29.8841  -13.9240   20.3287 N   0  0  0  0  0  0
  -26.2817  -12.9521   20.3220 N   0  0  0  0  0  0
  -25.9330  -11.6629   20.5723 N   0  0  0  0  0  0
  -22.0419  -12.8173   22.0466 N   0  0  0  0  0  0
  -25.4021  -15.1983   20.4190 N   0  0  0  0  0  0
  -31.6915  -15.1950   20.1763 O   0  0  0  0  0  0
  -21.6644   -6.8884   21.4244 O   0  0  0  0  0  0
  -22.3436  -14.5489   20.6746 O   0  0  0  0  0  0
  -24.6612  -31.8267   23.1741 C   0  0  0  0  0  0
  -25.9305  -32.4604   23.8191 C   0  0  1  0  0  0
  -27.2123  -26.9489   20.1774 C   0  0  0  0  0  0
  -25.5977  -33.8417   24.2094 N   0  0  0  0  0  0
  -23.4741  -30.4411   21.5238 C   0  0  2  0  0  0
  -24.9266  -28.8369   20.1125 C   0  0  0  0  0  0
  -22.7659  -29.4461   22.4798 C   0  0  0  0  0  0
  -18.0321  -28.1408   22.8467 C   0  0  0  0  0  0
  -24.1494  -36.7213   23.2647 C   0  0  0  0  0  0
  -26.0437  -30.6400   21.4024 C   0  0  0  0  0  0
  -26.1119  -29.2331   20.7450 C   0  0  0  0  0  0
  -27.2516  -28.3105   20.7539 C   0  0  0  0  0  0
  -25.9978  -26.7080   19.4928 C   0  0  0  0  0  0
  -24.8940  -27.5938   19.4663 C   0  0  0  0  0  0
  -23.7121  -29.7613   20.1488 C   0  0  0  0  0  0
  -25.4135  -36.2977   24.0298 C   0  0  1  0  0  0
  -20.5945  -28.3752   23.1192 C   0  0  2  0  0  0
  -20.6799  -26.9436   22.5401 C   0  0  0  0  0  0
  -19.5770  -26.6378   21.5215 C   0  0  0  0  0  0
  -18.1955  -26.7939   22.1626 C   0  0  0  0  0  0
  -19.1582  -28.8900   23.2814 C   0  0  0  0  0  0
  -18.9492  -30.1494   23.8844 C   0  0  0  0  0  0
  -17.6485  -30.6596   24.0557 C   0  0  0  0  0  0
  -25.9094  -34.9357   23.5012 C   0  0  0  0  0  0
  -16.5375  -29.9083   23.6348 C   0  0  0  0  0  0
  -16.7305  -28.6505   23.0361 C   0  0  0  0  0  0
  -26.4552  -31.6543   25.0715 C   0  0  0  0  0  0
  -25.3678  -31.3820   26.1380 C   0  0  0  0  0  0
  -27.0428  -30.2898   24.6453 C   0  0  0  0  0  0
  -27.6049  -32.4347   25.7514 C   0  0  0  0  0  0
  -27.5564  -37.1778   24.8473 C   0  0  0  0  0  0
  -21.4330  -29.3041   22.3541 N   0  0  0  0  0  0
  -26.4288  -37.3704   23.9392 N   0  0  0  0  0  0
  -24.7477  -30.9952   22.0869 N   0  0  0  0  0  0
  -23.4218  -28.8026   23.3027 O   0  0  0  0  0  0
  -28.1960  -25.8313   20.2535 O   0  0  0  0  0  0
  -26.5703  -34.8886   22.4609 O   0  0  0  0  0  0
  -23.5687  -32.1225   23.6850 O   0  0  0  0  0  0
  -28.0245  -21.5221   19.4272 C   0  0  0  0  0  0
  -28.5270  -22.6740   20.1807 C   0  0  0  0  0  0
  -29.3950  -19.6721   20.3685 C   0  0  0  0  0  0
  -29.9057  -20.8241   21.1407 C   0  0  0  0  0  0
  -30.8783  -18.1675   18.8608 C   0  0  0  0  0  0
  -27.7805  -24.2546   20.1037 C   0  0  0  0  0  0
  -30.1534  -18.0991   20.2169 C   0  0  2  0  0  0
  -28.4220  -20.1536   19.4948 N   0  0  0  0  0  0
  -29.4879  -22.1950   21.0725 N   0  0  0  0  0  0
  -29.7368  -16.5037   20.4238 N   0  0  0  0  0  0
  -31.1997  -20.5420   22.2481 Cl  0  0  0  0  0  0
  -31.4569  -12.9653   19.1925 H   0  0  0  0  0  0
  -30.4864  -11.8659   20.1231 H   0  0  0  0  0  0
  -29.9008  -11.7347   17.6781 H   0  0  0  0  0  0
  -29.5744  -13.4512   17.6470 H   0  0  0  0  0  0
  -28.0209  -11.2762   19.0712 H   0  0  0  0  0  0
  -27.4100  -12.3602   17.8470 H   0  0  0  0  0  0
  -27.5325  -14.2444   19.3332 H   0  0  0  0  0  0
  -28.8048  -12.4953   21.4908 H   0  0  0  0  0  0
  -28.2961  -14.1569   21.6934 H   0  0  0  0  0  0
  -25.2777   -9.5681   22.4761 H   0  0  0  0  0  0
  -24.0015   -7.4632   22.7467 H   0  0  0  0  0  0
  -21.0854   -8.8786   19.8954 H   0  0  0  0  0  0
  -22.3716  -10.9680   19.6174 H   0  0  0  0  0  0
  -21.2011   -7.6151   23.9720 H   0  0  0  0  0  0
  -21.1481   -6.0523   25.9078 H   0  0  0  0  0  0
  -22.0596   -2.7614   23.2846 H   0  0  0  0  0  0
  -22.4054  -11.9850   22.4869 H   0  0  0  0  0  0
  -21.1033  -13.1184   22.2672 H   0  0  0  0  0  0
  -24.6306  -15.8466   20.5337 H   0  0  0  0  0  0
  -26.2394  -15.6416   20.0650 H   0  0  0  0  0  0
  -26.7380  -32.5148   23.0914 H   0  0  0  0  0  0
  -25.0074  -33.9499   25.0210 H   0  0  0  0  0  0
  -22.7859  -31.2725   21.3574 H   0  0  0  0  0  0
  -23.3745  -35.9558   23.3329 H   0  0  0  0  0  0
  -24.3554  -36.8834   22.2055 H   0  0  0  0  0  0
  -23.7275  -37.6421   23.6683 H   0  0  0  0  0  0
  -26.2227  -31.3833   20.6245 H   0  0  0  0  0  0
  -26.9040  -30.6945   22.0573 H   0  0  0  0  0  0
  -28.1470  -28.6107   21.2801 H   0  0  0  0  0  0
  -25.8508  -25.7661   18.9883 H   0  0  0  0  0  0
  -23.9940  -27.2851   18.9520 H   0  0  0  0  0  0
  -23.8647  -30.5314   19.3918 H   0  0  0  0  0  0
  -22.8220  -29.2145   19.8326 H   0  0  0  0  0  0
  -25.1340  -36.1781   25.0792 H   0  0  0  0  0  0
  -21.0032  -28.3355   24.1315 H   0  0  0  0  0  0
  -20.5682  -26.2368   23.3637 H   0  0  0  0  0  0
  -21.6665  -26.7413   22.1208 H   0  0  0  0  0  0
  -19.6928  -25.6275   21.1277 H   0  0  0  0  0  0
  -19.6707  -27.3162   20.6723 H   0  0  0  0  0  0
  -17.4222  -26.6675   21.4035 H   0  0  0  0  0  0
  -18.0358  -26.0095   22.9038 H   0  0  0  0  0  0
  -19.7966  -30.7331   24.2179 H   0  0  0  0  0  0
  -17.5035  -31.6271   24.5170 H   0  0  0  0  0  0
  -15.5373  -30.2967   23.7701 H   0  0  0  0  0  0
  -15.8706  -28.0811   22.7098 H   0  0  0  0  0  0
  -24.5858  -30.7166   25.7709 H   0  0  0  0  0  0
  -24.8869  -32.3035   26.4671 H   0  0  0  0  0  0
  -25.7904  -30.9082   27.0249 H   0  0  0  0  0  0
  -26.3091  -29.6591   24.1422 H   0  0  0  0  0  0
  -27.3901  -29.7255   25.5118 H   0  0  0  0  0  0
  -27.9064  -30.4060   23.9902 H   0  0  0  0  0  0
  -27.2617  -33.3686   26.1981 H   0  0  0  0  0  0
  -28.3918  -32.6848   25.0385 H   0  0  0  0  0  0
  -28.0652  -31.8547   26.5524 H   0  0  0  0  0  0
  -28.2614  -38.0040   24.7447 H   0  0  0  0  0  0
  -28.1026  -36.2562   24.6395 H   0  0  0  0  0  0
  -27.2267  -37.1546   25.8876 H   0  0  0  0  0  0
  -20.9581  -29.8723   21.6667 H   0  0  0  0  0  0
  -26.0138  -38.2774   24.1353 H   0  0  0  0  0  0
  -27.2242  -21.7019   18.7236 H   0  0  0  0  0  0
  -31.4724  -19.0785   18.7830 H   0  0  0  0  0  0
  -30.1602  -18.1753   18.0405 H   0  0  0  0  0  0
  -31.5586  -17.3332   18.6988 H   0  0  0  0  0  0
  -26.9340  -24.1525   20.7826 H   0  0  0  0  0  0
  -27.3373  -24.2155   19.1101 H   0  0  0  0  0  0
  -30.9449  -18.1693   20.9618 H   0  0  0  0  0  0
  -28.7455  -16.3768   20.5647 H   0  0  0  0  0  0
  1 25  1  0  0  0
  1 30  2  0  0  0
  1 80  1  0  0  0
  2  3  1  0  0  0
  2 25  1  0  0  0
  2 82  1  0  0  0
  2 83  1  0  0  0
  3  4  1  0  0  0
  3 84  1  0  0  0
  3 85  1  0  0  0
  4  5  1  0  0  0
  4 86  1  0  0  0
  4 87  1  0  0  0
  5  6  1  0  0  0
  5 26  1  0  0  0
  5 88  1  0  0  0
  6 25  1  0  0  0
  6 89  1  0  0  0
  6 90  1  0  0  0
  7  8  2  0  0  0
  7 26  1  0  0  0
  7 29  1  0  0  0
  8  9  1  0  0  0
  8 22  1  0  0  0
  9 10  1  0  0  0
  9 27  2  0  0  0
 10 11  2  0  0  0
 10 15  1  0  0  0
 11 12  1  0  0  0
 11 91  1  0  0  0
 12 13  2  0  0  0
 12 92  1  0  0  0
 13 14  1  0  0  0
 13 31  1  0  0  0
 14 15  2  0  0  0
 14 93  1  0  0  0
 15 94  1  0  0  0
 16 17  2  0  0  0
 16 21  1  0  0  0
 16 31  1  0  0  0
 17 18  1  0  0  0
 17 95  1  0  0  0
 18 19  2  0  0  0
 18 96  1  0  0  0
 19 20  1  0  0  0
 19 24  1  0  0  0
 20 21  2  0  0  0
 20 97  1  0  0  0
 21 23  1  0  0  0
 22 28  1  0  0  0
 22 32  2  0  0  0
 26 27  1  0  0  0
 28 98  1  0  0  0
 28 99  1  0  0  0
 29100  1  0  0  0
 29101  1  0  0  0
 33 34  1  0  0  0
 33 66  1  0  0  0
 33 70  2  0  0  0
 34 36  1  0  0  0
 34 59  1  0  0  0
 34102  1  0  0  0
 35 44  2  0  0  0
 35 45  1  0  0  0
 35 68  1  0  0  0
 36 56  1  0  0  0
 36103  1  0  0  0
 37 39  1  0  0  0
 37 47  1  0  0  0
 37 66  1  0  0  0
 37104  1  0  0  0
 38 43  2  0  0  0
 38 46  1  0  0  0
 38 47  1  0  0  0
 39 64  1  0  0  0
 39 67  2  0  0  0
 40 52  1  0  0  0
 40 53  2  0  0  0
 40 58  1  0  0  0
 41105  1  0  0  0
 41106  1  0  0  0
 41107  1  0  0  0
 41 48  1  0  0  0
 42 43  1  0  0  0
 42 66  1  0  0  0
 42108  1  0  0  0
 42109  1  0  0  0
 43 44  1  0  0  0
 44110  1  0  0  0
 45 46  2  0  0  0
 45111  1  0  0  0
 46112  1  0  0  0
 47113  1  0  0  0
 47114  1  0  0  0
 48 56  1  0  0  0
 48 65  1  0  0  0
 48115  1  0  0  0
 49 50  1  0  0  0
 49 53  1  0  0  0
 49 64  1  0  0  0
 49116  1  0  0  0
 50 51  1  0  0  0
 50117  1  0  0  0
 50118  1  0  0  0
 51 52  1  0  0  0
 51119  1  0  0  0
 51120  1  0  0  0
 52121  1  0  0  0
 52122  1  0  0  0
 53 54  1  0  0  0
 54 55  2  0  0  0
 54123  1  0  0  0
 55 57  1  0  0  0
 55124  1  0  0  0
 56 69  2  0  0  0
 57 58  2  0  0  0
 57125  1  0  0  0
 58126  1  0  0  0
 59 60  1  0  0  0
 59 61  1  0  0  0
 59 62  1  0  0  0
 60127  1  0  0  0
 60128  1  0  0  0
 60129  1  0  0  0
 61130  1  0  0  0
 61131  1  0  0  0
 61132  1  0  0  0
 62133  1  0  0  0
 62134  1  0  0  0
 62135  1  0  0  0
 63 65  1  0  0  0
 63136  1  0  0  0
 63137  1  0  0  0
 63138  1  0  0  0
 64139  1  0  0  0
 65140  1  0  0  0
 68 76  1  0  0  0
 71 72  2  0  0  0
 71 78  1  0  0  0
 71141  1  0  0  0
 72 76  1  0  0  0
 72 79  1  0  0  0
 73 74  1  0  0  0
 73 77  1  0  0  0
 73 78  2  0  0  0
 74 79  2  0  0  0
 74 81  1  0  0  0
 75142  1  0  0  0
 75143  1  0  0  0
 75144  1  0  0  0
 75 77  1  0  0  0
 76145  1  0  0  0
 76146  1  0  0  0
 77 80  1  0  0  0
 77147  1  0  0  0
 80148  1  0  0  0
M  ISO  4   1 100  68 101  76 101  80 100
M  END
> <chiral flag>
0

> <version>
0

> <s_m_source_file>
/data/baiqing/PycharmProjects/Reinvent-master-3.2/result/LINK_invent/BTK/process_docking_weight1_custom_sum_contain_oxygen_bond_distance_aromatic_linkinvent_7_9_3/rearranged_h_0061.sdf

> <i_m_source_file_index>
64

> <r_mmod_Potential_Energy-OPLS-2005>
1209.00390625

> <r_mmod_Stretch_Energy-OPLS-2005>
504.105072021484

> <r_mmod_Bend_Energy-OPLS-2005>
443.673583984375

> <r_mmod_Torsional_Energy-OPLS-2005>
208.224700927734

> <r_mmod_Improper_Torsional_Energy-OPLS-2005>
7.97643375396729

> <r_mmod_Van_der_Waal_Energy-OPLS-2005>
134.38752746582

> <r_mmod_Electrostatic_Energy-OPLS-2005>
-282.095306396484

> <r_mmod_Solvation_Energy-OPLS-2005>
-226.462936401367

> <b_mmod_Minimization_Converged-OPLS-2005>
0

> <r_mmod_RMS_Derivative-OPLS-2005>
0.640503406524658

$$$$
69
                    3D
 Structure written by MMmdl.
155163  0  0  1  0            999 V2000
  -30.4914  -15.0742   20.3823 C   0  0  0  0  0  0
  -30.4367  -12.6658   19.5283 C   0  0  0  0  0  0
  -29.5311  -12.5496   18.2783 C   0  0  0  0  0  0
  -28.0665  -12.3155   18.6898 C   0  0  0  0  0  0
  -27.6228  -13.2612   19.8360 C   0  0  2  0  0  0
  -28.6575  -13.3444   20.9798 C   0  0  0  0  0  0
  -25.2422  -13.8236   20.5713 C   0  0  0  0  0  0
  -24.1758  -13.0443   20.9231 C   0  0  0  0  0  0
  -24.6392  -11.6934   20.8748 C   0  0  0  0  0  0
  -23.9081  -10.4298   21.0398 C   0  0  0  0  0  0
  -24.3629   -9.4214   21.9176 C   0  0  0  0  0  0
  -23.6304   -8.2249   22.0750 C   0  0  0  0  0  0
  -22.4285   -8.0283   21.3544 C   0  0  0  0  0  0
  -21.9921   -9.0256   20.4645 C   0  0  0  0  0  0
  -22.7250  -10.2135   20.3050 C   0  0  0  0  0  0
  -21.6859   -6.0735   22.5277 C   0  0  0  0  0  0
  -21.4017   -6.5639   23.8210 C   0  0  0  0  0  0
  -21.3662   -5.6793   24.9173 C   0  0  0  0  0  0
  -21.6048   -4.3055   24.7222 C   0  0  0  0  0  0
  -21.8821   -3.8146   23.4343 C   0  0  0  0  0  0
  -21.9195   -4.6962   22.3399 C   0  0  0  0  0  0
  -22.7779  -13.5202   21.1890 C   0  0  0  0  0  0
  -22.1661   -4.2148   21.0977 F   0  0  0  0  0  0
  -21.5631   -3.4537   25.7732 F   0  0  0  0  0  0
  -29.9228  -13.7877   20.3818 N   0  0  0  0  0  0
  -26.2848  -12.9488   20.3225 N   0  0  0  0  0  0
  -25.9326  -11.6605   20.5720 N   0  0  0  0  0  0
  -22.0440  -12.8184   22.0449 N   0  0  0  0  0  0
  -25.4075  -15.1968   20.4137 N   0  0  0  0  0  0
  -31.6871  -15.1182   20.0672 O   0  0  0  0  0  0
  -21.6651   -6.8878   21.4239 O   0  0  0  0  0  0
  -22.3453  -14.5500   20.6727 O   0  0  0  0  0  0
  -24.6501  -31.8343   23.1784 C   0  0  0  0  0  0
  -25.9237  -32.4640   23.8209 C   0  0  1  0  0  0
  -27.2234  -27.0494   20.1594 C   0  0  0  0  0  0
  -25.5953  -33.8450   24.2125 N   0  0  0  0  0  0
  -23.4581  -30.4481   21.5249 C   0  0  2  0  0  0
  -24.9083  -28.8541   20.1053 C   0  0  0  0  0  0
  -22.7603  -29.4491   22.4825 C   0  0  0  0  0  0
  -18.0309  -28.1402   22.8478 C   0  0  0  0  0  0
  -24.1492  -36.7232   23.2646 C   0  0  0  0  0  0
  -26.0172  -30.6796   21.3880 C   0  0  0  0  0  0
  -26.0849  -29.2821   20.7297 C   0  0  0  0  0  0
  -27.2342  -28.3956   20.7370 C   0  0  0  0  0  0
  -26.0154  -26.7342   19.5015 C   0  0  0  0  0  0
  -24.8912  -27.5976   19.4751 C   0  0  0  0  0  0
  -23.6883  -29.7671   20.1471 C   0  0  0  0  0  0
  -25.4129  -36.2999   24.0308 C   0  0  1  0  0  0
  -20.5927  -28.3731   23.1223 C   0  0  2  0  0  0
  -20.6789  -26.9426   22.5410 C   0  0  0  0  0  0
  -19.5764  -26.6379   21.5219 C   0  0  0  0  0  0
  -18.1946  -26.7939   22.1628 C   0  0  0  0  0  0
  -19.1568  -28.8886   23.2840 C   0  0  0  0  0  0
  -18.9482  -30.1480   23.8870 C   0  0  0  0  0  0
  -17.6478  -30.6596   24.0558 C   0  0  0  0  0  0
  -25.9086  -34.9378   23.5034 C   0  0  0  0  0  0
  -16.5367  -29.9088   23.6339 C   0  0  0  0  0  0
  -16.7293  -28.6506   23.0360 C   0  0  0  0  0  0
  -26.4534  -31.6547   25.0693 C   0  0  0  0  0  0
  -25.3700  -31.3763   26.1377 C   0  0  0  0  0  0
  -27.0413  -30.2932   24.6332 C   0  0  0  0  0  0
  -27.6049  -32.4333   25.7486 C   0  0  0  0  0  0
  -27.5572  -37.1772   24.8465 C   0  0  0  0  0  0
  -21.4284  -29.3037   22.3580 N   0  0  0  0  0  0
  -26.4283  -37.3723   23.9408 N   0  0  0  0  0  0
  -24.7289  -31.0118   22.0851 N   0  0  0  0  0  0
  -23.4207  -28.8062   23.3021 O   0  0  0  0  0  0
  -28.2983  -26.0693   20.3009 O   0  0  0  0  0  0
  -26.5688  -34.8895   22.4625 O   0  0  0  0  0  0
  -23.5602  -32.1258   23.6957 O   0  0  0  0  0  0
  -30.1376  -21.2981   21.0885 C   0  0  0  0  0  0
  -29.5679  -19.3282   20.3926 C   0  0  0  0  0  0
  -29.2477  -17.6482   18.4343 C   0  0  0  0  0  0
  -28.2690  -24.5330   18.3020 C   0  0  0  0  0  0
  -30.1076  -24.6205   19.9416 C   0  0  0  0  0  0
  -28.1644  -23.0035   20.4471 C   0  0  0  0  0  0
  -29.8441  -17.7543   19.8474 C   0  0  2  0  0  0
  -28.5757  -24.5654   19.8100 C   0  0  0  0  0  0
  -30.5376  -19.9984   21.1042 N   0  0  0  0  0  0
  -28.6007  -20.2697   20.0015 N   0  0  0  0  0  0
  -28.9999  -21.5997   20.4380 N   0  0  0  0  0  0
  -29.7158  -16.2890   20.5127 N   0  0  0  0  0  0
  -31.4693  -12.8285   19.2176 H   0  0  0  0  0  0
  -30.4437  -11.7286   20.0875 H   0  0  0  0  0  0
  -29.8746  -11.7397   17.6332 H   0  0  0  0  0  0
  -29.6039  -13.4645   17.6884 H   0  0  0  0  0  0
  -27.9804  -11.2779   19.0156 H   0  0  0  0  0  0
  -27.4065  -12.4208   17.8281 H   0  0  0  0  0  0
  -27.5693  -14.2524   19.3845 H   0  0  0  0  0  0
  -28.7694  -12.3837   21.4851 H   0  0  0  0  0  0
  -28.3310  -14.0580   21.7377 H   0  0  0  0  0  0
  -25.2772   -9.5691   22.4752 H   0  0  0  0  0  0
  -24.0015   -7.4643   22.7469 H   0  0  0  0  0  0
  -21.0854   -8.8771   19.8950 H   0  0  0  0  0  0
  -22.3702  -10.9672   19.6160 H   0  0  0  0  0  0
  -21.2007   -7.6147   23.9710 H   0  0  0  0  0  0
  -21.1484   -6.0523   25.9076 H   0  0  0  0  0  0
  -22.0596   -2.7607   23.2845 H   0  0  0  0  0  0
  -22.4074  -11.9857   22.4843 H   0  0  0  0  0  0
  -21.1048  -13.1184   22.2644 H   0  0  0  0  0  0
  -24.6355  -15.8458   20.5205 H   0  0  0  0  0  0
  -26.2450  -15.6365   20.0556 H   0  0  0  0  0  0
  -26.7298  -32.5213   23.0924 H   0  0  0  0  0  0
  -25.0057  -33.9549   25.0244 H   0  0  0  0  0  0
  -22.7646  -31.2758   21.3625 H   0  0  0  0  0  0
  -23.3762  -35.9554   23.3287 H   0  0  0  0  0  0
  -24.3571  -36.8893   22.2064 H   0  0  0  0  0  0
  -23.7241  -37.6415   23.6707 H   0  0  0  0  0  0
  -26.1823  -31.4289   20.6129 H   0  0  0  0  0  0
  -26.8836  -30.7324   22.0356 H   0  0  0  0  0  0
  -28.1276  -28.7178   21.2530 H   0  0  0  0  0  0
  -25.8948  -25.7643   19.0486 H   0  0  0  0  0  0
  -23.9891  -27.2615   18.9824 H   0  0  0  0  0  0
  -23.8305  -30.5374   19.3884 H   0  0  0  0  0  0
  -22.8011  -29.2126   19.8368 H   0  0  0  0  0  0
  -25.1323  -36.1810   25.0799 H   0  0  0  0  0  0
  -21.0018  -28.3331   24.1345 H   0  0  0  0  0  0
  -20.5680  -26.2348   23.3639 H   0  0  0  0  0  0
  -21.6653  -26.7422   22.1208 H   0  0  0  0  0  0
  -19.6924  -25.6282   21.1268 H   0  0  0  0  0  0
  -19.6704  -27.3174   20.6737 H   0  0  0  0  0  0
  -17.4217  -26.6686   21.4029 H   0  0  0  0  0  0
  -18.0339  -26.0087   22.9030 H   0  0  0  0  0  0
  -19.7957  -30.7302   24.2229 H   0  0  0  0  0  0
  -17.5029  -31.6275   24.5162 H   0  0  0  0  0  0
  -15.5366  -30.2979   23.7678 H   0  0  0  0  0  0
  -15.8694  -28.0811   22.7095 H   0  0  0  0  0  0
  -24.5882  -30.7108   25.7693 H   0  0  0  0  0  0
  -24.8887  -32.2955   26.4726 H   0  0  0  0  0  0
  -25.7964  -30.8980   27.0203 H   0  0  0  0  0  0
  -26.3044  -29.6634   24.1332 H   0  0  0  0  0  0
  -27.3990  -29.7258   25.4934 H   0  0  0  0  0  0
  -27.8967  -30.4149   23.9684 H   0  0  0  0  0  0
  -27.2628  -33.3660   26.1980 H   0  0  0  0  0  0
  -28.3902  -32.6850   25.0347 H   0  0  0  0  0  0
  -28.0667  -31.8515   26.5471 H   0  0  0  0  0  0
  -28.2576  -38.0081   24.7510 H   0  0  0  0  0  0
  -28.1083  -36.2608   24.6295 H   0  0  0  0  0  0
  -27.2289  -37.1417   25.8868 H   0  0  0  0  0  0
  -20.9514  -29.8726   21.6725 H   0  0  0  0  0  0
  -26.0140  -38.2786   24.1417 H   0  0  0  0  0  0
  -30.6904  -22.0639   21.6159 H   0  0  0  0  0  0
  -29.5973  -18.4643   17.8008 H   0  0  0  0  0  0
  -28.1592  -17.7044   18.4695 H   0  0  0  0  0  0
  -29.5198  -16.7147   17.9422 H   0  0  0  0  0  0
  -28.7786  -23.6996   17.8169 H   0  0  0  0  0  0
  -28.5905  -25.4487   17.8041 H   0  0  0  0  0  0
  -27.2086  -24.3953   18.1031 H   0  0  0  0  0  0
  -30.5875  -23.7485   19.4974 H   0  0  0  0  0  0
  -30.4058  -24.6666   20.9893 H   0  0  0  0  0  0
  -30.5236  -25.4988   19.4457 H   0  0  0  0  0  0
  -27.1675  -22.7627   20.0773 H   0  0  0  0  0  0
  -27.9969  -23.1913   21.5074 H   0  0  0  0  0  0
  -30.9208  -17.7737   19.6731 H   0  0  0  0  0  0
  -28.7947  -16.1243   20.8880 H   0  0  0  0  0  0
  1 25  1  0  0  0
  1 30  2  0  0  0
  1 82  1  0  0  0
  2  3  1  0  0  0
  2 25  1  0  0  0
  2 83  1  0  0  0
  2 84  1  0  0  0
  3  4  1  0  0  0
  3 85  1  0  0  0
  3 86  1  0  0  0
  4  5  1  0  0  0
  4 87  1  0  0  0
  4 88  1  0  0  0
  5  6  1  0  0  0
  5 26  1  0  0  0
  5 89  1  0  0  0
  6 25  1  0  0  0
  6 90  1  0  0  0
  6 91  1  0  0  0
  7  8  2  0  0  0
  7 26  1  0  0  0
  7 29  1  0  0  0
  8  9  1  0  0  0
  8 22  1  0  0  0
  9 10  1  0  0  0
  9 27  2  0  0  0
 10 11  2  0  0  0
 10 15  1  0  0  0
 11 12  1  0  0  0
 11 92  1  0  0  0
 12 13  2  0  0  0
 12 93  1  0  0  0
 13 14  1  0  0  0
 13 31  1  0  0  0
 14 15  2  0  0  0
 14 94  1  0  0  0
 15 95  1  0  0  0
 16 17  2  0  0  0
 16 21  1  0  0  0
 16 31  1  0  0  0
 17 18  1  0  0  0
 17 96  1  0  0  0
 18 19  2  0  0  0
 18 97  1  0  0  0
 19 20  1  0  0  0
 19 24  1  0  0  0
 20 21  2  0  0  0
 20 98  1  0  0  0
 21 23  1  0  0  0
 22 28  1  0  0  0
 22 32  2  0  0  0
 26 27  1  0  0  0
 28 99  1  0  0  0
 28100  1  0  0  0
 29101  1  0  0  0
 29102  1  0  0  0
 33 34  1  0  0  0
 33 66  1  0  0  0
 33 70  2  0  0  0
 34 36  1  0  0  0
 34 59  1  0  0  0
 34103  1  0  0  0
 35 44  2  0  0  0
 35 45  1  0  0  0
 35 68  1  0  0  0
 36 56  1  0  0  0
 36104  1  0  0  0
 37 39  1  0  0  0
 37 47  1  0  0  0
 37 66  1  0  0  0
 37105  1  0  0  0
 38 43  2  0  0  0
 38 46  1  0  0  0
 38 47  1  0  0  0
 39 64  1  0  0  0
 39 67  2  0  0  0
 40 52  1  0  0  0
 40 53  2  0  0  0
 40 58  1  0  0  0
 41106  1  0  0  0
 41107  1  0  0  0
 41108  1  0  0  0
 41 48  1  0  0  0
 42 43  1  0  0  0
 42 66  1  0  0  0
 42109  1  0  0  0
 42110  1  0  0  0
 43 44  1  0  0  0
 44111  1  0  0  0
 45 46  2  0  0  0
 45112  1  0  0  0
 46113  1  0  0  0
 47114  1  0  0  0
 47115  1  0  0  0
 48 56  1  0  0  0
 48 65  1  0  0  0
 48116  1  0  0  0
 49 50  1  0  0  0
 49 53  1  0  0  0
 49 64  1  0  0  0
 49117  1  0  0  0
 50 51  1  0  0  0
 50118  1  0  0  0
 50119  1  0  0  0
 51 52  1  0  0  0
 51120  1  0  0  0
 51121  1  0  0  0
 52122  1  0  0  0
 52123  1  0  0  0
 53 54  1  0  0  0
 54 55  2  0  0  0
 54124  1  0  0  0
 55 57  1  0  0  0
 55125  1  0  0  0
 56 69  2  0  0  0
 57 58  2  0  0  0
 57126  1  0  0  0
 58127  1  0  0  0
 59 60  1  0  0  0
 59 61  1  0  0  0
 59 62  1  0  0  0
 60128  1  0  0  0
 60129  1  0  0  0
 60130  1  0  0  0
 61131  1  0  0  0
 61132  1  0  0  0
 61133  1  0  0  0
 62134  1  0  0  0
 62135  1  0  0  0
 62136  1  0  0  0
 63 65  1  0  0  0
 63137  1  0  0  0
 63138  1  0  0  0
 63139  1  0  0  0
 64140  1  0  0  0
 65141  1  0  0  0
 68 78  1  0  0  0
 71 79  2  0  0  0
 71 81  1  0  0  0
 71142  1  0  0  0
 72 77  1  0  0  0
 72 79  1  0  0  0
 72 80  2  0  0  0
 73143  1  0  0  0
 73144  1  0  0  0
 73145  1  0  0  0
 73 77  1  0  0  0
 74146  1  0  0  0
 74147  1  0  0  0
 74148  1  0  0  0
 74 78  1  0  0  0
 75 78  1  0  0  0
 75149  1  0  0  0
 75150  1  0  0  0
 75151  1  0  0  0
 76 78  1  0  0  0
 76 81  1  0  0  0
 76152  1  0  0  0
 76153  1  0  0  0
 77 82  1  0  0  0
 77154  1  0  0  0
 80 81  1  0  0  0
 82155  1  0  0  0
M  ISO  4   1 100  68 101  78 101  82 100
M  END
> <chiral flag>
0

> <version>
0

> <s_m_source_file>
/data/baiqing/PycharmProjects/Reinvent-master-3.2/result/LINK_invent/BTK/process_docking_weight1_custom_sum_contain_oxygen_bond_distance_aromatic_linkinvent_7_9_3/rearranged_h_0061.sdf

> <i_m_source_file_index>
65

> <r_mmod_Potential_Energy-OPLS-2005>
706.44970703125

> <r_mmod_Stretch_Energy-OPLS-2005>
378.705688476562

> <r_mmod_Bend_Energy-OPLS-2005>
406.047546386719

> <r_mmod_Torsional_Energy-OPLS-2005>
222.383178710938

> <r_mmod_Improper_Torsional_Energy-OPLS-2005>
9.69235801696777

> <r_mmod_Van_der_Waal_Energy-OPLS-2005>
103.781288146973

> <r_mmod_Electrostatic_Energy-OPLS-2005>
-460.225616455078

> <r_mmod_Solvation_Energy-OPLS-2005>
-234.625137329102

> <b_mmod_Minimization_Converged-OPLS-2005>
0

> <r_mmod_RMS_Derivative-OPLS-2005>
0.712522745132446

$$$$
70
                    3D
 Structure written by MMmdl.
158166  0  0  1  0            999 V2000
  -30.5351  -14.9911   20.4043 C   0  0  0  0  0  0
  -30.4464  -12.6201   19.4786 C   0  0  0  0  0  0
  -29.5214  -12.5210   18.2446 C   0  0  0  0  0  0
  -28.0567  -12.3054   18.6750 C   0  0  0  0  0  0
  -27.6272  -13.2517   19.8273 C   0  0  2  0  0  0
  -28.6766  -13.3085   20.9553 C   0  0  0  0  0  0
  -25.2471  -13.8219   20.5724 C   0  0  0  0  0  0
  -24.1787  -13.0428   20.9237 C   0  0  0  0  0  0
  -24.6419  -11.6922   20.8754 C   0  0  0  0  0  0
  -23.9105  -10.4288   21.0410 C   0  0  0  0  0  0
  -24.3652   -9.4201   21.9184 C   0  0  0  0  0  0
  -23.6315   -8.2246   22.0756 C   0  0  0  0  0  0
  -22.4291   -8.0297   21.3552 C   0  0  0  0  0  0
  -21.9933   -9.0273   20.4655 C   0  0  0  0  0  0
  -22.7275  -10.2142   20.3060 C   0  0  0  0  0  0
  -21.6850   -6.0749   22.5279 C   0  0  0  0  0  0
  -21.4018   -6.5646   23.8218 C   0  0  0  0  0  0
  -21.3656   -5.6791   24.9177 C   0  0  0  0  0  0
  -21.6044   -4.3056   24.7222 C   0  0  0  0  0  0
  -21.8815   -3.8155   23.4340 C   0  0  0  0  0  0
  -21.9197   -4.6978   22.3398 C   0  0  0  0  0  0
  -22.7802  -13.5200   21.1884 C   0  0  0  0  0  0
  -22.1659   -4.2159   21.0977 F   0  0  0  0  0  0
  -21.5630   -3.4537   25.7733 F   0  0  0  0  0  0
  -29.9389  -13.7305   20.3337 N   0  0  0  0  0  0
  -26.2895  -12.9460   20.3230 N   0  0  0  0  0  0
  -25.9350  -11.6584   20.5726 N   0  0  0  0  0  0
  -22.0454  -12.8195   22.0452 N   0  0  0  0  0  0
  -25.4110  -15.1949   20.4175 N   0  0  0  0  0  0
  -31.7574  -15.0437   20.2381 O   0  0  0  0  0  0
  -21.6643   -6.8901   21.4244 O   0  0  0  0  0  0
  -22.3485  -14.5500   20.6730 O   0  0  0  0  0  0
  -24.6500  -31.8417   23.1831 C   0  0  0  0  0  0
  -25.9254  -32.4689   23.8241 C   0  0  1  0  0  0
  -27.2144  -27.0873   20.1381 C   0  0  0  0  0  0
  -25.5975  -33.8486   24.2179 N   0  0  0  0  0  0
  -23.4542  -30.4610   21.5315 C   0  0  2  0  0  0
  -24.9015  -28.8831   20.1095 C   0  0  0  0  0  0
  -22.7603  -29.4540   22.4835 C   0  0  0  0  0  0
  -18.0311  -28.1410   22.8482 C   0  0  0  0  0  0
  -24.1480  -36.7234   23.2641 C   0  0  0  0  0  0
  -26.0142  -30.6998   21.3864 C   0  0  0  0  0  0
  -26.0846  -29.3067   20.7274 C   0  0  0  0  0  0
  -27.2411  -28.4280   20.7194 C   0  0  0  0  0  0
  -25.9897  -26.7752   19.5031 C   0  0  0  0  0  0
  -24.8707  -27.6329   19.4807 C   0  0  0  0  0  0
  -23.6823  -29.7927   20.1509 C   0  0  0  0  0  0
  -25.4118  -36.3018   24.0315 C   0  0  1  0  0  0
  -20.5924  -28.3746   23.1231 C   0  0  2  0  0  0
  -20.6787  -26.9441   22.5404 C   0  0  0  0  0  0
  -19.5753  -26.6395   21.5216 C   0  0  0  0  0  0
  -18.1942  -26.7951   22.1633 C   0  0  0  0  0  0
  -19.1568  -28.8891   23.2853 C   0  0  0  0  0  0
  -18.9483  -30.1478   23.8882 C   0  0  0  0  0  0
  -17.6482  -30.6603   24.0560 C   0  0  0  0  0  0
  -25.9083  -34.9402   23.5064 C   0  0  0  0  0  0
  -16.5373  -29.9096   23.6332 C   0  0  0  0  0  0
  -16.7300  -28.6512   23.0365 C   0  0  0  0  0  0
  -26.4557  -31.6557   25.0691 C   0  0  0  0  0  0
  -25.3740  -31.3738   26.1383 C   0  0  0  0  0  0
  -27.0426  -30.2953   24.6269 C   0  0  0  0  0  0
  -27.6093  -32.4314   25.7487 C   0  0  0  0  0  0
  -27.5567  -37.1775   24.8478 C   0  0  0  0  0  0
  -21.4280  -29.3071   22.3602 N   0  0  0  0  0  0
  -26.4276  -37.3740   23.9423 N   0  0  0  0  0  0
  -24.7270  -31.0238   22.0883 N   0  0  0  0  0  0
  -23.4235  -28.8103   23.3002 O   0  0  0  0  0  0
  -28.2620  -26.0727   20.1975 O   0  0  0  0  0  0
  -26.5655  -34.8917   22.4633 O   0  0  0  0  0  0
  -23.5609  -32.1297   23.7035 O   0  0  0  0  0  0
  -27.0387  -21.6567   20.9499 C   0  0  0  0  0  0
  -28.5710  -20.2445   20.5032 C   0  0  0  0  0  0
  -28.0399  -24.4407   18.3401 C   0  0  0  0  0  0
  -31.0602  -19.9718   20.1921 C   0  0  0  0  0  0
  -29.5485  -18.8201   18.5849 C   0  0  0  0  0  0
  -28.9402  -23.1519   20.3661 C   0  0  0  0  0  0
  -29.9961  -17.6971   20.8921 C   0  0  0  0  0  0
  -28.0423  -24.5376   19.8778 C   0  0  1  0  0  0
  -29.7440  -19.1852   20.0670 C   0  0  0  0  0  0
  -26.4800  -20.4678   21.1377 N   0  0  0  0  0  0
  -27.4569  -19.5698   20.8363 N   0  0  0  0  0  0
  -28.3158  -21.6933   20.5225 N   0  0  0  0  0  0
  -29.7458  -16.1816   20.4571 N   0  0  0  0  0  0
  -31.4722  -12.7995   19.1558 H   0  0  0  0  0  0
  -30.4651  -11.6802   20.0315 H   0  0  0  0  0  0
  -29.8442  -11.7059   17.5944 H   0  0  0  0  0  0
  -29.6019  -13.4342   17.6519 H   0  0  0  0  0  0
  -27.9624  -11.2693   19.0029 H   0  0  0  0  0  0
  -27.3887  -12.4184   17.8203 H   0  0  0  0  0  0
  -27.5804  -14.2464   19.3839 H   0  0  0  0  0  0
  -28.7793  -12.3431   21.4514 H   0  0  0  0  0  0
  -28.3751  -14.0250   21.7212 H   0  0  0  0  0  0
  -25.2795   -9.5669   22.4758 H   0  0  0  0  0  0
  -24.0016   -7.4628   22.7472 H   0  0  0  0  0  0
  -21.0863   -8.8814   19.8961 H   0  0  0  0  0  0
  -22.3745  -10.9697   19.6174 H   0  0  0  0  0  0
  -21.2008   -7.6151   23.9725 H   0  0  0  0  0  0
  -21.1478   -6.0519   25.9078 H   0  0  0  0  0  0
  -22.0598   -2.7617   23.2832 H   0  0  0  0  0  0
  -22.4075  -11.9871   22.4858 H   0  0  0  0  0  0
  -21.1072  -13.1222   22.2646 H   0  0  0  0  0  0
  -24.6427  -15.8442   20.5484 H   0  0  0  0  0  0
  -26.2537  -15.6466   20.0855 H   0  0  0  0  0  0
  -26.7314  -32.5291   23.0961 H   0  0  0  0  0  0
  -25.0125  -33.9587   25.0329 H   0  0  0  0  0  0
  -22.7576  -31.2870   21.3783 H   0  0  0  0  0  0
  -23.3762  -35.9548   23.3299 H   0  0  0  0  0  0
  -24.3560  -36.8867   22.2055 H   0  0  0  0  0  0
  -23.7215  -37.6424   23.6680 H   0  0  0  0  0  0
  -26.1697  -31.4505   20.6106 H   0  0  0  0  0  0
  -26.8834  -30.7553   22.0285 H   0  0  0  0  0  0
  -28.1422  -28.7538   21.2208 H   0  0  0  0  0  0
  -25.8384  -25.8159   19.0373 H   0  0  0  0  0  0
  -23.9667  -27.3020   18.9887 H   0  0  0  0  0  0
  -23.8256  -30.5679   19.3975 H   0  0  0  0  0  0
  -22.7937  -29.2419   19.8396 H   0  0  0  0  0  0
  -25.1301  -36.1836   25.0803 H   0  0  0  0  0  0
  -21.0015  -28.3332   24.1355 H   0  0  0  0  0  0
  -20.5667  -26.2358   23.3630 H   0  0  0  0  0  0
  -21.6654  -26.7437   22.1201 H   0  0  0  0  0  0
  -19.6903  -25.6300   21.1256 H   0  0  0  0  0  0
  -19.6678  -27.3196   20.6738 H   0  0  0  0  0  0
  -17.4205  -26.6704   21.4048 H   0  0  0  0  0  0
  -18.0341  -26.0102   22.9034 H   0  0  0  0  0  0
  -19.7956  -30.7289   24.2270 H   0  0  0  0  0  0
  -17.5038  -31.6286   24.5161 H   0  0  0  0  0  0
  -15.5370  -30.2994   23.7667 H   0  0  0  0  0  0
  -15.8704  -28.0818   22.7101 H   0  0  0  0  0  0
  -24.5937  -30.7058   25.7708 H   0  0  0  0  0  0
  -24.8902  -32.2906   26.4757 H   0  0  0  0  0  0
  -25.8021  -30.8953   27.0196 H   0  0  0  0  0  0
  -26.3036  -29.6674   24.1268 H   0  0  0  0  0  0
  -27.4049  -29.7252   25.4835 H   0  0  0  0  0  0
  -27.8941  -30.4215   23.9577 H   0  0  0  0  0  0
  -27.2709  -33.3649   26.1999 H   0  0  0  0  0  0
  -28.3947  -32.6810   25.0341 H   0  0  0  0  0  0
  -28.0708  -31.8465   26.5459 H   0  0  0  0  0  0
  -28.2597  -38.0063   24.7522 H   0  0  0  0  0  0
  -28.1046  -36.2595   24.6303 H   0  0  0  0  0  0
  -27.2286  -37.1422   25.8882 H   0  0  0  0  0  0
  -20.9498  -29.8795   21.6775 H   0  0  0  0  0  0
  -26.0137  -38.2800   24.1452 H   0  0  0  0  0  0
  -26.4671  -22.5473   21.1650 H   0  0  0  0  0  0
  -29.0574  -24.5012   17.9536 H   0  0  0  0  0  0
  -27.4782  -25.2292   17.8447 H   0  0  0  0  0  0
  -27.6247  -23.4872   18.0116 H   0  0  0  0  0  0
  -31.2464  -20.2555   21.2283 H   0  0  0  0  0  0
  -31.0345  -20.8876   19.6006 H   0  0  0  0  0  0
  -31.9129  -19.3879   19.8464 H   0  0  0  0  0  0
  -29.5410  -19.7088   17.9536 H   0  0  0  0  0  0
  -28.6018  -18.3011   18.4314 H   0  0  0  0  0  0
  -30.3434  -18.1621   18.2297 H   0  0  0  0  0  0
  -29.3392  -23.3913   21.3511 H   0  0  0  0  0  0
  -29.8244  -23.0599   19.7359 H   0  0  0  0  0  0
  -29.4797  -17.8014   21.8469 H   0  0  0  0  0  0
  -31.0444  -17.6856   21.1896 H   0  0  0  0  0  0
  -27.0292  -24.3602   20.2289 H   0  0  0  0  0  0
  -28.7615  -15.9705   20.3953 H   0  0  0  0  0  0
  1 25  1  0  0  0
  1 30  2  0  0  0
  1 83  1  0  0  0
  2  3  1  0  0  0
  2 25  1  0  0  0
  2 84  1  0  0  0
  2 85  1  0  0  0
  3  4  1  0  0  0
  3 86  1  0  0  0
  3 87  1  0  0  0
  4  5  1  0  0  0
  4 88  1  0  0  0
  4 89  1  0  0  0
  5  6  1  0  0  0
  5 26  1  0  0  0
  5 90  1  0  0  0
  6 25  1  0  0  0
  6 91  1  0  0  0
  6 92  1  0  0  0
  7  8  2  0  0  0
  7 26  1  0  0  0
  7 29  1  0  0  0
  8  9  1  0  0  0
  8 22  1  0  0  0
  9 10  1  0  0  0
  9 27  2  0  0  0
 10 11  2  0  0  0
 10 15  1  0  0  0
 11 12  1  0  0  0
 11 93  1  0  0  0
 12 13  2  0  0  0
 12 94  1  0  0  0
 13 14  1  0  0  0
 13 31  1  0  0  0
 14 15  2  0  0  0
 14 95  1  0  0  0
 15 96  1  0  0  0
 16 17  2  0  0  0
 16 21  1  0  0  0
 16 31  1  0  0  0
 17 18  1  0  0  0
 17 97  1  0  0  0
 18 19  2  0  0  0
 18 98  1  0  0  0
 19 20  1  0  0  0
 19 24  1  0  0  0
 20 21  2  0  0  0
 20 99  1  0  0  0
 21 23  1  0  0  0
 22 28  1  0  0  0
 22 32  2  0  0  0
 26 27  1  0  0  0
 28100  1  0  0  0
 28101  1  0  0  0
 29102  1  0  0  0
 29103  1  0  0  0
 33 34  1  0  0  0
 33 66  1  0  0  0
 33 70  2  0  0  0
 34 36  1  0  0  0
 34 59  1  0  0  0
 34104  1  0  0  0
 35 44  2  0  0  0
 35 45  1  0  0  0
 35 68  1  0  0  0
 36 56  1  0  0  0
 36105  1  0  0  0
 37 39  1  0  0  0
 37 47  1  0  0  0
 37 66  1  0  0  0
 37106  1  0  0  0
 38 43  2  0  0  0
 38 46  1  0  0  0
 38 47  1  0  0  0
 39 64  1  0  0  0
 39 67  2  0  0  0
 40 52  1  0  0  0
 40 53  2  0  0  0
 40 58  1  0  0  0
 41107  1  0  0  0
 41108  1  0  0  0
 41109  1  0  0  0
 41 48  1  0  0  0
 42 43  1  0  0  0
 42 66  1  0  0  0
 42110  1  0  0  0
 42111  1  0  0  0
 43 44  1  0  0  0
 44112  1  0  0  0
 45 46  2  0  0  0
 45113  1  0  0  0
 46114  1  0  0  0
 47115  1  0  0  0
 47116  1  0  0  0
 48 56  1  0  0  0
 48 65  1  0  0  0
 48117  1  0  0  0
 49 50  1  0  0  0
 49 53  1  0  0  0
 49 64  1  0  0  0
 49118  1  0  0  0
 50 51  1  0  0  0
 50119  1  0  0  0
 50120  1  0  0  0
 51 52  1  0  0  0
 51121  1  0  0  0
 51122  1  0  0  0
 52123  1  0  0  0
 52124  1  0  0  0
 53 54  1  0  0  0
 54 55  2  0  0  0
 54125  1  0  0  0
 55 57  1  0  0  0
 55126  1  0  0  0
 56 69  2  0  0  0
 57 58  2  0  0  0
 57127  1  0  0  0
 58128  1  0  0  0
 59 60  1  0  0  0
 59 61  1  0  0  0
 59 62  1  0  0  0
 60129  1  0  0  0
 60130  1  0  0  0
 60131  1  0  0  0
 61132  1  0  0  0
 61133  1  0  0  0
 61134  1  0  0  0
 62135  1  0  0  0
 62136  1  0  0  0
 62137  1  0  0  0
 63 65  1  0  0  0
 63138  1  0  0  0
 63139  1  0  0  0
 63140  1  0  0  0
 64141  1  0  0  0
 65142  1  0  0  0
 68 78  1  0  0  0
 71 80  2  0  0  0
 71 82  1  0  0  0
 71143  1  0  0  0
 72 79  1  0  0  0
 72 81  2  0  0  0
 72 82  1  0  0  0
 73144  1  0  0  0
 73145  1  0  0  0
 73146  1  0  0  0
 73 78  1  0  0  0
 74147  1  0  0  0
 74148  1  0  0  0
 74149  1  0  0  0
 74 79  1  0  0  0
 75 79  1  0  0  0
 75150  1  0  0  0
 75151  1  0  0  0
 75152  1  0  0  0
 76 78  1  0  0  0
 76 82  1  0  0  0
 76153  1  0  0  0
 76154  1  0  0  0
 77 79  1  0  0  0
 77 83  1  0  0  0
 77155  1  0  0  0
 77156  1  0  0  0
 78157  1  0  0  0
 80 81  1  0  0  0
 83158  1  0  0  0
M  ISO  4   1 100  68 101  78 101  83 100
M  END
> <chiral flag>
0

> <version>
0

> <s_m_source_file>
/data/baiqing/PycharmProjects/Reinvent-master-3.2/result/LINK_invent/BTK/process_docking_weight1_custom_sum_contain_oxygen_bond_distance_aromatic_linkinvent_7_9_3/rearranged_h_0061.sdf

> <i_m_source_file_index>
66

> <r_mmod_Potential_Energy-OPLS-2005>
659.853576660156

> <r_mmod_Stretch_Energy-OPLS-2005>
336.326385498047

> <r_mmod_Bend_Energy-OPLS-2005>
372.476867675781

> <r_mmod_Torsional_Energy-OPLS-2005>
254.768432617188

> <r_mmod_Improper_Torsional_Energy-OPLS-2005>
5.90198469161987

> <r_mmod_Van_der_Waal_Energy-OPLS-2005>
110.902366638184

> <r_mmod_Electrostatic_Energy-OPLS-2005>
-423.102355957031

> <r_mmod_Solvation_Energy-OPLS-2005>
-230.494888305664

> <b_mmod_Minimization_Converged-OPLS-2005>
0

> <r_mmod_RMS_Derivative-OPLS-2005>
2.01201152801514

$$$$
71
                    3D
 Structure written by MMmdl.
168176  0  0  1  0            999 V2000
  -30.6528  -14.7590   20.5137 C   0  0  0  0  0  0
  -30.4155  -12.4824   19.4789 C   0  0  0  0  0  0
  -29.5090  -12.5564   18.2321 C   0  0  0  0  0  0
  -28.0266  -12.4008   18.6217 C   0  0  0  0  0  0
  -27.6382  -13.2568   19.8596 C   0  0  2  0  0  0
  -28.6825  -13.1542   20.9877 C   0  0  0  0  0  0
  -25.2442  -13.8250   20.5640 C   0  0  0  0  0  0
  -24.1777  -13.0448   20.9181 C   0  0  0  0  0  0
  -24.6425  -11.6950   20.8743 C   0  0  0  0  0  0
  -23.9114  -10.4315   21.0407 C   0  0  0  0  0  0
  -24.3660   -9.4224   21.9171 C   0  0  0  0  0  0
  -23.6338   -8.2246   22.0737 C   0  0  0  0  0  0
  -22.4321   -8.0281   21.3528 C   0  0  0  0  0  0
  -21.9965   -9.0254   20.4622 C   0  0  0  0  0  0
  -22.7295  -10.2134   20.3044 C   0  0  0  0  0  0
  -21.6858   -6.0746   22.5270 C   0  0  0  0  0  0
  -21.4037   -6.5652   23.8196 C   0  0  0  0  0  0
  -21.3681   -5.6803   24.9162 C   0  0  0  0  0  0
  -21.6068   -4.3062   24.7219 C   0  0  0  0  0  0
  -21.8830   -3.8155   23.4332 C   0  0  0  0  0  0
  -21.9214   -4.6977   22.3395 C   0  0  0  0  0  0
  -22.7825  -13.5210   21.1882 C   0  0  0  0  0  0
  -22.1674   -4.2167   21.0976 F   0  0  0  0  0  0
  -21.5617   -3.4531   25.7738 F   0  0  0  0  0  0
  -29.9784  -13.5501   20.4169 N   0  0  0  0  0  0
  -26.2935  -12.9509   20.3322 N   0  0  0  0  0  0
  -25.9376  -11.6639   20.5780 N   0  0  0  0  0  0
  -22.0526  -12.8112   22.0433 N   0  0  0  0  0  0
  -25.4043  -15.1945   20.3949 N   0  0  0  0  0  0
  -31.8212  -14.7885   20.1130 O   0  0  0  0  0  0
  -21.6682   -6.8873   21.4231 O   0  0  0  0  0  0
  -22.3471  -14.5516   20.6770 O   0  0  0  0  0  0
  -24.6283  -31.8521   23.1950 C   0  0  0  0  0  0
  -25.9121  -32.4713   23.8281 C   0  0  1  0  0  0
  -27.2258  -27.2661   20.1081 C   0  0  0  0  0  0
  -25.5951  -33.8527   24.2210 N   0  0  0  0  0  0
  -23.4217  -30.4742   21.5391 C   0  0  2  0  0  0
  -24.8727  -28.9250   20.0987 C   0  0  0  0  0  0
  -22.7451  -29.4574   22.4897 C   0  0  0  0  0  0
  -18.0282  -28.1345   22.8489 C   0  0  0  0  0  0
  -24.1504  -36.7253   23.2638 C   0  0  0  0  0  0
  -25.9684  -30.7658   21.3776 C   0  0  0  0  0  0
  -26.0420  -29.3918   20.7114 C   0  0  0  0  0  0
  -27.2157  -28.5725   20.7048 C   0  0  0  0  0  0
  -26.0327  -26.8658   19.4669 C   0  0  0  0  0  0
  -24.8777  -27.6731   19.4608 C   0  0  0  0  0  0
  -23.6376  -29.8045   20.1552 C   0  0  0  0  0  0
  -25.4131  -36.3027   24.0307 C   0  0  1  0  0  0
  -20.5886  -28.3649   23.1282 C   0  0  2  0  0  0
  -20.6764  -26.9360   22.5429 C   0  0  0  0  0  0
  -19.5765  -26.6340   21.5209 C   0  0  0  0  0  0
  -18.1929  -26.7873   22.1607 C   0  0  0  0  0  0
  -19.1530  -28.8804   23.2882 C   0  0  0  0  0  0
  -18.9446  -30.1393   23.8919 C   0  0  0  0  0  0
  -17.6456  -30.6555   24.0537 C   0  0  0  0  0  0
  -25.9065  -34.9414   23.5049 C   0  0  0  0  0  0
  -16.5351  -29.9057   23.6324 C   0  0  0  0  0  0
  -16.7267  -28.6466   23.0372 C   0  0  0  0  0  0
  -26.4536  -31.6531   25.0661 C   0  0  0  0  0  0
  -25.3780  -31.3664   26.1380 C   0  0  0  0  0  0
  -27.0424  -30.2961   24.6132 C   0  0  0  0  0  0
  -27.6042  -32.4299   25.7485 C   0  0  0  0  0  0
  -27.5567  -37.1775   24.8459 C   0  0  0  0  0  0
  -21.4155  -29.3004   22.3666 N   0  0  0  0  0  0
  -26.4285  -37.3727   23.9387 N   0  0  0  0  0  0
  -24.6911  -31.0484   22.0926 N   0  0  0  0  0  0
  -23.4162  -28.8108   23.2972 O   0  0  0  0  0  0
  -28.3470  -26.4065   20.1993 O   0  0  0  0  0  0
  -26.5628  -34.8908   22.4614 O   0  0  0  0  0  0
  -23.5454  -32.1336   23.7276 O   0  0  0  0  0  0
  -27.2980  -19.2132   19.4731 C   0  0  0  0  0  0
  -28.7874  -20.8187   19.9489 C   0  0  0  0  0  0
  -29.2954  -18.5548   20.2078 C   0  0  0  0  0  0
  -26.2943  -18.5907   17.2466 C   0  0  0  0  0  0
  -30.7391  -17.2180   18.6990 C   0  0  0  0  0  0
  -30.5252  -17.0301   23.1185 C   0  0  0  0  0  0
  -28.1408  -16.4398   22.5038 C   0  0  0  0  0  0
  -26.0282  -18.8153   18.7440 C   0  0  0  0  0  0
  -29.1844  -22.3442   19.6785 C   0  0  0  0  0  0
  -28.4764  -23.6283   20.3807 C   0  0  0  0  0  0
  -28.4650  -25.0412   19.5752 C   0  0  0  0  0  0
  -30.3336  -17.3424   20.1918 C   0  0  2  0  0  0
  -29.6233  -16.0926   22.2869 C   0  0  0  0  0  0
  -27.5654  -20.5156   19.5288 N   0  0  0  0  0  0
  -28.0904  -18.2045   19.7934 N   0  0  0  0  0  0
  -29.7080  -19.8623   20.2895 N   0  0  0  0  0  0
  -29.9994  -15.9647   20.8440 N   0  0  0  0  0  0
  -31.4617  -12.5772   19.1856 H   0  0  0  0  0  0
  -30.3313  -11.5001   19.9455 H   0  0  0  0  0  0
  -29.7882  -11.7899   17.5117 H   0  0  0  0  0  0
  -29.6545  -13.5179   17.7369 H   0  0  0  0  0  0
  -27.8344  -11.3430   18.8119 H   0  0  0  0  0  0
  -27.3947  -12.6746   17.7769 H   0  0  0  0  0  0
  -27.6350  -14.2931   19.5181 H   0  0  0  0  0  0
  -28.7261  -12.1346   21.3717 H   0  0  0  0  0  0
  -28.3895  -13.7664   21.8365 H   0  0  0  0  0  0
  -25.2791   -9.5703   22.4764 H   0  0  0  0  0  0
  -24.0065   -7.4650   22.7456 H   0  0  0  0  0  0
  -21.0913   -8.8766   19.8903 H   0  0  0  0  0  0
  -22.3757  -10.9676   19.6155 H   0  0  0  0  0  0
  -21.2015   -7.6151   23.9702 H   0  0  0  0  0  0
  -21.1496   -6.0533   25.9075 H   0  0  0  0  0  0
  -22.0592   -2.7618   23.2834 H   0  0  0  0  0  0
  -22.4215  -11.9770   22.4725 H   0  0  0  0  0  0
  -21.1119  -13.1015   22.2666 H   0  0  0  0  0  0
  -24.6362  -15.8467   20.5080 H   0  0  0  0  0  0
  -26.2729  -15.6397   20.1184 H   0  0  0  0  0  0
  -26.7161  -32.5373   23.1000 H   0  0  0  0  0  0
  -25.0178  -33.9670   25.0413 H   0  0  0  0  0  0
  -22.7179  -31.2972   21.3907 H   0  0  0  0  0  0
  -23.3769  -35.9578   23.3293 H   0  0  0  0  0  0
  -24.3604  -36.8913   22.2056 H   0  0  0  0  0  0
  -23.7262  -37.6442   23.6702 H   0  0  0  0  0  0
  -26.1138  -31.5328   20.6170 H   0  0  0  0  0  0
  -26.8444  -30.8069   22.0144 H   0  0  0  0  0  0
  -28.1135  -28.9210   21.1974 H   0  0  0  0  0  0
  -25.9601  -25.9046   18.9868 H   0  0  0  0  0  0
  -23.9877  -27.3121   18.9647 H   0  0  0  0  0  0
  -23.7382  -30.5777   19.3917 H   0  0  0  0  0  0
  -22.7622  -29.2222   19.8593 H   0  0  0  0  0  0
  -25.1325  -36.1853   25.0792 H   0  0  0  0  0  0
  -20.9987  -28.3222   24.1396 H   0  0  0  0  0  0
  -20.5652  -26.2226   23.3618 H   0  0  0  0  0  0
  -21.6637  -26.7367   22.1242 H   0  0  0  0  0  0
  -19.6933  -25.6248   21.1245 H   0  0  0  0  0  0
  -19.6742  -27.3145   20.6736 H   0  0  0  0  0  0
  -17.4202  -26.6630   21.3998 H   0  0  0  0  0  0
  -18.0330  -25.9987   22.8988 H   0  0  0  0  0  0
  -19.7926  -30.7169   24.2344 H   0  0  0  0  0  0
  -17.5022  -31.6268   24.5074 H   0  0  0  0  0  0
  -15.5357  -30.2985   23.7598 H   0  0  0  0  0  0
  -15.8661  -28.0773   22.7129 H   0  0  0  0  0  0
  -24.5940  -30.7043   25.7676 H   0  0  0  0  0  0
  -24.9024  -32.2856   26.4802 H   0  0  0  0  0  0
  -25.8115  -30.8809   27.0132 H   0  0  0  0  0  0
  -26.3004  -29.6658   24.1202 H   0  0  0  0  0  0
  -27.4197  -29.7243   25.4616 H   0  0  0  0  0  0
  -27.8841  -30.4252   23.9321 H   0  0  0  0  0  0
  -27.2566  -33.3576   26.2041 H   0  0  0  0  0  0
  -28.3891  -32.6889   25.0368 H   0  0  0  0  0  0
  -28.0663  -31.8440   26.5443 H   0  0  0  0  0  0
  -28.2537  -38.0110   24.7511 H   0  0  0  0  0  0
  -28.1119  -36.2631   24.6300 H   0  0  0  0  0  0
  -27.2287  -37.1418   25.8862 H   0  0  0  0  0  0
  -20.9290  -29.8740   21.6924 H   0  0  0  0  0  0
  -26.0165  -38.2790   24.1415 H   0  0  0  0  0  0
  -25.3666  -18.4029   16.7079 H   0  0  0  0  0  0
  -26.9517  -17.7336   17.0862 H   0  0  0  0  0  0
  -26.7778  -19.4617   16.8021 H   0  0  0  0  0  0
  -30.9962  -18.1974   18.2921 H   0  0  0  0  0  0
  -29.9211  -16.8274   18.0884 H   0  0  0  0  0  0
  -31.6214  -16.6073   18.5350 H   0  0  0  0  0  0
  -31.5808  -16.7913   23.0004 H   0  0  0  0  0  0
  -30.2905  -16.9260   24.1794 H   0  0  0  0  0  0
  -30.3873  -18.0822   22.8723 H   0  0  0  0  0  0
  -27.8382  -16.2320   23.5312 H   0  0  0  0  0  0
  -27.4919  -15.8627   21.8528 H   0  0  0  0  0  0
  -27.9358  -17.4943   22.3376 H   0  0  0  0  0  0
  -25.2570  -19.5737   18.8811 H   0  0  0  0  0  0
  -25.6295  -17.9001   19.1802 H   0  0  0  0  0  0
  -29.0167  -22.4766   18.6084 H   0  0  0  0  0  0
  -30.2649  -22.4417   19.7876 H   0  0  0  0  0  0
  -28.9403  -23.7686   21.3574 H   0  0  0  0  0  0
  -27.4376  -23.3715   20.5871 H   0  0  0  0  0  0
  -27.7840  -24.9331   18.7316 H   0  0  0  0  0  0
  -29.4413  -25.0970   19.0938 H   0  0  0  0  0  0
  -31.2239  -17.7044   20.7069 H   0  0  0  0  0  0
  -29.7792  -15.1276   22.7712 H   0  0  0  0  0  0
  1 25  1  0  0  0
  1 30  2  0  0  0
  1 87  1  0  0  0
  2  3  1  0  0  0
  2 25  1  0  0  0
  2 88  1  0  0  0
  2 89  1  0  0  0
  3  4  1  0  0  0
  3 90  1  0  0  0
  3 91  1  0  0  0
  4  5  1  0  0  0
  4 92  1  0  0  0
  4 93  1  0  0  0
  5  6  1  0  0  0
  5 26  1  0  0  0
  5 94  1  0  0  0
  6 25  1  0  0  0
  6 95  1  0  0  0
  6 96  1  0  0  0
  7  8  2  0  0  0
  7 26  1  0  0  0
  7 29  1  0  0  0
  8  9  1  0  0  0
  8 22  1  0  0  0
  9 10  1  0  0  0
  9 27  2  0  0  0
 10 11  2  0  0  0
 10 15  1  0  0  0
 11 12  1  0  0  0
 11 97  1  0  0  0
 12 13  2  0  0  0
 12 98  1  0  0  0
 13 14  1  0  0  0
 13 31  1  0  0  0
 14 15  2  0  0  0
 14 99  1  0  0  0
 15100  1  0  0  0
 16 17  2  0  0  0
 16 21  1  0  0  0
 16 31  1  0  0  0
 17 18  1  0  0  0
 17101  1  0  0  0
 18 19  2  0  0  0
 18102  1  0  0  0
 19 20  1  0  0  0
 19 24  1  0  0  0
 20 21  2  0  0  0
 20103  1  0  0  0
 21 23  1  0  0  0
 22 28  1  0  0  0
 22 32  2  0  0  0
 26 27  1  0  0  0
 28104  1  0  0  0
 28105  1  0  0  0
 29106  1  0  0  0
 29107  1  0  0  0
 33 34  1  0  0  0
 33 66  1  0  0  0
 33 70  2  0  0  0
 34 36  1  0  0  0
 34 59  1  0  0  0
 34108  1  0  0  0
 35 44  2  0  0  0
 35 45  1  0  0  0
 35 68  1  0  0  0
 36 56  1  0  0  0
 36109  1  0  0  0
 37 39  1  0  0  0
 37 47  1  0  0  0
 37 66  1  0  0  0
 37110  1  0  0  0
 38 43  2  0  0  0
 38 46  1  0  0  0
 38 47  1  0  0  0
 39 64  1  0  0  0
 39 67  2  0  0  0
 40 52  1  0  0  0
 40 53  2  0  0  0
 40 58  1  0  0  0
 41111  1  0  0  0
 41112  1  0  0  0
 41113  1  0  0  0
 41 48  1  0  0  0
 42 43  1  0  0  0
 42 66  1  0  0  0
 42114  1  0  0  0
 42115  1  0  0  0
 43 44  1  0  0  0
 44116  1  0  0  0
 45 46  2  0  0  0
 45117  1  0  0  0
 46118  1  0  0  0
 47119  1  0  0  0
 47120  1  0  0  0
 48 56  1  0  0  0
 48 65  1  0  0  0
 48121  1  0  0  0
 49 50  1  0  0  0
 49 53  1  0  0  0
 49 64  1  0  0  0
 49122  1  0  0  0
 50 51  1  0  0  0
 50123  1  0  0  0
 50124  1  0  0  0
 51 52  1  0  0  0
 51125  1  0  0  0
 51126  1  0  0  0
 52127  1  0  0  0
 52128  1  0  0  0
 53 54  1  0  0  0
 54 55  2  0  0  0
 54129  1  0  0  0
 55 57  1  0  0  0
 55130  1  0  0  0
 56 69  2  0  0  0
 57 58  2  0  0  0
 57131  1  0  0  0
 58132  1  0  0  0
 59 60  1  0  0  0
 59 61  1  0  0  0
 59 62  1  0  0  0
 60133  1  0  0  0
 60134  1  0  0  0
 60135  1  0  0  0
 61136  1  0  0  0
 61137  1  0  0  0
 61138  1  0  0  0
 62139  1  0  0  0
 62140  1  0  0  0
 62141  1  0  0  0
 63 65  1  0  0  0
 63142  1  0  0  0
 63143  1  0  0  0
 63144  1  0  0  0
 64145  1  0  0  0
 65146  1  0  0  0
 68 81  1  0  0  0
 71 78  1  0  0  0
 71 84  2  0  0  0
 71 85  1  0  0  0
 72 79  1  0  0  0
 72 84  1  0  0  0
 72 86  2  0  0  0
 73 82  1  0  0  0
 73 85  2  0  0  0
 73 86  1  0  0  0
 74 78  1  0  0  0
 74147  1  0  0  0
 74148  1  0  0  0
 74149  1  0  0  0
 75150  1  0  0  0
 75151  1  0  0  0
 75152  1  0  0  0
 75 82  1  0  0  0
 76153  1  0  0  0
 76154  1  0  0  0
 76155  1  0  0  0
 76 83  1  0  0  0
 77 83  1  0  0  0
 77156  1  0  0  0
 77157  1  0  0  0
 77158  1  0  0  0
 78159  1  0  0  0
 78160  1  0  0  0
 79 80  1  0  0  0
 79161  1  0  0  0
 79162  1  0  0  0
 80 81  1  0  0  0
 80163  1  0  0  0
 80164  1  0  0  0
 81165  1  0  0  0
 81166  1  0  0  0
 82 87  1  0  0  0
 82167  1  0  0  0
 83 87  1  0  0  0
 83168  1  0  0  0
M  ISO  4   1 100  68 101  81 101  87 100
M  END
> <chiral flag>
0

> <version>
0

> <s_m_source_file>
/data/baiqing/PycharmProjects/Reinvent-master-3.2/result/LINK_invent/BTK/process_docking_weight1_custom_sum_contain_oxygen_bond_distance_aromatic_linkinvent_7_9_3/rearranged_h_0061.sdf

> <i_m_source_file_index>
67

> <r_mmod_Potential_Energy-OPLS-2005>
-400.291870117188

> <r_mmod_Stretch_Energy-OPLS-2005>
142.509750366211

> <r_mmod_Bend_Energy-OPLS-2005>
219.355743408203

> <r_mmod_Torsional_Energy-OPLS-2005>
256.851684570312

> <r_mmod_Improper_Torsional_Energy-OPLS-2005>
13.9382266998291

> <r_mmod_Van_der_Waal_Energy-OPLS-2005>
158.20475769043

> <r_mmod_Electrostatic_Energy-OPLS-2005>
-1071.65319824219

> <r_mmod_Solvation_Energy-OPLS-2005>
-200.611267089844

> <b_mmod_Minimization_Converged-OPLS-2005>
0

> <r_mmod_RMS_Derivative-OPLS-2005>
4.92221641540527

$$$$
72
                    3D
 Structure written by MMmdl.
156164  0  0  1  0            999 V2000
  -30.5220  -15.0065   20.4934 C   0  0  0  0  0  0
  -30.4534  -12.6382   19.5049 C   0  0  0  0  0  0
  -29.5375  -12.5658   18.2539 C   0  0  0  0  0  0
  -28.0741  -12.3372   18.6791 C   0  0  0  0  0  0
  -27.6442  -13.2567   19.8479 C   0  0  2  0  0  0
  -28.6825  -13.2844   20.9910 C   0  0  0  0  0  0
  -25.2534  -13.8357   20.5640 C   0  0  0  0  0  0
  -24.1820  -13.0560   20.9186 C   0  0  0  0  0  0
  -24.6446  -11.7018   20.8664 C   0  0  0  0  0  0
  -23.9143  -10.4359   21.0415 C   0  0  0  0  0  0
  -24.3688   -9.4269   21.9203 C   0  0  0  0  0  0
  -23.6363   -8.2296   22.0760 C   0  0  0  0  0  0
  -22.4330   -8.0340   21.3563 C   0  0  0  0  0  0
  -21.9945   -9.0329   20.4663 C   0  0  0  0  0  0
  -22.7303  -10.2213   20.3084 C   0  0  0  0  0  0
  -21.6896   -6.0754   22.5288 C   0  0  0  0  0  0
  -21.4065   -6.5702   23.8190 C   0  0  0  0  0  0
  -21.3588   -5.6858   24.9160 C   0  0  0  0  0  0
  -21.6006   -4.3110   24.7231 C   0  0  0  0  0  0
  -21.8808   -3.8188   23.4362 C   0  0  0  0  0  0
  -21.9218   -4.6987   22.3405 C   0  0  0  0  0  0
  -22.7864  -13.5345   21.1899 C   0  0  0  0  0  0
  -22.1690   -4.2156   21.0970 F   0  0  0  0  0  0
  -21.5589   -3.4583   25.7742 F   0  0  0  0  0  0
  -29.9447  -13.7318   20.3947 N   0  0  0  0  0  0
  -26.2975  -12.9523   20.3268 N   0  0  0  0  0  0
  -25.9381  -11.6627   20.5654 N   0  0  0  0  0  0
  -22.0489  -12.8235   22.0388 N   0  0  0  0  0  0
  -25.4148  -15.2051   20.3975 N   0  0  0  0  0  0
  -31.7264  -15.0821   20.2098 O   0  0  0  0  0  0
  -21.6673   -6.8943   21.4261 O   0  0  0  0  0  0
  -22.3432  -14.5550   20.6682 O   0  0  0  0  0  0
  -24.6522  -31.8376   23.1796 C   0  0  0  0  0  0
  -25.9265  -32.4626   23.8190 C   0  0  1  0  0  0
  -27.1997  -27.0413   20.2397 C   0  0  0  0  0  0
  -25.5967  -33.8458   24.2059 N   0  0  0  0  0  0
  -23.4610  -30.4608   21.5199 C   0  0  2  0  0  0
  -24.9129  -28.8736   20.1043 C   0  0  0  0  0  0
  -22.7626  -29.4598   22.4806 C   0  0  0  0  0  0
  -18.0392  -28.1472   22.8444 C   0  0  0  0  0  0
  -24.1497  -36.7230   23.2649 C   0  0  0  0  0  0
  -26.0264  -30.6862   21.3948 C   0  0  0  0  0  0
  -26.0897  -29.2965   20.7389 C   0  0  0  0  0  0
  -27.2344  -28.4014   20.7712 C   0  0  0  0  0  0
  -26.0062  -26.7530   19.5299 C   0  0  0  0  0  0
  -24.8986  -27.6306   19.4615 C   0  0  0  0  0  0
  -23.6857  -29.7724   20.1484 C   0  0  0  0  0  0
  -25.4133  -36.2978   24.0277 C   0  0  1  0  0  0
  -20.6016  -28.3873   23.1227 C   0  0  2  0  0  0
  -20.6885  -26.9574   22.5489 C   0  0  0  0  0  0
  -19.5920  -26.6481   21.5233 C   0  0  0  0  0  0
  -18.2080  -26.7996   22.1564 C   0  0  0  0  0  0
  -19.1635  -28.8982   23.2844 C   0  0  0  0  0  0
  -18.9517  -30.1581   23.8914 C   0  0  0  0  0  0
  -17.6473  -30.6657   24.0536 C   0  0  0  0  0  0
  -25.9069  -34.9383   23.4943 C   0  0  0  0  0  0
  -16.5379  -29.9093   23.6324 C   0  0  0  0  0  0
  -16.7353  -28.6502   23.0332 C   0  0  0  0  0  0
  -26.4510  -31.6578   25.0714 C   0  0  0  0  0  0
  -25.3584  -31.3899   26.1323 C   0  0  0  0  0  0
  -27.0363  -30.2937   24.6413 C   0  0  0  0  0  0
  -27.5996  -32.4435   25.7491 C   0  0  0  0  0  0
  -27.5559  -37.1735   24.8454 C   0  0  0  0  0  0
  -21.4314  -29.3177   22.3574 N   0  0  0  0  0  0
  -26.4255  -37.3716   23.9356 N   0  0  0  0  0  0
  -24.7334  -31.0206   22.0827 N   0  0  0  0  0  0
  -23.4265  -28.8085   23.2938 O   0  0  0  0  0  0
  -28.2001  -25.9799   20.4107 O   0  0  0  0  0  0
  -26.5734  -34.8912   22.4600 O   0  0  0  0  0  0
  -23.5608  -32.1296   23.6978 O   0  0  0  0  0  0
  -29.7294  -21.2326   21.9327 C   0  0  0  0  0  0
  -29.4928  -22.6039   21.9923 C   0  0  0  0  0  0
  -28.6415  -22.9959   20.8771 C   0  0  0  0  0  0
  -30.0061  -23.4200   23.1483 C   0  0  0  0  0  0
  -28.6951  -18.8069   19.0989 C   0  0  0  0  0  0
  -27.6629  -18.6790   21.3868 C   0  0  0  0  0  0
  -27.7709  -24.4442   20.5563 C   0  0  0  0  0  0
  -30.0147  -17.7485   21.0060 C   0  0  0  0  0  0
  -28.9356  -19.0224   20.5966 C   0  0  0  0  0  0
  -28.4363  -21.7328   20.2505 N   0  0  0  0  0  0
  -29.1276  -20.6121   20.8590 N   0  0  0  0  0  0
  -29.7380  -16.1792   20.7431 N   0  0  0  0  0  0
  -31.4933  -12.7989   19.2120 H   0  0  0  0  0  0
  -30.4392  -11.6734   20.0176 H   0  0  0  0  0  0
  -29.8621  -11.7620   17.5920 H   0  0  0  0  0  0
  -29.6145  -13.4870   17.6711 H   0  0  0  0  0  0
  -27.9950  -11.2982   19.0039 H   0  0  0  0  0  0
  -27.4012  -12.4550   17.8309 H   0  0  0  0  0  0
  -27.6147  -14.2635   19.4262 H   0  0  0  0  0  0
  -28.7926  -12.3031   21.4564 H   0  0  0  0  0  0
  -28.3623  -13.9763   21.7740 H   0  0  0  0  0  0
  -25.2815   -9.5748   22.4828 H   0  0  0  0  0  0
  -24.0054   -7.4685   22.7514 H   0  0  0  0  0  0
  -21.0834   -8.8913   19.8983 H   0  0  0  0  0  0
  -22.3769  -10.9803   19.6220 H   0  0  0  0  0  0
  -21.2079   -7.6224   23.9687 H   0  0  0  0  0  0
  -21.1398   -6.0599   25.9034 H   0  0  0  0  0  0
  -22.0611   -2.7657   23.2884 H   0  0  0  0  0  0
  -22.4216  -11.9937   22.4786 H   0  0  0  0  0  0
  -21.1059  -13.1229   22.2522 H   0  0  0  0  0  0
  -24.6409  -15.8594   20.4653 H   0  0  0  0  0  0
  -26.2343  -15.6098   19.9673 H   0  0  0  0  0  0
  -26.7320  -32.5150   23.0888 H   0  0  0  0  0  0
  -24.9934  -33.9492   25.0068 H   0  0  0  0  0  0
  -22.7633  -31.2843   21.3571 H   0  0  0  0  0  0
  -23.3741  -35.9583   23.3330 H   0  0  0  0  0  0
  -24.3568  -36.8865   22.2059 H   0  0  0  0  0  0
  -23.7241  -37.6422   23.6700 H   0  0  0  0  0  0
  -26.2145  -31.4336   20.6241 H   0  0  0  0  0  0
  -26.8895  -30.7267   22.0488 H   0  0  0  0  0  0
  -28.1261  -28.7361   21.2840 H   0  0  0  0  0  0
  -25.8705  -25.7954   19.0604 H   0  0  0  0  0  0
  -24.0062  -27.3269   18.9273 H   0  0  0  0  0  0
  -23.8005  -30.5260   19.3723 H   0  0  0  0  0  0
  -22.8069  -29.1861   19.8666 H   0  0  0  0  0  0
  -25.1322  -36.1803   25.0756 H   0  0  0  0  0  0
  -21.0103  -28.3527   24.1341 H   0  0  0  0  0  0
  -20.5752  -26.2549   23.3773 H   0  0  0  0  0  0
  -21.6772  -26.7487   22.1352 H   0  0  0  0  0  0
  -19.7228  -25.6403   21.1282 H   0  0  0  0  0  0
  -19.6899  -27.3341   20.6775 H   0  0  0  0  0  0
  -17.4465  -26.6649   21.3872 H   0  0  0  0  0  0
  -18.0445  -26.0200   22.9013 H   0  0  0  0  0  0
  -19.7961  -30.7448   24.2310 H   0  0  0  0  0  0
  -17.4993  -31.6351   24.5128 H   0  0  0  0  0  0
  -15.5407  -30.2975   23.7596 H   0  0  0  0  0  0
  -15.8789  -28.0769   22.7063 H   0  0  0  0  0  0
  -24.5729  -30.7303   25.7581 H   0  0  0  0  0  0
  -24.8816  -32.3160   26.4582 H   0  0  0  0  0  0
  -25.7767  -30.9114   27.0169 H   0  0  0  0  0  0
  -26.3005  -29.6656   24.1358 H   0  0  0  0  0  0
  -27.3807  -29.7292   25.5071 H   0  0  0  0  0  0
  -27.9001  -30.4106   23.9871 H   0  0  0  0  0  0
  -27.2495  -33.3741   26.1989 H   0  0  0  0  0  0
  -28.3829  -32.7000   25.0341 H   0  0  0  0  0  0
  -28.0623  -31.8609   26.5447 H   0  0  0  0  0  0
  -28.2552  -38.0044   24.7461 H   0  0  0  0  0  0
  -28.1046  -36.2551   24.6324 H   0  0  0  0  0  0
  -27.2255  -37.1454   25.8851 H   0  0  0  0  0  0
  -20.9576  -29.8844   21.6683 H   0  0  0  0  0  0
  -26.0140  -38.2767   24.1407 H   0  0  0  0  0  0
  -30.2577  -20.5969   22.6316 H   0  0  0  0  0  0
  -30.0019  -24.4885   22.9539 H   0  0  0  0  0  0
  -31.0371  -23.1465   23.4061 H   0  0  0  0  0  0
  -29.4419  -23.2217   24.0658 H   0  0  0  0  0  0
  -29.5602  -19.1502   18.5263 H   0  0  0  0  0  0
  -28.5718  -17.7446   18.8845 H   0  0  0  0  0  0
  -27.8088  -19.3261   18.7378 H   0  0  0  0  0  0
  -26.9813  -19.5274   21.4336 H   0  0  0  0  0  0
  -27.9145  -18.4493   22.4227 H   0  0  0  0  0  0
  -27.1420  -17.8174   20.9636 H   0  0  0  0  0  0
  -27.0343  -24.5004   21.3680 H   0  0  0  0  0  0
  -27.1574  -24.2461   19.6818 H   0  0  0  0  0  0
  -30.1355  -17.7924   22.0884 H   0  0  0  0  0  0
  -31.0085  -17.9886   20.6339 H   0  0  0  0  0  0
  -28.7585  -15.9454   20.8199 H   0  0  0  0  0  0
  1 25  1  0  0  0
  1 30  2  0  0  0
  1 82  1  0  0  0
  2  3  1  0  0  0
  2 25  1  0  0  0
  2 83  1  0  0  0
  2 84  1  0  0  0
  3  4  1  0  0  0
  3 85  1  0  0  0
  3 86  1  0  0  0
  4  5  1  0  0  0
  4 87  1  0  0  0
  4 88  1  0  0  0
  5  6  1  0  0  0
  5 26  1  0  0  0
  5 89  1  0  0  0
  6 25  1  0  0  0
  6 90  1  0  0  0
  6 91  1  0  0  0
  7  8  2  0  0  0
  7 26  1  0  0  0
  7 29  1  0  0  0
  8  9  1  0  0  0
  8 22  1  0  0  0
  9 10  1  0  0  0
  9 27  2  0  0  0
 10 11  2  0  0  0
 10 15  1  0  0  0
 11 12  1  0  0  0
 11 92  1  0  0  0
 12 13  2  0  0  0
 12 93  1  0  0  0
 13 14  1  0  0  0
 13 31  1  0  0  0
 14 15  2  0  0  0
 14 94  1  0  0  0
 15 95  1  0  0  0
 16 17  2  0  0  0
 16 21  1  0  0  0
 16 31  1  0  0  0
 17 18  1  0  0  0
 17 96  1  0  0  0
 18 19  2  0  0  0
 18 97  1  0  0  0
 19 20  1  0  0  0
 19 24  1  0  0  0
 20 21  2  0  0  0
 20 98  1  0  0  0
 21 23  1  0  0  0
 22 28  1  0  0  0
 22 32  2  0  0  0
 26 27  1  0  0  0
 28 99  1  0  0  0
 28100  1  0  0  0
 29101  1  0  0  0
 29102  1  0  0  0
 33 34  1  0  0  0
 33 66  1  0  0  0
 33 70  2  0  0  0
 34 36  1  0  0  0
 34 59  1  0  0  0
 34103  1  0  0  0
 35 44  2  0  0  0
 35 45  1  0  0  0
 35 68  1  0  0  0
 36 56  1  0  0  0
 36104  1  0  0  0
 37 39  1  0  0  0
 37 47  1  0  0  0
 37 66  1  0  0  0
 37105  1  0  0  0
 38 43  2  0  0  0
 38 46  1  0  0  0
 38 47  1  0  0  0
 39 64  1  0  0  0
 39 67  2  0  0  0
 40 52  1  0  0  0
 40 53  2  0  0  0
 40 58  1  0  0  0
 41106  1  0  0  0
 41107  1  0  0  0
 41108  1  0  0  0
 41 48  1  0  0  0
 42 43  1  0  0  0
 42 66  1  0  0  0
 42109  1  0  0  0
 42110  1  0  0  0
 43 44  1  0  0  0
 44111  1  0  0  0
 45 46  2  0  0  0
 45112  1  0  0  0
 46113  1  0  0  0
 47114  1  0  0  0
 47115  1  0  0  0
 48 56  1  0  0  0
 48 65  1  0  0  0
 48116  1  0  0  0
 49 50  1  0  0  0
 49 53  1  0  0  0
 49 64  1  0  0  0
 49117  1  0  0  0
 50 51  1  0  0  0
 50118  1  0  0  0
 50119  1  0  0  0
 51 52  1  0  0  0
 51120  1  0  0  0
 51121  1  0  0  0
 52122  1  0  0  0
 52123  1  0  0  0
 53 54  1  0  0  0
 54 55  2  0  0  0
 54124  1  0  0  0
 55 57  1  0  0  0
 55125  1  0  0  0
 56 69  2  0  0  0
 57 58  2  0  0  0
 57126  1  0  0  0
 58127  1  0  0  0
 59 60  1  0  0  0
 59 61  1  0  0  0
 59 62  1  0  0  0
 60128  1  0  0  0
 60129  1  0  0  0
 60130  1  0  0  0
 61131  1  0  0  0
 61132  1  0  0  0
 61133  1  0  0  0
 62134  1  0  0  0
 62135  1  0  0  0
 62136  1  0  0  0
 63 65  1  0  0  0
 63137  1  0  0  0
 63138  1  0  0  0
 63139  1  0  0  0
 64140  1  0  0  0
 65141  1  0  0  0
 68 77  1  0  0  0
 71 72  2  0  0  0
 71 81  1  0  0  0
 71142  1  0  0  0
 72 73  1  0  0  0
 72 74  1  0  0  0
 73 77  1  0  0  0
 73 80  2  0  0  0
 74143  1  0  0  0
 74144  1  0  0  0
 74145  1  0  0  0
 75146  1  0  0  0
 75147  1  0  0  0
 75148  1  0  0  0
 75 79  1  0  0  0
 76 79  1  0  0  0
 76149  1  0  0  0
 76150  1  0  0  0
 76151  1  0  0  0
 77152  1  0  0  0
 77153  1  0  0  0
 78 79  1  0  0  0
 78 82  1  0  0  0
 78154  1  0  0  0
 78155  1  0  0  0
 79 81  1  0  0  0
 80 81  1  0  0  0
 82156  1  0  0  0
M  ISO  4   1 100  68 101  77 101  82 100
M  END
> <chiral flag>
0

> <version>
0

> <s_m_source_file>
/data/baiqing/PycharmProjects/Reinvent-master-3.2/result/LINK_invent/BTK/process_docking_weight1_custom_sum_contain_oxygen_bond_distance_aromatic_linkinvent_7_9_3/rearranged_h_0061.sdf

> <i_m_source_file_index>
68

> <r_mmod_Potential_Energy-OPLS-2005>
741.971801757812

> <r_mmod_Stretch_Energy-OPLS-2005>
372.344848632812

> <r_mmod_Bend_Energy-OPLS-2005>
331.585601806641

> <r_mmod_Torsional_Energy-OPLS-2005>
264.686767578125

> <r_mmod_Improper_Torsional_Energy-OPLS-2005>
7.86914587020874

> <r_mmod_Van_der_Waal_Energy-OPLS-2005>
106.510185241699

> <r_mmod_Electrostatic_Energy-OPLS-2005>
-391.590209960938

> <r_mmod_Solvation_Energy-OPLS-2005>
-222.005874633789

> <b_mmod_Minimization_Converged-OPLS-2005>
0

> <r_mmod_RMS_Derivative-OPLS-2005>
11.2387113571167

$$$$
73
                    3D
 Structure written by MMmdl.
154162  0  0  1  0            999 V2000
  -30.5377  -14.9705   20.4093 C   0  0  0  0  0  0
  -30.4369  -12.5988   19.5123 C   0  0  0  0  0  0
  -29.5241  -12.5337   18.2653 C   0  0  0  0  0  0
  -28.0573  -12.3172   18.6800 C   0  0  0  0  0  0
  -27.6290  -13.2525   19.8411 C   0  0  2  0  0  0
  -28.6684  -13.2933   20.9824 C   0  0  0  0  0  0
  -25.2452  -13.8228   20.5718 C   0  0  0  0  0  0
  -24.1774  -13.0444   20.9231 C   0  0  0  0  0  0
  -24.6396  -11.6931   20.8757 C   0  0  0  0  0  0
  -23.9083  -10.4296   21.0408 C   0  0  0  0  0  0
  -24.3629   -9.4209   21.9184 C   0  0  0  0  0  0
  -23.6300   -8.2246   22.0755 C   0  0  0  0  0  0
  -22.4282   -8.0285   21.3545 C   0  0  0  0  0  0
  -21.9921   -9.0259   20.4647 C   0  0  0  0  0  0
  -22.7254  -10.2136   20.3056 C   0  0  0  0  0  0
  -21.6855   -6.0738   22.5279 C   0  0  0  0  0  0
  -21.4016   -6.5641   23.8213 C   0  0  0  0  0  0
  -21.3659   -5.6794   24.9174 C   0  0  0  0  0  0
  -21.6044   -4.3056   24.7225 C   0  0  0  0  0  0
  -21.8819   -3.8149   23.4346 C   0  0  0  0  0  0
  -21.9193   -4.6965   22.3402 C   0  0  0  0  0  0
  -22.7793  -13.5208   21.1883 C   0  0  0  0  0  0
  -22.1661   -4.2151   21.0980 F   0  0  0  0  0  0
  -21.5628   -3.4540   25.7737 F   0  0  0  0  0  0
  -29.9450  -13.7059   20.3867 N   0  0  0  0  0  0
  -26.2881  -12.9467   20.3256 N   0  0  0  0  0  0
  -25.9330  -11.6592   20.5745 N   0  0  0  0  0  0
  -22.0446  -12.8192   22.0438 N   0  0  0  0  0  0
  -25.4114  -15.1958   20.4138 N   0  0  0  0  0  0
  -31.7331  -15.0275   20.1026 O   0  0  0  0  0  0
  -21.6644   -6.8883   21.4242 O   0  0  0  0  0  0
  -22.3474  -14.5512   20.6727 O   0  0  0  0  0  0
  -24.6457  -31.8414   23.1868 C   0  0  0  0  0  0
  -25.9221  -32.4678   23.8261 C   0  0  1  0  0  0
  -27.2141  -27.1078   20.1543 C   0  0  0  0  0  0
  -25.5960  -33.8486   24.2175 N   0  0  0  0  0  0
  -23.4506  -30.4605   21.5324 C   0  0  2  0  0  0
  -24.9010  -28.8849   20.1067 C   0  0  0  0  0  0
  -22.7579  -29.4530   22.4845 C   0  0  0  0  0  0
  -18.0306  -28.1395   22.8474 C   0  0  0  0  0  0
  -24.1491  -36.7247   23.2642 C   0  0  0  0  0  0
  -26.0085  -30.7048   21.3919 C   0  0  0  0  0  0
  -26.0779  -29.3141   20.7327 C   0  0  0  0  0  0
  -27.2329  -28.4405   20.7425 C   0  0  0  0  0  0
  -26.0168  -26.7964   19.4712 C   0  0  0  0  0  0
  -24.8855  -27.6411   19.4592 C   0  0  0  0  0  0
  -23.6786  -29.7901   20.1512 C   0  0  0  0  0  0
  -25.4125  -36.3021   24.0313 C   0  0  1  0  0  0
  -20.5920  -28.3724   23.1226 C   0  0  2  0  0  0
  -20.6788  -26.9423   22.5403 C   0  0  0  0  0  0
  -19.5763  -26.6378   21.5210 C   0  0  0  0  0  0
  -18.1945  -26.7933   22.1621 C   0  0  0  0  0  0
  -19.1564  -28.8878   23.2840 C   0  0  0  0  0  0
  -18.9480  -30.1473   23.8867 C   0  0  0  0  0  0
  -17.6476  -30.6590   24.0559 C   0  0  0  0  0  0
  -25.9077  -34.9398   23.5054 C   0  0  0  0  0  0
  -16.5367  -29.9083   23.6336 C   0  0  0  0  0  0
  -16.7291  -28.6503   23.0355 C   0  0  0  0  0  0
  -26.4534  -31.6559   25.0717 C   0  0  0  0  0  0
  -25.3707  -31.3757   26.1404 C   0  0  0  0  0  0
  -27.0410  -30.2949   24.6328 C   0  0  0  0  0  0
  -27.6054  -32.4339   25.7505 C   0  0  0  0  0  0
  -27.5574  -37.1781   24.8465 C   0  0  0  0  0  0
  -21.4268  -29.3045   22.3595 N   0  0  0  0  0  0
  -26.4285  -37.3738   23.9407 N   0  0  0  0  0  0
  -24.7214  -31.0244   22.0917 N   0  0  0  0  0  0
  -23.4211  -28.8078   23.3005 O   0  0  0  0  0  0
  -28.2497  -26.0969   20.2560 O   0  0  0  0  0  0
  -26.5666  -34.8901   22.4634 O   0  0  0  0  0  0
  -23.5571  -32.1307   23.7071 O   0  0  0  0  0  0
  -29.6290  -22.3420   18.3379 C   0  0  0  0  0  0
  -30.0132  -21.2618   17.6061 C   0  0  0  0  0  0
  -29.4142  -20.4865   19.6358 C   0  0  0  0  0  0
  -27.7721  -18.8164   20.7494 C   0  0  0  0  0  0
  -28.7512  -23.1410   20.5229 C   0  0  0  0  0  0
  -30.0667  -17.6724   20.1073 C   0  0  0  0  0  0
  -28.0097  -24.5752   19.9394 C   0  0  0  0  0  0
  -29.2614  -19.1227   20.5480 C   0  0  1  0  0  0
  -29.2012  -21.9230   19.5813 N   0  0  0  0  0  0
  -29.8578  -20.1794   18.4087 N   0  3  0  0  0  0
  -29.7727  -16.1700   20.5504 N   0  0  0  0  0  0
  -31.4728  -12.7485   19.2041 H   0  0  0  0  0  0
  -30.4244  -11.6500   20.0512 H   0  0  0  0  0  0
  -29.8477  -11.7336   17.5982 H   0  0  0  0  0  0
  -29.6120  -13.4617   17.6982 H   0  0  0  0  0  0
  -27.9553  -11.2766   18.9905 H   0  0  0  0  0  0
  -27.3956  -12.4454   17.8226 H   0  0  0  0  0  0
  -27.5895  -14.2525   19.4082 H   0  0  0  0  0  0
  -28.7566  -12.3222   21.4717 H   0  0  0  0  0  0
  -28.3633  -14.0025   21.7535 H   0  0  0  0  0  0
  -25.2772   -9.5684   22.4763 H   0  0  0  0  0  0
  -24.0007   -7.4637   22.7475 H   0  0  0  0  0  0
  -21.0852   -8.8781   19.8952 H   0  0  0  0  0  0
  -22.3712  -10.9676   19.6167 H   0  0  0  0  0  0
  -21.2010   -7.6150   23.9717 H   0  0  0  0  0  0
  -21.1480   -6.0524   25.9077 H   0  0  0  0  0  0
  -22.0597   -2.7611   23.2847 H   0  0  0  0  0  0
  -22.4072  -11.9857   22.4824 H   0  0  0  0  0  0
  -21.1059  -13.1204   22.2643 H   0  0  0  0  0  0
  -24.6393  -15.8444   20.5213 H   0  0  0  0  0  0
  -26.2493  -15.6354   20.0570 H   0  0  0  0  0  0
  -26.7285  -32.5275   23.0986 H   0  0  0  0  0  0
  -25.0085  -33.9593   25.0308 H   0  0  0  0  0  0
  -22.7545  -31.2874   21.3773 H   0  0  0  0  0  0
  -23.3759  -35.9573   23.3290 H   0  0  0  0  0  0
  -24.3574  -36.8898   22.2059 H   0  0  0  0  0  0
  -23.7244  -37.6437   23.6692 H   0  0  0  0  0  0
  -26.1699  -31.4581   20.6195 H   0  0  0  0  0  0
  -26.8766  -30.7539   22.0375 H   0  0  0  0  0  0
  -28.1243  -28.7602   21.2638 H   0  0  0  0  0  0
  -25.9156  -25.8527   18.9571 H   0  0  0  0  0  0
  -23.9903  -27.3115   18.9499 H   0  0  0  0  0  0
  -23.8173  -30.5655   19.3970 H   0  0  0  0  0  0
  -22.7924  -29.2346   19.8388 H   0  0  0  0  0  0
  -25.1315  -36.1844   25.0805 H   0  0  0  0  0  0
  -21.0012  -28.3318   24.1348 H   0  0  0  0  0  0
  -20.5675  -26.2338   23.3625 H   0  0  0  0  0  0
  -21.6655  -26.7421   22.1205 H   0  0  0  0  0  0
  -19.6921  -25.6281   21.1257 H   0  0  0  0  0  0
  -19.6700  -27.3172   20.6727 H   0  0  0  0  0  0
  -17.4212  -26.6674   21.4026 H   0  0  0  0  0  0
  -18.0345  -26.0080   22.9023 H   0  0  0  0  0  0
  -19.7956  -30.7297   24.2222 H   0  0  0  0  0  0
  -17.5030  -31.6266   24.5167 H   0  0  0  0  0  0
  -15.5366  -30.2975   23.7676 H   0  0  0  0  0  0
  -15.8692  -28.0812   22.7084 H   0  0  0  0  0  0
  -24.5899  -30.7090   25.7725 H   0  0  0  0  0  0
  -24.8881  -32.2941   26.4756 H   0  0  0  0  0  0
  -25.7983  -30.8981   27.0229 H   0  0  0  0  0  0
  -26.3039  -29.6659   24.1323 H   0  0  0  0  0  0
  -27.3994  -29.7265   25.4921 H   0  0  0  0  0  0
  -27.8959  -30.4174   23.9676 H   0  0  0  0  0  0
  -27.2637  -33.3665   26.2007 H   0  0  0  0  0  0
  -28.3903  -32.6860   25.0361 H   0  0  0  0  0  0
  -28.0679  -31.8516   26.5484 H   0  0  0  0  0  0
  -28.2581  -38.0088   24.7514 H   0  0  0  0  0  0
  -28.1083  -36.2616   24.6292 H   0  0  0  0  0  0
  -27.2289  -37.1428   25.8867 H   0  0  0  0  0  0
  -20.9482  -29.8765   21.6777 H   0  0  0  0  0  0
  -26.0148  -38.2803   24.1414 H   0  0  0  0  0  0
  -29.6428  -23.3786   18.0362 H   0  0  0  0  0  0
  -30.3896  -21.1883   16.5947 H   0  0  0  0  0  0
  -27.2474  -19.6761   21.1672 H   0  0  0  0  0  0
  -27.6294  -17.9814   21.4354 H   0  0  0  0  0  0
  -27.2916  -18.5596   19.8050 H   0  0  0  0  0  0
  -28.1172  -22.7110   21.2982 H   0  0  0  0  0  0
  -29.6604  -23.4414   21.0432 H   0  0  0  0  0  0
  -31.1328  -17.8388   20.2683 H   0  0  0  0  0  0
  -29.9690  -17.5979   19.0248 H   0  0  0  0  0  0
  -26.9650  -24.4030   20.1954 H   0  0  0  0  0  0
  -28.0084  -24.5300   18.8521 H   0  0  0  0  0  0
  -29.6581  -19.4199   21.5195 H   0  0  0  0  0  0
  -30.0719  -19.2367   18.1096 H   0  0  0  0  0  0
  -28.8166  -16.0010   20.8260 H   0  0  0  0  0  0
  1 25  1  0  0  0
  1 30  2  0  0  0
  1 81  1  0  0  0
  2  3  1  0  0  0
  2 25  1  0  0  0
  2 82  1  0  0  0
  2 83  1  0  0  0
  3  4  1  0  0  0
  3 84  1  0  0  0
  3 85  1  0  0  0
  4  5  1  0  0  0
  4 86  1  0  0  0
  4 87  1  0  0  0
  5  6  1  0  0  0
  5 26  1  0  0  0
  5 88  1  0  0  0
  6 25  1  0  0  0
  6 89  1  0  0  0
  6 90  1  0  0  0
  7  8  2  0  0  0
  7 26  1  0  0  0
  7 29  1  0  0  0
  8  9  1  0  0  0
  8 22  1  0  0  0
  9 10  1  0  0  0
  9 27  2  0  0  0
 10 11  2  0  0  0
 10 15  1  0  0  0
 11 12  1  0  0  0
 11 91  1  0  0  0
 12 13  2  0  0  0
 12 92  1  0  0  0
 13 14  1  0  0  0
 13 31  1  0  0  0
 14 15  2  0  0  0
 14 93  1  0  0  0
 15 94  1  0  0  0
 16 17  2  0  0  0
 16 21  1  0  0  0
 16 31  1  0  0  0
 17 18  1  0  0  0
 17 95  1  0  0  0
 18 19  2  0  0  0
 18 96  1  0  0  0
 19 20  1  0  0  0
 19 24  1  0  0  0
 20 21  2  0  0  0
 20 97  1  0  0  0
 21 23  1  0  0  0
 22 28  1  0  0  0
 22 32  2  0  0  0
 26 27  1  0  0  0
 28 98  1  0  0  0
 28 99  1  0  0  0
 29100  1  0  0  0
 29101  1  0  0  0
 33 34  1  0  0  0
 33 66  1  0  0  0
 33 70  2  0  0  0
 34 36  1  0  0  0
 34 59  1  0  0  0
 34102  1  0  0  0
 35 44  2  0  0  0
 35 45  1  0  0  0
 35 68  1  0  0  0
 36 56  1  0  0  0
 36103  1  0  0  0
 37 39  1  0  0  0
 37 47  1  0  0  0
 37 66  1  0  0  0
 37104  1  0  0  0
 38 43  2  0  0  0
 38 46  1  0  0  0
 38 47  1  0  0  0
 39 64  1  0  0  0
 39 67  2  0  0  0
 40 52  1  0  0  0
 40 53  2  0  0  0
 40 58  1  0  0  0
 41105  1  0  0  0
 41106  1  0  0  0
 41107  1  0  0  0
 41 48  1  0  0  0
 42 43  1  0  0  0
 42 66  1  0  0  0
 42108  1  0  0  0
 42109  1  0  0  0
 43 44  1  0  0  0
 44110  1  0  0  0
 45 46  2  0  0  0
 45111  1  0  0  0
 46112  1  0  0  0
 47113  1  0  0  0
 47114  1  0  0  0
 48 56  1  0  0  0
 48 65  1  0  0  0
 48115  1  0  0  0
 49 50  1  0  0  0
 49 53  1  0  0  0
 49 64  1  0  0  0
 49116  1  0  0  0
 50 51  1  0  0  0
 50117  1  0  0  0
 50118  1  0  0  0
 51 52  1  0  0  0
 51119  1  0  0  0
 51120  1  0  0  0
 52121  1  0  0  0
 52122  1  0  0  0
 53 54  1  0  0  0
 54 55  2  0  0  0
 54123  1  0  0  0
 55 57  1  0  0  0
 55124  1  0  0  0
 56 69  2  0  0  0
 57 58  2  0  0  0
 57125  1  0  0  0
 58126  1  0  0  0
 59 60  1  0  0  0
 59 61  1  0  0  0
 59 62  1  0  0  0
 60127  1  0  0  0
 60128  1  0  0  0
 60129  1  0  0  0
 61130  1  0  0  0
 61131  1  0  0  0
 61132  1  0  0  0
 62133  1  0  0  0
 62134  1  0  0  0
 62135  1  0  0  0
 63 65  1  0  0  0
 63136  1  0  0  0
 63137  1  0  0  0
 63138  1  0  0  0
 64139  1  0  0  0
 65140  1  0  0  0
 68 77  1  0  0  0
 71 72  2  0  0  0
 71 79  1  0  0  0
 71141  1  0  0  0
 72 80  1  0  0  0
 72142  1  0  0  0
 73 78  1  0  0  0
 73 79  1  0  0  0
 73 80  2  0  0  0
 74143  1  0  0  0
 74144  1  0  0  0
 74145  1  0  0  0
 74 78  1  0  0  0
 75 77  1  0  0  0
 75 79  1  0  0  0
 75146  1  0  0  0
 75147  1  0  0  0
 76 78  1  0  0  0
 76 81  1  0  0  0
 76148  1  0  0  0
 76149  1  0  0  0
 77150  1  0  0  0
 77151  1  0  0  0
 78152  1  0  0  0
 80153  1  0  0  0
 81154  1  0  0  0
M  CHG  1  80   1
M  ISO  4   1 100  68 101  77 101  81 100
M  END
> <chiral flag>
0

> <version>
0

> <s_m_source_file>
/data/baiqing/PycharmProjects/Reinvent-master-3.2/result/LINK_invent/BTK/process_docking_weight1_custom_sum_contain_oxygen_bond_distance_aromatic_linkinvent_7_9_3/rearranged_h_0061.sdf

> <i_m_source_file_index>
69

> <r_mmod_Potential_Energy-OPLS-2005>
560.126647949219

> <r_mmod_Stretch_Energy-OPLS-2005>
317.063415527344

> <r_mmod_Bend_Energy-OPLS-2005>
336.516143798828

> <r_mmod_Torsional_Energy-OPLS-2005>
245.126541137695

> <r_mmod_Improper_Torsional_Energy-OPLS-2005>
5.85007953643799

> <r_mmod_Van_der_Waal_Energy-OPLS-2005>
112.362075805664

> <r_mmod_Electrostatic_Energy-OPLS-2005>
-223.390686035156

> <r_mmod_Solvation_Energy-OPLS-2005>
-448.860046386719

> <b_mmod_Minimization_Converged-OPLS-2005>
0

> <r_mmod_RMS_Derivative-OPLS-2005>
0.208379358053207

$$$$
74
                    3D
 Structure written by MMmdl.
153161  0  0  1  0            999 V2000
  -30.6375  -14.7225   20.4381 C   0  0  0  0  0  0
  -30.4246  -12.4321   19.4911 C   0  0  0  0  0  0
  -29.5095  -12.4918   18.2488 C   0  0  0  0  0  0
  -28.0371  -12.3171   18.6634 C   0  0  0  0  0  0
  -27.6426  -13.2319   19.8537 C   0  0  2  0  0  0
  -28.6840  -13.1855   20.9963 C   0  0  0  0  0  0
  -25.2523  -13.8207   20.5710 C   0  0  0  0  0  0
  -24.1806  -13.0456   20.9212 C   0  0  0  0  0  0
  -24.6400  -11.6924   20.8766 C   0  0  0  0  0  0
  -23.9077  -10.4303   21.0418 C   0  0  0  0  0  0
  -24.3627   -9.4208   21.9182 C   0  0  0  0  0  0
  -23.6297   -8.2249   22.0741 C   0  0  0  0  0  0
  -22.4284   -8.0284   21.3528 C   0  0  0  0  0  0
  -21.9927   -9.0264   20.4638 C   0  0  0  0  0  0
  -22.7256  -10.2144   20.3060 C   0  0  0  0  0  0
  -21.6860   -6.0746   22.5274 C   0  0  0  0  0  0
  -21.4021   -6.5643   23.8207 C   0  0  0  0  0  0
  -21.3654   -5.6790   24.9161 C   0  0  0  0  0  0
  -21.6041   -4.3053   24.7220 C   0  0  0  0  0  0
  -21.8812   -3.8145   23.4338 C   0  0  0  0  0  0
  -21.9199   -4.6973   22.3398 C   0  0  0  0  0  0
  -22.7837  -13.5240   21.1872 C   0  0  0  0  0  0
  -22.1665   -4.2155   21.0983 F   0  0  0  0  0  0
  -21.5620   -3.4536   25.7732 F   0  0  0  0  0  0
  -29.9914  -13.5075   20.4144 N   0  0  0  0  0  0
  -26.2945  -12.9413   20.3304 N   0  0  0  0  0  0
  -25.9336  -11.6556   20.5793 N   0  0  0  0  0  0
  -22.0505  -12.8217   22.0429 N   0  0  0  0  0  0
  -25.4222  -15.1934   20.4128 N   0  0  0  0  0  0
  -31.8269  -14.7842   20.1184 O   0  0  0  0  0  0
  -21.6636   -6.8889   21.4233 O   0  0  0  0  0  0
  -22.3515  -14.5559   20.6744 O   0  0  0  0  0  0
  -24.6311  -31.8552   23.2020 C   0  0  0  0  0  0
  -25.9146  -32.4745   23.8338 C   0  0  1  0  0  0
  -27.2139  -27.2661   20.1257 C   0  0  0  0  0  0
  -25.5970  -33.8552   24.2279 N   0  0  0  0  0  0
  -23.4267  -30.4820   21.5447 C   0  0  2  0  0  0
  -24.8728  -28.9341   20.1116 C   0  0  0  0  0  0
  -22.7492  -29.4611   22.4920 C   0  0  0  0  0  0
  -18.0281  -28.1381   22.8487 C   0  0  0  0  0  0
  -24.1501  -36.7256   23.2638 C   0  0  0  0  0  0
  -25.9744  -30.7701   21.3832 C   0  0  0  0  0  0
  -26.0458  -29.3950   20.7225 C   0  0  0  0  0  0
  -27.2188  -28.5719   20.7235 C   0  0  0  0  0  0
  -26.0191  -26.8851   19.4687 C   0  0  0  0  0  0
  -24.8641  -27.6860   19.4765 C   0  0  0  0  0  0
  -23.6448  -29.8212   20.1597 C   0  0  0  0  0  0
  -25.4121  -36.3050   24.0334 C   0  0  1  0  0  0
  -20.5883  -28.3704   23.1268 C   0  0  2  0  0  0
  -20.6793  -26.9433   22.5375 C   0  0  0  0  0  0
  -19.5743  -26.6368   21.5206 C   0  0  0  0  0  0
  -18.1924  -26.7909   22.1645 C   0  0  0  0  0  0
  -19.1535  -28.8861   23.2875 C   0  0  0  0  0  0
  -18.9443  -30.1460   23.8895 C   0  0  0  0  0  0
  -17.6431  -30.6568   24.0566 C   0  0  0  0  0  0
  -25.9060  -34.9425   23.5095 C   0  0  0  0  0  0
  -16.5326  -29.9065   23.6333 C   0  0  0  0  0  0
  -16.7270  -28.6497   23.0340 C   0  0  0  0  0  0
  -26.4509  -31.6561   25.0719 C   0  0  0  0  0  0
  -25.3739  -31.3714   26.1447 C   0  0  0  0  0  0
  -27.0380  -30.3000   24.6203 C   0  0  0  0  0  0
  -27.6060  -32.4310   25.7481 C   0  0  0  0  0  0
  -27.5579  -37.1780   24.8476 C   0  0  0  0  0  0
  -21.4196  -29.3064   22.3676 N   0  0  0  0  0  0
  -26.4293  -37.3754   23.9416 N   0  0  0  0  0  0
  -24.6963  -31.0525   22.0999 N   0  0  0  0  0  0
  -23.4192  -28.8133   23.3022 O   0  0  0  0  0  0
  -28.2953  -26.3531   20.2078 O   0  0  0  0  0  0
  -26.5603  -34.8901   22.4646 O   0  0  0  0  0  0
  -23.5463  -32.1370   23.7318 O   0  0  0  0  0  0
  -29.2501  -19.7083   19.5334 C   0  0  0  0  0  0
  -29.4039  -20.3905   21.5564 C   0  0  0  0  0  0
  -29.7008  -18.6127   20.2885 C   0  0  0  0  0  0
  -29.8528  -17.0028   18.3211 C   0  0  0  0  0  0
  -28.9354  -23.6487   20.4237 C   0  0  0  0  0  0
  -28.4363  -22.1928   19.9296 C   0  0  0  0  0  0
  -28.0154  -24.8960   19.9571 C   0  0  0  0  0  0
  -30.2151  -17.1908   19.8092 C   0  0  2  0  0  0
  -29.7911  -19.0966   21.5993 N   0  0  0  0  0  0
  -29.0596  -20.8623   20.3411 N   0  0  0  0  0  0
  -29.8873  -15.8849   20.5243 N   0  0  0  0  0  0
  -31.4698  -12.5325   19.1901 H   0  0  0  0  0  0
  -30.3494  -11.4600   19.9807 H   0  0  0  0  0  0
  -29.7913  -11.7169   17.5354 H   0  0  0  0  0  0
  -29.6375  -13.4465   17.7365 H   0  0  0  0  0  0
  -27.9002  -11.2725   18.9464 H   0  0  0  0  0  0
  -27.3760  -12.4862   17.8133 H   0  0  0  0  0  0
  -27.6338  -14.2482   19.4594 H   0  0  0  0  0  0
  -28.7080  -12.2016   21.4665 H   0  0  0  0  0  0
  -28.4235  -13.8971   21.7830 H   0  0  0  0  0  0
  -25.2776   -9.5678   22.4752 H   0  0  0  0  0  0
  -23.9995   -7.4651   22.7471 H   0  0  0  0  0  0
  -21.0849   -8.8799   19.8966 H   0  0  0  0  0  0
  -22.3706  -10.9685   19.6177 H   0  0  0  0  0  0
  -21.2009   -7.6156   23.9707 H   0  0  0  0  0  0
  -21.1481   -6.0525   25.9064 H   0  0  0  0  0  0
  -22.0601   -2.7614   23.2837 H   0  0  0  0  0  0
  -22.4157  -11.9873   22.4785 H   0  0  0  0  0  0
  -21.1133  -13.1226   22.2690 H   0  0  0  0  0  0
  -24.6601  -15.8504   20.5361 H   0  0  0  0  0  0
  -26.2693  -15.6306   20.0747 H   0  0  0  0  0  0
  -26.7216  -32.5403   23.1073 H   0  0  0  0  0  0
  -25.0197  -33.9695   25.0481 H   0  0  0  0  0  0
  -22.7236  -31.3044   21.4036 H   0  0  0  0  0  0
  -23.3768  -35.9582   23.3298 H   0  0  0  0  0  0
  -24.3607  -36.8871   22.2053 H   0  0  0  0  0  0
  -23.7256  -37.6467   23.6654 H   0  0  0  0  0  0
  -26.1160  -31.5353   20.6185 H   0  0  0  0  0  0
  -26.8510  -30.8136   22.0192 H   0  0  0  0  0  0
  -28.1111  -28.9136   21.2307 H   0  0  0  0  0  0
  -25.9337  -25.9396   18.9559 H   0  0  0  0  0  0
  -23.9654  -27.3295   18.9914 H   0  0  0  0  0  0
  -23.7684  -30.5992   19.4048 H   0  0  0  0  0  0
  -22.7621  -29.2562   19.8534 H   0  0  0  0  0  0
  -25.1303  -36.1883   25.0828 H   0  0  0  0  0  0
  -20.9949  -28.3275   24.1394 H   0  0  0  0  0  0
  -20.5737  -26.2297   23.3566 H   0  0  0  0  0  0
  -21.6653  -26.7502   22.1127 H   0  0  0  0  0  0
  -19.6918  -25.6268   21.1286 H   0  0  0  0  0  0
  -19.6650  -27.3159   20.6729 H   0  0  0  0  0  0
  -17.4175  -26.6630   21.4065 H   0  0  0  0  0  0
  -18.0339  -26.0072   22.9061 H   0  0  0  0  0  0
  -19.7900  -30.7306   24.2254 H   0  0  0  0  0  0
  -17.4966  -31.6232   24.5177 H   0  0  0  0  0  0
  -15.5311  -30.2934   23.7693 H   0  0  0  0  0  0
  -15.8680  -28.0812   22.7035 H   0  0  0  0  0  0
  -24.5910  -30.7068   25.7783 H   0  0  0  0  0  0
  -24.8928  -32.2887   26.4851 H   0  0  0  0  0  0
  -25.8056  -30.8903   27.0233 H   0  0  0  0  0  0
  -26.3001  -29.6761   24.1147 H   0  0  0  0  0  0
  -27.4011  -29.7242   25.4724 H   0  0  0  0  0  0
  -27.8882  -30.4304   23.9508 H   0  0  0  0  0  0
  -27.2665  -33.3606   26.2056 H   0  0  0  0  0  0
  -28.3852  -32.6873   25.0292 H   0  0  0  0  0  0
  -28.0745  -31.8433   26.5385 H   0  0  0  0  0  0
  -28.2586  -38.0081   24.7515 H   0  0  0  0  0  0
  -28.1080  -36.2612   24.6312 H   0  0  0  0  0  0
  -27.2285  -37.1439   25.8873 H   0  0  0  0  0  0
  -20.9391  -29.8803   21.6892 H   0  0  0  0  0  0
  -26.0163  -38.2829   24.1425 H   0  0  0  0  0  0
  -29.0511  -19.7576   18.4705 H   0  0  0  0  0  0
  -29.3387  -21.0029   22.4452 H   0  0  0  0  0  0
  -30.2939  -17.7874   17.7060 H   0  0  0  0  0  0
  -28.7726  -17.0298   18.1689 H   0  0  0  0  0  0
  -30.2171  -16.0556   17.9225 H   0  0  0  0  0  0
  -29.9556  -23.8063   20.0705 H   0  0  0  0  0  0
  -28.9905  -23.6536   21.5118 H   0  0  0  0  0  0
  -27.3825  -22.1103   20.1970 H   0  0  0  0  0  0
  -28.4386  -22.2102   18.8389 H   0  0  0  0  0  0
  -27.0433  -24.6740   20.3975 H   0  0  0  0  0  0
  -27.8906  -24.7967   18.8776 H   0  0  0  0  0  0
  -31.3034  -17.2586   19.8393 H   0  0  0  0  0  0
  -28.9384  -15.7930   20.8517 H   0  0  0  0  0  0
  1 25  1  0  0  0
  1 30  2  0  0  0
  1 81  1  0  0  0
  2  3  1  0  0  0
  2 25  1  0  0  0
  2 82  1  0  0  0
  2 83  1  0  0  0
  3  4  1  0  0  0
  3 84  1  0  0  0
  3 85  1  0  0  0
  4  5  1  0  0  0
  4 86  1  0  0  0
  4 87  1  0  0  0
  5  6  1  0  0  0
  5 26  1  0  0  0
  5 88  1  0  0  0
  6 25  1  0  0  0
  6 89  1  0  0  0
  6 90  1  0  0  0
  7  8  2  0  0  0
  7 26  1  0  0  0
  7 29  1  0  0  0
  8  9  1  0  0  0
  8 22  1  0  0  0
  9 10  1  0  0  0
  9 27  2  0  0  0
 10 11  2  0  0  0
 10 15  1  0  0  0
 11 12  1  0  0  0
 11 91  1  0  0  0
 12 13  2  0  0  0
 12 92  1  0  0  0
 13 14  1  0  0  0
 13 31  1  0  0  0
 14 15  2  0  0  0
 14 93  1  0  0  0
 15 94  1  0  0  0
 16 17  2  0  0  0
 16 21  1  0  0  0
 16 31  1  0  0  0
 17 18  1  0  0  0
 17 95  1  0  0  0
 18 19  2  0  0  0
 18 96  1  0  0  0
 19 20  1  0  0  0
 19 24  1  0  0  0
 20 21  2  0  0  0
 20 97  1  0  0  0
 21 23  1  0  0  0
 22 28  1  0  0  0
 22 32  2  0  0  0
 26 27  1  0  0  0
 28 98  1  0  0  0
 28 99  1  0  0  0
 29100  1  0  0  0
 29101  1  0  0  0
 33 34  1  0  0  0
 33 66  1  0  0  0
 33 70  2  0  0  0
 34 36  1  0  0  0
 34 59  1  0  0  0
 34102  1  0  0  0
 35 44  2  0  0  0
 35 45  1  0  0  0
 35 68  1  0  0  0
 36 56  1  0  0  0
 36103  1  0  0  0
 37 39  1  0  0  0
 37 47  1  0  0  0
 37 66  1  0  0  0
 37104  1  0  0  0
 38 43  2  0  0  0
 38 46  1  0  0  0
 38 47  1  0  0  0
 39 64  1  0  0  0
 39 67  2  0  0  0
 40 52  1  0  0  0
 40 53  2  0  0  0
 40 58  1  0  0  0
 41105  1  0  0  0
 41106  1  0  0  0
 41107  1  0  0  0
 41 48  1  0  0  0
 42 43  1  0  0  0
 42 66  1  0  0  0
 42108  1  0  0  0
 42109  1  0  0  0
 43 44  1  0  0  0
 44110  1  0  0  0
 45 46  2  0  0  0
 45111  1  0  0  0
 46112  1  0  0  0
 47113  1  0  0  0
 47114  1  0  0  0
 48 56  1  0  0  0
 48 65  1  0  0  0
 48115  1  0  0  0
 49 50  1  0  0  0
 49 53  1  0  0  0
 49 64  1  0  0  0
 49116  1  0  0  0
 50 51  1  0  0  0
 50117  1  0  0  0
 50118  1  0  0  0
 51 52  1  0  0  0
 51119  1  0  0  0
 51120  1  0  0  0
 52121  1  0  0  0
 52122  1  0  0  0
 53 54  1  0  0  0
 54 55  2  0  0  0
 54123  1  0  0  0
 55 57  1  0  0  0
 55124  1  0  0  0
 56 69  2  0  0  0
 57 58  2  0  0  0
 57125  1  0  0  0
 58126  1  0  0  0
 59 60  1  0  0  0
 59 61  1  0  0  0
 59 62  1  0  0  0
 60127  1  0  0  0
 60128  1  0  0  0
 60129  1  0  0  0
 61130  1  0  0  0
 61131  1  0  0  0
 61132  1  0  0  0
 62133  1  0  0  0
 62134  1  0  0  0
 62135  1  0  0  0
 63 65  1  0  0  0
 63136  1  0  0  0
 63137  1  0  0  0
 63138  1  0  0  0
 64139  1  0  0  0
 65140  1  0  0  0
 68 77  1  0  0  0
 71 73  2  0  0  0
 71 80  1  0  0  0
 71141  1  0  0  0
 72 79  2  0  0  0
 72 80  1  0  0  0
 72142  1  0  0  0
 73 78  1  0  0  0
 73 79  1  0  0  0
 74143  1  0  0  0
 74144  1  0  0  0
 74145  1  0  0  0
 74 78  1  0  0  0
 75 76  1  0  0  0
 75 77  1  0  0  0
 75146  1  0  0  0
 75147  1  0  0  0
 76 80  1  0  0  0
 76148  1  0  0  0
 76149  1  0  0  0
 77150  1  0  0  0
 77151  1  0  0  0
 78 81  1  0  0  0
 78152  1  0  0  0
 81153  1  0  0  0
M  ISO  4   1 100  68 101  77 101  81 100
M  END
> <chiral flag>
0

> <version>
0

> <s_m_source_file>
/data/baiqing/PycharmProjects/Reinvent-master-3.2/result/LINK_invent/BTK/process_docking_weight1_custom_sum_contain_oxygen_bond_distance_aromatic_linkinvent_7_9_3/rearranged_h_0061.sdf

> <i_m_source_file_index>
70

> <r_mmod_Potential_Energy-OPLS-2005>
53.5424919128418

> <r_mmod_Stretch_Energy-OPLS-2005>
112.03498840332

> <r_mmod_Bend_Energy-OPLS-2005>
179.167984008789

> <r_mmod_Torsional_Energy-OPLS-2005>
222.809524536133

> <r_mmod_Improper_Torsional_Energy-OPLS-2005>
9.80238819122314

> <r_mmod_Van_der_Waal_Energy-OPLS-2005>
123.779716491699

> <r_mmod_Electrostatic_Energy-OPLS-2005>
-446.493133544922

> <r_mmod_Solvation_Energy-OPLS-2005>
-231.29020690918

> <b_mmod_Minimization_Converged-OPLS-2005>
0

> <r_mmod_RMS_Derivative-OPLS-2005>
2.5165479183197

$$$$
75
                    3D
 Structure written by MMmdl.
168176  0  0  1  0            999 V2000
  -30.6541  -14.7159   20.5298 C   0  0  0  0  0  0
  -30.4311  -12.4539   19.4734 C   0  0  0  0  0  0
  -29.5093  -12.5258   18.2359 C   0  0  0  0  0  0
  -28.0336  -12.3525   18.6418 C   0  0  0  0  0  0
  -27.6469  -13.2330   19.8592 C   0  0  2  0  0  0
  -28.6875  -13.1187   20.9909 C   0  0  0  0  0  0
  -25.2529  -13.8198   20.5697 C   0  0  0  0  0  0
  -24.1811  -13.0436   20.9171 C   0  0  0  0  0  0
  -24.6414  -11.6916   20.8744 C   0  0  0  0  0  0
  -23.9095  -10.4294   21.0421 C   0  0  0  0  0  0
  -24.3650   -9.4205   21.9191 C   0  0  0  0  0  0
  -23.6319   -8.2244   22.0754 C   0  0  0  0  0  0
  -22.4297   -8.0291   21.3541 C   0  0  0  0  0  0
  -21.9948   -9.0267   20.4641 C   0  0  0  0  0  0
  -22.7278  -10.2141   20.3061 C   0  0  0  0  0  0
  -21.6863   -6.0753   22.5274 C   0  0  0  0  0  0
  -21.4019   -6.5654   23.8206 C   0  0  0  0  0  0
  -21.3658   -5.6802   24.9170 C   0  0  0  0  0  0
  -21.6059   -4.3066   24.7221 C   0  0  0  0  0  0
  -21.8825   -3.8156   23.4340 C   0  0  0  0  0  0
  -21.9191   -4.6977   22.3398 C   0  0  0  0  0  0
  -22.7829  -13.5213   21.1839 C   0  0  0  0  0  0
  -22.1653   -4.2172   21.0973 F   0  0  0  0  0  0
  -21.5623   -3.4540   25.7723 F   0  0  0  0  0  0
  -29.9939  -13.5027   20.4311 N   0  0  0  0  0  0
  -26.2962  -12.9411   20.3316 N   0  0  0  0  0  0
  -25.9344  -11.6540   20.5761 N   0  0  0  0  0  0
  -22.0483  -12.8197   22.0397 N   0  0  0  0  0  0
  -25.4238  -15.1932   20.4174 N   0  0  0  0  0  0
  -31.7972  -14.8043   20.0689 O   0  0  0  0  0  0
  -21.6648   -6.8895   21.4235 O   0  0  0  0  0  0
  -22.3497  -14.5506   20.6672 O   0  0  0  0  0  0
  -24.6303  -31.8562   23.1983 C   0  0  0  0  0  0
  -25.9132  -32.4753   23.8335 C   0  0  1  0  0  0
  -27.2155  -27.2731   20.1435 C   0  0  0  0  0  0
  -25.5928  -33.8554   24.2252 N   0  0  0  0  0  0
  -23.4263  -30.4783   21.5417 C   0  0  2  0  0  0
  -24.8730  -28.9251   20.1106 C   0  0  0  0  0  0
  -22.7508  -29.4609   22.4919 C   0  0  0  0  0  0
  -18.0294  -28.1390   22.8487 C   0  0  0  0  0  0
  -24.1484  -36.7286   23.2638 C   0  0  0  0  0  0
  -25.9704  -30.7745   21.3744 C   0  0  0  0  0  0
  -26.0438  -29.3967   20.7200 C   0  0  0  0  0  0
  -27.2218  -28.5856   20.7201 C   0  0  0  0  0  0
  -26.0307  -26.8677   19.4949 C   0  0  0  0  0  0
  -24.8716  -27.6701   19.4820 C   0  0  0  0  0  0
  -23.6431  -29.8113   20.1578 C   0  0  0  0  0  0
  -25.4112  -36.3070   24.0326 C   0  0  1  0  0  0
  -20.5897  -28.3700   23.1269 C   0  0  2  0  0  0
  -20.6780  -26.9413   22.5413 C   0  0  0  0  0  0
  -19.5754  -26.6383   21.5219 C   0  0  0  0  0  0
  -18.1933  -26.7929   22.1633 C   0  0  0  0  0  0
  -19.1547  -28.8872   23.2863 C   0  0  0  0  0  0
  -18.9471  -30.1469   23.8880 C   0  0  0  0  0  0
  -17.6463  -30.6582   24.0575 C   0  0  0  0  0  0
  -25.9061  -34.9443   23.5098 C   0  0  0  0  0  0
  -16.5364  -29.9086   23.6338 C   0  0  0  0  0  0
  -16.7282  -28.6505   23.0337 C   0  0  0  0  0  0
  -26.4500  -31.6576   25.0726 C   0  0  0  0  0  0
  -25.3720  -31.3709   26.1445 C   0  0  0  0  0  0
  -27.0333  -30.2991   24.6195 C   0  0  0  0  0  0
  -27.6065  -32.4319   25.7484 C   0  0  0  0  0  0
  -27.5575  -37.1792   24.8461 C   0  0  0  0  0  0
  -21.4215  -29.3043   22.3664 N   0  0  0  0  0  0
  -26.4281  -37.3775   23.9414 N   0  0  0  0  0  0
  -24.6952  -31.0533   22.0952 N   0  0  0  0  0  0
  -23.4209  -28.8158   23.3031 O   0  0  0  0  0  0
  -28.3049  -26.3791   20.1788 O   0  0  0  0  0  0
  -26.5641  -34.8916   22.4669 O   0  0  0  0  0  0
  -23.5461  -32.1396   23.7277 O   0  0  0  0  0  0
  -30.0393  -20.0166   20.3370 C   0  0  0  0  0  0
  -29.6188  -18.6283   20.5569 C   0  0  0  0  0  0
  -29.0336  -20.8638   20.8214 C   0  0  0  0  0  0
  -31.9243  -19.6048   18.6385 C   0  0  0  0  0  0
  -30.4164  -24.2520   20.2140 C   0  0  0  0  0  0
  -28.5526  -23.3233   18.7893 C   0  0  0  0  0  0
  -26.7616  -20.2281   21.8312 C   0  0  0  0  0  0
  -29.4417  -15.9957   22.2446 C   0  0  0  0  0  0
  -31.3558  -20.4901   19.7583 C   0  0  0  0  0  0
  -30.3636  -17.2436   20.2896 C   0  0  0  0  0  0
  -28.9113  -22.4131   21.1892 C   0  0  0  0  0  0
  -28.0689  -24.9858   20.6904 C   0  0  0  0  0  0
  -28.9701  -23.7189   20.2152 C   0  0  0  0  0  0
  -28.3853  -18.6488   21.0354 N   0  0  0  0  0  0
  -28.0488  -19.9566   21.2161 N   0  0  0  0  0  0
  -29.9734  -15.8840   20.8822 N   0  0  0  0  0  0
  -31.4721  -12.5691   19.1652 H   0  0  0  0  0  0
  -30.3739  -11.4667   19.9361 H   0  0  0  0  0  0
  -29.7889  -11.7620   17.5100 H   0  0  0  0  0  0
  -29.6415  -13.4862   17.7348 H   0  0  0  0  0  0
  -27.8756  -11.2986   18.8756 H   0  0  0  0  0  0
  -27.3859  -12.5778   17.7945 H   0  0  0  0  0  0
  -27.6566  -14.2669   19.5107 H   0  0  0  0  0  0
  -28.7233  -12.0969   21.3723 H   0  0  0  0  0  0
  -28.3909  -13.7275   21.8393 H   0  0  0  0  0  0
  -25.2804   -9.5677   22.4764 H   0  0  0  0  0  0
  -24.0031   -7.4640   22.7489 H   0  0  0  0  0  0
  -21.0876   -8.8813   19.8947 H   0  0  0  0  0  0
  -22.3760  -10.9697   19.6176 H   0  0  0  0  0  0
  -21.2021   -7.6158   23.9725 H   0  0  0  0  0  0
  -21.1462   -6.0521   25.9081 H   0  0  0  0  0  0
  -22.0605   -2.7615   23.2828 H   0  0  0  0  0  0
  -22.4121  -11.9868   22.4789 H   0  0  0  0  0  0
  -21.1093  -13.1198   22.2586 H   0  0  0  0  0  0
  -24.6687  -15.8543   20.5628 H   0  0  0  0  0  0
  -26.2948  -15.6395   20.1561 H   0  0  0  0  0  0
  -26.7211  -32.5400   23.1091 H   0  0  0  0  0  0
  -25.0064  -33.9715   25.0392 H   0  0  0  0  0  0
  -22.7225  -31.2998   21.3956 H   0  0  0  0  0  0
  -23.3753  -35.9608   23.3289 H   0  0  0  0  0  0
  -24.3578  -36.8927   22.2054 H   0  0  0  0  0  0
  -23.7241  -37.6481   23.6681 H   0  0  0  0  0  0
  -26.1032  -31.5320   20.6010 H   0  0  0  0  0  0
  -26.8517  -30.8272   22.0024 H   0  0  0  0  0  0
  -28.1205  -28.9445   21.2037 H   0  0  0  0  0  0
  -25.9881  -25.9076   19.0013 H   0  0  0  0  0  0
  -23.9807  -27.3079   18.9882 H   0  0  0  0  0  0
  -23.7654  -30.5901   19.4035 H   0  0  0  0  0  0
  -22.7610  -29.2440   19.8551 H   0  0  0  0  0  0
  -25.1284  -36.1923   25.0818 H   0  0  0  0  0  0
  -20.9985  -28.3283   24.1389 H   0  0  0  0  0  0
  -20.5678  -26.2316   23.3622 H   0  0  0  0  0  0
  -21.6645  -26.7431   22.1201 H   0  0  0  0  0  0
  -19.6915  -25.6295   21.1244 H   0  0  0  0  0  0
  -19.6683  -27.3203   20.6754 H   0  0  0  0  0  0
  -17.4199  -26.6688   21.4030 H   0  0  0  0  0  0
  -18.0320  -26.0065   22.9026 H   0  0  0  0  0  0
  -19.7941  -30.7293   24.2225 H   0  0  0  0  0  0
  -17.5016  -31.6254   24.5188 H   0  0  0  0  0  0
  -15.5360  -30.2977   23.7654 H   0  0  0  0  0  0
  -15.8685  -28.0831   22.7029 H   0  0  0  0  0  0
  -24.5942  -30.6999   25.7785 H   0  0  0  0  0  0
  -24.8847  -32.2850   26.4841 H   0  0  0  0  0  0
  -25.8051  -30.8938   27.0247 H   0  0  0  0  0  0
  -26.2905  -29.6746   24.1222 H   0  0  0  0  0  0
  -27.4013  -29.7251   25.4710 H   0  0  0  0  0  0
  -27.8778  -30.4251   23.9420 H   0  0  0  0  0  0
  -27.2703  -33.3660   26.1997 H   0  0  0  0  0  0
  -28.3897  -32.6820   25.0313 H   0  0  0  0  0  0
  -28.0701  -31.8479   26.5446 H   0  0  0  0  0  0
  -28.2577  -38.0100   24.7529 H   0  0  0  0  0  0
  -28.1089  -36.2642   24.6262 H   0  0  0  0  0  0
  -27.2297  -37.1401   25.8861 H   0  0  0  0  0  0
  -20.9414  -29.8770   21.6863 H   0  0  0  0  0  0
  -26.0158  -38.2838   24.1447 H   0  0  0  0  0  0
  -32.7675  -20.0985   18.1544 H   0  0  0  0  0  0
  -31.1795  -19.4039   17.8674 H   0  0  0  0  0  0
  -32.3000  -18.6540   19.0113 H   0  0  0  0  0  0
  -31.1438  -23.5142   19.8919 H   0  0  0  0  0  0
  -30.7145  -24.5805   21.2111 H   0  0  0  0  0  0
  -30.5198  -25.1103   19.5501 H   0  0  0  0  0  0
  -29.1852  -22.5324   18.3864 H   0  0  0  0  0  0
  -28.6150  -24.1729   18.1089 H   0  0  0  0  0  0
  -27.5224  -22.9640   18.7675 H   0  0  0  0  0  0
  -26.1776  -20.8841   21.1861 H   0  0  0  0  0  0
  -26.9064  -20.7093   22.7986 H   0  0  0  0  0  0
  -26.2020  -19.3044   21.9876 H   0  0  0  0  0  0
  -29.7458  -15.1676   22.8872 H   0  0  0  0  0  0
  -28.3523  -16.0380   22.2203 H   0  0  0  0  0  0
  -29.7964  -16.9013   22.7384 H   0  0  0  0  0  0
  -32.1022  -20.6127   20.5438 H   0  0  0  0  0  0
  -31.2274  -21.4758   19.3200 H   0  0  0  0  0  0
  -31.4018  -17.3811   20.5931 H   0  0  0  0  0  0
  -30.4066  -17.0973   19.2096 H   0  0  0  0  0  0
  -29.6267  -22.5856   21.9942 H   0  0  0  0  0  0
  -27.9624  -22.5286   21.7095 H   0  0  0  0  0  0
  -28.1922  -25.0711   21.7708 H   0  0  0  0  0  0
  -27.0235  -24.7041   20.5728 H   0  0  0  0  0  0
  1 25  1  0  0  0
  1 30  2  0  0  0
  1 86  1  0  0  0
  2  3  1  0  0  0
  2 25  1  0  0  0
  2 87  1  0  0  0
  2 88  1  0  0  0
  3  4  1  0  0  0
  3 89  1  0  0  0
  3 90  1  0  0  0
  4  5  1  0  0  0
  4 91  1  0  0  0
  4 92  1  0  0  0
  5  6  1  0  0  0
  5 26  1  0  0  0
  5 93  1  0  0  0
  6 25  1  0  0  0
  6 94  1  0  0  0
  6 95  1  0  0  0
  7  8  2  0  0  0
  7 26  1  0  0  0
  7 29  1  0  0  0
  8  9  1  0  0  0
  8 22  1  0  0  0
  9 10  1  0  0  0
  9 27  2  0  0  0
 10 11  2  0  0  0
 10 15  1  0  0  0
 11 12  1  0  0  0
 11 96  1  0  0  0
 12 13  2  0  0  0
 12 97  1  0  0  0
 13 14  1  0  0  0
 13 31  1  0  0  0
 14 15  2  0  0  0
 14 98  1  0  0  0
 15 99  1  0  0  0
 16 17  2  0  0  0
 16 21  1  0  0  0
 16 31  1  0  0  0
 17 18  1  0  0  0
 17100  1  0  0  0
 18 19  2  0  0  0
 18101  1  0  0  0
 19 20  1  0  0  0
 19 24  1  0  0  0
 20 21  2  0  0  0
 20102  1  0  0  0
 21 23  1  0  0  0
 22 28  1  0  0  0
 22 32  2  0  0  0
 26 27  1  0  0  0
 28103  1  0  0  0
 28104  1  0  0  0
 29105  1  0  0  0
 29106  1  0  0  0
 33 34  1  0  0  0
 33 66  1  0  0  0
 33 70  2  0  0  0
 34 36  1  0  0  0
 34 59  1  0  0  0
 34107  1  0  0  0
 35 44  2  0  0  0
 35 45  1  0  0  0
 35 68  1  0  0  0
 36 56  1  0  0  0
 36108  1  0  0  0
 37 39  1  0  0  0
 37 47  1  0  0  0
 37 66  1  0  0  0
 37109  1  0  0  0
 38 43  2  0  0  0
 38 46  1  0  0  0
 38 47  1  0  0  0
 39 64  1  0  0  0
 39 67  2  0  0  0
 40 52  1  0  0  0
 40 53  2  0  0  0
 40 58  1  0  0  0
 41110  1  0  0  0
 41111  1  0  0  0
 41112  1  0  0  0
 41 48  1  0  0  0
 42 43  1  0  0  0
 42 66  1  0  0  0
 42113  1  0  0  0
 42114  1  0  0  0
 43 44  1  0  0  0
 44115  1  0  0  0
 45 46  2  0  0  0
 45116  1  0  0  0
 46117  1  0  0  0
 47118  1  0  0  0
 47119  1  0  0  0
 48 56  1  0  0  0
 48 65  1  0  0  0
 48120  1  0  0  0
 49 50  1  0  0  0
 49 53  1  0  0  0
 49 64  1  0  0  0
 49121  1  0  0  0
 50 51  1  0  0  0
 50122  1  0  0  0
 50123  1  0  0  0
 51 52  1  0  0  0
 51124  1  0  0  0
 51125  1  0  0  0
 52126  1  0  0  0
 52127  1  0  0  0
 53 54  1  0  0  0
 54 55  2  0  0  0
 54128  1  0  0  0
 55 57  1  0  0  0
 55129  1  0  0  0
 56 69  2  0  0  0
 57 58  2  0  0  0
 57130  1  0  0  0
 58131  1  0  0  0
 59 60  1  0  0  0
 59 61  1  0  0  0
 59 62  1  0  0  0
 60132  1  0  0  0
 60133  1  0  0  0
 60134  1  0  0  0
 61135  1  0  0  0
 61136  1  0  0  0
 61137  1  0  0  0
 62138  1  0  0  0
 62139  1  0  0  0
 62140  1  0  0  0
 63 65  1  0  0  0
 63141  1  0  0  0
 63142  1  0  0  0
 63143  1  0  0  0
 64144  1  0  0  0
 65145  1  0  0  0
 68 82  1  0  0  0
 71 72  1  0  0  0
 71 73  2  0  0  0
 71 79  1  0  0  0
 72 80  1  0  0  0
 72 84  2  0  0  0
 73 81  1  0  0  0
 73 85  1  0  0  0
 74 79  1  0  0  0
 74146  1  0  0  0
 74147  1  0  0  0
 74148  1  0  0  0
 75149  1  0  0  0
 75150  1  0  0  0
 75151  1  0  0  0
 75 83  1  0  0  0
 76 83  1  0  0  0
 76152  1  0  0  0
 76153  1  0  0  0
 76154  1  0  0  0
 77 85  1  0  0  0
 77155  1  0  0  0
 77156  1  0  0  0
 77157  1  0  0  0
 78 86  1  0  0  0
 78158  1  0  0  0
 78159  1  0  0  0
 78160  1  0  0  0
 79161  1  0  0  0
 79162  1  0  0  0
 80 86  1  0  0  0
 80163  1  0  0  0
 80164  1  0  0  0
 81 83  1  0  0  0
 81165  1  0  0  0
 81166  1  0  0  0
 82 83  1  0  0  0
 82167  1  0  0  0
 82168  1  0  0  0
 84 85  1  0  0  0
M  ISO  4   1 100  68 101  82 101  86 100
M  END
> <chiral flag>
0

> <version>
0

> <s_m_source_file>
/data/baiqing/PycharmProjects/Reinvent-master-3.2/result/LINK_invent/BTK/process_docking_weight1_custom_sum_contain_oxygen_bond_distance_aromatic_linkinvent_7_9_3/rearranged_h_0061.sdf

> <i_m_source_file_index>
71

> <r_mmod_Potential_Energy-OPLS-2005>
239.977066040039

> <r_mmod_Stretch_Energy-OPLS-2005>
129.371826171875

> <r_mmod_Bend_Energy-OPLS-2005>
197.185760498047

> <r_mmod_Torsional_Energy-OPLS-2005>
280.601959228516

> <r_mmod_Improper_Torsional_Energy-OPLS-2005>
9.52343368530273

> <r_mmod_Van_der_Waal_Energy-OPLS-2005>
120.967468261719

> <r_mmod_Electrostatic_Energy-OPLS-2005>
-375.597595214844

> <r_mmod_Solvation_Energy-OPLS-2005>
-193.904708862305

> <b_mmod_Minimization_Converged-OPLS-2005>
0

> <r_mmod_RMS_Derivative-OPLS-2005>
2.14689826965332

$$$$
76
                    3D
 Structure written by MMmdl.
153161  0  0  1  0            999 V2000
  -30.5563  -14.8902   20.3867 C   0  0  0  0  0  0
  -30.4548  -12.5397   19.4936 C   0  0  0  0  0  0
  -29.5396  -12.5301   18.2497 C   0  0  0  0  0  0
  -28.0598  -12.3430   18.6492 C   0  0  0  0  0  0
  -27.6459  -13.2463   19.8448 C   0  0  2  0  0  0
  -28.6931  -13.2215   20.9806 C   0  0  0  0  0  0
  -25.2531  -13.8200   20.5672 C   0  0  0  0  0  0
  -24.1825  -13.0434   20.9191 C   0  0  0  0  0  0
  -24.6438  -11.6916   20.8723 C   0  0  0  0  0  0
  -23.9092  -10.4298   21.0397 C   0  0  0  0  0  0
  -24.3630   -9.4217   21.9171 C   0  0  0  0  0  0
  -23.6326   -8.2240   22.0752 C   0  0  0  0  0  0
  -22.4301   -8.0279   21.3527 C   0  0  0  0  0  0
  -21.9927   -9.0248   20.4617 C   0  0  0  0  0  0
  -22.7270  -10.2128   20.3033 C   0  0  0  0  0  0
  -21.6857   -6.0740   22.5280 C   0  0  0  0  0  0
  -21.4016   -6.5637   23.8210 C   0  0  0  0  0  0
  -21.3669   -5.6785   24.9168 C   0  0  0  0  0  0
  -21.6051   -4.3039   24.7227 C   0  0  0  0  0  0
  -21.8816   -3.8140   23.4340 C   0  0  0  0  0  0
  -21.9167   -4.6962   22.3398 C   0  0  0  0  0  0
  -22.7831  -13.5212   21.1806 C   0  0  0  0  0  0
  -22.1647   -4.2152   21.0992 F   0  0  0  0  0  0
  -21.5633   -3.4518   25.7729 F   0  0  0  0  0  0
  -29.9774  -13.6245   20.3910 N   0  0  0  0  0  0
  -26.2973  -12.9436   20.3216 N   0  0  0  0  0  0
  -25.9373  -11.6563   20.5700 N   0  0  0  0  0  0
  -22.0435  -12.8236   22.0358 N   0  0  0  0  0  0
  -25.4164  -15.1937   20.4098 N   0  0  0  0  0  0
  -31.7416  -14.9865   20.0644 O   0  0  0  0  0  0
  -21.6650   -6.8879   21.4239 O   0  0  0  0  0  0
  -22.3523  -14.5512   20.6615 O   0  0  0  0  0  0
  -24.6489  -31.8434   23.1896 C   0  0  0  0  0  0
  -25.9267  -32.4682   23.8276 C   0  0  1  0  0  0
  -27.2013  -27.1411   20.1223 C   0  0  0  0  0  0
  -25.6003  -33.8480   24.2186 N   0  0  0  0  0  0
  -23.4497  -30.4726   21.5352 C   0  0  2  0  0  0
  -24.8932  -28.9068   20.1061 C   0  0  0  0  0  0
  -22.7562  -29.4604   22.4816 C   0  0  0  0  0  0
  -18.0320  -28.1403   22.8482 C   0  0  0  0  0  0
  -24.1501  -36.7252   23.2629 C   0  0  0  0  0  0
  -26.0082  -30.7174   21.3912 C   0  0  0  0  0  0
  -26.0743  -29.3333   20.7267 C   0  0  0  0  0  0
  -27.2308  -28.4642   20.7235 C   0  0  0  0  0  0
  -25.9959  -26.8339   19.4478 C   0  0  0  0  0  0
  -24.8659  -27.6695   19.4558 C   0  0  0  0  0  0
  -23.6725  -29.8084   20.1533 C   0  0  0  0  0  0
  -25.4127  -36.3017   24.0303 C   0  0  1  0  0  0
  -20.5931  -28.3754   23.1192 C   0  0  2  0  0  0
  -20.6812  -26.9450   22.5389 C   0  0  0  0  0  0
  -19.5775  -26.6387   21.5209 C   0  0  0  0  0  0
  -18.1953  -26.7952   22.1620 C   0  0  0  0  0  0
  -19.1568  -28.8897   23.2840 C   0  0  0  0  0  0
  -18.9495  -30.1485   23.8874 C   0  0  0  0  0  0
  -17.6485  -30.6605   24.0566 C   0  0  0  0  0  0
  -25.9085  -34.9387   23.5047 C   0  0  0  0  0  0
  -16.5378  -29.9095   23.6347 C   0  0  0  0  0  0
  -16.7301  -28.6518   23.0375 C   0  0  0  0  0  0
  -26.4544  -31.6564   25.0749 C   0  0  0  0  0  0
  -25.3700  -31.3809   26.1430 C   0  0  0  0  0  0
  -27.0391  -30.2931   24.6411 C   0  0  0  0  0  0
  -27.6057  -32.4329   25.7573 C   0  0  0  0  0  0
  -27.5590  -37.1762   24.8435 C   0  0  0  0  0  0
  -21.4253  -29.3095   22.3552 N   0  0  0  0  0  0
  -26.4273  -37.3751   23.9413 N   0  0  0  0  0  0
  -24.7229  -31.0309   22.0939 N   0  0  0  0  0  0
  -23.4197  -28.8124   23.2951 O   0  0  0  0  0  0
  -28.2162  -26.1163   20.2056 O   0  0  0  0  0  0
  -26.5656  -34.8894   22.4621 O   0  0  0  0  0  0
  -23.5596  -32.1292   23.7128 O   0  0  0  0  0  0
  -27.9778  -22.3685   21.2123 C   0  0  0  0  0  0
  -28.5288  -23.2078   20.1997 C   0  0  0  0  0  0
  -29.1149  -20.3908   20.4904 C   0  0  0  0  0  0
  -28.8107  -18.3788   22.1227 C   0  0  0  0  0  0
  -31.0968  -19.1493   21.4798 C   0  0  0  0  0  0
  -27.8550  -24.6575   19.8016 C   0  0  0  0  0  0
  -29.7970  -17.5210   19.9698 C   0  0  0  0  0  0
  -29.6788  -18.8823   20.9380 C   0  0  0  0  0  0
  -28.2740  -21.0259   21.3459 N   0  0  0  0  0  0
  -29.3675  -22.5059   19.3476 N   0  0  0  0  0  0
  -29.6855  -21.1616   19.5113 N   0  0  0  0  0  0
  -29.7402  -16.0332   20.5114 N   0  0  0  0  0  0
  -31.4939  -12.6788   19.1921 H   0  0  0  0  0  0
  -30.4331  -11.5783   20.0094 H   0  0  0  0  0  0
  -29.8551  -11.7429   17.5640 H   0  0  0  0  0  0
  -29.6602  -13.4676   17.7049 H   0  0  0  0  0  0
  -27.9148  -11.2926   18.9106 H   0  0  0  0  0  0
  -27.4133  -12.5322   17.7924 H   0  0  0  0  0  0
  -27.6254  -14.2633   19.4521 H   0  0  0  0  0  0
  -28.7628  -12.2219   21.4157 H   0  0  0  0  0  0
  -28.4149  -13.8908   21.7964 H   0  0  0  0  0  0
  -25.2769   -9.5716   22.4750 H   0  0  0  0  0  0
  -24.0004   -7.4659   22.7508 H   0  0  0  0  0  0
  -21.0831   -8.8804   19.8950 H   0  0  0  0  0  0
  -22.3732  -10.9675   19.6143 H   0  0  0  0  0  0
  -21.2047   -7.6150   23.9721 H   0  0  0  0  0  0
  -21.1487   -6.0507   25.9069 H   0  0  0  0  0  0
  -22.0585   -2.7603   23.2826 H   0  0  0  0  0  0
  -22.4013  -11.9966   22.4919 H   0  0  0  0  0  0
  -21.1034  -13.1278   22.2448 H   0  0  0  0  0  0
  -24.6460  -15.8405   20.5491 H   0  0  0  0  0  0
  -26.2303  -15.6325   20.0014 H   0  0  0  0  0  0
  -26.7359  -32.5273   23.1008 H   0  0  0  0  0  0
  -25.0094  -33.9583   25.0307 H   0  0  0  0  0  0
  -22.7589  -31.3046   21.3844 H   0  0  0  0  0  0
  -23.3782  -35.9562   23.3217 H   0  0  0  0  0  0
  -24.3616  -36.8962   22.2060 H   0  0  0  0  0  0
  -23.7224  -37.6411   23.6722 H   0  0  0  0  0  0
  -26.1710  -31.4774   20.6257 H   0  0  0  0  0  0
  -26.8779  -30.7558   22.0371 H   0  0  0  0  0  0
  -28.1273  -28.7834   21.2375 H   0  0  0  0  0  0
  -25.8669  -25.9044   18.9167 H   0  0  0  0  0  0
  -23.9673  -27.3395   18.9538 H   0  0  0  0  0  0
  -23.7998  -30.5828   19.3956 H   0  0  0  0  0  0
  -22.7889  -29.2469   19.8465 H   0  0  0  0  0  0
  -25.1311  -36.1813   25.0793 H   0  0  0  0  0  0
  -21.0061  -28.3370   24.1290 H   0  0  0  0  0  0
  -20.5708  -26.2366   23.3614 H   0  0  0  0  0  0
  -21.6672  -26.7450   22.1172 H   0  0  0  0  0  0
  -19.6924  -25.6286   21.1265 H   0  0  0  0  0  0
  -19.6712  -27.3159   20.6706 H   0  0  0  0  0  0
  -17.4221  -26.6712   21.4024 H   0  0  0  0  0  0
  -18.0355  -26.0103   22.9026 H   0  0  0  0  0  0
  -19.7964  -30.7324   24.2226 H   0  0  0  0  0  0
  -17.5041  -31.6287   24.5160 H   0  0  0  0  0  0
  -15.5369  -30.2987   23.7707 H   0  0  0  0  0  0
  -15.8707  -28.0833   22.7089 H   0  0  0  0  0  0
  -24.5861  -30.7181   25.7759 H   0  0  0  0  0  0
  -24.8905  -32.3008   26.4779 H   0  0  0  0  0  0
  -25.7934  -30.9019   27.0265 H   0  0  0  0  0  0
  -26.3009  -29.6658   24.1398 H   0  0  0  0  0  0
  -27.3897  -29.7259   25.5048 H   0  0  0  0  0  0
  -27.8982  -30.4105   23.9803 H   0  0  0  0  0  0
  -27.2623  -33.3618   26.2144 H   0  0  0  0  0  0
  -28.3902  -32.6905   25.0449 H   0  0  0  0  0  0
  -28.0702  -31.8462   26.5509 H   0  0  0  0  0  0
  -28.2505  -38.0159   24.7604 H   0  0  0  0  0  0
  -28.1179  -36.2683   24.6099 H   0  0  0  0  0  0
  -27.2321  -37.1216   25.8837 H   0  0  0  0  0  0
  -20.9447  -29.8817   21.6761 H   0  0  0  0  0  0
  -26.0120  -38.2794   24.1503 H   0  0  0  0  0  0
  -27.2254  -22.7522   21.8891 H   0  0  0  0  0  0
  -28.7219  -19.1232   22.9128 H   0  0  0  0  0  0
  -29.2332  -17.4944   22.6017 H   0  0  0  0  0  0
  -27.7999  -18.1375   21.7877 H   0  0  0  0  0  0
  -31.0820  -19.9064   22.2646 H   0  0  0  0  0  0
  -31.7377  -19.5337   20.6835 H   0  0  0  0  0  0
  -31.5682  -18.2518   21.8769 H   0  0  0  0  0  0
  -26.8395  -24.4918   20.1631 H   0  0  0  0  0  0
  -27.7796  -24.6527   18.7135 H   0  0  0  0  0  0
  -30.6678  -17.6217   19.3166 H   0  0  0  0  0  0
  -28.9490  -17.5765   19.2842 H   0  0  0  0  0  0
  -28.8144  -15.7829   20.8270 H   0  0  0  0  0  0
  1 25  1  0  0  0
  1 30  2  0  0  0
  1 82  1  0  0  0
  2  3  1  0  0  0
  2 25  1  0  0  0
  2 83  1  0  0  0
  2 84  1  0  0  0
  3  4  1  0  0  0
  3 85  1  0  0  0
  3 86  1  0  0  0
  4  5  1  0  0  0
  4 87  1  0  0  0
  4 88  1  0  0  0
  5  6  1  0  0  0
  5 26  1  0  0  0
  5 89  1  0  0  0
  6 25  1  0  0  0
  6 90  1  0  0  0
  6 91  1  0  0  0
  7  8  2  0  0  0
  7 26  1  0  0  0
  7 29  1  0  0  0
  8  9  1  0  0  0
  8 22  1  0  0  0
  9 10  1  0  0  0
  9 27  2  0  0  0
 10 11  2  0  0  0
 10 15  1  0  0  0
 11 12  1  0  0  0
 11 92  1  0  0  0
 12 13  2  0  0  0
 12 93  1  0  0  0
 13 14  1  0  0  0
 13 31  1  0  0  0
 14 15  2  0  0  0
 14 94  1  0  0  0
 15 95  1  0  0  0
 16 17  2  0  0  0
 16 21  1  0  0  0
 16 31  1  0  0  0
 17 18  1  0  0  0
 17 96  1  0  0  0
 18 19  2  0  0  0
 18 97  1  0  0  0
 19 20  1  0  0  0
 19 24  1  0  0  0
 20 21  2  0  0  0
 20 98  1  0  0  0
 21 23  1  0  0  0
 22 28  1  0  0  0
 22 32  2  0  0  0
 26 27  1  0  0  0
 28 99  1  0  0  0
 28100  1  0  0  0
 29101  1  0  0  0
 29102  1  0  0  0
 33 34  1  0  0  0
 33 66  1  0  0  0
 33 70  2  0  0  0
 34 36  1  0  0  0
 34 59  1  0  0  0
 34103  1  0  0  0
 35 44  2  0  0  0
 35 45  1  0  0  0
 35 68  1  0  0  0
 36 56  1  0  0  0
 36104  1  0  0  0
 37 39  1  0  0  0
 37 47  1  0  0  0
 37 66  1  0  0  0
 37105  1  0  0  0
 38 43  2  0  0  0
 38 46  1  0  0  0
 38 47  1  0  0  0
 39 64  1  0  0  0
 39 67  2  0  0  0
 40 52  1  0  0  0
 40 53  2  0  0  0
 40 58  1  0  0  0
 41106  1  0  0  0
 41107  1  0  0  0
 41108  1  0  0  0
 41 48  1  0  0  0
 42 43  1  0  0  0
 42 66  1  0  0  0
 42109  1  0  0  0
 42110  1  0  0  0
 43 44  1  0  0  0
 44111  1  0  0  0
 45 46  2  0  0  0
 45112  1  0  0  0
 46113  1  0  0  0
 47114  1  0  0  0
 47115  1  0  0  0
 48 56  1  0  0  0
 48 65  1  0  0  0
 48116  1  0  0  0
 49 50  1  0  0  0
 49 53  1  0  0  0
 49 64  1  0  0  0
 49117  1  0  0  0
 50 51  1  0  0  0
 50118  1  0  0  0
 50119  1  0  0  0
 51 52  1  0  0  0
 51120  1  0  0  0
 51121  1  0  0  0
 52122  1  0  0  0
 52123  1  0  0  0
 53 54  1  0  0  0
 54 55  2  0  0  0
 54124  1  0  0  0
 55 57  1  0  0  0
 55125  1  0  0  0
 56 69  2  0  0  0
 57 58  2  0  0  0
 57126  1  0  0  0
 58127  1  0  0  0
 59 60  1  0  0  0
 59 61  1  0  0  0
 59 62  1  0  0  0
 60128  1  0  0  0
 60129  1  0  0  0
 60130  1  0  0  0
 61131  1  0  0  0
 61132  1  0  0  0
 61133  1  0  0  0
 62134  1  0  0  0
 62135  1  0  0  0
 62136  1  0  0  0
 63 65  1  0  0  0
 63137  1  0  0  0
 63138  1  0  0  0
 63139  1  0  0  0
 64140  1  0  0  0
 65141  1  0  0  0
 68 76  1  0  0  0
 71 72  2  0  0  0
 71 79  1  0  0  0
 71142  1  0  0  0
 72 76  1  0  0  0
 72 80  1  0  0  0
 73 78  1  0  0  0
 73 79  2  0  0  0
 73 81  1  0  0  0
 74143  1  0  0  0
 74144  1  0  0  0
 74145  1  0  0  0
 74 78  1  0  0  0
 75 78  1  0  0  0
 75146  1  0  0  0
 75147  1  0  0  0
 75148  1  0  0  0
 76149  1  0  0  0
 76150  1  0  0  0
 77 78  1  0  0  0
 77 82  1  0  0  0
 77151  1  0  0  0
 77152  1  0  0  0
 80 81  2  0  0  0
 82153  1  0  0  0
M  ISO  4   1 100  68 101  76 101  82 100
M  END
> <chiral flag>
0

> <version>
0

> <s_m_source_file>
/data/baiqing/PycharmProjects/Reinvent-master-3.2/result/LINK_invent/BTK/process_docking_weight1_custom_sum_contain_oxygen_bond_distance_aromatic_linkinvent_7_9_3/rearranged_h_0061.sdf

> <i_m_source_file_index>
72

> <r_mmod_Potential_Energy-OPLS-2005>
494.744720458984

> <r_mmod_Stretch_Energy-OPLS-2005>
238.421783447266

> <r_mmod_Bend_Energy-OPLS-2005>
283.703063964844

> <r_mmod_Torsional_Energy-OPLS-2005>
229.625900268555

> <r_mmod_Improper_Torsional_Energy-OPLS-2005>
13.0687570571899

> <r_mmod_Van_der_Waal_Energy-OPLS-2005>
153.451934814453

> <r_mmod_Electrostatic_Energy-OPLS-2005>
-359.959594726562

> <r_mmod_Solvation_Energy-OPLS-2005>
-239.771270751953

> <b_mmod_Minimization_Converged-OPLS-2005>
0

> <r_mmod_RMS_Derivative-OPLS-2005>
4.60770034790039

$$$$
77
                    3D
 Structure written by MMmdl.
154162  0  0  1  0            999 V2000
  -30.4336  -15.2229   20.4524 C   0  0  0  0  0  0
  -30.4446  -12.7817   19.5580 C   0  0  0  0  0  0
  -29.5454  -12.5823   18.3074 C   0  0  0  0  0  0
  -28.0863  -12.3093   18.7150 C   0  0  0  0  0  0
  -27.6182  -13.2654   19.8379 C   0  0  2  0  0  0
  -28.6405  -13.3661   20.9859 C   0  0  0  0  0  0
  -25.2395  -13.8251   20.5730 C   0  0  0  0  0  0
  -24.1716  -13.0443   20.9216 C   0  0  0  0  0  0
  -24.6363  -11.6936   20.8719 C   0  0  0  0  0  0
  -23.9058  -10.4293   21.0380 C   0  0  0  0  0  0
  -24.3614   -9.4203   21.9153 C   0  0  0  0  0  0
  -23.6278   -8.2244   22.0746 C   0  0  0  0  0  0
  -22.4262   -8.0277   21.3541 C   0  0  0  0  0  0
  -21.9900   -9.0248   20.4638 C   0  0  0  0  0  0
  -22.7234  -10.2120   20.3029 C   0  0  0  0  0  0
  -21.6868   -6.0711   22.5265 C   0  0  0  0  0  0
  -21.4011   -6.5612   23.8191 C   0  0  0  0  0  0
  -21.3659   -5.6769   24.9161 C   0  0  0  0  0  0
  -21.6059   -4.3033   24.7221 C   0  0  0  0  0  0
  -21.8824   -3.8117   23.4346 C   0  0  0  0  0  0
  -21.9187   -4.6931   22.3396 C   0  0  0  0  0  0
  -22.7731  -13.5190   21.1891 C   0  0  0  0  0  0
  -22.1659   -4.2104   21.0976 F   0  0  0  0  0  0
  -21.5635   -3.4530   25.7742 F   0  0  0  0  0  0
  -29.8892  -13.9033   20.4085 N   0  0  0  0  0  0
  -26.2805  -12.9496   20.3205 N   0  0  0  0  0  0
  -25.9294  -11.6612   20.5687 N   0  0  0  0  0  0
  -22.0413  -12.8178   22.0466 N   0  0  0  0  0  0
  -25.4091  -15.1990   20.4242 N   0  0  0  0  0  0
  -31.5971  -15.2710   20.0211 O   0  0  0  0  0  0
  -21.6650   -6.8863   21.4232 O   0  0  0  0  0  0
  -22.3413  -14.5492   20.6743 O   0  0  0  0  0  0
  -24.6591  -31.8240   23.1711 C   0  0  0  0  0  0
  -25.9291  -32.4597   23.8177 C   0  0  1  0  0  0
  -27.2088  -26.9419   20.2134 C   0  0  0  0  0  0
  -25.5968  -33.8418   24.2093 N   0  0  0  0  0  0
  -23.4729  -30.4368   21.5157 C   0  0  2  0  0  0
  -24.9256  -28.8243   20.1139 C   0  0  0  0  0  0
  -22.7665  -29.4425   22.4735 C   0  0  0  0  0  0
  -18.0291  -28.1435   22.8431 C   0  0  0  0  0  0
  -24.1477  -36.7196   23.2653 C   0  0  0  0  0  0
  -26.0393  -30.6415   21.3952 C   0  0  0  0  0  0
  -26.1044  -29.2281   20.7523 C   0  0  0  0  0  0
  -27.2374  -28.3069   20.7778 C   0  0  0  0  0  0
  -26.0040  -26.6794   19.5240 C   0  0  0  0  0  0
  -24.8987  -27.5697   19.4805 C   0  0  0  0  0  0
  -23.7159  -29.7556   20.1395 C   0  0  0  0  0  0
  -25.4105  -36.2960   24.0318 C   0  0  1  0  0  0
  -20.5930  -28.3749   23.1181 C   0  0  2  0  0  0
  -20.6785  -26.9429   22.5400 C   0  0  0  0  0  0
  -19.5764  -26.6364   21.5218 C   0  0  0  0  0  0
  -18.1936  -26.7948   22.1615 C   0  0  0  0  0  0
  -19.1570  -28.8907   23.2801 C   0  0  0  0  0  0
  -18.9495  -30.1491   23.8839 C   0  0  0  0  0  0
  -17.6506  -30.6609   24.0553 C   0  0  0  0  0  0
  -25.9071  -34.9357   23.5010 C   0  0  0  0  0  0
  -16.5385  -29.9100   23.6362 C   0  0  0  0  0  0
  -16.7288  -28.6542   23.0335 C   0  0  0  0  0  0
  -26.4555  -31.6557   25.0714 C   0  0  0  0  0  0
  -25.3685  -31.3817   26.1374 C   0  0  0  0  0  0
  -27.0444  -30.2927   24.6417 C   0  0  0  0  0  0
  -27.6058  -32.4363   25.7516 C   0  0  0  0  0  0
  -27.5555  -37.1725   24.8450 C   0  0  0  0  0  0
  -21.4330  -29.3041   22.3550 N   0  0  0  0  0  0
  -26.4230  -37.3713   23.9446 N   0  0  0  0  0  0
  -24.7459  -30.9942   22.0821 N   0  0  0  0  0  0
  -23.4243  -28.7977   23.2932 O   0  0  0  0  0  0
  -28.2696  -25.9083   20.2354 O   0  0  0  0  0  0
  -26.5688  -34.8888   22.4609 O   0  0  0  0  0  0
  -23.5664  -32.1178   23.6803 O   0  0  0  0  0  0
  -27.6153  -22.1227   21.0403 C   0  0  0  0  0  0
  -29.4315  -23.5431   19.7883 C   0  0  0  0  0  0
  -28.7169  -21.2716   20.5457 C   0  0  0  0  0  0
  -28.3258  -24.3721   20.2754 C   0  0  0  0  0  0
  -27.6525  -19.1649   21.6233 C   0  0  0  0  0  0
  -30.0352  -19.8994   22.1954 C   0  0  0  0  0  0
  -29.2864  -16.3274   22.2532 C   0  0  0  0  0  0
  -29.6092  -18.0613   20.2990 C   0  0  0  0  0  0
  -29.0271  -19.6086   21.0611 C   0  0  0  0  0  0
  -29.6264  -22.1287   19.9190 N   0  0  0  0  0  0
  -27.4198  -23.5371   20.9209 N   0  0  0  0  0  0
  -29.7056  -16.4630   20.8471 N   0  0  0  0  0  0
  -31.4650  -12.9881   19.2324 H   0  0  0  0  0  0
  -30.5157  -11.8598   20.1374 H   0  0  0  0  0  0
  -29.9239  -11.7582   17.7001 H   0  0  0  0  0  0
  -29.5876  -13.4742   17.6800 H   0  0  0  0  0  0
  -28.0302  -11.2811   19.0738 H   0  0  0  0  0  0
  -27.4247  -12.3711   17.8504 H   0  0  0  0  0  0
  -27.5580  -14.2513   19.3748 H   0  0  0  0  0  0
  -28.7974  -12.3971   21.4596 H   0  0  0  0  0  0
  -28.2390  -14.0039   21.7671 H   0  0  0  0  0  0
  -25.2766   -9.5681   22.4718 H   0  0  0  0  0  0
  -23.9976   -7.4651   22.7481 H   0  0  0  0  0  0
  -21.0820   -8.8765   19.8956 H   0  0  0  0  0  0
  -22.3688  -10.9645   19.6126 H   0  0  0  0  0  0
  -21.2010   -7.6115   23.9684 H   0  0  0  0  0  0
  -21.1475   -6.0501   25.9059 H   0  0  0  0  0  0
  -22.0607   -2.7577   23.2870 H   0  0  0  0  0  0
  -22.4055  -11.9846   22.4839 H   0  0  0  0  0  0
  -21.1033  -13.1173   22.2686 H   0  0  0  0  0  0
  -24.6519  -15.8597   20.5610 H   0  0  0  0  0  0
  -26.2719  -15.6404   20.1341 H   0  0  0  0  0  0
  -26.7379  -32.5136   23.0907 H   0  0  0  0  0  0
  -25.0105  -33.9529   25.0234 H   0  0  0  0  0  0
  -22.7864  -31.2682   21.3453 H   0  0  0  0  0  0
  -23.3748  -35.9520   23.3276 H   0  0  0  0  0  0
  -24.3537  -36.8848   22.2068 H   0  0  0  0  0  0
  -23.7226  -37.6381   23.6712 H   0  0  0  0  0  0
  -26.2071  -31.3810   20.6102 H   0  0  0  0  0  0
  -26.9059  -30.7035   22.0423 H   0  0  0  0  0  0
  -28.1294  -28.6147   21.3031 H   0  0  0  0  0  0
  -25.8944  -25.7217   19.0368 H   0  0  0  0  0  0
  -24.0031  -27.2557   18.9637 H   0  0  0  0  0  0
  -23.8789  -30.5276   19.3869 H   0  0  0  0  0  0
  -22.8263  -29.2160   19.8107 H   0  0  0  0  0  0
  -25.1285  -36.1740   25.0810 H   0  0  0  0  0  0
  -21.0018  -28.3339   24.1305 H   0  0  0  0  0  0
  -20.5670  -26.2362   23.3637 H   0  0  0  0  0  0
  -21.6640  -26.7391   22.1210 H   0  0  0  0  0  0
  -19.6944  -25.6267   21.1257 H   0  0  0  0  0  0
  -19.6729  -27.3172   20.6756 H   0  0  0  0  0  0
  -17.4213  -26.6678   21.4019 H   0  0  0  0  0  0
  -18.0315  -26.0133   22.9054 H   0  0  0  0  0  0
  -19.7997  -30.7286   24.2215 H   0  0  0  0  0  0
  -17.5073  -31.6285   24.5152 H   0  0  0  0  0  0
  -15.5396  -30.2999   23.7716 H   0  0  0  0  0  0
  -15.8681  -28.0852   22.7083 H   0  0  0  0  0  0
  -24.5909  -30.7110   25.7681 H   0  0  0  0  0  0
  -24.8835  -32.3028   26.4636 H   0  0  0  0  0  0
  -25.7910  -30.9106   27.0260 H   0  0  0  0  0  0
  -26.3104  -29.6618   24.1395 H   0  0  0  0  0  0
  -27.3965  -29.7271   25.5059 H   0  0  0  0  0  0
  -27.9033  -30.4121   23.9809 H   0  0  0  0  0  0
  -27.2646  -33.3713   26.1977 H   0  0  0  0  0  0
  -28.3934  -32.6845   25.0388 H   0  0  0  0  0  0
  -28.0670  -31.8578   26.5530 H   0  0  0  0  0  0
  -28.2475  -38.0116   24.7574 H   0  0  0  0  0  0
  -28.1136  -36.2637   24.6137 H   0  0  0  0  0  0
  -27.2292  -37.1188   25.8855 H   0  0  0  0  0  0
  -20.9601  -29.8788   21.6735 H   0  0  0  0  0  0
  -26.0053  -38.2731   24.1582 H   0  0  0  0  0  0
  -26.8602  -21.6676   21.6625 H   0  0  0  0  0  0
  -30.2375  -24.0612   19.2876 H   0  0  0  0  0  0
  -27.3843  -19.6635   22.5553 H   0  0  0  0  0  0
  -27.5814  -18.1057   21.8268 H   0  0  0  0  0  0
  -26.8648  -19.3548   20.8924 H   0  0  0  0  0  0
  -29.6472  -20.6577   22.8795 H   0  0  0  0  0  0
  -30.9530  -20.3089   21.7726 H   0  0  0  0  0  0
  -30.3362  -19.0488   22.7937 H   0  0  0  0  0  0
  -28.2266  -16.0816   22.3400 H   0  0  0  0  0  0
  -29.4505  -17.2211   22.8390 H   0  0  0  0  0  0
  -29.8445  -15.5541   22.7892 H   0  0  0  0  0  0
  -30.6012  -18.2674   19.8963 H   0  0  0  0  0  0
  -28.9801  -17.9507   19.4157 H   0  0  0  0  0  0
  1 25  1  0  0  0
  1 30  2  0  0  0
  1 82  1  0  0  0
  2  3  1  0  0  0
  2 25  1  0  0  0
  2 83  1  0  0  0
  2 84  1  0  0  0
  3  4  1  0  0  0
  3 85  1  0  0  0
  3 86  1  0  0  0
  4  5  1  0  0  0
  4 87  1  0  0  0
  4 88  1  0  0  0
  5  6  1  0  0  0
  5 26  1  0  0  0
  5 89  1  0  0  0
  6 25  1  0  0  0
  6 90  1  0  0  0
  6 91  1  0  0  0
  7  8  2  0  0  0
  7 26  1  0  0  0
  7 29  1  0  0  0
  8  9  1  0  0  0
  8 22  1  0  0  0
  9 10  1  0  0  0
  9 27  2  0  0  0
 10 11  2  0  0  0
 10 15  1  0  0  0
 11 12  1  0  0  0
 11 92  1  0  0  0
 12 13  2  0  0  0
 12 93  1  0  0  0
 13 14  1  0  0  0
 13 31  1  0  0  0
 14 15  2  0  0  0
 14 94  1  0  0  0
 15 95  1  0  0  0
 16 17  2  0  0  0
 16 21  1  0  0  0
 16 31  1  0  0  0
 17 18  1  0  0  0
 17 96  1  0  0  0
 18 19  2  0  0  0
 18 97  1  0  0  0
 19 20  1  0  0  0
 19 24  1  0  0  0
 20 21  2  0  0  0
 20 98  1  0  0  0
 21 23  1  0  0  0
 22 28  1  0  0  0
 22 32  2  0  0  0
 26 27  1  0  0  0
 28 99  1  0  0  0
 28100  1  0  0  0
 29101  1  0  0  0
 29102  1  0  0  0
 33 34  1  0  0  0
 33 66  1  0  0  0
 33 70  2  0  0  0
 34 36  1  0  0  0
 34 59  1  0  0  0
 34103  1  0  0  0
 35 44  2  0  0  0
 35 45  1  0  0  0
 35 68  1  0  0  0
 36 56  1  0  0  0
 36104  1  0  0  0
 37 39  1  0  0  0
 37 47  1  0  0  0
 37 66  1  0  0  0
 37105  1  0  0  0
 38 43  2  0  0  0
 38 46  1  0  0  0
 38 47  1  0  0  0
 39 64  1  0  0  0
 39 67  2  0  0  0
 40 52  1  0  0  0
 40 53  2  0  0  0
 40 58  1  0  0  0
 41106  1  0  0  0
 41107  1  0  0  0
 41108  1  0  0  0
 41 48  1  0  0  0
 42 43  1  0  0  0
 42 66  1  0  0  0
 42109  1  0  0  0
 42110  1  0  0  0
 43 44  1  0  0  0
 44111  1  0  0  0
 45 46  2  0  0  0
 45112  1  0  0  0
 46113  1  0  0  0
 47114  1  0  0  0
 47115  1  0  0  0
 48 56  1  0  0  0
 48 65  1  0  0  0
 48116  1  0  0  0
 49 50  1  0  0  0
 49 53  1  0  0  0
 49 64  1  0  0  0
 49117  1  0  0  0
 50 51  1  0  0  0
 50118  1  0  0  0
 50119  1  0  0  0
 51 52  1  0  0  0
 51120  1  0  0  0
 51121  1  0  0  0
 52122  1  0  0  0
 52123  1  0  0  0
 53 54  1  0  0  0
 54 55  2  0  0  0
 54124  1  0  0  0
 55 57  1  0  0  0
 55125  1  0  0  0
 56 69  2  0  0  0
 57 58  2  0  0  0
 57126  1  0  0  0
 58127  1  0  0  0
 59 60  1  0  0  0
 59 61  1  0  0  0
 59 62  1  0  0  0
 60128  1  0  0  0
 60129  1  0  0  0
 60130  1  0  0  0
 61131  1  0  0  0
 61132  1  0  0  0
 61133  1  0  0  0
 62134  1  0  0  0
 62135  1  0  0  0
 62136  1  0  0  0
 63 65  1  0  0  0
 63137  1  0  0  0
 63138  1  0  0  0
 63139  1  0  0  0
 64140  1  0  0  0
 65141  1  0  0  0
 68 74  1  0  0  0
 71 73  2  0  0  0
 71 81  1  0  0  0
 71142  1  0  0  0
 72 74  1  0  0  0
 72 80  2  0  0  0
 72143  1  0  0  0
 73 79  1  0  0  0
 73 80  1  0  0  0
 74 81  2  0  0  0
 75144  1  0  0  0
 75145  1  0  0  0
 75146  1  0  0  0
 75 79  1  0  0  0
 76 79  1  0  0  0
 76147  1  0  0  0
 76148  1  0  0  0
 76149  1  0  0  0
 77 82  1  0  0  0
 77150  1  0  0  0
 77151  1  0  0  0
 77152  1  0  0  0
 78 79  1  0  0  0
 78 82  1  0  0  0
 78153  1  0  0  0
 78154  1  0  0  0
M  ISO  4   1 100  68 101  74 101  82 100
M  END
> <chiral flag>
0

> <version>
0

> <s_m_source_file>
/data/baiqing/PycharmProjects/Reinvent-master-3.2/result/LINK_invent/BTK/process_docking_weight1_custom_sum_contain_oxygen_bond_distance_aromatic_linkinvent_7_9_3/rearranged_h_0061.sdf

> <i_m_source_file_index>
73

> <r_mmod_Potential_Energy-OPLS-2005>
1440.64599609375

> <r_mmod_Stretch_Energy-OPLS-2005>
549.599853515625

> <r_mmod_Bend_Energy-OPLS-2005>
470.619934082031

> <r_mmod_Torsional_Energy-OPLS-2005>
286.065307617188

> <r_mmod_Improper_Torsional_Energy-OPLS-2005>
6.49591159820557

> <r_mmod_Van_der_Waal_Energy-OPLS-2005>
147.963836669922

> <r_mmod_Electrostatic_Energy-OPLS-2005>
-219.119110107422

> <r_mmod_Solvation_Energy-OPLS-2005>
-208.79997253418

> <b_mmod_Minimization_Converged-OPLS-2005>
0

> <r_mmod_RMS_Derivative-OPLS-2005>
4.33262968063354

$$$$
78
                    3D
 Structure written by MMmdl.
155163  0  0  1  0            999 V2000
  -30.5729  -15.0403   20.3770 C   0  0  0  0  0  0
  -30.4417  -12.6545   19.4977 C   0  0  0  0  0  0
  -29.5282  -12.5297   18.2570 C   0  0  0  0  0  0
  -28.0630  -12.3256   18.6857 C   0  0  0  0  0  0
  -27.6282  -13.2721   19.8337 C   0  0  2  0  0  0
  -28.6764  -13.3658   20.9643 C   0  0  0  0  0  0
  -25.2458  -13.8256   20.5789 C   0  0  0  0  0  0
  -24.1782  -13.0447   20.9246 C   0  0  0  0  0  0
  -24.6419  -11.6938   20.8782 C   0  0  0  0  0  0
  -23.9094  -10.4307   21.0423 C   0  0  0  0  0  0
  -24.3642   -9.4224   21.9197 C   0  0  0  0  0  0
  -23.6287   -8.2263   22.0785 C   0  0  0  0  0  0
  -22.4260   -8.0298   21.3567 C   0  0  0  0  0  0
  -21.9896   -9.0280   20.4692 C   0  0  0  0  0  0
  -22.7259  -10.2133   20.3079 C   0  0  0  0  0  0
  -21.6853   -6.0752   22.5257 C   0  0  0  0  0  0
  -21.4044   -6.5639   23.8210 C   0  0  0  0  0  0
  -21.3671   -5.6785   24.9166 C   0  0  0  0  0  0
  -21.6031   -4.3049   24.7207 C   0  0  0  0  0  0
  -21.8814   -3.8159   23.4318 C   0  0  0  0  0  0
  -21.9185   -4.6987   22.3375 C   0  0  0  0  0  0
  -22.7788  -13.5196   21.1875 C   0  0  0  0  0  0
  -22.1661   -4.2196   21.0957 F   0  0  0  0  0  0
  -21.5616   -3.4513   25.7712 F   0  0  0  0  0  0
  -29.9425  -13.7832   20.3428 N   0  0  0  0  0  0
  -26.2898  -12.9546   20.3273 N   0  0  0  0  0  0
  -25.9352  -11.6637   20.5713 N   0  0  0  0  0  0
  -22.0421  -12.8225   22.0444 N   0  0  0  0  0  0
  -25.4051  -15.1990   20.4330 N   0  0  0  0  0  0
  -31.7797  -15.0269   20.1235 O   0  0  0  0  0  0
  -21.6646   -6.8871   21.4218 O   0  0  0  0  0  0
  -22.3453  -14.5471   20.6700 O   0  0  0  0  0  0
  -24.6524  -31.8380   23.1853 C   0  0  0  0  0  0
  -25.9273  -32.4633   23.8264 C   0  0  1  0  0  0
  -27.2007  -27.0735   20.1476 C   0  0  0  0  0  0
  -25.5996  -33.8436   24.2191 N   0  0  0  0  0  0
  -23.4563  -30.4643   21.5303 C   0  0  2  0  0  0
  -24.9029  -28.8839   20.1084 C   0  0  0  0  0  0
  -22.7598  -29.4550   22.4803 C   0  0  0  0  0  0
  -18.0335  -28.1385   22.8471 C   0  0  0  0  0  0
  -24.1503  -36.7198   23.2639 C   0  0  0  0  0  0
  -26.0229  -30.6834   21.4037 C   0  0  0  0  0  0
  -26.0860  -29.2966   20.7334 C   0  0  0  0  0  0
  -27.2352  -28.4098   20.7365 C   0  0  0  0  0  0
  -25.9888  -26.7818   19.4803 C   0  0  0  0  0  0
  -24.8676  -27.6376   19.4706 C   0  0  0  0  0  0
  -23.6872  -29.7976   20.1503 C   0  0  0  0  0  0
  -25.4127  -36.2985   24.0342 C   0  0  1  0  0  0
  -20.5950  -28.3719   23.1202 C   0  0  2  0  0  0
  -20.6824  -26.9417   22.5390 C   0  0  0  0  0  0
  -19.5792  -26.6372   21.5203 C   0  0  0  0  0  0
  -18.1977  -26.7921   22.1614 C   0  0  0  0  0  0
  -19.1591  -28.8880   23.2827 C   0  0  0  0  0  0
  -18.9496  -30.1467   23.8865 C   0  0  0  0  0  0
  -17.6490  -30.6567   24.0577 C   0  0  0  0  0  0
  -25.9104  -34.9381   23.5097 C   0  0  0  0  0  0
  -16.5388  -29.9058   23.6339 C   0  0  0  0  0  0
  -16.7319  -28.6478   23.0370 C   0  0  0  0  0  0
  -26.4551  -31.6500   25.0729 C   0  0  0  0  0  0
  -25.3709  -31.3705   26.1402 C   0  0  0  0  0  0
  -27.0435  -30.2878   24.6410 C   0  0  0  0  0  0
  -27.6109  -32.4262   25.7463 C   0  0  0  0  0  0
  -27.5615  -37.1712   24.8443 C   0  0  0  0  0  0
  -21.4301  -29.3038   22.3530 N   0  0  0  0  0  0
  -26.4267  -37.3741   23.9471 N   0  0  0  0  0  0
  -24.7307  -31.0186   22.0915 N   0  0  0  0  0  0
  -23.4211  -28.8121   23.2987 O   0  0  0  0  0  0
  -28.2075  -26.0180   20.2304 O   0  0  0  0  0  0
  -26.5724  -34.8897   22.4681 O   0  0  0  0  0  0
  -23.5634  -32.1302   23.7023 O   0  0  0  0  0  0
  -28.1092  -21.7228   20.3648 C   0  0  0  0  0  0
  -28.6065  -23.0504   20.1917 C   0  0  0  0  0  0
  -28.9749  -18.9567   22.2265 C   0  0  0  0  0  0
  -30.2761  -17.9734   18.6416 C   0  0  0  0  0  0
  -31.5721  -18.1819   20.7242 C   0  0  0  0  0  0
  -27.8360  -24.5170   19.8947 C   0  0  0  0  0  0
  -29.1144  -19.1090   20.7010 C   0  0  2  0  0  0
  -30.1646  -17.8481   20.1733 C   0  0  0  0  0  0
  -29.9849  -22.7651   20.1022 N   0  0  0  0  0  0
  -30.2797  -21.4620   20.2493 N   0  0  0  0  0  0
  -29.1446  -20.6986   20.3779 N   0  0  0  0  0  0
  -29.8524  -16.2852   20.4748 N   0  0  0  0  0  0
  -31.4733  -12.8097   19.1703 H   0  0  0  0  0  0
  -30.4442  -11.7254   20.0656 H   0  0  0  0  0  0
  -29.8495  -11.6947   17.6312 H   0  0  0  0  0  0
  -29.6182  -13.4255   17.6400 H   0  0  0  0  0  0
  -27.9575  -11.2914   19.0076 H   0  0  0  0  0  0
  -27.4008  -12.4461   17.8287 H   0  0  0  0  0  0
  -27.5726  -14.2608   19.3808 H   0  0  0  0  0  0
  -28.7830  -12.4152   21.4850 H   0  0  0  0  0  0
  -28.3671  -14.1033   21.7089 H   0  0  0  0  0  0
  -25.2804   -9.5680   22.4757 H   0  0  0  0  0  0
  -24.0019   -7.4630   22.7462 H   0  0  0  0  0  0
  -21.0834   -8.8800   19.8989 H   0  0  0  0  0  0
  -22.3731  -10.9670   19.6191 H   0  0  0  0  0  0
  -21.2094   -7.6148   23.9705 H   0  0  0  0  0  0
  -21.1481   -6.0535   25.9059 H   0  0  0  0  0  0
  -22.0593   -2.7628   23.2794 H   0  0  0  0  0  0
  -22.4034  -11.9931   22.4905 H   0  0  0  0  0  0
  -21.1035  -13.1287   22.2643 H   0  0  0  0  0  0
  -24.6337  -15.8423   20.5779 H   0  0  0  0  0  0
  -26.2463  -15.6564   20.1087 H   0  0  0  0  0  0
  -26.7339  -32.5198   23.0977 H   0  0  0  0  0  0
  -25.0077  -33.9510   25.0295 H   0  0  0  0  0  0
  -22.7661  -31.2965   21.3755 H   0  0  0  0  0  0
  -23.3836  -35.9443   23.3155 H   0  0  0  0  0  0
  -24.3640  -36.8967   22.2090 H   0  0  0  0  0  0
  -23.7160  -37.6315   23.6746 H   0  0  0  0  0  0
  -26.2245  -31.4415   20.6467 H   0  0  0  0  0  0
  -26.8775  -30.7038   22.0672 H   0  0  0  0  0  0
  -28.1282  -28.7165   21.2632 H   0  0  0  0  0  0
  -25.8481  -25.8337   18.9864 H   0  0  0  0  0  0
  -23.9632  -27.3104   18.9769 H   0  0  0  0  0  0
  -23.8471  -30.5759   19.4043 H   0  0  0  0  0  0
  -22.7969  -29.2571   19.8231 H   0  0  0  0  0  0
  -25.1281  -36.1810   25.0833 H   0  0  0  0  0  0
  -21.0067  -28.3340   24.1312 H   0  0  0  0  0  0
  -20.5723  -26.2332   23.3608 H   0  0  0  0  0  0
  -21.6692  -26.7426   22.1188 H   0  0  0  0  0  0
  -19.6961  -25.6280   21.1244 H   0  0  0  0  0  0
  -19.6727  -27.3179   20.6732 H   0  0  0  0  0  0
  -17.4246  -26.6678   21.4026 H   0  0  0  0  0  0
  -18.0382  -26.0057   22.9000 H   0  0  0  0  0  0
  -19.7978  -30.7314   24.2199 H   0  0  0  0  0  0
  -17.5044  -31.6242   24.5188 H   0  0  0  0  0  0
  -15.5387  -30.2964   23.7663 H   0  0  0  0  0  0
  -15.8716  -28.0781   22.7103 H   0  0  0  0  0  0
  -24.5861  -30.7102   25.7678 H   0  0  0  0  0  0
  -24.8930  -32.2891   26.4826 H   0  0  0  0  0  0
  -25.7963  -30.8825   27.0181 H   0  0  0  0  0  0
  -26.3072  -29.6537   24.1463 H   0  0  0  0  0  0
  -27.4041  -29.7259   25.5037 H   0  0  0  0  0  0
  -27.8994  -30.4069   23.9765 H   0  0  0  0  0  0
  -27.2740  -33.3581   26.2003 H   0  0  0  0  0  0
  -28.3893  -32.6784   25.0245 H   0  0  0  0  0  0
  -28.0795  -31.8408   26.5381 H   0  0  0  0  0  0
  -28.2493  -38.0149   24.7728 H   0  0  0  0  0  0
  -28.1261  -36.2720   24.5947 H   0  0  0  0  0  0
  -27.2384  -37.0962   25.8840 H   0  0  0  0  0  0
  -20.9520  -29.8662   21.6630 H   0  0  0  0  0  0
  -26.0133  -38.2778   24.1573 H   0  0  0  0  0  0
  -27.0765  -21.4156   20.4733 H   0  0  0  0  0  0
  -28.7335  -17.9297   22.4949 H   0  0  0  0  0  0
  -28.1945  -19.5943   22.6345 H   0  0  0  0  0  0
  -29.8968  -19.2226   22.7434 H   0  0  0  0  0  0
  -30.4005  -19.0111   18.3247 H   0  0  0  0  0  0
  -29.3890  -17.5880   18.1441 H   0  0  0  0  0  0
  -31.1277  -17.4172   18.2448 H   0  0  0  0  0  0
  -31.8547  -19.2107   20.5028 H   0  0  0  0  0  0
  -32.3549  -17.5620   20.2840 H   0  0  0  0  0  0
  -31.6322  -18.0554   21.8019 H   0  0  0  0  0  0
  -26.8130  -24.3735   20.2481 H   0  0  0  0  0  0
  -27.7407  -24.5580   18.8076 H   0  0  0  0  0  0
  -28.1493  -18.8025   20.2979 H   0  0  0  0  0  0
  -28.8743  -16.1345   20.6777 H   0  0  0  0  0  0
  1 25  1  0  0  0
  1 30  2  0  0  0
  1 82  1  0  0  0
  2  3  1  0  0  0
  2 25  1  0  0  0
  2 83  1  0  0  0
  2 84  1  0  0  0
  3  4  1  0  0  0
  3 85  1  0  0  0
  3 86  1  0  0  0
  4  5  1  0  0  0
  4 87  1  0  0  0
  4 88  1  0  0  0
  5  6  1  0  0  0
  5 26  1  0  0  0
  5 89  1  0  0  0
  6 25  1  0  0  0
  6 90  1  0  0  0
  6 91  1  0  0  0
  7  8  2  0  0  0
  7 26  1  0  0  0
  7 29  1  0  0  0
  8  9  1  0  0  0
  8 22  1  0  0  0
  9 10  1  0  0  0
  9 27  2  0  0  0
 10 11  2  0  0  0
 10 15  1  0  0  0
 11 12  1  0  0  0
 11 92  1  0  0  0
 12 13  2  0  0  0
 12 93  1  0  0  0
 13 14  1  0  0  0
 13 31  1  0  0  0
 14 15  2  0  0  0
 14 94  1  0  0  0
 15 95  1  0  0  0
 16 17  2  0  0  0
 16 21  1  0  0  0
 16 31  1  0  0  0
 17 18  1  0  0  0
 17 96  1  0  0  0
 18 19  2  0  0  0
 18 97  1  0  0  0
 19 20  1  0  0  0
 19 24  1  0  0  0
 20 21  2  0  0  0
 20 98  1  0  0  0
 21 23  1  0  0  0
 22 28  1  0  0  0
 22 32  2  0  0  0
 26 27  1  0  0  0
 28 99  1  0  0  0
 28100  1  0  0  0
 29101  1  0  0  0
 29102  1  0  0  0
 33 34  1  0  0  0
 33 66  1  0  0  0
 33 70  2  0  0  0
 34 36  1  0  0  0
 34 59  1  0  0  0
 34103  1  0  0  0
 35 44  2  0  0  0
 35 45  1  0  0  0
 35 68  1  0  0  0
 36 56  1  0  0  0
 36104  1  0  0  0
 37 39  1  0  0  0
 37 47  1  0  0  0
 37 66  1  0  0  0
 37105  1  0  0  0
 38 43  2  0  0  0
 38 46  1  0  0  0
 38 47  1  0  0  0
 39 64  1  0  0  0
 39 67  2  0  0  0
 40 52  1  0  0  0
 40 53  2  0  0  0
 40 58  1  0  0  0
 41106  1  0  0  0
 41107  1  0  0  0
 41108  1  0  0  0
 41 48  1  0  0  0
 42 43  1  0  0  0
 42 66  1  0  0  0
 42109  1  0  0  0
 42110  1  0  0  0
 43 44  1  0  0  0
 44111  1  0  0  0
 45 46  2  0  0  0
 45112  1  0  0  0
 46113  1  0  0  0
 47114  1  0  0  0
 47115  1  0  0  0
 48 56  1  0  0  0
 48 65  1  0  0  0
 48116  1  0  0  0
 49 50  1  0  0  0
 49 53  1  0  0  0
 49 64  1  0  0  0
 49117  1  0  0  0
 50 51  1  0  0  0
 50118  1  0  0  0
 50119  1  0  0  0
 51 52  1  0  0  0
 51120  1  0  0  0
 51121  1  0  0  0
 52122  1  0  0  0
 52123  1  0  0  0
 53 54  1  0  0  0
 54 55  2  0  0  0
 54124  1  0  0  0
 55 57  1  0  0  0
 55125  1  0  0  0
 56 69  2  0  0  0
 57 58  2  0  0  0
 57126  1  0  0  0
 58127  1  0  0  0
 59 60  1  0  0  0
 59 61  1  0  0  0
 59 62  1  0  0  0
 60128  1  0  0  0
 60129  1  0  0  0
 60130  1  0  0  0
 61131  1  0  0  0
 61132  1  0  0  0
 61133  1  0  0  0
 62134  1  0  0  0
 62135  1  0  0  0
 62136  1  0  0  0
 63 65  1  0  0  0
 63137  1  0  0  0
 63138  1  0  0  0
 63139  1  0  0  0
 64140  1  0  0  0
 65141  1  0  0  0
 68 76  1  0  0  0
 71 72  2  0  0  0
 71 81  1  0  0  0
 71142  1  0  0  0
 72 76  1  0  0  0
 72 79  1  0  0  0
 73143  1  0  0  0
 73144  1  0  0  0
 73145  1  0  0  0
 73 77  1  0  0  0
 74146  1  0  0  0
 74147  1  0  0  0
 74148  1  0  0  0
 74 78  1  0  0  0
 75 78  1  0  0  0
 75149  1  0  0  0
 75150  1  0  0  0
 75151  1  0  0  0
 76152  1  0  0  0
 76153  1  0  0  0
 77 78  1  0  0  0
 77 81  1  0  0  0
 77154  1  0  0  0
 78 82  1  0  0  0
 79 80  2  0  0  0
 80 81  1  0  0  0
 82155  1  0  0  0
M  ISO  4   1 100  68 101  76 101  82 100
M  END
> <chiral flag>
0

> <version>
0

> <s_m_source_file>
/data/baiqing/PycharmProjects/Reinvent-master-3.2/result/LINK_invent/BTK/process_docking_weight1_custom_sum_contain_oxygen_bond_distance_aromatic_linkinvent_7_9_3/rearranged_h_0061.sdf

> <i_m_source_file_index>
74

> <r_mmod_Potential_Energy-OPLS-2005>
688.750305175781

> <r_mmod_Stretch_Energy-OPLS-2005>
335.550994873047

> <r_mmod_Bend_Energy-OPLS-2005>
319.069793701172

> <r_mmod_Torsional_Energy-OPLS-2005>
227.476058959961

> <r_mmod_Improper_Torsional_Energy-OPLS-2005>
6.37477159500122

> <r_mmod_Van_der_Waal_Energy-OPLS-2005>
111.962249755859

> <r_mmod_Electrostatic_Energy-OPLS-2005>
-341.387603759766

> <r_mmod_Solvation_Energy-OPLS-2005>
-234.118789672852

> <b_mmod_Minimization_Converged-OPLS-2005>
0

> <r_mmod_RMS_Derivative-OPLS-2005>
6.50845003128052

$$$$
79
                    3D
 Structure written by MMmdl.
160168  0  0  1  0            999 V2000
  -30.6109  -14.6919   20.3527 C   0  0  0  0  0  0
  -30.4614  -12.3859   19.4196 C   0  0  0  0  0  0
  -29.5077  -12.3731   18.2034 C   0  0  0  0  0  0
  -28.0328  -12.2431   18.6473 C   0  0  0  0  0  0
  -27.6515  -13.1856   19.8250 C   0  0  2  0  0  0
  -28.7095  -13.0393   20.9291 C   0  0  0  0  0  0
  -25.2660  -13.8117   20.5679 C   0  0  0  0  0  0
  -24.1827  -13.0398   20.9147 C   0  0  0  0  0  0
  -24.6397  -11.6890   20.8783 C   0  0  0  0  0  0
  -23.9042  -10.4282   21.0511 C   0  0  0  0  0  0
  -24.3604   -9.4201   21.9303 C   0  0  0  0  0  0
  -23.6242   -8.2266   22.0818 C   0  0  0  0  0  0
  -22.4268   -8.0321   21.3590 C   0  0  0  0  0  0
  -21.9937   -9.0280   20.4695 C   0  0  0  0  0  0
  -22.7259  -10.2148   20.3111 C   0  0  0  0  0  0
  -21.6869   -6.0735   22.5262 C   0  0  0  0  0  0
  -21.4014   -6.5617   23.8191 C   0  0  0  0  0  0
  -21.3657   -5.6784   24.9147 C   0  0  0  0  0  0
  -21.6070   -4.3044   24.7215 C   0  0  0  0  0  0
  -21.8824   -3.8139   23.4330 C   0  0  0  0  0  0
  -21.9189   -4.6954   22.3385 C   0  0  0  0  0  0
  -22.7889  -13.5287   21.1725 C   0  0  0  0  0  0
  -22.1657   -4.2136   21.0972 F   0  0  0  0  0  0
  -21.5652   -3.4529   25.7732 F   0  0  0  0  0  0
  -29.9983  -13.4468   20.3432 N   0  0  0  0  0  0
  -26.3019  -12.9236   20.3224 N   0  0  0  0  0  0
  -25.9301  -11.6446   20.5803 N   0  0  0  0  0  0
  -22.0352  -12.8314   22.0195 N   0  0  0  0  0  0
  -25.4341  -15.1824   20.4236 N   0  0  0  0  0  0
  -31.7903  -14.7857   20.0309 O   0  0  0  0  0  0
  -21.6665   -6.8886   21.4230 O   0  0  0  0  0  0
  -22.3622  -14.5612   20.6575 O   0  0  0  0  0  0
  -24.6251  -31.8620   23.1793 C   0  0  0  0  0  0
  -25.9091  -32.4773   23.8160 C   0  0  1  0  0  0
  -27.2436  -27.2582   20.1265 C   0  0  0  0  0  0
  -25.5939  -33.8551   24.2141 N   0  0  0  0  0  0
  -23.4132  -30.4778   21.5285 C   0  0  2  0  0  0
  -24.8581  -28.9084   20.0923 C   0  0  0  0  0  0
  -22.7452  -29.4620   22.4818 C   0  0  0  0  0  0
  -18.0337  -28.1398   22.8489 C   0  0  0  0  0  0
  -24.1463  -36.7213   23.2616 C   0  0  0  0  0  0
  -25.9435  -30.7842   21.3351 C   0  0  0  0  0  0
  -26.0214  -29.3929   20.6929 C   0  0  0  0  0  0
  -27.1995  -28.5776   20.7015 C   0  0  0  0  0  0
  -26.0441  -26.8262   19.4973 C   0  0  0  0  0  0
  -24.8718  -27.6307   19.4921 C   0  0  0  0  0  0
  -23.6271  -29.8072   20.1432 C   0  0  0  0  0  0
  -25.4088  -36.3014   24.0311 C   0  0  1  0  0  0
  -20.5929  -28.3683   23.1256 C   0  0  2  0  0  0
  -20.6829  -26.9410   22.5372 C   0  0  0  0  0  0
  -19.5774  -26.6364   21.5214 C   0  0  0  0  0  0
  -18.1945  -26.7929   22.1619 C   0  0  0  0  0  0
  -19.1597  -28.8846   23.2884 C   0  0  0  0  0  0
  -18.9570  -30.1449   23.8913 C   0  0  0  0  0  0
  -17.6582  -30.6648   24.0605 C   0  0  0  0  0  0
  -25.9099  -34.9422   23.5025 C   0  0  0  0  0  0
  -16.5457  -29.9176   23.6349 C   0  0  0  0  0  0
  -16.7337  -28.6597   23.0349 C   0  0  0  0  0  0
  -26.4507  -31.6621   25.0566 C   0  0  0  0  0  0
  -25.3736  -31.3706   26.1308 C   0  0  0  0  0  0
  -27.0421  -30.3134   24.5814 C   0  0  0  0  0  0
  -27.6021  -32.4360   25.7413 C   0  0  0  0  0  0
  -27.5518  -37.1709   24.8476 C   0  0  0  0  0  0
  -21.4185  -29.3089   22.3665 N   0  0  0  0  0  0
  -26.4182  -37.3760   23.9459 N   0  0  0  0  0  0
  -24.6795  -31.0545   22.0752 N   0  0  0  0  0  0
  -23.4217  -28.8157   23.2880 O   0  0  0  0  0  0
  -28.4191  -26.4584   20.2449 O   0  0  0  0  0  0
  -26.5618  -34.8997   22.4577 O   0  0  0  0  0  0
  -23.5426  -32.1461   23.7151 O   0  0  0  0  0  0
  -28.9091  -19.6303   19.4540 C   0  0  0  0  0  0
  -28.9013  -20.9356   20.0881 C   0  0  0  0  0  0
  -29.7097  -18.5588   20.0167 C   0  0  0  0  0  0
  -30.2814  -20.0371   21.7019 C   0  0  0  0  0  0
  -30.9352  -20.1795   23.0613 C   0  0  0  0  0  0
  -29.6422  -16.8180   17.9988 C   0  0  0  0  0  0
  -29.1623  -16.0867   21.6815 C   0  0  0  0  0  0
  -28.1706  -22.2750   19.6031 C   0  0  0  0  0  0
  -28.5628  -23.7059   20.3180 C   0  0  0  0  0  0
  -28.7760  -25.1493   19.5806 C   0  0  0  0  0  0
  -29.9978  -17.0712   19.4882 C   0  0  2  0  0  0
  -29.5500  -21.0550   21.2602 N   0  0  0  0  0  0
  -30.4429  -18.8651   21.1045 N   0  0  0  0  0  0
  -29.7991  -15.8252   20.3835 N   0  0  0  0  0  0
  -31.4883  -12.5311   19.0796 H   0  0  0  0  0  0
  -30.4652  -11.4134   19.9230 H   0  0  0  0  0  0
  -29.7628  -11.5212   17.5666 H   0  0  0  0  0  0
  -29.6550  -13.2599   17.5919 H   0  0  0  0  0  0
  -27.9007  -11.2050   18.9645 H   0  0  0  0  0  0
  -27.3590  -12.3665   17.7994 H   0  0  0  0  0  0
  -27.6736  -14.2081   19.4533 H   0  0  0  0  0  0
  -28.7440  -11.9941   21.2419 H   0  0  0  0  0  0
  -28.4291  -13.5679   21.8339 H   0  0  0  0  0  0
  -25.2696   -9.5678   22.4950 H   0  0  0  0  0  0
  -23.9956   -7.4660   22.7546 H   0  0  0  0  0  0
  -21.0902   -8.8817   19.8939 H   0  0  0  0  0  0
  -22.3771  -10.9737   19.6248 H   0  0  0  0  0  0
  -21.2008   -7.6120   23.9695 H   0  0  0  0  0  0
  -21.1495   -6.0503   25.9061 H   0  0  0  0  0  0
  -22.0625   -2.7596   23.2836 H   0  0  0  0  0  0
  -22.3740  -11.9850   22.4574 H   0  0  0  0  0  0
  -21.0985  -13.1507   22.2234 H   0  0  0  0  0  0
  -24.6699  -15.8336   20.5694 H   0  0  0  0  0  0
  -26.3211  -15.6422   20.2616 H   0  0  0  0  0  0
  -26.7119  -32.5512   23.0872 H   0  0  0  0  0  0
  -25.0290  -33.9704   25.0412 H   0  0  0  0  0  0
  -22.7056  -31.3019   21.3813 H   0  0  0  0  0  0
  -23.3815  -35.9466   23.3257 H   0  0  0  0  0  0
  -24.3553  -36.8853   22.2038 H   0  0  0  0  0  0
  -23.7116  -37.6338   23.6719 H   0  0  0  0  0  0
  -26.0241  -31.5269   20.5408 H   0  0  0  0  0  0
  -26.8406  -30.8783   21.9262 H   0  0  0  0  0  0
  -28.0934  -28.9480   21.1828 H   0  0  0  0  0  0
  -25.9772  -25.8424   19.0530 H   0  0  0  0  0  0
  -23.9594  -27.2707   19.0341 H   0  0  0  0  0  0
  -23.7430  -30.6030   19.4011 H   0  0  0  0  0  0
  -22.7321  -29.2650   19.8381 H   0  0  0  0  0  0
  -25.1191  -36.1795   25.0769 H   0  0  0  0  0  0
  -21.0073  -28.3315   24.1354 H   0  0  0  0  0  0
  -20.5756  -26.2306   23.3561 H   0  0  0  0  0  0
  -21.6674  -26.7405   22.1109 H   0  0  0  0  0  0
  -19.6931  -25.6260   21.1280 H   0  0  0  0  0  0
  -19.6758  -27.3188   20.6758 H   0  0  0  0  0  0
  -17.4183  -26.6737   21.4064 H   0  0  0  0  0  0
  -18.0366  -26.0057   22.8983 H   0  0  0  0  0  0
  -19.8089  -30.7259   24.2243 H   0  0  0  0  0  0
  -17.5223  -31.6338   24.5180 H   0  0  0  0  0  0
  -15.5497  -30.3153   23.7647 H   0  0  0  0  0  0
  -15.8702  -28.0990   22.6951 H   0  0  0  0  0  0
  -24.5921  -30.7016   25.7645 H   0  0  0  0  0  0
  -24.8930  -32.2899   26.4676 H   0  0  0  0  0  0
  -25.8036  -30.8926   27.0112 H   0  0  0  0  0  0
  -26.2986  -29.6873   24.0837 H   0  0  0  0  0  0
  -27.4437  -29.7270   25.4079 H   0  0  0  0  0  0
  -27.8646  -30.4615   23.8793 H   0  0  0  0  0  0
  -27.2617  -33.3752   26.1773 H   0  0  0  0  0  0
  -28.3992  -32.6762   25.0373 H   0  0  0  0  0  0
  -28.0533  -31.8632   26.5516 H   0  0  0  0  0  0
  -28.2403  -38.0145   24.7679 H   0  0  0  0  0  0
  -28.1125  -36.2639   24.6071 H   0  0  0  0  0  0
  -27.2305  -37.1069   25.8906 H   0  0  0  0  0  0
  -20.9290  -29.8851   21.6953 H   0  0  0  0  0  0
  -26.0065  -38.2732   24.1786 H   0  0  0  0  0  0
  -28.3316  -19.4626   18.5509 H   0  0  0  0  0  0
  -31.4621  -21.1276   23.1368 H   0  0  0  0  0  0
  -31.6460  -19.3746   23.2600 H   0  0  0  0  0  0
  -30.1593  -20.1441   23.8253 H   0  0  0  0  0  0
  -30.4021  -17.3003   17.3728 H   0  0  0  0  0  0
  -28.6760  -17.2453   17.7450 H   0  0  0  0  0  0
  -29.6325  -15.7532   17.7192 H   0  0  0  0  0  0
  -28.0847  -16.2290   21.5766 H   0  0  0  0  0  0
  -29.5859  -16.9483   22.1895 H   0  0  0  0  0  0
  -29.3436  -15.2866   22.3979 H   0  0  0  0  0  0
  -27.0980  -22.0870   19.7235 H   0  0  0  0  0  0
  -28.3029  -22.3485   18.5280 H   0  0  0  0  0  0
  -29.5668  -23.5121   20.6930 H   0  0  0  0  0  0
  -27.9736  -23.8153   21.2390 H   0  0  0  0  0  0
  -28.4943  -25.1380   18.5217 H   0  0  0  0  0  0
  -29.8816  -25.2268   19.4935 H   0  0  0  0  0  0
  -31.0796  -17.1309   19.3972 H   0  0  0  0  0  0
  1 25  1  0  0  0
  1 30  2  0  0  0
  1 84  1  0  0  0
  2  3  1  0  0  0
  2 25  1  0  0  0
  2 85  1  0  0  0
  2 86  1  0  0  0
  3  4  1  0  0  0
  3 87  1  0  0  0
  3 88  1  0  0  0
  4  5  1  0  0  0
  4 89  1  0  0  0
  4 90  1  0  0  0
  5  6  1  0  0  0
  5 26  1  0  0  0
  5 91  1  0  0  0
  6 25  1  0  0  0
  6 92  1  0  0  0
  6 93  1  0  0  0
  7  8  2  0  0  0
  7 26  1  0  0  0
  7 29  1  0  0  0
  8  9  1  0  0  0
  8 22  1  0  0  0
  9 10  1  0  0  0
  9 27  2  0  0  0
 10 11  2  0  0  0
 10 15  1  0  0  0
 11 12  1  0  0  0
 11 94  1  0  0  0
 12 13  2  0  0  0
 12 95  1  0  0  0
 13 14  1  0  0  0
 13 31  1  0  0  0
 14 15  2  0  0  0
 14 96  1  0  0  0
 15 97  1  0  0  0
 16 17  2  0  0  0
 16 21  1  0  0  0
 16 31  1  0  0  0
 17 18  1  0  0  0
 17 98  1  0  0  0
 18 19  2  0  0  0
 18 99  1  0  0  0
 19 20  1  0  0  0
 19 24  1  0  0  0
 20 21  2  0  0  0
 20100  1  0  0  0
 21 23  1  0  0  0
 22 28  1  0  0  0
 22 32  2  0  0  0
 26 27  1  0  0  0
 28101  1  0  0  0
 28102  1  0  0  0
 29103  1  0  0  0
 29104  1  0  0  0
 33 34  1  0  0  0
 33 66  1  0  0  0
 33 70  2  0  0  0
 34 36  1  0  0  0
 34 59  1  0  0  0
 34105  1  0  0  0
 35 44  2  0  0  0
 35 45  1  0  0  0
 35 68  1  0  0  0
 36 56  1  0  0  0
 36106  1  0  0  0
 37 39  1  0  0  0
 37 47  1  0  0  0
 37 66  1  0  0  0
 37107  1  0  0  0
 38 43  2  0  0  0
 38 46  1  0  0  0
 38 47  1  0  0  0
 39 64  1  0  0  0
 39 67  2  0  0  0
 40 52  1  0  0  0
 40 53  2  0  0  0
 40 58  1  0  0  0
 41108  1  0  0  0
 41109  1  0  0  0
 41110  1  0  0  0
 41 48  1  0  0  0
 42 43  1  0  0  0
 42 66  1  0  0  0
 42111  1  0  0  0
 42112  1  0  0  0
 43 44  1  0  0  0
 44113  1  0  0  0
 45 46  2  0  0  0
 45114  1  0  0  0
 46115  1  0  0  0
 47116  1  0  0  0
 47117  1  0  0  0
 48 56  1  0  0  0
 48 65  1  0  0  0
 48118  1  0  0  0
 49 50  1  0  0  0
 49 53  1  0  0  0
 49 64  1  0  0  0
 49119  1  0  0  0
 50 51  1  0  0  0
 50120  1  0  0  0
 50121  1  0  0  0
 51 52  1  0  0  0
 51122  1  0  0  0
 51123  1  0  0  0
 52124  1  0  0  0
 52125  1  0  0  0
 53 54  1  0  0  0
 54 55  2  0  0  0
 54126  1  0  0  0
 55 57  1  0  0  0
 55127  1  0  0  0
 56 69  2  0  0  0
 57 58  2  0  0  0
 57128  1  0  0  0
 58129  1  0  0  0
 59 60  1  0  0  0
 59 61  1  0  0  0
 59 62  1  0  0  0
 60130  1  0  0  0
 60131  1  0  0  0
 60132  1  0  0  0
 61133  1  0  0  0
 61134  1  0  0  0
 61135  1  0  0  0
 62136  1  0  0  0
 62137  1  0  0  0
 62138  1  0  0  0
 63 65  1  0  0  0
 63139  1  0  0  0
 63140  1  0  0  0
 63141  1  0  0  0
 64142  1  0  0  0
 65143  1  0  0  0
 68 80  1  0  0  0
 71 72  2  0  0  0
 71 73  1  0  0  0
 71144  1  0  0  0
 72 78  1  0  0  0
 72 82  1  0  0  0
 73 81  1  0  0  0
 73 83  2  0  0  0
 74 75  1  0  0  0
 74 82  2  0  0  0
 74 83  1  0  0  0
 75145  1  0  0  0
 75146  1  0  0  0
 75147  1  0  0  0
 76148  1  0  0  0
 76149  1  0  0  0
 76150  1  0  0  0
 76 81  1  0  0  0
 77 84  1  0  0  0
 77151  1  0  0  0
 77152  1  0  0  0
 77153  1  0  0  0
 78 79  1  0  0  0
 78154  1  0  0  0
 78155  1  0  0  0
 79 80  1  0  0  0
 79156  1  0  0  0
 79157  1  0  0  0
 80158  1  0  0  0
 80159  1  0  0  0
 81 84  1  0  0  0
 81160  1  0  0  0
M  ISO  4   1 100  68 101  80 101  84 100
M  END
> <chiral flag>
0

> <version>
0

> <s_m_source_file>
/data/baiqing/PycharmProjects/Reinvent-master-3.2/result/LINK_invent/BTK/process_docking_weight1_custom_sum_contain_oxygen_bond_distance_aromatic_linkinvent_7_9_3/rearranged_h_0061.sdf

> <i_m_source_file_index>
75

> <r_mmod_Potential_Energy-OPLS-2005>
-120.934509277344

> <r_mmod_Stretch_Energy-OPLS-2005>
148.630508422852

> <r_mmod_Bend_Energy-OPLS-2005>
243.829406738281

> <r_mmod_Torsional_Energy-OPLS-2005>
289.882049560547

> <r_mmod_Improper_Torsional_Energy-OPLS-2005>
11.358907699585

> <r_mmod_Van_der_Waal_Energy-OPLS-2005>
157.973052978516

> <r_mmod_Electrostatic_Energy-OPLS-2005>
-833.15673828125

> <r_mmod_Solvation_Energy-OPLS-2005>
-216.186080932617

> <b_mmod_Minimization_Converged-OPLS-2005>
0

> <r_mmod_RMS_Derivative-OPLS-2005>
17.3744354248047

$$$$
80
                    3D
 Structure written by MMmdl.
166174  0  0  1  0            999 V2000
  -30.6334  -14.7019   20.4811 C   0  0  0  0  0  0
  -30.4378  -12.4259   19.4795 C   0  0  0  0  0  0
  -29.5134  -12.4897   18.2424 C   0  0  0  0  0  0
  -28.0356  -12.3345   18.6524 C   0  0  0  0  0  0
  -27.6462  -13.2270   19.8611 C   0  0  2  0  0  0
  -28.6922  -13.1397   20.9992 C   0  0  0  0  0  0
  -25.2455  -13.8104   20.5785 C   0  0  0  0  0  0
  -24.1758  -13.0342   20.9171 C   0  0  0  0  0  0
  -24.6381  -11.6856   20.8709 C   0  0  0  0  0  0
  -23.9077  -10.4248   21.0371 C   0  0  0  0  0  0
  -24.3622   -9.4175   21.9155 C   0  0  0  0  0  0
  -23.6289   -8.2220   22.0750 C   0  0  0  0  0  0
  -22.4280   -8.0252   21.3524 C   0  0  0  0  0  0
  -21.9907   -9.0232   20.4634 C   0  0  0  0  0  0
  -22.7243  -10.2100   20.3035 C   0  0  0  0  0  0
  -21.6853   -6.0732   22.5279 C   0  0  0  0  0  0
  -21.4003   -6.5634   23.8206 C   0  0  0  0  0  0
  -21.3649   -5.6789   24.9177 C   0  0  0  0  0  0
  -21.6039   -4.3048   24.7231 C   0  0  0  0  0  0
  -21.8823   -3.8143   23.4348 C   0  0  0  0  0  0
  -21.9198   -4.6965   22.3408 C   0  0  0  0  0  0
  -22.7773  -13.5135   21.1836 C   0  0  0  0  0  0
  -22.1660   -4.2148   21.0978 F   0  0  0  0  0  0
  -21.5645   -3.4530   25.7743 F   0  0  0  0  0  0
  -30.0115  -13.4744   20.4366 N   0  0  0  0  0  0
  -26.2955  -12.9377   20.3361 N   0  0  0  0  0  0
  -25.9323  -11.6499   20.5742 N   0  0  0  0  0  0
  -22.0446  -12.8161   22.0444 N   0  0  0  0  0  0
  -25.3867  -15.1823   20.4423 N   0  0  0  0  0  0
  -31.7848  -14.8386   20.0624 O   0  0  0  0  0  0
  -21.6615   -6.8867   21.4243 O   0  0  0  0  0  0
  -22.3446  -14.5438   20.6683 O   0  0  0  0  0  0
  -24.6225  -31.8566   23.1944 C   0  0  0  0  0  0
  -25.9083  -32.4754   23.8290 C   0  0  1  0  0  0
  -27.2728  -27.3349   20.1200 C   0  0  0  0  0  0
  -25.5910  -33.8548   24.2251 N   0  0  0  0  0  0
  -23.4193  -30.4700   21.5359 C   0  0  2  0  0  0
  -24.8805  -28.9169   20.1147 C   0  0  0  0  0  0
  -22.7482  -29.4557   22.4918 C   0  0  0  0  0  0
  -18.0288  -28.1357   22.8420 C   0  0  0  0  0  0
  -24.1499  -36.7264   23.2648 C   0  0  0  0  0  0
  -25.9527  -30.7947   21.3589 C   0  0  0  0  0  0
  -26.0436  -29.4171   20.7106 C   0  0  0  0  0  0
  -27.2368  -28.6372   20.7027 C   0  0  0  0  0  0
  -26.0813  -26.8705   19.5167 C   0  0  0  0  0  0
  -24.9020  -27.6453   19.5077 C   0  0  0  0  0  0
  -23.6400  -29.7874   20.1578 C   0  0  0  0  0  0
  -25.4107  -36.3041   24.0354 C   0  0  1  0  0  0
  -20.5883  -28.3654   23.1296 C   0  0  2  0  0  0
  -20.6754  -26.9383   22.5390 C   0  0  0  0  0  0
  -19.5747  -26.6359   21.5179 C   0  0  0  0  0  0
  -18.1919  -26.7876   22.1590 C   0  0  0  0  0  0
  -19.1538  -28.8826   23.2824 C   0  0  0  0  0  0
  -18.9494  -30.1442   23.8840 C   0  0  0  0  0  0
  -17.6492  -30.6560   24.0545 C   0  0  0  0  0  0
  -25.9068  -34.9421   23.5098 C   0  0  0  0  0  0
  -16.5370  -29.9064   23.6319 C   0  0  0  0  0  0
  -16.7281  -28.6495   23.0291 C   0  0  0  0  0  0
  -26.4474  -31.6565   25.0660 C   0  0  0  0  0  0
  -25.3685  -31.3720   26.1399 C   0  0  0  0  0  0
  -27.0313  -30.2992   24.6032 C   0  0  0  0  0  0
  -27.6016  -32.4308   25.7447 C   0  0  0  0  0  0
  -27.5570  -37.1760   24.8469 C   0  0  0  0  0  0
  -21.4207  -29.2983   22.3686 N   0  0  0  0  0  0
  -26.4272  -37.3750   23.9443 N   0  0  0  0  0  0
  -24.6824  -31.0556   22.0889 N   0  0  0  0  0  0
  -23.4246  -28.8102   23.2966 O   0  0  0  0  0  0
  -28.4437  -26.5564   20.1558 O   0  0  0  0  0  0
  -26.5617  -34.8915   22.4669 O   0  0  0  0  0  0
  -23.5390  -32.1361   23.7266 O   0  0  0  0  0  0
  -30.4679  -20.5642   19.2990 C   0  0  0  0  0  0
  -30.2052  -21.9566   19.1821 C   0  0  0  0  0  0
  -30.2535  -19.9066   20.5375 C   0  0  0  0  0  0
  -29.7830  -22.6973   20.3187 C   0  0  0  0  0  0
  -30.8431  -24.8147   19.3496 C   0  0  0  0  0  0
  -30.2662  -24.7581   21.7468 C   0  0  0  0  0  0
  -27.7262  -17.6692   21.8353 C   0  0  0  0  0  0
  -30.6219  -18.3765   20.7882 C   0  0  0  0  0  0
  -28.4040  -25.0758   20.0351 C   0  0  0  0  0  0
  -30.0431  -17.0390   18.6605 C   0  0  0  0  0  0
  -29.7741  -24.2998   20.3523 C   0  0  0  0  0  0
  -29.7180  -17.1863   20.1836 C   0  0  2  0  0  0
  -28.2123  -17.5841   20.3676 C   0  0  0  0  0  0
  -29.7751  -20.6572   21.5768 N   0  0  0  0  0  0
  -29.5447  -21.9923   21.4695 N   0  0  0  0  0  0
  -29.8547  -15.7910   20.8005 N   0  0  0  0  0  0
  -29.6964  -18.1061   17.9492 F   0  0  0  0  0  0
  -29.4444  -15.9851   18.0996 F   0  0  0  0  0  0
  -27.4636  -16.6807   19.7491 F   0  0  0  0  0  0
  -27.9185  -18.7499   19.7933 F   0  0  0  0  0  0
  -31.4783  -12.5463   19.1740 H   0  0  0  0  0  0
  -30.3833  -11.4450   19.9492 H   0  0  0  0  0  0
  -29.7805  -11.7022   17.5371 H   0  0  0  0  0  0
  -29.6582  -13.4311   17.7152 H   0  0  0  0  0  0
  -27.8753  -11.2843   18.9018 H   0  0  0  0  0  0
  -27.3849  -12.5450   17.8022 H   0  0  0  0  0  0
  -27.6419  -14.2492   19.4849 H   0  0  0  0  0  0
  -28.7125  -12.1366   21.4284 H   0  0  0  0  0  0
  -28.4235  -13.8117   21.8169 H   0  0  0  0  0  0
  -25.2786   -9.5658   22.4706 H   0  0  0  0  0  0
  -23.9992   -7.4630   22.7484 H   0  0  0  0  0  0
  -21.0830   -8.8763   19.8947 H   0  0  0  0  0  0
  -22.3706  -10.9638   19.6136 H   0  0  0  0  0  0
  -21.1965   -7.6139   23.9713 H   0  0  0  0  0  0
  -21.1469   -6.0512   25.9071 H   0  0  0  0  0  0
  -22.0608   -2.7611   23.2853 H   0  0  0  0  0  0
  -22.4081  -11.9840   22.4843 H   0  0  0  0  0  0
  -21.1083  -13.1210   22.2691 H   0  0  0  0  0  0
  -24.5983  -15.8100   20.5399 H   0  0  0  0  0  0
  -26.2356  -15.6644   20.1627 H   0  0  0  0  0  0
  -26.7153  -32.5458   23.1068 H   0  0  0  0  0  0
  -25.0043  -33.9670   25.0382 H   0  0  0  0  0  0
  -22.7125  -31.2865   21.3829 H   0  0  0  0  0  0
  -23.3756  -35.9598   23.3300 H   0  0  0  0  0  0
  -24.3614  -36.8879   22.2058 H   0  0  0  0  0  0
  -23.7247  -37.6477   23.6688 H   0  0  0  0  0  0
  -26.0688  -31.5549   20.5849 H   0  0  0  0  0  0
  -26.8404  -30.8589   21.9758 H   0  0  0  0  0  0
  -28.1328  -29.0176   21.1759 H   0  0  0  0  0  0
  -26.0478  -25.8927   19.0546 H   0  0  0  0  0  0
  -24.0107  -27.2519   19.0393 H   0  0  0  0  0  0
  -23.7476  -30.5607   19.3967 H   0  0  0  0  0  0
  -22.7659  -29.2106   19.8593 H   0  0  0  0  0  0
  -25.1270  -36.1865   25.0832 H   0  0  0  0  0  0
  -20.9972  -28.3201   24.1427 H   0  0  0  0  0  0
  -20.5662  -26.2251   23.3561 H   0  0  0  0  0  0
  -21.6624  -26.7359   22.1213 H   0  0  0  0  0  0
  -19.6942  -25.6278   21.1197 H   0  0  0  0  0  0
  -19.6735  -27.3155   20.6721 H   0  0  0  0  0  0
  -17.4179  -26.6626   21.3988 H   0  0  0  0  0  0
  -18.0369  -26.0014   22.9007 H   0  0  0  0  0  0
  -19.7988  -30.7238   24.2194 H   0  0  0  0  0  0
  -17.5062  -31.6239   24.5153 H   0  0  0  0  0  0
  -15.5372  -30.2952   23.7702 H   0  0  0  0  0  0
  -15.8682  -28.0874   22.6971 H   0  0  0  0  0  0
  -24.5901  -30.7000   25.7772 H   0  0  0  0  0  0
  -24.8822  -32.2894   26.4716 H   0  0  0  0  0  0
  -25.7993  -30.9008   27.0231 H   0  0  0  0  0  0
  -26.2854  -29.6737   24.1109 H   0  0  0  0  0  0
  -27.4150  -29.7245   25.4478 H   0  0  0  0  0  0
  -27.8667  -30.4358   23.9153 H   0  0  0  0  0  0
  -27.2652  -33.3666   26.1903 H   0  0  0  0  0  0
  -28.3892  -32.6752   25.0311 H   0  0  0  0  0  0
  -28.0601  -31.8486   26.5435 H   0  0  0  0  0  0
  -28.2529  -38.0099   24.7531 H   0  0  0  0  0  0
  -28.1113  -36.2637   24.6278 H   0  0  0  0  0  0
  -27.2317  -37.1367   25.8869 H   0  0  0  0  0  0
  -20.9388  -29.8757   21.6950 H   0  0  0  0  0  0
  -26.0148  -38.2805   24.1458 H   0  0  0  0  0  0
  -30.8574  -20.0283   18.4476 H   0  0  0  0  0  0
  -30.3919  -22.4385   18.2365 H   0  0  0  0  0  0
  -31.8202  -24.3635   19.5385 H   0  0  0  0  0  0
  -30.9731  -25.8934   19.4106 H   0  0  0  0  0  0
  -30.5817  -24.6000   18.3128 H   0  0  0  0  0  0
  -31.2441  -24.3357   21.9868 H   0  0  0  0  0  0
  -29.5778  -24.4468   22.5331 H   0  0  0  0  0  0
  -30.3540  -25.8460   21.8096 H   0  0  0  0  0  0
  -27.6269  -16.6877   22.2964 H   0  0  0  0  0  0
  -26.7470  -18.1470   21.8979 H   0  0  0  0  0  0
  -28.3971  -18.2545   22.4662 H   0  0  0  0  0  0
  -30.6904  -18.2418   21.8698 H   0  0  0  0  0  0
  -31.6452  -18.2429   20.4368 H   0  0  0  0  0  0
  -27.6205  -24.6945   20.6891 H   0  0  0  0  0  0
  -28.1023  -24.8256   19.0195 H   0  0  0  0  0  0
  -31.1158  -16.9059   18.5073 H   0  0  0  0  0  0
  -28.9946  -15.5078   21.2387 H   0  0  0  0  0  0
  1 25  1  0  0  0
  1 30  2  0  0  0
  1 86  1  0  0  0
  2  3  1  0  0  0
  2 25  1  0  0  0
  2 91  1  0  0  0
  2 92  1  0  0  0
  3  4  1  0  0  0
  3 93  1  0  0  0
  3 94  1  0  0  0
  4  5  1  0  0  0
  4 95  1  0  0  0
  4 96  1  0  0  0
  5  6  1  0  0  0
  5 26  1  0  0  0
  5 97  1  0  0  0
  6 25  1  0  0  0
  6 98  1  0  0  0
  6 99  1  0  0  0
  7  8  2  0  0  0
  7 26  1  0  0  0
  7 29  1  0  0  0
  8  9  1  0  0  0
  8 22  1  0  0  0
  9 10  1  0  0  0
  9 27  2  0  0  0
 10 11  2  0  0  0
 10 15  1  0  0  0
 11 12  1  0  0  0
 11100  1  0  0  0
 12 13  2  0  0  0
 12101  1  0  0  0
 13 14  1  0  0  0
 13 31  1  0  0  0
 14 15  2  0  0  0
 14102  1  0  0  0
 15103  1  0  0  0
 16 17  2  0  0  0
 16 21  1  0  0  0
 16 31  1  0  0  0
 17 18  1  0  0  0
 17104  1  0  0  0
 18 19  2  0  0  0
 18105  1  0  0  0
 19 20  1  0  0  0
 19 24  1  0  0  0
 20 21  2  0  0  0
 20106  1  0  0  0
 21 23  1  0  0  0
 22 28  1  0  0  0
 22 32  2  0  0  0
 26 27  1  0  0  0
 28107  1  0  0  0
 28108  1  0  0  0
 29109  1  0  0  0
 29110  1  0  0  0
 33 34  1  0  0  0
 33 66  1  0  0  0
 33 70  2  0  0  0
 34 36  1  0  0  0
 34 59  1  0  0  0
 34111  1  0  0  0
 35 44  2  0  0  0
 35 45  1  0  0  0
 35 68  1  0  0  0
 36 56  1  0  0  0
 36112  1  0  0  0
 37 39  1  0  0  0
 37 47  1  0  0  0
 37 66  1  0  0  0
 37113  1  0  0  0
 38 43  2  0  0  0
 38 46  1  0  0  0
 38 47  1  0  0  0
 39 64  1  0  0  0
 39 67  2  0  0  0
 40 52  1  0  0  0
 40 53  2  0  0  0
 40 58  1  0  0  0
 41114  1  0  0  0
 41115  1  0  0  0
 41116  1  0  0  0
 41 48  1  0  0  0
 42 43  1  0  0  0
 42 66  1  0  0  0
 42117  1  0  0  0
 42118  1  0  0  0
 43 44  1  0  0  0
 44119  1  0  0  0
 45 46  2  0  0  0
 45120  1  0  0  0
 46121  1  0  0  0
 47122  1  0  0  0
 47123  1  0  0  0
 48 56  1  0  0  0
 48 65  1  0  0  0
 48124  1  0  0  0
 49 50  1  0  0  0
 49 53  1  0  0  0
 49 64  1  0  0  0
 49125  1  0  0  0
 50 51  1  0  0  0
 50126  1  0  0  0
 50127  1  0  0  0
 51 52  1  0  0  0
 51128  1  0  0  0
 51129  1  0  0  0
 52130  1  0  0  0
 52131  1  0  0  0
 53 54  1  0  0  0
 54 55  2  0  0  0
 54132  1  0  0  0
 55 57  1  0  0  0
 55133  1  0  0  0
 56 69  2  0  0  0
 57 58  2  0  0  0
 57134  1  0  0  0
 58135  1  0  0  0
 59 60  1  0  0  0
 59 61  1  0  0  0
 59 62  1  0  0  0
 60136  1  0  0  0
 60137  1  0  0  0
 60138  1  0  0  0
 61139  1  0  0  0
 61140  1  0  0  0
 61141  1  0  0  0
 62142  1  0  0  0
 62143  1  0  0  0
 62144  1  0  0  0
 63 65  1  0  0  0
 63145  1  0  0  0
 63146  1  0  0  0
 63147  1  0  0  0
 64148  1  0  0  0
 65149  1  0  0  0
 68 79  1  0  0  0
 71 72  2  0  0  0
 71 73  1  0  0  0
 71150  1  0  0  0
 72 74  1  0  0  0
 72151  1  0  0  0
 73 78  1  0  0  0
 73 84  2  0  0  0
 74 81  1  0  0  0
 74 85  2  0  0  0
 75152  1  0  0  0
 75153  1  0  0  0
 75154  1  0  0  0
 75 81  1  0  0  0
 76 81  1  0  0  0
 76155  1  0  0  0
 76156  1  0  0  0
 76157  1  0  0  0
 77158  1  0  0  0
 77159  1  0  0  0
 77160  1  0  0  0
 77 83  1  0  0  0
 78161  1  0  0  0
 78162  1  0  0  0
 78 82  1  0  0  0
 79 81  1  0  0  0
 79163  1  0  0  0
 79164  1  0  0  0
 80 82  1  0  0  0
 80 87  1  0  0  0
 80 88  1  0  0  0
 80165  1  0  0  0
 82 83  1  0  0  0
 82 86  1  0  0  0
 83 89  1  0  0  0
 83 90  1  0  0  0
 84 85  1  0  0  0
 86166  1  0  0  0
M  ISO  4   1 100  68 101  79 101  86 100
M  END
> <chiral flag>
0

> <version>
0

> <s_m_source_file>
/data/baiqing/PycharmProjects/Reinvent-master-3.2/result/LINK_invent/BTK/process_docking_weight1_custom_sum_contain_oxygen_bond_distance_aromatic_linkinvent_7_9_3/rearranged_h_0061.sdf

> <i_m_source_file_index>
76

> <r_mmod_Potential_Energy-OPLS-2005>
81.6016693115234

> <r_mmod_Stretch_Energy-OPLS-2005>
110.006439208984

> <r_mmod_Bend_Energy-OPLS-2005>
170.665985107422

> <r_mmod_Torsional_Energy-OPLS-2005>
241.832168579102

> <r_mmod_Improper_Torsional_Energy-OPLS-2005>
7.58867645263672

> <r_mmod_Van_der_Waal_Energy-OPLS-2005>
156.118682861328

> <r_mmod_Electrostatic_Energy-OPLS-2005>
-447.65478515625

> <r_mmod_Solvation_Energy-OPLS-2005>
-213.180892944336

> <b_mmod_Minimization_Converged-OPLS-2005>
0

> <r_mmod_RMS_Derivative-OPLS-2005>
5.69748830795288

$$$$
81
                    3D
 Structure written by MMmdl.
175183  0  0  1  0            999 V2000
  -30.7187  -14.5326   20.6122 C   0  0  0  0  0  0
  -30.4268  -12.3664   19.4270 C   0  0  0  0  0  0
  -29.4910  -12.5275   18.2115 C   0  0  0  0  0  0
  -28.0167  -12.3706   18.6302 C   0  0  0  0  0  0
  -27.6590  -13.2164   19.8814 C   0  0  2  0  0  0
  -28.7112  -13.0146   21.0000 C   0  0  0  0  0  0
  -25.2436  -13.8121   20.5499 C   0  0  0  0  0  0
  -24.1776  -13.0391   20.9172 C   0  0  0  0  0  0
  -24.6398  -11.6887   20.8785 C   0  0  0  0  0  0
  -23.9073  -10.4271   21.0431 C   0  0  0  0  0  0
  -24.3620   -9.4185   21.9203 C   0  0  0  0  0  0
  -23.6291   -8.2224   22.0762 C   0  0  0  0  0  0
  -22.4275   -8.0270   21.3546 C   0  0  0  0  0  0
  -21.9916   -9.0247   20.4650 C   0  0  0  0  0  0
  -22.7250  -10.2124   20.3070 C   0  0  0  0  0  0
  -21.6848   -6.0731   22.5280 C   0  0  0  0  0  0
  -21.4009   -6.5635   23.8212 C   0  0  0  0  0  0
  -21.3657   -5.6790   24.9175 C   0  0  0  0  0  0
  -21.6045   -4.3053   24.7226 C   0  0  0  0  0  0
  -21.8819   -3.8143   23.4347 C   0  0  0  0  0  0
  -21.9191   -4.6960   22.3404 C   0  0  0  0  0  0
  -22.7798  -13.5181   21.1839 C   0  0  0  0  0  0
  -22.1662   -4.2146   21.0981 F   0  0  0  0  0  0
  -21.5631   -3.4538   25.7740 F   0  0  0  0  0  0
  -30.0308  -13.3581   20.4478 N   0  0  0  0  0  0
  -26.2997  -12.9371   20.3414 N   0  0  0  0  0  0
  -25.9350  -11.6522   20.5882 N   0  0  0  0  0  0
  -22.0459  -12.8192   22.0424 N   0  0  0  0  0  0
  -25.3830  -15.1800   20.3480 N   0  0  0  0  0  0
  -31.8097  -14.7170   20.0622 O   0  0  0  0  0  0
  -21.6634   -6.8874   21.4242 O   0  0  0  0  0  0
  -22.3479  -14.5490   20.6696 O   0  0  0  0  0  0
  -24.6218  -31.8645   23.2076 C   0  0  0  0  0  0
  -25.9087  -32.4803   23.8383 C   0  0  1  0  0  0
  -27.2273  -27.3724   20.1012 C   0  0  0  0  0  0
  -25.5919  -33.8603   24.2312 N   0  0  0  0  0  0
  -23.4118  -30.4910   21.5496 C   0  0  2  0  0  0
  -24.8566  -28.9548   20.1129 C   0  0  0  0  0  0
  -22.7447  -29.4657   22.4962 C   0  0  0  0  0  0
  -18.0284  -28.1383   22.8491 C   0  0  0  0  0  0
  -24.1487  -36.7305   23.2638 C   0  0  0  0  0  0
  -25.9492  -30.8115   21.3705 C   0  0  0  0  0  0
  -26.0240  -29.4440   20.7120 C   0  0  0  0  0  0
  -27.2127  -28.6640   20.6973 C   0  0  0  0  0  0
  -26.0326  -26.9212   19.4896 C   0  0  0  0  0  0
  -24.8597  -27.6957   19.4958 C   0  0  0  0  0  0
  -23.6224  -29.8289   20.1636 C   0  0  0  0  0  0
  -25.4110  -36.3102   24.0335 C   0  0  1  0  0  0
  -20.5880  -28.3684   23.1297 C   0  0  2  0  0  0
  -20.6776  -26.9412   22.5415 C   0  0  0  0  0  0
  -19.5754  -26.6388   21.5214 C   0  0  0  0  0  0
  -18.1929  -26.7930   22.1622 C   0  0  0  0  0  0
  -19.1534  -28.8849   23.2889 C   0  0  0  0  0  0
  -18.9460  -30.1451   23.8909 C   0  0  0  0  0  0
  -17.6463  -30.6587   24.0568 C   0  0  0  0  0  0
  -25.9045  -34.9467   23.5123 C   0  0  0  0  0  0
  -16.5353  -29.9090   23.6329 C   0  0  0  0  0  0
  -16.7273  -28.6506   23.0354 C   0  0  0  0  0  0
  -26.4490  -31.6594   25.0731 C   0  0  0  0  0  0
  -25.3739  -31.3716   26.1470 C   0  0  0  0  0  0
  -27.0325  -30.3027   24.6149 C   0  0  0  0  0  0
  -27.6072  -32.4314   25.7488 C   0  0  0  0  0  0
  -27.5581  -37.1803   24.8463 C   0  0  0  0  0  0
  -21.4171  -29.3044   22.3694 N   0  0  0  0  0  0
  -26.4294  -37.3789   23.9410 N   0  0  0  0  0  0
  -24.6797  -31.0704   22.1001 N   0  0  0  0  0  0
  -23.4193  -28.8191   23.3020 O   0  0  0  0  0  0
  -28.3696  -26.5700   20.1338 O   0  0  0  0  0  0
  -26.5608  -34.8923   22.4685 O   0  0  0  0  0  0
  -23.5395  -32.1425   23.7433 O   0  0  0  0  0  0
  -29.8452  -19.1198   20.2437 C   0  0  0  0  0  0
  -29.7685  -18.0680   21.1447 C   0  0  0  0  0  0
  -30.1696  -19.9908   22.2542 C   0  0  0  0  0  0
  -27.9800  -16.4909   21.7293 C   0  0  0  0  0  0
  -32.0070  -19.5413   24.8634 C   0  0  0  0  0  0
  -32.9487  -20.9392   23.0051 C   0  0  0  0  0  0
  -31.9757  -22.0335   25.0344 C   0  0  0  0  0  0
  -31.0358  -15.7708   22.6447 C   0  0  0  0  0  0
  -30.4166  -20.9160   23.4166 C   0  0  0  0  0  0
  -29.0540  -22.6648   20.4753 C   0  0  0  0  0  0
  -29.3913  -24.1976   20.3291 C   0  0  0  0  0  0
  -30.2754  -21.6822   20.4038 C   0  0  0  0  0  0
  -28.1619  -25.1261   20.0540 C   0  0  0  0  0  0
  -29.3292  -16.5979   21.0001 C   0  0  2  0  0  0
  -31.8295  -20.8475   24.0622 C   0  0  0  0  0  0
  -30.0787  -20.2936   20.9458 N   0  0  0  0  0  0
  -29.9721  -18.6690   22.3642 N   0  3  0  0  0  0
  -30.2164  -15.4769   21.4647 N   0  0  0  0  0  0
  -31.4668  -12.4769   19.1151 H   0  0  0  0  0  0
  -30.3518  -11.3574   19.8359 H   0  0  0  0  0  0
  -29.7406  -11.7943   17.4433 H   0  0  0  0  0  0
  -29.6405  -13.5085   17.7578 H   0  0  0  0  0  0
  -27.8418  -11.3139   18.8368 H   0  0  0  0  0  0
  -27.3590  -12.6293   17.7994 H   0  0  0  0  0  0
  -27.6930  -14.2611   19.5737 H   0  0  0  0  0  0
  -28.7120  -11.9736   21.3266 H   0  0  0  0  0  0
  -28.4791  -13.5841   21.8977 H   0  0  0  0  0  0
  -25.2762   -9.5658   22.4783 H   0  0  0  0  0  0
  -23.9995   -7.4613   22.7479 H   0  0  0  0  0  0
  -21.0849   -8.8773   19.8951 H   0  0  0  0  0  0
  -22.3715  -10.9667   19.6180 H   0  0  0  0  0  0
  -21.1997   -7.6144   23.9714 H   0  0  0  0  0  0
  -21.1480   -6.0519   25.9077 H   0  0  0  0  0  0
  -22.0600   -2.7607   23.2849 H   0  0  0  0  0  0
  -22.4080  -11.9855   22.4811 H   0  0  0  0  0  0
  -21.1084  -13.1226   22.2647 H   0  0  0  0  0  0
  -24.5920  -15.8099   20.4224 H   0  0  0  0  0  0
  -26.2063  -15.6222   19.9633 H   0  0  0  0  0  0
  -26.7159  -32.5493   23.1140 H   0  0  0  0  0  0
  -25.0066  -33.9754   25.0458 H   0  0  0  0  0  0
  -22.7038  -31.3110   21.4112 H   0  0  0  0  0  0
  -23.3748  -35.9638   23.3306 H   0  0  0  0  0  0
  -24.3582  -36.8922   22.2052 H   0  0  0  0  0  0
  -23.7243  -37.6512   23.6653 H   0  0  0  0  0  0
  -26.0730  -31.5770   20.6034 H   0  0  0  0  0  0
  -26.8330  -30.8599   21.9951 H   0  0  0  0  0  0
  -28.1105  -29.0367   21.1701 H   0  0  0  0  0  0
  -25.9715  -25.9616   19.0003 H   0  0  0  0  0  0
  -23.9635  -27.3148   19.0256 H   0  0  0  0  0  0
  -23.7360  -30.6074   19.4081 H   0  0  0  0  0  0
  -22.7432  -29.2558   19.8632 H   0  0  0  0  0  0
  -25.1286  -36.1963   25.0827 H   0  0  0  0  0  0
  -20.9975  -28.3260   24.1417 H   0  0  0  0  0  0
  -20.5686  -26.2294   23.3611 H   0  0  0  0  0  0
  -21.6646  -26.7454   22.1205 H   0  0  0  0  0  0
  -19.6919  -25.6301   21.1239 H   0  0  0  0  0  0
  -19.6696  -27.3203   20.6748 H   0  0  0  0  0  0
  -17.4205  -26.6687   21.4016 H   0  0  0  0  0  0
  -18.0324  -26.0063   22.9009 H   0  0  0  0  0  0
  -19.7936  -30.7259   24.2288 H   0  0  0  0  0  0
  -17.5020  -31.6270   24.5164 H   0  0  0  0  0  0
  -15.5356  -30.2998   23.7647 H   0  0  0  0  0  0
  -15.8672  -28.0830   22.7067 H   0  0  0  0  0  0
  -24.5933  -30.7038   25.7807 H   0  0  0  0  0  0
  -24.8899  -32.2869   26.4886 H   0  0  0  0  0  0
  -25.8078  -30.8917   27.0251 H   0  0  0  0  0  0
  -26.2883  -29.6779   24.1200 H   0  0  0  0  0  0
  -27.4074  -29.7280   25.4628 H   0  0  0  0  0  0
  -27.8728  -30.4332   23.9328 H   0  0  0  0  0  0
  -27.2713  -33.3619   26.2079 H   0  0  0  0  0  0
  -28.3871  -32.6868   25.0299 H   0  0  0  0  0  0
  -28.0754  -31.8427   26.5389 H   0  0  0  0  0  0
  -28.2605  -38.0094   24.7512 H   0  0  0  0  0  0
  -28.1074  -36.2629   24.6287 H   0  0  0  0  0  0
  -27.2302  -37.1454   25.8867 H   0  0  0  0  0  0
  -20.9340  -29.8768   21.6913 H   0  0  0  0  0  0
  -26.0182  -38.2869   24.1411 H   0  0  0  0  0  0
  -29.7188  -19.1213   19.1692 H   0  0  0  0  0  0
  -27.2508  -17.1834   21.3075 H   0  0  0  0  0  0
  -28.0702  -16.7223   22.7902 H   0  0  0  0  0  0
  -27.5568  -15.4964   21.6719 H   0  0  0  0  0  0
  -32.9521  -19.5384   25.4085 H   0  0  0  0  0  0
  -32.0159  -18.6620   24.2196 H   0  0  0  0  0  0
  -31.2121  -19.4081   25.5987 H   0  0  0  0  0  0
  -33.9342  -20.9199   23.4728 H   0  0  0  0  0  0
  -32.8862  -21.8659   22.4343 H   0  0  0  0  0  0
  -32.9175  -20.1097   22.2977 H   0  0  0  0  0  0
  -32.9456  -22.0266   25.5335 H   0  0  0  0  0  0
  -31.2106  -22.0084   25.8116 H   0  0  0  0  0  0
  -31.8844  -22.9900   24.5179 H   0  0  0  0  0  0
  -30.4247  -16.1583   23.4591 H   0  0  0  0  0  0
  -31.8175  -16.4951   22.4103 H   0  0  0  0  0  0
  -31.5254  -14.8719   23.0252 H   0  0  0  0  0  0
  -29.6428  -20.6967   24.1535 H   0  0  0  0  0  0
  -30.2095  -21.9272   23.0691 H   0  0  0  0  0  0
  -28.3441  -22.3772   19.6988 H   0  0  0  0  0  0
  -28.5254  -22.5216   21.4181 H   0  0  0  0  0  0
  -30.1109  -24.3343   19.5213 H   0  0  0  0  0  0
  -29.8935  -24.5316   21.2377 H   0  0  0  0  0  0
  -31.1237  -22.1160   20.9317 H   0  0  0  0  0  0
  -30.6036  -21.5840   19.3684 H   0  0  0  0  0  0
  -27.3724  -24.8528   20.7563 H   0  0  0  0  0  0
  -27.8020  -24.8738   19.0564 H   0  0  0  0  0  0
  -29.1354  -16.4391   19.9370 H   0  0  0  0  0  0
  -29.9340  -18.1857   23.2532 H   0  0  0  0  0  0
  1 25  1  0  0  0
  1 30  2  0  0  0
  1 88  1  0  0  0
  2  3  1  0  0  0
  2 25  1  0  0  0
  2 89  1  0  0  0
  2 90  1  0  0  0
  3  4  1  0  0  0
  3 91  1  0  0  0
  3 92  1  0  0  0
  4  5  1  0  0  0
  4 93  1  0  0  0
  4 94  1  0  0  0
  5  6  1  0  0  0
  5 26  1  0  0  0
  5 95  1  0  0  0
  6 25  1  0  0  0
  6 96  1  0  0  0
  6 97  1  0  0  0
  7  8  2  0  0  0
  7 26  1  0  0  0
  7 29  1  0  0  0
  8  9  1  0  0  0
  8 22  1  0  0  0
  9 10  1  0  0  0
  9 27  2  0  0  0
 10 11  2  0  0  0
 10 15  1  0  0  0
 11 12  1  0  0  0
 11 98  1  0  0  0
 12 13  2  0  0  0
 12 99  1  0  0  0
 13 14  1  0  0  0
 13 31  1  0  0  0
 14 15  2  0  0  0
 14100  1  0  0  0
 15101  1  0  0  0
 16 17  2  0  0  0
 16 21  1  0  0  0
 16 31  1  0  0  0
 17 18  1  0  0  0
 17102  1  0  0  0
 18 19  2  0  0  0
 18103  1  0  0  0
 19 20  1  0  0  0
 19 24  1  0  0  0
 20 21  2  0  0  0
 20104  1  0  0  0
 21 23  1  0  0  0
 22 28  1  0  0  0
 22 32  2  0  0  0
 26 27  1  0  0  0
 28105  1  0  0  0
 28106  1  0  0  0
 29107  1  0  0  0
 29108  1  0  0  0
 33 34  1  0  0  0
 33 66  1  0  0  0
 33 70  2  0  0  0
 34 36  1  0  0  0
 34 59  1  0  0  0
 34109  1  0  0  0
 35 44  2  0  0  0
 35 45  1  0  0  0
 35 68  1  0  0  0
 36 56  1  0  0  0
 36110  1  0  0  0
 37 39  1  0  0  0
 37 47  1  0  0  0
 37 66  1  0  0  0
 37111  1  0  0  0
 38 43  2  0  0  0
 38 46  1  0  0  0
 38 47  1  0  0  0
 39 64  1  0  0  0
 39 67  2  0  0  0
 40 52  1  0  0  0
 40 53  2  0  0  0
 40 58  1  0  0  0
 41112  1  0  0  0
 41113  1  0  0  0
 41114  1  0  0  0
 41 48  1  0  0  0
 42 43  1  0  0  0
 42 66  1  0  0  0
 42115  1  0  0  0
 42116  1  0  0  0
 43 44  1  0  0  0
 44117  1  0  0  0
 45 46  2  0  0  0
 45118  1  0  0  0
 46119  1  0  0  0
 47120  1  0  0  0
 47121  1  0  0  0
 48 56  1  0  0  0
 48 65  1  0  0  0
 48122  1  0  0  0
 49 50  1  0  0  0
 49 53  1  0  0  0
 49 64  1  0  0  0
 49123  1  0  0  0
 50 51  1  0  0  0
 50124  1  0  0  0
 50125  1  0  0  0
 51 52  1  0  0  0
 51126  1  0  0  0
 51127  1  0  0  0
 52128  1  0  0  0
 52129  1  0  0  0
 53 54  1  0  0  0
 54 55  2  0  0  0
 54130  1  0  0  0
 55 57  1  0  0  0
 55131  1  0  0  0
 56 69  2  0  0  0
 57 58  2  0  0  0
 57132  1  0  0  0
 58133  1  0  0  0
 59 60  1  0  0  0
 59 61  1  0  0  0
 59 62  1  0  0  0
 60134  1  0  0  0
 60135  1  0  0  0
 60136  1  0  0  0
 61137  1  0  0  0
 61138  1  0  0  0
 61139  1  0  0  0
 62140  1  0  0  0
 62141  1  0  0  0
 62142  1  0  0  0
 63 65  1  0  0  0
 63143  1  0  0  0
 63144  1  0  0  0
 63145  1  0  0  0
 64146  1  0  0  0
 65147  1  0  0  0
 68 83  1  0  0  0
 71 72  2  0  0  0
 71 86  1  0  0  0
 71148  1  0  0  0
 72 84  1  0  0  0
 72 87  1  0  0  0
 73 79  1  0  0  0
 73 86  1  0  0  0
 73 87  2  0  0  0
 74149  1  0  0  0
 74150  1  0  0  0
 74151  1  0  0  0
 74 84  1  0  0  0
 75152  1  0  0  0
 75153  1  0  0  0
 75154  1  0  0  0
 75 85  1  0  0  0
 76 85  1  0  0  0
 76155  1  0  0  0
 76156  1  0  0  0
 76157  1  0  0  0
 77 85  1  0  0  0
 77158  1  0  0  0
 77159  1  0  0  0
 77160  1  0  0  0
 78 88  1  0  0  0
 78161  1  0  0  0
 78162  1  0  0  0
 78163  1  0  0  0
 79 85  1  0  0  0
 79164  1  0  0  0
 79165  1  0  0  0
 80 81  1  0  0  0
 80 82  1  0  0  0
 80166  1  0  0  0
 80167  1  0  0  0
 81 83  1  0  0  0
 81168  1  0  0  0
 81169  1  0  0  0
 82 86  1  0  0  0
 82170  1  0  0  0
 82171  1  0  0  0
 83172  1  0  0  0
 83173  1  0  0  0
 84 88  1  0  0  0
 84174  1  0  0  0
 87175  1  0  0  0
M  CHG  1  87   1
M  ISO  4   1 100  68 101  83 101  88 100
M  END
> <chiral flag>
0

> <version>
0

> <s_m_source_file>
/data/baiqing/PycharmProjects/Reinvent-master-3.2/result/LINK_invent/BTK/process_docking_weight1_custom_sum_contain_oxygen_bond_distance_aromatic_linkinvent_7_9_3/rearranged_h_0061.sdf

> <i_m_source_file_index>
77

> <r_mmod_Potential_Energy-OPLS-2005>
109.498054504395

> <r_mmod_Stretch_Energy-OPLS-2005>
60.378475189209

> <r_mmod_Bend_Energy-OPLS-2005>
127.962326049805

> <r_mmod_Torsional_Energy-OPLS-2005>
310.746795654297

> <r_mmod_Improper_Torsional_Energy-OPLS-2005>
5.31799983978271

> <r_mmod_Van_der_Waal_Energy-OPLS-2005>
124.104019165039

> <r_mmod_Electrostatic_Energy-OPLS-2005>
-157.541076660156

> <r_mmod_Solvation_Energy-OPLS-2005>
-385.25

> <b_mmod_Minimization_Converged-OPLS-2005>
0

> <r_mmod_RMS_Derivative-OPLS-2005>
0.573139131069183

$$$$
82
                    3D
 Structure written by MMmdl.
155163  0  0  1  0            999 V2000
  -30.6551  -14.7290   20.5120 C   0  0  0  0  0  0
  -30.4234  -12.4624   19.4703 C   0  0  0  0  0  0
  -29.5000  -12.5216   18.2351 C   0  0  0  0  0  0
  -28.0280  -12.3476   18.6524 C   0  0  0  0  0  0
  -27.6431  -13.2357   19.8666 C   0  0  2  0  0  0
  -28.6948  -13.1382   20.9959 C   0  0  0  0  0  0
  -25.2421  -13.8159   20.5598 C   0  0  0  0  0  0
  -24.1761  -13.0405   20.9205 C   0  0  0  0  0  0
  -24.6393  -11.6902   20.8788 C   0  0  0  0  0  0
  -23.9073  -10.4279   21.0427 C   0  0  0  0  0  0
  -24.3620   -9.4192   21.9201 C   0  0  0  0  0  0
  -23.6292   -8.2230   22.0758 C   0  0  0  0  0  0
  -22.4277   -8.0273   21.3543 C   0  0  0  0  0  0
  -21.9918   -9.0251   20.4644 C   0  0  0  0  0  0
  -22.7250  -10.2127   20.3067 C   0  0  0  0  0  0
  -21.6849   -6.0732   22.5278 C   0  0  0  0  0  0
  -21.4009   -6.5636   23.8211 C   0  0  0  0  0  0
  -21.3659   -5.6790   24.9174 C   0  0  0  0  0  0
  -21.6046   -4.3054   24.7225 C   0  0  0  0  0  0
  -21.8818   -3.8146   23.4346 C   0  0  0  0  0  0
  -21.9190   -4.6961   22.3402 C   0  0  0  0  0  0
  -22.7784  -13.5190   21.1856 C   0  0  0  0  0  0
  -22.1661   -4.2147   21.0980 F   0  0  0  0  0  0
  -21.5630   -3.4539   25.7739 F   0  0  0  0  0  0
  -29.9885  -13.5207   20.4195 N   0  0  0  0  0  0
  -26.2936  -12.9420   20.3380 N   0  0  0  0  0  0
  -25.9342  -11.6556   20.5855 N   0  0  0  0  0  0
  -22.0437  -12.8192   22.0427 N   0  0  0  0  0  0
  -25.3923  -15.1845   20.3719 N   0  0  0  0  0  0
  -31.8063  -14.7918   20.0640 O   0  0  0  0  0  0
  -21.6633   -6.8876   21.4241 O   0  0  0  0  0  0
  -22.3469  -14.5497   20.6706 O   0  0  0  0  0  0
  -24.6291  -31.8547   23.1971 C   0  0  0  0  0  0
  -25.9121  -32.4748   23.8318 C   0  0  1  0  0  0
  -27.2285  -27.2758   20.1214 C   0  0  0  0  0  0
  -25.5918  -33.8551   24.2243 N   0  0  0  0  0  0
  -23.4250  -30.4743   21.5404 C   0  0  2  0  0  0
  -24.8725  -28.9185   20.1076 C   0  0  0  0  0  0
  -22.7488  -29.4587   22.4922 C   0  0  0  0  0  0
  -18.0281  -28.1378   22.8481 C   0  0  0  0  0  0
  -24.1487  -36.7286   23.2642 C   0  0  0  0  0  0
  -25.9672  -30.7712   21.3730 C   0  0  0  0  0  0
  -26.0400  -29.3938   20.7163 C   0  0  0  0  0  0
  -27.2159  -28.5820   20.7144 C   0  0  0  0  0  0
  -26.0360  -26.8550   19.4940 C   0  0  0  0  0  0
  -24.8750  -27.6573   19.4879 C   0  0  0  0  0  0
  -23.6413  -29.8031   20.1568 C   0  0  0  0  0  0
  -25.4115  -36.3068   24.0323 C   0  0  1  0  0  0
  -20.5883  -28.3686   23.1278 C   0  0  2  0  0  0
  -20.6765  -26.9402   22.5415 C   0  0  0  0  0  0
  -19.5745  -26.6378   21.5210 C   0  0  0  0  0  0
  -18.1922  -26.7918   22.1619 C   0  0  0  0  0  0
  -19.1535  -28.8848   23.2870 C   0  0  0  0  0  0
  -18.9463  -30.1448   23.8885 C   0  0  0  0  0  0
  -17.6464  -30.6579   24.0562 C   0  0  0  0  0  0
  -25.9056  -34.9438   23.5091 C   0  0  0  0  0  0
  -16.5354  -29.9078   23.6330 C   0  0  0  0  0  0
  -16.7271  -28.6498   23.0347 C   0  0  0  0  0  0
  -26.4493  -31.6576   25.0710 C   0  0  0  0  0  0
  -25.3721  -31.3716   26.1434 C   0  0  0  0  0  0
  -27.0351  -30.3000   24.6192 C   0  0  0  0  0  0
  -27.6040  -32.4326   25.7485 C   0  0  0  0  0  0
  -27.5575  -37.1798   24.8462 C   0  0  0  0  0  0
  -21.4195  -29.3034   22.3674 N   0  0  0  0  0  0
  -26.4286  -37.3772   23.9409 N   0  0  0  0  0  0
  -24.6927  -31.0516   22.0937 N   0  0  0  0  0  0
  -23.4195  -28.8133   23.3019 O   0  0  0  0  0  0
  -28.3566  -26.4337   20.2069 O   0  0  0  0  0  0
  -26.5640  -34.8914   22.4668 O   0  0  0  0  0  0
  -23.5446  -32.1367   23.7279 O   0  0  0  0  0  0
  -28.1590  -19.2307   20.0346 C   0  0  0  0  0  0
  -30.3494  -20.4778   20.8917 C   0  0  0  0  0  0
  -29.2373  -18.4254   20.5440 C   0  0  0  0  0  0
  -29.2581  -21.2716   20.4096 C   0  0  0  0  0  0
  -27.8957  -16.6906   21.7745 C   0  0  0  0  0  0
  -31.0287  -16.3937   22.2052 C   0  0  0  0  0  0
  -28.4727  -25.0871   19.5629 C   0  0  0  0  0  0
  -28.2254  -23.6591   20.2895 C   0  0  0  0  0  0
  -29.0433  -16.8371   20.7518 C   0  0  2  0  0  0
  -30.3409  -19.1004   20.9793 N   0  0  0  0  0  0
  -28.1490  -20.6104   19.9779 N   0  0  0  0  0  0
  -30.1334  -15.8399   21.1815 N   0  0  0  0  0  0
  -29.3540  -22.6923   20.3133 O   0  0  0  0  0  0
  -31.4632  -12.5726   19.1593 H   0  0  0  0  0  0
  -30.3684  -11.4810   19.9436 H   0  0  0  0  0  0
  -29.7790  -11.7488   17.5173 H   0  0  0  0  0  0
  -29.6277  -13.4767   17.7235 H   0  0  0  0  0  0
  -27.8827  -11.2966   18.9052 H   0  0  0  0  0  0
  -27.3678  -12.5501   17.8083 H   0  0  0  0  0  0
  -27.6437  -14.2637   19.5059 H   0  0  0  0  0  0
  -28.7386  -12.1201   21.3854 H   0  0  0  0  0  0
  -28.4473  -13.7566   21.8538 H   0  0  0  0  0  0
  -25.2758   -9.5670   22.4781 H   0  0  0  0  0  0
  -23.9997   -7.4619   22.7480 H   0  0  0  0  0  0
  -21.0850   -8.8773   19.8946 H   0  0  0  0  0  0
  -22.3712  -10.9671   19.6179 H   0  0  0  0  0  0
  -21.1998   -7.6142   23.9714 H   0  0  0  0  0  0
  -21.1482   -6.0519   25.9077 H   0  0  0  0  0  0
  -22.0596   -2.7607   23.2845 H   0  0  0  0  0  0
  -22.4060  -11.9864   22.4830 H   0  0  0  0  0  0
  -21.1055  -13.1218   22.2630 H   0  0  0  0  0  0
  -24.6081  -15.8220   20.4529 H   0  0  0  0  0  0
  -26.2242  -15.6215   20.0016 H   0  0  0  0  0  0
  -26.7185  -32.5401   23.1058 H   0  0  0  0  0  0
  -25.0045  -33.9688   25.0374 H   0  0  0  0  0  0
  -22.7206  -31.2958   21.3926 H   0  0  0  0  0  0
  -23.3751  -35.9614   23.3297 H   0  0  0  0  0  0
  -24.3580  -36.8927   22.2060 H   0  0  0  0  0  0
  -23.7239  -37.6482   23.6680 H   0  0  0  0  0  0
  -26.1016  -31.5315   20.6023 H   0  0  0  0  0  0
  -26.8462  -30.8226   22.0041 H   0  0  0  0  0  0
  -28.1108  -28.9410   21.2031 H   0  0  0  0  0  0
  -25.9677  -25.8816   19.0323 H   0  0  0  0  0  0
  -23.9773  -27.2856   19.0129 H   0  0  0  0  0  0
  -23.7621  -30.5775   19.3983 H   0  0  0  0  0  0
  -22.7604  -29.2338   19.8543 H   0  0  0  0  0  0
  -25.1296  -36.1915   25.0815 H   0  0  0  0  0  0
  -20.9967  -28.3263   24.1403 H   0  0  0  0  0  0
  -20.5657  -26.2294   23.3618 H   0  0  0  0  0  0
  -21.6635  -26.7413   22.1219 H   0  0  0  0  0  0
  -19.6907  -25.6291   21.1238 H   0  0  0  0  0  0
  -19.6683  -27.3191   20.6742 H   0  0  0  0  0  0
  -17.4193  -26.6668   21.4017 H   0  0  0  0  0  0
  -18.0315  -26.0051   22.9005 H   0  0  0  0  0  0
  -19.7943  -30.7261   24.2250 H   0  0  0  0  0  0
  -17.5022  -31.6258   24.5167 H   0  0  0  0  0  0
  -15.5354  -30.2979   23.7658 H   0  0  0  0  0  0
  -15.8670  -28.0820   22.7059 H   0  0  0  0  0  0
  -24.5898  -30.7062   25.7767 H   0  0  0  0  0  0
  -24.8907  -32.2877   26.4863 H   0  0  0  0  0  0
  -25.8043  -30.8896   27.0212 H   0  0  0  0  0  0
  -26.2937  -29.6737   24.1218 H   0  0  0  0  0  0
  -27.4047  -29.7270   25.4708 H   0  0  0  0  0  0
  -27.8798  -30.4287   23.9421 H   0  0  0  0  0  0
  -27.2643  -33.3639   26.2029 H   0  0  0  0  0  0
  -28.3861  -32.6872   25.0319 H   0  0  0  0  0  0
  -28.0689  -31.8475   26.5431 H   0  0  0  0  0  0
  -28.2583  -38.0103   24.7520 H   0  0  0  0  0  0
  -28.1078  -36.2636   24.6273 H   0  0  0  0  0  0
  -27.2294  -37.1432   25.8864 H   0  0  0  0  0  0
  -20.9385  -29.8771   21.6889 H   0  0  0  0  0  0
  -26.0162  -38.2843   24.1419 H   0  0  0  0  0  0
  -27.2483  -18.7539   19.7016 H   0  0  0  0  0  0
  -31.2534  -20.9649   21.2273 H   0  0  0  0  0  0
  -26.9968  -17.2171   21.4563 H   0  0  0  0  0  0
  -28.1756  -17.1078   22.7418 H   0  0  0  0  0  0
  -27.6002  -15.6618   21.9441 H   0  0  0  0  0  0
  -30.5114  -17.0823   22.8729 H   0  0  0  0  0  0
  -31.8595  -16.9309   21.7448 H   0  0  0  0  0  0
  -31.4485  -15.6042   22.8313 H   0  0  0  0  0  0
  -27.9463  -25.0908   18.6092 H   0  0  0  0  0  0
  -29.5167  -25.0593   19.2513 H   0  0  0  0  0  0
  -27.3595  -23.1859   19.8253 H   0  0  0  0  0  0
  -27.9348  -23.8418   21.3238 H   0  0  0  0  0  0
  -28.6798  -16.4731   19.7898 H   0  0  0  0  0  0
  1 25  1  0  0  0
  1 30  2  0  0  0
  1 82  1  0  0  0
  2  3  1  0  0  0
  2 25  1  0  0  0
  2 84  1  0  0  0
  2 85  1  0  0  0
  3  4  1  0  0  0
  3 86  1  0  0  0
  3 87  1  0  0  0
  4  5  1  0  0  0
  4 88  1  0  0  0
  4 89  1  0  0  0
  5  6  1  0  0  0
  5 26  1  0  0  0
  5 90  1  0  0  0
  6 25  1  0  0  0
  6 91  1  0  0  0
  6 92  1  0  0  0
  7  8  2  0  0  0
  7 26  1  0  0  0
  7 29  1  0  0  0
  8  9  1  0  0  0
  8 22  1  0  0  0
  9 10  1  0  0  0
  9 27  2  0  0  0
 10 11  2  0  0  0
 10 15  1  0  0  0
 11 12  1  0  0  0
 11 93  1  0  0  0
 12 13  2  0  0  0
 12 94  1  0  0  0
 13 14  1  0  0  0
 13 31  1  0  0  0
 14 15  2  0  0  0
 14 95  1  0  0  0
 15 96  1  0  0  0
 16 17  2  0  0  0
 16 21  1  0  0  0
 16 31  1  0  0  0
 17 18  1  0  0  0
 17 97  1  0  0  0
 18 19  2  0  0  0
 18 98  1  0  0  0
 19 20  1  0  0  0
 19 24  1  0  0  0
 20 21  2  0  0  0
 20 99  1  0  0  0
 21 23  1  0  0  0
 22 28  1  0  0  0
 22 32  2  0  0  0
 26 27  1  0  0  0
 28100  1  0  0  0
 28101  1  0  0  0
 29102  1  0  0  0
 29103  1  0  0  0
 33 34  1  0  0  0
 33 66  1  0  0  0
 33 70  2  0  0  0
 34 36  1  0  0  0
 34 59  1  0  0  0
 34104  1  0  0  0
 35 44  2  0  0  0
 35 45  1  0  0  0
 35 68  1  0  0  0
 36 56  1  0  0  0
 36105  1  0  0  0
 37 39  1  0  0  0
 37 47  1  0  0  0
 37 66  1  0  0  0
 37106  1  0  0  0
 38 43  2  0  0  0
 38 46  1  0  0  0
 38 47  1  0  0  0
 39 64  1  0  0  0
 39 67  2  0  0  0
 40 52  1  0  0  0
 40 53  2  0  0  0
 40 58  1  0  0  0
 41107  1  0  0  0
 41108  1  0  0  0
 41109  1  0  0  0
 41 48  1  0  0  0
 42 43  1  0  0  0
 42 66  1  0  0  0
 42110  1  0  0  0
 42111  1  0  0  0
 43 44  1  0  0  0
 44112  1  0  0  0
 45 46  2  0  0  0
 45113  1  0  0  0
 46114  1  0  0  0
 47115  1  0  0  0
 47116  1  0  0  0
 48 56  1  0  0  0
 48 65  1  0  0  0
 48117  1  0  0  0
 49 50  1  0  0  0
 49 53  1  0  0  0
 49 64  1  0  0  0
 49118  1  0  0  0
 50 51  1  0  0  0
 50119  1  0  0  0
 50120  1  0  0  0
 51 52  1  0  0  0
 51121  1  0  0  0
 51122  1  0  0  0
 52123  1  0  0  0
 52124  1  0  0  0
 53 54  1  0  0  0
 54 55  2  0  0  0
 54125  1  0  0  0
 55 57  1  0  0  0
 55126  1  0  0  0
 56 69  2  0  0  0
 57 58  2  0  0  0
 57127  1  0  0  0
 58128  1  0  0  0
 59 60  1  0  0  0
 59 61  1  0  0  0
 59 62  1  0  0  0
 60129  1  0  0  0
 60130  1  0  0  0
 60131  1  0  0  0
 61132  1  0  0  0
 61133  1  0  0  0
 61134  1  0  0  0
 62135  1  0  0  0
 62136  1  0  0  0
 62137  1  0  0  0
 63 65  1  0  0  0
 63138  1  0  0  0
 63139  1  0  0  0
 63140  1  0  0  0
 64141  1  0  0  0
 65142  1  0  0  0
 68 77  1  0  0  0
 71 73  2  0  0  0
 71 81  1  0  0  0
 71143  1  0  0  0
 72 74  1  0  0  0
 72 80  2  0  0  0
 72144  1  0  0  0
 73 79  1  0  0  0
 73 80  1  0  0  0
 74 81  2  0  0  0
 74 83  1  0  0  0
 75145  1  0  0  0
 75146  1  0  0  0
 75147  1  0  0  0
 75 79  1  0  0  0
 76 82  1  0  0  0
 76148  1  0  0  0
 76149  1  0  0  0
 76150  1  0  0  0
 77 78  1  0  0  0
 77151  1  0  0  0
 77152  1  0  0  0
 78 83  1  0  0  0
 78153  1  0  0  0
 78154  1  0  0  0
 79 82  1  0  0  0
 79155  1  0  0  0
M  ISO  4   1 100  68 101  77 101  82 100
M  END
> <chiral flag>
0

> <version>
0

> <s_m_source_file>
/data/baiqing/PycharmProjects/Reinvent-master-3.2/result/LINK_invent/BTK/process_docking_weight1_custom_sum_contain_oxygen_bond_distance_aromatic_linkinvent_7_9_3/rearranged_h_0061.sdf

> <i_m_source_file_index>
78

> <r_mmod_Potential_Energy-OPLS-2005>
388.867889404297

> <r_mmod_Stretch_Energy-OPLS-2005>
126.817100524902

> <r_mmod_Bend_Energy-OPLS-2005>
228.406799316406

> <r_mmod_Torsional_Energy-OPLS-2005>
262.510986328125

> <r_mmod_Improper_Torsional_Energy-OPLS-2005>
4.67083692550659

> <r_mmod_Van_der_Waal_Energy-OPLS-2005>
146.96711730957

> <r_mmod_Electrostatic_Energy-OPLS-2005>
-243.017196655273

> <r_mmod_Solvation_Energy-OPLS-2005>
-209.844024658203

> <b_mmod_Minimization_Converged-OPLS-2005>
0

> <r_mmod_RMS_Derivative-OPLS-2005>
0.658688127994537

$$$$
83
                    3D
 Structure written by MMmdl.
160168  0  0  1  0            999 V2000
  -30.6586  -14.7401   20.4494 C   0  0  0  0  0  0
  -30.4447  -12.4650   19.4334 C   0  0  0  0  0  0
  -29.5056  -12.4901   18.2100 C   0  0  0  0  0  0
  -28.0318  -12.3017   18.6285 C   0  0  0  0  0  0
  -27.6390  -13.1831   19.8388 C   0  0  2  0  0  0
  -28.7102  -13.1220   20.9567 C   0  0  0  0  0  0
  -25.2533  -13.8050   20.5654 C   0  0  0  0  0  0
  -24.1812  -13.0347   20.9189 C   0  0  0  0  0  0
  -24.6352  -11.6817   20.8736 C   0  0  0  0  0  0
  -23.9032  -10.4223   21.0412 C   0  0  0  0  0  0
  -24.3614   -9.4157   21.9176 C   0  0  0  0  0  0
  -23.6301   -8.2184   22.0744 C   0  0  0  0  0  0
  -22.4273   -8.0239   21.3523 C   0  0  0  0  0  0
  -21.9892   -9.0227   20.4642 C   0  0  0  0  0  0
  -22.7228  -10.2092   20.3046 C   0  0  0  0  0  0
  -21.6859   -6.0740   22.5263 C   0  0  0  0  0  0
  -21.4037   -6.5645   23.8203 C   0  0  0  0  0  0
  -21.3652   -5.6778   24.9151 C   0  0  0  0  0  0
  -21.6042   -4.3046   24.7200 C   0  0  0  0  0  0
  -21.8842   -3.8149   23.4319 C   0  0  0  0  0  0
  -21.9204   -4.6975   22.3378 C   0  0  0  0  0  0
  -22.7840  -13.5171   21.1841 C   0  0  0  0  0  0
  -22.1664   -4.2165   21.0959 F   0  0  0  0  0  0
  -21.5602   -3.4526   25.7713 F   0  0  0  0  0  0
  -29.9883  -13.5328   20.3548 N   0  0  0  0  0  0
  -26.2928  -12.9156   20.3265 N   0  0  0  0  0  0
  -25.9270  -11.6353   20.5774 N   0  0  0  0  0  0
  -22.0469  -12.8181   22.0404 N   0  0  0  0  0  0
  -25.4164  -15.1776   20.4040 N   0  0  0  0  0  0
  -31.8670  -14.7616   20.1959 O   0  0  0  0  0  0
  -21.6609   -6.8868   21.4222 O   0  0  0  0  0  0
  -22.3554  -14.5487   20.6701 O   0  0  0  0  0  0
  -24.6282  -31.8561   23.1960 C   0  0  0  0  0  0
  -25.9119  -32.4747   23.8329 C   0  0  1  0  0  0
  -27.2447  -27.3224   20.1264 C   0  0  0  0  0  0
  -25.5895  -33.8544   24.2260 N   0  0  0  0  0  0
  -23.4234  -30.4781   21.5337 C   0  0  2  0  0  0
  -24.8761  -28.9255   20.1103 C   0  0  0  0  0  0
  -22.7485  -29.4627   22.4876 C   0  0  0  0  0  0
  -18.0283  -28.1369   22.8470 C   0  0  0  0  0  0
  -24.1473  -36.7305   23.2648 C   0  0  0  0  0  0
  -25.9632  -30.7949   21.3610 C   0  0  0  0  0  0
  -26.0423  -29.4195   20.7092 C   0  0  0  0  0  0
  -27.2285  -28.6289   20.7046 C   0  0  0  0  0  0
  -26.0580  -26.8813   19.4989 C   0  0  0  0  0  0
  -24.8863  -27.6618   19.4979 C   0  0  0  0  0  0
  -23.6431  -29.8023   20.1521 C   0  0  0  0  0  0
  -25.4083  -36.3063   24.0342 C   0  0  1  0  0  0
  -20.5886  -28.3687   23.1230 C   0  0  2  0  0  0
  -20.6734  -26.9389   22.5388 C   0  0  0  0  0  0
  -19.5724  -26.6358   21.5170 C   0  0  0  0  0  0
  -18.1911  -26.7905   22.1603 C   0  0  0  0  0  0
  -19.1527  -28.8835   23.2851 C   0  0  0  0  0  0
  -18.9468  -30.1428   23.8905 C   0  0  0  0  0  0
  -17.6462  -30.6572   24.0557 C   0  0  0  0  0  0
  -25.9031  -34.9434   23.5106 C   0  0  0  0  0  0
  -16.5357  -29.9094   23.6297 C   0  0  0  0  0  0
  -16.7260  -28.6489   23.0349 C   0  0  0  0  0  0
  -26.4496  -31.6555   25.0710 C   0  0  0  0  0  0
  -25.3761  -31.3711   26.1466 C   0  0  0  0  0  0
  -27.0329  -30.2968   24.6165 C   0  0  0  0  0  0
  -27.6032  -32.4312   25.7500 C   0  0  0  0  0  0
  -27.5558  -37.1787   24.8462 C   0  0  0  0  0  0
  -21.4182  -29.3061   22.3637 N   0  0  0  0  0  0
  -26.4262  -37.3754   23.9422 N   0  0  0  0  0  0
  -24.6902  -31.0610   22.0869 N   0  0  0  0  0  0
  -23.4206  -28.8175   23.2954 O   0  0  0  0  0  0
  -28.3784  -26.4973   20.1960 O   0  0  0  0  0  0
  -26.5615  -34.8910   22.4686 O   0  0  0  0  0  0
  -23.5440  -32.1360   23.7259 O   0  0  0  0  0  0
  -30.3453  -22.1236   19.2439 C   0  0  0  0  0  0
  -29.4990  -20.3540   21.0978 C   0  0  0  0  0  0
  -29.5671  -22.5953   20.3329 C   0  0  0  0  0  0
  -30.3452  -19.8917   20.0438 C   0  0  0  0  0  0
  -32.4453  -18.5202   19.7342 C   0  0  0  0  0  0
  -30.4024  -17.8932   18.4549 C   0  0  0  0  0  0
  -28.5624  -16.2263   20.5288 C   0  0  0  0  0  0
  -29.4214  -24.1440   20.6230 C   0  0  0  0  0  0
  -30.6679  -17.2878   20.9761 C   0  0  0  0  0  0
  -28.2546  -25.0290   20.0062 C   0  0  0  0  0  0
  -30.9022  -18.4047   19.8267 C   0  0  0  0  0  0
  -29.1255  -21.6746   21.2469 N   0  0  0  0  0  0
  -30.7223  -20.8152   19.1051 N   0  0  0  0  0  0
  -30.0005  -15.9603   20.6599 N   0  0  0  0  0  0
  -31.4740  -12.6050   19.1002 H   0  0  0  0  0  0
  -30.4268  -11.4911   19.9230 H   0  0  0  0  0  0
  -29.7920  -11.7156   17.4995 H   0  0  0  0  0  0
  -29.6283  -13.4408   17.6849 H   0  0  0  0  0  0
  -27.8740  -11.2500   18.8689 H   0  0  0  0  0  0
  -27.3819  -12.5181   17.7778 H   0  0  0  0  0  0
  -27.5998  -14.1703   19.4078 H   0  0  0  0  0  0
  -28.7792  -12.1058   21.3476 H   0  0  0  0  0  0
  -28.4664  -13.7356   21.8203 H   0  0  0  0  0  0
  -25.2770   -9.5662   22.4758 H   0  0  0  0  0  0
  -24.0019   -7.4590   22.7473 H   0  0  0  0  0  0
  -21.0806   -8.8813   19.8963 H   0  0  0  0  0  0
  -22.3718  -10.9672   19.6181 H   0  0  0  0  0  0
  -21.2045   -7.6159   23.9727 H   0  0  0  0  0  0
  -21.1443   -6.0483   25.9058 H   0  0  0  0  0  0
  -22.0631   -2.7615   23.2795 H   0  0  0  0  0  0
  -22.4050  -11.9855   22.4848 H   0  0  0  0  0  0
  -21.1118  -13.1293   22.2603 H   0  0  0  0  0  0
  -24.6551  -15.8363   20.5373 H   0  0  0  0  0  0
  -26.2734  -15.6250   20.1104 H   0  0  0  0  0  0
  -26.7211  -32.5426   23.1110 H   0  0  0  0  0  0
  -24.9988  -33.9661   25.0366 H   0  0  0  0  0  0
  -22.7196  -31.2977   21.3769 H   0  0  0  0  0  0
  -23.3704  -35.9666   23.3295 H   0  0  0  0  0  0
  -24.3590  -36.8944   22.2070 H   0  0  0  0  0  0
  -23.7248  -37.6516   23.6679 H   0  0  0  0  0  0
  -26.0905  -31.5532   20.5873 H   0  0  0  0  0  0
  -26.8477  -30.8526   21.9844 H   0  0  0  0  0  0
  -28.1246  -29.0079   21.1767 H   0  0  0  0  0  0
  -26.0167  -25.9147   19.0177 H   0  0  0  0  0  0
  -23.9919  -27.2754   19.0283 H   0  0  0  0  0  0
  -23.7665  -30.5722   19.3884 H   0  0  0  0  0  0
  -22.7667  -29.2267   19.8481 H   0  0  0  0  0  0
  -25.1239  -36.1919   25.0828 H   0  0  0  0  0  0
  -20.9978  -28.3259   24.1347 H   0  0  0  0  0  0
  -20.5508  -26.2324   23.3613 H   0  0  0  0  0  0
  -21.6618  -26.7321   22.1265 H   0  0  0  0  0  0
  -19.6881  -25.6256   21.1228 H   0  0  0  0  0  0
  -19.6658  -27.3137   20.6673 H   0  0  0  0  0  0
  -17.4154  -26.6613   21.4044 H   0  0  0  0  0  0
  -18.0358  -26.0058   22.9016 H   0  0  0  0  0  0
  -19.7945  -30.7207   24.2311 H   0  0  0  0  0  0
  -17.5036  -31.6251   24.5153 H   0  0  0  0  0  0
  -15.5365  -30.3020   23.7574 H   0  0  0  0  0  0
  -15.8661  -28.0800   22.7097 H   0  0  0  0  0  0
  -24.5940  -30.7023   25.7857 H   0  0  0  0  0  0
  -24.8959  -32.2884   26.4879 H   0  0  0  0  0  0
  -25.8146  -30.8947   27.0247 H   0  0  0  0  0  0
  -26.2899  -29.6728   24.1187 H   0  0  0  0  0  0
  -27.4009  -29.7206   25.4664 H   0  0  0  0  0  0
  -27.8772  -30.4224   23.9387 H   0  0  0  0  0  0
  -27.2600  -33.3612   26.2041 H   0  0  0  0  0  0
  -28.3873  -32.6874   25.0369 H   0  0  0  0  0  0
  -28.0669  -31.8480   26.5466 H   0  0  0  0  0  0
  -28.2548  -38.0100   24.7471 H   0  0  0  0  0  0
  -28.1064  -36.2622   24.6289 H   0  0  0  0  0  0
  -27.2301  -37.1451   25.8873 H   0  0  0  0  0  0
  -20.9355  -29.8900   21.6954 H   0  0  0  0  0  0
  -26.0140  -38.2826   24.1419 H   0  0  0  0  0  0
  -30.7270  -22.8189   18.5114 H   0  0  0  0  0  0
  -29.1221  -19.6707   21.8435 H   0  0  0  0  0  0
  -32.7733  -19.1812   18.9303 H   0  0  0  0  0  0
  -32.9139  -17.5529   19.5467 H   0  0  0  0  0  0
  -32.8684  -18.9085   20.6635 H   0  0  0  0  0  0
  -30.7454  -18.5335   17.6403 H   0  0  0  0  0  0
  -29.3150  -17.8773   18.4077 H   0  0  0  0  0  0
  -30.7727  -16.8914   18.2383 H   0  0  0  0  0  0
  -28.2946  -17.2616   20.7451 H   0  0  0  0  0  0
  -27.9472  -15.6415   21.2043 H   0  0  0  0  0  0
  -28.2603  -16.0881   19.4938 H   0  0  0  0  0  0
  -30.3592  -24.6007   20.3074 H   0  0  0  0  0  0
  -29.4024  -24.2713   21.7062 H   0  0  0  0  0  0
  -30.1438  -17.7382   21.8158 H   0  0  0  0  0  0
  -31.6199  -17.0378   21.4482 H   0  0  0  0  0  0
  -27.3128  -24.6715   20.4250 H   0  0  0  0  0  0
  -28.2075  -24.8441   18.9338 H   0  0  0  0  0  0
  1 25  1  0  0  0
  1 30  2  0  0  0
  1 84  1  0  0  0
  2  3  1  0  0  0
  2 25  1  0  0  0
  2 85  1  0  0  0
  2 86  1  0  0  0
  3  4  1  0  0  0
  3 87  1  0  0  0
  3 88  1  0  0  0
  4  5  1  0  0  0
  4 89  1  0  0  0
  4 90  1  0  0  0
  5  6  1  0  0  0
  5 26  1  0  0  0
  5 91  1  0  0  0
  6 25  1  0  0  0
  6 92  1  0  0  0
  6 93  1  0  0  0
  7  8  2  0  0  0
  7 26  1  0  0  0
  7 29  1  0  0  0
  8  9  1  0  0  0
  8 22  1  0  0  0
  9 10  1  0  0  0
  9 27  2  0  0  0
 10 11  2  0  0  0
 10 15  1  0  0  0
 11 12  1  0  0  0
 11 94  1  0  0  0
 12 13  2  0  0  0
 12 95  1  0  0  0
 13 14  1  0  0  0
 13 31  1  0  0  0
 14 15  2  0  0  0
 14 96  1  0  0  0
 15 97  1  0  0  0
 16 17  2  0  0  0
 16 21  1  0  0  0
 16 31  1  0  0  0
 17 18  1  0  0  0
 17 98  1  0  0  0
 18 19  2  0  0  0
 18 99  1  0  0  0
 19 20  1  0  0  0
 19 24  1  0  0  0
 20 21  2  0  0  0
 20100  1  0  0  0
 21 23  1  0  0  0
 22 28  1  0  0  0
 22 32  2  0  0  0
 26 27  1  0  0  0
 28101  1  0  0  0
 28102  1  0  0  0
 29103  1  0  0  0
 29104  1  0  0  0
 33 34  1  0  0  0
 33 66  1  0  0  0
 33 70  2  0  0  0
 34 36  1  0  0  0
 34 59  1  0  0  0
 34105  1  0  0  0
 35 44  2  0  0  0
 35 45  1  0  0  0
 35 68  1  0  0  0
 36 56  1  0  0  0
 36106  1  0  0  0
 37 39  1  0  0  0
 37 47  1  0  0  0
 37 66  1  0  0  0
 37107  1  0  0  0
 38 43  2  0  0  0
 38 46  1  0  0  0
 38 47  1  0  0  0
 39 64  1  0  0  0
 39 67  2  0  0  0
 40 52  1  0  0  0
 40 53  2  0  0  0
 40 58  1  0  0  0
 41108  1  0  0  0
 41109  1  0  0  0
 41110  1  0  0  0
 41 48  1  0  0  0
 42 43  1  0  0  0
 42 66  1  0  0  0
 42111  1  0  0  0
 42112  1  0  0  0
 43 44  1  0  0  0
 44113  1  0  0  0
 45 46  2  0  0  0
 45114  1  0  0  0
 46115  1  0  0  0
 47116  1  0  0  0
 47117  1  0  0  0
 48 56  1  0  0  0
 48 65  1  0  0  0
 48118  1  0  0  0
 49 50  1  0  0  0
 49 53  1  0  0  0
 49 64  1  0  0  0
 49119  1  0  0  0
 50 51  1  0  0  0
 50120  1  0  0  0
 50121  1  0  0  0
 51 52  1  0  0  0
 51122  1  0  0  0
 51123  1  0  0  0
 52124  1  0  0  0
 52125  1  0  0  0
 53 54  1  0  0  0
 54 55  2  0  0  0
 54126  1  0  0  0
 55 57  1  0  0  0
 55127  1  0  0  0
 56 69  2  0  0  0
 57 58  2  0  0  0
 57128  1  0  0  0
 58129  1  0  0  0
 59 60  1  0  0  0
 59 61  1  0  0  0
 59 62  1  0  0  0
 60130  1  0  0  0
 60131  1  0  0  0
 60132  1  0  0  0
 61133  1  0  0  0
 61134  1  0  0  0
 61135  1  0  0  0
 62136  1  0  0  0
 62137  1  0  0  0
 62138  1  0  0  0
 63 65  1  0  0  0
 63139  1  0  0  0
 63140  1  0  0  0
 63141  1  0  0  0
 64142  1  0  0  0
 65143  1  0  0  0
 68 80  1  0  0  0
 71 73  2  0  0  0
 71 83  1  0  0  0
 71144  1  0  0  0
 72 74  1  0  0  0
 72 82  2  0  0  0
 72145  1  0  0  0
 73 78  1  0  0  0
 73 82  1  0  0  0
 74 81  1  0  0  0
 74 83  2  0  0  0
 75146  1  0  0  0
 75147  1  0  0  0
 75148  1  0  0  0
 75 81  1  0  0  0
 76 81  1  0  0  0
 76149  1  0  0  0
 76150  1  0  0  0
 76151  1  0  0  0
 77 84  1  0  0  0
 77152  1  0  0  0
 77153  1  0  0  0
 77154  1  0  0  0
 78 80  1  0  0  0
 78155  1  0  0  0
 78156  1  0  0  0
 79 81  1  0  0  0
 79 84  1  0  0  0
 79157  1  0  0  0
 79158  1  0  0  0
 80159  1  0  0  0
 80160  1  0  0  0
M  ISO  4   1 100  68 101  80 101  84 100
M  END
> <chiral flag>
0

> <version>
0

> <s_m_source_file>
/data/baiqing/PycharmProjects/Reinvent-master-3.2/result/LINK_invent/BTK/process_docking_weight1_custom_sum_contain_oxygen_bond_distance_aromatic_linkinvent_7_9_3/rearranged_h_0061.sdf

> <i_m_source_file_index>
79

> <r_mmod_Potential_Energy-OPLS-2005>
346.929992675781

> <r_mmod_Stretch_Energy-OPLS-2005>
109.012084960938

> <r_mmod_Bend_Energy-OPLS-2005>
189.900817871094

> <r_mmod_Torsional_Energy-OPLS-2005>
272.683410644531

> <r_mmod_Improper_Torsional_Energy-OPLS-2005>
4.18993663787842

> <r_mmod_Van_der_Waal_Energy-OPLS-2005>
166.226303100586

> <r_mmod_Electrostatic_Energy-OPLS-2005>
-255.963424682617

> <r_mmod_Solvation_Energy-OPLS-2005>
-208.918487548828

> <b_mmod_Minimization_Converged-OPLS-2005>
0

> <r_mmod_RMS_Derivative-OPLS-2005>
3.91429996490479

$$$$
84
                    3D
 Structure written by MMmdl.
155163  0  0  1  0            999 V2000
  -30.6070  -14.8108   20.4274 C   0  0  0  0  0  0
  -30.4257  -12.5002   19.4775 C   0  0  0  0  0  0
  -29.5081  -12.5024   18.2370 C   0  0  0  0  0  0
  -28.0402  -12.3102   18.6576 C   0  0  0  0  0  0
  -27.6297  -13.2352   19.8370 C   0  0  2  0  0  0
  -28.6736  -13.2358   20.9718 C   0  0  0  0  0  0
  -25.2440  -13.8083   20.5667 C   0  0  0  0  0  0
  -24.1752  -13.0376   20.9251 C   0  0  0  0  0  0
  -24.6386  -11.6868   20.8778 C   0  0  0  0  0  0
  -23.9067  -10.4277   21.0445 C   0  0  0  0  0  0
  -24.3639   -9.4191   21.9195 C   0  0  0  0  0  0
  -23.6301   -8.2242   22.0780 C   0  0  0  0  0  0
  -22.4288   -8.0291   21.3559 C   0  0  0  0  0  0
  -21.9928   -9.0271   20.4671 C   0  0  0  0  0  0
  -22.7271  -10.2133   20.3069 C   0  0  0  0  0  0
  -21.6852   -6.0764   22.5281 C   0  0  0  0  0  0
  -21.4004   -6.5658   23.8217 C   0  0  0  0  0  0
  -21.3638   -5.6802   24.9172 C   0  0  0  0  0  0
  -21.6048   -4.3069   24.7217 C   0  0  0  0  0  0
  -21.8815   -3.8171   23.4331 C   0  0  0  0  0  0
  -21.9195   -4.6996   22.3396 C   0  0  0  0  0  0
  -22.7788  -13.5197   21.1891 C   0  0  0  0  0  0
  -22.1667   -4.2187   21.0974 F   0  0  0  0  0  0
  -21.5627   -3.4545   25.7722 F   0  0  0  0  0  0
  -29.9567  -13.5944   20.3630 N   0  0  0  0  0  0
  -26.2875  -12.9343   20.3246 N   0  0  0  0  0  0
  -25.9321  -11.6490   20.5782 N   0  0  0  0  0  0
  -22.0411  -12.8214   22.0450 N   0  0  0  0  0  0
  -25.4108  -15.1741   20.3940 N   0  0  0  0  0  0
  -31.8170  -14.8361   20.1942 O   0  0  0  0  0  0
  -21.6639   -6.8903   21.4249 O   0  0  0  0  0  0
  -22.3503  -14.5524   20.6749 O   0  0  0  0  0  0
  -24.6342  -31.8509   23.1920 C   0  0  0  0  0  0
  -25.9147  -32.4728   23.8290 C   0  0  1  0  0  0
  -27.2294  -27.2306   20.1186 C   0  0  0  0  0  0
  -25.5917  -33.8532   24.2220 N   0  0  0  0  0  0
  -23.4323  -30.4715   21.5346 C   0  0  2  0  0  0
  -24.8803  -28.9059   20.1092 C   0  0  0  0  0  0
  -22.7500  -29.4597   22.4877 C   0  0  0  0  0  0
  -18.0271  -28.1383   22.8458 C   0  0  0  0  0  0
  -24.1490  -36.7272   23.2641 C   0  0  0  0  0  0
  -25.9814  -30.7545   21.3745 C   0  0  0  0  0  0
  -26.0520  -29.3730   20.7144 C   0  0  0  0  0  0
  -27.2246  -28.5467   20.7071 C   0  0  0  0  0  0
  -26.0227  -26.8302   19.5036 C   0  0  0  0  0  0
  -24.8711  -27.6434   19.4966 C   0  0  0  0  0  0
  -23.6504  -29.7942   20.1559 C   0  0  0  0  0  0
  -25.4118  -36.3045   24.0320 C   0  0  1  0  0  0
  -20.5883  -28.3645   23.1164 C   0  0  2  0  0  0
  -20.6722  -26.9332   22.5400 C   0  0  0  0  0  0
  -19.5664  -26.6241   21.5258 C   0  0  0  0  0  0
  -18.1851  -26.7899   22.1629 C   0  0  0  0  0  0
  -19.1547  -28.8839   23.2797 C   0  0  0  0  0  0
  -18.9498  -30.1431   23.8818 C   0  0  0  0  0  0
  -17.6504  -30.6577   24.0607 C   0  0  0  0  0  0
  -25.9048  -34.9420   23.5078 C   0  0  0  0  0  0
  -16.5371  -29.9095   23.6396 C   0  0  0  0  0  0
  -16.7271  -28.6519   23.0375 C   0  0  0  0  0  0
  -26.4496  -31.6586   25.0706 C   0  0  0  0  0  0
  -25.3712  -31.3766   26.1427 C   0  0  0  0  0  0
  -27.0346  -30.2996   24.6223 C   0  0  0  0  0  0
  -27.6020  -32.4362   25.7475 C   0  0  0  0  0  0
  -27.5578  -37.1786   24.8459 C   0  0  0  0  0  0
  -21.4236  -29.2935   22.3500 N   0  0  0  0  0  0
  -26.4288  -37.3739   23.9391 N   0  0  0  0  0  0
  -24.7021  -31.0447   22.0898 N   0  0  0  0  0  0
  -23.4151  -28.8227   23.3092 O   0  0  0  0  0  0
  -28.3449  -26.3539   20.2013 O   0  0  0  0  0  0
  -26.5634  -34.8906   22.4653 O   0  0  0  0  0  0
  -23.5474  -32.1355   23.7198 O   0  0  0  0  0  0
  -28.8051  -20.7069   20.1867 C   0  0  0  0  0  0
  -28.9100  -18.5336   20.5922 C   0  0  0  0  0  0
  -29.9443  -17.0982   22.4873 C   0  0  0  0  0  0
  -26.3880  -18.1883   20.3872 C   0  0  0  0  0  0
  -29.0933  -22.1945   19.7031 C   0  0  0  0  0  0
  -28.5371  -23.5542   20.4313 C   0  0  0  0  0  0
  -28.4406  -24.9644   19.5962 C   0  0  0  0  0  0
  -29.2564  -17.0396   21.1137 C   0  0  2  0  0  0
  -29.7031  -19.6483   20.4487 N   0  0  0  0  0  0
  -27.5536  -20.2713   20.1272 N   0  0  0  0  0  0
  -27.6304  -18.9277   20.3793 N   0  0  0  0  0  0
  -29.9092  -16.0001   20.1978 N   0  0  0  0  0  0
  -31.4659  -12.6310   19.1714 H   0  0  0  0  0  0
  -30.3824  -11.5395   19.9933 H   0  0  0  0  0  0
  -29.8045  -11.7121   17.5457 H   0  0  0  0  0  0
  -29.6160  -13.4425   17.6920 H   0  0  0  0  0  0
  -27.9202  -11.2660   18.9504 H   0  0  0  0  0  0
  -27.3767  -12.4632   17.8059 H   0  0  0  0  0  0
  -27.6014  -14.2436   19.4215 H   0  0  0  0  0  0
  -28.7297  -12.2600   21.4550 H   0  0  0  0  0  0
  -28.4007  -13.9545   21.7461 H   0  0  0  0  0  0
  -25.2798   -9.5680   22.4746 H   0  0  0  0  0  0
  -24.0029   -7.4627   22.7480 H   0  0  0  0  0  0
  -21.0873   -8.8804   19.8945 H   0  0  0  0  0  0
  -22.3762  -10.9686   19.6170 H   0  0  0  0  0  0
  -21.1987   -7.6164   23.9734 H   0  0  0  0  0  0
  -21.1456   -6.0528   25.9074 H   0  0  0  0  0  0
  -22.0611   -2.7639   23.2819 H   0  0  0  0  0  0
  -22.4007  -11.9853   22.4804 H   0  0  0  0  0  0
  -21.1021  -13.1237   22.2623 H   0  0  0  0  0  0
  -24.6236  -15.8128   20.4271 H   0  0  0  0  0  0
  -26.2360  -15.5716   19.9686 H   0  0  0  0  0  0
  -26.7209  -32.5365   23.1018 H   0  0  0  0  0  0
  -25.0000  -33.9634   25.0325 H   0  0  0  0  0  0
  -22.7292  -31.2947   21.3818 H   0  0  0  0  0  0
  -23.3743  -35.9607   23.3286 H   0  0  0  0  0  0
  -24.3571  -36.8920   22.2059 H   0  0  0  0  0  0
  -23.7274  -37.6480   23.6673 H   0  0  0  0  0  0
  -26.1251  -31.5162   20.6078 H   0  0  0  0  0  0
  -26.8563  -30.7994   22.0109 H   0  0  0  0  0  0
  -28.1242  -28.8995   21.1924 H   0  0  0  0  0  0
  -25.9207  -25.8549   19.0577 H   0  0  0  0  0  0
  -23.9651  -27.2710   19.0365 H   0  0  0  0  0  0
  -22.7722  -29.2157   19.8624 H   0  0  0  0  0  0
  -23.7690  -30.5589   19.3882 H   0  0  0  0  0  0
  -25.1316  -36.1870   25.0814 H   0  0  0  0  0  0
  -20.9957  -28.3255   24.1284 H   0  0  0  0  0  0
  -20.5568  -26.2304   23.3673 H   0  0  0  0  0  0
  -21.6574  -26.7270   22.1216 H   0  0  0  0  0  0
  -19.6747  -25.6087   21.1444 H   0  0  0  0  0  0
  -19.6584  -27.2871   20.6633 H   0  0  0  0  0  0
  -17.4121  -26.6624   21.4032 H   0  0  0  0  0  0
  -18.0196  -26.0102   22.9087 H   0  0  0  0  0  0
  -19.8034  -30.7198   24.2079 H   0  0  0  0  0  0
  -17.5105  -31.6241   24.5272 H   0  0  0  0  0  0
  -15.5372  -30.2968   23.7772 H   0  0  0  0  0  0
  -15.8652  -28.0883   22.7081 H   0  0  0  0  0  0
  -24.5851  -30.7144   25.7767 H   0  0  0  0  0  0
  -24.8936  -32.2961   26.4828 H   0  0  0  0  0  0
  -25.8014  -30.8961   27.0227 H   0  0  0  0  0  0
  -26.2939  -29.6742   24.1216 H   0  0  0  0  0  0
  -27.3990  -29.7252   25.4751 H   0  0  0  0  0  0
  -27.8823  -30.4255   23.9482 H   0  0  0  0  0  0
  -27.2582  -33.3656   26.2017 H   0  0  0  0  0  0
  -28.3824  -32.6963   25.0311 H   0  0  0  0  0  0
  -28.0688  -31.8547   26.5433 H   0  0  0  0  0  0
  -28.2599  -38.0079   24.7493 H   0  0  0  0  0  0
  -28.1086  -36.2622   24.6294 H   0  0  0  0  0  0
  -27.2296  -37.1434   25.8861 H   0  0  0  0  0  0
  -20.9540  -29.8384   21.6396 H   0  0  0  0  0  0
  -26.0173  -38.2810   24.1366 H   0  0  0  0  0  0
  -29.3429  -17.6748   23.1917 H   0  0  0  0  0  0
  -30.9222  -17.5742   22.4171 H   0  0  0  0  0  0
  -30.0780  -16.1076   22.9236 H   0  0  0  0  0  0
  -26.2762  -17.6547   21.3301 H   0  0  0  0  0  0
  -26.3892  -17.4894   19.5520 H   0  0  0  0  0  0
  -25.5349  -18.8583   20.2652 H   0  0  0  0  0  0
  -28.7227  -22.2329   18.6776 H   0  0  0  0  0  0
  -30.1741  -22.2924   19.5939 H   0  0  0  0  0  0
  -29.1546  -23.7185   21.3146 H   0  0  0  0  0  0
  -27.5410  -23.3407   20.8152 H   0  0  0  0  0  0
  -27.7081  -24.8408   18.8001 H   0  0  0  0  0  0
  -29.3783  -25.0175   19.0417 H   0  0  0  0  0  0
  -28.2930  -16.5742   21.3212 H   0  0  0  0  0  0
  -30.4062  -16.5170   19.4861 H   0  0  0  0  0  0
  1 25  1  0  0  0
  1 30  2  0  0  0
  1 82  1  0  0  0
  2  3  1  0  0  0
  2 25  1  0  0  0
  2 83  1  0  0  0
  2 84  1  0  0  0
  3  4  1  0  0  0
  3 85  1  0  0  0
  3 86  1  0  0  0
  4  5  1  0  0  0
  4 87  1  0  0  0
  4 88  1  0  0  0
  5  6  1  0  0  0
  5 26  1  0  0  0
  5 89  1  0  0  0
  6 25  1  0  0  0
  6 90  1  0  0  0
  6 91  1  0  0  0
  7  8  2  0  0  0
  7 26  1  0  0  0
  7 29  1  0  0  0
  8  9  1  0  0  0
  8 22  1  0  0  0
  9 10  1  0  0  0
  9 27  2  0  0  0
 10 11  2  0  0  0
 10 15  1  0  0  0
 11 12  1  0  0  0
 11 92  1  0  0  0
 12 13  2  0  0  0
 12 93  1  0  0  0
 13 14  1  0  0  0
 13 31  1  0  0  0
 14 15  2  0  0  0
 14 94  1  0  0  0
 15 95  1  0  0  0
 16 17  2  0  0  0
 16 21  1  0  0  0
 16 31  1  0  0  0
 17 18  1  0  0  0
 17 96  1  0  0  0
 18 19  2  0  0  0
 18 97  1  0  0  0
 19 20  1  0  0  0
 19 24  1  0  0  0
 20 21  2  0  0  0
 20 98  1  0  0  0
 21 23  1  0  0  0
 22 28  1  0  0  0
 22 32  2  0  0  0
 26 27  1  0  0  0
 28 99  1  0  0  0
 28100  1  0  0  0
 29101  1  0  0  0
 29102  1  0  0  0
 33 34  1  0  0  0
 33 66  1  0  0  0
 33 70  2  0  0  0
 34 36  1  0  0  0
 34 59  1  0  0  0
 34103  1  0  0  0
 35 44  2  0  0  0
 35 45  1  0  0  0
 35 68  1  0  0  0
 36 56  1  0  0  0
 36104  1  0  0  0
 37 39  1  0  0  0
 37 47  1  0  0  0
 37 66  1  0  0  0
 37105  1  0  0  0
 38 43  2  0  0  0
 38 46  1  0  0  0
 38 47  1  0  0  0
 39 64  1  0  0  0
 39 67  2  0  0  0
 40 52  1  0  0  0
 40 53  2  0  0  0
 40 58  1  0  0  0
 41106  1  0  0  0
 41107  1  0  0  0
 41108  1  0  0  0
 41 48  1  0  0  0
 42 43  1  0  0  0
 42 66  1  0  0  0
 42109  1  0  0  0
 42110  1  0  0  0
 43 44  1  0  0  0
 44111  1  0  0  0
 45 46  2  0  0  0
 45112  1  0  0  0
 46113  1  0  0  0
 47114  1  0  0  0
 47115  1  0  0  0
 48 56  1  0  0  0
 48 65  1  0  0  0
 48116  1  0  0  0
 49 50  1  0  0  0
 49 53  1  0  0  0
 49 64  1  0  0  0
 49117  1  0  0  0
 50 51  1  0  0  0
 50118  1  0  0  0
 50119  1  0  0  0
 51 52  1  0  0  0
 51120  1  0  0  0
 51121  1  0  0  0
 52122  1  0  0  0
 52123  1  0  0  0
 53 54  1  0  0  0
 54 55  2  0  0  0
 54124  1  0  0  0
 55 57  1  0  0  0
 55125  1  0  0  0
 56 69  2  0  0  0
 57 58  2  0  0  0
 57126  1  0  0  0
 58127  1  0  0  0
 59 60  1  0  0  0
 59 61  1  0  0  0
 59 62  1  0  0  0
 60128  1  0  0  0
 60129  1  0  0  0
 60130  1  0  0  0
 61131  1  0  0  0
 61132  1  0  0  0
 61133  1  0  0  0
 62134  1  0  0  0
 62135  1  0  0  0
 62136  1  0  0  0
 63 65  1  0  0  0
 63137  1  0  0  0
 63138  1  0  0  0
 63139  1  0  0  0
 64140  1  0  0  0
 65141  1  0  0  0
 68 77  1  0  0  0
 71 75  1  0  0  0
 71 79  1  0  0  0
 71 80  2  0  0  0
 72 78  1  0  0  0
 72 79  2  0  0  0
 72 81  1  0  0  0
 73142  1  0  0  0
 73143  1  0  0  0
 73144  1  0  0  0
 73 78  1  0  0  0
 74 81  1  0  0  0
 74145  1  0  0  0
 74146  1  0  0  0
 74147  1  0  0  0
 75 76  1  0  0  0
 75148  1  0  0  0
 75149  1  0  0  0
 76 77  1  0  0  0
 76150  1  0  0  0
 76151  1  0  0  0
 77152  1  0  0  0
 77153  1  0  0  0
 78 82  1  0  0  0
 78154  1  0  0  0
 80 81  1  0  0  0
 82155  1  0  0  0
M  ISO  4   1 100  68 101  77 101  82 100
M  END
> <chiral flag>
0

> <version>
0

> <s_m_source_file>
/data/baiqing/PycharmProjects/Reinvent-master-3.2/result/LINK_invent/BTK/process_docking_weight1_custom_sum_contain_oxygen_bond_distance_aromatic_linkinvent_7_9_3/rearranged_h_0061.sdf

> <i_m_source_file_index>
80

> <r_mmod_Potential_Energy-OPLS-2005>
202.381942749023

> <r_mmod_Stretch_Energy-OPLS-2005>
152.363616943359

> <r_mmod_Bend_Energy-OPLS-2005>
245.478500366211

> <r_mmod_Torsional_Energy-OPLS-2005>
255.795272827148

> <r_mmod_Improper_Torsional_Energy-OPLS-2005>
25.0723247528076

> <r_mmod_Van_der_Waal_Energy-OPLS-2005>
110.317718505859

> <r_mmod_Electrostatic_Energy-OPLS-2005>
-472.744323730469

> <r_mmod_Solvation_Energy-OPLS-2005>
-226.860229492188

> <b_mmod_Minimization_Converged-OPLS-2005>
0

> <r_mmod_RMS_Derivative-OPLS-2005>
3.33285641670227

$$$$
85
                    3D
 Structure written by MMmdl.
160168  0  0  1  0            999 V2000
  -30.6788  -14.7951   20.4831 C   0  0  0  0  0  0
  -30.4131  -12.4964   19.4907 C   0  0  0  0  0  0
  -29.5022  -12.5257   18.2441 C   0  0  0  0  0  0
  -28.0337  -12.3259   18.6552 C   0  0  0  0  0  0
  -27.6306  -13.2310   19.8461 C   0  0  2  0  0  0
  -28.6820  -13.2254   20.9888 C   0  0  0  0  0  0
  -25.2261  -13.8092   20.5521 C   0  0  0  0  0  0
  -24.1670  -13.0335   20.9222 C   0  0  0  0  0  0
  -24.6351  -11.6857   20.8806 C   0  0  0  0  0  0
  -23.9056  -10.4243   21.0444 C   0  0  0  0  0  0
  -24.3612   -9.4171   21.9214 C   0  0  0  0  0  0
  -23.6305   -8.2195   22.0758 C   0  0  0  0  0  0
  -22.4277   -8.0250   21.3544 C   0  0  0  0  0  0
  -21.9913   -9.0221   20.4641 C   0  0  0  0  0  0
  -22.7240  -10.2098   20.3073 C   0  0  0  0  0  0
  -21.6840   -6.0721   22.5295 C   0  0  0  0  0  0
  -21.3990   -6.5619   23.8227 C   0  0  0  0  0  0
  -21.3661   -5.6770   24.9191 C   0  0  0  0  0  0
  -21.6059   -4.3036   24.7235 C   0  0  0  0  0  0
  -21.8816   -3.8135   23.4355 C   0  0  0  0  0  0
  -21.9191   -4.6952   22.3415 C   0  0  0  0  0  0
  -22.7700  -13.5128   21.1890 C   0  0  0  0  0  0
  -22.1672   -4.2142   21.0990 F   0  0  0  0  0  0
  -21.5641   -3.4521   25.7751 F   0  0  0  0  0  0
  -29.9858  -13.5900   20.4140 N   0  0  0  0  0  0
  -26.2830  -12.9397   20.3260 N   0  0  0  0  0  0
  -25.9299  -11.6537   20.5836 N   0  0  0  0  0  0
  -22.0356  -12.8155   22.0474 N   0  0  0  0  0  0
  -25.3428  -15.1774   20.3581 N   0  0  0  0  0  0
  -31.8082  -14.8234   19.9802 O   0  0  0  0  0  0
  -21.6636   -6.8858   21.4255 O   0  0  0  0  0  0
  -22.3394  -14.5443   20.6741 O   0  0  0  0  0  0
  -24.6322  -31.8486   23.1902 C   0  0  0  0  0  0
  -25.9121  -32.4731   23.8277 C   0  0  1  0  0  0
  -27.2383  -27.2263   20.1465 C   0  0  0  0  0  0
  -25.5893  -33.8538   24.2194 N   0  0  0  0  0  0
  -23.4335  -30.4642   21.5331 C   0  0  2  0  0  0
  -24.8869  -28.8974   20.1075 C   0  0  0  0  0  0
  -22.7515  -29.4559   22.4885 C   0  0  0  0  0  0
  -18.0286  -28.1395   22.8475 C   0  0  0  0  0  0
  -24.1478  -36.7284   23.2643 C   0  0  0  0  0  0
  -25.9789  -30.7525   21.3723 C   0  0  0  0  0  0
  -26.0536  -29.3684   20.7213 C   0  0  0  0  0  0
  -27.2260  -28.5436   20.7294 C   0  0  0  0  0  0
  -26.0483  -26.8219   19.5050 C   0  0  0  0  0  0
  -24.8925  -27.6354   19.4871 C   0  0  0  0  0  0
  -23.6545  -29.7841   20.1531 C   0  0  0  0  0  0
  -25.4108  -36.3059   24.0316 C   0  0  1  0  0  0
  -20.5895  -28.3697   23.1259 C   0  0  2  0  0  0
  -20.6761  -26.9409   22.5409 C   0  0  0  0  0  0
  -19.5737  -26.6374   21.5219 C   0  0  0  0  0  0
  -18.1917  -26.7924   22.1631 C   0  0  0  0  0  0
  -19.1538  -28.8863   23.2857 C   0  0  0  0  0  0
  -18.9463  -30.1469   23.8878 C   0  0  0  0  0  0
  -17.6462  -30.6596   24.0560 C   0  0  0  0  0  0
  -25.9047  -34.9432   23.5065 C   0  0  0  0  0  0
  -16.5353  -29.9092   23.6345 C   0  0  0  0  0  0
  -16.7269  -28.6510   23.0356 C   0  0  0  0  0  0
  -26.4465  -31.6595   25.0702 C   0  0  0  0  0  0
  -25.3659  -31.3815   26.1411 C   0  0  0  0  0  0
  -27.0316  -30.2996   24.6245 C   0  0  0  0  0  0
  -27.5993  -32.4359   25.7496 C   0  0  0  0  0  0
  -27.5571  -37.1799   24.8460 C   0  0  0  0  0  0
  -21.4221  -29.3035   22.3642 N   0  0  0  0  0  0
  -26.4274  -37.3762   23.9406 N   0  0  0  0  0  0
  -24.7007  -31.0412   22.0889 N   0  0  0  0  0  0
  -23.4192  -28.8102   23.3006 O   0  0  0  0  0  0
  -28.3514  -26.3528   20.2670 O   0  0  0  0  0  0
  -26.5654  -34.8912   22.4659 O   0  0  0  0  0  0
  -23.5462  -32.1325   23.7184 O   0  0  0  0  0  0
  -30.2671  -19.5156   18.3538 C   0  0  0  0  0  0
  -29.8533  -20.7834   18.8079 C   0  0  0  0  0  0
  -29.4001  -20.9038   20.1342 C   0  0  0  0  0  0
  -29.7395  -18.5089   20.3424 C   0  0  0  0  0  0
  -29.9443  -21.9814   17.8824 C   0  0  0  0  0  0
  -28.0321  -16.6632   20.3673 C   0  0  0  0  0  0
  -31.2909  -16.3332   22.2214 C   0  0  0  0  0  0
  -29.2192  -22.3658   20.7898 C   0  0  0  0  0  0
  -28.1288  -23.5176   20.3624 C   0  0  0  0  0  0
  -28.4921  -24.9634   19.6770 C   0  0  0  0  0  0
  -29.3313  -17.1104   21.0058 C   0  0  2  0  0  0
  -30.2228  -18.4049   19.1136 N   0  0  0  0  0  0
  -29.3313  -19.7179   20.8679 N   0  0  0  0  0  0
  -30.2770  -15.9030   21.2439 N   0  0  0  0  0  0
  -31.4547  -12.5792   19.1799 H   0  0  0  0  0  0
  -30.3442  -11.5310   19.9949 H   0  0  0  0  0  0
  -29.8011  -11.7532   17.5337 H   0  0  0  0  0  0
  -29.6175  -13.4801   17.7270 H   0  0  0  0  0  0
  -27.8962  -11.2777   18.9196 H   0  0  0  0  0  0
  -27.3808  -12.5119   17.8011 H   0  0  0  0  0  0
  -27.5984  -14.2263   19.4165 H   0  0  0  0  0  0
  -28.7373  -12.2405   21.4561 H   0  0  0  0  0  0
  -28.4030  -13.9158   21.7841 H   0  0  0  0  0  0
  -25.2750   -9.5684   22.4798 H   0  0  0  0  0  0
  -24.0020   -7.4576   22.7463 H   0  0  0  0  0  0
  -21.0847   -8.8755   19.8943 H   0  0  0  0  0  0
  -22.3709  -10.9645   19.6190 H   0  0  0  0  0  0
  -21.1957   -7.6122   23.9732 H   0  0  0  0  0  0
  -21.1495   -6.0498   25.9093 H   0  0  0  0  0  0
  -22.0595   -2.7601   23.2858 H   0  0  0  0  0  0
  -22.3967  -11.9843   22.4913 H   0  0  0  0  0  0
  -21.0966  -13.1195   22.2643 H   0  0  0  0  0  0
  -24.5395  -15.7904   20.4449 H   0  0  0  0  0  0
  -26.1564  -15.6427   19.9800 H   0  0  0  0  0  0
  -26.7195  -32.5366   23.1026 H   0  0  0  0  0  0
  -24.9980  -33.9651   25.0301 H   0  0  0  0  0  0
  -22.7328  -31.2874   21.3797 H   0  0  0  0  0  0
  -23.3727  -35.9631   23.3312 H   0  0  0  0  0  0
  -24.3558  -36.8905   22.2056 H   0  0  0  0  0  0
  -23.7244  -37.6491   23.6670 H   0  0  0  0  0  0
  -26.1091  -31.5053   20.5924 H   0  0  0  0  0  0
  -26.8595  -30.8156   22.0017 H   0  0  0  0  0  0
  -28.1175  -28.8968   21.2297 H   0  0  0  0  0  0
  -25.9835  -25.8433   19.0526 H   0  0  0  0  0  0
  -23.9976  -27.2670   19.0046 H   0  0  0  0  0  0
  -23.7711  -30.5518   19.3877 H   0  0  0  0  0  0
  -22.7763  -29.2059   19.8579 H   0  0  0  0  0  0
  -25.1297  -36.1896   25.0808 H   0  0  0  0  0  0
  -20.9982  -28.3284   24.1384 H   0  0  0  0  0  0
  -20.5652  -26.2310   23.3614 H   0  0  0  0  0  0
  -21.6625  -26.7414   22.1217 H   0  0  0  0  0  0
  -19.6888  -25.6277   21.1263 H   0  0  0  0  0  0
  -19.6679  -27.3166   20.6734 H   0  0  0  0  0  0
  -17.4183  -26.6651   21.4050 H   0  0  0  0  0  0
  -18.0339  -26.0086   22.9047 H   0  0  0  0  0  0
  -19.7941  -30.7286   24.2233 H   0  0  0  0  0  0
  -17.5021  -31.6278   24.5160 H   0  0  0  0  0  0
  -15.5349  -30.2988   23.7694 H   0  0  0  0  0  0
  -15.8662  -28.0833   22.7083 H   0  0  0  0  0  0
  -24.5802  -30.7195   25.7753 H   0  0  0  0  0  0
  -24.8881  -32.3020   26.4779 H   0  0  0  0  0  0
  -25.7922  -30.9025   27.0231 H   0  0  0  0  0  0
  -26.2933  -29.6761   24.1182 H   0  0  0  0  0  0
  -27.3871  -29.7250   25.4813 H   0  0  0  0  0  0
  -27.8854  -30.4251   23.9579 H   0  0  0  0  0  0
  -27.2566  -33.3660   26.2048 H   0  0  0  0  0  0
  -28.3821  -32.6928   25.0348 H   0  0  0  0  0  0
  -28.0635  -31.8506   26.5443 H   0  0  0  0  0  0
  -28.2588  -38.0097   24.7490 H   0  0  0  0  0  0
  -28.1053  -36.2618   24.6292 H   0  0  0  0  0  0
  -27.2278  -37.1472   25.8860 H   0  0  0  0  0  0
  -20.9410  -29.8762   21.6844 H   0  0  0  0  0  0
  -26.0145  -38.2827   24.1410 H   0  0  0  0  0  0
  -30.6440  -19.3887   17.3493 H   0  0  0  0  0  0
  -30.3062  -21.6894   16.8945 H   0  0  0  0  0  0
  -30.6232  -22.7318   18.2866 H   0  0  0  0  0  0
  -28.9595  -22.4310   17.7551 H   0  0  0  0  0  0
  -28.1753  -16.3703   19.3275 H   0  0  0  0  0  0
  -27.2900  -17.4623   20.3900 H   0  0  0  0  0  0
  -27.6490  -15.8396   20.9558 H   0  0  0  0  0  0
  -32.0065  -15.5465   22.4711 H   0  0  0  0  0  0
  -30.8239  -16.6303   23.1605 H   0  0  0  0  0  0
  -31.8636  -17.1808   21.8432 H   0  0  0  0  0  0
  -30.2070  -22.8248   20.7597 H   0  0  0  0  0  0
  -29.0587  -22.1760   21.8526 H   0  0  0  0  0  0
  -27.5669  -23.7594   21.2640 H   0  0  0  0  0  0
  -27.3897  -23.0238   19.7327 H   0  0  0  0  0  0
  -28.0237  -24.9828   18.6921 H   0  0  0  0  0  0
  -29.5531  -24.8956   19.4351 H   0  0  0  0  0  0
  -29.0318  -17.4019   22.0137 H   0  0  0  0  0  0
  1 25  1  0  0  0
  1 30  2  0  0  0
  1 84  1  0  0  0
  2  3  1  0  0  0
  2 25  1  0  0  0
  2 85  1  0  0  0
  2 86  1  0  0  0
  3  4  1  0  0  0
  3 87  1  0  0  0
  3 88  1  0  0  0
  4  5  1  0  0  0
  4 89  1  0  0  0
  4 90  1  0  0  0
  5  6  1  0  0  0
  5 26  1  0  0  0
  5 91  1  0  0  0
  6 25  1  0  0  0
  6 92  1  0  0  0
  6 93  1  0  0  0
  7  8  2  0  0  0
  7 26  1  0  0  0
  7 29  1  0  0  0
  8  9  1  0  0  0
  8 22  1  0  0  0
  9 10  1  0  0  0
  9 27  2  0  0  0
 10 11  2  0  0  0
 10 15  1  0  0  0
 11 12  1  0  0  0
 11 94  1  0  0  0
 12 13  2  0  0  0
 12 95  1  0  0  0
 13 14  1  0  0  0
 13 31  1  0  0  0
 14 15  2  0  0  0
 14 96  1  0  0  0
 15 97  1  0  0  0
 16 17  2  0  0  0
 16 21  1  0  0  0
 16 31  1  0  0  0
 17 18  1  0  0  0
 17 98  1  0  0  0
 18 19  2  0  0  0
 18 99  1  0  0  0
 19 20  1  0  0  0
 19 24  1  0  0  0
 20 21  2  0  0  0
 20100  1  0  0  0
 21 23  1  0  0  0
 22 28  1  0  0  0
 22 32  2  0  0  0
 26 27  1  0  0  0
 28101  1  0  0  0
 28102  1  0  0  0
 29103  1  0  0  0
 29104  1  0  0  0
 33 34  1  0  0  0
 33 66  1  0  0  0
 33 70  2  0  0  0
 34 36  1  0  0  0
 34 59  1  0  0  0
 34105  1  0  0  0
 35 44  2  0  0  0
 35 45  1  0  0  0
 35 68  1  0  0  0
 36 56  1  0  0  0
 36106  1  0  0  0
 37 39  1  0  0  0
 37 47  1  0  0  0
 37 66  1  0  0  0
 37107  1  0  0  0
 38 43  2  0  0  0
 38 46  1  0  0  0
 38 47  1  0  0  0
 39 64  1  0  0  0
 39 67  2  0  0  0
 40 52  1  0  0  0
 40 53  2  0  0  0
 40 58  1  0  0  0
 41108  1  0  0  0
 41109  1  0  0  0
 41110  1  0  0  0
 41 48  1  0  0  0
 42 43  1  0  0  0
 42 66  1  0  0  0
 42111  1  0  0  0
 42112  1  0  0  0
 43 44  1  0  0  0
 44113  1  0  0  0
 45 46  2  0  0  0
 45114  1  0  0  0
 46115  1  0  0  0
 47116  1  0  0  0
 47117  1  0  0  0
 48 56  1  0  0  0
 48 65  1  0  0  0
 48118  1  0  0  0
 49 50  1  0  0  0
 49 53  1  0  0  0
 49 64  1  0  0  0
 49119  1  0  0  0
 50 51  1  0  0  0
 50120  1  0  0  0
 50121  1  0  0  0
 51 52  1  0  0  0
 51122  1  0  0  0
 51123  1  0  0  0
 52124  1  0  0  0
 52125  1  0  0  0
 53 54  1  0  0  0
 54 55  2  0  0  0
 54126  1  0  0  0
 55 57  1  0  0  0
 55127  1  0  0  0
 56 69  2  0  0  0
 57 58  2  0  0  0
 57128  1  0  0  0
 58129  1  0  0  0
 59 60  1  0  0  0
 59 61  1  0  0  0
 59 62  1  0  0  0
 60130  1  0  0  0
 60131  1  0  0  0
 60132  1  0  0  0
 61133  1  0  0  0
 61134  1  0  0  0
 61135  1  0  0  0
 62136  1  0  0  0
 62137  1  0  0  0
 62138  1  0  0  0
 63 65  1  0  0  0
 63139  1  0  0  0
 63140  1  0  0  0
 63141  1  0  0  0
 64142  1  0  0  0
 65143  1  0  0  0
 68 80  1  0  0  0
 71 72  2  0  0  0
 71 82  1  0  0  0
 71144  1  0  0  0
 72 73  1  0  0  0
 72 75  1  0  0  0
 73 78  1  0  0  0
 73 83  2  0  0  0
 74 81  1  0  0  0
 74 82  2  0  0  0
 74 83  1  0  0  0
 75145  1  0  0  0
 75146  1  0  0  0
 75147  1  0  0  0
 76148  1  0  0  0
 76149  1  0  0  0
 76150  1  0  0  0
 76 81  1  0  0  0
 77 84  1  0  0  0
 77151  1  0  0  0
 77152  1  0  0  0
 77153  1  0  0  0
 78 79  1  0  0  0
 78154  1  0  0  0
 78155  1  0  0  0
 79 80  1  0  0  0
 79156  1  0  0  0
 79157  1  0  0  0
 80158  1  0  0  0
 80159  1  0  0  0
 81 84  1  0  0  0
 81160  1  0  0  0
M  ISO  4   1 100  68 101  80 101  84 100
M  END
> <chiral flag>
0

> <version>
0

> <s_m_source_file>
/data/baiqing/PycharmProjects/Reinvent-master-3.2/result/LINK_invent/BTK/process_docking_weight1_custom_sum_contain_oxygen_bond_distance_aromatic_linkinvent_7_9_3/rearranged_h_0061.sdf

> <i_m_source_file_index>
81

> <r_mmod_Potential_Energy-OPLS-2005>
-49.9067420959473

> <r_mmod_Stretch_Energy-OPLS-2005>
157.700897216797

> <r_mmod_Bend_Energy-OPLS-2005>
277.373352050781

> <r_mmod_Torsional_Energy-OPLS-2005>
269.767456054688

> <r_mmod_Improper_Torsional_Energy-OPLS-2005>
10.0646467208862

> <r_mmod_Van_der_Waal_Energy-OPLS-2005>
148.388305664062

> <r_mmod_Electrostatic_Energy-OPLS-2005>
-800.160888671875

> <r_mmod_Solvation_Energy-OPLS-2005>
-221.072540283203

> <b_mmod_Minimization_Converged-OPLS-2005>
0

> <r_mmod_RMS_Derivative-OPLS-2005>
2.70785617828369

$$$$
86
                    3D
 Structure written by MMmdl.
148156  0  0  1  0            999 V2000
  -30.4161  -15.4368   20.2994 C   0  0  0  0  0  0
  -30.4459  -12.9322   19.5102 C   0  0  0  0  0  0
  -29.5220  -12.6057   18.3075 C   0  0  0  0  0  0
  -28.0822  -12.3120   18.7575 C   0  0  0  0  0  0
  -27.6045  -13.3136   19.8338 C   0  0  2  0  0  0
  -28.6588  -13.5567   20.9359 C   0  0  0  0  0  0
  -25.2355  -13.8360   20.5919 C   0  0  0  0  0  0
  -24.1730  -13.0413   20.9301 C   0  0  0  0  0  0
  -24.6453  -11.6959   20.8779 C   0  0  0  0  0  0
  -23.9184  -10.4257   21.0381 C   0  0  0  0  0  0
  -24.3699   -9.4160   21.9186 C   0  0  0  0  0  0
  -23.6311   -8.2211   22.0786 C   0  0  0  0  0  0
  -22.4302   -8.0260   21.3553 C   0  0  0  0  0  0
  -21.9923   -9.0256   20.4722 C   0  0  0  0  0  0
  -22.7318  -10.2096   20.3091 C   0  0  0  0  0  0
  -21.6883   -6.0707   22.5236 C   0  0  0  0  0  0
  -21.4041   -6.5655   23.8155 C   0  0  0  0  0  0
  -21.3657   -5.6856   24.9124 C   0  0  0  0  0  0
  -21.6001   -4.3090   24.7208 C   0  0  0  0  0  0
  -21.8800   -3.8159   23.4377 C   0  0  0  0  0  0
  -21.9204   -4.6948   22.3391 C   0  0  0  0  0  0
  -22.7705  -13.5115   21.1894 C   0  0  0  0  0  0
  -22.1704   -4.2103   21.0988 F   0  0  0  0  0  0
  -21.5579   -3.4604   25.7748 F   0  0  0  0  0  0
  -29.8566  -14.1068   20.2663 N   0  0  0  0  0  0
  -26.2835  -12.9686   20.3442 N   0  0  0  0  0  0
  -25.9409  -11.6739   20.5817 N   0  0  0  0  0  0
  -22.0433  -12.8091   22.0562 N   0  0  0  0  0  0
  -25.3946  -15.2136   20.4459 N   0  0  0  0  0  0
  -31.6486  -15.3865   20.1738 O   0  0  0  0  0  0
  -21.6700   -6.8820   21.4185 O   0  0  0  0  0  0
  -22.3329  -14.5333   20.6684 O   0  0  0  0  0  0
  -24.6592  -31.8230   23.1703 C   0  0  0  0  0  0
  -25.9225  -32.4617   23.8175 C   0  0  1  0  0  0
  -27.2284  -26.8754   20.1851 C   0  0  0  0  0  0
  -25.5831  -33.8435   24.2030 N   0  0  0  0  0  0
  -23.4803  -30.4247   21.5161 C   0  0  2  0  0  0
  -24.9419  -28.8026   20.1076 C   0  0  0  0  0  0
  -22.7672  -29.4407   22.4765 C   0  0  0  0  0  0
  -18.0311  -28.1317   22.8509 C   0  0  0  0  0  0
  -24.1483  -36.7326   23.2671 C   0  0  0  0  0  0
  -26.0492  -30.6002   21.4172 C   0  0  0  0  0  0
  -26.1160  -29.1865   20.7599 C   0  0  0  0  0  0
  -27.2440  -28.2421   20.7839 C   0  0  0  0  0  0
  -26.0274  -26.6629   19.4717 C   0  0  0  0  0  0
  -24.9271  -27.5646   19.4429 C   0  0  0  0  0  0
  -23.7233  -29.7307   20.1439 C   0  0  0  0  0  0
  -25.4127  -36.3067   24.0309 C   0  0  1  0  0  0
  -20.5950  -28.3713   23.1196 C   0  0  2  0  0  0
  -20.6754  -26.9368   22.5426 C   0  0  0  0  0  0
  -19.5722  -26.6307   21.5229 C   0  0  0  0  0  0
  -18.1927  -26.7858   22.1658 C   0  0  0  0  0  0
  -19.1577  -28.8849   23.2821 C   0  0  0  0  0  0
  -18.9491  -30.1445   23.8854 C   0  0  0  0  0  0
  -17.6491  -30.6543   24.0538 C   0  0  0  0  0  0
  -25.9067  -34.9400   23.5042 C   0  0  0  0  0  0
  -16.5384  -29.9042   23.6302 C   0  0  0  0  0  0
  -16.7305  -28.6429   23.0384 C   0  0  0  0  0  0
  -26.4435  -31.6668   25.0790 C   0  0  0  0  0  0
  -25.3510  -31.4006   26.1441 C   0  0  0  0  0  0
  -27.0352  -30.3021   24.6636 C   0  0  0  0  0  0
  -27.5863  -32.4564   25.7575 C   0  0  0  0  0  0
  -27.5562  -37.1871   24.8433 C   0  0  0  0  0  0
  -21.4336  -29.3044   22.3558 N   0  0  0  0  0  0
  -26.4295  -37.3776   23.9357 N   0  0  0  0  0  0
  -24.7499  -30.9840   22.0827 N   0  0  0  0  0  0
  -23.4203  -28.8011   23.3015 O   0  0  0  0  0  0
  -28.2101  -25.7420   20.3438 O   0  0  0  0  0  0
  -26.5760  -34.8916   22.4684 O   0  0  0  0  0  0
  -23.5669  -32.1158   23.6820 O   0  0  0  0  0  0
  -27.0551  -22.0141   20.6445 C   0  0  0  0  0  0
  -26.8165  -20.6337   20.8526 C   0  0  0  0  0  0
  -28.3068  -22.4964   20.2243 C   0  0  0  0  0  0
  -28.9457  -19.8980   20.2506 C   0  0  0  0  0  0
  -30.5011  -18.5897   18.5665 C   0  0  0  0  0  0
  -28.3638  -24.2016   19.6884 C   0  0  0  0  0  0
  -29.9468  -18.4428   20.0123 C   0  0  2  0  0  0
  -27.7150  -19.6256   20.6747 N   0  0  0  0  0  0
  -29.2187  -21.3274   20.0326 N   0  0  0  0  0  0
  -29.6784  -16.7610   20.2656 N   0  0  0  0  0  0
  -31.4479  -13.1581   19.1296 H   0  0  0  0  0  0
  -30.5836  -12.0640   20.1609 H   0  0  0  0  0  0
  -29.9153  -11.7639   17.7418 H   0  0  0  0  0  0
  -29.5029  -13.4640   17.6321 H   0  0  0  0  0  0
  -28.0464  -11.3009   19.1648 H   0  0  0  0  0  0
  -27.4024  -12.3248   17.9059 H   0  0  0  0  0  0
  -27.4834  -14.2600   19.3033 H   0  0  0  0  0  0
  -28.8781  -12.6434   21.4930 H   0  0  0  0  0  0
  -28.2965  -14.2909   21.6621 H   0  0  0  0  0  0
  -25.2827   -9.5631   22.4785 H   0  0  0  0  0  0
  -23.9973   -7.4659   22.7580 H   0  0  0  0  0  0
  -21.0775   -8.8868   19.9135 H   0  0  0  0  0  0
  -22.3808  -10.9688   19.6256 H   0  0  0  0  0  0
  -21.2076   -7.6191   23.9611 H   0  0  0  0  0  0
  -21.1529   -6.0640   25.9004 H   0  0  0  0  0  0
  -22.0576   -2.7624   23.2910 H   0  0  0  0  0  0
  -22.4192  -11.9912   22.5104 H   0  0  0  0  0  0
  -21.1098  -13.1087   22.2912 H   0  0  0  0  0  0
  -24.6355  -15.8602   20.6414 H   0  0  0  0  0  0
  -26.2417  -15.6914   20.1598 H   0  0  0  0  0  0
  -26.7314  -32.5126   23.0896 H   0  0  0  0  0  0
  -24.9649  -33.9525   24.9940 H   0  0  0  0  0  0
  -22.7887  -31.2532   21.3410 H   0  0  0  0  0  0
  -23.3741  -35.9668   23.3347 H   0  0  0  0  0  0
  -24.3565  -36.8984   22.2098 H   0  0  0  0  0  0
  -23.7261  -37.6518   23.6726 H   0  0  0  0  0  0
  -26.2431  -31.3405   20.6391 H   0  0  0  0  0  0
  -26.9009  -30.6615   22.0806 H   0  0  0  0  0  0
  -28.1165  -28.5289   21.3548 H   0  0  0  0  0  0
  -25.8980  -25.7137   18.9776 H   0  0  0  0  0  0
  -24.0344  -27.2657   18.9062 H   0  0  0  0  0  0
  -23.8745  -30.4901   19.3760 H   0  0  0  0  0  0
  -22.8344  -29.1799   19.8343 H   0  0  0  0  0  0
  -25.1335  -36.1902   25.0818 H   0  0  0  0  0  0
  -21.0036  -28.3316   24.1324 H   0  0  0  0  0  0
  -20.5570  -26.2362   23.3674 H   0  0  0  0  0  0
  -21.6615  -26.7248   22.1282 H   0  0  0  0  0  0
  -19.6849  -25.6198   21.1305 H   0  0  0  0  0  0
  -19.6615  -27.3074   20.6715 H   0  0  0  0  0  0
  -17.4174  -26.6626   21.4072 H   0  0  0  0  0  0
  -18.0322  -25.9929   22.8993 H   0  0  0  0  0  0
  -19.7967  -30.7251   24.2205 H   0  0  0  0  0  0
  -17.5029  -31.6218   24.5145 H   0  0  0  0  0  0
  -15.5375  -30.2920   23.7619 H   0  0  0  0  0  0
  -15.8706  -28.0703   22.7157 H   0  0  0  0  0  0
  -24.5649  -30.7412   25.7768 H   0  0  0  0  0  0
  -24.8740  -32.3264   26.4695 H   0  0  0  0  0  0
  -25.7655  -30.9275   27.0352 H   0  0  0  0  0  0
  -26.3081  -29.6675   24.1585 H   0  0  0  0  0  0
  -27.3757  -29.7452   25.5379 H   0  0  0  0  0  0
  -27.9043  -30.4223   24.0163 H   0  0  0  0  0  0
  -27.2335  -33.3870   26.2032 H   0  0  0  0  0  0
  -28.3649  -32.7207   25.0406 H   0  0  0  0  0  0
  -28.0522  -31.8841   26.5594 H   0  0  0  0  0  0
  -28.2607  -38.0130   24.7388 H   0  0  0  0  0  0
  -28.1016  -36.2675   24.6332 H   0  0  0  0  0  0
  -27.2282  -37.1596   25.8829 H   0  0  0  0  0  0
  -20.9576  -29.8875   21.6799 H   0  0  0  0  0  0
  -26.0175  -38.2881   24.1197 H   0  0  0  0  0  0
  -26.2279  -22.7041   20.7569 H   0  0  0  0  0  0
  -25.8256  -20.3164   21.1572 H   0  0  0  0  0  0
  -30.9008  -19.5913   18.3918 H   0  0  0  0  0  0
  -29.7470  -18.4385   17.7899 H   0  0  0  0  0  0
  -31.3278  -17.9079   18.3766 H   0  0  0  0  0  0
  -27.6884  -24.2407   18.8349 H   0  0  0  0  0  0
  -29.3488  -24.2550   19.2248 H   0  0  0  0  0  0
  -30.7988  -18.6425   20.6690 H   0  0  0  0  0  0
  -28.6872  -16.6014   20.3506 H   0  0  0  0  0  0
  1 25  1  0  0  0
  1 30  2  0  0  0
  1 80  1  0  0  0
  2  3  1  0  0  0
  2 25  1  0  0  0
  2 81  1  0  0  0
  2 82  1  0  0  0
  3  4  1  0  0  0
  3 83  1  0  0  0
  3 84  1  0  0  0
  4  5  1  0  0  0
  4 85  1  0  0  0
  4 86  1  0  0  0
  5  6  1  0  0  0
  5 26  1  0  0  0
  5 87  1  0  0  0
  6 25  1  0  0  0
  6 88  1  0  0  0
  6 89  1  0  0  0
  7  8  2  0  0  0
  7 26  1  0  0  0
  7 29  1  0  0  0
  8  9  1  0  0  0
  8 22  1  0  0  0
  9 10  1  0  0  0
  9 27  2  0  0  0
 10 11  2  0  0  0
 10 15  1  0  0  0
 11 12  1  0  0  0
 11 90  1  0  0  0
 12 13  2  0  0  0
 12 91  1  0  0  0
 13 14  1  0  0  0
 13 31  1  0  0  0
 14 15  2  0  0  0
 14 92  1  0  0  0
 15 93  1  0  0  0
 16 17  2  0  0  0
 16 21  1  0  0  0
 16 31  1  0  0  0
 17 18  1  0  0  0
 17 94  1  0  0  0
 18 19  2  0  0  0
 18 95  1  0  0  0
 19 20  1  0  0  0
 19 24  1  0  0  0
 20 21  2  0  0  0
 20 96  1  0  0  0
 21 23  1  0  0  0
 22 28  1  0  0  0
 22 32  2  0  0  0
 26 27  1  0  0  0
 28 97  1  0  0  0
 28 98  1  0  0  0
 29 99  1  0  0  0
 29100  1  0  0  0
 33 34  1  0  0  0
 33 66  1  0  0  0
 33 70  2  0  0  0
 34 36  1  0  0  0
 34 59  1  0  0  0
 34101  1  0  0  0
 35 44  2  0  0  0
 35 45  1  0  0  0
 35 68  1  0  0  0
 36 56  1  0  0  0
 36102  1  0  0  0
 37 39  1  0  0  0
 37 47  1  0  0  0
 37 66  1  0  0  0
 37103  1  0  0  0
 38 43  2  0  0  0
 38 46  1  0  0  0
 38 47  1  0  0  0
 39 64  1  0  0  0
 39 67  2  0  0  0
 40 52  1  0  0  0
 40 53  2  0  0  0
 40 58  1  0  0  0
 41104  1  0  0  0
 41105  1  0  0  0
 41106  1  0  0  0
 41 48  1  0  0  0
 42 43  1  0  0  0
 42 66  1  0  0  0
 42107  1  0  0  0
 42108  1  0  0  0
 43 44  1  0  0  0
 44109  1  0  0  0
 45 46  2  0  0  0
 45110  1  0  0  0
 46111  1  0  0  0
 47112  1  0  0  0
 47113  1  0  0  0
 48 56  1  0  0  0
 48 65  1  0  0  0
 48114  1  0  0  0
 49 50  1  0  0  0
 49 53  1  0  0  0
 49 64  1  0  0  0
 49115  1  0  0  0
 50 51  1  0  0  0
 50116  1  0  0  0
 50117  1  0  0  0
 51 52  1  0  0  0
 51118  1  0  0  0
 51119  1  0  0  0
 52120  1  0  0  0
 52121  1  0  0  0
 53 54  1  0  0  0
 54 55  2  0  0  0
 54122  1  0  0  0
 55 57  1  0  0  0
 55123  1  0  0  0
 56 69  2  0  0  0
 57 58  2  0  0  0
 57124  1  0  0  0
 58125  1  0  0  0
 59 60  1  0  0  0
 59 61  1  0  0  0
 59 62  1  0  0  0
 60126  1  0  0  0
 60127  1  0  0  0
 60128  1  0  0  0
 61129  1  0  0  0
 61130  1  0  0  0
 61131  1  0  0  0
 62132  1  0  0  0
 62133  1  0  0  0
 62134  1  0  0  0
 63 65  1  0  0  0
 63135  1  0  0  0
 63136  1  0  0  0
 63137  1  0  0  0
 64138  1  0  0  0
 65139  1  0  0  0
 68 76  1  0  0  0
 71 72  2  0  0  0
 71 73  1  0  0  0
 71140  1  0  0  0
 72 78  1  0  0  0
 72141  1  0  0  0
 73 76  1  0  0  0
 73 79  2  0  0  0
 74 77  1  0  0  0
 74 78  2  0  0  0
 74 79  1  0  0  0
 75142  1  0  0  0
 75143  1  0  0  0
 75144  1  0  0  0
 75 77  1  0  0  0
 76145  1  0  0  0
 76146  1  0  0  0
 77 80  1  0  0  0
 77147  1  0  0  0
 80148  1  0  0  0
M  ISO  4   1 100  68 101  76 101  80 100
M  END
> <chiral flag>
0

> <version>
0

> <s_m_source_file>
/data/baiqing/PycharmProjects/Reinvent-master-3.2/result/LINK_invent/BTK/process_docking_weight1_custom_sum_contain_oxygen_bond_distance_aromatic_linkinvent_7_9_3/rearranged_h_0061.sdf

> <i_m_source_file_index>
82

> <r_mmod_Potential_Energy-OPLS-2005>
1041.58093261719

> <r_mmod_Stretch_Energy-OPLS-2005>
704.409362792969

> <r_mmod_Bend_Energy-OPLS-2005>
510.473876953125

> <r_mmod_Torsional_Energy-OPLS-2005>
211.509643554688

> <r_mmod_Improper_Torsional_Energy-OPLS-2005>
7.43557500839233

> <r_mmod_Van_der_Waal_Energy-OPLS-2005>
127.407218933105

> <r_mmod_Electrostatic_Energy-OPLS-2005>
-887.165893554688

> <r_mmod_Solvation_Energy-OPLS-2005>
-244.094314575195

> <b_mmod_Minimization_Converged-OPLS-2005>
0

> <r_mmod_RMS_Derivative-OPLS-2005>
9.93440818786621

$$$$
87
                    3D
 Structure written by MMmdl.
153161  0  0  1  0            999 V2000
  -30.6648  -14.6145   20.5608 C   0  0  0  0  0  0
  -30.4278  -12.3858   19.4584 C   0  0  0  0  0  0
  -29.5071  -12.4993   18.2214 C   0  0  0  0  0  0
  -28.0261  -12.3507   18.6225 C   0  0  0  0  0  0
  -27.6508  -13.2177   19.8510 C   0  0  2  0  0  0
  -28.6864  -13.0523   20.9807 C   0  0  0  0  0  0
  -25.2536  -13.8189   20.5641 C   0  0  0  0  0  0
  -24.1812  -13.0446   20.9159 C   0  0  0  0  0  0
  -24.6387  -11.6923   20.8716 C   0  0  0  0  0  0
  -23.9076  -10.4303   21.0410 C   0  0  0  0  0  0
  -24.3626   -9.4210   21.9177 C   0  0  0  0  0  0
  -23.6290   -8.2259   22.0764 C   0  0  0  0  0  0
  -22.4276   -8.0284   21.3555 C   0  0  0  0  0  0
  -21.9911   -9.0262   20.4659 C   0  0  0  0  0  0
  -22.7260  -10.2130   20.3050 C   0  0  0  0  0  0
  -21.6861   -6.0724   22.5284 C   0  0  0  0  0  0
  -21.4047   -6.5626   23.8225 C   0  0  0  0  0  0
  -21.3689   -5.6772   24.9182 C   0  0  0  0  0  0
  -21.6054   -4.3035   24.7226 C   0  0  0  0  0  0
  -21.8807   -3.8125   23.4343 C   0  0  0  0  0  0
  -21.9186   -4.6947   22.3400 C   0  0  0  0  0  0
  -22.7828  -13.5226   21.1810 C   0  0  0  0  0  0
  -22.1625   -4.2128   21.0972 F   0  0  0  0  0  0
  -21.5633   -3.4521   25.7735 F   0  0  0  0  0  0
  -30.0113  -13.4086   20.4427 N   0  0  0  0  0  0
  -26.2951  -12.9373   20.3206 N   0  0  0  0  0  0
  -25.9304  -11.6529   20.5700 N   0  0  0  0  0  0
  -22.0484  -12.8261   22.0417 N   0  0  0  0  0  0
  -25.4258  -15.1913   20.4126 N   0  0  0  0  0  0
  -31.7678  -14.7865   20.0314 O   0  0  0  0  0  0
  -21.6632   -6.8880   21.4256 O   0  0  0  0  0  0
  -22.3499  -14.5504   20.6609 O   0  0  0  0  0  0
  -24.6247  -31.8609   23.2030 C   0  0  0  0  0  0
  -25.9103  -32.4784   23.8344 C   0  0  1  0  0  0
  -27.2204  -27.3156   20.1131 C   0  0  0  0  0  0
  -25.5954  -33.8592   24.2284 N   0  0  0  0  0  0
  -23.4165  -30.4841   21.5474 C   0  0  2  0  0  0
  -24.8622  -28.9377   20.1129 C   0  0  0  0  0  0
  -22.7464  -29.4620   22.4950 C   0  0  0  0  0  0
  -18.0273  -28.1395   22.8493 C   0  0  0  0  0  0
  -24.1468  -36.7239   23.2642 C   0  0  0  0  0  0
  -25.9576  -30.7861   21.3785 C   0  0  0  0  0  0
  -26.0300  -29.4151   20.7172 C   0  0  0  0  0  0
  -27.2115  -28.6137   20.7122 C   0  0  0  0  0  0
  -26.0295  -26.8921   19.4821 C   0  0  0  0  0  0
  -24.8615  -27.6818   19.4855 C   0  0  0  0  0  0
  -23.6312  -29.8206   20.1628 C   0  0  0  0  0  0
  -25.4106  -36.3077   24.0339 C   0  0  1  0  0  0
  -20.5870  -28.3691   23.1300 C   0  0  2  0  0  0
  -20.6770  -26.9429   22.5410 C   0  0  0  0  0  0
  -19.5744  -26.6393   21.5216 C   0  0  0  0  0  0
  -18.1920  -26.7926   22.1636 C   0  0  0  0  0  0
  -19.1533  -28.8856   23.2882 C   0  0  0  0  0  0
  -18.9477  -30.1465   23.8889 C   0  0  0  0  0  0
  -17.6491  -30.6604   24.0564 C   0  0  0  0  0  0
  -25.9072  -34.9465   23.5099 C   0  0  0  0  0  0
  -16.5368  -29.9112   23.6356 C   0  0  0  0  0  0
  -16.7265  -28.6527   23.0361 C   0  0  0  0  0  0
  -26.4504  -31.6602   25.0715 C   0  0  0  0  0  0
  -25.3751  -31.3743   26.1454 C   0  0  0  0  0  0
  -27.0361  -30.3042   24.6153 C   0  0  0  0  0  0
  -27.6064  -32.4350   25.7473 C   0  0  0  0  0  0
  -27.5560  -37.1774   24.8488 C   0  0  0  0  0  0
  -21.4188  -29.3025   22.3684 N   0  0  0  0  0  0
  -26.4268  -37.3794   23.9440 N   0  0  0  0  0  0
  -24.6845  -31.0602   22.0998 N   0  0  0  0  0  0
  -23.4195  -28.8176   23.3044 O   0  0  0  0  0  0
  -28.3446  -26.4725   20.1537 O   0  0  0  0  0  0
  -26.5630  -34.8937   22.4663 O   0  0  0  0  0  0
  -23.5428  -32.1404   23.7377 O   0  0  0  0  0  0
  -30.2172  -21.7223   19.5658 C   0  0  0  0  0  0
  -29.3407  -22.5112   20.3609 C   0  0  0  0  0  0
  -29.6681  -19.8171   20.7648 C   0  0  0  0  0  0
  -29.7910  -15.6884   22.5568 C   0  0  0  0  0  0
  -29.4048  -24.0884   20.3813 C   0  0  0  0  0  0
  -30.0654  -18.3768   21.2793 C   0  0  0  0  0  0
  -29.7949  -17.0434   20.4319 C   0  0  0  0  0  0
  -28.1507  -25.0028   20.0480 C   0  0  0  0  0  0
  -30.3853  -20.3794   19.7783 N   0  0  0  0  0  0
  -28.6152  -21.8565   21.3125 N   0  0  0  0  0  0
  -28.7689  -20.5198   21.4988 N   0  0  0  0  0  0
  -29.9779  -15.6829   21.1000 N   0  0  0  0  0  0
  -31.4729  -12.4887   19.1635 H   0  0  0  0  0  0
  -30.3494  -11.3925   19.9016 H   0  0  0  0  0  0
  -29.7694  -11.7326   17.4895 H   0  0  0  0  0  0
  -29.6610  -13.4603   17.7293 H   0  0  0  0  0  0
  -27.8503  -11.2975   18.8443 H   0  0  0  0  0  0
  -27.3784  -12.5900   17.7780 H   0  0  0  0  0  0
  -27.6784  -14.2575   19.5228 H   0  0  0  0  0  0
  -28.6913  -12.0229   21.3391 H   0  0  0  0  0  0
  -28.3939  -13.6541   21.8352 H   0  0  0  0  0  0
  -25.2786   -9.5664   22.4714 H   0  0  0  0  0  0
  -23.9990   -7.4658   22.7483 H   0  0  0  0  0  0
  -21.0828   -8.8794   19.8963 H   0  0  0  0  0  0
  -22.3744  -10.9646   19.6112 H   0  0  0  0  0  0
  -21.2072   -7.6139   23.9729 H   0  0  0  0  0  0
  -21.1520   -6.0496   25.9079 H   0  0  0  0  0  0
  -22.0559   -2.7583   23.2837 H   0  0  0  0  0  0
  -22.4124  -11.9962   22.4852 H   0  0  0  0  0  0
  -21.1098  -13.1296   22.2614 H   0  0  0  0  0  0
  -24.6702  -15.8495   20.5700 H   0  0  0  0  0  0
  -26.2851  -15.6350   20.1138 H   0  0  0  0  0  0
  -26.7143  -32.5455   23.1078 H   0  0  0  0  0  0
  -25.0176  -33.9741   25.0473 H   0  0  0  0  0  0
  -22.7095  -31.3037   21.4057 H   0  0  0  0  0  0
  -23.3773  -35.9528   23.3337 H   0  0  0  0  0  0
  -24.3550  -36.8830   22.2046 H   0  0  0  0  0  0
  -23.7179  -37.6431   23.6642 H   0  0  0  0  0  0
  -26.0945  -31.5529   20.6138 H   0  0  0  0  0  0
  -26.8351  -30.8282   22.0111 H   0  0  0  0  0  0
  -28.1022  -28.9754   21.2030 H   0  0  0  0  0  0
  -25.9721  -25.9355   18.9843 H   0  0  0  0  0  0
  -23.9648  -27.3140   19.0059 H   0  0  0  0  0  0
  -23.7601  -30.5988   19.4099 H   0  0  0  0  0  0
  -22.7493  -29.2567   19.8538 H   0  0  0  0  0  0
  -25.1284  -36.1905   25.0831 H   0  0  0  0  0  0
  -20.9937  -28.3251   24.1430 H   0  0  0  0  0  0
  -20.5693  -26.2302   23.3601 H   0  0  0  0  0  0
  -21.6643  -26.7478   22.1199 H   0  0  0  0  0  0
  -19.6938  -25.6305   21.1242 H   0  0  0  0  0  0
  -19.6689  -27.3209   20.6745 H   0  0  0  0  0  0
  -17.4194  -26.6665   21.4030 H   0  0  0  0  0  0
  -18.0345  -26.0056   22.9026 H   0  0  0  0  0  0
  -19.7966  -30.7266   24.2245 H   0  0  0  0  0  0
  -17.5064  -31.6288   24.5172 H   0  0  0  0  0  0
  -15.5374  -30.3032   23.7686 H   0  0  0  0  0  0
  -15.8649  -28.0855   22.7091 H   0  0  0  0  0  0
  -24.5891  -30.7140   25.7792 H   0  0  0  0  0  0
  -24.8985  -32.2914   26.4923 H   0  0  0  0  0  0
  -25.8084  -30.8886   27.0204 H   0  0  0  0  0  0
  -26.2927  -29.6772   24.1217 H   0  0  0  0  0  0
  -27.4136  -29.7326   25.4636 H   0  0  0  0  0  0
  -27.8765  -30.4380   23.9339 H   0  0  0  0  0  0
  -27.2673  -33.3656   26.2045 H   0  0  0  0  0  0
  -28.3858  -32.6914   25.0283 H   0  0  0  0  0  0
  -28.0740  -31.8482   26.5385 H   0  0  0  0  0  0
  -28.2617  -38.0038   24.7541 H   0  0  0  0  0  0
  -28.1013  -36.2578   24.6304 H   0  0  0  0  0  0
  -27.2279  -37.1412   25.8894 H   0  0  0  0  0  0
  -20.9366  -29.8731   21.6887 H   0  0  0  0  0  0
  -26.0139  -38.2858   24.1496 H   0  0  0  0  0  0
  -30.8624  -22.1771   18.8283 H   0  0  0  0  0  0
  -28.7722  -15.9910   22.8085 H   0  0  0  0  0  0
  -30.4962  -16.3649   23.0417 H   0  0  0  0  0  0
  -29.9700  -14.7120   23.0115 H   0  0  0  0  0  0
  -30.1990  -24.3777   19.6936 H   0  0  0  0  0  0
  -29.7737  -24.3626   21.3696 H   0  0  0  0  0  0
  -29.5667  -18.2843   22.2431 H   0  0  0  0  0  0
  -31.1266  -18.4136   21.5227 H   0  0  0  0  0  0
  -30.3942  -17.0804   19.5187 H   0  0  0  0  0  0
  -28.7585  -17.0734   20.0968 H   0  0  0  0  0  0
  -27.3344  -24.7143   20.7134 H   0  0  0  0  0  0
  -27.8305  -24.7628   19.0335 H   0  0  0  0  0  0
  1 25  1  0  0  0
  1 30  2  0  0  0
  1 82  1  0  0  0
  2  3  1  0  0  0
  2 25  1  0  0  0
  2 83  1  0  0  0
  2 84  1  0  0  0
  3  4  1  0  0  0
  3 85  1  0  0  0
  3 86  1  0  0  0
  4  5  1  0  0  0
  4 87  1  0  0  0
  4 88  1  0  0  0
  5  6  1  0  0  0
  5 26  1  0  0  0
  5 89  1  0  0  0
  6 25  1  0  0  0
  6 90  1  0  0  0
  6 91  1  0  0  0
  7  8  2  0  0  0
  7 26  1  0  0  0
  7 29  1  0  0  0
  8  9  1  0  0  0
  8 22  1  0  0  0
  9 10  1  0  0  0
  9 27  2  0  0  0
 10 11  2  0  0  0
 10 15  1  0  0  0
 11 12  1  0  0  0
 11 92  1  0  0  0
 12 13  2  0  0  0
 12 93  1  0  0  0
 13 14  1  0  0  0
 13 31  1  0  0  0
 14 15  2  0  0  0
 14 94  1  0  0  0
 15 95  1  0  0  0
 16 17  2  0  0  0
 16 21  1  0  0  0
 16 31  1  0  0  0
 17 18  1  0  0  0
 17 96  1  0  0  0
 18 19  2  0  0  0
 18 97  1  0  0  0
 19 20  1  0  0  0
 19 24  1  0  0  0
 20 21  2  0  0  0
 20 98  1  0  0  0
 21 23  1  0  0  0
 22 28  1  0  0  0
 22 32  2  0  0  0
 26 27  1  0  0  0
 28 99  1  0  0  0
 28100  1  0  0  0
 29101  1  0  0  0
 29102  1  0  0  0
 33 34  1  0  0  0
 33 66  1  0  0  0
 33 70  2  0  0  0
 34 36  1  0  0  0
 34 59  1  0  0  0
 34103  1  0  0  0
 35 44  2  0  0  0
 35 45  1  0  0  0
 35 68  1  0  0  0
 36 56  1  0  0  0
 36104  1  0  0  0
 37 39  1  0  0  0
 37 47  1  0  0  0
 37 66  1  0  0  0
 37105  1  0  0  0
 38 43  2  0  0  0
 38 46  1  0  0  0
 38 47  1  0  0  0
 39 64  1  0  0  0
 39 67  2  0  0  0
 40 52  1  0  0  0
 40 53  2  0  0  0
 40 58  1  0  0  0
 41106  1  0  0  0
 41107  1  0  0  0
 41108  1  0  0  0
 41 48  1  0  0  0
 42 43  1  0  0  0
 42 66  1  0  0  0
 42109  1  0  0  0
 42110  1  0  0  0
 43 44  1  0  0  0
 44111  1  0  0  0
 45 46  2  0  0  0
 45112  1  0  0  0
 46113  1  0  0  0
 47114  1  0  0  0
 47115  1  0  0  0
 48 56  1  0  0  0
 48 65  1  0  0  0
 48116  1  0  0  0
 49 50  1  0  0  0
 49 53  1  0  0  0
 49 64  1  0  0  0
 49117  1  0  0  0
 50 51  1  0  0  0
 50118  1  0  0  0
 50119  1  0  0  0
 51 52  1  0  0  0
 51120  1  0  0  0
 51121  1  0  0  0
 52122  1  0  0  0
 52123  1  0  0  0
 53 54  1  0  0  0
 54 55  2  0  0  0
 54124  1  0  0  0
 55 57  1  0  0  0
 55125  1  0  0  0
 56 69  2  0  0  0
 57 58  2  0  0  0
 57126  1  0  0  0
 58127  1  0  0  0
 59 60  1  0  0  0
 59 61  1  0  0  0
 59 62  1  0  0  0
 60128  1  0  0  0
 60129  1  0  0  0
 60130  1  0  0  0
 61131  1  0  0  0
 61132  1  0  0  0
 61133  1  0  0  0
 62134  1  0  0  0
 62135  1  0  0  0
 62136  1  0  0  0
 63 65  1  0  0  0
 63137  1  0  0  0
 63138  1  0  0  0
 63139  1  0  0  0
 64140  1  0  0  0
 65141  1  0  0  0
 68 78  1  0  0  0
 71 72  2  0  0  0
 71 79  1  0  0  0
 71142  1  0  0  0
 72 75  1  0  0  0
 72 80  1  0  0  0
 73 76  1  0  0  0
 73 79  2  0  0  0
 73 81  1  0  0  0
 74 82  1  0  0  0
 74143  1  0  0  0
 74144  1  0  0  0
 74145  1  0  0  0
 75 78  1  0  0  0
 75146  1  0  0  0
 75147  1  0  0  0
 76 77  1  0  0  0
 76148  1  0  0  0
 76149  1  0  0  0
 77 82  1  0  0  0
 77150  1  0  0  0
 77151  1  0  0  0
 78152  1  0  0  0
 78153  1  0  0  0
 80 81  2  0  0  0
M  ISO  4   1 100  68 101  78 101  82 100
M  END
> <chiral flag>
0

> <version>
0

> <s_m_source_file>
/data/baiqing/PycharmProjects/Reinvent-master-3.2/result/LINK_invent/BTK/process_docking_weight1_custom_sum_contain_oxygen_bond_distance_aromatic_linkinvent_7_9_3/rearranged_h_0061.sdf

> <i_m_source_file_index>
83

> <r_mmod_Potential_Energy-OPLS-2005>
167.987380981445

> <r_mmod_Stretch_Energy-OPLS-2005>
92.7478103637695

> <r_mmod_Bend_Energy-OPLS-2005>
149.03173828125

> <r_mmod_Torsional_Energy-OPLS-2005>
272.336029052734

> <r_mmod_Improper_Torsional_Energy-OPLS-2005>
8.36328125

> <r_mmod_Van_der_Waal_Energy-OPLS-2005>
155.785842895508

> <r_mmod_Electrostatic_Energy-OPLS-2005>
-324.718811035156

> <r_mmod_Solvation_Energy-OPLS-2005>
-228.915451049805

> <b_mmod_Minimization_Converged-OPLS-2005>
0

> <r_mmod_RMS_Derivative-OPLS-2005>
3.52363848686218

$$$$
88
                    3D
 Structure written by MMmdl.
152160  0  0  1  0            999 V2000
  -30.6041  -14.8976   20.3218 C   0  0  0  0  0  0
  -30.4296  -12.5372   19.4822 C   0  0  0  0  0  0
  -29.5104  -12.4928   18.2422 C   0  0  0  0  0  0
  -28.0442  -12.2737   18.6635 C   0  0  0  0  0  0
  -27.6140  -13.2054   19.8232 C   0  0  2  0  0  0
  -28.6731  -13.3028   20.9433 C   0  0  0  0  0  0
  -25.2499  -13.8074   20.5775 C   0  0  0  0  0  0
  -24.1776  -13.0375   20.9274 C   0  0  0  0  0  0
  -24.6334  -11.6833   20.8801 C   0  0  0  0  0  0
  -23.9011  -10.4247   21.0447 C   0  0  0  0  0  0
  -24.3584   -9.4166   21.9212 C   0  0  0  0  0  0
  -23.6270   -8.2200   22.0759 C   0  0  0  0  0  0
  -22.4255   -8.0251   21.3539 C   0  0  0  0  0  0
  -21.9883   -9.0224   20.4645 C   0  0  0  0  0  0
  -22.7200  -10.2107   20.3068 C   0  0  0  0  0  0
  -21.6839   -6.0721   22.5281 C   0  0  0  0  0  0
  -21.3999   -6.5629   23.8213 C   0  0  0  0  0  0
  -21.3650   -5.6786   24.9178 C   0  0  0  0  0  0
  -21.6045   -4.3049   24.7234 C   0  0  0  0  0  0
  -21.8826   -3.8139   23.4357 C   0  0  0  0  0  0
  -21.9197   -4.6952   22.3413 C   0  0  0  0  0  0
  -22.7807  -13.5193   21.1897 C   0  0  0  0  0  0
  -22.1672   -4.2136   21.0991 F   0  0  0  0  0  0
  -21.5631   -3.4537   25.7749 F   0  0  0  0  0  0
  -29.9617  -13.6605   20.3336 N   0  0  0  0  0  0
  -26.2834  -12.9183   20.3276 N   0  0  0  0  0  0
  -25.9248  -11.6371   20.5799 N   0  0  0  0  0  0
  -22.0434  -12.8186   22.0429 N   0  0  0  0  0  0
  -25.4285  -15.1800   20.4220 N   0  0  0  0  0  0
  -31.8390  -14.8438   20.3596 O   0  0  0  0  0  0
  -21.6616   -6.8852   21.4240 O   0  0  0  0  0  0
  -22.3519  -14.5511   20.6735 O   0  0  0  0  0  0
  -24.6373  -31.8493   23.1918 C   0  0  0  0  0  0
  -25.9168  -32.4724   23.8293 C   0  0  1  0  0  0
  -27.2178  -27.1998   20.1584 C   0  0  0  0  0  0
  -25.5937  -33.8526   24.2216 N   0  0  0  0  0  0
  -23.4369  -30.4687   21.5383 C   0  0  2  0  0  0
  -24.8835  -28.8971   20.1173 C   0  0  0  0  0  0
  -22.7526  -29.4583   22.4909 C   0  0  0  0  0  0
  -18.0298  -28.1397   22.8482 C   0  0  0  0  0  0
  -24.1476  -36.7272   23.2644 C   0  0  0  0  0  0
  -25.9859  -30.7434   21.3776 C   0  0  0  0  0  0
  -26.0585  -29.3572   20.7275 C   0  0  0  0  0  0
  -27.2314  -28.5254   20.7278 C   0  0  0  0  0  0
  -26.0208  -26.8167   19.5183 C   0  0  0  0  0  0
  -24.8722  -27.6362   19.4991 C   0  0  0  0  0  0
  -23.6574  -29.7939   20.1588 C   0  0  0  0  0  0
  -25.4110  -36.3051   24.0319 C   0  0  1  0  0  0
  -20.5898  -28.3720   23.1251 C   0  0  2  0  0  0
  -20.6783  -26.9436   22.5406 C   0  0  0  0  0  0
  -19.5764  -26.6385   21.5212 C   0  0  0  0  0  0
  -18.1944  -26.7939   22.1621 C   0  0  0  0  0  0
  -19.1551  -28.8877   23.2858 C   0  0  0  0  0  0
  -18.9475  -30.1473   23.8885 C   0  0  0  0  0  0
  -17.6473  -30.6599   24.0556 C   0  0  0  0  0  0
  -25.9060  -34.9424   23.5079 C   0  0  0  0  0  0
  -16.5365  -29.9089   23.6331 C   0  0  0  0  0  0
  -16.7284  -28.6502   23.0363 C   0  0  0  0  0  0
  -26.4513  -31.6571   25.0712 C   0  0  0  0  0  0
  -25.3709  -31.3737   26.1415 C   0  0  0  0  0  0
  -27.0375  -30.2984   24.6228 C   0  0  0  0  0  0
  -27.6055  -32.4331   25.7490 C   0  0  0  0  0  0
  -27.5572  -37.1793   24.8472 C   0  0  0  0  0  0
  -21.4230  -29.3052   22.3631 N   0  0  0  0  0  0
  -26.4285  -37.3757   23.9408 N   0  0  0  0  0  0
  -24.7063  -31.0402   22.0922 N   0  0  0  0  0  0
  -23.4187  -28.8143   23.3054 O   0  0  0  0  0  0
  -28.2976  -26.2710   20.1732 O   0  0  0  0  0  0
  -26.5651  -34.8914   22.4658 O   0  0  0  0  0  0
  -23.5510  -32.1340   23.7179 O   0  0  0  0  0  0
  -30.3126  -19.8779   21.1491 C   0  0  0  0  0  0
  -29.1525  -20.5470   20.6331 C   0  0  0  0  0  0
  -29.6484  -17.7559   20.3408 C   0  0  0  0  0  0
  -30.9468  -16.6528   18.5012 C   0  0  0  0  0  0
  -28.6858  -22.0584   21.0243 C   0  0  0  0  0  0
  -28.7581  -23.4468   20.1293 C   0  0  0  0  0  0
  -28.0923  -24.8526   20.7061 C   0  0  0  0  0  0
  -29.9779  -16.2962   19.6577 C   0  0  1  0  0  0
  -30.5629  -18.5206   20.9839 N   0  0  0  0  0  0
  -28.2782  -19.7112   19.9951 N   0  0  0  0  0  0
  -28.5290  -18.3743   19.8402 N   0  0  0  0  0  0
  -28.8456  -15.9579   18.8853 O   0  0  0  0  0  0
  -31.4683  -12.6629   19.1724 H   0  0  0  0  0  0
  -30.3898  -11.5953   20.0319 H   0  0  0  0  0  0
  -29.8266  -11.7009   17.5617 H   0  0  0  0  0  0
  -29.5983  -13.4288   17.6873 H   0  0  0  0  0  0
  -27.9390  -11.2318   18.9671 H   0  0  0  0  0  0
  -27.3830  -12.4100   17.8070 H   0  0  0  0  0  0
  -27.5047  -14.1672   19.3544 H   0  0  0  0  0  0
  -28.7554  -12.3589   21.4839 H   0  0  0  0  0  0
  -28.3847  -14.0575   21.6757 H   0  0  0  0  0  0
  -25.2738   -9.5642   22.4774 H   0  0  0  0  0  0
  -23.9988   -7.4581   22.7465 H   0  0  0  0  0  0
  -21.0817   -8.8736   19.8945 H   0  0  0  0  0  0
  -22.3674  -10.9647   19.6168 H   0  0  0  0  0  0
  -21.1974   -7.6135   23.9704 H   0  0  0  0  0  0
  -21.1465   -6.0522   25.9075 H   0  0  0  0  0  0
  -22.0614   -2.7601   23.2867 H   0  0  0  0  0  0
  -22.4052  -11.9848   22.4824 H   0  0  0  0  0  0
  -21.1041  -13.1197   22.2602 H   0  0  0  0  0  0
  -24.6750  -15.8482   20.5388 H   0  0  0  0  0  0
  -26.2865  -15.6001   20.0847 H   0  0  0  0  0  0
  -26.7228  -32.5346   23.1018 H   0  0  0  0  0  0
  -25.0057  -33.9649   25.0344 H   0  0  0  0  0  0
  -22.7382  -31.2940   21.3881 H   0  0  0  0  0  0
  -23.3734  -35.9609   23.3315 H   0  0  0  0  0  0
  -24.3564  -36.8903   22.2061 H   0  0  0  0  0  0
  -23.7234  -37.6474   23.6672 H   0  0  0  0  0  0
  -26.1249  -31.4917   20.5966 H   0  0  0  0  0  0
  -26.8640  -30.8011   22.0096 H   0  0  0  0  0  0
  -28.1331  -28.8773   21.2090 H   0  0  0  0  0  0
  -25.9621  -25.8482   19.0423 H   0  0  0  0  0  0
  -23.9736  -27.2772   19.0156 H   0  0  0  0  0  0
  -23.7867  -30.5662   19.4005 H   0  0  0  0  0  0
  -22.7724  -29.2324   19.8552 H   0  0  0  0  0  0
  -25.1284  -36.1895   25.0812 H   0  0  0  0  0  0
  -20.9990  -28.3313   24.1368 H   0  0  0  0  0  0
  -20.5696  -26.2340   23.3621 H   0  0  0  0  0  0
  -21.6653  -26.7461   22.1209 H   0  0  0  0  0  0
  -19.6934  -25.6286   21.1269 H   0  0  0  0  0  0
  -19.6708  -27.3169   20.6722 H   0  0  0  0  0  0
  -17.4218  -26.6685   21.4020 H   0  0  0  0  0  0
  -18.0347  -26.0091   22.9025 H   0  0  0  0  0  0
  -19.7959  -30.7283   24.2264 H   0  0  0  0  0  0
  -17.5035  -31.6285   24.5153 H   0  0  0  0  0  0
  -15.5368  -30.2984   23.7676 H   0  0  0  0  0  0
  -15.8683  -28.0809   22.7096 H   0  0  0  0  0  0
  -24.5873  -30.7107   25.7718 H   0  0  0  0  0  0
  -24.8905  -32.2918   26.4812 H   0  0  0  0  0  0
  -25.7992  -30.8915   27.0211 H   0  0  0  0  0  0
  -26.2973  -29.6721   24.1231 H   0  0  0  0  0  0
  -27.4029  -29.7258   25.4763 H   0  0  0  0  0  0
  -27.8856  -30.4261   23.9498 H   0  0  0  0  0  0
  -27.2653  -33.3647   26.2025 H   0  0  0  0  0  0
  -28.3878  -32.6874   25.0326 H   0  0  0  0  0  0
  -28.0704  -31.8488   26.5443 H   0  0  0  0  0  0
  -28.2588  -38.0086   24.7501 H   0  0  0  0  0  0
  -28.1073  -36.2620   24.6314 H   0  0  0  0  0  0
  -27.2306  -37.1463   25.8882 H   0  0  0  0  0  0
  -20.9431  -29.8742   21.6793 H   0  0  0  0  0  0
  -26.0162  -38.2834   24.1391 H   0  0  0  0  0  0
  -31.0347  -20.4274   21.7354 H   0  0  0  0  0  0
  -31.8741  -17.0747   18.8903 H   0  0  0  0  0  0
  -30.5250  -17.3988   17.8264 H   0  0  0  0  0  0
  -31.2142  -15.7818   17.8999 H   0  0  0  0  0  0
  -29.1916  -22.2726   21.9660 H   0  0  0  0  0  0
  -27.6394  -21.9497   21.3105 H   0  0  0  0  0  0
  -28.2913  -23.2451   19.1652 H   0  0  0  0  0  0
  -29.8073  -23.6401   19.9039 H   0  0  0  0  0  0
  -28.4354  -24.9276   21.7383 H   0  0  0  0  0  0
  -27.0227  -24.6727   20.8109 H   0  0  0  0  0  0
  -28.4115  -16.8042   18.7797 H   0  0  0  0  0  0
  1 25  1  0  0  0
  1 30  2  0  0  0
  1 78  1  0  0  0
  2  3  1  0  0  0
  2 25  1  0  0  0
  2 83  1  0  0  0
  2 84  1  0  0  0
  3  4  1  0  0  0
  3 85  1  0  0  0
  3 86  1  0  0  0
  4  5  1  0  0  0
  4 87  1  0  0  0
  4 88  1  0  0  0
  5  6  1  0  0  0
  5 26  1  0  0  0
  5 89  1  0  0  0
  6 25  1  0  0  0
  6 90  1  0  0  0
  6 91  1  0  0  0
  7  8  2  0  0  0
  7 26  1  0  0  0
  7 29  1  0  0  0
  8  9  1  0  0  0
  8 22  1  0  0  0
  9 10  1  0  0  0
  9 27  2  0  0  0
 10 11  2  0  0  0
 10 15  1  0  0  0
 11 12  1  0  0  0
 11 92  1  0  0  0
 12 13  2  0  0  0
 12 93  1  0  0  0
 13 14  1  0  0  0
 13 31  1  0  0  0
 14 15  2  0  0  0
 14 94  1  0  0  0
 15 95  1  0  0  0
 16 17  2  0  0  0
 16 21  1  0  0  0
 16 31  1  0  0  0
 17 18  1  0  0  0
 17 96  1  0  0  0
 18 19  2  0  0  0
 18 97  1  0  0  0
 19 20  1  0  0  0
 19 24  1  0  0  0
 20 21  2  0  0  0
 20 98  1  0  0  0
 21 23  1  0  0  0
 22 28  1  0  0  0
 22 32  2  0  0  0
 26 27  1  0  0  0
 28 99  1  0  0  0
 28100  1  0  0  0
 29101  1  0  0  0
 29102  1  0  0  0
 33 34  1  0  0  0
 33 66  1  0  0  0
 33 70  2  0  0  0
 34 36  1  0  0  0
 34 59  1  0  0  0
 34103  1  0  0  0
 35 44  2  0  0  0
 35 45  1  0  0  0
 35 68  1  0  0  0
 36 56  1  0  0  0
 36104  1  0  0  0
 37 39  1  0  0  0
 37 47  1  0  0  0
 37 66  1  0  0  0
 37105  1  0  0  0
 38 43  2  0  0  0
 38 46  1  0  0  0
 38 47  1  0  0  0
 39 64  1  0  0  0
 39 67  2  0  0  0
 40 52  1  0  0  0
 40 53  2  0  0  0
 40 58  1  0  0  0
 41106  1  0  0  0
 41107  1  0  0  0
 41108  1  0  0  0
 41 48  1  0  0  0
 42 43  1  0  0  0
 42 66  1  0  0  0
 42109  1  0  0  0
 42110  1  0  0  0
 43 44  1  0  0  0
 44111  1  0  0  0
 45 46  2  0  0  0
 45112  1  0  0  0
 46113  1  0  0  0
 47114  1  0  0  0
 47115  1  0  0  0
 48 56  1  0  0  0
 48 65  1  0  0  0
 48116  1  0  0  0
 49 50  1  0  0  0
 49 53  1  0  0  0
 49 64  1  0  0  0
 49117  1  0  0  0
 50 51  1  0  0  0
 50118  1  0  0  0
 50119  1  0  0  0
 51 52  1  0  0  0
 51120  1  0  0  0
 51121  1  0  0  0
 52122  1  0  0  0
 52123  1  0  0  0
 53 54  1  0  0  0
 54 55  2  0  0  0
 54124  1  0  0  0
 55 57  1  0  0  0
 55125  1  0  0  0
 56 69  2  0  0  0
 57 58  2  0  0  0
 57126  1  0  0  0
 58127  1  0  0  0
 59 60  1  0  0  0
 59 61  1  0  0  0
 59 62  1  0  0  0
 60128  1  0  0  0
 60129  1  0  0  0
 60130  1  0  0  0
 61131  1  0  0  0
 61132  1  0  0  0
 61133  1  0  0  0
 62134  1  0  0  0
 62135  1  0  0  0
 62136  1  0  0  0
 63 65  1  0  0  0
 63137  1  0  0  0
 63138  1  0  0  0
 63139  1  0  0  0
 64140  1  0  0  0
 65141  1  0  0  0
 68 77  1  0  0  0
 71 72  2  0  0  0
 71 79  1  0  0  0
 71142  1  0  0  0
 72 75  1  0  0  0
 72 80  1  0  0  0
 73 78  1  0  0  0
 73 79  2  0  0  0
 73 81  1  0  0  0
 74143  1  0  0  0
 74144  1  0  0  0
 74145  1  0  0  0
 74 78  1  0  0  0
 75 76  1  0  0  0
 75146  1  0  0  0
 75147  1  0  0  0
 76 77  1  0  0  0
 76148  1  0  0  0
 76149  1  0  0  0
 77150  1  0  0  0
 77151  1  0  0  0
 78 82  1  0  0  0
 80 81  2  0  0  0
 82152  1  0  0  0
M  ISO  4   1 100  68 101  77 101  78 100
M  END
> <chiral flag>
0

> <version>
0

> <s_m_source_file>
/data/baiqing/PycharmProjects/Reinvent-master-3.2/result/LINK_invent/BTK/process_docking_weight1_custom_sum_contain_oxygen_bond_distance_aromatic_linkinvent_7_9_3/rearranged_h_0061.sdf

> <i_m_source_file_index>
84

> <r_mmod_Potential_Energy-OPLS-2005>
582.683471679688

> <r_mmod_Stretch_Energy-OPLS-2005>
200.802764892578

> <r_mmod_Bend_Energy-OPLS-2005>
282.185363769531

> <r_mmod_Torsional_Energy-OPLS-2005>
226.799423217773

> <r_mmod_Improper_Torsional_Energy-OPLS-2005>
24.7633895874023

> <r_mmod_Van_der_Waal_Energy-OPLS-2005>
156.445938110352

> <r_mmod_Electrostatic_Energy-OPLS-2005>
-258.396026611328

> <r_mmod_Solvation_Energy-OPLS-2005>
-210.966201782227

> <b_mmod_Minimization_Converged-OPLS-2005>
0

> <r_mmod_RMS_Derivative-OPLS-2005>
1.62688302993774

$$$$
89
                    3D
 Structure written by MMmdl.
166175  0  0  1  0            999 V2000
  -30.6788  -14.5142   20.5744 C   0  0  0  0  0  0
  -30.4300  -12.3350   19.4221 C   0  0  0  0  0  0
  -29.4929  -12.4975   18.2071 C   0  0  0  0  0  0
  -28.0156  -12.3515   18.6234 C   0  0  0  0  0  0
  -27.6593  -13.2044   19.8691 C   0  0  2  0  0  0
  -28.7028  -13.0065   20.9898 C   0  0  0  0  0  0
  -25.2624  -13.8158   20.5717 C   0  0  0  0  0  0
  -24.1868  -13.0430   20.9196 C   0  0  0  0  0  0
  -24.6408  -11.6894   20.8728 C   0  0  0  0  0  0
  -23.9062  -10.4289   21.0391 C   0  0  0  0  0  0
  -24.3615   -9.4213   21.9180 C   0  0  0  0  0  0
  -23.6298   -8.2245   22.0759 C   0  0  0  0  0  0
  -22.4276   -8.0287   21.3548 C   0  0  0  0  0  0
  -21.9905   -9.0256   20.4646 C   0  0  0  0  0  0
  -22.7225  -10.2135   20.3054 C   0  0  0  0  0  0
  -21.6857   -6.0744   22.5277 C   0  0  0  0  0  0
  -21.4014   -6.5651   23.8209 C   0  0  0  0  0  0
  -21.3647   -5.6800   24.9172 C   0  0  0  0  0  0
  -21.6042   -4.3068   24.7217 C   0  0  0  0  0  0
  -21.8824   -3.8157   23.4338 C   0  0  0  0  0  0
  -21.9196   -4.6975   22.3395 C   0  0  0  0  0  0
  -22.7896  -13.5251   21.1833 C   0  0  0  0  0  0
  -22.1674   -4.2162   21.0975 F   0  0  0  0  0  0
  -21.5606   -3.4545   25.7722 F   0  0  0  0  0  0
  -30.0262  -13.3273   20.4321 N   0  0  0  0  0  0
  -26.3029  -12.9305   20.3367 N   0  0  0  0  0  0
  -25.9335  -11.6464   20.5767 N   0  0  0  0  0  0
  -22.0541  -12.8249   22.0392 N   0  0  0  0  0  0
  -25.4383  -15.1868   20.4152 N   0  0  0  0  0  0
  -31.8135  -14.7054   20.1273 O   0  0  0  0  0  0
  -21.6643   -6.8887   21.4238 O   0  0  0  0  0  0
  -22.3582  -14.5543   20.6667 O   0  0  0  0  0  0
  -24.6177  -31.8678   23.2086 C   0  0  0  0  0  0
  -25.9068  -32.4815   23.8392 C   0  0  1  0  0  0
  -27.2233  -27.3986   20.1140 C   0  0  0  0  0  0
  -25.5915  -33.8612   24.2320 N   0  0  0  0  0  0
  -23.4072  -30.4926   21.5490 C   0  0  2  0  0  0
  -24.8544  -28.9448   20.1265 C   0  0  0  0  0  0
  -22.7430  -29.4689   22.4973 C   0  0  0  0  0  0
  -18.0305  -28.1347   22.8472 C   0  0  0  0  0  0
  -24.1490  -36.7310   23.2640 C   0  0  0  0  0  0
  -25.9407  -30.8180   21.3714 C   0  0  0  0  0  0
  -26.0157  -29.4448   20.7311 C   0  0  0  0  0  0
  -27.2077  -28.6763   20.7303 C   0  0  0  0  0  0
  -26.0504  -26.9220   19.4998 C   0  0  0  0  0  0
  -24.8659  -27.6815   19.5109 C   0  0  0  0  0  0
  -23.6204  -29.8203   20.1674 C   0  0  0  0  0  0
  -25.4113  -36.3096   24.0332 C   0  0  1  0  0  0
  -20.5886  -28.3680   23.1265 C   0  0  2  0  0  0
  -20.6838  -26.9415   22.5399 C   0  0  0  0  0  0
  -19.5794  -26.6312   21.5237 C   0  0  0  0  0  0
  -18.1966  -26.7887   22.1622 C   0  0  0  0  0  0
  -19.1541  -28.8830   23.2860 C   0  0  0  0  0  0
  -18.9456  -30.1433   23.8874 C   0  0  0  0  0  0
  -17.6456  -30.6564   24.0505 C   0  0  0  0  0  0
  -25.9044  -34.9466   23.5120 C   0  0  0  0  0  0
  -16.5361  -29.9031   23.6312 C   0  0  0  0  0  0
  -16.7293  -28.6443   23.0345 C   0  0  0  0  0  0
  -26.4483  -31.6581   25.0719 C   0  0  0  0  0  0
  -25.3740  -31.3712   26.1456 C   0  0  0  0  0  0
  -27.0296  -30.3000   24.6123 C   0  0  0  0  0  0
  -27.6043  -32.4316   25.7495 C   0  0  0  0  0  0
  -27.5579  -37.1810   24.8467 C   0  0  0  0  0  0
  -21.4153  -29.3066   22.3694 N   0  0  0  0  0  0
  -26.4297  -37.3786   23.9402 N   0  0  0  0  0  0
  -24.6727  -31.0765   22.0998 N   0  0  0  0  0  0
  -23.4187  -28.8250   23.3039 O   0  0  0  0  0  0
  -28.3530  -26.6167   19.9999 O   0  0  0  0  0  0
  -26.5610  -34.8916   22.4682 O   0  0  0  0  0  0
  -23.5371  -32.1443   23.7462 O   0  0  0  0  0  0
  -29.0070  -19.0528   21.4059 C   0  0  0  0  0  0
  -29.6378  -18.0029   20.7103 C   0  0  0  0  0  0
  -28.3656  -20.0784   20.6650 C   0  0  0  0  0  0
  -27.7219  -22.5768   21.5953 C   0  0  0  0  0  0
  -28.9939  -18.9727   18.7282 C   0  0  0  0  0  0
  -28.2267  -24.6441   21.4832 C   0  0  0  0  0  0
  -25.6153  -25.9093   23.3181 C   0  0  0  0  0  0
  -26.0196  -21.0396   20.5580 C   0  0  0  0  0  0
  -30.4091  -16.8816   21.4275 C   0  0  0  0  0  0
  -28.8823  -25.9964   21.1825 C   0  0  0  0  0  0
  -27.0112  -25.3507   23.6299 C   0  0  0  0  0  0
  -27.3608  -21.0932   21.3103 C   0  0  1  0  0  0
  -28.9029  -18.9176   17.1908 C   0  0  0  0  0  0
  -29.6049  -17.9671   19.3682 N   0  0  0  0  0  0
  -28.4194  -20.0260   19.3175 N   0  0  0  0  0  0
  -28.3849  -23.4927   20.7923 N   0  0  0  0  0  0
  -27.1439  -23.1439   22.6623 N   0  0  0  0  0  0
  -27.4812  -24.4510   22.5838 N   0  0  0  0  0  0
  -29.9631  -15.5049   21.1388 N   0  0  0  0  0  0
  -27.0611  -20.5510   22.5003 F   0  0  0  0  0  0
  -29.6966  -19.8451   16.6484 F   0  0  0  0  0  0
  -29.2588  -17.7210   16.7129 F   0  0  0  0  0  0
  -27.6471  -19.1617   16.7975 F   0  0  0  0  0  0
  -31.4687  -12.4580   19.1124 H   0  0  0  0  0  0
  -30.3608  -11.3252   19.8320 H   0  0  0  0  0  0
  -29.7356  -11.7574   17.4434 H   0  0  0  0  0  0
  -29.6510  -13.4748   17.7473 H   0  0  0  0  0  0
  -27.8324  -11.2962   18.8343 H   0  0  0  0  0  0
  -27.3612  -12.6121   17.7897 H   0  0  0  0  0  0
  -27.6975  -14.2477   19.5535 H   0  0  0  0  0  0
  -28.6973  -11.9738   21.3403 H   0  0  0  0  0  0
  -28.4562  -13.6110   21.8631 H   0  0  0  0  0  0
  -25.2765   -9.5694   22.4757 H   0  0  0  0  0  0
  -24.0008   -7.4637   22.7484 H   0  0  0  0  0  0
  -21.0841   -8.8774   19.8956 H   0  0  0  0  0  0
  -22.3687  -10.9679   19.6170 H   0  0  0  0  0  0
  -21.2021   -7.6160   23.9717 H   0  0  0  0  0  0
  -21.1459   -6.0531   25.9074 H   0  0  0  0  0  0
  -22.0615   -2.7625   23.2830 H   0  0  0  0  0  0
  -22.4166  -11.9890   22.4735 H   0  0  0  0  0  0
  -21.1157  -13.1267   22.2590 H   0  0  0  0  0  0
  -24.6757  -15.8449   20.5359 H   0  0  0  0  0  0
  -26.2887  -15.6239   20.0832 H   0  0  0  0  0  0
  -26.7142  -32.5513   23.1161 H   0  0  0  0  0  0
  -25.0027  -33.9777   25.0435 H   0  0  0  0  0  0
  -22.6967  -31.3108   21.4086 H   0  0  0  0  0  0
  -23.3734  -35.9666   23.3313 H   0  0  0  0  0  0
  -24.3576  -36.8917   22.2055 H   0  0  0  0  0  0
  -23.7274  -37.6529   23.6652 H   0  0  0  0  0  0
  -26.0614  -31.5757   20.5958 H   0  0  0  0  0  0
  -26.8261  -30.8766   21.9926 H   0  0  0  0  0  0
  -28.1096  -29.0623   21.1847 H   0  0  0  0  0  0
  -26.0536  -25.9561   19.0139 H   0  0  0  0  0  0
  -23.9734  -27.2919   19.0420 H   0  0  0  0  0  0
  -23.7365  -30.5930   19.4065 H   0  0  0  0  0  0
  -22.7411  -29.2472   19.8682 H   0  0  0  0  0  0
  -25.1291  -36.1954   25.0831 H   0  0  0  0  0  0
  -20.9986  -28.3291   24.1378 H   0  0  0  0  0  0
  -20.5806  -26.2288   23.3593 H   0  0  0  0  0  0
  -21.6711  -26.7529   22.1160 H   0  0  0  0  0  0
  -19.6988  -25.6193   21.1330 H   0  0  0  0  0  0
  -19.6697  -27.3055   20.6722 H   0  0  0  0  0  0
  -17.4243  -26.6627   21.4014 H   0  0  0  0  0  0
  -18.0345  -26.0046   22.9016 H   0  0  0  0  0  0
  -19.7922  -30.7278   24.2220 H   0  0  0  0  0  0
  -17.4992  -31.6277   24.5044 H   0  0  0  0  0  0
  -15.5358  -30.2923   23.7625 H   0  0  0  0  0  0
  -15.8704  -28.0757   22.7058 H   0  0  0  0  0  0
  -24.5902  -30.7083   25.7780 H   0  0  0  0  0  0
  -24.8952  -32.2882   26.4901 H   0  0  0  0  0  0
  -25.8075  -30.8868   27.0213 H   0  0  0  0  0  0
  -26.2839  -29.6775   24.1163 H   0  0  0  0  0  0
  -27.4007  -29.7237   25.4607 H   0  0  0  0  0  0
  -27.8711  -30.4272   23.9311 H   0  0  0  0  0  0
  -27.2627  -33.3595   26.2104 H   0  0  0  0  0  0
  -28.3839  -32.6924   25.0322 H   0  0  0  0  0  0
  -28.0728  -31.8428   26.5395 H   0  0  0  0  0  0
  -28.2603  -38.0097   24.7474 H   0  0  0  0  0  0
  -28.1065  -36.2622   24.6328 H   0  0  0  0  0  0
  -27.2287  -37.1500   25.8868 H   0  0  0  0  0  0
  -20.9316  -29.8790   21.6919 H   0  0  0  0  0  0
  -26.0172  -38.2866   24.1384 H   0  0  0  0  0  0
  -28.9790  -19.0630   22.4883 H   0  0  0  0  0  0
  -25.2567  -26.5437   24.1297 H   0  0  0  0  0  0
  -24.8861  -25.1101   23.1805 H   0  0  0  0  0  0
  -25.6221  -26.5099   22.4087 H   0  0  0  0  0  0
  -25.2448  -21.5903   21.0901 H   0  0  0  0  0  0
  -25.6795  -20.0125   20.4357 H   0  0  0  0  0  0
  -26.1135  -21.4783   19.5652 H   0  0  0  0  0  0
  -30.3320  -17.0329   22.5051 H   0  0  0  0  0  0
  -31.4677  -17.0003   21.1924 H   0  0  0  0  0  0
  -29.9453  -25.8216   21.0193 H   0  0  0  0  0  0
  -28.8204  -26.6744   22.0311 H   0  0  0  0  0  0
  -26.9815  -24.7998   24.5713 H   0  0  0  0  0  0
  -27.7279  -26.1560   23.7870 H   0  0  0  0  0  0
  -29.0194  -15.2850   21.4104 H   0  0  0  0  0  0
  1 25  1  0  0  0
  1 30  2  0  0  0
  1 89  1  0  0  0
  2  3  1  0  0  0
  2 25  1  0  0  0
  2 94  1  0  0  0
  2 95  1  0  0  0
  3  4  1  0  0  0
  3 96  1  0  0  0
  3 97  1  0  0  0
  4  5  1  0  0  0
  4 98  1  0  0  0
  4 99  1  0  0  0
  5  6  1  0  0  0
  5 26  1  0  0  0
  5100  1  0  0  0
  6 25  1  0  0  0
  6101  1  0  0  0
  6102  1  0  0  0
  7  8  2  0  0  0
  7 26  1  0  0  0
  7 29  1  0  0  0
  8  9  1  0  0  0
  8 22  1  0  0  0
  9 10  1  0  0  0
  9 27  2  0  0  0
 10 11  2  0  0  0
 10 15  1  0  0  0
 11 12  1  0  0  0
 11103  1  0  0  0
 12 13  2  0  0  0
 12104  1  0  0  0
 13 14  1  0  0  0
 13 31  1  0  0  0
 14 15  2  0  0  0
 14105  1  0  0  0
 15106  1  0  0  0
 16 17  2  0  0  0
 16 21  1  0  0  0
 16 31  1  0  0  0
 17 18  1  0  0  0
 17107  1  0  0  0
 18 19  2  0  0  0
 18108  1  0  0  0
 19 20  1  0  0  0
 19 24  1  0  0  0
 20 21  2  0  0  0
 20109  1  0  0  0
 21 23  1  0  0  0
 22 28  1  0  0  0
 22 32  2  0  0  0
 26 27  1  0  0  0
 28110  1  0  0  0
 28111  1  0  0  0
 29112  1  0  0  0
 29113  1  0  0  0
 33 34  1  0  0  0
 33 66  1  0  0  0
 33 70  2  0  0  0
 34 36  1  0  0  0
 34 59  1  0  0  0
 34114  1  0  0  0
 35 44  2  0  0  0
 35 45  1  0  0  0
 35 68  1  0  0  0
 36 56  1  0  0  0
 36115  1  0  0  0
 37 39  1  0  0  0
 37 47  1  0  0  0
 37 66  1  0  0  0
 37116  1  0  0  0
 38 43  2  0  0  0
 38 46  1  0  0  0
 38 47  1  0  0  0
 39 64  1  0  0  0
 39 67  2  0  0  0
 40 52  1  0  0  0
 40 53  2  0  0  0
 40 58  1  0  0  0
 41117  1  0  0  0
 41118  1  0  0  0
 41119  1  0  0  0
 41 48  1  0  0  0
 42 43  1  0  0  0
 42 66  1  0  0  0
 42120  1  0  0  0
 42121  1  0  0  0
 43 44  1  0  0  0
 44122  1  0  0  0
 45 46  2  0  0  0
 45123  1  0  0  0
 46124  1  0  0  0
 47125  1  0  0  0
 47126  1  0  0  0
 48 56  1  0  0  0
 48 65  1  0  0  0
 48127  1  0  0  0
 49 50  1  0  0  0
 49 53  1  0  0  0
 49 64  1  0  0  0
 49128  1  0  0  0
 50 51  1  0  0  0
 50129  1  0  0  0
 50130  1  0  0  0
 51 52  1  0  0  0
 51131  1  0  0  0
 51132  1  0  0  0
 52133  1  0  0  0
 52134  1  0  0  0
 53 54  1  0  0  0
 54 55  2  0  0  0
 54135  1  0  0  0
 55 57  1  0  0  0
 55136  1  0  0  0
 56 69  2  0  0  0
 57 58  2  0  0  0
 57137  1  0  0  0
 58138  1  0  0  0
 59 60  1  0  0  0
 59 61  1  0  0  0
 59 62  1  0  0  0
 60139  1  0  0  0
 60140  1  0  0  0
 60141  1  0  0  0
 61142  1  0  0  0
 61143  1  0  0  0
 61144  1  0  0  0
 62145  1  0  0  0
 62146  1  0  0  0
 62147  1  0  0  0
 63 65  1  0  0  0
 63148  1  0  0  0
 63149  1  0  0  0
 63150  1  0  0  0
 64151  1  0  0  0
 65152  1  0  0  0
 68 80  1  0  0  0
 71 72  2  0  0  0
 71 73  1  0  0  0
 71153  1  0  0  0
 72 79  1  0  0  0
 72 84  1  0  0  0
 73 82  1  0  0  0
 73 85  2  0  0  0
 74 82  1  0  0  0
 74 86  1  0  0  0
 74 87  2  0  0  0
 75 83  1  0  0  0
 75 84  2  0  0  0
 75 85  1  0  0  0
 76 80  1  0  0  0
 76 86  2  0  0  0
 76 88  1  0  0  0
 77 81  1  0  0  0
 77154  1  0  0  0
 77155  1  0  0  0
 77156  1  0  0  0
 78157  1  0  0  0
 78158  1  0  0  0
 78159  1  0  0  0
 78 82  1  0  0  0
 79 89  1  0  0  0
 79160  1  0  0  0
 79161  1  0  0  0
 80162  1  0  0  0
 80163  1  0  0  0
 81 88  1  0  0  0
 81164  1  0  0  0
 81165  1  0  0  0
 82 90  1  0  0  0
 83 91  1  0  0  0
 83 92  1  0  0  0
 83 93  1  0  0  0
 87 88  1  0  0  0
 89166  1  0  0  0
M  ISO  4   1 100  68 101  80 101  89 100
M  END
> <chiral flag>
0

> <version>
0

> <s_m_source_file>
/data/baiqing/PycharmProjects/Reinvent-master-3.2/result/LINK_invent/BTK/process_docking_weight1_custom_sum_contain_oxygen_bond_distance_aromatic_linkinvent_7_9_3/rearranged_h_0061.sdf

> <i_m_source_file_index>
85

> <r_mmod_Potential_Energy-OPLS-2005>
-200.172500610352

> <r_mmod_Stretch_Energy-OPLS-2005>
51.9081840515137

> <r_mmod_Bend_Energy-OPLS-2005>
136.555557250977

> <r_mmod_Torsional_Energy-OPLS-2005>
228.875350952148

> <r_mmod_Improper_Torsional_Energy-OPLS-2005>
5.53109788894653

> <r_mmod_Van_der_Waal_Energy-OPLS-2005>
140.302108764648

> <r_mmod_Electrostatic_Energy-OPLS-2005>
-552.688232421875

> <r_mmod_Solvation_Energy-OPLS-2005>
-228.882339477539

> <b_mmod_Minimization_Converged-OPLS-2005>
0

> <r_mmod_RMS_Derivative-OPLS-2005>
2.74382567405701

$$$$
90
                    3D
 Structure written by MMmdl.
148156  0  0  1  0            999 V2000
  -30.4759  -15.2597   20.3955 C   0  0  0  0  0  0
  -30.4464  -12.8144   19.5170 C   0  0  0  0  0  0
  -29.5299  -12.5711   18.2902 C   0  0  0  0  0  0
  -28.0827  -12.2855   18.7275 C   0  0  0  0  0  0
  -27.6154  -13.2597   19.8332 C   0  0  2  0  0  0
  -28.6645  -13.4109   20.9615 C   0  0  0  0  0  0
  -25.2324  -13.8178   20.5702 C   0  0  0  0  0  0
  -24.1714  -13.0384   20.9291 C   0  0  0  0  0  0
  -24.6395  -11.6899   20.8830 C   0  0  0  0  0  0
  -23.9090  -10.4271   21.0444 C   0  0  0  0  0  0
  -24.3633   -9.4178   21.9209 C   0  0  0  0  0  0
  -23.6298   -8.2218   22.0756 C   0  0  0  0  0  0
  -22.4278   -8.0278   21.3542 C   0  0  0  0  0  0
  -21.9933   -9.0258   20.4642 C   0  0  0  0  0  0
  -22.7274  -10.2128   20.3068 C   0  0  0  0  0  0
  -21.6853   -6.0735   22.5284 C   0  0  0  0  0  0
  -21.4012   -6.5636   23.8219 C   0  0  0  0  0  0
  -21.3650   -5.6786   24.9177 C   0  0  0  0  0  0
  -21.6040   -4.3050   24.7227 C   0  0  0  0  0  0
  -21.8822   -3.8144   23.4346 C   0  0  0  0  0  0
  -21.9197   -4.6964   22.3403 C   0  0  0  0  0  0
  -22.7736  -13.5153   21.1918 C   0  0  0  0  0  0
  -22.1664   -4.2152   21.0980 F   0  0  0  0  0  0
  -21.5624   -3.4533   25.7736 F   0  0  0  0  0  0
  -29.8859  -13.9559   20.3329 N   0  0  0  0  0  0
  -26.2822  -12.9472   20.3307 N   0  0  0  0  0  0
  -25.9341  -11.6592   20.5850 N   0  0  0  0  0  0
  -22.0399  -12.8146   22.0478 N   0  0  0  0  0  0
  -25.3725  -15.1891   20.3928 N   0  0  0  0  0  0
  -31.6906  -15.2301   20.1502 O   0  0  0  0  0  0
  -21.6632   -6.8878   21.4241 O   0  0  0  0  0  0
  -22.3422  -14.5473   20.6774 O   0  0  0  0  0  0
  -24.6622  -31.8254   23.1706 C   0  0  0  0  0  0
  -25.9304  -32.4593   23.8175 C   0  0  1  0  0  0
  -27.2308  -26.9637   20.1697 C   0  0  0  0  0  0
  -25.5977  -33.8408   24.2074 N   0  0  0  0  0  0
  -23.4758  -30.4368   21.5206 C   0  0  2  0  0  0
  -24.9311  -28.8336   20.1116 C   0  0  0  0  0  0
  -22.7675  -29.4443   22.4783 C   0  0  0  0  0  0
  -18.0321  -28.1411   22.8456 C   0  0  0  0  0  0
  -24.1492  -36.7219   23.2650 C   0  0  0  0  0  0
  -26.0442  -30.6438   21.3967 C   0  0  0  0  0  0
  -26.1153  -29.2376   20.7399 C   0  0  0  0  0  0
  -27.2614  -28.3249   20.7446 C   0  0  0  0  0  0
  -26.0113  -26.7043   19.5009 C   0  0  0  0  0  0
  -24.9024  -27.5854   19.4723 C   0  0  0  0  0  0
  -23.7144  -29.7554   20.1461 C   0  0  0  0  0  0
  -25.4123  -36.2967   24.0303 C   0  0  1  0  0  0
  -20.5944  -28.3749   23.1186 C   0  0  2  0  0  0
  -20.6796  -26.9430   22.5399 C   0  0  0  0  0  0
  -19.5772  -26.6372   21.5217 C   0  0  0  0  0  0
  -18.1954  -26.7935   22.1621 C   0  0  0  0  0  0
  -19.1584  -28.8908   23.2801 C   0  0  0  0  0  0
  -18.9503  -30.1499   23.8832 C   0  0  0  0  0  0
  -17.6494  -30.6599   24.0559 C   0  0  0  0  0  0
  -25.9094  -34.9350   23.5007 C   0  0  0  0  0  0
  -16.5383  -29.9085   23.6345 C   0  0  0  0  0  0
  -16.7305  -28.6515   23.0345 C   0  0  0  0  0  0
  -26.4552  -31.6536   25.0708 C   0  0  0  0  0  0
  -25.3670  -31.3802   26.1368 C   0  0  0  0  0  0
  -27.0445  -30.2895   24.6441 C   0  0  0  0  0  0
  -27.6040  -32.4361   25.7504 C   0  0  0  0  0  0
  -27.5562  -37.1765   24.8465 C   0  0  0  0  0  0
  -21.4343  -29.3044   22.3551 N   0  0  0  0  0  0
  -26.4263  -37.3704   23.9422 N   0  0  0  0  0  0
  -24.7488  -30.9947   22.0832 N   0  0  0  0  0  0
  -23.4237  -28.8002   23.3010 O   0  0  0  0  0  0
  -28.2346  -25.8666   20.2397 O   0  0  0  0  0  0
  -26.5711  -34.8891   22.4604 O   0  0  0  0  0  0
  -23.5696  -32.1212   23.6807 O   0  0  0  0  0  0
  -29.2636  -20.5704   19.0710 C   0  0  0  0  0  0
  -28.9083  -21.8967   21.3390 C   0  0  0  0  0  0
  -29.4834  -19.7173   20.2352 C   0  0  0  0  0  0
  -28.6878  -22.7484   20.1689 C   0  0  0  0  0  0
  -28.4388  -16.6249   21.0792 C   0  0  0  0  0  0
  -30.2320  -18.1399   20.2324 C   0  0  0  0  0  0
  -27.8704  -24.2858   20.0516 C   0  0  0  0  0  0
  -29.2990  -20.5171   21.3701 N   0  0  0  0  0  0
  -28.8823  -21.9434   19.0406 N   0  0  0  0  0  0
  -29.7648  -16.5732   20.4814 N   0  0  0  0  0  0
  -31.4567  -13.0274   19.1652 H   0  0  0  0  0  0
  -30.5410  -11.9119   20.1233 H   0  0  0  0  0  0
  -29.9107  -11.7433   17.6911 H   0  0  0  0  0  0
  -29.5475  -13.4518   17.6472 H   0  0  0  0  0  0
  -28.0445  -11.2641   19.1086 H   0  0  0  0  0  0
  -27.4066  -12.3197   17.8729 H   0  0  0  0  0  0
  -27.5316  -14.2167   19.3223 H   0  0  0  0  0  0
  -28.8512  -12.4536   21.4506 H   0  0  0  0  0  0
  -28.3061  -14.0680   21.7517 H   0  0  0  0  0  0
  -25.2776   -9.5653   22.4785 H   0  0  0  0  0  0
  -24.0009   -7.4598   22.7471 H   0  0  0  0  0  0
  -21.0866   -8.8801   19.8928 H   0  0  0  0  0  0
  -22.3766  -10.9682   19.6178 H   0  0  0  0  0  0
  -21.2002   -7.6147   23.9729 H   0  0  0  0  0  0
  -21.1463   -6.0509   25.9082 H   0  0  0  0  0  0
  -22.0608   -2.7612   23.2853 H   0  0  0  0  0  0
  -22.4035  -11.9821   22.4871 H   0  0  0  0  0  0
  -21.1018  -13.1164   22.2684 H   0  0  0  0  0  0
  -24.5856  -15.8227   20.4800 H   0  0  0  0  0  0
  -26.1929  -15.6297   20.0000 H   0  0  0  0  0  0
  -26.7379  -32.5141   23.0903 H   0  0  0  0  0  0
  -25.0073  -33.9490   25.0191 H   0  0  0  0  0  0
  -22.7882  -31.2678   21.3503 H   0  0  0  0  0  0
  -23.3765  -35.9546   23.3276 H   0  0  0  0  0  0
  -24.3557  -36.8893   22.2071 H   0  0  0  0  0  0
  -23.7243  -37.6398   23.6722 H   0  0  0  0  0  0
  -26.2193  -31.3858   20.6165 H   0  0  0  0  0  0
  -26.9066  -30.6984   22.0488 H   0  0  0  0  0  0
  -28.1589  -28.6323   21.2636 H   0  0  0  0  0  0
  -25.8695  -25.7539   19.0112 H   0  0  0  0  0  0
  -24.0022  -27.2670   18.9647 H   0  0  0  0  0  0
  -23.8680  -30.5257   19.3892 H   0  0  0  0  0  0
  -22.8265  -29.2072   19.8267 H   0  0  0  0  0  0
  -25.1313  -36.1761   25.0791 H   0  0  0  0  0  0
  -21.0028  -28.3356   24.1312 H   0  0  0  0  0  0
  -20.5693  -26.2370   23.3637 H   0  0  0  0  0  0
  -21.6653  -26.7406   22.1198 H   0  0  0  0  0  0
  -19.6934  -25.6277   21.1275 H   0  0  0  0  0  0
  -19.6708  -27.3164   20.6734 H   0  0  0  0  0  0
  -17.4214  -26.6680   21.4030 H   0  0  0  0  0  0
  -18.0343  -26.0092   22.9034 H   0  0  0  0  0  0
  -19.7985  -30.7330   24.2168 H   0  0  0  0  0  0
  -17.5049  -31.6268   24.5182 H   0  0  0  0  0  0
  -15.5383  -30.2974   23.7707 H   0  0  0  0  0  0
  -15.8697  -28.0827   22.7076 H   0  0  0  0  0  0
  -24.5861  -30.7134   25.7687 H   0  0  0  0  0  0
  -24.8861  -32.3017   26.4662 H   0  0  0  0  0  0
  -25.7894  -30.9061   27.0232 H   0  0  0  0  0  0
  -26.3109  -29.6577   24.1426 H   0  0  0  0  0  0
  -27.3943  -29.7252   25.5097 H   0  0  0  0  0  0
  -27.9051  -30.4069   23.9854 H   0  0  0  0  0  0
  -27.2597  -33.3723   26.1904 H   0  0  0  0  0  0
  -28.3923  -32.6824   25.0380 H   0  0  0  0  0  0
  -28.0612  -31.8612   26.5565 H   0  0  0  0  0  0
  -28.2551  -38.0086   24.7505 H   0  0  0  0  0  0
  -28.1082  -36.2613   24.6283 H   0  0  0  0  0  0
  -27.2285  -37.1378   25.8868 H   0  0  0  0  0  0
  -20.9614  -29.8755   21.6683 H   0  0  0  0  0  0
  -26.0118  -38.2760   24.1442 H   0  0  0  0  0  0
  -29.4370  -20.1430   18.0931 H   0  0  0  0  0  0
  -28.7218  -22.3213   22.3148 H   0  0  0  0  0  0
  -27.7755  -15.9510   20.5617 H   0  0  0  0  0  0
  -27.9722  -17.6075   21.0066 H   0  0  0  0  0  0
  -28.4806  -16.3541   22.1344 H   0  0  0  0  0  0
  -31.0692  -18.2629   20.9195 H   0  0  0  0  0  0
  -30.7144  -18.0975   19.2550 H   0  0  0  0  0  0
  -26.9846  -24.1465   20.6712 H   0  0  0  0  0  0
  -27.4911  -24.2511   19.0308 H   0  0  0  0  0  0
  1 25  1  0  0  0
  1 30  2  0  0  0
  1 80  1  0  0  0
  2  3  1  0  0  0
  2 25  1  0  0  0
  2 81  1  0  0  0
  2 82  1  0  0  0
  3  4  1  0  0  0
  3 83  1  0  0  0
  3 84  1  0  0  0
  4  5  1  0  0  0
  4 85  1  0  0  0
  4 86  1  0  0  0
  5  6  1  0  0  0
  5 26  1  0  0  0
  5 87  1  0  0  0
  6 25  1  0  0  0
  6 88  1  0  0  0
  6 89  1  0  0  0
  7  8  2  0  0  0
  7 26  1  0  0  0
  7 29  1  0  0  0
  8  9  1  0  0  0
  8 22  1  0  0  0
  9 10  1  0  0  0
  9 27  2  0  0  0
 10 11  2  0  0  0
 10 15  1  0  0  0
 11 12  1  0  0  0
 11 90  1  0  0  0
 12 13  2  0  0  0
 12 91  1  0  0  0
 13 14  1  0  0  0
 13 31  1  0  0  0
 14 15  2  0  0  0
 14 92  1  0  0  0
 15 93  1  0  0  0
 16 17  2  0  0  0
 16 21  1  0  0  0
 16 31  1  0  0  0
 17 18  1  0  0  0
 17 94  1  0  0  0
 18 19  2  0  0  0
 18 95  1  0  0  0
 19 20  1  0  0  0
 19 24  1  0  0  0
 20 21  2  0  0  0
 20 96  1  0  0  0
 21 23  1  0  0  0
 22 28  1  0  0  0
 22 32  2  0  0  0
 26 27  1  0  0  0
 28 97  1  0  0  0
 28 98  1  0  0  0
 29 99  1  0  0  0
 29100  1  0  0  0
 33 34  1  0  0  0
 33 66  1  0  0  0
 33 70  2  0  0  0
 34 36  1  0  0  0
 34 59  1  0  0  0
 34101  1  0  0  0
 35 44  2  0  0  0
 35 45  1  0  0  0
 35 68  1  0  0  0
 36 56  1  0  0  0
 36102  1  0  0  0
 37 39  1  0  0  0
 37 47  1  0  0  0
 37 66  1  0  0  0
 37103  1  0  0  0
 38 43  2  0  0  0
 38 46  1  0  0  0
 38 47  1  0  0  0
 39 64  1  0  0  0
 39 67  2  0  0  0
 40 52  1  0  0  0
 40 53  2  0  0  0
 40 58  1  0  0  0
 41104  1  0  0  0
 41105  1  0  0  0
 41106  1  0  0  0
 41 48  1  0  0  0
 42 43  1  0  0  0
 42 66  1  0  0  0
 42107  1  0  0  0
 42108  1  0  0  0
 43 44  1  0  0  0
 44109  1  0  0  0
 45 46  2  0  0  0
 45110  1  0  0  0
 46111  1  0  0  0
 47112  1  0  0  0
 47113  1  0  0  0
 48 56  1  0  0  0
 48 65  1  0  0  0
 48114  1  0  0  0
 49 50  1  0  0  0
 49 53  1  0  0  0
 49 64  1  0  0  0
 49115  1  0  0  0
 50 51  1  0  0  0
 50116  1  0  0  0
 50117  1  0  0  0
 51 52  1  0  0  0
 51118  1  0  0  0
 51119  1  0  0  0
 52120  1  0  0  0
 52121  1  0  0  0
 53 54  1  0  0  0
 54 55  2  0  0  0
 54122  1  0  0  0
 55 57  1  0  0  0
 55123  1  0  0  0
 56 69  2  0  0  0
 57 58  2  0  0  0
 57124  1  0  0  0
 58125  1  0  0  0
 59 60  1  0  0  0
 59 61  1  0  0  0
 59 62  1  0  0  0
 60126  1  0  0  0
 60127  1  0  0  0
 60128  1  0  0  0
 61129  1  0  0  0
 61130  1  0  0  0
 61131  1  0  0  0
 62132  1  0  0  0
 62133  1  0  0  0
 62134  1  0  0  0
 63 65  1  0  0  0
 63135  1  0  0  0
 63136  1  0  0  0
 63137  1  0  0  0
 64138  1  0  0  0
 65139  1  0  0  0
 68 77  1  0  0  0
 71 73  2  0  0  0
 71 79  1  0  0  0
 71140  1  0  0  0
 72 74  1  0  0  0
 72 78  2  0  0  0
 72141  1  0  0  0
 73 76  1  0  0  0
 73 78  1  0  0  0
 74 77  1  0  0  0
 74 79  2  0  0  0
 75 80  1  0  0  0
 75142  1  0  0  0
 75143  1  0  0  0
 75144  1  0  0  0
 76 80  1  0  0  0
 76145  1  0  0  0
 76146  1  0  0  0
 77147  1  0  0  0
 77148  1  0  0  0
M  ISO  4   1 100  68 101  77 101  80 100
M  END
> <chiral flag>
0

> <version>
0

> <s_m_source_file>
/data/baiqing/PycharmProjects/Reinvent-master-3.2/result/LINK_invent/BTK/process_docking_weight1_custom_sum_contain_oxygen_bond_distance_aromatic_linkinvent_7_9_3/rearranged_h_0061.sdf

> <i_m_source_file_index>
86

> <r_mmod_Potential_Energy-OPLS-2005>
1307.60070800781

> <r_mmod_Stretch_Energy-OPLS-2005>
499.997161865234

> <r_mmod_Bend_Energy-OPLS-2005>
429.736389160156

> <r_mmod_Torsional_Energy-OPLS-2005>
258.079956054688

> <r_mmod_Improper_Torsional_Energy-OPLS-2005>
10.5004959106445

> <r_mmod_Van_der_Waal_Energy-OPLS-2005>
142.201171875

> <r_mmod_Electrostatic_Energy-OPLS-2005>
-229.592208862305

> <r_mmod_Solvation_Energy-OPLS-2005>
-227.890609741211

> <b_mmod_Minimization_Converged-OPLS-2005>
0

> <r_mmod_RMS_Derivative-OPLS-2005>
1.98256230354309

$$$$
91
                    3D
 Structure written by MMmdl.
169177  0  0  1  0            999 V2000
  -30.6536  -14.7169   20.5364 C   0  0  0  0  0  0
  -30.4295  -12.4529   19.4705 C   0  0  0  0  0  0
  -29.5138  -12.5116   18.2269 C   0  0  0  0  0  0
  -28.0395  -12.3160   18.6375 C   0  0  0  0  0  0
  -27.6378  -13.2142   19.8372 C   0  0  2  0  0  0
  -28.6798  -13.1046   20.9691 C   0  0  0  0  0  0
  -25.2520  -13.8079   20.5781 C   0  0  0  0  0  0
  -24.1797  -13.0376   20.9249 C   0  0  0  0  0  0
  -24.6322  -11.6829   20.8673 C   0  0  0  0  0  0
  -23.8969  -10.4255   21.0335 C   0  0  0  0  0  0
  -24.3539   -9.4175   21.9120 C   0  0  0  0  0  0
  -23.6213   -8.2224   22.0763 C   0  0  0  0  0  0
  -22.4206   -8.0249   21.3567 C   0  0  0  0  0  0
  -21.9810   -9.0182   20.4647 C   0  0  0  0  0  0
  -22.7116  -10.2068   20.2999 C   0  0  0  0  0  0
  -21.6791   -6.0698   22.5316 C   0  0  0  0  0  0
  -21.3980   -6.5621   23.8240 C   0  0  0  0  0  0
  -21.3653   -5.6792   24.9212 C   0  0  0  0  0  0
  -21.6049   -4.3060   24.7265 C   0  0  0  0  0  0
  -21.8797   -3.8126   23.4391 C   0  0  0  0  0  0
  -21.9151   -4.6931   22.3435 C   0  0  0  0  0  0
  -22.7820  -13.5164   21.1942 C   0  0  0  0  0  0
  -22.1625   -4.2114   21.1011 F   0  0  0  0  0  0
  -21.5632   -3.4542   25.7775 F   0  0  0  0  0  0
  -29.9839  -13.5088   20.4187 N   0  0  0  0  0  0
  -26.2911  -12.9268   20.3204 N   0  0  0  0  0  0
  -25.9244  -11.6416   20.5608 N   0  0  0  0  0  0
  -22.0438  -12.8187   22.0482 N   0  0  0  0  0  0
  -25.4283  -15.1813   20.4346 N   0  0  0  0  0  0
  -31.8063  -14.7903   20.0895 O   0  0  0  0  0  0
  -21.6601   -6.8838   21.4274 O   0  0  0  0  0  0
  -22.3542  -14.5528   20.6814 O   0  0  0  0  0  0
  -24.6321  -31.8489   23.1976 C   0  0  0  0  0  0
  -25.9129  -32.4692   23.8348 C   0  0  1  0  0  0
  -27.2366  -27.2454   20.1288 C   0  0  0  0  0  0
  -25.5942  -33.8503   24.2229 N   0  0  0  0  0  0
  -23.4339  -30.4765   21.5310 C   0  0  2  0  0  0
  -24.8893  -28.9337   20.1004 C   0  0  0  0  0  0
  -22.7520  -29.4578   22.4780 C   0  0  0  0  0  0
  -18.0318  -28.1362   22.8555 C   0  0  0  0  0  0
  -24.1517  -36.7266   23.2625 C   0  0  0  0  0  0
  -25.9844  -30.7596   21.3936 C   0  0  0  0  0  0
  -26.0589  -29.3855   20.7273 C   0  0  0  0  0  0
  -27.2225  -28.5481   20.7445 C   0  0  0  0  0  0
  -26.0480  -26.8870   19.4468 C   0  0  0  0  0  0
  -24.8944  -27.6943   19.4470 C   0  0  0  0  0  0
  -23.6583  -29.8199   20.1427 C   0  0  0  0  0  0
  -25.4122  -36.3008   24.0317 C   0  0  1  0  0  0
  -20.5939  -28.3656   23.1241 C   0  0  2  0  0  0
  -20.6789  -26.9393   22.5368 C   0  0  0  0  0  0
  -19.5761  -26.6403   21.5202 C   0  0  0  0  0  0
  -18.1968  -26.7917   22.1654 C   0  0  0  0  0  0
  -19.1581  -28.8831   23.2920 C   0  0  0  0  0  0
  -18.9552  -30.1413   23.8963 C   0  0  0  0  0  0
  -17.6564  -30.6602   24.0573 C   0  0  0  0  0  0
  -25.9056  -34.9383   23.5072 C   0  0  0  0  0  0
  -16.5427  -29.9096   23.6381 C   0  0  0  0  0  0
  -16.7316  -28.6471   23.0466 C   0  0  0  0  0  0
  -26.4482  -31.6557   25.0773 C   0  0  0  0  0  0
  -25.3716  -31.3805   26.1517 C   0  0  0  0  0  0
  -27.0346  -30.2934   24.6400 C   0  0  0  0  0  0
  -27.6036  -32.4313   25.7526 C   0  0  0  0  0  0
  -27.5575  -37.1780   24.8443 C   0  0  0  0  0  0
  -21.4202  -29.3039   22.3612 N   0  0  0  0  0  0
  -26.4269  -37.3728   23.9408 N   0  0  0  0  0  0
  -24.7001  -31.0477   22.0925 N   0  0  0  0  0  0
  -23.4225  -28.8104   23.2856 O   0  0  0  0  0  0
  -28.3276  -26.3374   20.2255 O   0  0  0  0  0  0
  -26.5619  -34.8882   22.4627 O   0  0  0  0  0  0
  -23.5446  -32.1298   23.7216 O   0  0  0  0  0  0
  -30.0406  -19.8960   19.9671 C   0  0  0  0  0  0
  -29.6989  -18.6161   20.4123 C   0  0  0  0  0  0
  -27.9666  -20.0744   20.7160 C   0  0  0  0  0  0
  -29.7452  -22.2837   18.2250 C   0  0  0  0  0  0
  -25.6621  -20.1164   19.7924 C   0  0  0  0  0  0
  -26.2561  -21.8652   21.4996 C   0  0  0  0  0  0
  -26.0014  -19.5142   22.1969 C   0  0  0  0  0  0
  -29.3697  -16.0256   22.2142 C   0  0  0  0  0  0
  -30.5159  -17.2639   20.4382 C   0  0  0  0  0  0
  -28.9627  -23.5813   20.3238 C   0  0  0  0  0  0
  -28.2149  -24.9088   19.7331 C   0  0  0  0  0  0
  -28.8258  -22.2041   19.4635 C   0  0  2  0  0  0
  -26.5124  -20.4120   21.0397 C   0  0  0  0  0  0
  -28.9547  -20.7815   20.0884 N   0  0  0  0  0  0
  -28.4093  -18.7998   20.8363 N   0  3  0  0  0  0
  -29.9878  -15.8998   20.8863 N   0  0  0  0  0  0
  -31.4797  -12.5418   19.1847 H   0  0  0  0  0  0
  -30.3591  -11.4693   19.9351 H   0  0  0  0  0  0
  -29.8031  -11.7350   17.5149 H   0  0  0  0  0  0
  -29.6495  -13.4665   17.7179 H   0  0  0  0  0  0
  -27.9307  -11.2674   18.9135 H   0  0  0  0  0  0
  -27.3749  -12.4729   17.7895 H   0  0  0  0  0  0
  -27.6374  -14.2418   19.4672 H   0  0  0  0  0  0
  -28.7294  -12.0723   21.3215 H   0  0  0  0  0  0
  -28.3523  -13.6827   21.8240 H   0  0  0  0  0  0
  -25.2699   -9.5661   22.4641 H   0  0  0  0  0  0
  -23.9906   -7.4641   22.7533 H   0  0  0  0  0  0
  -21.0692   -8.8574   19.9032 H   0  0  0  0  0  0
  -22.3482  -10.9527   19.6066 H   0  0  0  0  0  0
  -21.1979   -7.6140   23.9703 H   0  0  0  0  0  0
  -21.1502   -6.0564   25.9108 H   0  0  0  0  0  0
  -22.0581   -2.7583   23.2909 H   0  0  0  0  0  0
  -22.3974  -11.9789   22.4835 H   0  0  0  0  0  0
  -21.1086  -13.1271   22.2766 H   0  0  0  0  0  0
  -24.6696  -15.8331   20.5907 H   0  0  0  0  0  0
  -26.2055  -15.5823   19.9269 H   0  0  0  0  0  0
  -26.7216  -32.5346   23.1117 H   0  0  0  0  0  0
  -25.0114  -33.9670   25.0383 H   0  0  0  0  0  0
  -22.7288  -31.2950   21.3811 H   0  0  0  0  0  0
  -23.3754  -35.9630   23.3257 H   0  0  0  0  0  0
  -24.3599  -36.8889   22.2042 H   0  0  0  0  0  0
  -23.7342  -37.6479   23.6675 H   0  0  0  0  0  0
  -26.1567  -31.5306   20.6394 H   0  0  0  0  0  0
  -26.8473  -30.7923   22.0468 H   0  0  0  0  0  0
  -28.1045  -28.8720   21.2807 H   0  0  0  0  0  0
  -25.9672  -25.9630   18.8970 H   0  0  0  0  0  0
  -24.0197  -27.3589   18.9122 H   0  0  0  0  0  0
  -23.7798  -30.5958   19.3837 H   0  0  0  0  0  0
  -22.7841  -29.2448   19.8348 H   0  0  0  0  0  0
  -25.1318  -36.1807   25.0815 H   0  0  0  0  0  0
  -21.0040  -28.3217   24.1362 H   0  0  0  0  0  0
  -20.5686  -26.2319   23.3607 H   0  0  0  0  0  0
  -21.6603  -26.7362   22.1079 H   0  0  0  0  0  0
  -19.6936  -25.6328   21.1204 H   0  0  0  0  0  0
  -19.6657  -27.3264   20.6794 H   0  0  0  0  0  0
  -17.4228  -26.6701   21.4071 H   0  0  0  0  0  0
  -18.0400  -25.9981   22.8977 H   0  0  0  0  0  0
  -19.8066  -30.7156   24.2384 H   0  0  0  0  0  0
  -17.5143  -31.6325   24.5106 H   0  0  0  0  0  0
  -15.5451  -30.3012   23.7756 H   0  0  0  0  0  0
  -15.8707  -28.0783   22.7244 H   0  0  0  0  0  0
  -24.5897  -30.7116   25.7902 H   0  0  0  0  0  0
  -24.8930  -32.3037   26.4809 H   0  0  0  0  0  0
  -25.8021  -30.9110   27.0371 H   0  0  0  0  0  0
  -26.3019  -29.6627   24.1373 H   0  0  0  0  0  0
  -27.3865  -29.7257   25.5017 H   0  0  0  0  0  0
  -27.8949  -30.4089   23.9813 H   0  0  0  0  0  0
  -27.2644  -33.3600   26.2124 H   0  0  0  0  0  0
  -28.3849  -32.6863   25.0359 H   0  0  0  0  0  0
  -28.0747  -31.8457   26.5432 H   0  0  0  0  0  0
  -28.2567  -38.0088   24.7448 H   0  0  0  0  0  0
  -28.1105  -36.2610   24.6305 H   0  0  0  0  0  0
  -27.2293  -37.1457   25.8843 H   0  0  0  0  0  0
  -20.9287  -29.8766   21.6878 H   0  0  0  0  0  0
  -26.0107  -38.2786   24.1377 H   0  0  0  0  0  0
  -30.9704  -20.2099   19.5034 H   0  0  0  0  0  0
  -29.5013  -23.1419   17.5986 H   0  0  0  0  0  0
  -29.6356  -21.3985   17.5935 H   0  0  0  0  0  0
  -30.7999  -22.3628   18.5011 H   0  0  0  0  0  0
  -26.0038  -20.6817   18.9239 H   0  0  0  0  0  0
  -24.6133  -20.3611   19.9667 H   0  0  0  0  0  0
  -25.7166  -19.0598   19.5317 H   0  0  0  0  0  0
  -25.1967  -22.0344   21.6911 H   0  0  0  0  0  0
  -26.5283  -22.5988   20.7538 H   0  0  0  0  0  0
  -26.7598  -22.1008   22.4374 H   0  0  0  0  0  0
  -25.9096  -18.4698   21.9021 H   0  0  0  0  0  0
  -25.0057  -19.8264   22.5269 H   0  0  0  0  0  0
  -26.6620  -19.5622   23.0700 H   0  0  0  0  0  0
  -28.3044  -16.2207   22.1146 H   0  0  0  0  0  0
  -29.8096  -16.8535   22.7782 H   0  0  0  0  0  0
  -29.5037  -15.1463   22.8442 H   0  0  0  0  0  0
  -31.3743  -17.4580   21.0800 H   0  0  0  0  0  0
  -30.9689  -17.1560   19.4555 H   0  0  0  0  0  0
  -28.6110  -23.3791   21.3363 H   0  0  0  0  0  0
  -30.0230  -23.7941   20.4550 H   0  0  0  0  0  0
  -27.1774  -24.5988   19.7821 H   0  0  0  0  0  0
  -28.4672  -24.9740   18.6762 H   0  0  0  0  0  0
  -27.8250  -22.1997   19.0320 H   0  0  0  0  0  0
  -27.8157  -18.0493   21.1722 H   0  0  0  0  0  0
  1 25  1  0  0  0
  1 30  2  0  0  0
  1 86  1  0  0  0
  2  3  1  0  0  0
  2 25  1  0  0  0
  2 87  1  0  0  0
  2 88  1  0  0  0
  3  4  1  0  0  0
  3 89  1  0  0  0
  3 90  1  0  0  0
  4  5  1  0  0  0
  4 91  1  0  0  0
  4 92  1  0  0  0
  5  6  1  0  0  0
  5 26  1  0  0  0
  5 93  1  0  0  0
  6 25  1  0  0  0
  6 94  1  0  0  0
  6 95  1  0  0  0
  7  8  2  0  0  0
  7 26  1  0  0  0
  7 29  1  0  0  0
  8  9  1  0  0  0
  8 22  1  0  0  0
  9 10  1  0  0  0
  9 27  2  0  0  0
 10 11  2  0  0  0
 10 15  1  0  0  0
 11 12  1  0  0  0
 11 96  1  0  0  0
 12 13  2  0  0  0
 12 97  1  0  0  0
 13 14  1  0  0  0
 13 31  1  0  0  0
 14 15  2  0  0  0
 14 98  1  0  0  0
 15 99  1  0  0  0
 16 17  2  0  0  0
 16 21  1  0  0  0
 16 31  1  0  0  0
 17 18  1  0  0  0
 17100  1  0  0  0
 18 19  2  0  0  0
 18101  1  0  0  0
 19 20  1  0  0  0
 19 24  1  0  0  0
 20 21  2  0  0  0
 20102  1  0  0  0
 21 23  1  0  0  0
 22 28  1  0  0  0
 22 32  2  0  0  0
 26 27  1  0  0  0
 28103  1  0  0  0
 28104  1  0  0  0
 29105  1  0  0  0
 29106  1  0  0  0
 33 34  1  0  0  0
 33 66  1  0  0  0
 33 70  2  0  0  0
 34 36  1  0  0  0
 34 59  1  0  0  0
 34107  1  0  0  0
 35 44  2  0  0  0
 35 45  1  0  0  0
 35 68  1  0  0  0
 36 56  1  0  0  0
 36108  1  0  0  0
 37 39  1  0  0  0
 37 47  1  0  0  0
 37 66  1  0  0  0
 37109  1  0  0  0
 38 43  2  0  0  0
 38 46  1  0  0  0
 38 47  1  0  0  0
 39 64  1  0  0  0
 39 67  2  0  0  0
 40 52  1  0  0  0
 40 53  2  0  0  0
 40 58  1  0  0  0
 41110  1  0  0  0
 41111  1  0  0  0
 41112  1  0  0  0
 41 48  1  0  0  0
 42 43  1  0  0  0
 42 66  1  0  0  0
 42113  1  0  0  0
 42114  1  0  0  0
 43 44  1  0  0  0
 44115  1  0  0  0
 45 46  2  0  0  0
 45116  1  0  0  0
 46117  1  0  0  0
 47118  1  0  0  0
 47119  1  0  0  0
 48 56  1  0  0  0
 48 65  1  0  0  0
 48120  1  0  0  0
 49 50  1  0  0  0
 49 53  1  0  0  0
 49 64  1  0  0  0
 49121  1  0  0  0
 50 51  1  0  0  0
 50122  1  0  0  0
 50123  1  0  0  0
 51 52  1  0  0  0
 51124  1  0  0  0
 51125  1  0  0  0
 52126  1  0  0  0
 52127  1  0  0  0
 53 54  1  0  0  0
 54 55  2  0  0  0
 54128  1  0  0  0
 55 57  1  0  0  0
 55129  1  0  0  0
 56 69  2  0  0  0
 57 58  2  0  0  0
 57130  1  0  0  0
 58131  1  0  0  0
 59 60  1  0  0  0
 59 61  1  0  0  0
 59 62  1  0  0  0
 60132  1  0  0  0
 60133  1  0  0  0
 60134  1  0  0  0
 61135  1  0  0  0
 61136  1  0  0  0
 61137  1  0  0  0
 62138  1  0  0  0
 62139  1  0  0  0
 62140  1  0  0  0
 63 65  1  0  0  0
 63141  1  0  0  0
 63142  1  0  0  0
 63143  1  0  0  0
 64144  1  0  0  0
 65145  1  0  0  0
 68 81  1  0  0  0
 71 72  2  0  0  0
 71 84  1  0  0  0
 71146  1  0  0  0
 72 79  1  0  0  0
 72 85  1  0  0  0
 73 83  1  0  0  0
 73 84  1  0  0  0
 73 85  2  0  0  0
 74147  1  0  0  0
 74148  1  0  0  0
 74149  1  0  0  0
 74 82  1  0  0  0
 75150  1  0  0  0
 75151  1  0  0  0
 75152  1  0  0  0
 75 83  1  0  0  0
 76 83  1  0  0  0
 76153  1  0  0  0
 76154  1  0  0  0
 76155  1  0  0  0
 77 83  1  0  0  0
 77156  1  0  0  0
 77157  1  0  0  0
 77158  1  0  0  0
 78 86  1  0  0  0
 78159  1  0  0  0
 78160  1  0  0  0
 78161  1  0  0  0
 79 86  1  0  0  0
 79162  1  0  0  0
 79163  1  0  0  0
 80 81  1  0  0  0
 80 82  1  0  0  0
 80164  1  0  0  0
 80165  1  0  0  0
 81166  1  0  0  0
 81167  1  0  0  0
 82 84  1  0  0  0
 82168  1  0  0  0
 85169  1  0  0  0
M  CHG  1  85   1
M  ISO  4   1 100  68 101  81 101  86 100
M  END
> <chiral flag>
0

> <version>
0

> <s_m_source_file>
/data/baiqing/PycharmProjects/Reinvent-master-3.2/result/LINK_invent/BTK/process_docking_weight1_custom_sum_contain_oxygen_bond_distance_aromatic_linkinvent_7_9_3/rearranged_h_0061.sdf

> <i_m_source_file_index>
87

> <r_mmod_Potential_Energy-OPLS-2005>
307.984527587891

> <r_mmod_Stretch_Energy-OPLS-2005>
139.83967590332

> <r_mmod_Bend_Energy-OPLS-2005>
222.925338745117

> <r_mmod_Torsional_Energy-OPLS-2005>
298.304168701172

> <r_mmod_Improper_Torsional_Energy-OPLS-2005>
11.9321937561035

> <r_mmod_Van_der_Waal_Energy-OPLS-2005>
130.791366577148

> <r_mmod_Electrostatic_Energy-OPLS-2005>
-187.661590576172

> <r_mmod_Solvation_Energy-OPLS-2005>
-390.628662109375

> <b_mmod_Minimization_Converged-OPLS-2005>
0

> <r_mmod_RMS_Derivative-OPLS-2005>
7.94291734695435

$$$$
92
                    3D
 Structure written by MMmdl.
153161  0  0  1  0            999 V2000
  -30.5652  -14.9014   20.4544 C   0  0  0  0  0  0
  -30.4370  -12.5611   19.5003 C   0  0  0  0  0  0
  -29.5193  -12.5357   18.2564 C   0  0  0  0  0  0
  -28.0498  -12.3322   18.6687 C   0  0  0  0  0  0
  -27.6344  -13.2486   19.8490 C   0  0  2  0  0  0
  -28.6762  -13.2482   20.9881 C   0  0  0  0  0  0
  -25.2474  -13.8221   20.5717 C   0  0  0  0  0  0
  -24.1783  -13.0436   20.9229 C   0  0  0  0  0  0
  -24.6403  -11.6926   20.8759 C   0  0  0  0  0  0
  -23.9082  -10.4298   21.0419 C   0  0  0  0  0  0
  -24.3632   -9.4209   21.9197 C   0  0  0  0  0  0
  -23.6308   -8.2244   22.0765 C   0  0  0  0  0  0
  -22.4289   -8.0285   21.3549 C   0  0  0  0  0  0
  -21.9932   -9.0258   20.4650 C   0  0  0  0  0  0
  -22.7260  -10.2138   20.3063 C   0  0  0  0  0  0
  -21.6855   -6.0739   22.5283 C   0  0  0  0  0  0
  -21.4015   -6.5643   23.8212 C   0  0  0  0  0  0
  -21.3659   -5.6795   24.9179 C   0  0  0  0  0  0
  -21.6045   -4.3063   24.7225 C   0  0  0  0  0  0
  -21.8821   -3.8150   23.4348 C   0  0  0  0  0  0
  -21.9194   -4.6965   22.3405 C   0  0  0  0  0  0
  -22.7803  -13.5204   21.1882 C   0  0  0  0  0  0
  -22.1662   -4.2153   21.0983 F   0  0  0  0  0  0
  -21.5633   -3.4546   25.7738 F   0  0  0  0  0  0
  -29.9603  -13.6493   20.4000 N   0  0  0  0  0  0
  -26.2906  -12.9453   20.3294 N   0  0  0  0  0  0
  -25.9337  -11.6574   20.5755 N   0  0  0  0  0  0
  -22.0455  -12.8178   22.0430 N   0  0  0  0  0  0
  -25.4140  -15.1947   20.4119 N   0  0  0  0  0  0
  -31.7546  -14.9727   20.1342 O   0  0  0  0  0  0
  -21.6643   -6.8886   21.4245 O   0  0  0  0  0  0
  -22.3476  -14.5504   20.6730 O   0  0  0  0  0  0
  -24.6399  -31.8446   23.1913 C   0  0  0  0  0  0
  -25.9181  -32.4694   23.8288 C   0  0  1  0  0  0
  -27.2166  -27.1551   20.1681 C   0  0  0  0  0  0
  -25.5934  -33.8504   24.2201 N   0  0  0  0  0  0
  -23.4450  -30.4635   21.5349 C   0  0  2  0  0  0
  -24.9012  -28.8974   20.1095 C   0  0  0  0  0  0
  -22.7561  -29.4542   22.4868 C   0  0  0  0  0  0
  -18.0311  -28.1391   22.8478 C   0  0  0  0  0  0
  -24.1509  -36.7260   23.2648 C   0  0  0  0  0  0
  -26.0005  -30.7235   21.3946 C   0  0  0  0  0  0
  -26.0739  -29.3362   20.7402 C   0  0  0  0  0  0
  -27.2351  -28.4782   20.7598 C   0  0  0  0  0  0
  -26.0364  -26.8302   19.4662 C   0  0  0  0  0  0
  -24.8944  -27.6567   19.4550 C   0  0  0  0  0  0
  -23.6734  -29.7912   20.1541 C   0  0  0  0  0  0
  -25.4136  -36.3030   24.0320 C   0  0  1  0  0  0
  -20.5913  -28.3722   23.1235 C   0  0  2  0  0  0
  -20.6790  -26.9428   22.5399 C   0  0  0  0  0  0
  -19.5768  -26.6386   21.5198 C   0  0  0  0  0  0
  -18.1950  -26.7932   22.1617 C   0  0  0  0  0  0
  -19.1561  -28.8875   23.2845 C   0  0  0  0  0  0
  -18.9476  -30.1465   23.8878 C   0  0  0  0  0  0
  -17.6472  -30.6581   24.0548 C   0  0  0  0  0  0
  -25.9072  -34.9403   23.5071 C   0  0  0  0  0  0
  -16.5362  -29.9068   23.6333 C   0  0  0  0  0  0
  -16.7292  -28.6487   23.0363 C   0  0  0  0  0  0
  -26.4523  -31.6547   25.0714 C   0  0  0  0  0  0
  -25.3710  -31.3701   26.1405 C   0  0  0  0  0  0
  -27.0399  -30.2952   24.6272 C   0  0  0  0  0  0
  -27.6069  -32.4302   25.7482 C   0  0  0  0  0  0
  -27.5586  -37.1787   24.8466 C   0  0  0  0  0  0
  -21.4254  -29.3043   22.3606 N   0  0  0  0  0  0
  -26.4306  -37.3731   23.9399 N   0  0  0  0  0  0
  -24.7136  -31.0322   22.0941 N   0  0  0  0  0  0
  -23.4214  -28.8098   23.3018 O   0  0  0  0  0  0
  -28.2403  -26.1443   20.2095 O   0  0  0  0  0  0
  -26.5655  -34.8885   22.4649 O   0  0  0  0  0  0
  -23.5525  -32.1316   23.7145 O   0  0  0  0  0  0
  -28.5755  -22.5384   19.4427 C   0  0  0  0  0  0
  -28.6293  -23.2930   20.6576 C   0  0  0  0  0  0
  -29.1282  -20.4508   20.4980 C   0  0  0  0  0  0
  -26.5937  -24.6350   21.5085 C   0  0  0  0  0  0
  -28.9995  -18.8005   20.4845 C   0  0  0  0  0  0
  -28.0339  -24.8070   20.9806 C   0  0  2  0  0  0
  -30.1713  -17.6131   20.6426 C   0  0  1  0  0  0
  -31.0338  -17.9446   21.8803 C   0  0  0  0  0  0
  -28.8269  -21.1650   19.3762 N   0  0  0  0  0  0
  -28.9853  -22.5012   21.7357 N   0  0  0  0  0  0
  -29.2099  -21.1411   21.6695 N   0  0  0  0  0  0
  -29.8001  -16.0720   20.6624 N   0  0  0  0  0  0
  -31.5570  -19.1639   21.7688 F   0  0  0  0  0  0
  -30.2798  -17.8936   22.9780 F   0  0  0  0  0  0
  -32.0440  -17.0897   22.0279 F   0  0  0  0  0  0
  -31.4730  -12.7092   19.1911 H   0  0  0  0  0  0
  -30.4165  -11.5999   20.0170 H   0  0  0  0  0  0
  -29.8294  -11.7458   17.5710 H   0  0  0  0  0  0
  -29.6195  -13.4729   17.7070 H   0  0  0  0  0  0
  -27.9289  -11.2873   18.9549 H   0  0  0  0  0  0
  -27.3919  -12.4943   17.8145 H   0  0  0  0  0  0
  -27.6056  -14.2582   19.4382 H   0  0  0  0  0  0
  -28.7481  -12.2640   21.4536 H   0  0  0  0  0  0
  -28.3812  -13.9412   21.7776 H   0  0  0  0  0  0
  -25.2783   -9.5672   22.4765 H   0  0  0  0  0  0
  -24.0017   -7.4627   22.7478 H   0  0  0  0  0  0
  -21.0871   -8.8777   19.8948 H   0  0  0  0  0  0
  -22.3734  -10.9676   19.6163 H   0  0  0  0  0  0
  -21.2003   -7.6153   23.9712 H   0  0  0  0  0  0
  -21.1482   -6.0536   25.9082 H   0  0  0  0  0  0
  -22.0598   -2.7613   23.2849 H   0  0  0  0  0  0
  -22.4083  -11.9846   22.4818 H   0  0  0  0  0  0
  -21.1066  -13.1181   22.2622 H   0  0  0  0  0  0
  -24.6419  -15.8446   20.5124 H   0  0  0  0  0  0
  -26.2487  -15.6313   20.0438 H   0  0  0  0  0  0
  -26.7252  -32.5313   23.1024 H   0  0  0  0  0  0
  -25.0062  -33.9632   25.0333 H   0  0  0  0  0  0
  -22.7470  -31.2888   21.3803 H   0  0  0  0  0  0
  -23.3762  -35.9600   23.3299 H   0  0  0  0  0  0
  -24.3602  -36.8897   22.2064 H   0  0  0  0  0  0
  -23.7280  -37.6462   23.6690 H   0  0  0  0  0  0
  -26.1593  -31.4741   20.6193 H   0  0  0  0  0  0
  -26.8703  -30.7723   22.0379 H   0  0  0  0  0  0
  -28.1245  -28.8025   21.2821 H   0  0  0  0  0  0
  -25.9784  -25.8797   18.9546 H   0  0  0  0  0  0
  -24.0058  -27.3244   18.9366 H   0  0  0  0  0  0
  -23.7983  -30.5620   19.3924 H   0  0  0  0  0  0
  -22.7930  -29.2213   19.8505 H   0  0  0  0  0  0
  -25.1325  -36.1861   25.0813 H   0  0  0  0  0  0
  -20.9995  -28.3319   24.1358 H   0  0  0  0  0  0
  -20.5686  -26.2339   23.3626 H   0  0  0  0  0  0
  -21.6666  -26.7446   22.1203 H   0  0  0  0  0  0
  -19.6936  -25.6285   21.1257 H   0  0  0  0  0  0
  -19.6705  -27.3174   20.6706 H   0  0  0  0  0  0
  -17.4223  -26.6670   21.4015 H   0  0  0  0  0  0
  -18.0354  -26.0069   22.9011 H   0  0  0  0  0  0
  -19.7951  -30.7263   24.2276 H   0  0  0  0  0  0
  -17.5027  -31.6268   24.5131 H   0  0  0  0  0  0
  -15.5358  -30.2957   23.7675 H   0  0  0  0  0  0
  -15.8698  -28.0777   22.7120 H   0  0  0  0  0  0
  -24.5923  -30.7017   25.7715 H   0  0  0  0  0  0
  -24.8851  -32.2856   26.4782 H   0  0  0  0  0  0
  -25.7992  -30.8913   27.0217 H   0  0  0  0  0  0
  -26.3012  -29.6659   24.1293 H   0  0  0  0  0  0
  -27.4053  -29.7254   25.4828 H   0  0  0  0  0  0
  -27.8903  -30.4220   23.9568 H   0  0  0  0  0  0
  -27.2699  -33.3642   26.1991 H   0  0  0  0  0  0
  -28.3900  -32.6788   25.0305 H   0  0  0  0  0  0
  -28.0705  -31.8455   26.5442 H   0  0  0  0  0  0
  -28.2585  -38.0098   24.7503 H   0  0  0  0  0  0
  -28.1098  -36.2623   24.6304 H   0  0  0  0  0  0
  -27.2294  -37.1432   25.8865 H   0  0  0  0  0  0
  -20.9481  -29.8737   21.6757 H   0  0  0  0  0  0
  -26.0169  -38.2808   24.1356 H   0  0  0  0  0  0
  -28.2552  -23.0159   18.5286 H   0  0  0  0  0  0
  -26.2070  -25.5458   21.9665 H   0  0  0  0  0  0
  -26.5575  -23.8710   22.2849 H   0  0  0  0  0  0
  -25.9115  -24.3207   20.7201 H   0  0  0  0  0  0
  -28.4804  -18.5741   19.5549 H   0  0  0  0  0  0
  -28.2582  -18.5893   21.2552 H   0  0  0  0  0  0
  -28.5994  -25.0553   21.8802 H   0  0  0  0  0  0
  -30.8241  -17.7283   19.7763 H   0  0  0  0  0  0
  -28.8370  -15.8881   20.8943 H   0  0  0  0  0  0
  1 25  1  0  0  0
  1 30  2  0  0  0
  1 82  1  0  0  0
  2  3  1  0  0  0
  2 25  1  0  0  0
  2 86  1  0  0  0
  2 87  1  0  0  0
  3  4  1  0  0  0
  3 88  1  0  0  0
  3 89  1  0  0  0
  4  5  1  0  0  0
  4 90  1  0  0  0
  4 91  1  0  0  0
  5  6  1  0  0  0
  5 26  1  0  0  0
  5 92  1  0  0  0
  6 25  1  0  0  0
  6 93  1  0  0  0
  6 94  1  0  0  0
  7  8  2  0  0  0
  7 26  1  0  0  0
  7 29  1  0  0  0
  8  9  1  0  0  0
  8 22  1  0  0  0
  9 10  1  0  0  0
  9 27  2  0  0  0
 10 11  2  0  0  0
 10 15  1  0  0  0
 11 12  1  0  0  0
 11 95  1  0  0  0
 12 13  2  0  0  0
 12 96  1  0  0  0
 13 14  1  0  0  0
 13 31  1  0  0  0
 14 15  2  0  0  0
 14 97  1  0  0  0
 15 98  1  0  0  0
 16 17  2  0  0  0
 16 21  1  0  0  0
 16 31  1  0  0  0
 17 18  1  0  0  0
 17 99  1  0  0  0
 18 19  2  0  0  0
 18100  1  0  0  0
 19 20  1  0  0  0
 19 24  1  0  0  0
 20 21  2  0  0  0
 20101  1  0  0  0
 21 23  1  0  0  0
 22 28  1  0  0  0
 22 32  2  0  0  0
 26 27  1  0  0  0
 28102  1  0  0  0
 28103  1  0  0  0
 29104  1  0  0  0
 29105  1  0  0  0
 33 34  1  0  0  0
 33 66  1  0  0  0
 33 70  2  0  0  0
 34 36  1  0  0  0
 34 59  1  0  0  0
 34106  1  0  0  0
 35 44  2  0  0  0
 35 45  1  0  0  0
 35 68  1  0  0  0
 36 56  1  0  0  0
 36107  1  0  0  0
 37 39  1  0  0  0
 37 47  1  0  0  0
 37 66  1  0  0  0
 37108  1  0  0  0
 38 43  2  0  0  0
 38 46  1  0  0  0
 38 47  1  0  0  0
 39 64  1  0  0  0
 39 67  2  0  0  0
 40 52  1  0  0  0
 40 53  2  0  0  0
 40 58  1  0  0  0
 41109  1  0  0  0
 41110  1  0  0  0
 41111  1  0  0  0
 41 48  1  0  0  0
 42 43  1  0  0  0
 42 66  1  0  0  0
 42112  1  0  0  0
 42113  1  0  0  0
 43 44  1  0  0  0
 44114  1  0  0  0
 45 46  2  0  0  0
 45115  1  0  0  0
 46116  1  0  0  0
 47117  1  0  0  0
 47118  1  0  0  0
 48 56  1  0  0  0
 48 65  1  0  0  0
 48119  1  0  0  0
 49 50  1  0  0  0
 49 53  1  0  0  0
 49 64  1  0  0  0
 49120  1  0  0  0
 50 51  1  0  0  0
 50121  1  0  0  0
 50122  1  0  0  0
 51 52  1  0  0  0
 51123  1  0  0  0
 51124  1  0  0  0
 52125  1  0  0  0
 52126  1  0  0  0
 53 54  1  0  0  0
 54 55  2  0  0  0
 54127  1  0  0  0
 55 57  1  0  0  0
 55128  1  0  0  0
 56 69  2  0  0  0
 57 58  2  0  0  0
 57129  1  0  0  0
 58130  1  0  0  0
 59 60  1  0  0  0
 59 61  1  0  0  0
 59 62  1  0  0  0
 60131  1  0  0  0
 60132  1  0  0  0
 60133  1  0  0  0
 61134  1  0  0  0
 61135  1  0  0  0
 61136  1  0  0  0
 62137  1  0  0  0
 62138  1  0  0  0
 62139  1  0  0  0
 63 65  1  0  0  0
 63140  1  0  0  0
 63141  1  0  0  0
 63142  1  0  0  0
 64143  1  0  0  0
 65144  1  0  0  0
 68 76  1  0  0  0
 71 72  2  0  0  0
 71 79  1  0  0  0
 71145  1  0  0  0
 72 76  1  0  0  0
 72 80  1  0  0  0
 73 75  1  0  0  0
 73 79  2  0  0  0
 73 81  1  0  0  0
 74146  1  0  0  0
 74147  1  0  0  0
 74148  1  0  0  0
 74 76  1  0  0  0
 75149  1  0  0  0
 75150  1  0  0  0
 75 77  1  0  0  0
 76151  1  0  0  0
 77 78  1  0  0  0
 77 82  1  0  0  0
 77152  1  0  0  0
 78 83  1  0  0  0
 78 84  1  0  0  0
 78 85  1  0  0  0
 80 81  2  0  0  0
 82153  1  0  0  0
M  ISO  4   1 100  68 101  76 101  82 100
M  END
> <chiral flag>
0

> <version>
0

> <s_m_source_file>
/data/baiqing/PycharmProjects/Reinvent-master-3.2/result/LINK_invent/BTK/process_docking_weight1_custom_sum_contain_oxygen_bond_distance_aromatic_linkinvent_7_9_3/rearranged_h_0061.sdf

> <i_m_source_file_index>
88

> <r_mmod_Potential_Energy-OPLS-2005>
342.877746582031

> <r_mmod_Stretch_Energy-OPLS-2005>
234.691787719727

> <r_mmod_Bend_Energy-OPLS-2005>
274.770538330078

> <r_mmod_Torsional_Energy-OPLS-2005>
233.883087158203

> <r_mmod_Improper_Torsional_Energy-OPLS-2005>
8.53936100006104

> <r_mmod_Van_der_Waal_Energy-OPLS-2005>
141.51042175293

> <r_mmod_Electrostatic_Energy-OPLS-2005>
-481.152709960938

> <r_mmod_Solvation_Energy-OPLS-2005>
-240.568557739258

> <b_mmod_Minimization_Converged-OPLS-2005>
0

> <r_mmod_RMS_Derivative-OPLS-2005>
1.6829047203064

$$$$
93
                    3D
 Structure written by MMmdl.
157165  0  0  1  0            999 V2000
  -30.3553  -15.2558   20.4605 C   0  0  0  0  0  0
  -30.4415  -12.8285   19.4881 C   0  0  0  0  0  0
  -29.5186  -12.6376   18.2519 C   0  0  0  0  0  0
  -28.0600  -12.3378   18.6584 C   0  0  0  0  0  0
  -27.6153  -13.2337   19.8354 C   0  0  2  0  0  0
  -28.6701  -13.2632   20.9718 C   0  0  0  0  0  0
  -25.2238  -13.8097   20.5522 C   0  0  0  0  0  0
  -24.1646  -13.0318   20.9197 C   0  0  0  0  0  0
  -24.6355  -11.6842   20.8784 C   0  0  0  0  0  0
  -23.9064  -10.4240   21.0447 C   0  0  0  0  0  0
  -24.3626   -9.4165   21.9228 C   0  0  0  0  0  0
  -23.6296   -8.2204   22.0765 C   0  0  0  0  0  0
  -22.4268   -8.0274   21.3561 C   0  0  0  0  0  0
  -21.9922   -9.0232   20.4648 C   0  0  0  0  0  0
  -22.7249  -10.2103   20.3070 C   0  0  0  0  0  0
  -21.6838   -6.0754   22.5296 C   0  0  0  0  0  0
  -21.4010   -6.5660   23.8236 C   0  0  0  0  0  0
  -21.3656   -5.6804   24.9187 C   0  0  0  0  0  0
  -21.6040   -4.3063   24.7225 C   0  0  0  0  0  0
  -21.8807   -3.8169   23.4343 C   0  0  0  0  0  0
  -21.9184   -4.6993   22.3406 C   0  0  0  0  0  0
  -22.7688  -13.5112   21.1875 C   0  0  0  0  0  0
  -22.1663   -4.2192   21.0977 F   0  0  0  0  0  0
  -21.5614   -3.4536   25.7729 F   0  0  0  0  0  0
  -29.8641  -13.9054   20.3854 N   0  0  0  0  0  0
  -26.2753  -12.9358   20.3182 N   0  0  0  0  0  0
  -25.9284  -11.6510   20.5789 N   0  0  0  0  0  0
  -22.0345  -12.8136   22.0460 N   0  0  0  0  0  0
  -25.3504  -15.1825   20.3720 N   0  0  0  0  0  0
  -31.5533  -15.3176   20.1254 O   0  0  0  0  0  0
  -21.6613   -6.8886   21.4258 O   0  0  0  0  0  0
  -22.3390  -14.5435   20.6746 O   0  0  0  0  0  0
  -24.6557  -31.8289   23.1753 C   0  0  0  0  0  0
  -25.9261  -32.4630   23.8175 C   0  0  1  0  0  0
  -27.2086  -26.9555   20.1914 C   0  0  0  0  0  0
  -25.5965  -33.8433   24.2095 N   0  0  0  0  0  0
  -23.4667  -30.4424   21.5246 C   0  0  2  0  0  0
  -24.9149  -28.8250   20.1212 C   0  0  0  0  0  0
  -22.7630  -29.4504   22.4851 C   0  0  0  0  0  0
  -18.0324  -28.1420   22.8531 C   0  0  0  0  0  0
  -24.1487  -36.7217   23.2640 C   0  0  0  0  0  0
  -26.0317  -30.6426   21.3986 C   0  0  0  0  0  0
  -26.0961  -29.2324   20.7499 C   0  0  0  0  0  0
  -27.2357  -28.3160   20.7600 C   0  0  0  0  0  0
  -26.0029  -26.6876   19.5103 C   0  0  0  0  0  0
  -24.8919  -27.5728   19.4816 C   0  0  0  0  0  0
  -23.7015  -29.7526   20.1514 C   0  0  0  0  0  0
  -25.4134  -36.3011   24.0310 C   0  0  1  0  0  0
  -20.5946  -28.3754   23.1252 C   0  0  2  0  0  0
  -20.6776  -26.9448   22.5432 C   0  0  0  0  0  0
  -19.5744  -26.6413   21.5244 C   0  0  0  0  0  0
  -18.1938  -26.7977   22.1663 C   0  0  0  0  0  0
  -19.1583  -28.8927   23.2873 C   0  0  0  0  0  0
  -18.9480  -30.1511   23.8923 C   0  0  0  0  0  0
  -17.6461  -30.6619   24.0575 C   0  0  0  0  0  0
  -25.9094  -34.9375   23.5048 C   0  0  0  0  0  0
  -16.5364  -29.9097   23.6334 C   0  0  0  0  0  0
  -16.7298  -28.6497   23.0418 C   0  0  0  0  0  0
  -26.4537  -31.6586   25.0701 C   0  0  0  0  0  0
  -25.3674  -31.3817   26.1378 C   0  0  0  0  0  0
  -27.0422  -30.2964   24.6404 C   0  0  0  0  0  0
  -27.6055  -32.4369   25.7510 C   0  0  0  0  0  0
  -27.5593  -37.1781   24.8459 C   0  0  0  0  0  0
  -21.4325  -29.3036   22.3588 N   0  0  0  0  0  0
  -26.4288  -37.3737   23.9416 N   0  0  0  0  0  0
  -24.7393  -30.9976   22.0859 N   0  0  0  0  0  0
  -23.4201  -28.8102   23.3112 O   0  0  0  0  0  0
  -28.2869  -25.9362   20.2098 O   0  0  0  0  0  0
  -26.5680  -34.8902   22.4637 O   0  0  0  0  0  0
  -23.5650  -32.1239   23.6882 O   0  0  0  0  0  0
  -27.6515  -22.0366   20.2007 C   0  0  0  0  0  0
  -28.9154  -21.3277   20.4783 C   0  0  0  0  0  0
  -29.6636  -23.7074   20.5294 C   0  0  0  0  0  0
  -28.4067  -24.4091   20.2806 C   0  0  0  0  0  0
  -30.8915  -24.5609   20.7340 C   0  0  0  0  0  0
  -27.8991  -19.4755   21.9085 C   0  0  0  0  0  0
  -30.2857  -19.7624   22.0751 C   0  0  0  0  0  0
  -28.2885  -16.2965   21.4102 C   0  0  0  0  0  0
  -29.5606  -18.1169   20.1995 C   0  0  0  0  0  0
  -29.1514  -19.6730   21.0296 C   0  0  0  0  0  0
  -27.4074  -23.4495   20.1009 N   0  0  0  0  0  0
  -29.8973  -22.3054   20.6204 N   0  0  0  0  0  0
  -29.5379  -16.5009   20.6776 N   0  0  0  0  0  0
  -31.4399  -13.0956   19.1420 H   0  0  0  0  0  0
  -30.5737  -11.8838   20.0164 H   0  0  0  0  0  0
  -29.8942  -11.8513   17.5967 H   0  0  0  0  0  0
  -29.5430  -13.5544   17.6580 H   0  0  0  0  0  0
  -27.9752  -11.2863   18.9283 H   0  0  0  0  0  0
  -27.3950  -12.4935   17.8062 H   0  0  0  0  0  0
  -27.5527  -14.2122   19.3617 H   0  0  0  0  0  0
  -28.8823  -12.2493   21.3180 H   0  0  0  0  0  0
  -28.3167  -13.7575   21.8755 H   0  0  0  0  0  0
  -25.2761   -9.5648   22.4820 H   0  0  0  0  0  0
  -24.0001   -7.4589   22.7480 H   0  0  0  0  0  0
  -21.0858   -8.8767   19.8937 H   0  0  0  0  0  0
  -22.3741  -10.9658   19.6182 H   0  0  0  0  0  0
  -21.2011   -7.6170   23.9760 H   0  0  0  0  0  0
  -21.1490   -6.0526   25.9099 H   0  0  0  0  0  0
  -22.0587   -2.7636   23.2821 H   0  0  0  0  0  0
  -22.3933  -11.9776   22.4836 H   0  0  0  0  0  0
  -21.0978  -13.1195   22.2654 H   0  0  0  0  0  0
  -24.5673  -15.8133   20.5049 H   0  0  0  0  0  0
  -26.1988  -15.6566   20.0996 H   0  0  0  0  0  0
  -26.7333  -32.5217   23.0878 H   0  0  0  0  0  0
  -25.0065  -33.9533   25.0225 H   0  0  0  0  0  0
  -22.7715  -31.2692   21.3565 H   0  0  0  0  0  0
  -23.3762  -35.9547   23.3362 H   0  0  0  0  0  0
  -24.3497  -36.8763   22.2032 H   0  0  0  0  0  0
  -23.7248  -37.6444   23.6616 H   0  0  0  0  0  0
  -26.2058  -31.3861   20.6204 H   0  0  0  0  0  0
  -26.8905  -30.7005   22.0556 H   0  0  0  0  0  0
  -28.1400  -28.6392   21.2572 H   0  0  0  0  0  0
  -25.8899  -25.7347   19.0129 H   0  0  0  0  0  0
  -23.9966  -27.2657   18.9605 H   0  0  0  0  0  0
  -23.8530  -30.5149   19.3867 H   0  0  0  0  0  0
  -22.8091  -29.2052   19.8428 H   0  0  0  0  0  0
  -25.1318  -36.1829   25.0795 H   0  0  0  0  0  0
  -21.0031  -28.3374   24.1375 H   0  0  0  0  0  0
  -20.5696  -26.2362   23.3653 H   0  0  0  0  0  0
  -21.6639  -26.7423   22.1232 H   0  0  0  0  0  0
  -19.6851  -25.6314   21.1300 H   0  0  0  0  0  0
  -19.6681  -27.3214   20.6762 H   0  0  0  0  0  0
  -17.4198  -26.6778   21.4075 H   0  0  0  0  0  0
  -18.0302  -26.0105   22.9031 H   0  0  0  0  0  0
  -19.7942  -30.7340   24.2321 H   0  0  0  0  0  0
  -17.4993  -31.6322   24.5154 H   0  0  0  0  0  0
  -15.5361  -30.2985   23.7656 H   0  0  0  0  0  0
  -15.8692  -28.0765   22.7177 H   0  0  0  0  0  0
  -24.5857  -30.7145   25.7723 H   0  0  0  0  0  0
  -24.8859  -32.3014   26.4723 H   0  0  0  0  0  0
  -25.7929  -30.9061   27.0224 H   0  0  0  0  0  0
  -26.3074  -29.6703   24.1351 H   0  0  0  0  0  0
  -27.3887  -29.7269   25.5038 H   0  0  0  0  0  0
  -27.9029  -30.4161   23.9825 H   0  0  0  0  0  0
  -27.2591  -33.3595   26.2184 H   0  0  0  0  0  0
  -28.3832  -32.7091   25.0356 H   0  0  0  0  0  0
  -28.0789  -31.8466   26.5364 H   0  0  0  0  0  0
  -28.2626  -38.0076   24.7534 H   0  0  0  0  0  0
  -28.1086  -36.2619   24.6257 H   0  0  0  0  0  0
  -27.2294  -37.1368   25.8853 H   0  0  0  0  0  0
  -20.9568  -29.8683   21.6700 H   0  0  0  0  0  0
  -26.0170  -38.2813   24.1410 H   0  0  0  0  0  0
  -26.7551  -21.4426   20.1175 H   0  0  0  0  0  0
  -30.7337  -25.2408   21.5704 H   0  0  0  0  0  0
  -31.0641  -25.1640   19.8440 H   0  0  0  0  0  0
  -31.7799  -23.9611   20.9283 H   0  0  0  0  0  0
  -27.6997  -20.3712   22.5007 H   0  0  0  0  0  0
  -28.0250  -18.6830   22.6441 H   0  0  0  0  0  0
  -27.0078  -19.2821   21.3123 H   0  0  0  0  0  0
  -30.0816  -20.5213   22.8320 H   0  0  0  0  0  0
  -31.2352  -20.0183   21.6086 H   0  0  0  0  0  0
  -30.4248  -18.8183   22.6055 H   0  0  0  0  0  0
  -27.5742  -17.1057   21.3621 H   0  0  0  0  0  0
  -28.4453  -16.0042   22.4505 H   0  0  0  0  0  0
  -27.7133  -15.5375   20.9308 H   0  0  0  0  0  0
  -30.5404  -18.2544   19.7426 H   0  0  0  0  0  0
  -28.8810  -18.1022   19.3479 H   0  0  0  0  0  0
  1 25  1  0  0  0
  1 30  2  0  0  0
  1 83  1  0  0  0
  2  3  1  0  0  0
  2 25  1  0  0  0
  2 84  1  0  0  0
  2 85  1  0  0  0
  3  4  1  0  0  0
  3 86  1  0  0  0
  3 87  1  0  0  0
  4  5  1  0  0  0
  4 88  1  0  0  0
  4 89  1  0  0  0
  5  6  1  0  0  0
  5 26  1  0  0  0
  5 90  1  0  0  0
  6 25  1  0  0  0
  6 91  1  0  0  0
  6 92  1  0  0  0
  7  8  2  0  0  0
  7 26  1  0  0  0
  7 29  1  0  0  0
  8  9  1  0  0  0
  8 22  1  0  0  0
  9 10  1  0  0  0
  9 27  2  0  0  0
 10 11  2  0  0  0
 10 15  1  0  0  0
 11 12  1  0  0  0
 11 93  1  0  0  0
 12 13  2  0  0  0
 12 94  1  0  0  0
 13 14  1  0  0  0
 13 31  1  0  0  0
 14 15  2  0  0  0
 14 95  1  0  0  0
 15 96  1  0  0  0
 16 17  2  0  0  0
 16 21  1  0  0  0
 16 31  1  0  0  0
 17 18  1  0  0  0
 17 97  1  0  0  0
 18 19  2  0  0  0
 18 98  1  0  0  0
 19 20  1  0  0  0
 19 24  1  0  0  0
 20 21  2  0  0  0
 20 99  1  0  0  0
 21 23  1  0  0  0
 22 28  1  0  0  0
 22 32  2  0  0  0
 26 27  1  0  0  0
 28100  1  0  0  0
 28101  1  0  0  0
 29102  1  0  0  0
 29103  1  0  0  0
 33 34  1  0  0  0
 33 66  1  0  0  0
 33 70  2  0  0  0
 34 36  1  0  0  0
 34 59  1  0  0  0
 34104  1  0  0  0
 35 44  2  0  0  0
 35 45  1  0  0  0
 35 68  1  0  0  0
 36 56  1  0  0  0
 36105  1  0  0  0
 37 39  1  0  0  0
 37 47  1  0  0  0
 37 66  1  0  0  0
 37106  1  0  0  0
 38 43  2  0  0  0
 38 46  1  0  0  0
 38 47  1  0  0  0
 39 64  1  0  0  0
 39 67  2  0  0  0
 40 52  1  0  0  0
 40 53  2  0  0  0
 40 58  1  0  0  0
 41107  1  0  0  0
 41108  1  0  0  0
 41109  1  0  0  0
 41 48  1  0  0  0
 42 43  1  0  0  0
 42 66  1  0  0  0
 42110  1  0  0  0
 42111  1  0  0  0
 43 44  1  0  0  0
 44112  1  0  0  0
 45 46  2  0  0  0
 45113  1  0  0  0
 46114  1  0  0  0
 47115  1  0  0  0
 47116  1  0  0  0
 48 56  1  0  0  0
 48 65  1  0  0  0
 48117  1  0  0  0
 49 50  1  0  0  0
 49 53  1  0  0  0
 49 64  1  0  0  0
 49118  1  0  0  0
 50 51  1  0  0  0
 50119  1  0  0  0
 50120  1  0  0  0
 51 52  1  0  0  0
 51121  1  0  0  0
 51122  1  0  0  0
 52123  1  0  0  0
 52124  1  0  0  0
 53 54  1  0  0  0
 54 55  2  0  0  0
 54125  1  0  0  0
 55 57  1  0  0  0
 55126  1  0  0  0
 56 69  2  0  0  0
 57 58  2  0  0  0
 57127  1  0  0  0
 58128  1  0  0  0
 59 60  1  0  0  0
 59 61  1  0  0  0
 59 62  1  0  0  0
 60129  1  0  0  0
 60130  1  0  0  0
 60131  1  0  0  0
 61132  1  0  0  0
 61133  1  0  0  0
 61134  1  0  0  0
 62135  1  0  0  0
 62136  1  0  0  0
 62137  1  0  0  0
 63 65  1  0  0  0
 63138  1  0  0  0
 63139  1  0  0  0
 63140  1  0  0  0
 64141  1  0  0  0
 65142  1  0  0  0
 68 74  1  0  0  0
 71 72  2  0  0  0
 71 81  1  0  0  0
 71143  1  0  0  0
 72 80  1  0  0  0
 72 82  1  0  0  0
 73 74  1  0  0  0
 73 75  1  0  0  0
 73 82  2  0  0  0
 74 81  2  0  0  0
 75144  1  0  0  0
 75145  1  0  0  0
 75146  1  0  0  0
 76147  1  0  0  0
 76148  1  0  0  0
 76149  1  0  0  0
 76 80  1  0  0  0
 77 80  1  0  0  0
 77150  1  0  0  0
 77151  1  0  0  0
 77152  1  0  0  0
 78 83  1  0  0  0
 78153  1  0  0  0
 78154  1  0  0  0
 78155  1  0  0  0
 79 80  1  0  0  0
 79 83  1  0  0  0
 79156  1  0  0  0
 79157  1  0  0  0
M  ISO  4   1 100  68 101  74 101  83 100
M  END
> <chiral flag>
0

> <version>
0

> <s_m_source_file>
/data/baiqing/PycharmProjects/Reinvent-master-3.2/result/LINK_invent/BTK/process_docking_weight1_custom_sum_contain_oxygen_bond_distance_aromatic_linkinvent_7_9_3/rearranged_h_0061.sdf

> <i_m_source_file_index>
89

> <r_mmod_Potential_Energy-OPLS-2005>
1429.85571289062

> <r_mmod_Stretch_Energy-OPLS-2005>
541.386047363281

> <r_mmod_Bend_Energy-OPLS-2005>
479.870697021484

> <r_mmod_Torsional_Energy-OPLS-2005>
283.734741210938

> <r_mmod_Improper_Torsional_Energy-OPLS-2005>
7.41539907455444

> <r_mmod_Van_der_Waal_Energy-OPLS-2005>
164.196411132812

> <r_mmod_Electrostatic_Energy-OPLS-2005>
-250.347579956055

> <r_mmod_Solvation_Energy-OPLS-2005>
-207.480331420898

> <b_mmod_Minimization_Converged-OPLS-2005>
0

> <r_mmod_RMS_Derivative-OPLS-2005>
5.59759855270386

$$$$
94
                    3D
 Structure written by MMmdl.
154162  0  0  1  0            999 V2000
  -30.5876  -14.8724   20.5080 C   0  0  0  0  0  0
  -30.4356  -12.5522   19.5008 C   0  0  0  0  0  0
  -29.5164  -12.5523   18.2558 C   0  0  0  0  0  0
  -28.0488  -12.3409   18.6660 C   0  0  0  0  0  0
  -27.6386  -13.2444   19.8558 C   0  0  2  0  0  0
  -28.6764  -13.2099   20.9966 C   0  0  0  0  0  0
  -25.2491  -13.8214   20.5731 C   0  0  0  0  0  0
  -24.1783  -13.0442   20.9195 C   0  0  0  0  0  0
  -24.6382  -11.6922   20.8708 C   0  0  0  0  0  0
  -23.9062  -10.4292   21.0388 C   0  0  0  0  0  0
  -24.3612   -9.4210   21.9171 C   0  0  0  0  0  0
  -23.6286   -8.2247   22.0755 C   0  0  0  0  0  0
  -22.4266   -8.0281   21.3549 C   0  0  0  0  0  0
  -21.9893   -9.0255   20.4653 C   0  0  0  0  0  0
  -22.7224  -10.2135   20.3053 C   0  0  0  0  0  0
  -21.6857   -6.0733   22.5285 C   0  0  0  0  0  0
  -21.4017   -6.5637   23.8215 C   0  0  0  0  0  0
  -21.3660   -5.6793   24.9173 C   0  0  0  0  0  0
  -21.6040   -4.3055   24.7226 C   0  0  0  0  0  0
  -21.8816   -3.8147   23.4346 C   0  0  0  0  0  0
  -21.9193   -4.6962   22.3403 C   0  0  0  0  0  0
  -22.7807  -13.5225   21.1869 C   0  0  0  0  0  0
  -22.1668   -4.2143   21.0982 F   0  0  0  0  0  0
  -21.5620   -3.4538   25.7739 F   0  0  0  0  0  0
  -29.9710  -13.6235   20.4315 N   0  0  0  0  0  0
  -26.2924  -12.9441   20.3302 N   0  0  0  0  0  0
  -25.9322  -11.6569   20.5726 N   0  0  0  0  0  0
  -22.0463  -12.8210   22.0433 N   0  0  0  0  0  0
  -25.4172  -15.1947   20.4225 N   0  0  0  0  0  0
  -31.7221  -14.9767   20.0259 O   0  0  0  0  0  0
  -21.6640   -6.8875   21.4244 O   0  0  0  0  0  0
  -22.3482  -14.5531   20.6715 O   0  0  0  0  0  0
  -24.6425  -31.8480   23.1920 C   0  0  0  0  0  0
  -25.9213  -32.4712   23.8279 C   0  0  1  0  0  0
  -27.2053  -27.1527   20.1422 C   0  0  0  0  0  0
  -25.5968  -33.8519   24.2199 N   0  0  0  0  0  0
  -23.4431  -30.4718   21.5377 C   0  0  2  0  0  0
  -24.8912  -28.9108   20.1045 C   0  0  0  0  0  0
  -22.7562  -29.4571   22.4859 C   0  0  0  0  0  0
  -18.0301  -28.1409   22.8471 C   0  0  0  0  0  0
  -24.1492  -36.7264   23.2639 C   0  0  0  0  0  0
  -25.9995  -30.7245   21.3932 C   0  0  0  0  0  0
  -26.0685  -29.3400   20.7312 C   0  0  0  0  0  0
  -27.2254  -28.4746   20.7400 C   0  0  0  0  0  0
  -26.0088  -26.8413   19.4511 C   0  0  0  0  0  0
  -24.8747  -27.6749   19.4482 C   0  0  0  0  0  0
  -23.6678  -29.8110   20.1532 C   0  0  0  0  0  0
  -25.4127  -36.3043   24.0310 C   0  0  1  0  0  0
  -20.5914  -28.3734   23.1233 C   0  0  2  0  0  0
  -20.6788  -26.9437   22.5408 C   0  0  0  0  0  0
  -19.5765  -26.6385   21.5212 C   0  0  0  0  0  0
  -18.1944  -26.7948   22.1621 C   0  0  0  0  0  0
  -19.1557  -28.8889   23.2849 C   0  0  0  0  0  0
  -18.9479  -30.1483   23.8878 C   0  0  0  0  0  0
  -17.6476  -30.6604   24.0561 C   0  0  0  0  0  0
  -25.9077  -34.9416   23.5060 C   0  0  0  0  0  0
  -16.5367  -29.9097   23.6336 C   0  0  0  0  0  0
  -16.7286  -28.6517   23.0354 C   0  0  0  0  0  0
  -26.4526  -31.6580   25.0721 C   0  0  0  0  0  0
  -25.3703  -31.3805   26.1415 C   0  0  0  0  0  0
  -27.0377  -30.2966   24.6319 C   0  0  0  0  0  0
  -27.6060  -32.4342   25.7507 C   0  0  0  0  0  0
  -27.5578  -37.1789   24.8462 C   0  0  0  0  0  0
  -21.4257  -29.3062   22.3604 N   0  0  0  0  0  0
  -26.4291  -37.3756   23.9405 N   0  0  0  0  0  0
  -24.7144  -31.0350   22.0958 N   0  0  0  0  0  0
  -23.4217  -28.8108   23.2991 O   0  0  0  0  0  0
  -28.2276  -26.1411   20.2512 O   0  0  0  0  0  0
  -26.5651  -34.8912   22.4628 O   0  0  0  0  0  0
  -23.5543  -32.1351   23.7148 O   0  0  0  0  0  0
  -29.4985  -22.4882   19.5369 C   0  0  0  0  0  0
  -28.5779  -23.2536   20.3387 C   0  0  0  0  0  0
  -29.2353  -20.4034   20.7377 C   0  0  0  0  0  0
  -28.2992  -21.1631   21.5431 C   0  0  0  0  0  0
  -29.6740  -16.0942   22.4045 C   0  0  0  0  0  0
  -29.7837  -18.8986   21.1421 C   0  0  0  0  0  0
  -27.8719  -24.6738   19.9032 C   0  0  0  0  0  0
  -29.7245  -17.4570   20.2956 C   0  0  0  0  0  0
  -27.5854  -20.5156   22.7395 C   0  0  0  0  0  0
  -29.8341  -21.1441   19.7402 N   0  0  0  0  0  0
  -27.9973  -22.5132   21.3391 N   0  0  0  0  0  0
  -29.8918  -16.0294   20.9557 N   0  0  0  0  0  0
  -28.4590  -20.2945   23.7248 F   0  0  0  0  0  0
  -26.6174  -21.3011   23.2202 F   0  0  0  0  0  0
  -27.0259  -19.3578   22.3839 F   0  0  0  0  0  0
  -31.4738  -12.6922   19.1949 H   0  0  0  0  0  0
  -30.4083  -11.5810   19.9961 H   0  0  0  0  0  0
  -29.8226  -11.7773   17.5518 H   0  0  0  0  0  0
  -29.6122  -13.5030   17.7285 H   0  0  0  0  0  0
  -27.9316  -11.2920   18.9403 H   0  0  0  0  0  0
  -27.3852  -12.5115   17.8167 H   0  0  0  0  0  0
  -27.6225  -14.2628   19.4670 H   0  0  0  0  0  0
  -28.7422  -12.2119   21.4327 H   0  0  0  0  0  0
  -28.3521  -13.8670   21.8008 H   0  0  0  0  0  0
  -25.2754   -9.5694   22.4738 H   0  0  0  0  0  0
  -23.9997   -7.4642   22.7483 H   0  0  0  0  0  0
  -21.0813   -8.8772   19.8967 H   0  0  0  0  0  0
  -22.3671  -10.9668   19.6167 H   0  0  0  0  0  0
  -21.2014   -7.6149   23.9714 H   0  0  0  0  0  0
  -21.1488   -6.0526   25.9077 H   0  0  0  0  0  0
  -22.0589   -2.7607   23.2853 H   0  0  0  0  0  0
  -22.4090  -11.9873   22.4815 H   0  0  0  0  0  0
  -21.1099  -13.1264   22.2685 H   0  0  0  0  0  0
  -24.6523  -15.8482   20.5482 H   0  0  0  0  0  0
  -26.2795  -15.6437   20.1405 H   0  0  0  0  0  0
  -26.7284  -32.5326   23.1011 H   0  0  0  0  0  0
  -25.0098  -33.9628   25.0331 H   0  0  0  0  0  0
  -22.7447  -31.2985   21.3895 H   0  0  0  0  0  0
  -23.3752  -35.9598   23.3304 H   0  0  0  0  0  0
  -24.3572  -36.8891   22.2052 H   0  0  0  0  0  0
  -23.7251  -37.6464   23.6673 H   0  0  0  0  0  0
  -26.1575  -31.4822   20.6244 H   0  0  0  0  0  0
  -26.8702  -30.7697   22.0354 H   0  0  0  0  0  0
  -28.1154  -28.7905   21.2666 H   0  0  0  0  0  0
  -25.8957  -25.9105   18.9179 H   0  0  0  0  0  0
  -23.9807  -27.3486   18.9348 H   0  0  0  0  0  0
  -23.8043  -30.5910   19.4029 H   0  0  0  0  0  0
  -22.7816  -29.2565   19.8390 H   0  0  0  0  0  0
  -25.1315  -36.1869   25.0800 H   0  0  0  0  0  0
  -21.0002  -28.3335   24.1357 H   0  0  0  0  0  0
  -20.5683  -26.2346   23.3629 H   0  0  0  0  0  0
  -21.6659  -26.7445   22.1209 H   0  0  0  0  0  0
  -19.6926  -25.6286   21.1266 H   0  0  0  0  0  0
  -19.6706  -27.3174   20.6727 H   0  0  0  0  0  0
  -17.4210  -26.6679   21.4032 H   0  0  0  0  0  0
  -18.0352  -26.0102   22.9029 H   0  0  0  0  0  0
  -19.7957  -30.7303   24.2237 H   0  0  0  0  0  0
  -17.5033  -31.6280   24.5171 H   0  0  0  0  0  0
  -15.5370  -30.2994   23.7684 H   0  0  0  0  0  0
  -15.8683  -28.0835   22.7078 H   0  0  0  0  0  0
  -24.5876  -30.7156   25.7749 H   0  0  0  0  0  0
  -24.8898  -32.3003   26.4761 H   0  0  0  0  0  0
  -25.7970  -30.9033   27.0245 H   0  0  0  0  0  0
  -26.2994  -29.6697   24.1302 H   0  0  0  0  0  0
  -27.3945  -29.7266   25.4911 H   0  0  0  0  0  0
  -27.8929  -30.4181   23.9664 H   0  0  0  0  0  0
  -27.2655  -33.3650   26.2053 H   0  0  0  0  0  0
  -28.3893  -32.6891   25.0357 H   0  0  0  0  0  0
  -28.0705  -31.8488   26.5452 H   0  0  0  0  0  0
  -28.2602  -38.0082   24.7498 H   0  0  0  0  0  0
  -28.1069  -36.2608   24.6301 H   0  0  0  0  0  0
  -27.2290  -37.1455   25.8865 H   0  0  0  0  0  0
  -20.9461  -29.8777   21.6790 H   0  0  0  0  0  0
  -26.0157  -38.2823   24.1414 H   0  0  0  0  0  0
  -29.9376  -22.9450   18.6622 H   0  0  0  0  0  0
  -30.3937  -16.7705   22.8664 H   0  0  0  0  0  0
  -29.8004  -15.1340   22.9088 H   0  0  0  0  0  0
  -28.6677  -16.4498   22.6274 H   0  0  0  0  0  0
  -29.3465  -18.6928   22.1122 H   0  0  0  0  0  0
  -30.8352  -19.0545   21.3842 H   0  0  0  0  0  0
  -26.8524  -24.5214   20.2596 H   0  0  0  0  0  0
  -27.8052  -24.6305   18.8157 H   0  0  0  0  0  0
  -30.4360  -17.5217   19.4712 H   0  0  0  0  0  0
  -28.7470  -17.4216   19.8159 H   0  0  0  0  0  0
  1 25  1  0  0  0
  1 30  2  0  0  0
  1 82  1  0  0  0
  2  3  1  0  0  0
  2 25  1  0  0  0
  2 86  1  0  0  0
  2 87  1  0  0  0
  3  4  1  0  0  0
  3 88  1  0  0  0
  3 89  1  0  0  0
  4  5  1  0  0  0
  4 90  1  0  0  0
  4 91  1  0  0  0
  5  6  1  0  0  0
  5 26  1  0  0  0
  5 92  1  0  0  0
  6 25  1  0  0  0
  6 93  1  0  0  0
  6 94  1  0  0  0
  7  8  2  0  0  0
  7 26  1  0  0  0
  7 29  1  0  0  0
  8  9  1  0  0  0
  8 22  1  0  0  0
  9 10  1  0  0  0
  9 27  2  0  0  0
 10 11  2  0  0  0
 10 15  1  0  0  0
 11 12  1  0  0  0
 11 95  1  0  0  0
 12 13  2  0  0  0
 12 96  1  0  0  0
 13 14  1  0  0  0
 13 31  1  0  0  0
 14 15  2  0  0  0
 14 97  1  0  0  0
 15 98  1  0  0  0
 16 17  2  0  0  0
 16 21  1  0  0  0
 16 31  1  0  0  0
 17 18  1  0  0  0
 17 99  1  0  0  0
 18 19  2  0  0  0
 18100  1  0  0  0
 19 20  1  0  0  0
 19 24  1  0  0  0
 20 21  2  0  0  0
 20101  1  0  0  0
 21 23  1  0  0  0
 22 28  1  0  0  0
 22 32  2  0  0  0
 26 27  1  0  0  0
 28102  1  0  0  0
 28103  1  0  0  0
 29104  1  0  0  0
 29105  1  0  0  0
 33 34  1  0  0  0
 33 66  1  0  0  0
 33 70  2  0  0  0
 34 36  1  0  0  0
 34 59  1  0  0  0
 34106  1  0  0  0
 35 44  2  0  0  0
 35 45  1  0  0  0
 35 68  1  0  0  0
 36 56  1  0  0  0
 36107  1  0  0  0
 37 39  1  0  0  0
 37 47  1  0  0  0
 37 66  1  0  0  0
 37108  1  0  0  0
 38 43  2  0  0  0
 38 46  1  0  0  0
 38 47  1  0  0  0
 39 64  1  0  0  0
 39 67  2  0  0  0
 40 52  1  0  0  0
 40 53  2  0  0  0
 40 58  1  0  0  0
 41109  1  0  0  0
 41110  1  0  0  0
 41111  1  0  0  0
 41 48  1  0  0  0
 42 43  1  0  0  0
 42 66  1  0  0  0
 42112  1  0  0  0
 42113  1  0  0  0
 43 44  1  0  0  0
 44114  1  0  0  0
 45 46  2  0  0  0
 45115  1  0  0  0
 46116  1  0  0  0
 47117  1  0  0  0
 47118  1  0  0  0
 48 56  1  0  0  0
 48 65  1  0  0  0
 48119  1  0  0  0
 49 50  1  0  0  0
 49 53  1  0  0  0
 49 64  1  0  0  0
 49120  1  0  0  0
 50 51  1  0  0  0
 50121  1  0  0  0
 50122  1  0  0  0
 51 52  1  0  0  0
 51123  1  0  0  0
 51124  1  0  0  0
 52125  1  0  0  0
 52126  1  0  0  0
 53 54  1  0  0  0
 54 55  2  0  0  0
 54127  1  0  0  0
 55 57  1  0  0  0
 55128  1  0  0  0
 56 69  2  0  0  0
 57 58  2  0  0  0
 57129  1  0  0  0
 58130  1  0  0  0
 59 60  1  0  0  0
 59 61  1  0  0  0
 59 62  1  0  0  0
 60131  1  0  0  0
 60132  1  0  0  0
 60133  1  0  0  0
 61134  1  0  0  0
 61135  1  0  0  0
 61136  1  0  0  0
 62137  1  0  0  0
 62138  1  0  0  0
 62139  1  0  0  0
 63 65  1  0  0  0
 63140  1  0  0  0
 63141  1  0  0  0
 63142  1  0  0  0
 64143  1  0  0  0
 65144  1  0  0  0
 68 77  1  0  0  0
 71 72  2  0  0  0
 71 80  1  0  0  0
 71145  1  0  0  0
 72 77  1  0  0  0
 72 81  1  0  0  0
 73 74  1  0  0  0
 73 76  1  0  0  0
 73 80  2  0  0  0
 74 79  1  0  0  0
 74 81  2  0  0  0
 75 82  1  0  0  0
 75146  1  0  0  0
 75147  1  0  0  0
 75148  1  0  0  0
 76 78  1  0  0  0
 76149  1  0  0  0
 76150  1  0  0  0
 77151  1  0  0  0
 77152  1  0  0  0
 78 82  1  0  0  0
 78153  1  0  0  0
 78154  1  0  0  0
 79 83  1  0  0  0
 79 84  1  0  0  0
 79 85  1  0  0  0
M  ISO  4   1 100  68 101  77 101  82 100
M  END
> <chiral flag>
0

> <version>
0

> <s_m_source_file>
/data/baiqing/PycharmProjects/Reinvent-master-3.2/result/LINK_invent/BTK/process_docking_weight1_custom_sum_contain_oxygen_bond_distance_aromatic_linkinvent_7_9_3/rearranged_h_0061.sdf

> <i_m_source_file_index>
90

> <r_mmod_Potential_Energy-OPLS-2005>
786.63134765625

> <r_mmod_Stretch_Energy-OPLS-2005>
230.971481323242

> <r_mmod_Bend_Energy-OPLS-2005>
259.895233154297

> <r_mmod_Torsional_Energy-OPLS-2005>
295.442291259766

> <r_mmod_Improper_Torsional_Energy-OPLS-2005>
9.39843082427979

> <r_mmod_Van_der_Waal_Energy-OPLS-2005>
150.501373291016

> <r_mmod_Electrostatic_Energy-OPLS-2005>
-114.01806640625

> <r_mmod_Solvation_Energy-OPLS-2005>
-208.09033203125

> <b_mmod_Minimization_Converged-OPLS-2005>
0

> <r_mmod_RMS_Derivative-OPLS-2005>
1.89856231212616

$$$$
95
                    3D
 Structure written by MMmdl.
168177  0  0  1  0            999 V2000
  -30.7081  -14.5184   20.5648 C   0  0  0  0  0  0
  -30.4303  -12.3424   19.4151 C   0  0  0  0  0  0
  -29.4943  -12.5066   18.2000 C   0  0  0  0  0  0
  -28.0150  -12.3564   18.6107 C   0  0  0  0  0  0
  -27.6629  -13.1810   19.8782 C   0  0  2  0  0  0
  -28.7213  -12.9351   20.9837 C   0  0  0  0  0  0
  -25.2642  -13.8098   20.5649 C   0  0  0  0  0  0
  -24.1867  -13.0421   20.9161 C   0  0  0  0  0  0
  -24.6390  -11.6878   20.8776 C   0  0  0  0  0  0
  -23.9060  -10.4289   21.0444 C   0  0  0  0  0  0
  -24.3621   -9.4200   21.9216 C   0  0  0  0  0  0
  -23.6297   -8.2241   22.0777 C   0  0  0  0  0  0
  -22.4283   -8.0287   21.3556 C   0  0  0  0  0  0
  -21.9909   -9.0262   20.4663 C   0  0  0  0  0  0
  -22.7243  -10.2136   20.3079 C   0  0  0  0  0  0
  -21.6853   -6.0744   22.5289 C   0  0  0  0  0  0
  -21.4012   -6.5645   23.8221 C   0  0  0  0  0  0
  -21.3654   -5.6796   24.9179 C   0  0  0  0  0  0
  -21.6041   -4.3059   24.7221 C   0  0  0  0  0  0
  -21.8831   -3.8155   23.4348 C   0  0  0  0  0  0
  -21.9195   -4.6971   22.3406 C   0  0  0  0  0  0
  -22.7902  -13.5262   21.1807 C   0  0  0  0  0  0
  -22.1662   -4.2172   21.0979 F   0  0  0  0  0  0
  -21.5629   -3.4537   25.7729 F   0  0  0  0  0  0
  -30.0224  -13.3359   20.4324 N   0  0  0  0  0  0
  -26.3044  -12.9203   20.3405 N   0  0  0  0  0  0
  -25.9303  -11.6397   20.5832 N   0  0  0  0  0  0
  -22.0497  -12.8293   22.0357 N   0  0  0  0  0  0
  -25.4398  -15.1807   20.3982 N   0  0  0  0  0  0
  -31.8480  -14.6077   20.0945 O   0  0  0  0  0  0
  -21.6637   -6.8890   21.4257 O   0  0  0  0  0  0
  -22.3631  -14.5579   20.6645 O   0  0  0  0  0  0
  -24.6131  -31.8715   23.2126 C   0  0  0  0  0  0
  -25.9032  -32.4838   23.8438 C   0  0  1  0  0  0
  -27.2338  -27.4483   20.0963 C   0  0  0  0  0  0
  -25.5904  -33.8643   24.2359 N   0  0  0  0  0  0
  -23.3993  -30.4963   21.5526 C   0  0  2  0  0  0
  -24.8447  -28.9656   20.1185 C   0  0  0  0  0  0
  -22.7412  -29.4672   22.4991 C   0  0  0  0  0  0
  -18.0266  -28.1372   22.8484 C   0  0  0  0  0  0
  -24.1476  -36.7327   23.2638 C   0  0  0  0  0  0
  -25.9273  -30.8445   21.3598 C   0  0  0  0  0  0
  -26.0062  -29.4784   20.7111 C   0  0  0  0  0  0
  -27.2042  -28.7286   20.6931 C   0  0  0  0  0  0
  -26.0533  -26.9511   19.5021 C   0  0  0  0  0  0
  -24.8630  -27.6982   19.5153 C   0  0  0  0  0  0
  -23.6091  -29.8353   20.1653 C   0  0  0  0  0  0
  -25.4088  -36.3119   24.0341 C   0  0  1  0  0  0
  -20.5858  -28.3654   23.1311 C   0  0  2  0  0  0
  -20.6737  -26.9388   22.5412 C   0  0  0  0  0  0
  -19.5719  -26.6378   21.5204 C   0  0  0  0  0  0
  -18.1902  -26.7913   22.1627 C   0  0  0  0  0  0
  -19.1517  -28.8826   23.2896 C   0  0  0  0  0  0
  -18.9453  -30.1431   23.8906 C   0  0  0  0  0  0
  -17.6459  -30.6575   24.0570 C   0  0  0  0  0  0
  -25.9033  -34.9487   23.5142 C   0  0  0  0  0  0
  -16.5342  -29.9091   23.6320 C   0  0  0  0  0  0
  -16.7252  -28.6508   23.0322 C   0  0  0  0  0  0
  -26.4484  -31.6596   25.0736 C   0  0  0  0  0  0
  -25.3775  -31.3673   26.1496 C   0  0  0  0  0  0
  -27.0298  -30.3041   24.6064 C   0  0  0  0  0  0
  -27.6067  -32.4303   25.7497 C   0  0  0  0  0  0
  -27.5567  -37.1805   24.8468 C   0  0  0  0  0  0
  -21.4140  -29.3041   22.3743 N   0  0  0  0  0  0
  -26.4266  -37.3804   23.9431 N   0  0  0  0  0  0
  -24.6652  -31.0843   22.1014 N   0  0  0  0  0  0
  -23.4195  -28.8211   23.3016 O   0  0  0  0  0  0
  -28.4137  -26.7314   20.0970 O   0  0  0  0  0  0
  -26.5600  -34.8934   22.4705 O   0  0  0  0  0  0
  -23.5324  -32.1462   23.7533 O   0  0  0  0  0  0
  -30.5209  -19.0916   18.8694 C   0  0  0  0  0  0
  -30.0862  -19.1368   21.0162 C   0  0  0  0  0  0
  -32.0365  -23.4741   19.3737 C   0  0  0  0  0  0
  -29.9369  -19.8992   19.8887 C   0  0  0  0  0  0
  -30.2507  -22.4062   19.4930 C   0  0  0  0  0  0
  -29.5987  -26.5814   17.4393 C   0  0  0  0  0  0
  -27.4852  -23.4984   18.6473 C   0  0  0  0  0  0
  -28.7323  -15.9908   21.2736 C   0  0  0  0  0  0
  -29.2799  -21.2607   19.7156 C   0  0  0  0  0  0
  -28.7408  -25.3007   17.5696 C   0  0  0  0  0  0
  -28.3376  -25.2997   20.1883 C   0  0  0  0  0  0
  -31.0166  -16.7895   21.4947 C   0  0  0  0  0  0
  -28.6736  -24.4588   18.9013 C   0  0  1  0  0  0
  -30.9632  -17.9260   19.3253 N   0  0  0  0  0  0
  -31.5656  -22.2314   19.6531 N   0  0  0  0  0  0
  -31.1094  -24.3773   19.0853 N   0  0  0  0  0  0
  -30.6898  -17.9453   20.6503 N   0  0  0  0  0  0
  -29.9379  -23.6864   19.1256 N   0  0  0  0  0  0
  -30.1591  -15.6106   21.1955 N   0  0  0  0  0  0
  -31.4694  -12.4523   19.0974 H   0  0  0  0  0  0
  -30.3647  -11.3284   19.8136 H   0  0  0  0  0  0
  -29.7502  -11.7780   17.4288 H   0  0  0  0  0  0
  -29.6483  -13.4886   17.7499 H   0  0  0  0  0  0
  -27.8223  -11.2974   18.7907 H   0  0  0  0  0  0
  -27.3694  -12.6489   17.7819 H   0  0  0  0  0  0
  -27.6999  -14.2176   19.5643 H   0  0  0  0  0  0
  -28.7414  -11.8714   21.2234 H   0  0  0  0  0  0
  -28.5044  -13.3856   21.9461 H   0  0  0  0  0  0
  -25.2760   -9.5686   22.4790 H   0  0  0  0  0  0
  -24.0010   -7.4650   22.7491 H   0  0  0  0  0  0
  -21.0841   -8.8788   19.8984 H   0  0  0  0  0  0
  -22.3710  -10.9682   19.6202 H   0  0  0  0  0  0
  -21.2004   -7.6154   23.9733 H   0  0  0  0  0  0
  -21.1465   -6.0514   25.9080 H   0  0  0  0  0  0
  -22.0620   -2.7622   23.2830 H   0  0  0  0  0  0
  -22.4030  -11.9909   22.4726 H   0  0  0  0  0  0
  -21.1160  -13.1438   22.2568 H   0  0  0  0  0  0
  -24.6868  -15.8490   20.5191 H   0  0  0  0  0  0
  -26.3037  -15.6105   20.0942 H   0  0  0  0  0  0
  -26.7103  -32.5543   23.1211 H   0  0  0  0  0  0
  -25.0053  -33.9855   25.0499 H   0  0  0  0  0  0
  -22.6843  -31.3099   21.4184 H   0  0  0  0  0  0
  -23.3731  -35.9672   23.3300 H   0  0  0  0  0  0
  -24.3586  -36.8939   22.2057 H   0  0  0  0  0  0
  -23.7235  -37.6527   23.6660 H   0  0  0  0  0  0
  -26.0286  -31.6067   20.5875 H   0  0  0  0  0  0
  -26.8209  -30.9058   21.9692 H   0  0  0  0  0  0
  -28.1006  -29.1278   21.1477 H   0  0  0  0  0  0
  -26.0400  -25.9913   19.0154 H   0  0  0  0  0  0
  -23.9717  -27.2909   19.0566 H   0  0  0  0  0  0
  -23.7238  -30.6157   19.4125 H   0  0  0  0  0  0
  -22.7326  -29.2607   19.8588 H   0  0  0  0  0  0
  -25.1253  -36.1988   25.0830 H   0  0  0  0  0  0
  -20.9950  -28.3198   24.1429 H   0  0  0  0  0  0
  -20.5592  -26.2276   23.3608 H   0  0  0  0  0  0
  -21.6610  -26.7389   22.1230 H   0  0  0  0  0  0
  -19.6871  -25.6296   21.1208 H   0  0  0  0  0  0
  -19.6636  -27.3208   20.6746 H   0  0  0  0  0  0
  -17.4163  -26.6637   21.4034 H   0  0  0  0  0  0
  -18.0315  -26.0055   22.9027 H   0  0  0  0  0  0
  -19.7931  -30.7243   24.2262 H   0  0  0  0  0  0
  -17.5016  -31.6253   24.5186 H   0  0  0  0  0  0
  -15.5343  -30.3007   23.7627 H   0  0  0  0  0  0
  -15.8651  -28.0859   22.6999 H   0  0  0  0  0  0
  -24.5976  -30.6979   25.7845 H   0  0  0  0  0  0
  -24.8939  -32.2811   26.4957 H   0  0  0  0  0  0
  -25.8166  -30.8855   27.0245 H   0  0  0  0  0  0
  -26.2814  -29.6804   24.1149 H   0  0  0  0  0  0
  -27.4120  -29.7258   25.4491 H   0  0  0  0  0  0
  -27.8642  -30.4363   23.9167 H   0  0  0  0  0  0
  -27.2704  -33.3606   26.2096 H   0  0  0  0  0  0
  -28.3882  -32.6844   25.0322 H   0  0  0  0  0  0
  -28.0744  -31.8406   26.5400 H   0  0  0  0  0  0
  -28.2568  -38.0112   24.7521 H   0  0  0  0  0  0
  -28.1064  -36.2640   24.6261 H   0  0  0  0  0  0
  -27.2315  -37.1437   25.8878 H   0  0  0  0  0  0
  -20.9289  -29.8850   21.7056 H   0  0  0  0  0  0
  -26.0145  -38.2872   24.1454 H   0  0  0  0  0  0
  -30.6144  -19.3140   17.8148 H   0  0  0  0  0  0
  -29.7911  -19.3261   22.0394 H   0  0  0  0  0  0
  -33.0876  -23.7260   19.3919 H   0  0  0  0  0  0
  -29.1379  -27.4398   17.9233 H   0  0  0  0  0  0
  -29.6890  -26.8544   16.3872 H   0  0  0  0  0  0
  -30.6118  -26.4831   17.8229 H   0  0  0  0  0  0
  -26.5793  -24.0292   18.3661 H   0  0  0  0  0  0
  -27.2150  -22.9212   19.5292 H   0  0  0  0  0  0
  -27.6868  -22.8131   17.8233 H   0  0  0  0  0  0
  -28.5895  -16.9398   21.7906 H   0  0  0  0  0  0
  -28.0949  -15.3254   21.8391 H   0  0  0  0  0  0
  -28.3276  -16.1371   20.2745 H   0  0  0  0  0  0
  -28.6530  -21.4988   20.5751 H   0  0  0  0  0  0
  -28.6136  -21.1883   18.8611 H   0  0  0  0  0  0
  -29.0654  -24.6209   16.7803 H   0  0  0  0  0  0
  -27.7323  -25.5989   17.2802 H   0  0  0  0  0  0
  -29.0431  -25.0343   20.9773 H   0  0  0  0  0  0
  -27.3826  -24.9971   20.6196 H   0  0  0  0  0  0
  -30.8712  -17.0655   22.5409 H   0  0  0  0  0  0
  -32.0868  -16.5985   21.4029 H   0  0  0  0  0  0
  1 25  1  0  0  0
  1 30  2  0  0  0
  1 89  1  0  0  0
  2  3  1  0  0  0
  2 25  1  0  0  0
  2 90  1  0  0  0
  2 91  1  0  0  0
  3  4  1  0  0  0
  3 92  1  0  0  0
  3 93  1  0  0  0
  4  5  1  0  0  0
  4 94  1  0  0  0
  4 95  1  0  0  0
  5  6  1  0  0  0
  5 26  1  0  0  0
  5 96  1  0  0  0
  6 25  1  0  0  0
  6 97  1  0  0  0
  6 98  1  0  0  0
  7  8  2  0  0  0
  7 26  1  0  0  0
  7 29  1  0  0  0
  8  9  1  0  0  0
  8 22  1  0  0  0
  9 10  1  0  0  0
  9 27  2  0  0  0
 10 11  2  0  0  0
 10 15  1  0  0  0
 11 12  1  0  0  0
 11 99  1  0  0  0
 12 13  2  0  0  0
 12100  1  0  0  0
 13 14  1  0  0  0
 13 31  1  0  0  0
 14 15  2  0  0  0
 14101  1  0  0  0
 15102  1  0  0  0
 16 17  2  0  0  0
 16 21  1  0  0  0
 16 31  1  0  0  0
 17 18  1  0  0  0
 17103  1  0  0  0
 18 19  2  0  0  0
 18104  1  0  0  0
 19 20  1  0  0  0
 19 24  1  0  0  0
 20 21  2  0  0  0
 20105  1  0  0  0
 21 23  1  0  0  0
 22 28  1  0  0  0
 22 32  2  0  0  0
 26 27  1  0  0  0
 28106  1  0  0  0
 28107  1  0  0  0
 29108  1  0  0  0
 29109  1  0  0  0
 33 34  1  0  0  0
 33 66  1  0  0  0
 33 70  2  0  0  0
 34 36  1  0  0  0
 34 59  1  0  0  0
 34110  1  0  0  0
 35 44  2  0  0  0
 35 45  1  0  0  0
 35 68  1  0  0  0
 36 56  1  0  0  0
 36111  1  0  0  0
 37 39  1  0  0  0
 37 47  1  0  0  0
 37 66  1  0  0  0
 37112  1  0  0  0
 38 43  2  0  0  0
 38 46  1  0  0  0
 38 47  1  0  0  0
 39 64  1  0  0  0
 39 67  2  0  0  0
 40 52  1  0  0  0
 40 53  2  0  0  0
 40 58  1  0  0  0
 41113  1  0  0  0
 41114  1  0  0  0
 41115  1  0  0  0
 41 48  1  0  0  0
 42 43  1  0  0  0
 42 66  1  0  0  0
 42116  1  0  0  0
 42117  1  0  0  0
 43 44  1  0  0  0
 44118  1  0  0  0
 45 46  2  0  0  0
 45119  1  0  0  0
 46120  1  0  0  0
 47121  1  0  0  0
 47122  1  0  0  0
 48 56  1  0  0  0
 48 65  1  0  0  0
 48123  1  0  0  0
 49 50  1  0  0  0
 49 53  1  0  0  0
 49 64  1  0  0  0
 49124  1  0  0  0
 50 51  1  0  0  0
 50125  1  0  0  0
 50126  1  0  0  0
 51 52  1  0  0  0
 51127  1  0  0  0
 51128  1  0  0  0
 52129  1  0  0  0
 52130  1  0  0  0
 53 54  1  0  0  0
 54 55  2  0  0  0
 54131  1  0  0  0
 55 57  1  0  0  0
 55132  1  0  0  0
 56 69  2  0  0  0
 57 58  2  0  0  0
 57133  1  0  0  0
 58134  1  0  0  0
 59 60  1  0  0  0
 59 61  1  0  0  0
 59 62  1  0  0  0
 60135  1  0  0  0
 60136  1  0  0  0
 60137  1  0  0  0
 61138  1  0  0  0
 61139  1  0  0  0
 61140  1  0  0  0
 62141  1  0  0  0
 62142  1  0  0  0
 62143  1  0  0  0
 63 65  1  0  0  0
 63144  1  0  0  0
 63145  1  0  0  0
 63146  1  0  0  0
 64147  1  0  0  0
 65148  1  0  0  0
 68 81  1  0  0  0
 71 74  1  0  0  0
 71 84  2  0  0  0
 71149  1  0  0  0
 72 74  2  0  0  0
 72 87  1  0  0  0
 72150  1  0  0  0
 73 85  1  0  0  0
 73 86  2  0  0  0
 73151  1  0  0  0
 74 79  1  0  0  0
 75 79  1  0  0  0
 75 85  2  0  0  0
 75 88  1  0  0  0
 76 80  1  0  0  0
 76152  1  0  0  0
 76153  1  0  0  0
 76154  1  0  0  0
 77155  1  0  0  0
 77156  1  0  0  0
 77157  1  0  0  0
 77 83  1  0  0  0
 78 89  1  0  0  0
 78158  1  0  0  0
 78159  1  0  0  0
 78160  1  0  0  0
 79161  1  0  0  0
 79162  1  0  0  0
 80 83  1  0  0  0
 80163  1  0  0  0
 80164  1  0  0  0
 81 83  1  0  0  0
 81165  1  0  0  0
 81166  1  0  0  0
 82 87  1  0  0  0
 82 89  1  0  0  0
 82167  1  0  0  0
 82168  1  0  0  0
 83 88  1  0  0  0
 84 87  1  0  0  0
 86 88  1  0  0  0
M  ISO  4   1 100  68 101  81 101  89 100
M  END
> <chiral flag>
0

> <version>
0

> <s_m_source_file>
/data/baiqing/PycharmProjects/Reinvent-master-3.2/result/LINK_invent/BTK/process_docking_weight1_custom_sum_contain_oxygen_bond_distance_aromatic_linkinvent_7_9_3/rearranged_h_0061.sdf

> <i_m_source_file_index>
91

> <r_mmod_Potential_Energy-OPLS-2005>
151.147354125977

> <r_mmod_Stretch_Energy-OPLS-2005>
53.4309005737305

> <r_mmod_Bend_Energy-OPLS-2005>
167.695175170898

> <r_mmod_Torsional_Energy-OPLS-2005>
300.744201660156

> <r_mmod_Improper_Torsional_Energy-OPLS-2005>
2.94603490829468

> <r_mmod_Van_der_Waal_Energy-OPLS-2005>
163.812393188477

> <r_mmod_Electrostatic_Energy-OPLS-2005>
-303.005828857422

> <r_mmod_Solvation_Energy-OPLS-2005>
-249.89616394043

> <b_mmod_Minimization_Converged-OPLS-2005>
0

> <r_mmod_RMS_Derivative-OPLS-2005>
3.11590766906738

$$$$
96
                    3D
 Structure written by MMmdl.
152160  0  0  1  0            999 V2000
  -30.6021  -14.7620   20.4573 C   0  0  0  0  0  0
  -30.4390  -12.4716   19.4659 C   0  0  0  0  0  0
  -29.5123  -12.5264   18.2298 C   0  0  0  0  0  0
  -28.0392  -12.3420   18.6447 C   0  0  0  0  0  0
  -27.6423  -13.2352   19.8501 C   0  0  2  0  0  0
  -28.6907  -13.1687   20.9840 C   0  0  0  0  0  0
  -25.2507  -13.8217   20.5653 C   0  0  0  0  0  0
  -24.1809  -13.0461   20.9202 C   0  0  0  0  0  0
  -24.6390  -11.6934   20.8731 C   0  0  0  0  0  0
  -23.9054  -10.4310   21.0407 C   0  0  0  0  0  0
  -24.3614   -9.4231   21.9195 C   0  0  0  0  0  0
  -23.6283   -8.2270   22.0771 C   0  0  0  0  0  0
  -22.4265   -8.0288   21.3558 C   0  0  0  0  0  0
  -21.9895   -9.0265   20.4658 C   0  0  0  0  0  0
  -22.7220  -10.2148   20.3052 C   0  0  0  0  0  0
  -21.6864   -6.0697   22.5268 C   0  0  0  0  0  0
  -21.4030   -6.5614   23.8190 C   0  0  0  0  0  0
  -21.3658   -5.6784   24.9167 C   0  0  0  0  0  0
  -21.6041   -4.3041   24.7254 C   0  0  0  0  0  0
  -21.8828   -3.8113   23.4384 C   0  0  0  0  0  0
  -21.9209   -4.6917   22.3421 C   0  0  0  0  0  0
  -22.7833  -13.5222   21.1905 C   0  0  0  0  0  0
  -22.1680   -4.2087   21.1006 F   0  0  0  0  0  0
  -21.5625   -3.4546   25.7780 F   0  0  0  0  0  0
  -29.9889  -13.5312   20.3967 N   0  0  0  0  0  0
  -26.2939  -12.9425   20.3276 N   0  0  0  0  0  0
  -25.9328  -11.6567   20.5748 N   0  0  0  0  0  0
  -22.0499  -12.8179   22.0441 N   0  0  0  0  0  0
  -25.4215  -15.1935   20.3970 N   0  0  0  0  0  0
  -31.7962  -14.8731   20.1654 O   0  0  0  0  0  0
  -21.6656   -6.8856   21.4233 O   0  0  0  0  0  0
  -22.3517  -14.5536   20.6775 O   0  0  0  0  0  0
  -24.6337  -31.8517   23.1959 C   0  0  0  0  0  0
  -25.9157  -32.4741   23.8302 C   0  0  1  0  0  0
  -27.2192  -27.2328   20.1328 C   0  0  0  0  0  0
  -25.5953  -33.8548   24.2228 N   0  0  0  0  0  0
  -23.4302  -30.4754   21.5391 C   0  0  2  0  0  0
  -24.8775  -28.9167   20.1133 C   0  0  0  0  0  0
  -22.7481  -29.4620   22.4903 C   0  0  0  0  0  0
  -18.0283  -28.1410   22.8491 C   0  0  0  0  0  0
  -24.1491  -36.7267   23.2645 C   0  0  0  0  0  0
  -25.9798  -30.7564   21.3805 C   0  0  0  0  0  0
  -26.0525  -29.3759   20.7233 C   0  0  0  0  0  0
  -27.2234  -28.5485   20.7225 C   0  0  0  0  0  0
  -26.0147  -26.8467   19.5004 C   0  0  0  0  0  0
  -24.8655  -27.6597   19.4943 C   0  0  0  0  0  0
  -23.6507  -29.8049   20.1576 C   0  0  0  0  0  0
  -25.4121  -36.3062   24.0323 C   0  0  1  0  0  0
  -20.5888  -28.3720   23.1281 C   0  0  2  0  0  0
  -20.6773  -26.9444   22.5422 C   0  0  0  0  0  0
  -19.5763  -26.6404   21.5221 C   0  0  0  0  0  0
  -18.1933  -26.7948   22.1615 C   0  0  0  0  0  0
  -19.1533  -28.8878   23.2886 C   0  0  0  0  0  0
  -18.9451  -30.1463   23.8922 C   0  0  0  0  0  0
  -17.6463  -30.6613   24.0561 C   0  0  0  0  0  0
  -25.9070  -34.9438   23.5073 C   0  0  0  0  0  0
  -16.5354  -29.9108   23.6366 C   0  0  0  0  0  0
  -16.7276  -28.6525   23.0399 C   0  0  0  0  0  0
  -26.4515  -31.6575   25.0715 C   0  0  0  0  0  0
  -25.3745  -31.3712   26.1436 C   0  0  0  0  0  0
  -27.0377  -30.2979   24.6252 C   0  0  0  0  0  0
  -27.6049  -32.4342   25.7500 C   0  0  0  0  0  0
  -27.5583  -37.1797   24.8474 C   0  0  0  0  0  0
  -21.4186  -29.3060   22.3643 N   0  0  0  0  0  0
  -26.4289  -37.3760   23.9414 N   0  0  0  0  0  0
  -24.6999  -31.0468   22.0937 N   0  0  0  0  0  0
  -23.4164  -28.8171   23.3025 O   0  0  0  0  0  0
  -28.3143  -26.3268   20.1738 O   0  0  0  0  0  0
  -26.5644  -34.8922   22.4650 O   0  0  0  0  0  0
  -23.5491  -32.1358   23.7252 O   0  0  0  0  0  0
  -28.0862  -20.4775   21.3541 C   0  0  0  0  0  0
  -29.0269  -19.9982   20.3961 C   0  0  0  0  0  0
  -29.5143  -18.3240   18.4778 C   0  0  0  0  0  0
  -29.2302  -23.7027   20.2536 C   0  0  0  0  0  0
  -30.1233  -17.3826   20.7920 C   0  0  0  0  0  0
  -28.0624  -24.8292   20.0906 C   0  0  0  0  0  0
  -29.2129  -18.4578   19.9788 C   0  0  1  0  0  0
  -28.0137  -21.7961   21.3894 N   0  0  0  0  0  0
  -29.5716  -21.1114   19.8703 N   0  0  0  0  0  0
  -28.8949  -22.2113   20.4408 N   0  0  0  0  0  0
  -29.8070  -15.8802   20.6612 N   0  0  0  0  0  0
  -31.4794  -12.6035   19.1623 H   0  0  0  0  0  0
  -30.3903  -11.4968   19.9517 H   0  0  0  0  0  0
  -29.7968  -11.7690   17.4987 H   0  0  0  0  0  0
  -29.6319  -13.4908   17.7326 H   0  0  0  0  0  0
  -27.8907  -11.2905   18.8972 H   0  0  0  0  0  0
  -27.3846  -12.5450   17.7974 H   0  0  0  0  0  0
  -27.6303  -14.2574   19.4710 H   0  0  0  0  0  0
  -28.7413  -12.1684   21.4140 H   0  0  0  0  0  0
  -28.4279  -13.8404   21.8056 H   0  0  0  0  0  0
  -25.2771   -9.5689   22.4774 H   0  0  0  0  0  0
  -23.9971   -7.4655   22.7484 H   0  0  0  0  0  0
  -21.0827   -8.8757   19.8982 H   0  0  0  0  0  0
  -22.3656  -10.9672   19.6143 H   0  0  0  0  0  0
  -21.2020   -7.6119   23.9660 H   0  0  0  0  0  0
  -21.1477   -6.0540   25.9059 H   0  0  0  0  0  0
  -22.0617   -2.7567   23.2916 H   0  0  0  0  0  0
  -22.4117  -11.9767   22.4697 H   0  0  0  0  0  0
  -21.1147  -13.1202   22.2772 H   0  0  0  0  0  0
  -24.6472  -15.8459   20.4676 H   0  0  0  0  0  0
  -26.2497  -15.6078   19.9935 H   0  0  0  0  0  0
  -26.7217  -32.5369   23.1035 H   0  0  0  0  0  0
  -25.0092  -33.9674   25.0367 H   0  0  0  0  0  0
  -22.7291  -31.2982   21.3872 H   0  0  0  0  0  0
  -23.3763  -35.9594   23.3297 H   0  0  0  0  0  0
  -24.3573  -36.8904   22.2062 H   0  0  0  0  0  0
  -23.7228  -37.6454   23.6677 H   0  0  0  0  0  0
  -26.1247  -31.5157   20.6109 H   0  0  0  0  0  0
  -26.8540  -30.8026   22.0183 H   0  0  0  0  0  0
  -28.1178  -28.8982   21.2181 H   0  0  0  0  0  0
  -25.9209  -25.8890   19.0138 H   0  0  0  0  0  0
  -23.9635  -27.2988   19.0202 H   0  0  0  0  0  0
  -23.7773  -30.5776   19.3983 H   0  0  0  0  0  0
  -22.7686  -29.2370   19.8523 H   0  0  0  0  0  0
  -25.1302  -36.1896   25.0811 H   0  0  0  0  0  0
  -20.9971  -28.3300   24.1408 H   0  0  0  0  0  0
  -20.5682  -26.2318   23.3609 H   0  0  0  0  0  0
  -21.6640  -26.7477   22.1214 H   0  0  0  0  0  0
  -19.6921  -25.6307   21.1274 H   0  0  0  0  0  0
  -19.6723  -27.3186   20.6727 H   0  0  0  0  0  0
  -17.4198  -26.6705   21.4025 H   0  0  0  0  0  0
  -18.0344  -26.0102   22.9022 H   0  0  0  0  0  0
  -19.7920  -30.7269   24.2338 H   0  0  0  0  0  0
  -17.5018  -31.6324   24.5110 H   0  0  0  0  0  0
  -15.5352  -30.3022   23.7696 H   0  0  0  0  0  0
  -15.8655  -28.0836   22.7156 H   0  0  0  0  0  0
  -24.5925  -30.7062   25.7735 H   0  0  0  0  0  0
  -24.8963  -32.2893   26.4866 H   0  0  0  0  0  0
  -25.8098  -30.8868   27.0194 H   0  0  0  0  0  0
  -26.2972  -29.6708   24.1277 H   0  0  0  0  0  0
  -27.3994  -29.7263   25.4807 H   0  0  0  0  0  0
  -27.8878  -30.4179   23.9536 H   0  0  0  0  0  0
  -27.2604  -33.3617   26.2066 H   0  0  0  0  0  0
  -28.3871  -32.6939   25.0364 H   0  0  0  0  0  0
  -28.0708  -31.8497   26.5437 H   0  0  0  0  0  0
  -28.2592  -38.0098   24.7537 H   0  0  0  0  0  0
  -28.1087  -36.2640   24.6281 H   0  0  0  0  0  0
  -27.2322  -37.1427   25.8880 H   0  0  0  0  0  0
  -20.9356  -29.8729   21.6812 H   0  0  0  0  0  0
  -26.0169  -38.2832   24.1423 H   0  0  0  0  0  0
  -27.4407  -19.8831   21.9868 H   0  0  0  0  0  0
  -28.7617  -18.8291   17.8709 H   0  0  0  0  0  0
  -29.5319  -17.2775   18.1688 H   0  0  0  0  0  0
  -30.4866  -18.7534   18.2317 H   0  0  0  0  0  0
  -29.8232  -23.9837   21.1234 H   0  0  0  0  0  0
  -29.9113  -23.7813   19.4049 H   0  0  0  0  0  0
  -30.0302  -17.6030   21.8550 H   0  0  0  0  0  0
  -31.1739  -17.5587   20.5579 H   0  0  0  0  0  0
  -27.2976  -24.5957   20.8312 H   0  0  0  0  0  0
  -27.6158  -24.6237   19.1172 H   0  0  0  0  0  0
  -28.2076  -18.0440   20.0709 H   0  0  0  0  0  0
  -28.8378  -15.6502   20.8248 H   0  0  0  0  0  0
  1 25  1  0  0  0
  1 30  2  0  0  0
  1 81  1  0  0  0
  2  3  1  0  0  0
  2 25  1  0  0  0
  2 82  1  0  0  0
  2 83  1  0  0  0
  3  4  1  0  0  0
  3 84  1  0  0  0
  3 85  1  0  0  0
  4  5  1  0  0  0
  4 86  1  0  0  0
  4 87  1  0  0  0
  5  6  1  0  0  0
  5 26  1  0  0  0
  5 88  1  0  0  0
  6 25  1  0  0  0
  6 89  1  0  0  0
  6 90  1  0  0  0
  7  8  2  0  0  0
  7 26  1  0  0  0
  7 29  1  0  0  0
  8  9  1  0  0  0
  8 22  1  0  0  0
  9 10  1  0  0  0
  9 27  2  0  0  0
 10 11  2  0  0  0
 10 15  1  0  0  0
 11 12  1  0  0  0
 11 91  1  0  0  0
 12 13  2  0  0  0
 12 92  1  0  0  0
 13 14  1  0  0  0
 13 31  1  0  0  0
 14 15  2  0  0  0
 14 93  1  0  0  0
 15 94  1  0  0  0
 16 17  2  0  0  0
 16 21  1  0  0  0
 16 31  1  0  0  0
 17 18  1  0  0  0
 17 95  1  0  0  0
 18 19  2  0  0  0
 18 96  1  0  0  0
 19 20  1  0  0  0
 19 24  1  0  0  0
 20 21  2  0  0  0
 20 97  1  0  0  0
 21 23  1  0  0  0
 22 28  1  0  0  0
 22 32  2  0  0  0
 26 27  1  0  0  0
 28 98  1  0  0  0
 28 99  1  0  0  0
 29100  1  0  0  0
 29101  1  0  0  0
 33 34  1  0  0  0
 33 66  1  0  0  0
 33 70  2  0  0  0
 34 36  1  0  0  0
 34 59  1  0  0  0
 34102  1  0  0  0
 35 44  2  0  0  0
 35 45  1  0  0  0
 35 68  1  0  0  0
 36 56  1  0  0  0
 36103  1  0  0  0
 37 39  1  0  0  0
 37 47  1  0  0  0
 37 66  1  0  0  0
 37104  1  0  0  0
 38 43  2  0  0  0
 38 46  1  0  0  0
 38 47  1  0  0  0
 39 64  1  0  0  0
 39 67  2  0  0  0
 40 52  1  0  0  0
 40 53  2  0  0  0
 40 58  1  0  0  0
 41105  1  0  0  0
 41106  1  0  0  0
 41107  1  0  0  0
 41 48  1  0  0  0
 42 43  1  0  0  0
 42 66  1  0  0  0
 42108  1  0  0  0
 42109  1  0  0  0
 43 44  1  0  0  0
 44110  1  0  0  0
 45 46  2  0  0  0
 45111  1  0  0  0
 46112  1  0  0  0
 47113  1  0  0  0
 47114  1  0  0  0
 48 56  1  0  0  0
 48 65  1  0  0  0
 48115  1  0  0  0
 49 50  1  0  0  0
 49 53  1  0  0  0
 49 64  1  0  0  0
 49116  1  0  0  0
 50 51  1  0  0  0
 50117  1  0  0  0
 50118  1  0  0  0
 51 52  1  0  0  0
 51119  1  0  0  0
 51120  1  0  0  0
 52121  1  0  0  0
 52122  1  0  0  0
 53 54  1  0  0  0
 54 55  2  0  0  0
 54123  1  0  0  0
 55 57  1  0  0  0
 55124  1  0  0  0
 56 69  2  0  0  0
 57 58  2  0  0  0
 57125  1  0  0  0
 58126  1  0  0  0
 59 60  1  0  0  0
 59 61  1  0  0  0
 59 62  1  0  0  0
 60127  1  0  0  0
 60128  1  0  0  0
 60129  1  0  0  0
 61130  1  0  0  0
 61131  1  0  0  0
 61132  1  0  0  0
 62133  1  0  0  0
 62134  1  0  0  0
 62135  1  0  0  0
 63 65  1  0  0  0
 63136  1  0  0  0
 63137  1  0  0  0
 63138  1  0  0  0
 64139  1  0  0  0
 65140  1  0  0  0
 68 76  1  0  0  0
 71 72  1  0  0  0
 71 78  2  0  0  0
 71141  1  0  0  0
 72 77  1  0  0  0
 72 79  2  0  0  0
 73142  1  0  0  0
 73143  1  0  0  0
 73144  1  0  0  0
 73 77  1  0  0  0
 74 76  1  0  0  0
 74 80  1  0  0  0
 74145  1  0  0  0
 74146  1  0  0  0
 75 77  1  0  0  0
 75 81  1  0  0  0
 75147  1  0  0  0
 75148  1  0  0  0
 76149  1  0  0  0
 76150  1  0  0  0
 77151  1  0  0  0
 78 80  1  0  0  0
 79 80  1  0  0  0
 81152  1  0  0  0
M  ISO  4   1 100  68 101  76 101  81 100
M  END
> <chiral flag>
0

> <version>
0

> <s_m_source_file>
/data/baiqing/PycharmProjects/Reinvent-master-3.2/result/LINK_invent/BTK/process_docking_weight1_custom_sum_contain_oxygen_bond_distance_aromatic_linkinvent_7_9_3/rearranged_h_0061.sdf

> <i_m_source_file_index>
92

> <r_mmod_Potential_Energy-OPLS-2005>
150.614532470703

> <r_mmod_Stretch_Energy-OPLS-2005>
140.721618652344

> <r_mmod_Bend_Energy-OPLS-2005>
189.657485961914

> <r_mmod_Torsional_Energy-OPLS-2005>
220.409027099609

> <r_mmod_Improper_Torsional_Energy-OPLS-2005>
6.04055118560791

> <r_mmod_Van_der_Waal_Energy-OPLS-2005>
113.443756103516

> <r_mmod_Electrostatic_Energy-OPLS-2005>
-387.134735107422

> <r_mmod_Solvation_Energy-OPLS-2005>
-229.662612915039

> <b_mmod_Minimization_Converged-OPLS-2005>
0

> <r_mmod_RMS_Derivative-OPLS-2005>
3.82315564155579

$$$$
