0
                    3D
 Structure written by MMmdl.
156164  0  0  1  0            999 V2000
  -30.2887  -15.6100   20.3674 C   0  0  0  0  0  0
  -30.4367  -13.0641   19.5422 C   0  0  0  0  0  0
  -29.5530  -12.6703   18.3207 C   0  0  0  0  0  0
  -28.1190  -12.3162   18.7491 C   0  0  0  0  0  0
  -27.6051  -13.2984   19.8257 C   0  0  2  0  0  0
  -28.6337  -13.5387   20.9532 C   0  0  0  0  0  0
  -25.2299  -13.8232   20.5693 C   0  0  0  0  0  0
  -24.1705  -13.0398   20.9250 C   0  0  0  0  0  0
  -24.6415  -11.6918   20.8751 C   0  0  0  0  0  0
  -23.9113  -10.4277   21.0386 C   0  0  0  0  0  0
  -24.3646   -9.4196   21.9175 C   0  0  0  0  0  0
  -23.6311   -8.2238   22.0750 C   0  0  0  0  0  0
  -22.4294   -8.0277   21.3539 C   0  0  0  0  0  0
  -21.9936   -9.0245   20.4634 C   0  0  0  0  0  0
  -22.7277  -10.2118   20.3041 C   0  0  0  0  0  0
  -21.6857   -6.0737   22.5273 C   0  0  0  0  0  0
  -21.4015   -6.5636   23.8209 C   0  0  0  0  0  0
  -21.3661   -5.6787   24.9170 C   0  0  0  0  0  0
  -21.6047   -4.3051   24.7217 C   0  0  0  0  0  0
  -21.8823   -3.8145   23.4339 C   0  0  0  0  0  0
  -21.9195   -4.6965   22.3397 C   0  0  0  0  0  0
  -22.7722  -13.5138   21.1900 C   0  0  0  0  0  0
  -22.1665   -4.2154   21.0974 F   0  0  0  0  0  0
  -21.5628   -3.4534   25.7728 F   0  0  0  0  0  0
  -29.8028  -14.2205   20.3301 N   0  0  0  0  0  0
  -26.2794  -12.9571   20.3230 N   0  0  0  0  0  0
  -25.9367  -11.6652   20.5715 N   0  0  0  0  0  0
  -22.0391  -12.8123   22.0461 N   0  0  0  0  0  0
  -25.3776  -15.1953   20.4009 N   0  0  0  0  0  0
  -31.5001  -15.5863   20.0725 O   0  0  0  0  0  0
  -21.6648   -6.8881   21.4239 O   0  0  0  0  0  0
  -22.3396  -14.5443   20.6749 O   0  0  0  0  0  0
  -24.6832  -31.8019   23.1519 C   0  0  0  0  0  0
  -25.9419  -32.4474   23.8065 C   0  0  1  0  0  0
  -27.2296  -26.7206   20.2085 C   0  0  0  0  0  0
  -25.6010  -33.8299   24.1955 N   0  0  0  0  0  0
  -23.5092  -30.4042   21.5054 C   0  0  2  0  0  0
  -24.9677  -28.7499   20.1152 C   0  0  0  0  0  0
  -22.7768  -29.4325   22.4711 C   0  0  0  0  0  0
  -18.0342  -28.1428   22.8458 C   0  0  0  0  0  0
  -24.1484  -36.7148   23.2652 C   0  0  0  0  0  0
  -26.0895  -30.5398   21.4142 C   0  0  0  0  0  0
  -26.1565  -29.1067   20.7636 C   0  0  0  0  0  0
  -27.2736  -28.1198   20.7785 C   0  0  0  0  0  0
  -26.0084  -26.5713   19.5028 C   0  0  0  0  0  0
  -24.9319  -27.5069   19.4609 C   0  0  0  0  0  0
  -23.7627  -29.7027   20.1400 C   0  0  0  0  0  0
  -25.4131  -36.2890   24.0285 C   0  0  1  0  0  0
  -20.5977  -28.3785   23.1144 C   0  0  2  0  0  0
  -20.6809  -26.9446   22.5401 C   0  0  0  0  0  0
  -19.5780  -26.6375   21.5219 C   0  0  0  0  0  0
  -18.1961  -26.7958   22.1617 C   0  0  0  0  0  0
  -19.1610  -28.8933   23.2780 C   0  0  0  0  0  0
  -18.9515  -30.1516   23.8827 C   0  0  0  0  0  0
  -17.6506  -30.6610   24.0556 C   0  0  0  0  0  0
  -25.9118  -34.9288   23.4953 C   0  0  0  0  0  0
  -16.5395  -29.9091   23.6362 C   0  0  0  0  0  0
  -16.7321  -28.6515   23.0373 C   0  0  0  0  0  0
  -26.4601  -31.6507   25.0684 C   0  0  0  0  0  0
  -25.3661  -31.3831   26.1294 C   0  0  0  0  0  0
  -27.0535  -30.2849   24.6580 C   0  0  0  0  0  0
  -27.6050  -32.4372   25.7498 C   0  0  0  0  0  0
  -27.5556  -37.1721   24.8465 C   0  0  0  0  0  0
  -21.4415  -29.3035   22.3466 N   0  0  0  0  0  0
  -26.4251  -37.3655   23.9426 N   0  0  0  0  0  0
  -24.7840  -30.9478   22.0764 N   0  0  0  0  0  0
  -23.4216  -28.7917   23.3046 O   0  0  0  0  0  0
  -28.1806  -25.4975   20.2885 O   0  0  0  0  0  0
  -26.5746  -34.8873   22.4560 O   0  0  0  0  0  0
  -23.5856  -32.1094   23.6479 O   0  0  0  0  0  0
  -29.9788  -19.8398   20.9645 C   0  0  0  0  0  0
  -29.6345  -21.3402   20.9061 C   0  0  0  0  0  0
  -27.9165  -20.8462   19.5367 C   0  0  0  0  0  0
  -28.5435  -22.0515   20.1742 C   0  0  0  0  0  0
  -28.2904  -19.3523   19.5809 C   0  0  0  0  0  0
  -29.3747  -18.6382   20.3093 C   0  0  0  0  0  0
  -30.5111  -22.2470   21.7487 C   0  0  0  0  0  0
  -26.6547  -21.1775   18.7368 C   0  0  0  0  0  0
  -27.4068  -18.3982   18.7811 C   0  0  0  0  0  0
  -28.4937  -16.6853   21.6455 C   0  0  0  0  0  0
  -27.8535  -23.7971   20.0842 C   0  0  0  0  0  0
  -29.4945  -16.9436   20.6118 N   0  0  0  0  0  0
  -31.4249  -13.3399   19.1729 H   0  0  0  0  0  0
  -30.6173  -12.1984   20.1818 H   0  0  0  0  0  0
  -30.0005  -11.8372   17.7772 H   0  0  0  0  0  0
  -29.5223  -13.5085   17.6225 H   0  0  0  0  0  0
  -28.1305  -11.3042   19.1564 H   0  0  0  0  0  0
  -27.4526  -12.2957   17.8863 H   0  0  0  0  0  0
  -27.4905  -14.2475   19.3005 H   0  0  0  0  0  0
  -28.9037  -12.6001   21.4394 H   0  0  0  0  0  0
  -28.1941  -14.1303   21.7493 H   0  0  0  0  0  0
  -25.2778   -9.5676   22.4764 H   0  0  0  0  0  0
  -24.0007   -7.4633   22.7480 H   0  0  0  0  0  0
  -21.0862   -8.8769   19.8941 H   0  0  0  0  0  0
  -22.3729  -10.9657   19.6156 H   0  0  0  0  0  0
  -21.2007   -7.6143   23.9718 H   0  0  0  0  0  0
  -21.1478   -6.0511   25.9074 H   0  0  0  0  0  0
  -22.0603   -2.7609   23.2836 H   0  0  0  0  0  0
  -22.4031  -11.9796   22.4854 H   0  0  0  0  0  0
  -21.1007  -13.1129   22.2667 H   0  0  0  0  0  0
  -24.6016  -15.8379   20.5151 H   0  0  0  0  0  0
  -26.2162  -15.6404   20.0544 H   0  0  0  0  0  0
  -26.7506  -32.4960   23.0785 H   0  0  0  0  0  0
  -25.0132  -33.9344   25.0095 H   0  0  0  0  0  0
  -22.8339  -31.2416   21.3164 H   0  0  0  0  0  0
  -23.3772  -35.9450   23.3242 H   0  0  0  0  0  0
  -24.3559  -36.8876   22.2081 H   0  0  0  0  0  0
  -23.7215  -37.6297   23.6774 H   0  0  0  0  0  0
  -26.2914  -31.2651   20.6248 H   0  0  0  0  0  0
  -26.9409  -30.6076   22.0791 H   0  0  0  0  0  0
  -28.1669  -28.3983   21.3194 H   0  0  0  0  0  0
  -25.8428  -25.6291   19.0005 H   0  0  0  0  0  0
  -24.0358  -27.2254   18.9254 H   0  0  0  0  0  0
  -23.9370  -30.4642   19.3793 H   0  0  0  0  0  0
  -22.8679  -29.1684   19.8147 H   0  0  0  0  0  0
  -25.1330  -36.1642   25.0772 H   0  0  0  0  0  0
  -21.0069  -28.3407   24.1266 H   0  0  0  0  0  0
  -20.5687  -26.2405   23.3661 H   0  0  0  0  0  0
  -21.6666  -26.7388   22.1210 H   0  0  0  0  0  0
  -19.6932  -25.6264   21.1301 H   0  0  0  0  0  0
  -19.6725  -27.3148   20.6720 H   0  0  0  0  0  0
  -17.4230  -26.6719   21.4013 H   0  0  0  0  0  0
  -18.0330  -26.0112   22.9022 H   0  0  0  0  0  0
  -19.7989  -30.7358   24.2156 H   0  0  0  0  0  0
  -17.5054  -31.6285   24.5164 H   0  0  0  0  0  0
  -15.5394  -30.2970   23.7727 H   0  0  0  0  0  0
  -15.8718  -28.0814   22.7127 H   0  0  0  0  0  0
  -24.5889  -30.7130   25.7604 H   0  0  0  0  0  0
  -24.8802  -32.3054   26.4495 H   0  0  0  0  0  0
  -25.7836  -30.9158   27.0223 H   0  0  0  0  0  0
  -26.3259  -29.6463   24.1571 H   0  0  0  0  0  0
  -27.3967  -29.7298   25.5321 H   0  0  0  0  0  0
  -27.9228  -30.3978   24.0099 H   0  0  0  0  0  0
  -27.2603  -33.3769   26.1833 H   0  0  0  0  0  0
  -28.3981  -32.6785   25.0405 H   0  0  0  0  0  0
  -28.0584  -31.8663   26.5614 H   0  0  0  0  0  0
  -28.2514  -38.0070   24.7541 H   0  0  0  0  0  0
  -28.1105  -36.2596   24.6239 H   0  0  0  0  0  0
  -27.2286  -37.1289   25.8869 H   0  0  0  0  0  0
  -20.9718  -29.8704   21.6543 H   0  0  0  0  0  0
  -26.0069  -38.2691   24.1479 H   0  0  0  0  0  0
  -30.7875  -19.5890   21.6363 H   0  0  0  0  0  0
  -31.1175  -21.6846   22.4594 H   0  0  0  0  0  0
  -29.9025  -22.9516   22.3163 H   0  0  0  0  0  0
  -31.1831  -22.8186   21.1077 H   0  0  0  0  0  0
  -26.1808  -22.1046   19.0471 H   0  0  0  0  0  0
  -25.8732  -20.4297   18.8655 H   0  0  0  0  0  0
  -26.8853  -21.2568   17.6739 H   0  0  0  0  0  0
  -27.1937  -18.7867   17.7853 H   0  0  0  0  0  0
  -26.4637  -18.2225   19.2992 H   0  0  0  0  0  0
  -27.8794  -17.4297   18.6234 H   0  0  0  0  0  0
  -28.1222  -17.6048   22.0990 H   0  0  0  0  0  0
  -28.8958  -16.0956   22.4711 H   0  0  0  0  0  0
  -27.6308  -16.1845   21.2196 H   0  0  0  0  0  0
  -26.9362  -23.6910   20.6636 H   0  0  0  0  0  0
  -27.5210  -23.8249   19.0473 H   0  0  0  0  0  0
  1 25  1  0  0  0
  1 30  2  0  0  0
  1 82  1  0  0  0
  2  3  1  0  0  0
  2 25  1  0  0  0
  2 83  1  0  0  0
  2 84  1  0  0  0
  3  4  1  0  0  0
  3 85  1  0  0  0
  3 86  1  0  0  0
  4  5  1  0  0  0
  4 87  1  0  0  0
  4 88  1  0  0  0
  5  6  1  0  0  0
  5 26  1  0  0  0
  5 89  1  0  0  0
  6 25  1  0  0  0
  6 90  1  0  0  0
  6 91  1  0  0  0
  7  8  2  0  0  0
  7 26  1  0  0  0
  7 29  1  0  0  0
  8  9  1  0  0  0
  8 22  1  0  0  0
  9 10  1  0  0  0
  9 27  2  0  0  0
 10 11  2  0  0  0
 10 15  1  0  0  0
 11 12  1  0  0  0
 11 92  1  0  0  0
 12 13  2  0  0  0
 12 93  1  0  0  0
 13 14  1  0  0  0
 13 31  1  0  0  0
 14 15  2  0  0  0
 14 94  1  0  0  0
 15 95  1  0  0  0
 16 17  2  0  0  0
 16 21  1  0  0  0
 16 31  1  0  0  0
 17 18  1  0  0  0
 17 96  1  0  0  0
 18 19  2  0  0  0
 18 97  1  0  0  0
 19 20  1  0  0  0
 19 24  1  0  0  0
 20 21  2  0  0  0
 20 98  1  0  0  0
 21 23  1  0  0  0
 22 28  1  0  0  0
 22 32  2  0  0  0
 26 27  1  0  0  0
 28 99  1  0  0  0
 28100  1  0  0  0
 29101  1  0  0  0
 29102  1  0  0  0
 33 34  1  0  0  0
 33 66  1  0  0  0
 33 70  2  0  0  0
 34 36  1  0  0  0
 34 59  1  0  0  0
 34103  1  0  0  0
 35 44  2  0  0  0
 35 45  1  0  0  0
 35 68  1  0  0  0
 36 56  1  0  0  0
 36104  1  0  0  0
 37 39  1  0  0  0
 37 47  1  0  0  0
 37 66  1  0  0  0
 37105  1  0  0  0
 38 43  2  0  0  0
 38 46  1  0  0  0
 38 47  1  0  0  0
 39 64  1  0  0  0
 39 67  2  0  0  0
 40 52  1  0  0  0
 40 53  2  0  0  0
 40 58  1  0  0  0
 41106  1  0  0  0
 41107  1  0  0  0
 41108  1  0  0  0
 41 48  1  0  0  0
 42 43  1  0  0  0
 42 66  1  0  0  0
 42109  1  0  0  0
 42110  1  0  0  0
 43 44  1  0  0  0
 44111  1  0  0  0
 45 46  2  0  0  0
 45112  1  0  0  0
 46113  1  0  0  0
 47114  1  0  0  0
 47115  1  0  0  0
 48 56  1  0  0  0
 48 65  1  0  0  0
 48116  1  0  0  0
 49 50  1  0  0  0
 49 53  1  0  0  0
 49 64  1  0  0  0
 49117  1  0  0  0
 50 51  1  0  0  0
 50118  1  0  0  0
 50119  1  0  0  0
 51 52  1  0  0  0
 51120  1  0  0  0
 51121  1  0  0  0
 52122  1  0  0  0
 52123  1  0  0  0
 53 54  1  0  0  0
 54 55  2  0  0  0
 54124  1  0  0  0
 55 57  1  0  0  0
 55125  1  0  0  0
 56 69  2  0  0  0
 57 58  2  0  0  0
 57126  1  0  0  0
 58127  1  0  0  0
 59 60  1  0  0  0
 59 61  1  0  0  0
 59 62  1  0  0  0
 60128  1  0  0  0
 60129  1  0  0  0
 60130  1  0  0  0
 61131  1  0  0  0
 61132  1  0  0  0
 61133  1  0  0  0
 62134  1  0  0  0
 62135  1  0  0  0
 62136  1  0  0  0
 63 65  1  0  0  0
 63137  1  0  0  0
 63138  1  0  0  0
 63139  1  0  0  0
 64140  1  0  0  0
 65141  1  0  0  0
 68 81  1  0  0  0
 71 72  2  0  0  0
 71 76  1  0  0  0
 71142  1  0  0  0
 72 74  1  0  0  0
 72 77  1  0  0  0
 73 74  2  0  0  0
 73 75  1  0  0  0
 73 78  1  0  0  0
 74 81  1  0  0  0
 75 76  2  0  0  0
 75 79  1  0  0  0
 76 82  1  0  0  0
 77143  1  0  0  0
 77144  1  0  0  0
 77145  1  0  0  0
 78146  1  0  0  0
 78147  1  0  0  0
 78148  1  0  0  0
 79149  1  0  0  0
 79150  1  0  0  0
 79151  1  0  0  0
 80 82  1  0  0  0
 80152  1  0  0  0
 80153  1  0  0  0
 80154  1  0  0  0
 81155  1  0  0  0
 81156  1  0  0  0
M  ISO  4   1 100  68 101  81 101  82 100
M  END
> <chiral flag>
0

> <version>
0

> <s_m_source_file>
/data/baiqing/PycharmProjects/Reinvent-master-3.2/result/LINK_invent/BTK/process_docking_weight1_custom_sum_contain_oxygen_bond_distance_aromatic_linkinvent_7_9_3/rearranged_h_0019.sdf

> <i_m_source_file_index>
1

> <r_mmod_Potential_Energy-OPLS-2005>
2485.7978515625

> <r_mmod_Stretch_Energy-OPLS-2005>
952.417114257812

> <r_mmod_Bend_Energy-OPLS-2005>
685.3955078125

> <r_mmod_Torsional_Energy-OPLS-2005>
316.145629882812

> <r_mmod_Improper_Torsional_Energy-OPLS-2005>
7.75941753387451

> <r_mmod_Van_der_Waal_Energy-OPLS-2005>
148.695220947266

> <r_mmod_Electrostatic_Energy-OPLS-2005>
-287.694641113281

> <r_mmod_Solvation_Energy-OPLS-2005>
-193.3330078125

> <b_mmod_Minimization_Converged-OPLS-2005>
0

> <r_mmod_RMS_Derivative-OPLS-2005>
0.945772290229797

$$$$
1
                    3D
 Structure written by MMmdl.
153161  0  0  1  0            999 V2000
  -30.3294  -15.5270   20.3527 C   0  0  0  0  0  0
  -30.4445  -13.0002   19.5323 C   0  0  0  0  0  0
  -29.5504  -12.5864   18.3290 C   0  0  0  0  0  0
  -28.1394  -12.1901   18.8020 C   0  0  0  0  0  0
  -27.5995  -13.2205   19.8085 C   0  0  2  0  0  0
  -28.6305  -13.5423   20.9306 C   0  0  0  0  0  0
  -25.2274  -13.8001   20.5655 C   0  0  0  0  0  0
  -24.1662  -13.0281   20.9319 C   0  0  0  0  0  0
  -24.6317  -11.6790   20.8843 C   0  0  0  0  0  0
  -23.9026  -10.4206   21.0461 C   0  0  0  0  0  0
  -24.3584   -9.4121   21.9229 C   0  0  0  0  0  0
  -23.6266   -8.2162   22.0769 C   0  0  0  0  0  0
  -22.4248   -8.0221   21.3544 C   0  0  0  0  0  0
  -21.9887   -9.0194   20.4641 C   0  0  0  0  0  0
  -22.7219  -10.2071   20.3077 C   0  0  0  0  0  0
  -21.6825   -6.0714   22.5297 C   0  0  0  0  0  0
  -21.3978   -6.5618   23.8229 C   0  0  0  0  0  0
  -21.3648   -5.6772   24.9186 C   0  0  0  0  0  0
  -21.6060   -4.3043   24.7237 C   0  0  0  0  0  0
  -21.8822   -3.8129   23.4355 C   0  0  0  0  0  0
  -21.9180   -4.6947   22.3412 C   0  0  0  0  0  0
  -22.7683  -13.5060   21.1988 C   0  0  0  0  0  0
  -22.1660   -4.2133   21.0997 F   0  0  0  0  0  0
  -21.5636   -3.4534   25.7753 F   0  0  0  0  0  0
  -29.8102  -14.1667   20.2815 N   0  0  0  0  0  0
  -26.2734  -12.9223   20.3219 N   0  0  0  0  0  0
  -25.9231  -11.6393   20.5798 N   0  0  0  0  0  0
  -22.0347  -12.8072   22.0556 N   0  0  0  0  0  0
  -25.3621  -15.1716   20.3802 N   0  0  0  0  0  0
  -31.5688  -15.4918   20.2112 O   0  0  0  0  0  0
  -21.6606   -6.8831   21.4246 O   0  0  0  0  0  0
  -22.3388  -14.5386   20.6834 O   0  0  0  0  0  0
  -24.6690  -31.8174   23.1617 C   0  0  0  0  0  0
  -25.9341  -32.4557   23.8108 C   0  0  1  0  0  0
  -27.2315  -26.8651   20.1957 C   0  0  0  0  0  0
  -25.5979  -33.8365   24.2021 N   0  0  0  0  0  0
  -23.4865  -30.4238   21.5160 C   0  0  2  0  0  0
  -24.9377  -28.7881   20.1241 C   0  0  0  0  0  0
  -22.7706  -29.4410   22.4813 C   0  0  0  0  0  0
  -18.0325  -28.1435   22.8437 C   0  0  0  0  0  0
  -24.1489  -36.7204   23.2652 C   0  0  0  0  0  0
  -26.0576  -30.6054   21.3959 C   0  0  0  0  0  0
  -26.1280  -29.1834   20.7500 C   0  0  0  0  0  0
  -27.2692  -28.2499   20.7498 C   0  0  0  0  0  0
  -26.0026  -26.6296   19.5339 C   0  0  0  0  0  0
  -24.9036  -27.5318   19.4943 C   0  0  0  0  0  0
  -23.7288  -29.7276   20.1484 C   0  0  0  0  0  0
  -25.4126  -36.2952   24.0303 C   0  0  1  0  0  0
  -20.5946  -28.3764   23.1191 C   0  0  2  0  0  0
  -20.6812  -26.9456   22.5411 C   0  0  0  0  0  0
  -19.5780  -26.6398   21.5220 C   0  0  0  0  0  0
  -18.1962  -26.7965   22.1613 C   0  0  0  0  0  0
  -19.1599  -28.8921   23.2795 C   0  0  0  0  0  0
  -18.9511  -30.1506   23.8825 C   0  0  0  0  0  0
  -17.6505  -30.6613   24.0548 C   0  0  0  0  0  0
  -25.9096  -34.9337   23.4997 C   0  0  0  0  0  0
  -16.5387  -29.9089   23.6362 C   0  0  0  0  0  0
  -16.7312  -28.6531   23.0336 C   0  0  0  0  0  0
  -26.4547  -31.6512   25.0661 C   0  0  0  0  0  0
  -25.3641  -31.3782   26.1304 C   0  0  0  0  0  0
  -27.0449  -30.2880   24.6413 C   0  0  0  0  0  0
  -27.6064  -32.4295   25.7447 C   0  0  0  0  0  0
  -27.5561  -37.1760   24.8467 C   0  0  0  0  0  0
  -21.4380  -29.3026   22.3544 N   0  0  0  0  0  0
  -26.4259  -37.3702   23.9417 N   0  0  0  0  0  0
  -24.7610  -30.9759   22.0790 N   0  0  0  0  0  0
  -23.4229  -28.8004   23.3099 O   0  0  0  0  0  0
  -28.2671  -25.7683   20.1399 O   0  0  0  0  0  0
  -26.5738  -34.8903   22.4609 O   0  0  0  0  0  0
  -23.5755  -32.1179   23.6681 O   0  0  0  0  0  0
  -29.8669  -21.5039   19.6918 C   0  0  0  0  0  0
  -28.2526  -21.1974   21.2815 C   0  0  0  0  0  0
  -29.9606  -19.7928   19.4425 C   0  0  0  0  0  0
  -28.3176  -19.5313   21.0144 C   0  0  0  0  0  0
  -28.5281  -22.3769   20.1661 C   0  0  2  0  0  0
  -29.6368  -18.6004   20.5668 C   0  0  1  0  0  0
  -28.0926  -16.6668   20.4770 C   0  0  0  0  0  0
  -28.2562  -24.1624   20.6413 C   0  0  0  0  0  0
  -29.5343  -16.8609   20.3922 N   0  0  0  0  0  0
  -31.4347  -13.2730   19.1646 H   0  0  0  0  0  0
  -30.6153  -12.1512   20.1985 H   0  0  0  0  0  0
  -30.0094  -11.7570   17.7923 H   0  0  0  0  0  0
  -29.4827  -13.4177   17.6256 H   0  0  0  0  0  0
  -28.2131  -11.2206   19.2994 H   0  0  0  0  0  0
  -27.4605  -12.0523   17.9598 H   0  0  0  0  0  0
  -27.4499  -14.0607   19.1426 H   0  0  0  0  0  0
  -28.8986  -12.6397   21.4861 H   0  0  0  0  0  0
  -28.2173  -14.2266   21.6734 H   0  0  0  0  0  0
  -25.2712   -9.5596   22.4818 H   0  0  0  0  0  0
  -23.9972   -7.4536   22.7471 H   0  0  0  0  0  0
  -21.0831   -8.8706   19.8930 H   0  0  0  0  0  0
  -22.3692  -10.9615   19.6190 H   0  0  0  0  0  0
  -21.1954   -7.6125   23.9721 H   0  0  0  0  0  0
  -21.1477   -6.0508   25.9092 H   0  0  0  0  0  0
  -22.0619   -2.7599   23.2870 H   0  0  0  0  0  0
  -22.3912  -11.9661   22.4856 H   0  0  0  0  0  0
  -21.0998  -13.1112   22.2853 H   0  0  0  0  0  0
  -24.5714  -15.8005   20.4728 H   0  0  0  0  0  0
  -26.1680  -15.6136   19.9628 H   0  0  0  0  0  0
  -26.7424  -32.5100   23.0842 H   0  0  0  0  0  0
  -25.0046  -33.9364   25.0118 H   0  0  0  0  0  0
  -22.8065  -31.2598   21.3389 H   0  0  0  0  0  0
  -23.3752  -35.9527   23.3266 H   0  0  0  0  0  0
  -24.3565  -36.8895   22.2077 H   0  0  0  0  0  0
  -23.7238  -37.6383   23.6728 H   0  0  0  0  0  0
  -26.2342  -31.3375   20.6069 H   0  0  0  0  0  0
  -26.9186  -30.6732   22.0476 H   0  0  0  0  0  0
  -28.1774  -28.5617   21.2451 H   0  0  0  0  0  0
  -25.8716  -25.6716   19.0485 H   0  0  0  0  0  0
  -24.0011  -27.2207   18.9870 H   0  0  0  0  0  0
  -23.8921  -30.4912   19.3836 H   0  0  0  0  0  0
  -22.8370  -29.1846   19.8319 H   0  0  0  0  0  0
  -25.1319  -36.1753   25.0793 H   0  0  0  0  0  0
  -21.0002  -28.3376   24.1324 H   0  0  0  0  0  0
  -20.5705  -26.2382   23.3647 H   0  0  0  0  0  0
  -21.6680  -26.7448   22.1216 H   0  0  0  0  0  0
  -19.6944  -25.6304   21.1267 H   0  0  0  0  0  0
  -19.6727  -27.3197   20.6742 H   0  0  0  0  0  0
  -17.4251  -26.6711   21.4002 H   0  0  0  0  0  0
  -18.0327  -26.0136   22.9037 H   0  0  0  0  0  0
  -19.7999  -30.7342   24.2145 H   0  0  0  0  0  0
  -17.5066  -31.6265   24.5197 H   0  0  0  0  0  0
  -15.5394  -30.2953   23.7724 H   0  0  0  0  0  0
  -15.8727  -28.0832   22.7036 H   0  0  0  0  0  0
  -24.5942  -30.6975   25.7641 H   0  0  0  0  0  0
  -24.8680  -32.2975   26.4470 H   0  0  0  0  0  0
  -25.7866  -30.9185   27.0251 H   0  0  0  0  0  0
  -26.3132  -29.6553   24.1385 H   0  0  0  0  0  0
  -27.3962  -29.7251   25.5064 H   0  0  0  0  0  0
  -27.9063  -30.4055   23.9828 H   0  0  0  0  0  0
  -27.2713  -33.3739   26.1745 H   0  0  0  0  0  0
  -28.4004  -32.6615   25.0330 H   0  0  0  0  0  0
  -28.0562  -31.8574   26.5587 H   0  0  0  0  0  0
  -28.2558  -38.0070   24.7534 H   0  0  0  0  0  0
  -28.1088  -36.2611   24.6275 H   0  0  0  0  0  0
  -27.2290  -37.1375   25.8870 H   0  0  0  0  0  0
  -20.9690  -29.8704   21.6641 H   0  0  0  0  0  0
  -26.0119  -38.2762   24.1442 H   0  0  0  0  0  0
  -30.6631  -21.7616   20.3915 H   0  0  0  0  0  0
  -30.1846  -21.9601   18.7542 H   0  0  0  0  0  0
  -28.9030  -21.4053   22.1292 H   0  0  0  0  0  0
  -27.2526  -21.3993   21.6694 H   0  0  0  0  0  0
  -30.9770  -19.6084   19.0930 H   0  0  0  0  0  0
  -29.3395  -19.5878   18.5712 H   0  0  0  0  0  0
  -27.5476  -19.4076   20.2525 H   0  0  0  0  0  0
  -27.9005  -19.0690   21.9069 H   0  0  0  0  0  0
  -27.8010  -22.2297   19.3670 H   0  0  0  0  0  0
  -30.3857  -18.7270   21.3491 H   0  0  0  0  0  0
  -27.5056  -17.3900   19.9189 H   0  0  0  0  0  0
  -27.7411  -16.6145   21.5103 H   0  0  0  0  0  0
  -27.8036  -15.7804   19.9715 H   0  0  0  0  0  0
  -28.9198  -24.2563   21.4990 H   0  0  0  0  0  0
  -27.2684  -24.1173   21.0964 H   0  0  0  0  0  0
  1 25  1  0  0  0
  1 30  2  0  0  0
  1 79  1  0  0  0
  2  3  1  0  0  0
  2 25  1  0  0  0
  2 80  1  0  0  0
  2 81  1  0  0  0
  3  4  1  0  0  0
  3 82  1  0  0  0
  3 83  1  0  0  0
  4  5  1  0  0  0
  4 84  1  0  0  0
  4 85  1  0  0  0
  5  6  1  0  0  0
  5 26  1  0  0  0
  5 86  1  0  0  0
  6 25  1  0  0  0
  6 87  1  0  0  0
  6 88  1  0  0  0
  7  8  2  0  0  0
  7 26  1  0  0  0
  7 29  1  0  0  0
  8  9  1  0  0  0
  8 22  1  0  0  0
  9 10  1  0  0  0
  9 27  2  0  0  0
 10 11  2  0  0  0
 10 15  1  0  0  0
 11 12  1  0  0  0
 11 89  1  0  0  0
 12 13  2  0  0  0
 12 90  1  0  0  0
 13 14  1  0  0  0
 13 31  1  0  0  0
 14 15  2  0  0  0
 14 91  1  0  0  0
 15 92  1  0  0  0
 16 17  2  0  0  0
 16 21  1  0  0  0
 16 31  1  0  0  0
 17 18  1  0  0  0
 17 93  1  0  0  0
 18 19  2  0  0  0
 18 94  1  0  0  0
 19 20  1  0  0  0
 19 24  1  0  0  0
 20 21  2  0  0  0
 20 95  1  0  0  0
 21 23  1  0  0  0
 22 28  1  0  0  0
 22 32  2  0  0  0
 26 27  1  0  0  0
 28 96  1  0  0  0
 28 97  1  0  0  0
 29 98  1  0  0  0
 29 99  1  0  0  0
 33 34  1  0  0  0
 33 66  1  0  0  0
 33 70  2  0  0  0
 34 36  1  0  0  0
 34 59  1  0  0  0
 34100  1  0  0  0
 35 44  2  0  0  0
 35 45  1  0  0  0
 35 68  1  0  0  0
 36 56  1  0  0  0
 36101  1  0  0  0
 37 39  1  0  0  0
 37 47  1  0  0  0
 37 66  1  0  0  0
 37102  1  0  0  0
 38 43  2  0  0  0
 38 46  1  0  0  0
 38 47  1  0  0  0
 39 64  1  0  0  0
 39 67  2  0  0  0
 40 52  1  0  0  0
 40 53  2  0  0  0
 40 58  1  0  0  0
 41103  1  0  0  0
 41104  1  0  0  0
 41105  1  0  0  0
 41 48  1  0  0  0
 42 43  1  0  0  0
 42 66  1  0  0  0
 42106  1  0  0  0
 42107  1  0  0  0
 43 44  1  0  0  0
 44108  1  0  0  0
 45 46  2  0  0  0
 45109  1  0  0  0
 46110  1  0  0  0
 47111  1  0  0  0
 47112  1  0  0  0
 48 56  1  0  0  0
 48 65  1  0  0  0
 48113  1  0  0  0
 49 50  1  0  0  0
 49 53  1  0  0  0
 49 64  1  0  0  0
 49114  1  0  0  0
 50 51  1  0  0  0
 50115  1  0  0  0
 50116  1  0  0  0
 51 52  1  0  0  0
 51117  1  0  0  0
 51118  1  0  0  0
 52119  1  0  0  0
 52120  1  0  0  0
 53 54  1  0  0  0
 54 55  2  0  0  0
 54121  1  0  0  0
 55 57  1  0  0  0
 55122  1  0  0  0
 56 69  2  0  0  0
 57 58  2  0  0  0
 57123  1  0  0  0
 58124  1  0  0  0
 59 60  1  0  0  0
 59 61  1  0  0  0
 59 62  1  0  0  0
 60125  1  0  0  0
 60126  1  0  0  0
 60127  1  0  0  0
 61128  1  0  0  0
 61129  1  0  0  0
 61130  1  0  0  0
 62131  1  0  0  0
 62132  1  0  0  0
 62133  1  0  0  0
 63 65  1  0  0  0
 63134  1  0  0  0
 63135  1  0  0  0
 63136  1  0  0  0
 64137  1  0  0  0
 65138  1  0  0  0
 68 78  1  0  0  0
 71 73  1  0  0  0
 71 75  1  0  0  0
 71139  1  0  0  0
 71140  1  0  0  0
 72 74  1  0  0  0
 72 75  1  0  0  0
 72141  1  0  0  0
 72142  1  0  0  0
 73 76  1  0  0  0
 73143  1  0  0  0
 73144  1  0  0  0
 74 76  1  0  0  0
 74145  1  0  0  0
 74146  1  0  0  0
 75 78  1  0  0  0
 75147  1  0  0  0
 76 79  1  0  0  0
 76148  1  0  0  0
 77 79  1  0  0  0
 77149  1  0  0  0
 77150  1  0  0  0
 77151  1  0  0  0
 78152  1  0  0  0
 78153  1  0  0  0
M  ISO  4   1 100  68 101  78 101  79 100
M  END
> <chiral flag>
0

> <version>
0

> <s_m_source_file>
/data/baiqing/PycharmProjects/Reinvent-master-3.2/result/LINK_invent/BTK/process_docking_weight1_custom_sum_contain_oxygen_bond_distance_aromatic_linkinvent_7_9_3/rearranged_h_0019.sdf

> <i_m_source_file_index>
2

> <r_mmod_Potential_Energy-OPLS-2005>
2099.97119140625

> <r_mmod_Stretch_Energy-OPLS-2005>
760.698425292969

> <r_mmod_Bend_Energy-OPLS-2005>
677.148803710938

> <r_mmod_Torsional_Energy-OPLS-2005>
310.583709716797

> <r_mmod_Improper_Torsional_Energy-OPLS-2005>
4.66689682006836

> <r_mmod_Van_der_Waal_Energy-OPLS-2005>
143.853713989258

> <r_mmod_Electrostatic_Energy-OPLS-2005>
-268.367919921875

> <r_mmod_Solvation_Energy-OPLS-2005>
-200.562866210938

> <b_mmod_Minimization_Converged-OPLS-2005>
0

> <r_mmod_RMS_Derivative-OPLS-2005>
4.53907871246338

$$$$
2
                    3D
 Structure written by MMmdl.
153161  0  0  1  0            999 V2000
  -30.2980  -15.6017   20.3309 C   0  0  0  0  0  0
  -30.4308  -13.0518   19.5458 C   0  0  0  0  0  0
  -29.5534  -12.6523   18.3244 C   0  0  0  0  0  0
  -28.1233  -12.3007   18.7632 C   0  0  0  0  0  0
  -27.6001  -13.3039   19.8163 C   0  0  2  0  0  0
  -28.6165  -13.6137   20.9407 C   0  0  0  0  0  0
  -25.2339  -13.8278   20.5779 C   0  0  0  0  0  0
  -24.1724  -13.0433   20.9281 C   0  0  0  0  0  0
  -24.6420  -11.6942   20.8760 C   0  0  0  0  0  0
  -23.9121  -10.4290   21.0392 C   0  0  0  0  0  0
  -24.3656   -9.4203   21.9176 C   0  0  0  0  0  0
  -23.6317   -8.2244   22.0751 C   0  0  0  0  0  0
  -22.4297   -8.0287   21.3543 C   0  0  0  0  0  0
  -21.9942   -9.0262   20.4644 C   0  0  0  0  0  0
  -22.7284  -10.2133   20.3050 C   0  0  0  0  0  0
  -21.6861   -6.0741   22.5280 C   0  0  0  0  0  0
  -21.4019   -6.5641   23.8214 C   0  0  0  0  0  0
  -21.3661   -5.6792   24.9174 C   0  0  0  0  0  0
  -21.6043   -4.3055   24.7223 C   0  0  0  0  0  0
  -21.8819   -3.8150   23.4344 C   0  0  0  0  0  0
  -21.9196   -4.6968   22.3401 C   0  0  0  0  0  0
  -22.7737  -13.5167   21.1918 C   0  0  0  0  0  0
  -22.1663   -4.2153   21.0978 F   0  0  0  0  0  0
  -21.5628   -3.4537   25.7735 F   0  0  0  0  0  0
  -29.8009  -14.2276   20.2978 N   0  0  0  0  0  0
  -26.2787  -12.9602   20.3226 N   0  0  0  0  0  0
  -25.9366  -11.6676   20.5697 N   0  0  0  0  0  0
  -22.0400  -12.8144   22.0470 N   0  0  0  0  0  0
  -25.3927  -15.2018   20.4209 N   0  0  0  0  0  0
  -31.5269  -15.5741   20.1272 O   0  0  0  0  0  0
  -21.6652   -6.8889   21.4244 O   0  0  0  0  0  0
  -22.3410  -14.5464   20.6754 O   0  0  0  0  0  0
  -24.6831  -31.8005   23.1520 C   0  0  0  0  0  0
  -25.9416  -32.4470   23.8062 C   0  0  1  0  0  0
  -27.2270  -26.7126   20.2116 C   0  0  0  0  0  0
  -25.5999  -33.8295   24.1952 N   0  0  0  0  0  0
  -23.5090  -30.4026   21.5058 C   0  0  2  0  0  0
  -24.9673  -28.7466   20.1166 C   0  0  0  0  0  0
  -22.7764  -29.4315   22.4712 C   0  0  0  0  0  0
  -18.0340  -28.1428   22.8453 C   0  0  0  0  0  0
  -24.1494  -36.7151   23.2652 C   0  0  0  0  0  0
  -26.0893  -30.5362   21.4157 C   0  0  0  0  0  0
  -26.1558  -29.1023   20.7655 C   0  0  0  0  0  0
  -27.2712  -28.1127   20.7822 C   0  0  0  0  0  0
  -26.0070  -26.5657   19.5039 C   0  0  0  0  0  0
  -24.9313  -27.5036   19.4624 C   0  0  0  0  0  0
  -23.7628  -29.7007   20.1405 C   0  0  0  0  0  0
  -25.4143  -36.2893   24.0284 C   0  0  1  0  0  0
  -20.5975  -28.3784   23.1150 C   0  0  2  0  0  0
  -20.6806  -26.9441   22.5417 C   0  0  0  0  0  0
  -19.5789  -26.6374   21.5223 C   0  0  0  0  0  0
  -18.1964  -26.7960   22.1608 C   0  0  0  0  0  0
  -19.1606  -28.8931   23.2782 C   0  0  0  0  0  0
  -18.9511  -30.1513   23.8830 C   0  0  0  0  0  0
  -17.6502  -30.6609   24.0556 C   0  0  0  0  0  0
  -25.9124  -34.9285   23.4953 C   0  0  0  0  0  0
  -16.5391  -29.9089   23.6354 C   0  0  0  0  0  0
  -16.7320  -28.6514   23.0364 C   0  0  0  0  0  0
  -26.4597  -31.6501   25.0680 C   0  0  0  0  0  0
  -25.3662  -31.3835   26.1298 C   0  0  0  0  0  0
  -27.0516  -30.2833   24.6581 C   0  0  0  0  0  0
  -27.6058  -32.4356   25.7487 C   0  0  0  0  0  0
  -27.5566  -37.1730   24.8463 C   0  0  0  0  0  0
  -21.4413  -29.3027   22.3465 N   0  0  0  0  0  0
  -26.4267  -37.3655   23.9414 N   0  0  0  0  0  0
  -24.7838  -30.9457   22.0770 N   0  0  0  0  0  0
  -23.4210  -28.7916   23.3054 O   0  0  0  0  0  0
  -28.1786  -25.4884   20.2976 O   0  0  0  0  0  0
  -26.5761  -34.8863   22.4568 O   0  0  0  0  0  0
  -23.5850  -32.1073   23.6478 O   0  0  0  0  0  0
  -28.9860  -21.0792   19.1925 C   0  0  0  0  0  0
  -28.6340  -22.0687   20.2519 C   0  0  0  0  0  0
  -29.3204  -19.5837   19.2293 C   0  0  0  0  0  0
  -28.7150  -21.1248   21.4081 C   0  0  0  0  0  0
  -29.0447  -19.6139   21.4611 C   0  0  0  0  0  0
  -29.3943  -18.6383   20.3774 C   0  0  0  0  0  0
  -29.5499  -18.9383   17.8765 C   0  0  0  0  0  0
  -28.3590  -21.7878   22.7334 C   0  0  0  0  0  0
  -28.9791  -18.9698   22.8412 C   0  0  0  0  0  0
  -27.8851  -23.7782   20.0781 C   0  0  0  0  0  0
  -29.4746  -16.9157   20.4372 N   0  0  0  0  0  0
  -31.4273  -13.3118   19.1870 H   0  0  0  0  0  0
  -30.5822  -12.1987   20.2093 H   0  0  0  0  0  0
  -30.0012  -11.8138   17.7894 H   0  0  0  0  0  0
  -29.5215  -13.4847   17.6199 H   0  0  0  0  0  0
  -28.1441  -11.2992   19.1946 H   0  0  0  0  0  0
  -27.4549  -12.2528   17.9025 H   0  0  0  0  0  0
  -27.4708  -14.2320   19.2579 H   0  0  0  0  0  0
  -28.8647  -12.7230   21.5196 H   0  0  0  0  0  0
  -28.1888  -14.3288   21.6452 H   0  0  0  0  0  0
  -25.2795   -9.5676   22.4762 H   0  0  0  0  0  0
  -24.0018   -7.4636   22.7474 H   0  0  0  0  0  0
  -21.0869   -8.8789   19.8954 H   0  0  0  0  0  0
  -22.3740  -10.9674   19.6163 H   0  0  0  0  0  0
  -21.2015   -7.6150   23.9720 H   0  0  0  0  0  0
  -21.1480   -6.0520   25.9076 H   0  0  0  0  0  0
  -22.0598   -2.7612   23.2845 H   0  0  0  0  0  0
  -22.4045  -11.9828   22.4875 H   0  0  0  0  0  0
  -21.1008  -13.1139   22.2661 H   0  0  0  0  0  0
  -24.6157  -15.8451   20.5274 H   0  0  0  0  0  0
  -26.2217  -15.6427   20.0460 H   0  0  0  0  0  0
  -26.7493  -32.4944   23.0771 H   0  0  0  0  0  0
  -25.0080  -33.9340   25.0061 H   0  0  0  0  0  0
  -22.8339  -31.2397   21.3165 H   0  0  0  0  0  0
  -23.3780  -35.9456   23.3253 H   0  0  0  0  0  0
  -24.3561  -36.8871   22.2078 H   0  0  0  0  0  0
  -23.7230  -37.6304   23.6767 H   0  0  0  0  0  0
  -26.2919  -31.2617   20.6268 H   0  0  0  0  0  0
  -26.9400  -30.6033   22.0812 H   0  0  0  0  0  0
  -28.1630  -28.3891   21.3268 H   0  0  0  0  0  0
  -25.8396  -25.6238   19.0014 H   0  0  0  0  0  0
  -24.0344  -27.2222   18.9277 H   0  0  0  0  0  0
  -23.9377  -30.4614   19.3790 H   0  0  0  0  0  0
  -22.8679  -29.1669   19.8157 H   0  0  0  0  0  0
  -25.1350  -36.1654   25.0774 H   0  0  0  0  0  0
  -21.0059  -28.3416   24.1275 H   0  0  0  0  0  0
  -20.5665  -26.2409   23.3681 H   0  0  0  0  0  0
  -21.6671  -26.7381   22.1243 H   0  0  0  0  0  0
  -19.6947  -25.6265   21.1301 H   0  0  0  0  0  0
  -19.6748  -27.3144   20.6724 H   0  0  0  0  0  0
  -17.4245  -26.6726   21.3994 H   0  0  0  0  0  0
  -18.0328  -26.0112   22.9008 H   0  0  0  0  0  0
  -19.7986  -30.7347   24.2170 H   0  0  0  0  0  0
  -17.5051  -31.6279   24.5174 H   0  0  0  0  0  0
  -15.5388  -30.2968   23.7721 H   0  0  0  0  0  0
  -15.8720  -28.0811   22.7115 H   0  0  0  0  0  0
  -24.5911  -30.7097   25.7626 H   0  0  0  0  0  0
  -24.8771  -32.3054   26.4456 H   0  0  0  0  0  0
  -25.7843  -30.9209   27.0246 H   0  0  0  0  0  0
  -26.3224  -29.6458   24.1571 H   0  0  0  0  0  0
  -27.3931  -29.7274   25.5324 H   0  0  0  0  0  0
  -27.9212  -30.3948   24.0103 H   0  0  0  0  0  0
  -27.2621  -33.3750   26.1832 H   0  0  0  0  0  0
  -28.3981  -32.6765   25.0386 H   0  0  0  0  0  0
  -28.0596  -31.8634   26.5589 H   0  0  0  0  0  0
  -28.2547  -38.0057   24.7508 H   0  0  0  0  0  0
  -28.1094  -36.2582   24.6282 H   0  0  0  0  0  0
  -27.2287  -37.1355   25.8865 H   0  0  0  0  0  0
  -20.9718  -29.8679   21.6528 H   0  0  0  0  0  0
  -26.0093  -38.2700   24.1438 H   0  0  0  0  0  0
  -28.9395  -21.5006   18.1980 H   0  0  0  0  0  0
  -29.8652  -19.6683   17.1308 H   0  0  0  0  0  0
  -28.6334  -18.4634   17.5257 H   0  0  0  0  0  0
  -30.3259  -18.1746   17.9385 H   0  0  0  0  0  0
  -28.1879  -22.8585   22.6253 H   0  0  0  0  0  0
  -29.1673  -21.6760   23.4557 H   0  0  0  0  0  0
  -27.4508  -21.3565   23.1544 H   0  0  0  0  0  0
  -29.6848  -19.4442   23.5226 H   0  0  0  0  0  0
  -29.2315  -17.9107   22.8224 H   0  0  0  0  0  0
  -27.9771  -19.0534   23.2617 H   0  0  0  0  0  0
  -26.9546  -23.6544   20.6324 H   0  0  0  0  0  0
  -27.5591  -23.7551   19.0383 H   0  0  0  0  0  0
  -28.5469  -16.5838   20.6566 H   0  0  0  0  0  0
  1 25  1  0  0  0
  1 30  2  0  0  0
  1 81  1  0  0  0
  2  3  1  0  0  0
  2 25  1  0  0  0
  2 82  1  0  0  0
  2 83  1  0  0  0
  3  4  1  0  0  0
  3 84  1  0  0  0
  3 85  1  0  0  0
  4  5  1  0  0  0
  4 86  1  0  0  0
  4 87  1  0  0  0
  5  6  1  0  0  0
  5 26  1  0  0  0
  5 88  1  0  0  0
  6 25  1  0  0  0
  6 89  1  0  0  0
  6 90  1  0  0  0
  7  8  2  0  0  0
  7 26  1  0  0  0
  7 29  1  0  0  0
  8  9  1  0  0  0
  8 22  1  0  0  0
  9 10  1  0  0  0
  9 27  2  0  0  0
 10 11  2  0  0  0
 10 15  1  0  0  0
 11 12  1  0  0  0
 11 91  1  0  0  0
 12 13  2  0  0  0
 12 92  1  0  0  0
 13 14  1  0  0  0
 13 31  1  0  0  0
 14 15  2  0  0  0
 14 93  1  0  0  0
 15 94  1  0  0  0
 16 17  2  0  0  0
 16 21  1  0  0  0
 16 31  1  0  0  0
 17 18  1  0  0  0
 17 95  1  0  0  0
 18 19  2  0  0  0
 18 96  1  0  0  0
 19 20  1  0  0  0
 19 24  1  0  0  0
 20 21  2  0  0  0
 20 97  1  0  0  0
 21 23  1  0  0  0
 22 28  1  0  0  0
 22 32  2  0  0  0
 26 27  1  0  0  0
 28 98  1  0  0  0
 28 99  1  0  0  0
 29100  1  0  0  0
 29101  1  0  0  0
 33 34  1  0  0  0
 33 66  1  0  0  0
 33 70  2  0  0  0
 34 36  1  0  0  0
 34 59  1  0  0  0
 34102  1  0  0  0
 35 44  2  0  0  0
 35 45  1  0  0  0
 35 68  1  0  0  0
 36 56  1  0  0  0
 36103  1  0  0  0
 37 39  1  0  0  0
 37 47  1  0  0  0
 37 66  1  0  0  0
 37104  1  0  0  0
 38 43  2  0  0  0
 38 46  1  0  0  0
 38 47  1  0  0  0
 39 64  1  0  0  0
 39 67  2  0  0  0
 40 52  1  0  0  0
 40 53  2  0  0  0
 40 58  1  0  0  0
 41105  1  0  0  0
 41106  1  0  0  0
 41107  1  0  0  0
 41 48  1  0  0  0
 42 43  1  0  0  0
 42 66  1  0  0  0
 42108  1  0  0  0
 42109  1  0  0  0
 43 44  1  0  0  0
 44110  1  0  0  0
 45 46  2  0  0  0
 45111  1  0  0  0
 46112  1  0  0  0
 47113  1  0  0  0
 47114  1  0  0  0
 48 56  1  0  0  0
 48 65  1  0  0  0
 48115  1  0  0  0
 49 50  1  0  0  0
 49 53  1  0  0  0
 49 64  1  0  0  0
 49116  1  0  0  0
 50 51  1  0  0  0
 50117  1  0  0  0
 50118  1  0  0  0
 51 52  1  0  0  0
 51119  1  0  0  0
 51120  1  0  0  0
 52121  1  0  0  0
 52122  1  0  0  0
 53 54  1  0  0  0
 54 55  2  0  0  0
 54123  1  0  0  0
 55 57  1  0  0  0
 55124  1  0  0  0
 56 69  2  0  0  0
 57 58  2  0  0  0
 57125  1  0  0  0
 58126  1  0  0  0
 59 60  1  0  0  0
 59 61  1  0  0  0
 59 62  1  0  0  0
 60127  1  0  0  0
 60128  1  0  0  0
 60129  1  0  0  0
 61130  1  0  0  0
 61131  1  0  0  0
 61132  1  0  0  0
 62133  1  0  0  0
 62134  1  0  0  0
 62135  1  0  0  0
 63 65  1  0  0  0
 63136  1  0  0  0
 63137  1  0  0  0
 63138  1  0  0  0
 64139  1  0  0  0
 65140  1  0  0  0
 68 80  1  0  0  0
 71 72  2  0  0  0
 71 73  1  0  0  0
 71141  1  0  0  0
 72 74  1  0  0  0
 72 80  1  0  0  0
 73 76  2  0  0  0
 73 77  1  0  0  0
 74 75  2  0  0  0
 74 78  1  0  0  0
 75 76  1  0  0  0
 75 79  1  0  0  0
 76 81  1  0  0  0
 77142  1  0  0  0
 77143  1  0  0  0
 77144  1  0  0  0
 78145  1  0  0  0
 78146  1  0  0  0
 78147  1  0  0  0
 79148  1  0  0  0
 79149  1  0  0  0
 79150  1  0  0  0
 80151  1  0  0  0
 80152  1  0  0  0
 81153  1  0  0  0
M  ISO  4   1 100  68 101  80 101  81 100
M  END
> <chiral flag>
0

> <version>
0

> <s_m_source_file>
/data/baiqing/PycharmProjects/Reinvent-master-3.2/result/LINK_invent/BTK/process_docking_weight1_custom_sum_contain_oxygen_bond_distance_aromatic_linkinvent_7_9_3/rearranged_h_0019.sdf

> <i_m_source_file_index>
3

> <r_mmod_Potential_Energy-OPLS-2005>
2247.7802734375

> <r_mmod_Stretch_Energy-OPLS-2005>
928.017883300781

> <r_mmod_Bend_Energy-OPLS-2005>
643.117004394531

> <r_mmod_Torsional_Energy-OPLS-2005>
258.969970703125

> <r_mmod_Improper_Torsional_Energy-OPLS-2005>
9.75687694549561

> <r_mmod_Van_der_Waal_Energy-OPLS-2005>
135.254302978516

> <r_mmod_Electrostatic_Energy-OPLS-2005>
-387.425537109375

> <r_mmod_Solvation_Energy-OPLS-2005>
-209.918426513672

> <b_mmod_Minimization_Converged-OPLS-2005>
0

> <r_mmod_RMS_Derivative-OPLS-2005>
0.535999119281769

$$$$
3
                    3D
 Structure written by MMmdl.
168176  0  0  1  0            999 V2000
  -30.5509  -14.8484   20.4559 C   0  0  0  0  0  0
  -30.4582  -12.5327   19.4570 C   0  0  0  0  0  0
  -29.5249  -12.5537   18.2247 C   0  0  0  0  0  0
  -28.0486  -12.3544   18.6287 C   0  0  0  0  0  0
  -27.6486  -13.2295   19.8475 C   0  0  2  0  0  0
  -28.7047  -13.1304   20.9678 C   0  0  0  0  0  0
  -25.2503  -13.8130   20.5560 C   0  0  0  0  0  0
  -24.1814  -13.0409   20.9153 C   0  0  0  0  0  0
  -24.6412  -11.6892   20.8760 C   0  0  0  0  0  0
  -23.9069  -10.4262   21.0422 C   0  0  0  0  0  0
  -24.3604   -9.4179   21.9214 C   0  0  0  0  0  0
  -23.6267   -8.2216   22.0791 C   0  0  0  0  0  0
  -22.4266   -8.0247   21.3556 C   0  0  0  0  0  0
  -21.9910   -9.0225   20.4659 C   0  0  0  0  0  0
  -22.7250  -10.2096   20.3072 C   0  0  0  0  0  0
  -21.6842   -6.0718   22.5281 C   0  0  0  0  0  0
  -21.4020   -6.5626   23.8224 C   0  0  0  0  0  0
  -21.3693   -5.6785   24.9198 C   0  0  0  0  0  0
  -21.6038   -4.3047   24.7255 C   0  0  0  0  0  0
  -21.8791   -3.8129   23.4376 C   0  0  0  0  0  0
  -21.9170   -4.6942   22.3419 C   0  0  0  0  0  0
  -22.7832  -13.5203   21.1745 C   0  0  0  0  0  0
  -22.1622   -4.2120   21.1002 F   0  0  0  0  0  0
  -21.5662   -3.4531   25.7768 F   0  0  0  0  0  0
  -29.9844  -13.5797   20.3980 N   0  0  0  0  0  0
  -26.2979  -12.9354   20.3226 N   0  0  0  0  0  0
  -25.9349  -11.6509   20.5745 N   0  0  0  0  0  0
  -22.0419  -12.8282   22.0314 N   0  0  0  0  0  0
  -25.4061  -15.1842   20.3821 N   0  0  0  0  0  0
  -31.7456  -14.9605   20.1603 O   0  0  0  0  0  0
  -21.6616   -6.8857   21.4246 O   0  0  0  0  0  0
  -22.3529  -14.5461   20.6498 O   0  0  0  0  0  0
  -24.6383  -31.8507   23.1915 C   0  0  0  0  0  0
  -25.9210  -32.4700   23.8257 C   0  0  1  0  0  0
  -27.2368  -27.2085   20.1201 C   0  0  0  0  0  0
  -25.6008  -33.8504   24.2230 N   0  0  0  0  0  0
  -23.4362  -30.4744   21.5349 C   0  0  2  0  0  0
  -24.8879  -28.9116   20.1039 C   0  0  0  0  0  0
  -22.7497  -29.4633   22.4871 C   0  0  0  0  0  0
  -18.0313  -28.1399   22.8483 C   0  0  0  0  0  0
  -24.1507  -36.7252   23.2633 C   0  0  0  0  0  0
  -25.9857  -30.7474   21.3780 C   0  0  0  0  0  0
  -26.0612  -29.3620   20.7223 C   0  0  0  0  0  0
  -27.2318  -28.5227   20.7244 C   0  0  0  0  0  0
  -26.0385  -26.8526   19.4590 C   0  0  0  0  0  0
  -24.8880  -27.6667   19.4598 C   0  0  0  0  0  0
  -23.6556  -29.7997   20.1538 C   0  0  0  0  0  0
  -25.4128  -36.3030   24.0331 C   0  0  1  0  0  0
  -20.5919  -28.3738   23.1256 C   0  0  2  0  0  0
  -20.6820  -26.9462   22.5412 C   0  0  0  0  0  0
  -19.5786  -26.6388   21.5237 C   0  0  0  0  0  0
  -18.1955  -26.7946   22.1619 C   0  0  0  0  0  0
  -19.1557  -28.8888   23.2859 C   0  0  0  0  0  0
  -18.9465  -30.1483   23.8888 C   0  0  0  0  0  0
  -17.6456  -30.6601   24.0559 C   0  0  0  0  0  0
  -25.9086  -34.9406   23.5074 C   0  0  0  0  0  0
  -16.5360  -29.9089   23.6338 C   0  0  0  0  0  0
  -16.7291  -28.6511   23.0363 C   0  0  0  0  0  0
  -26.4550  -31.6507   25.0652 C   0  0  0  0  0  0
  -25.3722  -31.3710   26.1336 C   0  0  0  0  0  0
  -27.0429  -30.2910   24.6198 C   0  0  0  0  0  0
  -27.6099  -32.4226   25.7449 C   0  0  0  0  0  0
  -27.5584  -37.1775   24.8457 C   0  0  0  0  0  0
  -21.4200  -29.3074   22.3597 N   0  0  0  0  0  0
  -26.4287  -37.3742   23.9415 N   0  0  0  0  0  0
  -24.7063  -31.0429   22.0913 N   0  0  0  0  0  0
  -23.4181  -28.8187   23.3008 O   0  0  0  0  0  0
  -28.3199  -26.2700   20.1762 O   0  0  0  0  0  0
  -26.5615  -34.8907   22.4617 O   0  0  0  0  0  0
  -23.5532  -32.1378   23.7192 O   0  0  0  0  0  0
  -28.6261  -19.6882   21.3184 C   0  0  0  0  0  0
  -29.1976  -20.4923   20.2969 C   0  0  0  0  0  0
  -28.7826  -18.2597   21.4885 C   0  0  0  0  0  0
  -30.1224  -19.7426   19.4906 C   0  0  0  0  0  0
  -30.3817  -18.3094   19.6722 C   0  0  0  0  0  0
  -29.6813  -17.4786   20.6400 C   0  0  0  0  0  0
  -30.7994  -20.4927   18.3475 C   0  0  0  0  0  0
  -31.4087  -17.6286   18.7652 C   0  0  0  0  0  0
  -26.3626  -18.0014   22.1664 C   0  0  0  0  0  0
  -28.0769  -18.3272   23.9591 C   0  0  0  0  0  0
  -27.8739  -16.1629   22.8275 C   0  0  0  0  0  0
  -28.5398  -21.9556   19.9621 C   0  0  0  0  0  0
  -29.0778  -23.4969   20.2325 C   0  0  0  0  0  0
  -28.0924  -24.7839   19.8721 C   0  0  0  0  0  0
  -27.8175  -17.6797   22.5780 C   0  0  0  0  0  0
  -29.7041  -15.9494   20.6896 N   0  0  0  0  0  0
  -31.4864  -12.7112   19.1410 H   0  0  0  0  0  0
  -30.4626  -11.5521   19.9352 H   0  0  0  0  0  0
  -29.8327  -11.7901   17.5096 H   0  0  0  0  0  0
  -29.6258  -13.5129   17.7121 H   0  0  0  0  0  0
  -27.9077  -11.3005   18.8673 H   0  0  0  0  0  0
  -27.4041  -12.5633   17.7747 H   0  0  0  0  0  0
  -27.6420  -14.2595   19.4918 H   0  0  0  0  0  0
  -28.7772  -12.0977   21.3152 H   0  0  0  0  0  0
  -28.4330  -13.7072   21.8452 H   0  0  0  0  0  0
  -25.2727   -9.5666   22.4839 H   0  0  0  0  0  0
  -23.9959   -7.4619   22.7535 H   0  0  0  0  0  0
  -21.0845   -8.8718   19.8979 H   0  0  0  0  0  0
  -22.3673  -10.9637   19.6190 H   0  0  0  0  0  0
  -21.1989   -7.6123   23.9738 H   0  0  0  0  0  0
  -21.1582   -6.0519   25.9106 H   0  0  0  0  0  0
  -22.0540   -2.7581   23.2894 H   0  0  0  0  0  0
  -22.3952  -12.0025   22.4902 H   0  0  0  0  0  0
  -21.1038  -13.1421   22.2328 H   0  0  0  0  0  0
  -24.6458  -15.8398   20.5366 H   0  0  0  0  0  0
  -26.2381  -15.6314   20.0262 H   0  0  0  0  0  0
  -26.7270  -32.5361   23.0988 H   0  0  0  0  0  0
  -25.0199  -33.9623   25.0407 H   0  0  0  0  0  0
  -22.7380  -31.3005   21.3828 H   0  0  0  0  0  0
  -23.3789  -35.9559   23.3249 H   0  0  0  0  0  0
  -24.3619  -36.8917   22.2057 H   0  0  0  0  0  0
  -23.7254  -37.6438   23.6682 H   0  0  0  0  0  0
  -26.1212  -31.5049   20.6043 H   0  0  0  0  0  0
  -26.8648  -30.8076   22.0073 H   0  0  0  0  0  0
  -28.1205  -28.8640   21.2381 H   0  0  0  0  0  0
  -25.9627  -25.9115   18.9376 H   0  0  0  0  0  0
  -23.9961  -27.3225   18.9523 H   0  0  0  0  0  0
  -23.7628  -30.5724   19.3916 H   0  0  0  0  0  0
  -22.7756  -29.2241   19.8566 H   0  0  0  0  0  0
  -25.1313  -36.1840   25.0822 H   0  0  0  0  0  0
  -21.0035  -28.3370   24.1364 H   0  0  0  0  0  0
  -20.5794  -26.2356   23.3627 H   0  0  0  0  0  0
  -21.6672  -26.7521   22.1151 H   0  0  0  0  0  0
  -19.6955  -25.6290   21.1284 H   0  0  0  0  0  0
  -19.6742  -27.3181   20.6757 H   0  0  0  0  0  0
  -17.4252  -26.6738   21.3993 H   0  0  0  0  0  0
  -18.0314  -26.0082   22.8993 H   0  0  0  0  0  0
  -19.7943  -30.7301   24.2250 H   0  0  0  0  0  0
  -17.5024  -31.6292   24.5126 H   0  0  0  0  0  0
  -15.5363  -30.2978   23.7694 H   0  0  0  0  0  0
  -15.8689  -28.0825   22.7088 H   0  0  0  0  0  0
  -24.5900  -30.7078   25.7639 H   0  0  0  0  0  0
  -24.8910  -32.2904   26.4665 H   0  0  0  0  0  0
  -25.7968  -30.8912   27.0155 H   0  0  0  0  0  0
  -26.3052  -29.6588   24.1248 H   0  0  0  0  0  0
  -27.4133  -29.7246   25.4755 H   0  0  0  0  0  0
  -27.8901  -30.4182   23.9457 H   0  0  0  0  0  0
  -27.2712  -33.3527   26.2020 H   0  0  0  0  0  0
  -28.3918  -32.6753   25.0271 H   0  0  0  0  0  0
  -28.0734  -31.8310   26.5359 H   0  0  0  0  0  0
  -28.2556  -38.0108   24.7522 H   0  0  0  0  0  0
  -28.1111  -36.2637   24.6232 H   0  0  0  0  0  0
  -27.2296  -37.1353   25.8852 H   0  0  0  0  0  0
  -20.9402  -29.8734   21.6733 H   0  0  0  0  0  0
  -26.0151  -38.2805   24.1420 H   0  0  0  0  0  0
  -27.9211  -20.2045   21.9535 H   0  0  0  0  0  0
  -30.5666  -21.5554   18.3460 H   0  0  0  0  0  0
  -30.4796  -20.0903   17.3860 H   0  0  0  0  0  0
  -31.8848  -20.4131   18.4089 H   0  0  0  0  0  0
  -31.7310  -18.2131   17.9041 H   0  0  0  0  0  0
  -31.0134  -16.7040   18.3491 H   0  0  0  0  0  0
  -32.3050  -17.3968   19.3448 H   0  0  0  0  0  0
  -26.1183  -19.0576   22.2800 H   0  0  0  0  0  0
  -25.6387  -17.4517   22.7672 H   0  0  0  0  0  0
  -26.1780  -17.7452   21.1230 H   0  0  0  0  0  0
  -27.9086  -19.4025   23.9655 H   0  0  0  0  0  0
  -29.0948  -18.1503   24.3069 H   0  0  0  0  0  0
  -27.3958  -17.9244   24.7111 H   0  0  0  0  0  0
  -27.5364  -15.6245   21.9495 H   0  0  0  0  0  0
  -27.1981  -15.8579   23.6266 H   0  0  0  0  0  0
  -28.8679  -15.8243   23.1215 H   0  0  0  0  0  0
  -27.5754  -21.9300   20.4705 H   0  0  0  0  0  0
  -28.2627  -21.9064   18.9087 H   0  0  0  0  0  0
  -30.0027  -23.6325   19.6713 H   0  0  0  0  0  0
  -29.3598  -23.5767   21.2810 H   0  0  0  0  0  0
  -27.1291  -24.5299   20.3121 H   0  0  0  0  0  0
  -27.9345  -24.7383   18.7930 H   0  0  0  0  0  0
  -28.8167  -15.5930   21.0116 H   0  0  0  0  0  0
  1 25  1  0  0  0
  1 30  2  0  0  0
  1 86  1  0  0  0
  2  3  1  0  0  0
  2 25  1  0  0  0
  2 87  1  0  0  0
  2 88  1  0  0  0
  3  4  1  0  0  0
  3 89  1  0  0  0
  3 90  1  0  0  0
  4  5  1  0  0  0
  4 91  1  0  0  0
  4 92  1  0  0  0
  5  6  1  0  0  0
  5 26  1  0  0  0
  5 93  1  0  0  0
  6 25  1  0  0  0
  6 94  1  0  0  0
  6 95  1  0  0  0
  7  8  2  0  0  0
  7 26  1  0  0  0
  7 29  1  0  0  0
  8  9  1  0  0  0
  8 22  1  0  0  0
  9 10  1  0  0  0
  9 27  2  0  0  0
 10 11  2  0  0  0
 10 15  1  0  0  0
 11 12  1  0  0  0
 11 96  1  0  0  0
 12 13  2  0  0  0
 12 97  1  0  0  0
 13 14  1  0  0  0
 13 31  1  0  0  0
 14 15  2  0  0  0
 14 98  1  0  0  0
 15 99  1  0  0  0
 16 17  2  0  0  0
 16 21  1  0  0  0
 16 31  1  0  0  0
 17 18  1  0  0  0
 17100  1  0  0  0
 18 19  2  0  0  0
 18101  1  0  0  0
 19 20  1  0  0  0
 19 24  1  0  0  0
 20 21  2  0  0  0
 20102  1  0  0  0
 21 23  1  0  0  0
 22 28  1  0  0  0
 22 32  2  0  0  0
 26 27  1  0  0  0
 28103  1  0  0  0
 28104  1  0  0  0
 29105  1  0  0  0
 29106  1  0  0  0
 33 34  1  0  0  0
 33 66  1  0  0  0
 33 70  2  0  0  0
 34 36  1  0  0  0
 34 59  1  0  0  0
 34107  1  0  0  0
 35 44  2  0  0  0
 35 45  1  0  0  0
 35 68  1  0  0  0
 36 56  1  0  0  0
 36108  1  0  0  0
 37 39  1  0  0  0
 37 47  1  0  0  0
 37 66  1  0  0  0
 37109  1  0  0  0
 38 43  2  0  0  0
 38 46  1  0  0  0
 38 47  1  0  0  0
 39 64  1  0  0  0
 39 67  2  0  0  0
 40 52  1  0  0  0
 40 53  2  0  0  0
 40 58  1  0  0  0
 41110  1  0  0  0
 41111  1  0  0  0
 41112  1  0  0  0
 41 48  1  0  0  0
 42 43  1  0  0  0
 42 66  1  0  0  0
 42113  1  0  0  0
 42114  1  0  0  0
 43 44  1  0  0  0
 44115  1  0  0  0
 45 46  2  0  0  0
 45116  1  0  0  0
 46117  1  0  0  0
 47118  1  0  0  0
 47119  1  0  0  0
 48 56  1  0  0  0
 48 65  1  0  0  0
 48120  1  0  0  0
 49 50  1  0  0  0
 49 53  1  0  0  0
 49 64  1  0  0  0
 49121  1  0  0  0
 50 51  1  0  0  0
 50122  1  0  0  0
 50123  1  0  0  0
 51 52  1  0  0  0
 51124  1  0  0  0
 51125  1  0  0  0
 52126  1  0  0  0
 52127  1  0  0  0
 53 54  1  0  0  0
 54 55  2  0  0  0
 54128  1  0  0  0
 55 57  1  0  0  0
 55129  1  0  0  0
 56 69  2  0  0  0
 57 58  2  0  0  0
 57130  1  0  0  0
 58131  1  0  0  0
 59 60  1  0  0  0
 59 61  1  0  0  0
 59 62  1  0  0  0
 60132  1  0  0  0
 60133  1  0  0  0
 60134  1  0  0  0
 61135  1  0  0  0
 61136  1  0  0  0
 61137  1  0  0  0
 62138  1  0  0  0
 62139  1  0  0  0
 62140  1  0  0  0
 63 65  1  0  0  0
 63141  1  0  0  0
 63142  1  0  0  0
 63143  1  0  0  0
 64144  1  0  0  0
 65145  1  0  0  0
 68 84  1  0  0  0
 71 72  2  0  0  0
 71 73  1  0  0  0
 71146  1  0  0  0
 72 74  1  0  0  0
 72 82  1  0  0  0
 73 76  2  0  0  0
 73 85  1  0  0  0
 74 75  2  0  0  0
 74 77  1  0  0  0
 75 76  1  0  0  0
 75 78  1  0  0  0
 76 86  1  0  0  0
 77147  1  0  0  0
 77148  1  0  0  0
 77149  1  0  0  0
 78150  1  0  0  0
 78151  1  0  0  0
 78152  1  0  0  0
 79153  1  0  0  0
 79154  1  0  0  0
 79155  1  0  0  0
 79 85  1  0  0  0
 80 85  1  0  0  0
 80156  1  0  0  0
 80157  1  0  0  0
 80158  1  0  0  0
 81 85  1  0  0  0
 81159  1  0  0  0
 81160  1  0  0  0
 81161  1  0  0  0
 82 83  1  0  0  0
 82162  1  0  0  0
 82163  1  0  0  0
 83 84  1  0  0  0
 83164  1  0  0  0
 83165  1  0  0  0
 84166  1  0  0  0
 84167  1  0  0  0
 86168  1  0  0  0
M  ISO  4   1 100  68 101  84 101  86 100
M  END
> <chiral flag>
0

> <version>
0

> <s_m_source_file>
/data/baiqing/PycharmProjects/Reinvent-master-3.2/result/LINK_invent/BTK/process_docking_weight1_custom_sum_contain_oxygen_bond_distance_aromatic_linkinvent_7_9_3/rearranged_h_0019.sdf

> <i_m_source_file_index>
4

> <r_mmod_Potential_Energy-OPLS-2005>
396.418609619141

> <r_mmod_Stretch_Energy-OPLS-2005>
206.126586914062

> <r_mmod_Bend_Energy-OPLS-2005>
275.828826904297

> <r_mmod_Torsional_Energy-OPLS-2005>
235.138961791992

> <r_mmod_Improper_Torsional_Energy-OPLS-2005>
7.03074836730957

> <r_mmod_Van_der_Waal_Energy-OPLS-2005>
160.703247070312

> <r_mmod_Electrostatic_Energy-OPLS-2005>
-422.713745117188

> <r_mmod_Solvation_Energy-OPLS-2005>
-191.007308959961

> <b_mmod_Minimization_Converged-OPLS-2005>
0

> <r_mmod_RMS_Derivative-OPLS-2005>
4.70595550537109

$$$$
4
                    3D
 Structure written by MMmdl.
162170  0  0  1  0            999 V2000
  -30.5574  -14.9832   20.4098 C   0  0  0  0  0  0
  -30.4374  -12.6045   19.5241 C   0  0  0  0  0  0
  -29.5315  -12.5407   18.2720 C   0  0  0  0  0  0
  -28.0624  -12.3230   18.6811 C   0  0  0  0  0  0
  -27.6296  -13.2582   19.8412 C   0  0  2  0  0  0
  -28.6717  -13.3122   20.9823 C   0  0  0  0  0  0
  -25.2429  -13.8261   20.5717 C   0  0  0  0  0  0
  -24.1760  -13.0472   20.9220 C   0  0  0  0  0  0
  -24.6377  -11.6951   20.8713 C   0  0  0  0  0  0
  -23.9061  -10.4323   21.0390 C   0  0  0  0  0  0
  -24.3630   -9.4245   21.9171 C   0  0  0  0  0  0
  -23.6323   -8.2265   22.0753 C   0  0  0  0  0  0
  -22.4294   -8.0297   21.3553 C   0  0  0  0  0  0
  -21.9924   -9.0256   20.4639 C   0  0  0  0  0  0
  -22.7232  -10.2150   20.3045 C   0  0  0  0  0  0
  -21.6888   -6.0727   22.5265 C   0  0  0  0  0  0
  -21.4022   -6.5610   23.8200 C   0  0  0  0  0  0
  -21.3680   -5.6763   24.9171 C   0  0  0  0  0  0
  -21.6069   -4.3019   24.7206 C   0  0  0  0  0  0
  -21.8840   -3.8114   23.4316 C   0  0  0  0  0  0
  -21.9212   -4.6950   22.3384 C   0  0  0  0  0  0
  -22.7767  -13.5231   21.1872 C   0  0  0  0  0  0
  -22.1684   -4.2127   21.0966 F   0  0  0  0  0  0
  -21.5635   -3.4506   25.7716 F   0  0  0  0  0  0
  -29.9488  -13.7233   20.3863 N   0  0  0  0  0  0
  -26.2880  -12.9509   20.3243 N   0  0  0  0  0  0
  -25.9322  -11.6610   20.5684 N   0  0  0  0  0  0
  -22.0404  -12.8233   22.0436 N   0  0  0  0  0  0
  -25.4062  -15.2014   20.4162 N   0  0  0  0  0  0
  -31.7548  -15.0185   20.1104 O   0  0  0  0  0  0
  -21.6681   -6.8880   21.4236 O   0  0  0  0  0  0
  -22.3441  -14.5538   20.6721 O   0  0  0  0  0  0
  -24.6475  -31.8428   23.1856 C   0  0  0  0  0  0
  -25.9219  -32.4696   23.8252 C   0  0  1  0  0  0
  -27.2261  -27.0990   20.1640 C   0  0  0  0  0  0
  -25.5965  -33.8511   24.2171 N   0  0  0  0  0  0
  -23.4536  -30.4569   21.5353 C   0  0  2  0  0  0
  -24.9043  -28.8768   20.1166 C   0  0  0  0  0  0
  -22.7582  -29.4523   22.4887 C   0  0  0  0  0  0
  -18.0290  -28.1413   22.8462 C   0  0  0  0  0  0
  -24.1490  -36.7248   23.2639 C   0  0  0  0  0  0
  -26.0123  -30.7039   21.3895 C   0  0  0  0  0  0
  -26.0844  -29.3105   20.7324 C   0  0  0  0  0  0
  -27.2457  -28.4420   20.7329 C   0  0  0  0  0  0
  -26.0172  -26.7748   19.5087 C   0  0  0  0  0  0
  -24.8863  -27.6231   19.4872 C   0  0  0  0  0  0
  -23.6806  -29.7844   20.1577 C   0  0  0  0  0  0
  -25.4132  -36.3039   24.0307 C   0  0  1  0  0  0
  -20.5905  -28.3730   23.1251 C   0  0  2  0  0  0
  -20.6792  -26.9435   22.5425 C   0  0  0  0  0  0
  -19.5769  -26.6395   21.5228 C   0  0  0  0  0  0
  -18.1945  -26.7954   22.1622 C   0  0  0  0  0  0
  -19.1547  -28.8896   23.2845 C   0  0  0  0  0  0
  -18.9465  -30.1490   23.8868 C   0  0  0  0  0  0
  -17.6468  -30.6616   24.0565 C   0  0  0  0  0  0
  -25.9084  -34.9407   23.5064 C   0  0  0  0  0  0
  -16.5354  -29.9105   23.6349 C   0  0  0  0  0  0
  -16.7280  -28.6532   23.0349 C   0  0  0  0  0  0
  -26.4505  -31.6575   25.0713 C   0  0  0  0  0  0
  -25.3669  -31.3790   26.1398 C   0  0  0  0  0  0
  -27.0381  -30.2975   24.6314 C   0  0  0  0  0  0
  -27.6056  -32.4316   25.7499 C   0  0  0  0  0  0
  -27.5575  -37.1778   24.8457 C   0  0  0  0  0  0
  -21.4270  -29.3042   22.3613 N   0  0  0  0  0  0
  -26.4295  -37.3759   23.9391 N   0  0  0  0  0  0
  -24.7248  -31.0219   22.0922 N   0  0  0  0  0  0
  -23.4204  -28.8095   23.3074 O   0  0  0  0  0  0
  -28.2858  -26.1045   20.2145 O   0  0  0  0  0  0
  -26.5684  -34.8907   22.4643 O   0  0  0  0  0  0
  -23.5581  -32.1313   23.7049 O   0  0  0  0  0  0
  -29.4429  -20.4631   19.6736 C   0  0  0  0  0  0
  -29.5835  -19.2184   20.4976 C   0  0  0  0  0  0
  -29.1486  -21.6439   20.4176 C   0  0  0  0  0  0
  -29.3146  -19.7675   21.7418 C   0  0  0  0  0  0
  -29.7090  -20.4863   18.1902 C   0  0  0  0  0  0
  -28.4363  -17.9856   23.2799 C   0  0  0  0  0  0
  -28.9945  -20.2078   24.2202 C   0  0  0  0  0  0
  -30.8337  -18.7360   23.4361 C   0  0  0  0  0  0
  -30.1440  -17.6852   20.0571 C   0  0  0  0  0  0
  -29.2144  -23.3026   20.2193 C   0  0  0  0  0  0
  -28.0434  -24.5417   20.2745 C   0  0  0  0  0  0
  -29.3900  -19.1843   23.1372 C   0  0  0  0  0  0
  -29.8142  -16.1999   20.5365 N   0  0  0  0  0  0
  -29.0717  -21.1535   21.6948 O   0  0  0  0  0  0
  -31.4802  -12.7395   19.2269 H   0  0  0  0  0  0
  -30.4101  -11.6592   20.0704 H   0  0  0  0  0  0
  -29.8646  -11.7396   17.6108 H   0  0  0  0  0  0
  -29.6251  -13.4695   17.7066 H   0  0  0  0  0  0
  -27.9605  -11.2817   18.9892 H   0  0  0  0  0  0
  -27.4041  -12.4502   17.8182 H   0  0  0  0  0  0
  -27.5860  -14.2549   19.4032 H   0  0  0  0  0  0
  -28.7586  -12.3447   21.4770 H   0  0  0  0  0  0
  -28.3702  -14.0272   21.7483 H   0  0  0  0  0  0
  -25.2778   -9.5727   22.4731 H   0  0  0  0  0  0
  -24.0035   -7.4653   22.7451 H   0  0  0  0  0  0
  -21.0879   -8.8769   19.8922 H   0  0  0  0  0  0
  -22.3686  -10.9686   19.6144 H   0  0  0  0  0  0
  -21.1983   -7.6100   23.9703 H   0  0  0  0  0  0
  -21.1510   -6.0470   25.9081 H   0  0  0  0  0  0
  -22.0601   -2.7570   23.2814 H   0  0  0  0  0  0
  -22.4039  -11.9939   22.4872 H   0  0  0  0  0  0
  -21.0994  -13.1237   22.2588 H   0  0  0  0  0  0
  -24.6352  -15.8525   20.5215 H   0  0  0  0  0  0
  -26.2507  -15.6438   20.0802 H   0  0  0  0  0  0
  -26.7297  -32.5275   23.0972 H   0  0  0  0  0  0
  -25.0028  -33.9635   25.0260 H   0  0  0  0  0  0
  -22.7580  -31.2846   21.3802 H   0  0  0  0  0  0
  -23.3777  -35.9562   23.3312 H   0  0  0  0  0  0
  -24.3560  -36.8873   22.2051 H   0  0  0  0  0  0
  -23.7220  -37.6430   23.6682 H   0  0  0  0  0  0
  -26.1729  -31.4607   20.6198 H   0  0  0  0  0  0
  -26.8804  -30.7557   22.0366 H   0  0  0  0  0  0
  -28.1454  -28.7808   21.2277 H   0  0  0  0  0  0
  -25.9152  -25.8230   19.0117 H   0  0  0  0  0  0
  -23.9882  -27.2829   18.9909 H   0  0  0  0  0  0
  -23.8194  -30.5609   19.4042 H   0  0  0  0  0  0
  -22.7946  -29.2277   19.8479 H   0  0  0  0  0  0
  -25.1325  -36.1874   25.0809 H   0  0  0  0  0  0
  -20.9968  -28.3342   24.1384 H   0  0  0  0  0  0
  -20.5703  -26.2354   23.3646 H   0  0  0  0  0  0
  -21.6663  -26.7477   22.1206 H   0  0  0  0  0  0
  -19.6956  -25.6302   21.1278 H   0  0  0  0  0  0
  -19.6726  -27.3196   20.6752 H   0  0  0  0  0  0
  -17.4214  -26.6669   21.4024 H   0  0  0  0  0  0
  -18.0349  -26.0114   22.9041 H   0  0  0  0  0  0
  -19.7940  -30.7306   24.2240 H   0  0  0  0  0  0
  -17.5020  -31.6290   24.5169 H   0  0  0  0  0  0
  -15.5351  -30.3000   23.7711 H   0  0  0  0  0  0
  -15.8669  -28.0859   22.7078 H   0  0  0  0  0  0
  -24.5863  -30.7131   25.7681 H   0  0  0  0  0  0
  -24.8836  -32.2994   26.4701 H   0  0  0  0  0  0
  -25.7915  -30.9018   27.0247 H   0  0  0  0  0  0
  -26.3029  -29.6692   24.1280 H   0  0  0  0  0  0
  -27.3951  -29.7269   25.4888 H   0  0  0  0  0  0
  -27.8944  -30.4197   23.9686 H   0  0  0  0  0  0
  -27.2684  -33.3639   26.2034 H   0  0  0  0  0  0
  -28.3897  -32.6821   25.0346 H   0  0  0  0  0  0
  -28.0702  -31.8461   26.5438 H   0  0  0  0  0  0
  -28.2597  -38.0067   24.7524 H   0  0  0  0  0  0
  -28.1076  -36.2610   24.6295 H   0  0  0  0  0  0
  -27.2302  -37.1426   25.8860 H   0  0  0  0  0  0
  -20.9520  -29.8698   21.6711 H   0  0  0  0  0  0
  -26.0172  -38.2835   24.1405 H   0  0  0  0  0  0
  -29.2297  -19.6414   17.6955 H   0  0  0  0  0  0
  -30.7807  -20.4323   18.0006 H   0  0  0  0  0  0
  -29.3301  -21.4036   17.7362 H   0  0  0  0  0  0
  -28.4839  -17.5570   24.2808 H   0  0  0  0  0  0
  -28.6715  -17.1861   22.5870 H   0  0  0  0  0  0
  -27.4022  -18.2770   23.0941 H   0  0  0  0  0  0
  -27.9825  -20.5819   24.0651 H   0  0  0  0  0  0
  -29.6666  -21.0668   24.2302 H   0  0  0  0  0  0
  -29.0311  -19.7666   25.2177 H   0  0  0  0  0  0
  -31.2002  -18.0248   22.6965 H   0  0  0  0  0  0
  -30.9142  -18.2597   24.4144 H   0  0  0  0  0  0
  -31.5192  -19.5849   23.4301 H   0  0  0  0  0  0
  -29.9714  -17.6378   18.9827 H   0  0  0  0  0  0
  -31.2294  -17.7677   20.1411 H   0  0  0  0  0  0
  -29.7309  -23.4573   19.2695 H   0  0  0  0  0  0
  -29.9606  -23.6294   20.9448 H   0  0  0  0  0  0
  -27.4847  -24.3906   21.2000 H   0  0  0  0  0  0
  -27.3436  -24.2985   19.4763 H   0  0  0  0  0  0
  -28.8481  -16.0501   20.7740 H   0  0  0  0  0  0
  1 25  1  0  0  0
  1 30  2  0  0  0
  1 83  1  0  0  0
  2  3  1  0  0  0
  2 25  1  0  0  0
  2 85  1  0  0  0
  2 86  1  0  0  0
  3  4  1  0  0  0
  3 87  1  0  0  0
  3 88  1  0  0  0
  4  5  1  0  0  0
  4 89  1  0  0  0
  4 90  1  0  0  0
  5  6  1  0  0  0
  5 26  1  0  0  0
  5 91  1  0  0  0
  6 25  1  0  0  0
  6 92  1  0  0  0
  6 93  1  0  0  0
  7  8  2  0  0  0
  7 26  1  0  0  0
  7 29  1  0  0  0
  8  9  1  0  0  0
  8 22  1  0  0  0
  9 10  1  0  0  0
  9 27  2  0  0  0
 10 11  2  0  0  0
 10 15  1  0  0  0
 11 12  1  0  0  0
 11 94  1  0  0  0
 12 13  2  0  0  0
 12 95  1  0  0  0
 13 14  1  0  0  0
 13 31  1  0  0  0
 14 15  2  0  0  0
 14 96  1  0  0  0
 15 97  1  0  0  0
 16 17  2  0  0  0
 16 21  1  0  0  0
 16 31  1  0  0  0
 17 18  1  0  0  0
 17 98  1  0  0  0
 18 19  2  0  0  0
 18 99  1  0  0  0
 19 20  1  0  0  0
 19 24  1  0  0  0
 20 21  2  0  0  0
 20100  1  0  0  0
 21 23  1  0  0  0
 22 28  1  0  0  0
 22 32  2  0  0  0
 26 27  1  0  0  0
 28101  1  0  0  0
 28102  1  0  0  0
 29103  1  0  0  0
 29104  1  0  0  0
 33 34  1  0  0  0
 33 66  1  0  0  0
 33 70  2  0  0  0
 34 36  1  0  0  0
 34 59  1  0  0  0
 34105  1  0  0  0
 35 44  2  0  0  0
 35 45  1  0  0  0
 35 68  1  0  0  0
 36 56  1  0  0  0
 36106  1  0  0  0
 37 39  1  0  0  0
 37 47  1  0  0  0
 37 66  1  0  0  0
 37107  1  0  0  0
 38 43  2  0  0  0
 38 46  1  0  0  0
 38 47  1  0  0  0
 39 64  1  0  0  0
 39 67  2  0  0  0
 40 52  1  0  0  0
 40 53  2  0  0  0
 40 58  1  0  0  0
 41108  1  0  0  0
 41109  1  0  0  0
 41110  1  0  0  0
 41 48  1  0  0  0
 42 43  1  0  0  0
 42 66  1  0  0  0
 42111  1  0  0  0
 42112  1  0  0  0
 43 44  1  0  0  0
 44113  1  0  0  0
 45 46  2  0  0  0
 45114  1  0  0  0
 46115  1  0  0  0
 47116  1  0  0  0
 47117  1  0  0  0
 48 56  1  0  0  0
 48 65  1  0  0  0
 48118  1  0  0  0
 49 50  1  0  0  0
 49 53  1  0  0  0
 49 64  1  0  0  0
 49119  1  0  0  0
 50 51  1  0  0  0
 50120  1  0  0  0
 50121  1  0  0  0
 51 52  1  0  0  0
 51122  1  0  0  0
 51123  1  0  0  0
 52124  1  0  0  0
 52125  1  0  0  0
 53 54  1  0  0  0
 54 55  2  0  0  0
 54126  1  0  0  0
 55 57  1  0  0  0
 55127  1  0  0  0
 56 69  2  0  0  0
 57 58  2  0  0  0
 57128  1  0  0  0
 58129  1  0  0  0
 59 60  1  0  0  0
 59 61  1  0  0  0
 59 62  1  0  0  0
 60130  1  0  0  0
 60131  1  0  0  0
 60132  1  0  0  0
 61133  1  0  0  0
 61134  1  0  0  0
 61135  1  0  0  0
 62136  1  0  0  0
 62137  1  0  0  0
 62138  1  0  0  0
 63 65  1  0  0  0
 63139  1  0  0  0
 63140  1  0  0  0
 63141  1  0  0  0
 64142  1  0  0  0
 65143  1  0  0  0
 68 81  1  0  0  0
 71 72  1  0  0  0
 71 73  2  0  0  0
 71 75  1  0  0  0
 72 74  2  0  0  0
 72 79  1  0  0  0
 73 80  1  0  0  0
 73 84  1  0  0  0
 74 82  1  0  0  0
 74 84  1  0  0  0
 75144  1  0  0  0
 75145  1  0  0  0
 75146  1  0  0  0
 76147  1  0  0  0
 76148  1  0  0  0
 76149  1  0  0  0
 76 82  1  0  0  0
 77 82  1  0  0  0
 77150  1  0  0  0
 77151  1  0  0  0
 77152  1  0  0  0
 78 82  1  0  0  0
 78153  1  0  0  0
 78154  1  0  0  0
 78155  1  0  0  0
 79 83  1  0  0  0
 79156  1  0  0  0
 79157  1  0  0  0
 80 81  1  0  0  0
 80158  1  0  0  0
 80159  1  0  0  0
 81160  1  0  0  0
 81161  1  0  0  0
 83162  1  0  0  0
M  ISO  4   1 100  68 101  81 101  83 100
M  END
> <chiral flag>
0

> <version>
0

> <s_m_source_file>
/data/baiqing/PycharmProjects/Reinvent-master-3.2/result/LINK_invent/BTK/process_docking_weight1_custom_sum_contain_oxygen_bond_distance_aromatic_linkinvent_7_9_3/rearranged_h_0019.sdf

> <i_m_source_file_index>
5

> <r_mmod_Potential_Energy-OPLS-2005>
548.919921875

> <r_mmod_Stretch_Energy-OPLS-2005>
302.979461669922

> <r_mmod_Bend_Energy-OPLS-2005>
304.516571044922

> <r_mmod_Torsional_Energy-OPLS-2005>
239.615615844727

> <r_mmod_Improper_Torsional_Energy-OPLS-2005>
9.10769653320312

> <r_mmod_Van_der_Waal_Energy-OPLS-2005>
107.468879699707

> <r_mmod_Electrostatic_Energy-OPLS-2005>
-430.386657714844

> <r_mmod_Solvation_Energy-OPLS-2005>
-202.194427490234

> <b_mmod_Minimization_Converged-OPLS-2005>
0

> <r_mmod_RMS_Derivative-OPLS-2005>
3.55529856681824

$$$$
5
                    3D
 Structure written by MMmdl.
150158  0  0  1  0            999 V2000
  -30.3513  -15.3972   20.3560 C   0  0  0  0  0  0
  -30.4457  -12.9011   19.5299 C   0  0  0  0  0  0
  -29.5456  -12.5995   18.3003 C   0  0  0  0  0  0
  -28.0996  -12.2966   18.7299 C   0  0  0  0  0  0
  -27.6090  -13.2792   19.8197 C   0  0  2  0  0  0
  -28.6392  -13.4892   20.9510 C   0  0  0  0  0  0
  -25.2370  -13.8209   20.5687 C   0  0  0  0  0  0
  -24.1747  -13.0415   20.9284 C   0  0  0  0  0  0
  -24.6412  -11.6918   20.8790 C   0  0  0  0  0  0
  -23.9103  -10.4283   21.0423 C   0  0  0  0  0  0
  -24.3643   -9.4191   21.9196 C   0  0  0  0  0  0
  -23.6305   -8.2233   22.0760 C   0  0  0  0  0  0
  -22.4285   -8.0283   21.3548 C   0  0  0  0  0  0
  -21.9933   -9.0262   20.4651 C   0  0  0  0  0  0
  -22.7274  -10.2134   20.3066 C   0  0  0  0  0  0
  -21.6854   -6.0738   22.5278 C   0  0  0  0  0  0
  -21.4013   -6.5641   23.8209 C   0  0  0  0  0  0
  -21.3657   -5.6794   24.9173 C   0  0  0  0  0  0
  -21.6042   -4.3055   24.7224 C   0  0  0  0  0  0
  -21.8821   -3.8148   23.4344 C   0  0  0  0  0  0
  -21.9193   -4.6966   22.3401 C   0  0  0  0  0  0
  -22.7766  -13.5180   21.1918 C   0  0  0  0  0  0
  -22.1661   -4.2149   21.0981 F   0  0  0  0  0  0
  -21.5626   -3.4540   25.7739 F   0  0  0  0  0  0
  -29.8513  -14.0488   20.3220 N   0  0  0  0  0  0
  -26.2810  -12.9502   20.3191 N   0  0  0  0  0  0
  -25.9351  -11.6607   20.5728 N   0  0  0  0  0  0
  -22.0414  -12.8168   22.0470 N   0  0  0  0  0  0
  -25.3939  -15.1911   20.3935 N   0  0  0  0  0  0
  -31.5759  -15.4271   20.1443 O   0  0  0  0  0  0
  -21.6641   -6.8885   21.4243 O   0  0  0  0  0  0
  -22.3456  -14.5483   20.6749 O   0  0  0  0  0  0
  -24.6706  -31.8141   23.1625 C   0  0  0  0  0  0
  -25.9351  -32.4542   23.8122 C   0  0  1  0  0  0
  -27.2250  -26.8449   20.1946 C   0  0  0  0  0  0
  -25.5983  -33.8362   24.2022 N   0  0  0  0  0  0
  -23.4898  -30.4218   21.5135 C   0  0  2  0  0  0
  -24.9438  -28.7885   20.1161 C   0  0  0  0  0  0
  -22.7703  -29.4396   22.4755 C   0  0  0  0  0  0
  -18.0328  -28.1412   22.8460 C   0  0  0  0  0  0
  -24.1489  -36.7175   23.2649 C   0  0  0  0  0  0
  -26.0634  -30.5931   21.4050 C   0  0  0  0  0  0
  -26.1304  -29.1736   20.7513 C   0  0  0  0  0  0
  -27.2620  -28.2263   20.7602 C   0  0  0  0  0  0
  -26.0047  -26.6290   19.5124 C   0  0  0  0  0  0
  -24.9112  -27.5388   19.4743 C   0  0  0  0  0  0
  -23.7337  -29.7269   20.1443 C   0  0  0  0  0  0
  -25.4133  -36.2937   24.0295 C   0  0  1  0  0  0
  -20.5957  -28.3760   23.1168 C   0  0  2  0  0  0
  -20.6802  -26.9435   22.5400 C   0  0  0  0  0  0
  -19.5778  -26.6375   21.5211 C   0  0  0  0  0  0
  -18.1958  -26.7944   22.1615 C   0  0  0  0  0  0
  -19.1591  -28.8907   23.2801 C   0  0  0  0  0  0
  -18.9504  -30.1495   23.8841 C   0  0  0  0  0  0
  -17.6498  -30.6602   24.0552 C   0  0  0  0  0  0
  -25.9111  -34.9328   23.4987 C   0  0  0  0  0  0
  -16.5386  -29.9087   23.6346 C   0  0  0  0  0  0
  -16.7311  -28.6503   23.0374 C   0  0  0  0  0  0
  -26.4572  -31.6526   25.0688 C   0  0  0  0  0  0
  -25.3669  -31.3806   26.1322 C   0  0  0  0  0  0
  -27.0495  -30.2887   24.6490 C   0  0  0  0  0  0
  -27.6047  -32.4358   25.7495 C   0  0  0  0  0  0
  -27.5574  -37.1730   24.8460 C   0  0  0  0  0  0
  -21.4362  -29.3036   22.3506 N   0  0  0  0  0  0
  -26.4265  -37.3693   23.9426 N   0  0  0  0  0  0
  -24.7636  -30.9724   22.0800 N   0  0  0  0  0  0
  -23.4212  -28.7986   23.3043 O   0  0  0  0  0  0
  -28.2268  -25.7098   20.2585 O   0  0  0  0  0  0
  -26.5738  -34.8880   22.4595 O   0  0  0  0  0  0
  -23.5756  -32.1145   23.6668 O   0  0  0  0  0  0
  -29.7890  -19.4388   20.0191 C   0  0  0  0  0  0
  -28.9723  -20.7208   20.3833 C   0  0  0  0  0  0
  -29.2839  -18.1447   20.4998 C   0  0  0  0  0  0
  -25.7086  -18.3864   21.4535 C   0  0  0  0  0  0
  -29.0980  -22.5240   20.3200 C   0  0  0  0  0  0
  -27.1317  -17.9990   21.8915 C   0  0  0  0  0  0
  -28.0189  -24.0274   20.1840 C   0  0  0  0  0  0
  -28.0273  -20.1199   21.1250 N   0  0  0  0  0  0
  -28.1613  -18.7147   21.1470 N   0  0  0  0  0  0
  -29.4737  -16.6174   20.4461 N   0  0  0  0  0  0
  -31.2377  -19.5371   19.0866 Cl  0  0  0  0  0  0
  -31.4515  -13.1435   19.1842 H   0  0  0  0  0  0
  -30.5603  -12.0141   20.1549 H   0  0  0  0  0  0
  -29.9505  -11.7630   17.7290 H   0  0  0  0  0  0
  -29.5516  -13.4598   17.6299 H   0  0  0  0  0  0
  -28.0771  -11.2791   19.1222 H   0  0  0  0  0  0
  -27.4311  -12.3084   17.8685 H   0  0  0  0  0  0
  -27.5115  -14.2346   19.3035 H   0  0  0  0  0  0
  -28.8418  -12.5588   21.4838 H   0  0  0  0  0  0
  -28.2522  -14.1913   21.6915 H   0  0  0  0  0  0
  -25.2785   -9.5659   22.4777 H   0  0  0  0  0  0
  -24.0005   -7.4622   22.7480 H   0  0  0  0  0  0
  -21.0861   -8.8793   19.8960 H   0  0  0  0  0  0
  -22.3737  -10.9681   19.6181 H   0  0  0  0  0  0
  -21.2003   -7.6148   23.9713 H   0  0  0  0  0  0
  -21.1478   -6.0525   25.9076 H   0  0  0  0  0  0
  -22.0602   -2.7611   23.2848 H   0  0  0  0  0  0
  -22.4042  -11.9839   22.4867 H   0  0  0  0  0  0
  -21.1028  -13.1192   22.2668 H   0  0  0  0  0  0
  -24.5900  -15.8063   20.4457 H   0  0  0  0  0  0
  -26.1614  -15.5937   19.8751 H   0  0  0  0  0  0
  -26.7425  -32.5049   23.0830 H   0  0  0  0  0  0
  -25.0063  -33.9431   25.0130 H   0  0  0  0  0  0
  -22.8083  -31.2561   21.3342 H   0  0  0  0  0  0
  -23.3781  -35.9474   23.3248 H   0  0  0  0  0  0
  -24.3565  -36.8886   22.2074 H   0  0  0  0  0  0
  -23.7206  -37.6325   23.6748 H   0  0  0  0  0  0
  -26.2557  -31.3284   20.6230 H   0  0  0  0  0  0
  -26.9187  -30.6516   22.0659 H   0  0  0  0  0  0
  -28.1589  -28.5245   21.2839 H   0  0  0  0  0  0
  -25.8640  -25.6759   19.0231 H   0  0  0  0  0  0
  -24.0112  -27.2358   18.9565 H   0  0  0  0  0  0
  -23.8957  -30.4899   19.3821 H   0  0  0  0  0  0
  -22.8416  -29.1849   19.8261 H   0  0  0  0  0  0
  -25.1332  -36.1712   25.0784 H   0  0  0  0  0  0
  -21.0046  -28.3371   24.1291 H   0  0  0  0  0  0
  -20.5665  -26.2385   23.3650 H   0  0  0  0  0  0
  -21.6666  -26.7393   22.1217 H   0  0  0  0  0  0
  -19.6940  -25.6270   21.1276 H   0  0  0  0  0  0
  -19.6720  -27.3154   20.6718 H   0  0  0  0  0  0
  -17.4229  -26.6684   21.4021 H   0  0  0  0  0  0
  -18.0353  -26.0101   22.9026 H   0  0  0  0  0  0
  -19.7983  -30.7320   24.2188 H   0  0  0  0  0  0
  -17.5055  -31.6282   24.5157 H   0  0  0  0  0  0
  -15.5386  -30.2975   23.7713 H   0  0  0  0  0  0
  -15.8706  -28.0805   22.7132 H   0  0  0  0  0  0
  -24.5873  -30.7142   25.7615 H   0  0  0  0  0  0
  -24.8840  -32.3021   26.4586 H   0  0  0  0  0  0
  -25.7871  -30.9068   27.0205 H   0  0  0  0  0  0
  -26.3196  -29.6529   24.1470 H   0  0  0  0  0  0
  -27.3970  -29.7290   25.5186 H   0  0  0  0  0  0
  -27.9150  -30.4055   23.9968 H   0  0  0  0  0  0
  -27.2604  -33.3707   26.1928 H   0  0  0  0  0  0
  -28.3928  -32.6842   25.0377 H   0  0  0  0  0  0
  -28.0638  -31.8584   26.5529 H   0  0  0  0  0  0
  -28.2531  -38.0087   24.7575 H   0  0  0  0  0  0
  -28.1131  -36.2616   24.6198 H   0  0  0  0  0  0
  -27.2303  -37.1257   25.8863 H   0  0  0  0  0  0
  -20.9641  -29.8705   21.6597 H   0  0  0  0  0  0
  -26.0098  -38.2734   24.1488 H   0  0  0  0  0  0
  -24.9663  -17.7762   21.9675 H   0  0  0  0  0  0
  -25.5739  -18.2420   20.3810 H   0  0  0  0  0  0
  -25.4873  -19.4299   21.6796 H   0  0  0  0  0  0
  -29.8087  -22.6930   19.5118 H   0  0  0  0  0  0
  -29.6861  -22.7599   21.2062 H   0  0  0  0  0  0
  -27.2679  -16.9254   21.7708 H   0  0  0  0  0  0
  -27.2681  -18.2074   22.9534 H   0  0  0  0  0  0
  -27.2554  -23.8626   20.9439 H   0  0  0  0  0  0
  -27.4864  -23.8835   19.2438 H   0  0  0  0  0  0
  -28.5648  -16.2177   20.6102 H   0  0  0  0  0  0
  1 25  1  0  0  0
  1 30  2  0  0  0
  1 80  1  0  0  0
  2  3  1  0  0  0
  2 25  1  0  0  0
  2 82  1  0  0  0
  2 83  1  0  0  0
  3  4  1  0  0  0
  3 84  1  0  0  0
  3 85  1  0  0  0
  4  5  1  0  0  0
  4 86  1  0  0  0
  4 87  1  0  0  0
  5  6  1  0  0  0
  5 26  1  0  0  0
  5 88  1  0  0  0
  6 25  1  0  0  0
  6 89  1  0  0  0
  6 90  1  0  0  0
  7  8  2  0  0  0
  7 26  1  0  0  0
  7 29  1  0  0  0
  8  9  1  0  0  0
  8 22  1  0  0  0
  9 10  1  0  0  0
  9 27  2  0  0  0
 10 11  2  0  0  0
 10 15  1  0  0  0
 11 12  1  0  0  0
 11 91  1  0  0  0
 12 13  2  0  0  0
 12 92  1  0  0  0
 13 14  1  0  0  0
 13 31  1  0  0  0
 14 15  2  0  0  0
 14 93  1  0  0  0
 15 94  1  0  0  0
 16 17  2  0  0  0
 16 21  1  0  0  0
 16 31  1  0  0  0
 17 18  1  0  0  0
 17 95  1  0  0  0
 18 19  2  0  0  0
 18 96  1  0  0  0
 19 20  1  0  0  0
 19 24  1  0  0  0
 20 21  2  0  0  0
 20 97  1  0  0  0
 21 23  1  0  0  0
 22 28  1  0  0  0
 22 32  2  0  0  0
 26 27  1  0  0  0
 28 98  1  0  0  0
 28 99  1  0  0  0
 29100  1  0  0  0
 29101  1  0  0  0
 33 34  1  0  0  0
 33 66  1  0  0  0
 33 70  2  0  0  0
 34 36  1  0  0  0
 34 59  1  0  0  0
 34102  1  0  0  0
 35 44  2  0  0  0
 35 45  1  0  0  0
 35 68  1  0  0  0
 36 56  1  0  0  0
 36103  1  0  0  0
 37 39  1  0  0  0
 37 47  1  0  0  0
 37 66  1  0  0  0
 37104  1  0  0  0
 38 43  2  0  0  0
 38 46  1  0  0  0
 38 47  1  0  0  0
 39 64  1  0  0  0
 39 67  2  0  0  0
 40 52  1  0  0  0
 40 53  2  0  0  0
 40 58  1  0  0  0
 41105  1  0  0  0
 41106  1  0  0  0
 41107  1  0  0  0
 41 48  1  0  0  0
 42 43  1  0  0  0
 42 66  1  0  0  0
 42108  1  0  0  0
 42109  1  0  0  0
 43 44  1  0  0  0
 44110  1  0  0  0
 45 46  2  0  0  0
 45111  1  0  0  0
 46112  1  0  0  0
 47113  1  0  0  0
 47114  1  0  0  0
 48 56  1  0  0  0
 48 65  1  0  0  0
 48115  1  0  0  0
 49 50  1  0  0  0
 49 53  1  0  0  0
 49 64  1  0  0  0
 49116  1  0  0  0
 50 51  1  0  0  0
 50117  1  0  0  0
 50118  1  0  0  0
 51 52  1  0  0  0
 51119  1  0  0  0
 51120  1  0  0  0
 52121  1  0  0  0
 52122  1  0  0  0
 53 54  1  0  0  0
 54 55  2  0  0  0
 54123  1  0  0  0
 55 57  1  0  0  0
 55124  1  0  0  0
 56 69  2  0  0  0
 57 58  2  0  0  0
 57125  1  0  0  0
 58126  1  0  0  0
 59 60  1  0  0  0
 59 61  1  0  0  0
 59 62  1  0  0  0
 60127  1  0  0  0
 60128  1  0  0  0
 60129  1  0  0  0
 61130  1  0  0  0
 61131  1  0  0  0
 61132  1  0  0  0
 62133  1  0  0  0
 62134  1  0  0  0
 62135  1  0  0  0
 63 65  1  0  0  0
 63136  1  0  0  0
 63137  1  0  0  0
 63138  1  0  0  0
 64139  1  0  0  0
 65140  1  0  0  0
 68 77  1  0  0  0
 71 72  1  0  0  0
 71 73  2  0  0  0
 71 81  1  0  0  0
 72 75  1  0  0  0
 72 78  2  0  0  0
 73 79  1  0  0  0
 73 80  1  0  0  0
 74 76  1  0  0  0
 74141  1  0  0  0
 74142  1  0  0  0
 74143  1  0  0  0
 75 77  1  0  0  0
 75144  1  0  0  0
 75145  1  0  0  0
 76 79  1  0  0  0
 76146  1  0  0  0
 76147  1  0  0  0
 77148  1  0  0  0
 77149  1  0  0  0
 78 79  1  0  0  0
 80150  1  0  0  0
M  ISO  4   1 100  68 101  77 101  80 100
M  END
> <chiral flag>
0

> <version>
0

> <s_m_source_file>
/data/baiqing/PycharmProjects/Reinvent-master-3.2/result/LINK_invent/BTK/process_docking_weight1_custom_sum_contain_oxygen_bond_distance_aromatic_linkinvent_7_9_3/rearranged_h_0019.sdf

> <i_m_source_file_index>
6

> <r_mmod_Potential_Energy-OPLS-2005>
1571.64013671875

> <r_mmod_Stretch_Energy-OPLS-2005>
699.262390136719

> <r_mmod_Bend_Energy-OPLS-2005>
565.509521484375

> <r_mmod_Torsional_Energy-OPLS-2005>
232.082702636719

> <r_mmod_Improper_Torsional_Energy-OPLS-2005>
6.47317218780518

> <r_mmod_Van_der_Waal_Energy-OPLS-2005>
99.439697265625

> <r_mmod_Electrostatic_Energy-OPLS-2005>
-406.796936035156

> <r_mmod_Solvation_Energy-OPLS-2005>
-225.632064819336

> <b_mmod_Minimization_Converged-OPLS-2005>
0

> <r_mmod_RMS_Derivative-OPLS-2005>
0.991530358791351

$$$$
6
                    3D
 Structure written by MMmdl.
169177  0  0  1  0            999 V2000
  -30.4221  -15.0296   20.2792 C   0  0  0  0  0  0
  -30.4552  -12.6207   19.4614 C   0  0  0  0  0  0
  -29.5140  -12.4790   18.2379 C   0  0  0  0  0  0
  -28.0598  -12.2407   18.6895 C   0  0  0  0  0  0
  -27.6341  -13.1935   19.8343 C   0  0  2  0  0  0
  -28.6880  -13.2572   20.9566 C   0  0  0  0  0  0
  -25.2615  -13.8122   20.5691 C   0  0  0  0  0  0
  -24.1849  -13.0430   20.9272 C   0  0  0  0  0  0
  -24.6365  -11.6894   20.8804 C   0  0  0  0  0  0
  -23.9027  -10.4286   21.0466 C   0  0  0  0  0  0
  -24.3587   -9.4182   21.9219 C   0  0  0  0  0  0
  -23.6284   -8.2203   22.0755 C   0  0  0  0  0  0
  -22.4272   -8.0261   21.3541 C   0  0  0  0  0  0
  -21.9917   -9.0233   20.4649 C   0  0  0  0  0  0
  -22.7226  -10.2134   20.3093 C   0  0  0  0  0  0
  -21.6850   -6.0733   22.5292 C   0  0  0  0  0  0
  -21.3989   -6.5637   23.8227 C   0  0  0  0  0  0
  -21.3682   -5.6805   24.9210 C   0  0  0  0  0  0
  -21.6068   -4.3076   24.7252 C   0  0  0  0  0  0
  -21.8808   -3.8139   23.4376 C   0  0  0  0  0  0
  -21.9172   -4.6946   22.3429 C   0  0  0  0  0  0
  -22.7894  -13.5254   21.1919 C   0  0  0  0  0  0
  -22.1651   -4.2131   21.1005 F   0  0  0  0  0  0
  -21.5641   -3.4569   25.7760 F   0  0  0  0  0  0
  -29.9327  -13.7190   20.3280 N   0  0  0  0  0  0
  -26.2921  -12.9186   20.3262 N   0  0  0  0  0  0
  -25.9259  -11.6394   20.5769 N   0  0  0  0  0  0
  -22.0552  -12.8229   22.0497 N   0  0  0  0  0  0
  -25.4521  -15.1799   20.3962 N   0  0  0  0  0  0
  -31.6183  -15.1528   19.9910 O   0  0  0  0  0  0
  -21.6622   -6.8875   21.4259 O   0  0  0  0  0  0
  -22.3566  -14.5541   20.6777 O   0  0  0  0  0  0
  -24.6429  -31.8401   23.1844 C   0  0  0  0  0  0
  -25.9183  -32.4680   23.8224 C   0  0  1  0  0  0
  -27.2166  -27.1134   20.1460 C   0  0  0  0  0  0
  -25.5937  -33.8483   24.2134 N   0  0  0  0  0  0
  -23.4526  -30.4552   21.5284 C   0  0  2  0  0  0
  -24.9006  -28.8746   20.1052 C   0  0  0  0  0  0
  -22.7581  -29.4536   22.4853 C   0  0  0  0  0  0
  -18.0324  -28.1402   22.8463 C   0  0  0  0  0  0
  -24.1492  -36.7250   23.2645 C   0  0  0  0  0  0
  -26.0026  -30.7041   21.3886 C   0  0  0  0  0  0
  -26.0725  -29.3128   20.7300 C   0  0  0  0  0  0
  -27.2241  -28.4412   20.7447 C   0  0  0  0  0  0
  -26.0221  -26.7785   19.4771 C   0  0  0  0  0  0
  -24.8862  -27.6200   19.4698 C   0  0  0  0  0  0
  -23.6801  -29.7783   20.1480 C   0  0  0  0  0  0
  -25.4141  -36.3023   24.0300 C   0  0  1  0  0  0
  -20.5945  -28.3707   23.1232 C   0  0  2  0  0  0
  -20.6800  -26.9406   22.5409 C   0  0  0  0  0  0
  -19.5758  -26.6382   21.5227 C   0  0  0  0  0  0
  -18.1937  -26.7951   22.1614 C   0  0  0  0  0  0
  -19.1584  -28.8869   23.2830 C   0  0  0  0  0  0
  -18.9516  -30.1470   23.8844 C   0  0  0  0  0  0
  -17.6527  -30.6577   24.0563 C   0  0  0  0  0  0
  -25.9085  -34.9391   23.5024 C   0  0  0  0  0  0
  -16.5397  -29.9083   23.6351 C   0  0  0  0  0  0
  -16.7316  -28.6516   23.0329 C   0  0  0  0  0  0
  -26.4499  -31.6590   25.0678 C   0  0  0  0  0  0
  -25.3653  -31.3834   26.1348 C   0  0  0  0  0  0
  -27.0382  -30.3001   24.6267 C   0  0  0  0  0  0
  -27.6007  -32.4373   25.7491 C   0  0  0  0  0  0
  -27.5568  -37.1770   24.8463 C   0  0  0  0  0  0
  -21.4286  -29.3037   22.3602 N   0  0  0  0  0  0
  -26.4289  -37.3741   23.9416 N   0  0  0  0  0  0
  -24.7197  -31.0233   22.0897 N   0  0  0  0  0  0
  -23.4199  -28.8113   23.3040 O   0  0  0  0  0  0
  -28.2768  -26.1410   20.2661 O   0  0  0  0  0  0
  -26.5648  -34.8891   22.4591 O   0  0  0  0  0  0
  -23.5544  -32.1298   23.7036 O   0  0  0  0  0  0
  -27.6990  -19.9207   19.0212 C   0  0  0  0  0  0
  -27.3448  -18.6307   18.5735 C   0  0  0  0  0  0
  -28.8280  -20.1886   19.8206 C   0  0  0  0  0  0
  -29.1700  -17.5277   19.8672 C   0  0  0  0  0  0
  -28.0957  -17.4691   18.9241 C   0  0  0  0  0  0
  -29.5309  -18.9306   20.2737 C   0  0  0  0  0  0
  -26.0835  -18.5488   17.7202 C   0  0  0  0  0  0
  -29.0670  -16.1817   16.3696 C   0  0  0  0  0  0
  -30.7468  -22.0074   19.8356 C   0  0  0  0  0  0
  -29.1969  -23.5727   21.8406 C   0  0  0  0  0  0
  -27.0197  -22.7734   20.9451 C   0  0  0  0  0  0
  -27.7108  -15.9567   17.0485 C   0  0  0  0  0  0
  -28.3318  -24.6722   19.7198 C   0  0  0  0  0  0
  -29.2247  -21.8199   19.8585 C   0  0  2  0  0  0
  -28.4465  -23.1885   20.5463 C   0  0  0  0  0  0
  -29.5401  -16.1411   20.4842 N   0  0  0  0  0  0
  -27.7207  -16.2262   18.4600 O   0  0  0  0  0  0
  -30.8601  -19.0743   21.3656 Cl  0  0  0  0  0  0
  -31.4725  -12.8225   19.1214 H   0  0  0  0  0  0
  -30.5113  -11.6815   20.0107 H   0  0  0  0  0  0
  -29.8437  -11.6493   17.6113 H   0  0  0  0  0  0
  -29.5661  -13.3668   17.6094 H   0  0  0  0  0  0
  -28.0010  -11.2097   19.0427 H   0  0  0  0  0  0
  -27.3758  -12.3126   17.8428 H   0  0  0  0  0  0
  -27.5928  -14.1707   19.3834 H   0  0  0  0  0  0
  -28.8210  -12.2778   21.4201 H   0  0  0  0  0  0
  -28.3828  -13.9396   21.7485 H   0  0  0  0  0  0
  -25.2713   -9.5670   22.4833 H   0  0  0  0  0  0
  -24.0009   -7.4566   22.7450 H   0  0  0  0  0  0
  -21.0873   -8.8746   19.8916 H   0  0  0  0  0  0
  -22.3671  -10.9684   19.6236 H   0  0  0  0  0  0
  -21.1958   -7.6140   23.9739 H   0  0  0  0  0  0
  -21.1553   -6.0539   25.9126 H   0  0  0  0  0  0
  -22.0559   -2.7590   23.2882 H   0  0  0  0  0  0
  -22.4217  -11.9893   22.4842 H   0  0  0  0  0  0
  -21.1205  -13.1260   22.2811 H   0  0  0  0  0  0
  -24.7175  -15.8668   20.5244 H   0  0  0  0  0  0
  -26.2625  -15.5589   19.9175 H   0  0  0  0  0  0
  -26.7195  -32.5258   23.0904 H   0  0  0  0  0  0
  -25.0109  -33.9616   25.0297 H   0  0  0  0  0  0
  -22.7606  -31.2819   21.3624 H   0  0  0  0  0  0
  -23.3758  -35.9562   23.3318 H   0  0  0  0  0  0
  -24.3593  -36.8911   22.2061 H   0  0  0  0  0  0
  -23.7235  -37.6429   23.6705 H   0  0  0  0  0  0
  -26.1573  -31.4597   20.6156 H   0  0  0  0  0  0
  -26.8746  -30.7577   22.0299 H   0  0  0  0  0  0
  -28.1025  -28.7593   21.2862 H   0  0  0  0  0  0
  -25.9236  -25.8194   18.9922 H   0  0  0  0  0  0
  -23.9869  -27.2745   18.9793 H   0  0  0  0  0  0
  -23.8276  -30.5481   19.3909 H   0  0  0  0  0  0
  -22.7978  -29.2202   19.8317 H   0  0  0  0  0  0
  -25.1338  -36.1835   25.0786 H   0  0  0  0  0  0
  -21.0000  -28.3250   24.1377 H   0  0  0  0  0  0
  -20.5736  -26.2294   23.3614 H   0  0  0  0  0  0
  -21.6660  -26.7450   22.1169 H   0  0  0  0  0  0
  -19.6946  -25.6308   21.1238 H   0  0  0  0  0  0
  -19.6701  -27.3179   20.6755 H   0  0  0  0  0  0
  -17.4239  -26.6728   21.3983 H   0  0  0  0  0  0
  -18.0286  -26.0104   22.9015 H   0  0  0  0  0  0
  -19.8009  -30.7293   24.2157 H   0  0  0  0  0  0
  -17.5097  -31.6263   24.5161 H   0  0  0  0  0  0
  -15.5394  -30.2948   23.7749 H   0  0  0  0  0  0
  -15.8737  -28.0839   22.7025 H   0  0  0  0  0  0
  -24.5860  -30.7142   25.7707 H   0  0  0  0  0  0
  -24.8764  -32.3008   26.4610 H   0  0  0  0  0  0
  -25.7855  -30.9143   27.0242 H   0  0  0  0  0  0
  -26.2985  -29.6727   24.1255 H   0  0  0  0  0  0
  -27.4031  -29.7317   25.4840 H   0  0  0  0  0  0
  -27.8880  -30.4331   23.9554 H   0  0  0  0  0  0
  -27.2605  -33.3769   26.1880 H   0  0  0  0  0  0
  -28.3889  -32.6810   25.0348 H   0  0  0  0  0  0
  -28.0546  -31.8610   26.5564 H   0  0  0  0  0  0
  -28.2540  -38.0109   24.7540 H   0  0  0  0  0  0
  -28.1096  -36.2626   24.6262 H   0  0  0  0  0  0
  -27.2267  -37.1401   25.8857 H   0  0  0  0  0  0
  -20.9504  -29.8810   21.6834 H   0  0  0  0  0  0
  -26.0149  -38.2778   24.1498 H   0  0  0  0  0  0
  -27.1003  -20.7548   18.6761 H   0  0  0  0  0  0
  -25.3791  -19.3382   17.9877 H   0  0  0  0  0  0
  -26.3254  -18.6776   16.6628 H   0  0  0  0  0  0
  -25.5569  -17.6056   17.8593 H   0  0  0  0  0  0
  -29.0366  -15.8109   15.3435 H   0  0  0  0  0  0
  -29.8663  -15.6495   16.8850 H   0  0  0  0  0  0
  -29.3224  -17.2409   16.3345 H   0  0  0  0  0  0
  -31.2021  -21.4193   19.0380 H   0  0  0  0  0  0
  -31.1985  -21.7133   20.7790 H   0  0  0  0  0  0
  -31.0123  -23.0493   19.6574 H   0  0  0  0  0  0
  -28.6506  -24.3299   22.4082 H   0  0  0  0  0  0
  -30.1666  -24.0197   21.6161 H   0  0  0  0  0  0
  -29.3614  -22.7178   22.4957 H   0  0  0  0  0  0
  -26.5222  -23.5649   21.5066 H   0  0  0  0  0  0
  -27.0144  -21.8837   21.5782 H   0  0  0  0  0  0
  -26.4091  -22.5580   20.0664 H   0  0  0  0  0  0
  -27.4575  -14.9002   16.9464 H   0  0  0  0  0  0
  -26.9315  -16.4788   16.4958 H   0  0  0  0  0  0
  -27.6077  -24.5433   18.9191 H   0  0  0  0  0  0
  -29.2740  -24.7148   19.1767 H   0  0  0  0  0  0
  -28.9728  -22.0410   18.8204 H   0  0  0  0  0  0
  -28.6849  -15.7245   20.8107 H   0  0  0  0  0  0
  1 25  1  0  0  0
  1 30  2  0  0  0
  1 86  1  0  0  0
  2  3  1  0  0  0
  2 25  1  0  0  0
  2 89  1  0  0  0
  2 90  1  0  0  0
  3  4  1  0  0  0
  3 91  1  0  0  0
  3 92  1  0  0  0
  4  5  1  0  0  0
  4 93  1  0  0  0
  4 94  1  0  0  0
  5  6  1  0  0  0
  5 26  1  0  0  0
  5 95  1  0  0  0
  6 25  1  0  0  0
  6 96  1  0  0  0
  6 97  1  0  0  0
  7  8  2  0  0  0
  7 26  1  0  0  0
  7 29  1  0  0  0
  8  9  1  0  0  0
  8 22  1  0  0  0
  9 10  1  0  0  0
  9 27  2  0  0  0
 10 11  2  0  0  0
 10 15  1  0  0  0
 11 12  1  0  0  0
 11 98  1  0  0  0
 12 13  2  0  0  0
 12 99  1  0  0  0
 13 14  1  0  0  0
 13 31  1  0  0  0
 14 15  2  0  0  0
 14100  1  0  0  0
 15101  1  0  0  0
 16 17  2  0  0  0
 16 21  1  0  0  0
 16 31  1  0  0  0
 17 18  1  0  0  0
 17102  1  0  0  0
 18 19  2  0  0  0
 18103  1  0  0  0
 19 20  1  0  0  0
 19 24  1  0  0  0
 20 21  2  0  0  0
 20104  1  0  0  0
 21 23  1  0  0  0
 22 28  1  0  0  0
 22 32  2  0  0  0
 26 27  1  0  0  0
 28105  1  0  0  0
 28106  1  0  0  0
 29107  1  0  0  0
 29108  1  0  0  0
 33 34  1  0  0  0
 33 66  1  0  0  0
 33 70  2  0  0  0
 34 36  1  0  0  0
 34 59  1  0  0  0
 34109  1  0  0  0
 35 44  2  0  0  0
 35 45  1  0  0  0
 35 68  1  0  0  0
 36 56  1  0  0  0
 36110  1  0  0  0
 37 39  1  0  0  0
 37 47  1  0  0  0
 37 66  1  0  0  0
 37111  1  0  0  0
 38 43  2  0  0  0
 38 46  1  0  0  0
 38 47  1  0  0  0
 39 64  1  0  0  0
 39 67  2  0  0  0
 40 52  1  0  0  0
 40 53  2  0  0  0
 40 58  1  0  0  0
 41112  1  0  0  0
 41113  1  0  0  0
 41114  1  0  0  0
 41 48  1  0  0  0
 42 43  1  0  0  0
 42 66  1  0  0  0
 42115  1  0  0  0
 42116  1  0  0  0
 43 44  1  0  0  0
 44117  1  0  0  0
 45 46  2  0  0  0
 45118  1  0  0  0
 46119  1  0  0  0
 47120  1  0  0  0
 47121  1  0  0  0
 48 56  1  0  0  0
 48 65  1  0  0  0
 48122  1  0  0  0
 49 50  1  0  0  0
 49 53  1  0  0  0
 49 64  1  0  0  0
 49123  1  0  0  0
 50 51  1  0  0  0
 50124  1  0  0  0
 50125  1  0  0  0
 51 52  1  0  0  0
 51126  1  0  0  0
 51127  1  0  0  0
 52128  1  0  0  0
 52129  1  0  0  0
 53 54  1  0  0  0
 54 55  2  0  0  0
 54130  1  0  0  0
 55 57  1  0  0  0
 55131  1  0  0  0
 56 69  2  0  0  0
 57 58  2  0  0  0
 57132  1  0  0  0
 58133  1  0  0  0
 59 60  1  0  0  0
 59 61  1  0  0  0
 59 62  1  0  0  0
 60134  1  0  0  0
 60135  1  0  0  0
 60136  1  0  0  0
 61137  1  0  0  0
 61138  1  0  0  0
 61139  1  0  0  0
 62140  1  0  0  0
 62141  1  0  0  0
 62142  1  0  0  0
 63 65  1  0  0  0
 63143  1  0  0  0
 63144  1  0  0  0
 63145  1  0  0  0
 64146  1  0  0  0
 65147  1  0  0  0
 68 83  1  0  0  0
 71 72  2  0  0  0
 71 73  1  0  0  0
 71148  1  0  0  0
 72 75  1  0  0  0
 72 77  1  0  0  0
 73 76  2  0  0  0
 73 84  1  0  0  0
 74 75  2  0  0  0
 74 76  1  0  0  0
 74 86  1  0  0  0
 75 87  1  0  0  0
 76 88  1  0  0  0
 77149  1  0  0  0
 77150  1  0  0  0
 77151  1  0  0  0
 78 82  1  0  0  0
 78152  1  0  0  0
 78153  1  0  0  0
 78154  1  0  0  0
 79155  1  0  0  0
 79156  1  0  0  0
 79157  1  0  0  0
 79 84  1  0  0  0
 80158  1  0  0  0
 80159  1  0  0  0
 80160  1  0  0  0
 80 85  1  0  0  0
 81 85  1  0  0  0
 81161  1  0  0  0
 81162  1  0  0  0
 81163  1  0  0  0
 82 87  1  0  0  0
 82164  1  0  0  0
 82165  1  0  0  0
 83 85  1  0  0  0
 83166  1  0  0  0
 83167  1  0  0  0
 84 85  1  0  0  0
 84168  1  0  0  0
 86169  1  0  0  0
M  ISO  4   1 100  68 101  83 101  86 100
M  END
> <chiral flag>
0

> <version>
0

> <s_m_source_file>
/data/baiqing/PycharmProjects/Reinvent-master-3.2/result/LINK_invent/BTK/process_docking_weight1_custom_sum_contain_oxygen_bond_distance_aromatic_linkinvent_7_9_3/rearranged_h_0019.sdf

> <i_m_source_file_index>
7

> <r_mmod_Potential_Energy-OPLS-2005>
716.639404296875

> <r_mmod_Stretch_Energy-OPLS-2005>
317.245208740234

> <r_mmod_Bend_Energy-OPLS-2005>
365.419921875

> <r_mmod_Torsional_Energy-OPLS-2005>
297.176330566406

> <r_mmod_Improper_Torsional_Energy-OPLS-2005>
9.72407627105713

> <r_mmod_Van_der_Waal_Energy-OPLS-2005>
118.506385803223

> <r_mmod_Electrostatic_Energy-OPLS-2005>
-446.859008789062

> <r_mmod_Solvation_Energy-OPLS-2005>
-193.711730957031

> <b_mmod_Minimization_Converged-OPLS-2005>
0

> <r_mmod_RMS_Derivative-OPLS-2005>
6.30505609512329

$$$$
7
                    3D
 Structure written by MMmdl.
170178  0  0  1  0            999 V2000
  -30.7109  -14.4163   20.6287 C   0  0  0  0  0  0
  -30.4357  -12.3022   19.3876 C   0  0  0  0  0  0
  -29.4883  -12.5190   18.1890 C   0  0  0  0  0  0
  -28.0103  -12.3811   18.6072 C   0  0  0  0  0  0
  -27.6681  -13.1984   19.8797 C   0  0  2  0  0  0
  -28.7134  -12.9249   20.9864 C   0  0  0  0  0  0
  -25.2605  -13.8138   20.5673 C   0  0  0  0  0  0
  -24.1831  -13.0424   20.9139 C   0  0  0  0  0  0
  -24.6364  -11.6901   20.8718 C   0  0  0  0  0  0
  -23.9010  -10.4304   21.0400 C   0  0  0  0  0  0
  -24.3564   -9.4234   21.9187 C   0  0  0  0  0  0
  -23.6285   -8.2250   22.0741 C   0  0  0  0  0  0
  -22.4259   -8.0289   21.3562 C   0  0  0  0  0  0
  -21.9883   -9.0224   20.4615 C   0  0  0  0  0  0
  -22.7180  -10.2131   20.3047 C   0  0  0  0  0  0
  -21.6872   -6.0766   22.5294 C   0  0  0  0  0  0
  -21.4014   -6.5662   23.8225 C   0  0  0  0  0  0
  -21.3652   -5.6801   24.9182 C   0  0  0  0  0  0
  -21.6036   -4.3061   24.7213 C   0  0  0  0  0  0
  -21.8831   -3.8163   23.4335 C   0  0  0  0  0  0
  -21.9203   -4.6994   22.3407 C   0  0  0  0  0  0
  -22.7864  -13.5261   21.1859 C   0  0  0  0  0  0
  -22.1663   -4.2174   21.0986 F   0  0  0  0  0  0
  -21.5603   -3.4534   25.7723 F   0  0  0  0  0  0
  -30.0490  -13.2450   20.4450 N   0  0  0  0  0  0
  -26.3052  -12.9304   20.3382 N   0  0  0  0  0  0
  -25.9291  -11.6472   20.5726 N   0  0  0  0  0  0
  -22.0457  -12.8300   22.0403 N   0  0  0  0  0  0
  -25.4338  -15.1881   20.4137 N   0  0  0  0  0  0
  -31.7883  -14.6889   20.0896 O   0  0  0  0  0  0
  -21.6645   -6.8880   21.4250 O   0  0  0  0  0  0
  -22.3611  -14.5648   20.6817 O   0  0  0  0  0  0
  -24.6130  -31.8732   23.2132 C   0  0  0  0  0  0
  -25.9056  -32.4843   23.8388 C   0  0  1  0  0  0
  -27.2274  -27.4698   20.0562 C   0  0  0  0  0  0
  -25.5929  -33.8640   24.2340 N   0  0  0  0  0  0
  -23.3959  -30.5012   21.5550 C   0  0  2  0  0  0
  -24.8364  -28.9706   20.1172 C   0  0  0  0  0  0
  -22.7404  -29.4685   22.5000 C   0  0  0  0  0  0
  -18.0281  -28.1355   22.8527 C   0  0  0  0  0  0
  -24.1480  -36.7320   23.2628 C   0  0  0  0  0  0
  -25.9245  -30.8414   21.3650 C   0  0  0  0  0  0
  -25.9993  -29.4761   20.7176 C   0  0  0  0  0  0
  -27.1983  -28.7311   20.6945 C   0  0  0  0  0  0
  -26.0564  -26.9844   19.4420 C   0  0  0  0  0  0
  -24.8579  -27.7188   19.4821 C   0  0  0  0  0  0
  -23.6024  -29.8413   20.1671 C   0  0  0  0  0  0
  -25.4103  -36.3121   24.0330 C   0  0  1  0  0  0
  -20.5875  -28.3647   23.1336 C   0  0  2  0  0  0
  -20.6752  -26.9391   22.5409 C   0  0  0  0  0  0
  -19.5714  -26.6384   21.5215 C   0  0  0  0  0  0
  -18.1906  -26.7911   22.1647 C   0  0  0  0  0  0
  -19.1527  -28.8822   23.2933 C   0  0  0  0  0  0
  -18.9442  -30.1440   23.8930 C   0  0  0  0  0  0
  -17.6429  -30.6561   24.0578 C   0  0  0  0  0  0
  -25.9039  -34.9494   23.5122 C   0  0  0  0  0  0
  -16.5329  -29.9071   23.6309 C   0  0  0  0  0  0
  -16.7263  -28.6486   23.0343 C   0  0  0  0  0  0
  -26.4484  -31.6588   25.0699 C   0  0  0  0  0  0
  -25.3758  -31.3652   26.1437 C   0  0  0  0  0  0
  -27.0269  -30.3022   24.6035 C   0  0  0  0  0  0
  -27.6069  -32.4284   25.7472 C   0  0  0  0  0  0
  -27.5570  -37.1818   24.8464 C   0  0  0  0  0  0
  -21.4133  -29.3031   22.3741 N   0  0  0  0  0  0
  -26.4289  -37.3810   23.9405 N   0  0  0  0  0  0
  -24.6628  -31.0864   22.1019 N   0  0  0  0  0  0
  -23.4201  -28.8217   23.3009 O   0  0  0  0  0  0
  -28.3771  -26.7313   19.9081 O   0  0  0  0  0  0
  -26.5583  -34.8945   22.4672 O   0  0  0  0  0  0
  -23.5341  -32.1457   23.7569 O   0  0  0  0  0  0
  -27.7465  -24.1967   20.9885 C   0  0  0  0  0  0
  -28.8527  -24.9001   21.5066 C   0  0  0  0  0  0
  -27.4340  -22.8896   21.4032 C   0  0  0  0  0  0
  -29.6867  -24.2533   22.4554 C   0  0  0  0  0  0
  -29.3728  -22.9322   22.8963 C   0  0  0  0  0  0
  -28.2525  -22.2359   22.3578 C   0  0  0  0  0  0
  -26.1572  -22.2661   20.8596 C   0  0  0  0  0  0
  -30.9088  -24.9794   23.0217 C   0  0  0  0  0  0
  -30.2433  -22.2710   23.9664 C   0  0  0  0  0  0
  -26.5941  -19.0044   22.1925 C   0  0  0  0  0  0
  -29.0990  -26.3546   21.0738 C   0  0  0  0  0  0
  -29.0925  -17.5478   21.4596 C   0  0  0  0  0  0
  -29.1437  -18.9176   22.1648 C   0  0  0  0  0  0
  -30.3622  -16.6981   21.6528 C   0  0  0  0  0  0
  -27.8904  -19.8007   21.9505 C   0  0  2  0  0  0
  -27.9275  -20.9567   22.8490 N   0  0  0  0  0  0
  -30.0507  -15.2970   21.3896 N   0  0  0  0  0  0
  -31.4708  -12.4413   19.0705 H   0  0  0  0  0  0
  -30.3728  -11.2795   19.7591 H   0  0  0  0  0  0
  -29.7191  -11.8131   17.3893 H   0  0  0  0  0  0
  -29.6561  -13.5136   17.7733 H   0  0  0  0  0  0
  -27.8096  -11.3221   18.7751 H   0  0  0  0  0  0
  -27.3588  -12.6891   17.7887 H   0  0  0  0  0  0
  -27.7246  -14.2525   19.6050 H   0  0  0  0  0  0
  -28.6892  -11.8732   21.2744 H   0  0  0  0  0  0
  -28.4666  -13.4705   21.8987 H   0  0  0  0  0  0
  -25.2684   -9.5754   22.4786 H   0  0  0  0  0  0
  -24.0019   -7.4626   22.7404 H   0  0  0  0  0  0
  -21.0839   -8.8700   19.8878 H   0  0  0  0  0  0
  -22.3602  -10.9667   19.6174 H   0  0  0  0  0  0
  -21.1997   -7.6164   23.9737 H   0  0  0  0  0  0
  -21.1453   -6.0522   25.9096 H   0  0  0  0  0  0
  -22.0607   -2.7634   23.2828 H   0  0  0  0  0  0
  -22.3802  -11.9735   22.4559 H   0  0  0  0  0  0
  -21.1255  -13.1658   22.2921 H   0  0  0  0  0  0
  -24.6662  -15.8420   20.5205 H   0  0  0  0  0  0
  -26.2918  -15.6335   20.1146 H   0  0  0  0  0  0
  -26.7142  -32.5550   23.1162 H   0  0  0  0  0  0
  -25.0125  -33.9818   25.0513 H   0  0  0  0  0  0
  -22.6796  -31.3149   21.4243 H   0  0  0  0  0  0
  -23.3739  -35.9660   23.3306 H   0  0  0  0  0  0
  -24.3566  -36.8920   22.2040 H   0  0  0  0  0  0
  -23.7257  -37.6536   23.6632 H   0  0  0  0  0  0
  -26.0349  -31.6072   20.5963 H   0  0  0  0  0  0
  -26.8150  -30.8939   21.9779 H   0  0  0  0  0  0
  -28.1013  -29.1445   21.1222 H   0  0  0  0  0  0
  -26.0705  -26.0503   18.9018 H   0  0  0  0  0  0
  -23.9728  -27.3373   18.9893 H   0  0  0  0  0  0
  -23.7084  -30.6207   19.4110 H   0  0  0  0  0  0
  -22.7222  -29.2686   19.8663 H   0  0  0  0  0  0
  -25.1290  -36.1967   25.0827 H   0  0  0  0  0  0
  -20.9991  -28.3189   24.1445 H   0  0  0  0  0  0
  -20.5655  -26.2258   23.3591 H   0  0  0  0  0  0
  -21.6619  -26.7411   22.1196 H   0  0  0  0  0  0
  -19.6852  -25.6308   21.1205 H   0  0  0  0  0  0
  -19.6625  -27.3233   20.6775 H   0  0  0  0  0  0
  -17.4175  -26.6716   21.4039 H   0  0  0  0  0  0
  -18.0288  -26.0025   22.9012 H   0  0  0  0  0  0
  -19.7904  -30.7274   24.2291 H   0  0  0  0  0  0
  -17.4966  -31.6244   24.5180 H   0  0  0  0  0  0
  -15.5326  -30.2967   23.7589 H   0  0  0  0  0  0
  -15.8676  -28.0803   22.7007 H   0  0  0  0  0  0
  -24.5993  -30.6939   25.7747 H   0  0  0  0  0  0
  -24.8879  -32.2781   26.4855 H   0  0  0  0  0  0
  -25.8141  -30.8842   27.0191 H   0  0  0  0  0  0
  -26.2757  -29.6827   24.1124 H   0  0  0  0  0  0
  -27.4050  -29.7224   25.4460 H   0  0  0  0  0  0
  -27.8609  -30.4296   23.9135 H   0  0  0  0  0  0
  -27.2697  -33.3585   26.2047 H   0  0  0  0  0  0
  -28.3885  -32.6837   25.0307 H   0  0  0  0  0  0
  -28.0719  -31.8401   26.5387 H   0  0  0  0  0  0
  -28.2608  -38.0094   24.7514 H   0  0  0  0  0  0
  -28.1052  -36.2640   24.6297 H   0  0  0  0  0  0
  -27.2287  -37.1471   25.8865 H   0  0  0  0  0  0
  -20.9256  -29.8797   21.7020 H   0  0  0  0  0  0
  -26.0169  -38.2884   24.1408 H   0  0  0  0  0  0
  -27.0937  -24.6681   20.2748 H   0  0  0  0  0  0
  -25.4964  -23.0182   20.4253 H   0  0  0  0  0  0
  -25.6052  -21.7890   21.6672 H   0  0  0  0  0  0
  -26.3823  -21.5268   20.0916 H   0  0  0  0  0  0
  -31.3309  -25.7146   22.3405 H   0  0  0  0  0  0
  -31.7265  -24.2893   23.2254 H   0  0  0  0  0  0
  -30.6545  -25.4998   23.9460 H   0  0  0  0  0  0
  -30.5635  -22.9919   24.7184 H   0  0  0  0  0  0
  -31.1298  -21.8314   23.5090 H   0  0  0  0  0  0
  -29.7281  -21.4862   24.5185 H   0  0  0  0  0  0
  -26.4292  -18.2711   21.4006 H   0  0  0  0  0  0
  -25.7096  -19.6373   22.2096 H   0  0  0  0  0  0
  -26.6265  -18.4674   23.1413 H   0  0  0  0  0  0
  -30.1431  -26.4936   20.7970 H   0  0  0  0  0  0
  -28.8995  -27.0136   21.9189 H   0  0  0  0  0  0
  -28.8959  -17.6827   20.3957 H   0  0  0  0  0  0
  -28.2501  -16.9837   21.8627 H   0  0  0  0  0  0
  -30.0340  -19.4572   21.8368 H   0  0  0  0  0  0
  -29.2735  -18.7358   23.2332 H   0  0  0  0  0  0
  -30.7089  -16.7685   22.6834 H   0  0  0  0  0  0
  -31.1641  -17.0701   21.0144 H   0  0  0  0  0  0
  -27.8958  -20.1415   20.9157 H   0  0  0  0  0  0
  -28.3728  -20.7450   23.7333 H   0  0  0  0  0  0
  -29.1906  -14.9495   21.7828 H   0  0  0  0  0  0
  1 25  1  0  0  0
  1 30  2  0  0  0
  1 87  1  0  0  0
  2  3  1  0  0  0
  2 25  1  0  0  0
  2 88  1  0  0  0
  2 89  1  0  0  0
  3  4  1  0  0  0
  3 90  1  0  0  0
  3 91  1  0  0  0
  4  5  1  0  0  0
  4 92  1  0  0  0
  4 93  1  0  0  0
  5  6  1  0  0  0
  5 26  1  0  0  0
  5 94  1  0  0  0
  6 25  1  0  0  0
  6 95  1  0  0  0
  6 96  1  0  0  0
  7  8  2  0  0  0
  7 26  1  0  0  0
  7 29  1  0  0  0
  8  9  1  0  0  0
  8 22  1  0  0  0
  9 10  1  0  0  0
  9 27  2  0  0  0
 10 11  2  0  0  0
 10 15  1  0  0  0
 11 12  1  0  0  0
 11 97  1  0  0  0
 12 13  2  0  0  0
 12 98  1  0  0  0
 13 14  1  0  0  0
 13 31  1  0  0  0
 14 15  2  0  0  0
 14 99  1  0  0  0
 15100  1  0  0  0
 16 17  2  0  0  0
 16 21  1  0  0  0
 16 31  1  0  0  0
 17 18  1  0  0  0
 17101  1  0  0  0
 18 19  2  0  0  0
 18102  1  0  0  0
 19 20  1  0  0  0
 19 24  1  0  0  0
 20 21  2  0  0  0
 20103  1  0  0  0
 21 23  1  0  0  0
 22 28  1  0  0  0
 22 32  2  0  0  0
 26 27  1  0  0  0
 28104  1  0  0  0
 28105  1  0  0  0
 29106  1  0  0  0
 29107  1  0  0  0
 33 34  1  0  0  0
 33 66  1  0  0  0
 33 70  2  0  0  0
 34 36  1  0  0  0
 34 59  1  0  0  0
 34108  1  0  0  0
 35 44  2  0  0  0
 35 45  1  0  0  0
 35 68  1  0  0  0
 36 56  1  0  0  0
 36109  1  0  0  0
 37 39  1  0  0  0
 37 47  1  0  0  0
 37 66  1  0  0  0
 37110  1  0  0  0
 38 43  2  0  0  0
 38 46  1  0  0  0
 38 47  1  0  0  0
 39 64  1  0  0  0
 39 67  2  0  0  0
 40 52  1  0  0  0
 40 53  2  0  0  0
 40 58  1  0  0  0
 41111  1  0  0  0
 41112  1  0  0  0
 41113  1  0  0  0
 41 48  1  0  0  0
 42 43  1  0  0  0
 42 66  1  0  0  0
 42114  1  0  0  0
 42115  1  0  0  0
 43 44  1  0  0  0
 44116  1  0  0  0
 45 46  2  0  0  0
 45117  1  0  0  0
 46118  1  0  0  0
 47119  1  0  0  0
 47120  1  0  0  0
 48 56  1  0  0  0
 48 65  1  0  0  0
 48121  1  0  0  0
 49 50  1  0  0  0
 49 53  1  0  0  0
 49 64  1  0  0  0
 49122  1  0  0  0
 50 51  1  0  0  0
 50123  1  0  0  0
 50124  1  0  0  0
 51 52  1  0  0  0
 51125  1  0  0  0
 51126  1  0  0  0
 52127  1  0  0  0
 52128  1  0  0  0
 53 54  1  0  0  0
 54 55  2  0  0  0
 54129  1  0  0  0
 55 57  1  0  0  0
 55130  1  0  0  0
 56 69  2  0  0  0
 57 58  2  0  0  0
 57131  1  0  0  0
 58132  1  0  0  0
 59 60  1  0  0  0
 59 61  1  0  0  0
 59 62  1  0  0  0
 60133  1  0  0  0
 60134  1  0  0  0
 60135  1  0  0  0
 61136  1  0  0  0
 61137  1  0  0  0
 61138  1  0  0  0
 62139  1  0  0  0
 62140  1  0  0  0
 62141  1  0  0  0
 63 65  1  0  0  0
 63142  1  0  0  0
 63143  1  0  0  0
 63144  1  0  0  0
 64145  1  0  0  0
 65146  1  0  0  0
 68 81  1  0  0  0
 71 72  2  0  0  0
 71 73  1  0  0  0
 71147  1  0  0  0
 72 74  1  0  0  0
 72 81  1  0  0  0
 73 76  2  0  0  0
 73 77  1  0  0  0
 74 75  2  0  0  0
 74 78  1  0  0  0
 75 76  1  0  0  0
 75 79  1  0  0  0
 76 86  1  0  0  0
 77148  1  0  0  0
 77149  1  0  0  0
 77150  1  0  0  0
 78151  1  0  0  0
 78152  1  0  0  0
 78153  1  0  0  0
 79154  1  0  0  0
 79155  1  0  0  0
 79156  1  0  0  0
 80157  1  0  0  0
 80158  1  0  0  0
 80159  1  0  0  0
 80 85  1  0  0  0
 81160  1  0  0  0
 81161  1  0  0  0
 82 83  1  0  0  0
 82 84  1  0  0  0
 82162  1  0  0  0
 82163  1  0  0  0
 83 85  1  0  0  0
 83164  1  0  0  0
 83165  1  0  0  0
 84 87  1  0  0  0
 84166  1  0  0  0
 84167  1  0  0  0
 85 86  1  0  0  0
 85168  1  0  0  0
 86169  1  0  0  0
 87170  1  0  0  0
M  ISO  4   1 100  68 101  81 101  87 100
M  END
> <chiral flag>
0

> <version>
0

> <s_m_source_file>
/data/baiqing/PycharmProjects/Reinvent-master-3.2/result/LINK_invent/BTK/process_docking_weight1_custom_sum_contain_oxygen_bond_distance_aromatic_linkinvent_7_9_3/rearranged_h_0019.sdf

> <i_m_source_file_index>
8

> <r_mmod_Potential_Energy-OPLS-2005>
-108.485412597656

> <r_mmod_Stretch_Energy-OPLS-2005>
37.3908576965332

> <r_mmod_Bend_Energy-OPLS-2005>
105.53955078125

> <r_mmod_Torsional_Energy-OPLS-2005>
235.76936340332

> <r_mmod_Improper_Torsional_Energy-OPLS-2005>
6.98945331573486

> <r_mmod_Van_der_Waal_Energy-OPLS-2005>
167.776290893555

> <r_mmod_Electrostatic_Energy-OPLS-2005>
-463.927642822266

> <r_mmod_Solvation_Energy-OPLS-2005>
-208.003540039062

> <b_mmod_Minimization_Converged-OPLS-2005>
0

> <r_mmod_RMS_Derivative-OPLS-2005>
3.75923442840576

$$$$
8
                    3D
 Structure written by MMmdl.
150158  0  0  1  0            999 V2000
  -30.2980  -15.6014   20.3311 C   0  0  0  0  0  0
  -30.4320  -13.0527   19.5415 C   0  0  0  0  0  0
  -29.5533  -12.6482   18.3227 C   0  0  0  0  0  0
  -28.1236  -12.2976   18.7633 C   0  0  0  0  0  0
  -27.5997  -13.3026   19.8143 C   0  0  2  0  0  0
  -28.6173  -13.6140   20.9369 C   0  0  0  0  0  0
  -25.2340  -13.8273   20.5778 C   0  0  0  0  0  0
  -24.1724  -13.0431   20.9283 C   0  0  0  0  0  0
  -24.6416  -11.6939   20.8759 C   0  0  0  0  0  0
  -23.9116  -10.4289   21.0395 C   0  0  0  0  0  0
  -24.3650   -9.4202   21.9180 C   0  0  0  0  0  0
  -23.6309   -8.2245   22.0756 C   0  0  0  0  0  0
  -22.4291   -8.0285   21.3545 C   0  0  0  0  0  0
  -21.9936   -9.0260   20.4646 C   0  0  0  0  0  0
  -22.7280  -10.2132   20.3050 C   0  0  0  0  0  0
  -21.6858   -6.0739   22.5280 C   0  0  0  0  0  0
  -21.4018   -6.5642   23.8213 C   0  0  0  0  0  0
  -21.3660   -5.6793   24.9174 C   0  0  0  0  0  0
  -21.6043   -4.3056   24.7224 C   0  0  0  0  0  0
  -21.8818   -3.8149   23.4346 C   0  0  0  0  0  0
  -21.9195   -4.6966   22.3402 C   0  0  0  0  0  0
  -22.7737  -13.5168   21.1915 C   0  0  0  0  0  0
  -22.1662   -4.2151   21.0979 F   0  0  0  0  0  0
  -21.5627   -3.4539   25.7737 F   0  0  0  0  0  0
  -29.7998  -14.2283   20.2907 N   0  0  0  0  0  0
  -26.2785  -12.9595   20.3218 N   0  0  0  0  0  0
  -25.9362  -11.6672   20.5695 N   0  0  0  0  0  0
  -22.0397  -12.8147   22.0466 N   0  0  0  0  0  0
  -25.3926  -15.2013   20.4205 N   0  0  0  0  0  0
  -31.5299  -15.5732   20.1453 O   0  0  0  0  0  0
  -21.6647   -6.8886   21.4243 O   0  0  0  0  0  0
  -22.3411  -14.5464   20.6747 O   0  0  0  0  0  0
  -24.6832  -31.8000   23.1521 C   0  0  0  0  0  0
  -25.9415  -32.4466   23.8067 C   0  0  1  0  0  0
  -27.2273  -26.7105   20.2124 C   0  0  0  0  0  0
  -25.5998  -33.8290   24.1954 N   0  0  0  0  0  0
  -23.5089  -30.4022   21.5060 C   0  0  2  0  0  0
  -24.9672  -28.7458   20.1172 C   0  0  0  0  0  0
  -22.7765  -29.4312   22.4712 C   0  0  0  0  0  0
  -18.0340  -28.1415   22.8452 C   0  0  0  0  0  0
  -24.1495  -36.7153   23.2653 C   0  0  0  0  0  0
  -26.0894  -30.5357   21.4154 C   0  0  0  0  0  0
  -26.1561  -29.1015   20.7654 C   0  0  0  0  0  0
  -27.2718  -28.1118   20.7810 C   0  0  0  0  0  0
  -26.0063  -26.5638   19.5058 C   0  0  0  0  0  0
  -24.9310  -27.5023   19.4636 C   0  0  0  0  0  0
  -23.7625  -29.6996   20.1411 C   0  0  0  0  0  0
  -25.4143  -36.2890   24.0283 C   0  0  1  0  0  0
  -20.5975  -28.3774   23.1139 C   0  0  2  0  0  0
  -20.6801  -26.9433   22.5398 C   0  0  0  0  0  0
  -19.5779  -26.6368   21.5208 C   0  0  0  0  0  0
  -18.1963  -26.7944   22.1614 C   0  0  0  0  0  0
  -19.1606  -28.8919   23.2775 C   0  0  0  0  0  0
  -18.9513  -30.1504   23.8818 C   0  0  0  0  0  0
  -17.6502  -30.6597   24.0547 C   0  0  0  0  0  0
  -25.9124  -34.9282   23.4954 C   0  0  0  0  0  0
  -16.5391  -29.9078   23.6348 C   0  0  0  0  0  0
  -16.7321  -28.6501   23.0363 C   0  0  0  0  0  0
  -26.4596  -31.6499   25.0687 C   0  0  0  0  0  0
  -25.3664  -31.3808   26.1303 C   0  0  0  0  0  0
  -27.0531  -30.2840   24.6581 C   0  0  0  0  0  0
  -27.6045  -32.4363   25.7498 C   0  0  0  0  0  0
  -27.5562  -37.1730   24.8466 C   0  0  0  0  0  0
  -21.4414  -29.3024   22.3463 N   0  0  0  0  0  0
  -26.4267  -37.3652   23.9411 N   0  0  0  0  0  0
  -24.7839  -30.9454   22.0771 N   0  0  0  0  0  0
  -23.4210  -28.7911   23.3054 O   0  0  0  0  0  0
  -28.1800  -25.4860   20.2949 O   0  0  0  0  0  0
  -26.5762  -34.8859   22.4569 O   0  0  0  0  0  0
  -23.5853  -32.1074   23.6478 O   0  0  0  0  0  0
  -28.8140  -21.0375   19.1791 C   0  0  0  0  0  0
  -28.6351  -22.0632   20.2461 C   0  0  0  0  0  0
  -28.8913  -21.1532   21.4069 C   0  0  0  0  0  0
  -29.2266  -19.6414   21.4542 C   0  0  0  0  0  0
  -29.4013  -18.6350   20.3558 C   0  0  0  0  0  0
  -29.1412  -19.5454   19.2094 C   0  0  0  0  0  0
  -28.7344  -21.8526   22.7511 C   0  0  0  0  0  0
  -29.3678  -19.0312   22.8436 C   0  0  0  0  0  0
  -27.8788  -23.7725   20.1032 C   0  0  0  0  0  0
  -29.4724  -16.9133   20.4146 N   0  0  0  0  0  0
  -29.1444  -18.9383   17.9984 F   0  0  0  0  0  0
  -31.4270  -13.3154   19.1804 H   0  0  0  0  0  0
  -30.5873  -12.2016   20.2067 H   0  0  0  0  0  0
  -30.0014  -11.8088   17.7892 H   0  0  0  0  0  0
  -29.5197  -13.4784   17.6155 H   0  0  0  0  0  0
  -28.1449  -11.2972   19.1975 H   0  0  0  0  0  0
  -27.4549  -12.2466   17.9033 H   0  0  0  0  0  0
  -27.4694  -14.2293   19.2535 H   0  0  0  0  0  0
  -28.8677  -12.7228   21.5145 H   0  0  0  0  0  0
  -28.1910  -14.3281   21.6428 H   0  0  0  0  0  0
  -25.2790   -9.5677   22.4762 H   0  0  0  0  0  0
  -24.0010   -7.4639   22.7483 H   0  0  0  0  0  0
  -21.0865   -8.8786   19.8954 H   0  0  0  0  0  0
  -22.3736  -10.9671   19.6159 H   0  0  0  0  0  0
  -21.2013   -7.6150   23.9718 H   0  0  0  0  0  0
  -21.1482   -6.0524   25.9077 H   0  0  0  0  0  0
  -22.0596   -2.7611   23.2846 H   0  0  0  0  0  0
  -22.4037  -11.9826   22.4866 H   0  0  0  0  0  0
  -21.1003  -13.1145   22.2658 H   0  0  0  0  0  0
  -24.6150  -15.8441   20.5258 H   0  0  0  0  0  0
  -26.2203  -15.6417   20.0426 H   0  0  0  0  0  0
  -26.7498  -32.4940   23.0781 H   0  0  0  0  0  0
  -25.0062  -33.9330   25.0050 H   0  0  0  0  0  0
  -22.8335  -31.2391   21.3165 H   0  0  0  0  0  0
  -23.3773  -35.9465   23.3259 H   0  0  0  0  0  0
  -24.3568  -36.8872   22.2078 H   0  0  0  0  0  0
  -23.7241  -37.6312   23.6768 H   0  0  0  0  0  0
  -26.2908  -31.2608   20.6257 H   0  0  0  0  0  0
  -26.9407  -30.6037   22.0802 H   0  0  0  0  0  0
  -28.1648  -28.3895   21.3229 H   0  0  0  0  0  0
  -25.8386  -25.6220   19.0030 H   0  0  0  0  0  0
  -24.0340  -27.2209   18.9293 H   0  0  0  0  0  0
  -23.9361  -30.4596   19.3784 H   0  0  0  0  0  0
  -22.8678  -29.1648   19.8178 H   0  0  0  0  0  0
  -25.1351  -36.1648   25.0773 H   0  0  0  0  0  0
  -21.0054  -28.3393   24.1268 H   0  0  0  0  0  0
  -20.5652  -26.2398   23.3659 H   0  0  0  0  0  0
  -21.6663  -26.7370   22.1222 H   0  0  0  0  0  0
  -19.6933  -25.6259   21.1285 H   0  0  0  0  0  0
  -19.6720  -27.3133   20.6701 H   0  0  0  0  0  0
  -17.4230  -26.6686   21.4019 H   0  0  0  0  0  0
  -18.0355  -26.0100   22.9024 H   0  0  0  0  0  0
  -19.7989  -30.7341   24.2147 H   0  0  0  0  0  0
  -17.5053  -31.6268   24.5166 H   0  0  0  0  0  0
  -15.5387  -30.2951   23.7719 H   0  0  0  0  0  0
  -15.8724  -28.0794   22.7116 H   0  0  0  0  0  0
  -24.5879  -30.7125   25.7603 H   0  0  0  0  0  0
  -24.8819  -32.3025   26.4535 H   0  0  0  0  0  0
  -25.7845  -30.9100   27.0210 H   0  0  0  0  0  0
  -26.3249  -29.6452   24.1574 H   0  0  0  0  0  0
  -27.3963  -29.7286   25.5320 H   0  0  0  0  0  0
  -27.9226  -30.3969   24.0104 H   0  0  0  0  0  0
  -27.2591  -33.3742   26.1858 H   0  0  0  0  0  0
  -28.3961  -32.6800   25.0399 H   0  0  0  0  0  0
  -28.0599  -31.8640   26.5591 H   0  0  0  0  0  0
  -28.2539  -38.0063   24.7519 H   0  0  0  0  0  0
  -28.1100  -36.2585   24.6284 H   0  0  0  0  0  0
  -27.2281  -37.1352   25.8868 H   0  0  0  0  0  0
  -20.9715  -29.8694   21.6545 H   0  0  0  0  0  0
  -26.0092  -38.2698   24.1430 H   0  0  0  0  0  0
  -28.6177  -21.4116   18.1853 H   0  0  0  0  0  0
  -28.5225  -22.9157   22.6380 H   0  0  0  0  0  0
  -29.6481  -21.7752   23.3404 H   0  0  0  0  0  0
  -27.9128  -21.4190   23.3215 H   0  0  0  0  0  0
  -28.4405  -19.1291   23.4078 H   0  0  0  0  0  0
  -30.1696  -19.5172   23.3995 H   0  0  0  0  0  0
  -29.6102  -17.9697   22.8088 H   0  0  0  0  0  0
  -26.9807  -23.6508   20.7087 H   0  0  0  0  0  0
  -27.4989  -23.7412   19.0820 H   0  0  0  0  0  0
  -28.5273  -16.5860   20.5469 H   0  0  0  0  0  0
  1 25  1  0  0  0
  1 30  2  0  0  0
  1 80  1  0  0  0
  2  3  1  0  0  0
  2 25  1  0  0  0
  2 82  1  0  0  0
  2 83  1  0  0  0
  3  4  1  0  0  0
  3 84  1  0  0  0
  3 85  1  0  0  0
  4  5  1  0  0  0
  4 86  1  0  0  0
  4 87  1  0  0  0
  5  6  1  0  0  0
  5 26  1  0  0  0
  5 88  1  0  0  0
  6 25  1  0  0  0
  6 89  1  0  0  0
  6 90  1  0  0  0
  7  8  2  0  0  0
  7 26  1  0  0  0
  7 29  1  0  0  0
  8  9  1  0  0  0
  8 22  1  0  0  0
  9 10  1  0  0  0
  9 27  2  0  0  0
 10 11  2  0  0  0
 10 15  1  0  0  0
 11 12  1  0  0  0
 11 91  1  0  0  0
 12 13  2  0  0  0
 12 92  1  0  0  0
 13 14  1  0  0  0
 13 31  1  0  0  0
 14 15  2  0  0  0
 14 93  1  0  0  0
 15 94  1  0  0  0
 16 17  2  0  0  0
 16 21  1  0  0  0
 16 31  1  0  0  0
 17 18  1  0  0  0
 17 95  1  0  0  0
 18 19  2  0  0  0
 18 96  1  0  0  0
 19 20  1  0  0  0
 19 24  1  0  0  0
 20 21  2  0  0  0
 20 97  1  0  0  0
 21 23  1  0  0  0
 22 28  1  0  0  0
 22 32  2  0  0  0
 26 27  1  0  0  0
 28 98  1  0  0  0
 28 99  1  0  0  0
 29100  1  0  0  0
 29101  1  0  0  0
 33 34  1  0  0  0
 33 66  1  0  0  0
 33 70  2  0  0  0
 34 36  1  0  0  0
 34 59  1  0  0  0
 34102  1  0  0  0
 35 44  2  0  0  0
 35 45  1  0  0  0
 35 68  1  0  0  0
 36 56  1  0  0  0
 36103  1  0  0  0
 37 39  1  0  0  0
 37 47  1  0  0  0
 37 66  1  0  0  0
 37104  1  0  0  0
 38 43  2  0  0  0
 38 46  1  0  0  0
 38 47  1  0  0  0
 39 64  1  0  0  0
 39 67  2  0  0  0
 40 52  1  0  0  0
 40 53  2  0  0  0
 40 58  1  0  0  0
 41105  1  0  0  0
 41106  1  0  0  0
 41107  1  0  0  0
 41 48  1  0  0  0
 42 43  1  0  0  0
 42 66  1  0  0  0
 42108  1  0  0  0
 42109  1  0  0  0
 43 44  1  0  0  0
 44110  1  0  0  0
 45 46  2  0  0  0
 45111  1  0  0  0
 46112  1  0  0  0
 47113  1  0  0  0
 47114  1  0  0  0
 48 56  1  0  0  0
 48 65  1  0  0  0
 48115  1  0  0  0
 49 50  1  0  0  0
 49 53  1  0  0  0
 49 64  1  0  0  0
 49116  1  0  0  0
 50 51  1  0  0  0
 50117  1  0  0  0
 50118  1  0  0  0
 51 52  1  0  0  0
 51119  1  0  0  0
 51120  1  0  0  0
 52121  1  0  0  0
 52122  1  0  0  0
 53 54  1  0  0  0
 54 55  2  0  0  0
 54123  1  0  0  0
 55 57  1  0  0  0
 55124  1  0  0  0
 56 69  2  0  0  0
 57 58  2  0  0  0
 57125  1  0  0  0
 58126  1  0  0  0
 59 60  1  0  0  0
 59 61  1  0  0  0
 59 62  1  0  0  0
 60127  1  0  0  0
 60128  1  0  0  0
 60129  1  0  0  0
 61130  1  0  0  0
 61131  1  0  0  0
 61132  1  0  0  0
 62133  1  0  0  0
 62134  1  0  0  0
 62135  1  0  0  0
 63 65  1  0  0  0
 63136  1  0  0  0
 63137  1  0  0  0
 63138  1  0  0  0
 64139  1  0  0  0
 65140  1  0  0  0
 68 79  1  0  0  0
 71 72  2  0  0  0
 71 76  1  0  0  0
 71141  1  0  0  0
 72 73  1  0  0  0
 72 79  1  0  0  0
 73 74  2  0  0  0
 73 77  1  0  0  0
 74 75  1  0  0  0
 74 78  1  0  0  0
 75 76  2  0  0  0
 75 80  1  0  0  0
 76 81  1  0  0  0
 77142  1  0  0  0
 77143  1  0  0  0
 77144  1  0  0  0
 78145  1  0  0  0
 78146  1  0  0  0
 78147  1  0  0  0
 79148  1  0  0  0
 79149  1  0  0  0
 80150  1  0  0  0
M  ISO  4   1 100  68 101  79 101  80 100
M  END
> <chiral flag>
0

> <version>
0

> <s_m_source_file>
/data/baiqing/PycharmProjects/Reinvent-master-3.2/result/LINK_invent/BTK/process_docking_weight1_custom_sum_contain_oxygen_bond_distance_aromatic_linkinvent_7_9_3/rearranged_h_0019.sdf

> <i_m_source_file_index>
9

> <r_mmod_Potential_Energy-OPLS-2005>
2244.56079101562

> <r_mmod_Stretch_Energy-OPLS-2005>
925.304931640625

> <r_mmod_Bend_Energy-OPLS-2005>
642.938781738281

> <r_mmod_Torsional_Energy-OPLS-2005>
261.664886474609

> <r_mmod_Improper_Torsional_Energy-OPLS-2005>
10.3619241714478

> <r_mmod_Van_der_Waal_Energy-OPLS-2005>
135.042419433594

> <r_mmod_Electrostatic_Energy-OPLS-2005>
-393.043518066406

> <r_mmod_Solvation_Energy-OPLS-2005>
-209.192535400391

> <b_mmod_Minimization_Converged-OPLS-2005>
0

> <r_mmod_RMS_Derivative-OPLS-2005>
0.391629010438919

$$$$
9
                    3D
 Structure written by MMmdl.
188195  0  0  1  0            999 V2000
  -30.6392  -14.6579   20.4675 C   0  0  0  0  0  0
  -30.4413  -12.3958   19.4714 C   0  0  0  0  0  0
  -29.5225  -12.4912   18.2336 C   0  0  0  0  0  0
  -28.0408  -12.3362   18.6351 C   0  0  0  0  0  0
  -27.6512  -13.2209   19.8508 C   0  0  2  0  0  0
  -28.6943  -13.1076   20.9862 C   0  0  0  0  0  0
  -25.2518  -13.8185   20.5683 C   0  0  0  0  0  0
  -24.1811  -13.0431   20.9209 C   0  0  0  0  0  0
  -24.6379  -11.6913   20.8713 C   0  0  0  0  0  0
  -23.9050  -10.4284   21.0361 C   0  0  0  0  0  0
  -24.3601   -9.4208   21.9142 C   0  0  0  0  0  0
  -23.6295   -8.2237   22.0731 C   0  0  0  0  0  0
  -22.4270   -8.0268   21.3540 C   0  0  0  0  0  0
  -21.9906   -9.0233   20.4638 C   0  0  0  0  0  0
  -22.7212  -10.2115   20.3028 C   0  0  0  0  0  0
  -21.6862   -6.0724   22.5289 C   0  0  0  0  0  0
  -21.4001   -6.5626   23.8217 C   0  0  0  0  0  0
  -21.3655   -5.6770   24.9178 C   0  0  0  0  0  0
  -21.6066   -4.3044   24.7206 C   0  0  0  0  0  0
  -21.8821   -3.8125   23.4323 C   0  0  0  0  0  0
  -21.9182   -4.6955   22.3376 C   0  0  0  0  0  0
  -22.7809  -13.5218   21.1852 C   0  0  0  0  0  0
  -22.1661   -4.2142   21.0954 F   0  0  0  0  0  0
  -21.5638   -3.4526   25.7713 F   0  0  0  0  0  0
  -30.0092  -13.4405   20.4234 N   0  0  0  0  0  0
  -26.2966  -12.9388   20.3246 N   0  0  0  0  0  0
  -25.9307  -11.6542   20.5689 N   0  0  0  0  0  0
  -22.0431  -12.8233   22.0418 N   0  0  0  0  0  0
  -25.4176  -15.1915   20.4098 N   0  0  0  0  0  0
  -31.8117  -14.7758   20.1113 O   0  0  0  0  0  0
  -21.6637   -6.8875   21.4255 O   0  0  0  0  0  0
  -22.3492  -14.5497   20.6655 O   0  0  0  0  0  0
  -24.6252  -31.8591   23.1994 C   0  0  0  0  0  0
  -25.9095  -32.4767   23.8341 C   0  0  1  0  0  0
  -27.2336  -27.3199   20.1211 C   0  0  0  0  0  0
  -25.5913  -33.8567   24.2280 N   0  0  0  0  0  0
  -23.4204  -30.4800   21.5407 C   0  0  2  0  0  0
  -24.8698  -28.9329   20.1104 C   0  0  0  0  0  0
  -22.7488  -29.4616   22.4924 C   0  0  0  0  0  0
  -18.0284  -28.1389   22.8487 C   0  0  0  0  0  0
  -24.1493  -36.7296   23.2641 C   0  0  0  0  0  0
  -25.9604  -30.7928   21.3687 C   0  0  0  0  0  0
  -26.0348  -29.4176   20.7143 C   0  0  0  0  0  0
  -27.2151  -28.6211   20.7120 C   0  0  0  0  0  0
  -26.0399  -26.8770   19.5073 C   0  0  0  0  0  0
  -24.8741  -27.6682   19.4991 C   0  0  0  0  0  0
  -23.6361  -29.8095   20.1570 C   0  0  0  0  0  0
  -25.4112  -36.3075   24.0336 C   0  0  1  0  0  0
  -20.5890  -28.3691   23.1294 C   0  0  2  0  0  0
  -20.6776  -26.9416   22.5417 C   0  0  0  0  0  0
  -19.5747  -26.6385   21.5226 C   0  0  0  0  0  0
  -18.1925  -26.7930   22.1631 C   0  0  0  0  0  0
  -19.1536  -28.8856   23.2876 C   0  0  0  0  0  0
  -18.9455  -30.1460   23.8888 C   0  0  0  0  0  0
  -17.6454  -30.6580   24.0565 C   0  0  0  0  0  0
  -25.9041  -34.9443   23.5106 C   0  0  0  0  0  0
  -16.5351  -29.9086   23.6324 C   0  0  0  0  0  0
  -16.7269  -28.6510   23.0339 C   0  0  0  0  0  0
  -26.4484  -31.6565   25.0702 C   0  0  0  0  0  0
  -25.3731  -31.3717   26.1446 C   0  0  0  0  0  0
  -27.0317  -30.2984   24.6144 C   0  0  0  0  0  0
  -27.6032  -32.4316   25.7468 C   0  0  0  0  0  0
  -27.5579  -37.1805   24.8466 C   0  0  0  0  0  0
  -21.4207  -29.3036   22.3688 N   0  0  0  0  0  0
  -26.4296  -37.3763   23.9398 N   0  0  0  0  0  0
  -24.6871  -31.0622   22.0934 N   0  0  0  0  0  0
  -23.4226  -28.8172   23.3008 O   0  0  0  0  0  0
  -28.3836  -26.5222   20.2016 O   0  0  0  0  0  0
  -26.5612  -34.8914   22.4674 O   0  0  0  0  0  0
  -23.5411  -32.1387   23.7327 O   0  0  0  0  0  0
  -33.5634  -19.7296   18.3261 C   0  0  0  0  0  0
  -34.0254  -21.3505   20.9929 C   0  0  0  0  0  0
  -28.9579  -24.1368   21.9630 C   0  0  0  0  0  0
  -33.0526  -24.4979   22.0979 C   0  0  0  0  0  0
  -34.0975  -24.5577   19.8147 C   0  0  0  0  0  0
  -31.9143  -25.5613   20.1690 C   0  0  0  0  0  0
  -31.0309  -23.1163   17.9598 C   0  0  0  0  0  0
  -32.5453  -20.4946   19.1930 C   0  0  0  0  0  0
  -29.3562  -19.7924   20.0021 C   0  0  0  0  0  0
  -29.6509  -18.4564   20.8420 C   0  0  0  0  0  0
  -29.4188  -21.2209   20.7248 C   0  0  0  0  0  0
  -30.0510  -17.1385   20.0331 C   0  0  0  0  0  0
  -28.5110  -25.1834   19.5897 C   0  0  0  0  0  0
  -33.0989  -21.7885   19.8331 C   0  0  1  0  0  0
  -28.6198  -23.8513   20.4859 C   0  0  1  0  0  0
  -29.4625  -22.6102   19.8868 C   0  0  1  0  0  0
  -32.0699  -22.9171   20.2947 C   0  0  1  0  0  0
  -32.7676  -24.3354   20.5813 C   0  0  0  0  0  0
  -29.8557  -15.7721   20.6593 N   0  0  0  0  0  0
  -30.8341  -23.0925   19.4356 N   0  3  1  0  0  0
  -31.4839  -12.5168   19.1725 H   0  0  0  0  0  0
  -30.3818  -11.4091   19.9343 H   0  0  0  0  0  0
  -29.7957  -11.7259   17.5053 H   0  0  0  0  0  0
  -29.6781  -13.4501   17.7361 H   0  0  0  0  0  0
  -27.8789  -11.2866   18.8836 H   0  0  0  0  0  0
  -27.3956  -12.5501   17.7830 H   0  0  0  0  0  0
  -27.6621  -14.2488   19.4869 H   0  0  0  0  0  0
  -28.7095  -12.0970   21.3998 H   0  0  0  0  0  0
  -28.4391  -13.7727   21.8103 H   0  0  0  0  0  0
  -25.2739   -9.5697   22.4712 H   0  0  0  0  0  0
  -24.0008   -7.4634   22.7433 H   0  0  0  0  0  0
  -21.0846   -8.8720   19.8935 H   0  0  0  0  0  0
  -22.3657  -10.9637   19.6110 H   0  0  0  0  0  0
  -21.2006   -7.6136   23.9729 H   0  0  0  0  0  0
  -21.1487   -6.0492   25.9092 H   0  0  0  0  0  0
  -22.0610   -2.7589   23.2812 H   0  0  0  0  0  0
  -22.4019  -11.9949   22.4940 H   0  0  0  0  0  0
  -21.1009  -13.1225   22.2483 H   0  0  0  0  0  0
  -24.6495  -15.8397   20.5398 H   0  0  0  0  0  0
  -26.2549  -15.6403   20.0639 H   0  0  0  0  0  0
  -26.7173  -32.5451   23.1097 H   0  0  0  0  0  0
  -25.0068  -33.9711   25.0433 H   0  0  0  0  0  0
  -22.7122  -31.2981   21.3935 H   0  0  0  0  0  0
  -23.3735  -35.9649   23.3321 H   0  0  0  0  0  0
  -24.3584  -36.8890   22.2051 H   0  0  0  0  0  0
  -23.7277  -37.6522   23.6644 H   0  0  0  0  0  0
  -26.0893  -31.5542   20.5980 H   0  0  0  0  0  0
  -26.8428  -30.8466   21.9953 H   0  0  0  0  0  0
  -28.1111  -28.9897   21.1922 H   0  0  0  0  0  0
  -25.9604  -25.9012   19.0560 H   0  0  0  0  0  0
  -23.9773  -27.2859   19.0307 H   0  0  0  0  0  0
  -23.7570  -30.5820   19.3971 H   0  0  0  0  0  0
  -22.7588  -29.2347   19.8547 H   0  0  0  0  0  0
  -25.1295  -36.1928   25.0833 H   0  0  0  0  0  0
  -20.9976  -28.3258   24.1419 H   0  0  0  0  0  0
  -20.5707  -26.2294   23.3611 H   0  0  0  0  0  0
  -21.6639  -26.7457   22.1193 H   0  0  0  0  0  0
  -19.6908  -25.6300   21.1240 H   0  0  0  0  0  0
  -19.6677  -27.3210   20.6769 H   0  0  0  0  0  0
  -17.4205  -26.6686   21.4021 H   0  0  0  0  0  0
  -18.0304  -26.0072   22.9028 H   0  0  0  0  0  0
  -19.7927  -30.7278   24.2255 H   0  0  0  0  0  0
  -17.5001  -31.6255   24.5179 H   0  0  0  0  0  0
  -15.5344  -30.2982   23.7640 H   0  0  0  0  0  0
  -15.8674  -28.0826   22.7044 H   0  0  0  0  0  0
  -24.5897  -30.7060   25.7809 H   0  0  0  0  0  0
  -24.8929  -32.2891   26.4861 H   0  0  0  0  0  0
  -25.8073  -30.8922   27.0227 H   0  0  0  0  0  0
  -26.2886  -29.6734   24.1178 H   0  0  0  0  0  0
  -27.4034  -29.7226   25.4630 H   0  0  0  0  0  0
  -27.8744  -30.4255   23.9342 H   0  0  0  0  0  0
  -27.2621  -33.3627   26.2006 H   0  0  0  0  0  0
  -28.3848  -32.6869   25.0299 H   0  0  0  0  0  0
  -28.0689  -31.8477   26.5415 H   0  0  0  0  0  0
  -28.2603  -38.0093   24.7475 H   0  0  0  0  0  0
  -28.1067  -36.2618   24.6331 H   0  0  0  0  0  0
  -27.2292  -37.1503   25.8870 H   0  0  0  0  0  0
  -20.9399  -29.8756   21.6887 H   0  0  0  0  0  0
  -26.0177  -38.2846   24.1365 H   0  0  0  0  0  0
  -33.0895  -18.8686   17.8540 H   0  0  0  0  0  0
  -34.4128  -19.3542   18.8960 H   0  0  0  0  0  0
  -33.9519  -20.3571   17.5209 H   0  0  0  0  0  0
  -34.7470  -20.5992   20.6763 H   0  0  0  0  0  0
  -33.4463  -20.9198   21.8119 H   0  0  0  0  0  0
  -34.6233  -22.1620   21.3975 H   0  0  0  0  0  0
  -28.3642  -24.9680   22.3442 H   0  0  0  0  0  0
  -30.0010  -24.3817   22.1265 H   0  0  0  0  0  0
  -28.7292  -23.2787   22.5961 H   0  0  0  0  0  0
  -33.6125  -25.4109   22.3056 H   0  0  0  0  0  0
  -33.6289  -23.6785   22.5212 H   0  0  0  0  0  0
  -32.1363  -24.5568   22.6844 H   0  0  0  0  0  0
  -34.4804  -25.5691   19.9626 H   0  0  0  0  0  0
  -33.9645  -24.4313   18.7401 H   0  0  0  0  0  0
  -34.9010  -23.8979   20.1351 H   0  0  0  0  0  0
  -32.4421  -26.4918   20.3850 H   0  0  0  0  0  0
  -30.9781  -25.6390   20.7119 H   0  0  0  0  0  0
  -31.7147  -25.5891   19.0975 H   0  0  0  0  0  0
  -30.4296  -23.9074   17.5126 H   0  0  0  0  0  0
  -30.7120  -22.1970   17.4724 H   0  0  0  0  0  0
  -32.0657  -23.3186   17.6852 H   0  0  0  0  0  0
  -32.1408  -19.8340   19.9599 H   0  0  0  0  0  0
  -31.7406  -20.7152   18.5117 H   0  0  0  0  0  0
  -28.3516  -19.6933   19.5876 H   0  0  0  0  0  0
  -29.9793  -19.7888   19.1163 H   0  0  0  0  0  0
  -28.7770  -18.2477   21.4594 H   0  0  0  0  0  0
  -30.4563  -18.6593   21.5508 H   0  0  0  0  0  0
  -30.1959  -21.1935   21.4849 H   0  0  0  0  0  0
  -28.5048  -21.2579   21.3179 H   0  0  0  0  0  0
  -31.0836  -17.2421   19.6905 H   0  0  0  0  0  0
  -29.4551  -17.1283   19.1204 H   0  0  0  0  0  0
  -27.7984  -25.0176   18.7871 H   0  0  0  0  0  0
  -29.4366  -25.2833   19.0348 H   0  0  0  0  0  0
  -33.7261  -22.2044   19.0488 H   0  0  0  0  0  0
  -27.5899  -23.4913   20.5304 H   0  0  0  0  0  0
  -28.9153  -22.3735   18.9723 H   0  0  0  0  0  0
  -31.6923  -22.6029   21.2646 H   0  0  0  0  0  0
  -28.9169  -15.5716   20.9690 H   0  0  0  0  0  0
  -30.7210  -24.0841   19.5994 H   0  0  0  0  0  0
  1 25  1  0  0  0
  1 30  2  0  0  0
  1 89  1  0  0  0
  2  3  1  0  0  0
  2 25  1  0  0  0
  2 91  1  0  0  0
  2 92  1  0  0  0
  3  4  1  0  0  0
  3 93  1  0  0  0
  3 94  1  0  0  0
  4  5  1  0  0  0
  4 95  1  0  0  0
  4 96  1  0  0  0
  5  6  1  0  0  0
  5 26  1  0  0  0
  5 97  1  0  0  0
  6 25  1  0  0  0
  6 98  1  0  0  0
  6 99  1  0  0  0
  7  8  2  0  0  0
  7 26  1  0  0  0
  7 29  1  0  0  0
  8  9  1  0  0  0
  8 22  1  0  0  0
  9 10  1  0  0  0
  9 27  2  0  0  0
 10 11  2  0  0  0
 10 15  1  0  0  0
 11 12  1  0  0  0
 11100  1  0  0  0
 12 13  2  0  0  0
 12101  1  0  0  0
 13 14  1  0  0  0
 13 31  1  0  0  0
 14 15  2  0  0  0
 14102  1  0  0  0
 15103  1  0  0  0
 16 17  2  0  0  0
 16 21  1  0  0  0
 16 31  1  0  0  0
 17 18  1  0  0  0
 17104  1  0  0  0
 18 19  2  0  0  0
 18105  1  0  0  0
 19 20  1  0  0  0
 19 24  1  0  0  0
 20 21  2  0  0  0
 20106  1  0  0  0
 21 23  1  0  0  0
 22 28  1  0  0  0
 22 32  2  0  0  0
 26 27  1  0  0  0
 28107  1  0  0  0
 28108  1  0  0  0
 29109  1  0  0  0
 29110  1  0  0  0
 33 34  1  0  0  0
 33 66  1  0  0  0
 33 70  2  0  0  0
 34 36  1  0  0  0
 34 59  1  0  0  0
 34111  1  0  0  0
 35 44  2  0  0  0
 35 45  1  0  0  0
 35 68  1  0  0  0
 36 56  1  0  0  0
 36112  1  0  0  0
 37 39  1  0  0  0
 37 47  1  0  0  0
 37 66  1  0  0  0
 37113  1  0  0  0
 38 43  2  0  0  0
 38 46  1  0  0  0
 38 47  1  0  0  0
 39 64  1  0  0  0
 39 67  2  0  0  0
 40 52  1  0  0  0
 40 53  2  0  0  0
 40 58  1  0  0  0
 41114  1  0  0  0
 41115  1  0  0  0
 41116  1  0  0  0
 41 48  1  0  0  0
 42 43  1  0  0  0
 42 66  1  0  0  0
 42117  1  0  0  0
 42118  1  0  0  0
 43 44  1  0  0  0
 44119  1  0  0  0
 45 46  2  0  0  0
 45120  1  0  0  0
 46121  1  0  0  0
 47122  1  0  0  0
 47123  1  0  0  0
 48 56  1  0  0  0
 48 65  1  0  0  0
 48124  1  0  0  0
 49 50  1  0  0  0
 49 53  1  0  0  0
 49 64  1  0  0  0
 49125  1  0  0  0
 50 51  1  0  0  0
 50126  1  0  0  0
 50127  1  0  0  0
 51 52  1  0  0  0
 51128  1  0  0  0
 51129  1  0  0  0
 52130  1  0  0  0
 52131  1  0  0  0
 53 54  1  0  0  0
 54 55  2  0  0  0
 54132  1  0  0  0
 55 57  1  0  0  0
 55133  1  0  0  0
 56 69  2  0  0  0
 57 58  2  0  0  0
 57134  1  0  0  0
 58135  1  0  0  0
 59 60  1  0  0  0
 59 61  1  0  0  0
 59 62  1  0  0  0
 60136  1  0  0  0
 60137  1  0  0  0
 60138  1  0  0  0
 61139  1  0  0  0
 61140  1  0  0  0
 61141  1  0  0  0
 62142  1  0  0  0
 62143  1  0  0  0
 62144  1  0  0  0
 63 65  1  0  0  0
 63145  1  0  0  0
 63146  1  0  0  0
 63147  1  0  0  0
 64148  1  0  0  0
 65149  1  0  0  0
 68 83  1  0  0  0
 71 78  1  0  0  0
 71150  1  0  0  0
 71151  1  0  0  0
 71152  1  0  0  0
 72153  1  0  0  0
 72154  1  0  0  0
 72155  1  0  0  0
 72 84  1  0  0  0
 73156  1  0  0  0
 73157  1  0  0  0
 73158  1  0  0  0
 73 85  1  0  0  0
 74159  1  0  0  0
 74160  1  0  0  0
 74161  1  0  0  0
 74 88  1  0  0  0
 75 88  1  0  0  0
 75162  1  0  0  0
 75163  1  0  0  0
 75164  1  0  0  0
 76 88  1  0  0  0
 76165  1  0  0  0
 76166  1  0  0  0
 76167  1  0  0  0
 77168  1  0  0  0
 77169  1  0  0  0
 77170  1  0  0  0
 77 90  1  0  0  0
 78 84  1  0  0  0
 78171  1  0  0  0
 78172  1  0  0  0
 79 80  1  0  0  0
 79 81  1  0  0  0
 79173  1  0  0  0
 79174  1  0  0  0
 80 82  1  0  0  0
 80175  1  0  0  0
 80176  1  0  0  0
 81177  1  0  0  0
 81178  1  0  0  0
 81 86  1  0  0  0
 82 89  1  0  0  0
 82179  1  0  0  0
 82180  1  0  0  0
 83 85  1  0  0  0
 83181  1  0  0  0
 83182  1  0  0  0
 84183  1  0  0  0
 84 87  1  0  0  0
 85 86  1  0  0  0
 85184  1  0  0  0
 86 90  1  0  0  0
 86185  1  0  0  0
 87 88  1  0  0  0
 87 90  1  0  0  0
 87186  1  0  0  0
 89187  1  0  0  0
 90188  1  0  0  0
M  CHG  1  90   1
M  ISO  4   1 100  68 101  83 101  89 100
M  END
> <chiral flag>
0

> <version>
0

> <s_m_source_file>
/data/baiqing/PycharmProjects/Reinvent-master-3.2/result/LINK_invent/BTK/process_docking_weight1_custom_sum_contain_oxygen_bond_distance_aromatic_linkinvent_7_9_3/rearranged_h_0019.sdf

> <i_m_source_file_index>
10

> <r_mmod_Potential_Energy-OPLS-2005>
245.965209960938

> <r_mmod_Stretch_Energy-OPLS-2005>
118.771270751953

> <r_mmod_Bend_Energy-OPLS-2005>
231.87744140625

> <r_mmod_Torsional_Energy-OPLS-2005>
339.357360839844

> <r_mmod_Improper_Torsional_Energy-OPLS-2005>
7.56026363372803

> <r_mmod_Van_der_Waal_Energy-OPLS-2005>
141.158447265625

> <r_mmod_Electrostatic_Energy-OPLS-2005>
-244.968963623047

> <r_mmod_Solvation_Energy-OPLS-2005>
-399.254821777344

> <b_mmod_Minimization_Converged-OPLS-2005>
0

> <r_mmod_RMS_Derivative-OPLS-2005>
3.39707946777344

$$$$
10
                    3D
 Structure written by MMmdl.
165173  0  0  1  0            999 V2000
  -30.8020  -14.3541   20.6906 C   0  0  0  0  0  0
  -30.4131  -12.2945   19.3915 C   0  0  0  0  0  0
  -29.4769  -12.5305   18.1944 C   0  0  0  0  0  0
  -28.0070  -12.3736   18.6184 C   0  0  0  0  0  0
  -27.6663  -13.2077   19.8804 C   0  0  2  0  0  0
  -28.7086  -12.9751   20.9980 C   0  0  0  0  0  0
  -25.2612  -13.8159   20.5713 C   0  0  0  0  0  0
  -24.1850  -13.0431   20.9173 C   0  0  0  0  0  0
  -24.6401  -11.6900   20.8741 C   0  0  0  0  0  0
  -23.9068  -10.4295   21.0413 C   0  0  0  0  0  0
  -24.3624   -9.4209   21.9187 C   0  0  0  0  0  0
  -23.6301   -8.2251   22.0756 C   0  0  0  0  0  0
  -22.4285   -8.0288   21.3548 C   0  0  0  0  0  0
  -21.9913   -9.0264   20.4652 C   0  0  0  0  0  0
  -22.7237  -10.2145   20.3063 C   0  0  0  0  0  0
  -21.6861   -6.0745   22.5285 C   0  0  0  0  0  0
  -21.4016   -6.5648   23.8216 C   0  0  0  0  0  0
  -21.3657   -5.6794   24.9184 C   0  0  0  0  0  0
  -21.6042   -4.3055   24.7225 C   0  0  0  0  0  0
  -21.8817   -3.8150   23.4346 C   0  0  0  0  0  0
  -21.9203   -4.6976   22.3407 C   0  0  0  0  0  0
  -22.7870  -13.5236   21.1819 C   0  0  0  0  0  0
  -22.1667   -4.2160   21.0981 F   0  0  0  0  0  0
  -21.5628   -3.4527   25.7735 F   0  0  0  0  0  0
  -30.0543  -13.2436   20.4572 N   0  0  0  0  0  0
  -26.3060  -12.9337   20.3432 N   0  0  0  0  0  0
  -25.9333  -11.6489   20.5798 N   0  0  0  0  0  0
  -22.0516  -12.8264   22.0395 N   0  0  0  0  0  0
  -25.4320  -15.1877   20.4114 N   0  0  0  0  0  0
  -31.7910  -14.6583   20.0178 O   0  0  0  0  0  0
  -21.6647   -6.8891   21.4244 O   0  0  0  0  0  0
  -22.3567  -14.5554   20.6692 O   0  0  0  0  0  0
  -24.6127  -31.8717   23.2092 C   0  0  0  0  0  0
  -25.9032  -32.4846   23.8381 C   0  0  1  0  0  0
  -27.2263  -27.4634   20.0567 C   0  0  0  0  0  0
  -25.5906  -33.8649   24.2323 N   0  0  0  0  0  0
  -23.3949  -30.4996   21.5463 C   0  0  2  0  0  0
  -24.8323  -28.9621   20.1112 C   0  0  0  0  0  0
  -22.7394  -29.4707   22.4933 C   0  0  0  0  0  0
  -18.0297  -28.1395   22.8525 C   0  0  0  0  0  0
  -24.1484  -36.7268   23.2631 C   0  0  0  0  0  0
  -25.9207  -30.8394   21.3570 C   0  0  0  0  0  0
  -25.9898  -29.4723   20.7092 C   0  0  0  0  0  0
  -27.1827  -28.7232   20.6910 C   0  0  0  0  0  0
  -26.0425  -26.9510   19.4797 C   0  0  0  0  0  0
  -24.8483  -27.6941   19.5044 C   0  0  0  0  0  0
  -23.5996  -29.8322   20.1603 C   0  0  0  0  0  0
  -25.4115  -36.3121   24.0347 C   0  0  1  0  0  0
  -20.5891  -28.3684   23.1312 C   0  0  2  0  0  0
  -20.6780  -26.9429   22.5420 C   0  0  0  0  0  0
  -19.5764  -26.6415   21.5209 C   0  0  0  0  0  0
  -18.1939  -26.7958   22.1623 C   0  0  0  0  0  0
  -19.1552  -28.8851   23.2919 C   0  0  0  0  0  0
  -18.9475  -30.1440   23.8952 C   0  0  0  0  0  0
  -17.6483  -30.6600   24.0600 C   0  0  0  0  0  0
  -25.9039  -34.9502   23.5121 C   0  0  0  0  0  0
  -16.5365  -29.9129   23.6345 C   0  0  0  0  0  0
  -16.7296  -28.6541   23.0386 C   0  0  0  0  0  0
  -26.4484  -31.6625   25.0692 C   0  0  0  0  0  0
  -25.3773  -31.3733   26.1453 C   0  0  0  0  0  0
  -27.0257  -30.3084   24.5979 C   0  0  0  0  0  0
  -27.6091  -32.4316   25.7432 C   0  0  0  0  0  0
  -27.5579  -37.1780   24.8491 C   0  0  0  0  0  0
  -21.4131  -29.3046   22.3673 N   0  0  0  0  0  0
  -26.4302  -37.3808   23.9419 N   0  0  0  0  0  0
  -24.6598  -31.0862   22.0947 N   0  0  0  0  0  0
  -23.4186  -28.8275   23.2979 O   0  0  0  0  0  0
  -28.4400  -26.8092   20.0560 O   0  0  0  0  0  0
  -26.5613  -34.8969   22.4682 O   0  0  0  0  0  0
  -23.5318  -32.1449   23.7505 O   0  0  0  0  0  0
  -27.5226  -22.6232   20.6784 C   0  0  0  0  0  0
  -27.6133  -23.9583   20.2393 C   0  0  0  0  0  0
  -28.5542  -21.7020   20.3985 C   0  0  0  0  0  0
  -28.7231  -24.3947   19.4866 C   0  0  0  0  0  0
  -29.6723  -22.1258   19.6390 C   0  0  0  0  0  0
  -29.7416  -23.4589   19.1638 C   0  0  0  0  0  0
  -29.2259  -19.2707   22.9783 C   0  0  0  0  0  0
  -29.6035  -19.3906   24.4381 C   0  0  0  0  0  0
  -28.4094  -26.1395   17.5968 C   0  0  0  0  0  0
  -28.4548  -20.2840   20.9532 C   0  0  0  0  0  0
  -29.3875  -17.8547   22.4219 C   0  0  0  0  0  0
  -30.8465  -17.5319   22.0266 C   0  0  0  0  0  0
  -31.2912  -16.1023   22.3919 C   0  0  0  0  0  0
  -28.8408  -25.8628   19.0555 C   0  0  1  0  0  0
  -28.8205  -20.3097   22.3591 N   0  0  0  0  0  0
  -30.4682  -15.0534   21.7821 N   0  0  0  0  0  0
  -30.9761  -21.0294   19.3039 Cl  0  0  0  0  0  0
  -31.1006  -23.9224   18.1905 Cl  0  0  0  0  0  0
  -31.4540  -12.3937   19.0755 H   0  0  0  0  0  0
  -30.3142  -11.2726   19.7599 H   0  0  0  0  0  0
  -29.7104  -11.8382   17.3842 H   0  0  0  0  0  0
  -29.6368  -13.5331   17.7979 H   0  0  0  0  0  0
  -27.8274  -11.3162   18.8150 H   0  0  0  0  0  0
  -27.3436  -12.6523   17.7990 H   0  0  0  0  0  0
  -27.7171  -14.2589   19.5939 H   0  0  0  0  0  0
  -28.6675  -11.9439   21.3511 H   0  0  0  0  0  0
  -28.4588  -13.5891   21.8632 H   0  0  0  0  0  0
  -25.2775   -9.5693   22.4753 H   0  0  0  0  0  0
  -24.0016   -7.4647   22.7469 H   0  0  0  0  0  0
  -21.0847   -8.8791   19.8965 H   0  0  0  0  0  0
  -22.3705  -10.9688   19.6177 H   0  0  0  0  0  0
  -21.2010   -7.6153   23.9724 H   0  0  0  0  0  0
  -21.1470   -6.0523   25.9084 H   0  0  0  0  0  0
  -22.0600   -2.7609   23.2834 H   0  0  0  0  0  0
  -22.4129  -11.9925   22.4766 H   0  0  0  0  0  0
  -21.1134  -13.1315   22.2606 H   0  0  0  0  0  0
  -24.6654  -15.8421   20.5205 H   0  0  0  0  0  0
  -26.2938  -15.6283   20.1121 H   0  0  0  0  0  0
  -26.7085  -32.5558   23.1125 H   0  0  0  0  0  0
  -25.0226  -33.9856   25.0579 H   0  0  0  0  0  0
  -22.6836  -31.3172   21.4106 H   0  0  0  0  0  0
  -23.3769  -35.9566   23.3339 H   0  0  0  0  0  0
  -24.3627  -36.8848   22.2042 H   0  0  0  0  0  0
  -23.7201  -37.6469   23.6628 H   0  0  0  0  0  0
  -26.0327  -31.5999   20.5826 H   0  0  0  0  0  0
  -26.8113  -30.8896   21.9706 H   0  0  0  0  0  0
  -28.0818  -29.1209   21.1401 H   0  0  0  0  0  0
  -26.0146  -25.9829   19.0086 H   0  0  0  0  0  0
  -23.9570  -27.2866   19.0465 H   0  0  0  0  0  0
  -23.7187  -30.6079   19.4004 H   0  0  0  0  0  0
  -22.7199  -29.2625   19.8613 H   0  0  0  0  0  0
  -25.1288  -36.1960   25.0841 H   0  0  0  0  0  0
  -21.0019  -28.3243   24.1407 H   0  0  0  0  0  0
  -20.5682  -26.2301   23.3603 H   0  0  0  0  0  0
  -21.6650  -26.7510   22.1186 H   0  0  0  0  0  0
  -19.6945  -25.6323   21.1243 H   0  0  0  0  0  0
  -19.6692  -27.3234   20.6741 H   0  0  0  0  0  0
  -17.4212  -26.6750   21.4010 H   0  0  0  0  0  0
  -18.0329  -26.0076   22.9004 H   0  0  0  0  0  0
  -19.7946  -30.7255   24.2318 H   0  0  0  0  0  0
  -17.5055  -31.6291   24.5182 H   0  0  0  0  0  0
  -15.5368  -30.3075   23.7602 H   0  0  0  0  0  0
  -15.8704  -28.0882   22.7062 H   0  0  0  0  0  0
  -24.5979  -30.7039   25.7815 H   0  0  0  0  0  0
  -24.8897  -32.2868   26.4852 H   0  0  0  0  0  0
  -25.8136  -30.8983   27.0240 H   0  0  0  0  0  0
  -26.2723  -29.6852   24.1126 H   0  0  0  0  0  0
  -27.4183  -29.7326   25.4364 H   0  0  0  0  0  0
  -27.8538  -30.4468   23.9016 H   0  0  0  0  0  0
  -27.2783  -33.3654   26.1990 H   0  0  0  0  0  0
  -28.3887  -32.6785   25.0211 H   0  0  0  0  0  0
  -28.0744  -31.8423   26.5337 H   0  0  0  0  0  0
  -28.2611  -38.0060   24.7537 H   0  0  0  0  0  0
  -28.1053  -36.2603   24.6300 H   0  0  0  0  0  0
  -27.2331  -37.1395   25.8908 H   0  0  0  0  0  0
  -20.9226  -29.8796   21.6952 H   0  0  0  0  0  0
  -26.0183  -38.2873   24.1446 H   0  0  0  0  0  0
  -26.6663  -22.3145   21.2616 H   0  0  0  0  0  0
  -26.8262  -24.6419   20.5138 H   0  0  0  0  0  0
  -28.8140  -18.9788   25.0648 H   0  0  0  0  0  0
  -29.7570  -20.4357   24.7118 H   0  0  0  0  0  0
  -30.5246  -18.8456   24.6448 H   0  0  0  0  0  0
  -29.0391  -25.5758   16.9060 H   0  0  0  0  0  0
  -28.5158  -27.1935   17.3372 H   0  0  0  0  0  0
  -27.3849  -25.8403   17.3885 H   0  0  0  0  0  0
  -29.0616  -19.5928   20.3677 H   0  0  0  0  0  0
  -27.4272  -19.9355   20.8376 H   0  0  0  0  0  0
  -28.7146  -17.6726   21.5847 H   0  0  0  0  0  0
  -29.0626  -17.1616   23.1992 H   0  0  0  0  0  0
  -31.5332  -18.2146   22.5312 H   0  0  0  0  0  0
  -30.9924  -17.7200   20.9618 H   0  0  0  0  0  0
  -31.2492  -15.9774   23.4742 H   0  0  0  0  0  0
  -32.3431  -15.9718   22.1275 H   0  0  0  0  0  0
  -29.9103  -26.0680   19.0608 H   0  0  0  0  0  0
  -29.6615  -14.7314   22.2938 H   0  0  0  0  0  0
  1 25  1  0  0  0
  1 30  2  0  0  0
  1 86  1  0  0  0
  2  3  1  0  0  0
  2 25  1  0  0  0
  2 89  1  0  0  0
  2 90  1  0  0  0
  3  4  1  0  0  0
  3 91  1  0  0  0
  3 92  1  0  0  0
  4  5  1  0  0  0
  4 93  1  0  0  0
  4 94  1  0  0  0
  5  6  1  0  0  0
  5 26  1  0  0  0
  5 95  1  0  0  0
  6 25  1  0  0  0
  6 96  1  0  0  0
  6 97  1  0  0  0
  7  8  2  0  0  0
  7 26  1  0  0  0
  7 29  1  0  0  0
  8  9  1  0  0  0
  8 22  1  0  0  0
  9 10  1  0  0  0
  9 27  2  0  0  0
 10 11  2  0  0  0
 10 15  1  0  0  0
 11 12  1  0  0  0
 11 98  1  0  0  0
 12 13  2  0  0  0
 12 99  1  0  0  0
 13 14  1  0  0  0
 13 31  1  0  0  0
 14 15  2  0  0  0
 14100  1  0  0  0
 15101  1  0  0  0
 16 17  2  0  0  0
 16 21  1  0  0  0
 16 31  1  0  0  0
 17 18  1  0  0  0
 17102  1  0  0  0
 18 19  2  0  0  0
 18103  1  0  0  0
 19 20  1  0  0  0
 19 24  1  0  0  0
 20 21  2  0  0  0
 20104  1  0  0  0
 21 23  1  0  0  0
 22 28  1  0  0  0
 22 32  2  0  0  0
 26 27  1  0  0  0
 28105  1  0  0  0
 28106  1  0  0  0
 29107  1  0  0  0
 29108  1  0  0  0
 33 34  1  0  0  0
 33 66  1  0  0  0
 33 70  2  0  0  0
 34 36  1  0  0  0
 34 59  1  0  0  0
 34109  1  0  0  0
 35 44  2  0  0  0
 35 45  1  0  0  0
 35 68  1  0  0  0
 36 56  1  0  0  0
 36110  1  0  0  0
 37 39  1  0  0  0
 37 47  1  0  0  0
 37 66  1  0  0  0
 37111  1  0  0  0
 38 43  2  0  0  0
 38 46  1  0  0  0
 38 47  1  0  0  0
 39 64  1  0  0  0
 39 67  2  0  0  0
 40 52  1  0  0  0
 40 53  2  0  0  0
 40 58  1  0  0  0
 41112  1  0  0  0
 41113  1  0  0  0
 41114  1  0  0  0
 41 48  1  0  0  0
 42 43  1  0  0  0
 42 66  1  0  0  0
 42115  1  0  0  0
 42116  1  0  0  0
 43 44  1  0  0  0
 44117  1  0  0  0
 45 46  2  0  0  0
 45118  1  0  0  0
 46119  1  0  0  0
 47120  1  0  0  0
 47121  1  0  0  0
 48 56  1  0  0  0
 48 65  1  0  0  0
 48122  1  0  0  0
 49 50  1  0  0  0
 49 53  1  0  0  0
 49 64  1  0  0  0
 49123  1  0  0  0
 50 51  1  0  0  0
 50124  1  0  0  0
 50125  1  0  0  0
 51 52  1  0  0  0
 51126  1  0  0  0
 51127  1  0  0  0
 52128  1  0  0  0
 52129  1  0  0  0
 53 54  1  0  0  0
 54 55  2  0  0  0
 54130  1  0  0  0
 55 57  1  0  0  0
 55131  1  0  0  0
 56 69  2  0  0  0
 57 58  2  0  0  0
 57132  1  0  0  0
 58133  1  0  0  0
 59 60  1  0  0  0
 59 61  1  0  0  0
 59 62  1  0  0  0
 60134  1  0  0  0
 60135  1  0  0  0
 60136  1  0  0  0
 61137  1  0  0  0
 61138  1  0  0  0
 61139  1  0  0  0
 62140  1  0  0  0
 62141  1  0  0  0
 62142  1  0  0  0
 63 65  1  0  0  0
 63143  1  0  0  0
 63144  1  0  0  0
 63145  1  0  0  0
 64146  1  0  0  0
 65147  1  0  0  0
 68 84  1  0  0  0
 71 72  2  0  0  0
 71 73  1  0  0  0
 71148  1  0  0  0
 72 74  1  0  0  0
 72149  1  0  0  0
 73 75  2  0  0  0
 73 80  1  0  0  0
 74 76  2  0  0  0
 74 84  1  0  0  0
 75 76  1  0  0  0
 75 87  1  0  0  0
 76 88  1  0  0  0
 77 78  1  0  0  0
 77 81  1  0  0  0
 77 85  2  0  0  0
 78150  1  0  0  0
 78151  1  0  0  0
 78152  1  0  0  0
 79153  1  0  0  0
 79154  1  0  0  0
 79155  1  0  0  0
 79 84  1  0  0  0
 80 85  1  0  0  0
 80156  1  0  0  0
 80157  1  0  0  0
 81 82  1  0  0  0
 81158  1  0  0  0
 81159  1  0  0  0
 82 83  1  0  0  0
 82160  1  0  0  0
 82161  1  0  0  0
 83 86  1  0  0  0
 83162  1  0  0  0
 83163  1  0  0  0
 84164  1  0  0  0
 86165  1  0  0  0
M  ISO  4   1 100  68 101  84 101  86 100
M  END
> <chiral flag>
0

> <version>
0

> <s_m_source_file>
/data/baiqing/PycharmProjects/Reinvent-master-3.2/result/LINK_invent/BTK/process_docking_weight1_custom_sum_contain_oxygen_bond_distance_aromatic_linkinvent_7_9_3/rearranged_h_0019.sdf

> <i_m_source_file_index>
11

> <r_mmod_Potential_Energy-OPLS-2005>
-46.606201171875

> <r_mmod_Stretch_Energy-OPLS-2005>
36.0151481628418

> <r_mmod_Bend_Energy-OPLS-2005>
126.421440124512

> <r_mmod_Torsional_Energy-OPLS-2005>
215.351455688477

> <r_mmod_Improper_Torsional_Energy-OPLS-2005>
2.67541718482971

> <r_mmod_Van_der_Waal_Energy-OPLS-2005>
161.307815551758

> <r_mmod_Electrostatic_Energy-OPLS-2005>
-384.069061279297

> <r_mmod_Solvation_Energy-OPLS-2005>
-213.288619995117

> <b_mmod_Minimization_Converged-OPLS-2005>
0

> <r_mmod_RMS_Derivative-OPLS-2005>
4.49011707305908

$$$$
11
                    3D
 Structure written by MMmdl.
159167  0  0  1  0            999 V2000
  -30.5037  -15.3206   20.3932 C   0  0  0  0  0  0
  -30.4398  -12.8554   19.5353 C   0  0  0  0  0  0
  -29.5457  -12.6106   18.2954 C   0  0  0  0  0  0
  -28.0989  -12.3151   18.7196 C   0  0  0  0  0  0
  -27.6181  -13.2918   19.8239 C   0  0  2  0  0  0
  -28.6534  -13.5117   20.9547 C   0  0  0  0  0  0
  -25.2429  -13.8274   20.5726 C   0  0  0  0  0  0
  -24.1773  -13.0476   20.9238 C   0  0  0  0  0  0
  -24.6437  -11.6966   20.8736 C   0  0  0  0  0  0
  -23.9127  -10.4313   21.0369 C   0  0  0  0  0  0
  -24.3641   -9.4224   21.9162 C   0  0  0  0  0  0
  -23.6303   -8.2264   22.0741 C   0  0  0  0  0  0
  -22.4305   -8.0267   21.3514 C   0  0  0  0  0  0
  -21.9954   -9.0256   20.4635 C   0  0  0  0  0  0
  -22.7288  -10.2144   20.3028 C   0  0  0  0  0  0
  -21.6875   -6.0723   22.5255 C   0  0  0  0  0  0
  -21.4042   -6.5630   23.8186 C   0  0  0  0  0  0
  -21.3674   -5.6787   24.9150 C   0  0  0  0  0  0
  -21.6040   -4.3044   24.7205 C   0  0  0  0  0  0
  -21.8824   -3.8127   23.4333 C   0  0  0  0  0  0
  -21.9199   -4.6948   22.3390 C   0  0  0  0  0  0
  -22.7789  -13.5222   21.1847 C   0  0  0  0  0  0
  -22.1648   -4.2138   21.0968 F   0  0  0  0  0  0
  -21.5645   -3.4522   25.7715 F   0  0  0  0  0  0
  -29.8845  -14.0269   20.3246 N   0  0  0  0  0  0
  -26.2884  -12.9579   20.3235 N   0  0  0  0  0  0
  -25.9382  -11.6672   20.5689 N   0  0  0  0  0  0
  -22.0395  -12.8231   22.0392 N   0  0  0  0  0  0
  -25.4080  -15.1999   20.4102 N   0  0  0  0  0  0
  -31.7076  -15.2268   20.1278 O   0  0  0  0  0  0
  -21.6651   -6.8868   21.4214 O   0  0  0  0  0  0
  -22.3466  -14.5497   20.6637 O   0  0  0  0  0  0
  -24.6705  -31.8203   23.1630 C   0  0  0  0  0  0
  -25.9364  -32.4575   23.8113 C   0  0  1  0  0  0
  -27.2200  -26.8941   20.1966 C   0  0  0  0  0  0
  -25.6009  -33.8384   24.2036 N   0  0  0  0  0  0
  -23.4839  -30.4292   21.5139 C   0  0  2  0  0  0
  -24.9372  -28.8044   20.1074 C   0  0  0  0  0  0
  -22.7677  -29.4447   22.4775 C   0  0  0  0  0  0
  -18.0320  -28.1415   22.8444 C   0  0  0  0  0  0
  -24.1505  -36.7196   23.2643 C   0  0  0  0  0  0
  -26.0553  -30.6135   21.3971 C   0  0  0  0  0  0
  -26.1183  -29.1991   20.7487 C   0  0  0  0  0  0
  -27.2519  -28.2652   20.7692 C   0  0  0  0  0  0
  -26.0144  -26.6626   19.4989 C   0  0  0  0  0  0
  -24.9141  -27.5581   19.4570 C   0  0  0  0  0  0
  -23.7218  -29.7331   20.1425 C   0  0  0  0  0  0
  -25.4137  -36.2957   24.0304 C   0  0  1  0  0  0
  -20.5948  -28.3795   23.1172 C   0  0  2  0  0  0
  -20.6805  -26.9467   22.5399 C   0  0  0  0  0  0
  -19.5791  -26.6383   21.5208 C   0  0  0  0  0  0
  -18.1971  -26.7941   22.1595 C   0  0  0  0  0  0
  -19.1582  -28.8921   23.2781 C   0  0  0  0  0  0
  -18.9495  -30.1504   23.8835 C   0  0  0  0  0  0
  -17.6497  -30.6603   24.0557 C   0  0  0  0  0  0
  -25.9108  -34.9355   23.4987 C   0  0  0  0  0  0
  -16.5375  -29.9103   23.6338 C   0  0  0  0  0  0
  -16.7305  -28.6510   23.0354 C   0  0  0  0  0  0
  -26.4589  -31.6513   25.0650 C   0  0  0  0  0  0
  -25.3699  -31.3774   26.1287 C   0  0  0  0  0  0
  -27.0482  -30.2873   24.6395 C   0  0  0  0  0  0
  -27.6063  -32.4332   25.7447 C   0  0  0  0  0  0
  -27.5568  -37.1761   24.8458 C   0  0  0  0  0  0
  -21.4340  -29.3083   22.3516 N   0  0  0  0  0  0
  -26.4261  -37.3696   23.9433 N   0  0  0  0  0  0
  -24.7583  -30.9836   22.0776 N   0  0  0  0  0  0
  -23.4194  -28.8022   23.3046 O   0  0  0  0  0  0
  -28.2135  -25.7766   20.3010 O   0  0  0  0  0  0
  -26.5704  -34.8899   22.4571 O   0  0  0  0  0  0
  -23.5768  -32.1188   23.6690 O   0  0  0  0  0  0
  -31.5059  -18.2276   21.5204 C   0  0  0  0  0  0
  -31.7888  -19.6211   21.5017 C   0  0  0  0  0  0
  -30.3078  -18.0990   20.7921 C   0  0  0  0  0  0
  -32.6307  -17.6016   23.7444 C   0  0  0  0  0  0
  -33.7892  -17.0828   21.5559 C   0  0  0  0  0  0
  -28.4736  -20.6653   18.6757 C   0  0  0  0  0  0
  -28.9272  -22.6206   20.4837 C   0  0  0  0  0  0
  -28.0007  -24.1390   20.0773 C   0  0  0  0  0  0
  -32.4209  -17.2358   22.2565 C   0  0  0  0  0  0
  -28.7497  -20.8213   20.1771 C   0  0  2  0  0  0
  -30.8717  -20.3873   21.0077 N   0  0  0  0  0  0
  -29.8400  -19.6236   20.6189 N   0  0  0  0  0  0
  -29.8533  -16.6721   20.5198 N   0  0  0  0  0  0
  -33.2023  -20.3989   22.1253 Cl  0  0  0  0  0  0
  -31.4627  -13.0337   19.1951 H   0  0  0  0  0  0
  -30.4944  -11.9562   20.1520 H   0  0  0  0  0  0
  -29.9426  -11.7931   17.6944 H   0  0  0  0  0  0
  -29.5604  -13.4942   17.6565 H   0  0  0  0  0  0
  -28.0643  -11.2914   19.0865 H   0  0  0  0  0  0
  -27.4325  -12.3520   17.8579 H   0  0  0  0  0  0
  -27.5222  -14.2493   19.3125 H   0  0  0  0  0  0
  -28.8385  -12.5954   21.5147 H   0  0  0  0  0  0
  -28.2798  -14.2475   21.6701 H   0  0  0  0  0  0
  -25.2771   -9.5723   22.4752 H   0  0  0  0  0  0
  -23.9985   -7.4696   22.7510 H   0  0  0  0  0  0
  -21.0866   -8.8805   19.8975 H   0  0  0  0  0  0
  -22.3717  -10.9678   19.6136 H   0  0  0  0  0  0
  -21.2033   -7.6132   23.9704 H   0  0  0  0  0  0
  -21.1499   -6.0498   25.9072 H   0  0  0  0  0  0
  -22.0592   -2.7578   23.2826 H   0  0  0  0  0  0
  -22.3963  -11.9945   22.4890 H   0  0  0  0  0  0
  -21.0987  -13.1263   22.2496 H   0  0  0  0  0  0
  -24.6453  -15.8567   20.5216 H   0  0  0  0  0  0
  -26.2450  -15.6254   20.0356 H   0  0  0  0  0  0
  -26.7420  -32.5087   23.0812 H   0  0  0  0  0  0
  -25.0175  -33.9453   25.0195 H   0  0  0  0  0  0
  -22.8005  -31.2629   21.3345 H   0  0  0  0  0  0
  -23.3799  -35.9498   23.3238 H   0  0  0  0  0  0
  -24.3578  -36.8900   22.2061 H   0  0  0  0  0  0
  -23.7225  -37.6353   23.6739 H   0  0  0  0  0  0
  -26.2368  -31.3460   20.6097 H   0  0  0  0  0  0
  -26.9176  -30.6701   22.0512 H   0  0  0  0  0  0
  -28.1417  -28.5623   21.3048 H   0  0  0  0  0  0
  -25.8953  -25.7119   19.0021 H   0  0  0  0  0  0
  -24.0231  -27.2494   18.9269 H   0  0  0  0  0  0
  -23.8794  -30.4979   19.3812 H   0  0  0  0  0  0
  -22.8309  -29.1858   19.8236 H   0  0  0  0  0  0
  -25.1337  -36.1713   25.0799 H   0  0  0  0  0  0
  -21.0030  -28.3412   24.1301 H   0  0  0  0  0  0
  -20.5713  -26.2417   23.3645 H   0  0  0  0  0  0
  -21.6673  -26.7469   22.1192 H   0  0  0  0  0  0
  -19.6978  -25.6286   21.1266 H   0  0  0  0  0  0
  -19.6725  -27.3170   20.6723 H   0  0  0  0  0  0
  -17.4237  -26.6677   21.3992 H   0  0  0  0  0  0
  -18.0368  -26.0100   22.9009 H   0  0  0  0  0  0
  -19.7983  -30.7318   24.2189 H   0  0  0  0  0  0
  -17.5057  -31.6281   24.5178 H   0  0  0  0  0  0
  -15.5377  -30.2986   23.7746 H   0  0  0  0  0  0
  -15.8676  -28.0823   22.7135 H   0  0  0  0  0  0
  -24.5866  -30.7150   25.7593 H   0  0  0  0  0  0
  -24.8907  -32.2979   26.4637 H   0  0  0  0  0  0
  -25.7912  -30.8955   27.0117 H   0  0  0  0  0  0
  -26.3144  -29.6526   24.1411 H   0  0  0  0  0  0
  -27.4024  -29.7262   25.5061 H   0  0  0  0  0  0
  -27.9087  -30.4059   23.9797 H   0  0  0  0  0  0
  -27.2620  -33.3684   26.1884 H   0  0  0  0  0  0
  -28.3937  -32.6817   25.0315 H   0  0  0  0  0  0
  -28.0661  -31.8529   26.5462 H   0  0  0  0  0  0
  -28.2557  -38.0090   24.7547 H   0  0  0  0  0  0
  -28.1088  -36.2616   24.6220 H   0  0  0  0  0  0
  -27.2284  -37.1307   25.8858 H   0  0  0  0  0  0
  -20.9643  -29.8726   21.6559 H   0  0  0  0  0  0
  -26.0095  -38.2764   24.1441 H   0  0  0  0  0  0
  -31.6941  -17.8840   24.2285 H   0  0  0  0  0  0
  -33.3400  -18.4174   23.8863 H   0  0  0  0  0  0
  -33.0379  -16.7599   24.3047 H   0  0  0  0  0  0
  -33.6794  -16.8453   20.4979 H   0  0  0  0  0  0
  -34.3735  -16.2853   22.0128 H   0  0  0  0  0  0
  -34.3948  -17.9865   21.6180 H   0  0  0  0  0  0
  -27.7465  -21.4050   18.3354 H   0  0  0  0  0  0
  -28.0839  -19.6713   18.4424 H   0  0  0  0  0  0
  -29.3817  -20.8199   18.0902 H   0  0  0  0  0  0
  -29.0289  -22.6700   21.5697 H   0  0  0  0  0  0
  -29.9284  -22.8466   20.1184 H   0  0  0  0  0  0
  -26.9913  -23.9450   20.4443 H   0  0  0  0  0  0
  -27.8839  -24.0772   18.9957 H   0  0  0  0  0  0
  -31.9566  -16.2594   22.3257 H   0  0  0  0  0  0
  -27.8257  -20.5492   20.6925 H   0  0  0  0  0  0
  -28.8498  -16.5991   20.4475 H   0  0  0  0  0  0
  1 25  1  0  0  0
  1 30  2  0  0  0
  1 83  1  0  0  0
  2  3  1  0  0  0
  2 25  1  0  0  0
  2 85  1  0  0  0
  2 86  1  0  0  0
  3  4  1  0  0  0
  3 87  1  0  0  0
  3 88  1  0  0  0
  4  5  1  0  0  0
  4 89  1  0  0  0
  4 90  1  0  0  0
  5  6  1  0  0  0
  5 26  1  0  0  0
  5 91  1  0  0  0
  6 25  1  0  0  0
  6 92  1  0  0  0
  6 93  1  0  0  0
  7  8  2  0  0  0
  7 26  1  0  0  0
  7 29  1  0  0  0
  8  9  1  0  0  0
  8 22  1  0  0  0
  9 10  1  0  0  0
  9 27  2  0  0  0
 10 11  2  0  0  0
 10 15  1  0  0  0
 11 12  1  0  0  0
 11 94  1  0  0  0
 12 13  2  0  0  0
 12 95  1  0  0  0
 13 14  1  0  0  0
 13 31  1  0  0  0
 14 15  2  0  0  0
 14 96  1  0  0  0
 15 97  1  0  0  0
 16 17  2  0  0  0
 16 21  1  0  0  0
 16 31  1  0  0  0
 17 18  1  0  0  0
 17 98  1  0  0  0
 18 19  2  0  0  0
 18 99  1  0  0  0
 19 20  1  0  0  0
 19 24  1  0  0  0
 20 21  2  0  0  0
 20100  1  0  0  0
 21 23  1  0  0  0
 22 28  1  0  0  0
 22 32  2  0  0  0
 26 27  1  0  0  0
 28101  1  0  0  0
 28102  1  0  0  0
 29103  1  0  0  0
 29104  1  0  0  0
 33 34  1  0  0  0
 33 66  1  0  0  0
 33 70  2  0  0  0
 34 36  1  0  0  0
 34 59  1  0  0  0
 34105  1  0  0  0
 35 44  2  0  0  0
 35 45  1  0  0  0
 35 68  1  0  0  0
 36 56  1  0  0  0
 36106  1  0  0  0
 37 39  1  0  0  0
 37 47  1  0  0  0
 37 66  1  0  0  0
 37107  1  0  0  0
 38 43  2  0  0  0
 38 46  1  0  0  0
 38 47  1  0  0  0
 39 64  1  0  0  0
 39 67  2  0  0  0
 40 52  1  0  0  0
 40 53  2  0  0  0
 40 58  1  0  0  0
 41108  1  0  0  0
 41109  1  0  0  0
 41110  1  0  0  0
 41 48  1  0  0  0
 42 43  1  0  0  0
 42 66  1  0  0  0
 42111  1  0  0  0
 42112  1  0  0  0
 43 44  1  0  0  0
 44113  1  0  0  0
 45 46  2  0  0  0
 45114  1  0  0  0
 46115  1  0  0  0
 47116  1  0  0  0
 47117  1  0  0  0
 48 56  1  0  0  0
 48 65  1  0  0  0
 48118  1  0  0  0
 49 50  1  0  0  0
 49 53  1  0  0  0
 49 64  1  0  0  0
 49119  1  0  0  0
 50 51  1  0  0  0
 50120  1  0  0  0
 50121  1  0  0  0
 51 52  1  0  0  0
 51122  1  0  0  0
 51123  1  0  0  0
 52124  1  0  0  0
 52125  1  0  0  0
 53 54  1  0  0  0
 54 55  2  0  0  0
 54126  1  0  0  0
 55 57  1  0  0  0
 55127  1  0  0  0
 56 69  2  0  0  0
 57 58  2  0  0  0
 57128  1  0  0  0
 58129  1  0  0  0
 59 60  1  0  0  0
 59 61  1  0  0  0
 59 62  1  0  0  0
 60130  1  0  0  0
 60131  1  0  0  0
 60132  1  0  0  0
 61133  1  0  0  0
 61134  1  0  0  0
 61135  1  0  0  0
 62136  1  0  0  0
 62137  1  0  0  0
 62138  1  0  0  0
 63 65  1  0  0  0
 63139  1  0  0  0
 63140  1  0  0  0
 63141  1  0  0  0
 64142  1  0  0  0
 65143  1  0  0  0
 68 78  1  0  0  0
 71 72  1  0  0  0
 71 73  2  0  0  0
 71 79  1  0  0  0
 72 81  2  0  0  0
 72 84  1  0  0  0
 73 82  1  0  0  0
 73 83  1  0  0  0
 74144  1  0  0  0
 74145  1  0  0  0
 74146  1  0  0  0
 74 79  1  0  0  0
 75 79  1  0  0  0
 75147  1  0  0  0
 75148  1  0  0  0
 75149  1  0  0  0
 76150  1  0  0  0
 76151  1  0  0  0
 76152  1  0  0  0
 76 80  1  0  0  0
 77 78  1  0  0  0
 77 80  1  0  0  0
 77153  1  0  0  0
 77154  1  0  0  0
 78155  1  0  0  0
 78156  1  0  0  0
 79157  1  0  0  0
 80 82  1  0  0  0
 80158  1  0  0  0
 81 82  1  0  0  0
 83159  1  0  0  0
M  ISO  4   1 100  68 101  78 101  83 100
M  END
> <chiral flag>
0

> <version>
0

> <s_m_source_file>
/data/baiqing/PycharmProjects/Reinvent-master-3.2/result/LINK_invent/BTK/process_docking_weight1_custom_sum_contain_oxygen_bond_distance_aromatic_linkinvent_7_9_3/rearranged_h_0019.sdf

> <i_m_source_file_index>
12

> <r_mmod_Potential_Energy-OPLS-2005>
1552.63317871094

> <r_mmod_Stretch_Energy-OPLS-2005>
707.693176269531

> <r_mmod_Bend_Energy-OPLS-2005>
539.444213867188

> <r_mmod_Torsional_Energy-OPLS-2005>
252.517700195312

> <r_mmod_Improper_Torsional_Energy-OPLS-2005>
5.3027138710022

> <r_mmod_Van_der_Waal_Energy-OPLS-2005>
115.867622375488

> <r_mmod_Electrostatic_Energy-OPLS-2005>
-363.6796875

> <r_mmod_Solvation_Energy-OPLS-2005>
-210.161407470703

> <b_mmod_Minimization_Converged-OPLS-2005>
0

> <r_mmod_RMS_Derivative-OPLS-2005>
5.13452863693237

$$$$
12
                    3D
 Structure written by MMmdl.
159167  0  0  1  0            999 V2000
  -30.3838  -15.3255   20.3396 C   0  0  0  0  0  0
  -30.4321  -12.8366   19.5510 C   0  0  0  0  0  0
  -29.5478  -12.6100   18.2976 C   0  0  0  0  0  0
  -28.0917  -12.3165   18.7054 C   0  0  0  0  0  0
  -27.6091  -13.2774   19.8221 C   0  0  2  0  0  0
  -28.6324  -13.4679   20.9628 C   0  0  0  0  0  0
  -25.2375  -13.8215   20.5691 C   0  0  0  0  0  0
  -24.1728  -13.0407   20.9228 C   0  0  0  0  0  0
  -24.6374  -11.6906   20.8714 C   0  0  0  0  0  0
  -23.9056  -10.4272   21.0333 C   0  0  0  0  0  0
  -24.3605   -9.4216   21.9133 C   0  0  0  0  0  0
  -23.6298   -8.2244   22.0725 C   0  0  0  0  0  0
  -22.4282   -8.0246   21.3526 C   0  0  0  0  0  0
  -21.9901   -9.0194   20.4608 C   0  0  0  0  0  0
  -22.7214  -10.2089   20.3000 C   0  0  0  0  0  0
  -21.6851   -6.0700   22.5265 C   0  0  0  0  0  0
  -21.4014   -6.5608   23.8200 C   0  0  0  0  0  0
  -21.3707   -5.6763   24.9176 C   0  0  0  0  0  0
  -21.6062   -4.3013   24.7231 C   0  0  0  0  0  0
  -21.8833   -3.8101   23.4350 C   0  0  0  0  0  0
  -21.9196   -4.6924   22.3409 C   0  0  0  0  0  0
  -22.7742  -13.5146   21.1893 C   0  0  0  0  0  0
  -22.1639   -4.2089   21.0985 F   0  0  0  0  0  0
  -21.5685   -3.4515   25.7763 F   0  0  0  0  0  0
  -29.8656  -13.9914   20.3531 N   0  0  0  0  0  0
  -26.2793  -12.9487   20.3153 N   0  0  0  0  0  0
  -25.9309  -11.6590   20.5647 N   0  0  0  0  0  0
  -22.0385  -12.8133   22.0449 N   0  0  0  0  0  0
  -25.4088  -15.1946   20.4161 N   0  0  0  0  0  0
  -31.5903  -15.3421   20.0428 O   0  0  0  0  0  0
  -21.6650   -6.8830   21.4212 O   0  0  0  0  0  0
  -22.3430  -14.5465   20.6759 O   0  0  0  0  0  0
  -24.6686  -31.8200   23.1646 C   0  0  0  0  0  0
  -25.9347  -32.4550   23.8134 C   0  0  1  0  0  0
  -27.2192  -26.8792   20.1731 C   0  0  0  0  0  0
  -25.6013  -33.8364   24.2056 N   0  0  0  0  0  0
  -23.4846  -30.4264   21.5206 C   0  0  2  0  0  0
  -24.9353  -28.8021   20.1094 C   0  0  0  0  0  0
  -22.7690  -29.4401   22.4800 C   0  0  0  0  0  0
  -18.0311  -28.1427   22.8432 C   0  0  0  0  0  0
  -24.1493  -36.7175   23.2650 C   0  0  0  0  0  0
  -26.0570  -30.6022   21.4061 C   0  0  0  0  0  0
  -26.1204  -29.1900   20.7451 C   0  0  0  0  0  0
  -27.2534  -28.2507   20.7494 C   0  0  0  0  0  0
  -26.0072  -26.6583   19.4791 C   0  0  0  0  0  0
  -24.9074  -27.5589   19.4548 C   0  0  0  0  0  0
  -23.7205  -29.7338   20.1500 C   0  0  0  0  0  0
  -25.4141  -36.2941   24.0301 C   0  0  1  0  0  0
  -20.5939  -28.3761   23.1177 C   0  0  2  0  0  0
  -20.6789  -26.9445   22.5400 C   0  0  0  0  0  0
  -19.5760  -26.6371   21.5214 C   0  0  0  0  0  0
  -18.1938  -26.7954   22.1610 C   0  0  0  0  0  0
  -19.1577  -28.8920   23.2772 C   0  0  0  0  0  0
  -18.9493  -30.1520   23.8785 C   0  0  0  0  0  0
  -17.6483  -30.6602   24.0550 C   0  0  0  0  0  0
  -25.9117  -34.9325   23.5001 C   0  0  0  0  0  0
  -16.5370  -29.9076   23.6367 C   0  0  0  0  0  0
  -16.7296  -28.6516   23.0350 C   0  0  0  0  0  0
  -26.4590  -31.6520   25.0688 C   0  0  0  0  0  0
  -25.3699  -31.3781   26.1335 C   0  0  0  0  0  0
  -27.0521  -30.2876   24.6489 C   0  0  0  0  0  0
  -27.6064  -32.4367   25.7492 C   0  0  0  0  0  0
  -27.5571  -37.1741   24.8465 C   0  0  0  0  0  0
  -21.4363  -29.3039   22.3535 N   0  0  0  0  0  0
  -26.4282  -37.3679   23.9399 N   0  0  0  0  0  0
  -24.7597  -30.9771   22.0831 N   0  0  0  0  0  0
  -23.4208  -28.7998   23.3080 O   0  0  0  0  0  0
  -28.2189  -25.7582   20.2846 O   0  0  0  0  0  0
  -26.5704  -34.8866   22.4590 O   0  0  0  0  0  0
  -23.5738  -32.1233   23.6686 O   0  0  0  0  0  0
  -28.4368  -20.6843   18.6969 C   0  0  0  0  0  0
  -29.3277  -19.5317   20.6160 C   0  0  0  0  0  0
  -28.8847  -20.8997   20.0122 C   0  0  0  0  0  0
  -28.3955  -19.4112   18.0618 C   0  0  0  0  0  0
  -28.8333  -18.1747   18.6667 C   0  0  0  0  0  0
  -29.3637  -18.1049   19.9969 C   0  0  0  0  0  0
  -27.8223  -19.4115   16.6487 C   0  0  0  0  0  0
  -28.6593  -16.8654   17.8928 C   0  0  0  0  0  0
  -30.3563  -22.9502   20.7017 C   0  0  0  0  0  0
  -28.3061  -22.4660   22.0169 C   0  0  0  0  0  0
  -28.1036  -24.1183   19.9446 C   0  0  0  0  0  0
  -28.8665  -22.5757   20.5915 C   0  0  0  0  0  0
  -29.6098  -16.5899   20.5854 N   0  0  0  0  0  0
  -31.4611  -13.0298   19.2441 H   0  0  0  0  0  0
  -30.4764  -11.9262   20.1535 H   0  0  0  0  0  0
  -29.9469  -11.7947   17.6921 H   0  0  0  0  0  0
  -29.5721  -13.5037   17.6684 H   0  0  0  0  0  0
  -28.0495  -11.2860   19.0553 H   0  0  0  0  0  0
  -27.4338  -12.3674   17.8365 H   0  0  0  0  0  0
  -27.5172  -14.2437   19.3312 H   0  0  0  0  0  0
  -28.8035  -12.5356   21.5013 H   0  0  0  0  0  0
  -28.2606  -14.1855   21.6958 H   0  0  0  0  0  0
  -25.2732   -9.5756   22.4714 H   0  0  0  0  0  0
  -24.0030   -7.4677   22.7461 H   0  0  0  0  0  0
  -21.0838   -8.8678   19.8927 H   0  0  0  0  0  0
  -22.3605  -10.9616   19.6131 H   0  0  0  0  0  0
  -21.1955   -7.6103   23.9684 H   0  0  0  0  0  0
  -21.1548   -6.0493   25.9089 H   0  0  0  0  0  0
  -22.0571   -2.7546   23.2866 H   0  0  0  0  0  0
  -22.3930  -11.9796   22.4887 H   0  0  0  0  0  0
  -21.1000  -13.1144   22.2645 H   0  0  0  0  0  0
  -24.6448  -15.8525   20.5275 H   0  0  0  0  0  0
  -26.2616  -15.6275   20.0840 H   0  0  0  0  0  0
  -26.7414  -32.5056   23.0836 H   0  0  0  0  0  0
  -25.0148  -33.9446   25.0201 H   0  0  0  0  0  0
  -22.7996  -31.2589   21.3432 H   0  0  0  0  0  0
  -23.3793  -35.9471   23.3278 H   0  0  0  0  0  0
  -24.3568  -36.8864   22.2076 H   0  0  0  0  0  0
  -23.7207  -37.6329   23.6741 H   0  0  0  0  0  0
  -26.2527  -31.3420   20.6295 H   0  0  0  0  0  0
  -26.9134  -30.6503   22.0674 H   0  0  0  0  0  0
  -28.1509  -28.5432   21.2753 H   0  0  0  0  0  0
  -25.8715  -25.7111   18.9752 H   0  0  0  0  0  0
  -24.0062  -27.2591   18.9345 H   0  0  0  0  0  0
  -23.8636  -30.4999   19.3870 H   0  0  0  0  0  0
  -22.8283  -29.1833   19.8414 H   0  0  0  0  0  0
  -25.1344  -36.1751   25.0792 H   0  0  0  0  0  0
  -20.9999  -28.3376   24.1312 H   0  0  0  0  0  0
  -20.5685  -26.2389   23.3648 H   0  0  0  0  0  0
  -21.6651  -26.7416   22.1194 H   0  0  0  0  0  0
  -19.6939  -25.6263   21.1287 H   0  0  0  0  0  0
  -19.6731  -27.3146   20.6719 H   0  0  0  0  0  0
  -17.4235  -26.6692   21.4002 H   0  0  0  0  0  0
  -18.0320  -26.0123   22.9021 H   0  0  0  0  0  0
  -19.7976  -30.7365   24.2085 H   0  0  0  0  0  0
  -17.5037  -31.6270   24.5179 H   0  0  0  0  0  0
  -15.5366  -30.2937   23.7771 H   0  0  0  0  0  0
  -15.8696  -28.0812   22.7104 H   0  0  0  0  0  0
  -24.5881  -30.7146   25.7613 H   0  0  0  0  0  0
  -24.8898  -32.2988   26.4655 H   0  0  0  0  0  0
  -25.7911  -30.8988   27.0185 H   0  0  0  0  0  0
  -26.3228  -29.6506   24.1469 H   0  0  0  0  0  0
  -27.4001  -29.7269   25.5179 H   0  0  0  0  0  0
  -27.9176  -30.4028   23.9959 H   0  0  0  0  0  0
  -27.2624  -33.3732   26.1888 H   0  0  0  0  0  0
  -28.3957  -32.6844   25.0381 H   0  0  0  0  0  0
  -28.0648  -31.8630   26.5559 H   0  0  0  0  0  0
  -28.2560  -38.0065   24.7529 H   0  0  0  0  0  0
  -28.1103  -36.2593   24.6297 H   0  0  0  0  0  0
  -27.2273  -37.1355   25.8859 H   0  0  0  0  0  0
  -20.9670  -29.8686   21.6595 H   0  0  0  0  0  0
  -26.0148  -38.2739   24.1424 H   0  0  0  0  0  0
  -28.0970  -21.5540   18.1468 H   0  0  0  0  0  0
  -29.6667  -19.5774   21.6413 H   0  0  0  0  0  0
  -27.5474  -20.4128   16.3156 H   0  0  0  0  0  0
  -26.9180  -18.8032   16.5891 H   0  0  0  0  0  0
  -28.5615  -19.0324   15.9410 H   0  0  0  0  0  0
  -29.5953  -16.3108   17.8754 H   0  0  0  0  0  0
  -28.3549  -16.9661   16.8522 H   0  0  0  0  0  0
  -27.8945  -16.2539   18.3708 H   0  0  0  0  0  0
  -30.9219  -22.2251   21.2882 H   0  0  0  0  0  0
  -30.4860  -23.9232   21.1801 H   0  0  0  0  0  0
  -30.8246  -23.0119   19.7192 H   0  0  0  0  0  0
  -28.8773  -21.7643   22.6250 H   0  0  0  0  0  0
  -27.2722  -22.1220   21.9977 H   0  0  0  0  0  0
  -28.3245  -23.4277   22.5288 H   0  0  0  0  0  0
  -27.0322  -23.9183   19.9369 H   0  0  0  0  0  0
  -28.3677  -24.1120   18.8872 H   0  0  0  0  0  0
  -28.7936  -16.3181   21.1158 H   0  0  0  0  0  0
  1 25  1  0  0  0
  1 30  2  0  0  0
  1 83  1  0  0  0
  2  3  1  0  0  0
  2 25  1  0  0  0
  2 84  1  0  0  0
  2 85  1  0  0  0
  3  4  1  0  0  0
  3 86  1  0  0  0
  3 87  1  0  0  0
  4  5  1  0  0  0
  4 88  1  0  0  0
  4 89  1  0  0  0
  5  6  1  0  0  0
  5 26  1  0  0  0
  5 90  1  0  0  0
  6 25  1  0  0  0
  6 91  1  0  0  0
  6 92  1  0  0  0
  7  8  2  0  0  0
  7 26  1  0  0  0
  7 29  1  0  0  0
  8  9  1  0  0  0
  8 22  1  0  0  0
  9 10  1  0  0  0
  9 27  2  0  0  0
 10 11  2  0  0  0
 10 15  1  0  0  0
 11 12  1  0  0  0
 11 93  1  0  0  0
 12 13  2  0  0  0
 12 94  1  0  0  0
 13 14  1  0  0  0
 13 31  1  0  0  0
 14 15  2  0  0  0
 14 95  1  0  0  0
 15 96  1  0  0  0
 16 17  2  0  0  0
 16 21  1  0  0  0
 16 31  1  0  0  0
 17 18  1  0  0  0
 17 97  1  0  0  0
 18 19  2  0  0  0
 18 98  1  0  0  0
 19 20  1  0  0  0
 19 24  1  0  0  0
 20 21  2  0  0  0
 20 99  1  0  0  0
 21 23  1  0  0  0
 22 28  1  0  0  0
 22 32  2  0  0  0
 26 27  1  0  0  0
 28100  1  0  0  0
 28101  1  0  0  0
 29102  1  0  0  0
 29103  1  0  0  0
 33 34  1  0  0  0
 33 66  1  0  0  0
 33 70  2  0  0  0
 34 36  1  0  0  0
 34 59  1  0  0  0
 34104  1  0  0  0
 35 44  2  0  0  0
 35 45  1  0  0  0
 35 68  1  0  0  0
 36 56  1  0  0  0
 36105  1  0  0  0
 37 39  1  0  0  0
 37 47  1  0  0  0
 37 66  1  0  0  0
 37106  1  0  0  0
 38 43  2  0  0  0
 38 46  1  0  0  0
 38 47  1  0  0  0
 39 64  1  0  0  0
 39 67  2  0  0  0
 40 52  1  0  0  0
 40 53  2  0  0  0
 40 58  1  0  0  0
 41107  1  0  0  0
 41108  1  0  0  0
 41109  1  0  0  0
 41 48  1  0  0  0
 42 43  1  0  0  0
 42 66  1  0  0  0
 42110  1  0  0  0
 42111  1  0  0  0
 43 44  1  0  0  0
 44112  1  0  0  0
 45 46  2  0  0  0
 45113  1  0  0  0
 46114  1  0  0  0
 47115  1  0  0  0
 47116  1  0  0  0
 48 56  1  0  0  0
 48 65  1  0  0  0
 48117  1  0  0  0
 49 50  1  0  0  0
 49 53  1  0  0  0
 49 64  1  0  0  0
 49118  1  0  0  0
 50 51  1  0  0  0
 50119  1  0  0  0
 50120  1  0  0  0
 51 52  1  0  0  0
 51121  1  0  0  0
 51122  1  0  0  0
 52123  1  0  0  0
 52124  1  0  0  0
 53 54  1  0  0  0
 54 55  2  0  0  0
 54125  1  0  0  0
 55 57  1  0  0  0
 55126  1  0  0  0
 56 69  2  0  0  0
 57 58  2  0  0  0
 57127  1  0  0  0
 58128  1  0  0  0
 59 60  1  0  0  0
 59 61  1  0  0  0
 59 62  1  0  0  0
 60129  1  0  0  0
 60130  1  0  0  0
 60131  1  0  0  0
 61132  1  0  0  0
 61133  1  0  0  0
 61134  1  0  0  0
 62135  1  0  0  0
 62136  1  0  0  0
 62137  1  0  0  0
 63 65  1  0  0  0
 63138  1  0  0  0
 63139  1  0  0  0
 63140  1  0  0  0
 64141  1  0  0  0
 65142  1  0  0  0
 68 81  1  0  0  0
 71 73  2  0  0  0
 71 74  1  0  0  0
 71143  1  0  0  0
 72 73  1  0  0  0
 72 76  2  0  0  0
 72144  1  0  0  0
 73 82  1  0  0  0
 74 75  2  0  0  0
 74 77  1  0  0  0
 75 76  1  0  0  0
 75 78  1  0  0  0
 76 83  1  0  0  0
 77145  1  0  0  0
 77146  1  0  0  0
 77147  1  0  0  0
 78148  1  0  0  0
 78149  1  0  0  0
 78150  1  0  0  0
 79151  1  0  0  0
 79152  1  0  0  0
 79153  1  0  0  0
 79 82  1  0  0  0
 80 82  1  0  0  0
 80154  1  0  0  0
 80155  1  0  0  0
 80156  1  0  0  0
 81 82  1  0  0  0
 81157  1  0  0  0
 81158  1  0  0  0
 83159  1  0  0  0
M  ISO  4   1 100  68 101  81 101  83 100
M  END
> <chiral flag>
0

> <version>
0

> <s_m_source_file>
/data/baiqing/PycharmProjects/Reinvent-master-3.2/result/LINK_invent/BTK/process_docking_weight1_custom_sum_contain_oxygen_bond_distance_aromatic_linkinvent_7_9_3/rearranged_h_0019.sdf

> <i_m_source_file_index>
13

> <r_mmod_Potential_Energy-OPLS-2005>
1438.5537109375

> <r_mmod_Stretch_Energy-OPLS-2005>
673.329284667969

> <r_mmod_Bend_Energy-OPLS-2005>
454.388397216797

> <r_mmod_Torsional_Energy-OPLS-2005>
256.269775390625

> <r_mmod_Improper_Torsional_Energy-OPLS-2005>
5.13464212417603

> <r_mmod_Van_der_Waal_Energy-OPLS-2005>
125.505126953125

> <r_mmod_Electrostatic_Energy-OPLS-2005>
-399.626739501953

> <r_mmod_Solvation_Energy-OPLS-2005>
-205.783645629883

> <b_mmod_Minimization_Converged-OPLS-2005>
0

> <r_mmod_RMS_Derivative-OPLS-2005>
4.39520597457886

$$$$
13
                    3D
 Structure written by MMmdl.
161169  0  0  1  0            999 V2000
  -30.5997  -14.6177   20.4944 C   0  0  0  0  0  0
  -30.4394  -12.3753   19.4462 C   0  0  0  0  0  0
  -29.5065  -12.5046   18.2201 C   0  0  0  0  0  0
  -28.0278  -12.3460   18.6311 C   0  0  0  0  0  0
  -27.6557  -13.2079   19.8671 C   0  0  2  0  0  0
  -28.6980  -13.0361   20.9954 C   0  0  0  0  0  0
  -25.2589  -13.8157   20.5687 C   0  0  0  0  0  0
  -24.1840  -13.0437   20.9180 C   0  0  0  0  0  0
  -24.6389  -11.6901   20.8733 C   0  0  0  0  0  0
  -23.9055  -10.4291   21.0401 C   0  0  0  0  0  0
  -24.3612   -9.4214   21.9180 C   0  0  0  0  0  0
  -23.6290   -8.2246   22.0757 C   0  0  0  0  0  0
  -22.4275   -8.0281   21.3542 C   0  0  0  0  0  0
  -21.9902   -9.0251   20.4647 C   0  0  0  0  0  0
  -22.7227  -10.2137   20.3051 C   0  0  0  0  0  0
  -21.6854   -6.0735   22.5281 C   0  0  0  0  0  0
  -21.4009   -6.5641   23.8213 C   0  0  0  0  0  0
  -21.3660   -5.6791   24.9174 C   0  0  0  0  0  0
  -21.6045   -4.3054   24.7222 C   0  0  0  0  0  0
  -21.8821   -3.8148   23.4345 C   0  0  0  0  0  0
  -21.9194   -4.6964   22.3400 C   0  0  0  0  0  0
  -22.7866  -13.5244   21.1840 C   0  0  0  0  0  0
  -22.1665   -4.2153   21.0978 F   0  0  0  0  0  0
  -21.5632   -3.4536   25.7735 F   0  0  0  0  0  0
  -30.0152  -13.3821   20.4384 N   0  0  0  0  0  0
  -26.2998  -12.9316   20.3323 N   0  0  0  0  0  0
  -25.9312  -11.6476   20.5751 N   0  0  0  0  0  0
  -22.0504  -12.8238   22.0393 N   0  0  0  0  0  0
  -25.4327  -15.1875   20.4113 N   0  0  0  0  0  0
  -31.7622  -14.7986   20.1187 O   0  0  0  0  0  0
  -21.6641   -6.8877   21.4242 O   0  0  0  0  0  0
  -22.3556  -14.5559   20.6697 O   0  0  0  0  0  0
  -24.6242  -31.8595   23.2006 C   0  0  0  0  0  0
  -25.9088  -32.4784   23.8339 C   0  0  1  0  0  0
  -27.2264  -27.3395   20.1274 C   0  0  0  0  0  0
  -25.5895  -33.8582   24.2268 N   0  0  0  0  0  0
  -23.4185  -30.4826   21.5420 C   0  0  2  0  0  0
  -24.8655  -28.9334   20.1142 C   0  0  0  0  0  0
  -22.7465  -29.4631   22.4927 C   0  0  0  0  0  0
  -18.0292  -28.1401   22.8510 C   0  0  0  0  0  0
  -24.1486  -36.7285   23.2640 C   0  0  0  0  0  0
  -25.9560  -30.8000   21.3659 C   0  0  0  0  0  0
  -26.0324  -29.4267   20.7135 C   0  0  0  0  0  0
  -27.2204  -28.6420   20.7061 C   0  0  0  0  0  0
  -26.0426  -26.8849   19.5130 C   0  0  0  0  0  0
  -24.8704  -27.6676   19.5049 C   0  0  0  0  0  0
  -23.6327  -29.8124   20.1593 C   0  0  0  0  0  0
  -25.4119  -36.3087   24.0332 C   0  0  1  0  0  0
  -20.5895  -28.3696   23.1290 C   0  0  2  0  0  0
  -20.6795  -26.9414   22.5422 C   0  0  0  0  0  0
  -19.5768  -26.6394   21.5227 C   0  0  0  0  0  0
  -18.1938  -26.7956   22.1625 C   0  0  0  0  0  0
  -19.1549  -28.8860   23.2903 C   0  0  0  0  0  0
  -18.9471  -30.1467   23.8912 C   0  0  0  0  0  0
  -17.6469  -30.6602   24.0572 C   0  0  0  0  0  0
  -25.9043  -34.9457   23.5110 C   0  0  0  0  0  0
  -16.5360  -29.9109   23.6335 C   0  0  0  0  0  0
  -16.7277  -28.6526   23.0352 C   0  0  0  0  0  0
  -26.4483  -31.6597   25.0701 C   0  0  0  0  0  0
  -25.3709  -31.3742   26.1420 C   0  0  0  0  0  0
  -27.0320  -30.3036   24.6125 C   0  0  0  0  0  0
  -27.6050  -32.4322   25.7474 C   0  0  0  0  0  0
  -27.5588  -37.1801   24.8467 C   0  0  0  0  0  0
  -21.4187  -29.3046   22.3668 N   0  0  0  0  0  0
  -26.4299  -37.3782   23.9404 N   0  0  0  0  0  0
  -24.6848  -31.0638   22.0943 N   0  0  0  0  0  0
  -23.4193  -28.8174   23.3005 O   0  0  0  0  0  0
  -28.3505  -26.5126   20.1273 O   0  0  0  0  0  0
  -26.5609  -34.8935   22.4673 O   0  0  0  0  0  0
  -23.5413  -32.1363   23.7372 O   0  0  0  0  0  0
  -28.9596  -19.3419   21.3399 C   0  0  0  0  0  0
  -29.9390  -19.0994   19.1650 C   0  0  0  0  0  0
  -29.1150  -17.9361   21.5577 C   0  0  0  0  0  0
  -30.0985  -17.6943   19.3583 C   0  0  0  0  0  0
  -29.3757  -19.9654   20.1361 C   0  0  0  0  0  0
  -29.7188  -17.0759   20.5893 C   0  0  0  0  0  0
  -28.5883  -17.3463   22.8573 C   0  0  0  0  0  0
  -30.6145  -16.8876   18.1771 C   0  0  0  0  0  0
  -29.9186  -22.6309   21.8374 C   0  0  0  0  0  0
  -28.7123  -23.8953   19.9441 C   0  0  0  0  0  0
  -28.2171  -25.1797   20.7461 C   0  0  0  0  0  0
  -28.8728  -22.4989   20.7157 C   0  0  1  0  0  0
  -29.7608  -15.6360   20.8599 N   0  0  0  0  0  0
  -29.2381  -21.3595   19.8217 N   0  0  0  0  0  0
  -31.4806  -12.5068   19.1451 H   0  0  0  0  0  0
  -30.3755  -11.3742   19.8741 H   0  0  0  0  0  0
  -29.7671  -11.7592   17.4673 H   0  0  0  0  0  0
  -29.6517  -13.4763   17.7455 H   0  0  0  0  0  0
  -27.8582  -11.2915   18.8511 H   0  0  0  0  0  0
  -27.3745  -12.5881   17.7922 H   0  0  0  0  0  0
  -27.6806  -14.2470   19.5384 H   0  0  0  0  0  0
  -28.7053  -12.0068   21.3564 H   0  0  0  0  0  0
  -28.4445  -13.6477   21.8624 H   0  0  0  0  0  0
  -25.2758   -9.5699   22.4745 H   0  0  0  0  0  0
  -24.0008   -7.4640   22.7470 H   0  0  0  0  0  0
  -21.0838   -8.8761   19.8946 H   0  0  0  0  0  0
  -22.3681  -10.9669   19.6159 H   0  0  0  0  0  0
  -21.1995   -7.6148   23.9716 H   0  0  0  0  0  0
  -21.1481   -6.0522   25.9080 H   0  0  0  0  0  0
  -22.0598   -2.7611   23.2839 H   0  0  0  0  0  0
  -22.4113  -11.9894   22.4776 H   0  0  0  0  0  0
  -21.1121  -13.1268   22.2594 H   0  0  0  0  0  0
  -24.6662  -15.8419   20.5210 H   0  0  0  0  0  0
  -26.2828  -15.6267   20.0822 H   0  0  0  0  0  0
  -26.7146  -32.5464   23.1079 H   0  0  0  0  0  0
  -25.0059  -33.9720   25.0433 H   0  0  0  0  0  0
  -22.7153  -31.3046   21.3977 H   0  0  0  0  0  0
  -23.3758  -35.9603   23.3308 H   0  0  0  0  0  0
  -24.3591  -36.8892   22.2052 H   0  0  0  0  0  0
  -23.7232  -37.6492   23.6652 H   0  0  0  0  0  0
  -26.0817  -31.5635   20.5970 H   0  0  0  0  0  0
  -26.8377  -30.8516   21.9921 H   0  0  0  0  0  0
  -28.1212  -29.0188   21.1705 H   0  0  0  0  0  0
  -26.0253  -25.9109   19.0432 H   0  0  0  0  0  0
  -23.9741  -27.2859   19.0355 H   0  0  0  0  0  0
  -23.7520  -30.5855   19.3993 H   0  0  0  0  0  0
  -22.7533  -29.2393   19.8584 H   0  0  0  0  0  0
  -25.1310  -36.1929   25.0828 H   0  0  0  0  0  0
  -21.0006  -28.3263   24.1402 H   0  0  0  0  0  0
  -20.5719  -26.2284   23.3616 H   0  0  0  0  0  0
  -21.6658  -26.7457   22.1186 H   0  0  0  0  0  0
  -19.6921  -25.6305   21.1245 H   0  0  0  0  0  0
  -19.6717  -27.3224   20.6769 H   0  0  0  0  0  0
  -17.4220  -26.6713   21.4013 H   0  0  0  0  0  0
  -18.0320  -26.0114   22.9028 H   0  0  0  0  0  0
  -19.7944  -30.7297   24.2269 H   0  0  0  0  0  0
  -17.5023  -31.6286   24.5179 H   0  0  0  0  0  0
  -15.5362  -30.3007   23.7674 H   0  0  0  0  0  0
  -15.8680  -28.0857   22.7031 H   0  0  0  0  0  0
  -24.5882  -30.7092   25.7748 H   0  0  0  0  0  0
  -24.8891  -32.2909   26.4825 H   0  0  0  0  0  0
  -25.8021  -30.8933   27.0202 H   0  0  0  0  0  0
  -26.2881  -29.6796   24.1154 H   0  0  0  0  0  0
  -27.4054  -29.7286   25.4603 H   0  0  0  0  0  0
  -27.8732  -30.4357   23.9317 H   0  0  0  0  0  0
  -27.2665  -33.3630   26.2041 H   0  0  0  0  0  0
  -28.3867  -32.6859   25.0298 H   0  0  0  0  0  0
  -28.0693  -31.8432   26.5390 H   0  0  0  0  0  0
  -28.2602  -38.0103   24.7533 H   0  0  0  0  0  0
  -28.1087  -36.2640   24.6274 H   0  0  0  0  0  0
  -27.2304  -37.1425   25.8868 H   0  0  0  0  0  0
  -20.9344  -29.8749   21.6881 H   0  0  0  0  0  0
  -26.0179  -38.2851   24.1430 H   0  0  0  0  0  0
  -28.4888  -19.9406   22.1057 H   0  0  0  0  0  0
  -30.2415  -19.5191   18.2158 H   0  0  0  0  0  0
  -28.1590  -18.1107   23.5054 H   0  0  0  0  0  0
  -29.3907  -16.8538   23.4067 H   0  0  0  0  0  0
  -27.8082  -16.6113   22.6550 H   0  0  0  0  0  0
  -30.4692  -17.4220   17.2376 H   0  0  0  0  0  0
  -30.0850  -15.9399   18.0816 H   0  0  0  0  0  0
  -31.6809  -16.6908   18.2845 H   0  0  0  0  0  0
  -29.5984  -23.3416   22.5987 H   0  0  0  0  0  0
  -30.8782  -22.9750   21.4478 H   0  0  0  0  0  0
  -30.0958  -21.6890   22.3554 H   0  0  0  0  0  0
  -29.6693  -24.1452   19.4858 H   0  0  0  0  0  0
  -28.0230  -23.7504   19.1102 H   0  0  0  0  0  0
  -28.8023  -25.2495   21.6620 H   0  0  0  0  0  0
  -27.1949  -25.0098   21.0875 H   0  0  0  0  0  0
  -27.9122  -22.2535   21.1725 H   0  0  0  0  0  0
  -28.9462  -15.2907   21.3424 H   0  0  0  0  0  0
  -29.4868  -21.6256   18.8718 H   0  0  0  0  0  0
  1 25  1  0  0  0
  1 30  2  0  0  0
  1 83  1  0  0  0
  2  3  1  0  0  0
  2 25  1  0  0  0
  2 85  1  0  0  0
  2 86  1  0  0  0
  3  4  1  0  0  0
  3 87  1  0  0  0
  3 88  1  0  0  0
  4  5  1  0  0  0
  4 89  1  0  0  0
  4 90  1  0  0  0
  5  6  1  0  0  0
  5 26  1  0  0  0
  5 91  1  0  0  0
  6 25  1  0  0  0
  6 92  1  0  0  0
  6 93  1  0  0  0
  7  8  2  0  0  0
  7 26  1  0  0  0
  7 29  1  0  0  0
  8  9  1  0  0  0
  8 22  1  0  0  0
  9 10  1  0  0  0
  9 27  2  0  0  0
 10 11  2  0  0  0
 10 15  1  0  0  0
 11 12  1  0  0  0
 11 94  1  0  0  0
 12 13  2  0  0  0
 12 95  1  0  0  0
 13 14  1  0  0  0
 13 31  1  0  0  0
 14 15  2  0  0  0
 14 96  1  0  0  0
 15 97  1  0  0  0
 16 17  2  0  0  0
 16 21  1  0  0  0
 16 31  1  0  0  0
 17 18  1  0  0  0
 17 98  1  0  0  0
 18 19  2  0  0  0
 18 99  1  0  0  0
 19 20  1  0  0  0
 19 24  1  0  0  0
 20 21  2  0  0  0
 20100  1  0  0  0
 21 23  1  0  0  0
 22 28  1  0  0  0
 22 32  2  0  0  0
 26 27  1  0  0  0
 28101  1  0  0  0
 28102  1  0  0  0
 29103  1  0  0  0
 29104  1  0  0  0
 33 34  1  0  0  0
 33 66  1  0  0  0
 33 70  2  0  0  0
 34 36  1  0  0  0
 34 59  1  0  0  0
 34105  1  0  0  0
 35 44  2  0  0  0
 35 45  1  0  0  0
 35 68  1  0  0  0
 36 56  1  0  0  0
 36106  1  0  0  0
 37 39  1  0  0  0
 37 47  1  0  0  0
 37 66  1  0  0  0
 37107  1  0  0  0
 38 43  2  0  0  0
 38 46  1  0  0  0
 38 47  1  0  0  0
 39 64  1  0  0  0
 39 67  2  0  0  0
 40 52  1  0  0  0
 40 53  2  0  0  0
 40 58  1  0  0  0
 41108  1  0  0  0
 41109  1  0  0  0
 41110  1  0  0  0
 41 48  1  0  0  0
 42 43  1  0  0  0
 42 66  1  0  0  0
 42111  1  0  0  0
 42112  1  0  0  0
 43 44  1  0  0  0
 44113  1  0  0  0
 45 46  2  0  0  0
 45114  1  0  0  0
 46115  1  0  0  0
 47116  1  0  0  0
 47117  1  0  0  0
 48 56  1  0  0  0
 48 65  1  0  0  0
 48118  1  0  0  0
 49 50  1  0  0  0
 49 53  1  0  0  0
 49 64  1  0  0  0
 49119  1  0  0  0
 50 51  1  0  0  0
 50120  1  0  0  0
 50121  1  0  0  0
 51 52  1  0  0  0
 51122  1  0  0  0
 51123  1  0  0  0
 52124  1  0  0  0
 52125  1  0  0  0
 53 54  1  0  0  0
 54 55  2  0  0  0
 54126  1  0  0  0
 55 57  1  0  0  0
 55127  1  0  0  0
 56 69  2  0  0  0
 57 58  2  0  0  0
 57128  1  0  0  0
 58129  1  0  0  0
 59 60  1  0  0  0
 59 61  1  0  0  0
 59 62  1  0  0  0
 60130  1  0  0  0
 60131  1  0  0  0
 60132  1  0  0  0
 61133  1  0  0  0
 61134  1  0  0  0
 61135  1  0  0  0
 62136  1  0  0  0
 62137  1  0  0  0
 62138  1  0  0  0
 63 65  1  0  0  0
 63139  1  0  0  0
 63140  1  0  0  0
 63141  1  0  0  0
 64142  1  0  0  0
 65143  1  0  0  0
 68 81  1  0  0  0
 71 73  2  0  0  0
 71 75  1  0  0  0
 71144  1  0  0  0
 72 74  1  0  0  0
 72 75  2  0  0  0
 72145  1  0  0  0
 73 76  1  0  0  0
 73 77  1  0  0  0
 74 76  2  0  0  0
 74 78  1  0  0  0
 75 84  1  0  0  0
 76 83  1  0  0  0
 77146  1  0  0  0
 77147  1  0  0  0
 77148  1  0  0  0
 78149  1  0  0  0
 78150  1  0  0  0
 78151  1  0  0  0
 79152  1  0  0  0
 79153  1  0  0  0
 79154  1  0  0  0
 79 82  1  0  0  0
 80 81  1  0  0  0
 80 82  1  0  0  0
 80155  1  0  0  0
 80156  1  0  0  0
 81157  1  0  0  0
 81158  1  0  0  0
 82 84  1  0  0  0
 82159  1  0  0  0
 83160  1  0  0  0
 84161  1  0  0  0
M  ISO  4   1 100  68 101  81 101  83 100
M  END
> <chiral flag>
0

> <version>
0

> <s_m_source_file>
/data/baiqing/PycharmProjects/Reinvent-master-3.2/result/LINK_invent/BTK/process_docking_weight1_custom_sum_contain_oxygen_bond_distance_aromatic_linkinvent_7_9_3/rearranged_h_0019.sdf

> <i_m_source_file_index>
14

> <r_mmod_Potential_Energy-OPLS-2005>
18.3581657409668

> <r_mmod_Stretch_Energy-OPLS-2005>
74.9142303466797

> <r_mmod_Bend_Energy-OPLS-2005>
152.282989501953

> <r_mmod_Torsional_Energy-OPLS-2005>
237.640411376953

> <r_mmod_Improper_Torsional_Energy-OPLS-2005>
4.3058705329895

> <r_mmod_Van_der_Waal_Energy-OPLS-2005>
140.42610168457

> <r_mmod_Electrostatic_Energy-OPLS-2005>
-422.287689208984

> <r_mmod_Solvation_Energy-OPLS-2005>
-209.498657226562

> <b_mmod_Minimization_Converged-OPLS-2005>
0

> <r_mmod_RMS_Derivative-OPLS-2005>
1.90797793865204

$$$$
14
                    3D
 Structure written by MMmdl.
165173  0  0  1  0            999 V2000
  -30.5954  -14.8537   20.4263 C   0  0  0  0  0  0
  -30.4290  -12.5248   19.4920 C   0  0  0  0  0  0
  -29.5138  -12.5158   18.2479 C   0  0  0  0  0  0
  -28.0432  -12.3267   18.6624 C   0  0  0  0  0  0
  -27.6326  -13.2474   19.8421 C   0  0  2  0  0  0
  -28.6760  -13.2477   20.9798 C   0  0  0  0  0  0
  -25.2470  -13.8226   20.5713 C   0  0  0  0  0  0
  -24.1790  -13.0450   20.9232 C   0  0  0  0  0  0
  -24.6399  -11.6933   20.8760 C   0  0  0  0  0  0
  -23.9089  -10.4299   21.0415 C   0  0  0  0  0  0
  -24.3631   -9.4210   21.9187 C   0  0  0  0  0  0
  -23.6294   -8.2247   22.0759 C   0  0  0  0  0  0
  -22.4280   -8.0284   21.3547 C   0  0  0  0  0  0
  -21.9928   -9.0263   20.4650 C   0  0  0  0  0  0
  -22.7265  -10.2135   20.3058 C   0  0  0  0  0  0
  -21.6856   -6.0734   22.5280 C   0  0  0  0  0  0
  -21.4016   -6.5640   23.8210 C   0  0  0  0  0  0
  -21.3660   -5.6793   24.9173 C   0  0  0  0  0  0
  -21.6044   -4.3057   24.7228 C   0  0  0  0  0  0
  -21.8818   -3.8147   23.4350 C   0  0  0  0  0  0
  -21.9192   -4.6960   22.3403 C   0  0  0  0  0  0
  -22.7805  -13.5216   21.1881 C   0  0  0  0  0  0
  -22.1661   -4.2146   21.0981 F   0  0  0  0  0  0
  -21.5630   -3.4540   25.7741 F   0  0  0  0  0  0
  -29.9613  -13.6219   20.3822 N   0  0  0  0  0  0
  -26.2897  -12.9458   20.3259 N   0  0  0  0  0  0
  -25.9331  -11.6584   20.5751 N   0  0  0  0  0  0
  -22.0449  -12.8193   22.0430 N   0  0  0  0  0  0
  -25.4141  -15.1948   20.4104 N   0  0  0  0  0  0
  -31.7972  -14.8902   20.1466 O   0  0  0  0  0  0
  -21.6641   -6.8880   21.4242 O   0  0  0  0  0  0
  -22.3480  -14.5512   20.6724 O   0  0  0  0  0  0
  -24.6374  -31.8481   23.1930 C   0  0  0  0  0  0
  -25.9173  -32.4711   23.8294 C   0  0  1  0  0  0
  -27.2046  -27.1804   20.1402 C   0  0  0  0  0  0
  -25.5944  -33.8508   24.2212 N   0  0  0  0  0  0
  -23.4383  -30.4698   21.5363 C   0  0  2  0  0  0
  -24.8825  -28.9070   20.1049 C   0  0  0  0  0  0
  -22.7536  -29.4565   22.4855 C   0  0  0  0  0  0
  -18.0305  -28.1385   22.8458 C   0  0  0  0  0  0
  -24.1486  -36.7248   23.2645 C   0  0  0  0  0  0
  -25.9899  -30.7338   21.3882 C   0  0  0  0  0  0
  -26.0563  -29.3506   20.7256 C   0  0  0  0  0  0
  -27.2159  -28.5000   20.7302 C   0  0  0  0  0  0
  -26.0108  -26.8292   19.4726 C   0  0  0  0  0  0
  -24.8707  -27.6591   19.4642 C   0  0  0  0  0  0
  -23.6598  -29.8048   20.1523 C   0  0  0  0  0  0
  -25.4123  -36.3029   24.0317 C   0  0  1  0  0  0
  -20.5911  -28.3687   23.1230 C   0  0  2  0  0  0
  -20.6776  -26.9390   22.5393 C   0  0  0  0  0  0
  -19.5755  -26.6365   21.5193 C   0  0  0  0  0  0
  -18.1934  -26.7921   22.1606 C   0  0  0  0  0  0
  -19.1566  -28.8854   23.2833 C   0  0  0  0  0  0
  -18.9494  -30.1454   23.8843 C   0  0  0  0  0  0
  -17.6491  -30.6569   24.0546 C   0  0  0  0  0  0
  -25.9072  -34.9405   23.5073 C   0  0  0  0  0  0
  -16.5375  -29.9067   23.6340 C   0  0  0  0  0  0
  -16.7294  -28.6501   23.0330 C   0  0  0  0  0  0
  -26.4514  -31.6574   25.0726 C   0  0  0  0  0  0
  -25.3714  -31.3746   26.1433 C   0  0  0  0  0  0
  -27.0411  -30.2987   24.6298 C   0  0  0  0  0  0
  -27.6045  -32.4360   25.7498 C   0  0  0  0  0  0
  -27.5566  -37.1775   24.8474 C   0  0  0  0  0  0
  -21.4234  -29.3034   22.3609 N   0  0  0  0  0  0
  -26.4279  -37.3748   23.9415 N   0  0  0  0  0  0
  -24.7079  -31.0384   22.0943 N   0  0  0  0  0  0
  -23.4210  -28.8108   23.2969 O   0  0  0  0  0  0
  -28.2852  -26.2493   20.2304 O   0  0  0  0  0  0
  -26.5653  -34.8901   22.4647 O   0  0  0  0  0  0
  -23.5509  -32.1341   23.7188 O   0  0  0  0  0  0
  -30.4563  -21.4838   20.6011 C   0  0  0  0  0  0
  -30.8210  -20.0959   20.5279 C   0  0  0  0  0  0
  -29.1280  -22.0108   20.5703 C   0  0  0  0  0  0
  -29.8820  -19.0139   20.4127 C   0  0  0  0  0  0
  -28.5323  -19.5085   20.2949 C   0  0  0  0  0  0
  -28.1749  -20.9366   20.3742 C   0  0  0  0  0  0
  -32.3149  -19.8096   20.5833 C   0  0  0  0  0  0
  -27.4415  -18.4714   20.0682 C   0  0  0  0  0  0
  -28.2523  -22.6873   23.3647 C   0  0  0  0  0  0
  -30.1697  -24.2711   21.3760 C   0  0  0  0  0  0
  -30.4688  -17.4767   20.2899 C   0  0  0  0  0  0
  -27.9145  -23.6557   22.2138 C   0  0  0  0  0  0
  -28.1941  -24.7366   19.9309 C   0  0  0  0  0  0
  -28.8337  -23.6050   20.9568 C   0  0  2  0  0  0
  -29.8780  -16.0620   20.5499 N   0  0  0  0  0  0
  -26.5057  -21.3776   20.2396 Cl  0  0  0  0  0  0
  -31.4683  -12.6538   19.1847 H   0  0  0  0  0  0
  -30.3891  -11.5652   20.0108 H   0  0  0  0  0  0
  -29.8148  -11.7222   17.5628 H   0  0  0  0  0  0
  -29.6269  -13.4530   17.6997 H   0  0  0  0  0  0
  -27.9186  -11.2829   18.9510 H   0  0  0  0  0  0
  -27.3847  -12.4878   17.8084 H   0  0  0  0  0  0
  -27.6067  -14.2577   19.4319 H   0  0  0  0  0  0
  -28.7382  -12.2692   21.4574 H   0  0  0  0  0  0
  -28.3959  -13.9579   21.7593 H   0  0  0  0  0  0
  -25.2769   -9.5674   22.4773 H   0  0  0  0  0  0
  -23.9997   -7.4637   22.7484 H   0  0  0  0  0  0
  -21.0859   -8.8786   19.8953 H   0  0  0  0  0  0
  -22.3728  -10.9673   19.6168 H   0  0  0  0  0  0
  -21.2009   -7.6147   23.9713 H   0  0  0  0  0  0
  -21.1484   -6.0524   25.9073 H   0  0  0  0  0  0
  -22.0596   -2.7610   23.2852 H   0  0  0  0  0  0
  -22.4056  -11.9853   22.4823 H   0  0  0  0  0  0
  -21.1059  -13.1207   22.2623 H   0  0  0  0  0  0
  -24.6455  -15.8470   20.5209 H   0  0  0  0  0  0
  -26.2475  -15.6259   20.0345 H   0  0  0  0  0  0
  -26.7214  -32.5324   23.1006 H   0  0  0  0  0  0
  -25.0084  -33.9638   25.0354 H   0  0  0  0  0  0
  -22.7395  -31.2950   21.3857 H   0  0  0  0  0  0
  -23.3757  -35.9572   23.3316 H   0  0  0  0  0  0
  -24.3564  -36.8887   22.2060 H   0  0  0  0  0  0
  -23.7246  -37.6439   23.6694 H   0  0  0  0  0  0
  -26.1476  -31.4952   20.6224 H   0  0  0  0  0  0
  -26.8590  -30.7744   22.0325 H   0  0  0  0  0  0
  -28.1105  -28.8300   21.2387 H   0  0  0  0  0  0
  -25.9189  -25.8861   18.9584 H   0  0  0  0  0  0
  -23.9752  -27.3187   18.9611 H   0  0  0  0  0  0
  -23.7926  -30.5833   19.3997 H   0  0  0  0  0  0
  -22.7751  -29.2445   19.8415 H   0  0  0  0  0  0
  -25.1311  -36.1847   25.0809 H   0  0  0  0  0  0
  -20.9991  -28.3255   24.1355 H   0  0  0  0  0  0
  -20.5648  -26.2289   23.3603 H   0  0  0  0  0  0
  -21.6646  -26.7381   22.1204 H   0  0  0  0  0  0
  -19.6912  -25.6273   21.1233 H   0  0  0  0  0  0
  -19.6701  -27.3156   20.6707 H   0  0  0  0  0  0
  -17.4203  -26.6654   21.4008 H   0  0  0  0  0  0
  -18.0337  -26.0072   22.9020 H   0  0  0  0  0  0
  -19.7982  -30.7276   24.2167 H   0  0  0  0  0  0
  -17.5067  -31.6254   24.5151 H   0  0  0  0  0  0
  -15.5374  -30.2954   23.7715 H   0  0  0  0  0  0
  -15.8696  -28.0827   22.7029 H   0  0  0  0  0  0
  -24.5912  -30.7076   25.7751 H   0  0  0  0  0  0
  -24.8869  -32.2915   26.4806 H   0  0  0  0  0  0
  -25.8004  -30.8966   27.0250 H   0  0  0  0  0  0
  -26.3038  -29.6671   24.1332 H   0  0  0  0  0  0
  -27.4078  -29.7324   25.4866 H   0  0  0  0  0  0
  -27.8914  -30.4248   23.9592 H   0  0  0  0  0  0
  -27.2638  -33.3698   26.1990 H   0  0  0  0  0  0
  -28.3878  -32.6866   25.0334 H   0  0  0  0  0  0
  -28.0686  -31.8555   26.5484 H   0  0  0  0  0  0
  -28.2566  -38.0078   24.7515 H   0  0  0  0  0  0
  -28.1066  -36.2606   24.6303 H   0  0  0  0  0  0
  -27.2280  -37.1430   25.8872 H   0  0  0  0  0  0
  -20.9418  -29.8782   21.6832 H   0  0  0  0  0  0
  -26.0145  -38.2808   24.1456 H   0  0  0  0  0  0
  -31.2781  -22.1699   20.7239 H   0  0  0  0  0  0
  -32.9051  -20.7102   20.4089 H   0  0  0  0  0  0
  -32.6164  -19.0898   19.8222 H   0  0  0  0  0  0
  -32.5915  -19.4236   21.5649 H   0  0  0  0  0  0
  -27.8209  -17.6285   19.4909 H   0  0  0  0  0  0
  -26.5962  -18.8638   19.5045 H   0  0  0  0  0  0
  -27.0718  -18.0948   21.0219 H   0  0  0  0  0  0
  -27.5921  -22.8648   24.2141 H   0  0  0  0  0  0
  -29.2751  -22.8084   23.7191 H   0  0  0  0  0  0
  -28.1220  -21.6445   23.0761 H   0  0  0  0  0  0
  -30.6779  -23.7283   22.1716 H   0  0  0  0  0  0
  -30.0227  -25.2839   21.7515 H   0  0  0  0  0  0
  -30.8558  -24.3507   20.5317 H   0  0  0  0  0  0
  -31.3511  -17.4613   20.9281 H   0  0  0  0  0  0
  -30.8634  -17.4254   19.2736 H   0  0  0  0  0  0
  -27.8905  -24.6739   22.6047 H   0  0  0  0  0  0
  -26.8850  -23.4577   21.9190 H   0  0  0  0  0  0
  -27.1646  -24.4371   19.7497 H   0  0  0  0  0  0
  -28.6913  -24.6116   18.9687 H   0  0  0  0  0  0
  -28.8921  -15.9969   20.7511 H   0  0  0  0  0  0
  1 25  1  0  0  0
  1 30  2  0  0  0
  1 85  1  0  0  0
  2  3  1  0  0  0
  2 25  1  0  0  0
  2 87  1  0  0  0
  2 88  1  0  0  0
  3  4  1  0  0  0
  3 89  1  0  0  0
  3 90  1  0  0  0
  4  5  1  0  0  0
  4 91  1  0  0  0
  4 92  1  0  0  0
  5  6  1  0  0  0
  5 26  1  0  0  0
  5 93  1  0  0  0
  6 25  1  0  0  0
  6 94  1  0  0  0
  6 95  1  0  0  0
  7  8  2  0  0  0
  7 26  1  0  0  0
  7 29  1  0  0  0
  8  9  1  0  0  0
  8 22  1  0  0  0
  9 10  1  0  0  0
  9 27  2  0  0  0
 10 11  2  0  0  0
 10 15  1  0  0  0
 11 12  1  0  0  0
 11 96  1  0  0  0
 12 13  2  0  0  0
 12 97  1  0  0  0
 13 14  1  0  0  0
 13 31  1  0  0  0
 14 15  2  0  0  0
 14 98  1  0  0  0
 15 99  1  0  0  0
 16 17  2  0  0  0
 16 21  1  0  0  0
 16 31  1  0  0  0
 17 18  1  0  0  0
 17100  1  0  0  0
 18 19  2  0  0  0
 18101  1  0  0  0
 19 20  1  0  0  0
 19 24  1  0  0  0
 20 21  2  0  0  0
 20102  1  0  0  0
 21 23  1  0  0  0
 22 28  1  0  0  0
 22 32  2  0  0  0
 26 27  1  0  0  0
 28103  1  0  0  0
 28104  1  0  0  0
 29105  1  0  0  0
 29106  1  0  0  0
 33 34  1  0  0  0
 33 66  1  0  0  0
 33 70  2  0  0  0
 34 36  1  0  0  0
 34 59  1  0  0  0
 34107  1  0  0  0
 35 44  2  0  0  0
 35 45  1  0  0  0
 35 68  1  0  0  0
 36 56  1  0  0  0
 36108  1  0  0  0
 37 39  1  0  0  0
 37 47  1  0  0  0
 37 66  1  0  0  0
 37109  1  0  0  0
 38 43  2  0  0  0
 38 46  1  0  0  0
 38 47  1  0  0  0
 39 64  1  0  0  0
 39 67  2  0  0  0
 40 52  1  0  0  0
 40 53  2  0  0  0
 40 58  1  0  0  0
 41110  1  0  0  0
 41111  1  0  0  0
 41112  1  0  0  0
 41 48  1  0  0  0
 42 43  1  0  0  0
 42 66  1  0  0  0
 42113  1  0  0  0
 42114  1  0  0  0
 43 44  1  0  0  0
 44115  1  0  0  0
 45 46  2  0  0  0
 45116  1  0  0  0
 46117  1  0  0  0
 47118  1  0  0  0
 47119  1  0  0  0
 48 56  1  0  0  0
 48 65  1  0  0  0
 48120  1  0  0  0
 49 50  1  0  0  0
 49 53  1  0  0  0
 49 64  1  0  0  0
 49121  1  0  0  0
 50 51  1  0  0  0
 50122  1  0  0  0
 50123  1  0  0  0
 51 52  1  0  0  0
 51124  1  0  0  0
 51125  1  0  0  0
 52126  1  0  0  0
 52127  1  0  0  0
 53 54  1  0  0  0
 54 55  2  0  0  0
 54128  1  0  0  0
 55 57  1  0  0  0
 55129  1  0  0  0
 56 69  2  0  0  0
 57 58  2  0  0  0
 57130  1  0  0  0
 58131  1  0  0  0
 59 60  1  0  0  0
 59 61  1  0  0  0
 59 62  1  0  0  0
 60132  1  0  0  0
 60133  1  0  0  0
 60134  1  0  0  0
 61135  1  0  0  0
 61136  1  0  0  0
 61137  1  0  0  0
 62138  1  0  0  0
 62139  1  0  0  0
 62140  1  0  0  0
 63 65  1  0  0  0
 63141  1  0  0  0
 63142  1  0  0  0
 63143  1  0  0  0
 64144  1  0  0  0
 65145  1  0  0  0
 68 83  1  0  0  0
 71 72  2  0  0  0
 71 73  1  0  0  0
 71146  1  0  0  0
 72 74  1  0  0  0
 72 77  1  0  0  0
 73 76  2  0  0  0
 73 84  1  0  0  0
 74 75  2  0  0  0
 74 81  1  0  0  0
 75 76  1  0  0  0
 75 78  1  0  0  0
 76 86  1  0  0  0
 77147  1  0  0  0
 77148  1  0  0  0
 77149  1  0  0  0
 78150  1  0  0  0
 78151  1  0  0  0
 78152  1  0  0  0
 79 82  1  0  0  0
 79153  1  0  0  0
 79154  1  0  0  0
 79155  1  0  0  0
 80156  1  0  0  0
 80157  1  0  0  0
 80158  1  0  0  0
 80 84  1  0  0  0
 81 85  1  0  0  0
 81159  1  0  0  0
 81160  1  0  0  0
 82 84  1  0  0  0
 82161  1  0  0  0
 82162  1  0  0  0
 83 84  1  0  0  0
 83163  1  0  0  0
 83164  1  0  0  0
 85165  1  0  0  0
M  ISO  4   1 100  68 101  83 101  85 100
M  END
> <chiral flag>
0

> <version>
0

> <s_m_source_file>
/data/baiqing/PycharmProjects/Reinvent-master-3.2/result/LINK_invent/BTK/process_docking_weight1_custom_sum_contain_oxygen_bond_distance_aromatic_linkinvent_7_9_3/rearranged_h_0019.sdf

> <i_m_source_file_index>
15

> <r_mmod_Potential_Energy-OPLS-2005>
389.973388671875

> <r_mmod_Stretch_Energy-OPLS-2005>
208.132339477539

> <r_mmod_Bend_Energy-OPLS-2005>
271.676605224609

> <r_mmod_Torsional_Energy-OPLS-2005>
217.668563842773

> <r_mmod_Improper_Torsional_Energy-OPLS-2005>
6.67649936676025

> <r_mmod_Van_der_Waal_Energy-OPLS-2005>
152.253692626953

> <r_mmod_Electrostatic_Energy-OPLS-2005>
-413.519622802734

> <r_mmod_Solvation_Energy-OPLS-2005>
-194.149002075195

> <b_mmod_Minimization_Converged-OPLS-2005>
0

> <r_mmod_RMS_Derivative-OPLS-2005>
1.78280317783356

$$$$
15
                    3D
 Structure written by MMmdl.
159168  0  0  1  0            999 V2000
  -30.6159  -14.6692   20.4803 C   0  0  0  0  0  0
  -30.4355  -12.4054   19.4597 C   0  0  0  0  0  0
  -29.5084  -12.5043   18.2275 C   0  0  0  0  0  0
  -28.0318  -12.3387   18.6389 C   0  0  0  0  0  0
  -27.6492  -13.2186   19.8586 C   0  0  2  0  0  0
  -28.6935  -13.0965   20.9913 C   0  0  0  0  0  0
  -25.2545  -13.8173   20.5682 C   0  0  0  0  0  0
  -24.1821  -13.0437   20.9198 C   0  0  0  0  0  0
  -24.6389  -11.6908   20.8739 C   0  0  0  0  0  0
  -23.9058  -10.4291   21.0403 C   0  0  0  0  0  0
  -24.3613   -9.4208   21.9182 C   0  0  0  0  0  0
  -23.6289   -8.2243   22.0753 C   0  0  0  0  0  0
  -22.4273   -8.0278   21.3543 C   0  0  0  0  0  0
  -21.9906   -9.0251   20.4644 C   0  0  0  0  0  0
  -22.7232  -10.2131   20.3054 C   0  0  0  0  0  0
  -21.6852   -6.0733   22.5277 C   0  0  0  0  0  0
  -21.4011   -6.5638   23.8210 C   0  0  0  0  0  0
  -21.3658   -5.6790   24.9173 C   0  0  0  0  0  0
  -21.6044   -4.3053   24.7224 C   0  0  0  0  0  0
  -21.8821   -3.8143   23.4345 C   0  0  0  0  0  0
  -21.9195   -4.6960   22.3402 C   0  0  0  0  0  0
  -22.7845  -13.5231   21.1858 C   0  0  0  0  0  0
  -22.1663   -4.2145   21.0980 F   0  0  0  0  0  0
  -21.5631   -3.4537   25.7737 F   0  0  0  0  0  0
  -30.0061  -13.4399   20.4242 N   0  0  0  0  0  0
  -26.2965  -12.9354   20.3293 N   0  0  0  0  0  0
  -25.9315  -11.6509   20.5749 N   0  0  0  0  0  0
  -22.0483  -12.8222   22.0410 N   0  0  0  0  0  0
  -25.4258  -15.1896   20.4087 N   0  0  0  0  0  0
  -31.7931  -14.7936   20.1240 O   0  0  0  0  0  0
  -21.6640   -6.8873   21.4238 O   0  0  0  0  0  0
  -22.3536  -14.5540   20.6707 O   0  0  0  0  0  0
  -24.6262  -31.8591   23.2014 C   0  0  0  0  0  0
  -25.9108  -32.4775   23.8343 C   0  0  1  0  0  0
  -27.2234  -27.3113   20.1292 C   0  0  0  0  0  0
  -25.5926  -33.8576   24.2277 N   0  0  0  0  0  0
  -23.4207  -30.4814   21.5439 C   0  0  2  0  0  0
  -24.8679  -28.9312   20.1140 C   0  0  0  0  0  0
  -22.7475  -29.4618   22.4933 C   0  0  0  0  0  0
  -18.0287  -28.1384   22.8492 C   0  0  0  0  0  0
  -24.1484  -36.7275   23.2642 C   0  0  0  0  0  0
  -25.9611  -30.7879   21.3726 C   0  0  0  0  0  0
  -26.0364  -29.4132   20.7184 C   0  0  0  0  0  0
  -27.2197  -28.6164   20.7130 C   0  0  0  0  0  0
  -26.0369  -26.8833   19.4957 C   0  0  0  0  0  0
  -24.8702  -27.6721   19.4924 C   0  0  0  0  0  0
  -23.6364  -29.8131   20.1604 C   0  0  0  0  0  0
  -25.4112  -36.3077   24.0333 C   0  0  1  0  0  0
  -20.5890  -28.3684   23.1285 C   0  0  2  0  0  0
  -20.6772  -26.9404   22.5414 C   0  0  0  0  0  0
  -19.5750  -26.6384   21.5212 C   0  0  0  0  0  0
  -18.1930  -26.7930   22.1623 C   0  0  0  0  0  0
  -19.1543  -28.8849   23.2883 C   0  0  0  0  0  0
  -18.9466  -30.1454   23.8894 C   0  0  0  0  0  0
  -17.6468  -30.6587   24.0567 C   0  0  0  0  0  0
  -25.9053  -34.9451   23.5105 C   0  0  0  0  0  0
  -16.5356  -29.9088   23.6336 C   0  0  0  0  0  0
  -16.7276  -28.6506   23.0356 C   0  0  0  0  0  0
  -26.4497  -31.6586   25.0711 C   0  0  0  0  0  0
  -25.3733  -31.3726   26.1440 C   0  0  0  0  0  0
  -27.0343  -30.3018   24.6153 C   0  0  0  0  0  0
  -27.6055  -32.4321   25.7487 C   0  0  0  0  0  0
  -27.5577  -37.1791   24.8470 C   0  0  0  0  0  0
  -21.4189  -29.3038   22.3675 N   0  0  0  0  0  0
  -26.4287  -37.3775   23.9418 N   0  0  0  0  0  0
  -24.6883  -31.0597   22.0965 N   0  0  0  0  0  0
  -23.4197  -28.8157   23.3015 O   0  0  0  0  0  0
  -28.3396  -26.4625   20.1410 O   0  0  0  0  0  0
  -26.5617  -34.8922   22.4669 O   0  0  0  0  0  0
  -23.5426  -32.1387   23.7344 O   0  0  0  0  0  0
  -28.8256  -18.0260   20.9286 C   0  0  0  0  0  0
  -31.1025  -19.1652   19.9810 C   0  0  0  0  0  0
  -28.8740  -19.4520   20.7784 C   0  0  0  0  0  0
  -30.0517  -20.0607   20.3098 C   0  0  0  0  0  0
  -29.9387  -17.1898   20.6000 C   0  0  0  0  0  0
  -27.7037  -20.3659   21.1237 C   0  0  0  0  0  0
  -27.7254  -21.7207   20.3528 C   0  0  0  0  0  0
  -30.1953  -21.6227   20.1550 C   0  0  2  0  0  0
  -31.4426  -22.1040   20.9252 C   0  0  0  0  0  0
  -28.9769  -23.8893   19.8884 C   0  0  0  0  0  0
  -28.1579  -25.0597   20.6068 C   0  0  0  0  0  0
  -31.0514  -17.8067   20.1217 N   0  0  0  0  0  0
  -29.8023  -15.7396   20.7819 N   0  0  0  0  0  0
  -28.9955  -22.4856   20.5273 N   0  3  1  0  0  0
  -31.4773  -12.5261   19.1577 H   0  0  0  0  0  0
  -30.3705  -11.4148   19.9124 H   0  0  0  0  0  0
  -29.7780  -11.7460   17.4909 H   0  0  0  0  0  0
  -29.6467  -13.4691   17.7369 H   0  0  0  0  0  0
  -27.8737  -11.2869   18.8796 H   0  0  0  0  0  0
  -27.3771  -12.5570   17.7947 H   0  0  0  0  0  0
  -27.6602  -14.2492   19.5042 H   0  0  0  0  0  0
  -28.7105  -12.0815   21.3911 H   0  0  0  0  0  0
  -28.4361  -13.7437   21.8311 H   0  0  0  0  0  0
  -25.2759   -9.5687   22.4752 H   0  0  0  0  0  0
  -24.0001   -7.4635   22.7472 H   0  0  0  0  0  0
  -21.0839   -8.8763   19.8950 H   0  0  0  0  0  0
  -22.3686  -10.9666   19.6160 H   0  0  0  0  0  0
  -21.1998   -7.6145   23.9710 H   0  0  0  0  0  0
  -21.1478   -6.0522   25.9076 H   0  0  0  0  0  0
  -22.0601   -2.7605   23.2846 H   0  0  0  0  0  0
  -22.4095  -11.9878   22.4791 H   0  0  0  0  0  0
  -21.1102  -13.1249   22.2616 H   0  0  0  0  0  0
  -24.6515  -15.8374   20.5077 H   0  0  0  0  0  0
  -26.2590  -15.6255   20.0359 H   0  0  0  0  0  0
  -26.7171  -32.5443   23.1087 H   0  0  0  0  0  0
  -25.0091  -33.9721   25.0434 H   0  0  0  0  0  0
  -22.7152  -31.3022   21.3994 H   0  0  0  0  0  0
  -23.3758  -35.9594   23.3303 H   0  0  0  0  0  0
  -24.3576  -36.8894   22.2056 H   0  0  0  0  0  0
  -23.7219  -37.6471   23.6661 H   0  0  0  0  0  0
  -26.0923  -31.5493   20.6026 H   0  0  0  0  0  0
  -26.8420  -30.8388   22.0010 H   0  0  0  0  0  0
  -28.1185  -28.9842   21.1879 H   0  0  0  0  0  0
  -26.0027  -25.9236   18.9998 H   0  0  0  0  0  0
  -23.9765  -27.3011   19.0094 H   0  0  0  0  0  0
  -23.7567  -30.5883   19.4028 H   0  0  0  0  0  0
  -22.7562  -29.2427   19.8583 H   0  0  0  0  0  0
  -25.1294  -36.1923   25.0825 H   0  0  0  0  0  0
  -20.9987  -28.3252   24.1404 H   0  0  0  0  0  0
  -20.5664  -26.2291   23.3613 H   0  0  0  0  0  0
  -21.6640  -26.7427   22.1208 H   0  0  0  0  0  0
  -19.6911  -25.6295   21.1238 H   0  0  0  0  0  0
  -19.6695  -27.3198   20.6746 H   0  0  0  0  0  0
  -17.4203  -26.6686   21.4020 H   0  0  0  0  0  0
  -18.0326  -26.0067   22.9014 H   0  0  0  0  0  0
  -19.7943  -30.7274   24.2250 H   0  0  0  0  0  0
  -17.5026  -31.6267   24.5170 H   0  0  0  0  0  0
  -15.5358  -30.2990   23.7664 H   0  0  0  0  0  0
  -15.8676  -28.0829   22.7066 H   0  0  0  0  0  0
  -24.5918  -30.7058   25.7775 H   0  0  0  0  0  0
  -24.8909  -32.2892   26.4843 H   0  0  0  0  0  0
  -25.8063  -30.8928   27.0225 H   0  0  0  0  0  0
  -26.2910  -29.6761   24.1195 H   0  0  0  0  0  0
  -27.4080  -29.7275   25.4641 H   0  0  0  0  0  0
  -27.8762  -30.4323   23.9351 H   0  0  0  0  0  0
  -27.2672  -33.3635   26.2039 H   0  0  0  0  0  0
  -28.3881  -32.6854   25.0321 H   0  0  0  0  0  0
  -28.0700  -31.8454   26.5423 H   0  0  0  0  0  0
  -28.2593  -38.0090   24.7523 H   0  0  0  0  0  0
  -28.1073  -36.2621   24.6288 H   0  0  0  0  0  0
  -27.2297  -37.1426   25.8874 H   0  0  0  0  0  0
  -20.9359  -29.8768   21.6897 H   0  0  0  0  0  0
  -26.0166  -38.2846   24.1434 H   0  0  0  0  0  0
  -27.9167  -17.5760   21.3051 H   0  0  0  0  0  0
  -32.0356  -19.5470   19.5947 H   0  0  0  0  0  0
  -27.7144  -20.5473   22.1987 H   0  0  0  0  0  0
  -26.7709  -19.8438   20.9091 H   0  0  0  0  0  0
  -26.8831  -22.3283   20.6834 H   0  0  0  0  0  0
  -27.5717  -21.5329   19.2892 H   0  0  0  0  0  0
  -30.3700  -21.7850   19.0898 H   0  0  0  0  0  0
  -31.3565  -21.8882   21.9903 H   0  0  0  0  0  0
  -31.6165  -23.1738   20.8211 H   0  0  0  0  0  0
  -32.3481  -21.6160   20.5661 H   0  0  0  0  0  0
  -30.0015  -24.2472   19.8087 H   0  0  0  0  0  0
  -28.6328  -23.7978   18.8580 H   0  0  0  0  0  0
  -28.4475  -25.0680   21.6577 H   0  0  0  0  0  0
  -27.1048  -24.7826   20.6165 H   0  0  0  0  0  0
  -28.8904  -15.4518   21.0955 H   0  0  0  0  0  0
  -29.0852  -22.6326   21.5226 H   0  0  0  0  0  0
  1 25  1  0  0  0
  1 30  2  0  0  0
  1 83  1  0  0  0
  2  3  1  0  0  0
  2 25  1  0  0  0
  2 85  1  0  0  0
  2 86  1  0  0  0
  3  4  1  0  0  0
  3 87  1  0  0  0
  3 88  1  0  0  0
  4  5  1  0  0  0
  4 89  1  0  0  0
  4 90  1  0  0  0
  5  6  1  0  0  0
  5 26  1  0  0  0
  5 91  1  0  0  0
  6 25  1  0  0  0
  6 92  1  0  0  0
  6 93  1  0  0  0
  7  8  2  0  0  0
  7 26  1  0  0  0
  7 29  1  0  0  0
  8  9  1  0  0  0
  8 22  1  0  0  0
  9 10  1  0  0  0
  9 27  2  0  0  0
 10 11  2  0  0  0
 10 15  1  0  0  0
 11 12  1  0  0  0
 11 94  1  0  0  0
 12 13  2  0  0  0
 12 95  1  0  0  0
 13 14  1  0  0  0
 13 31  1  0  0  0
 14 15  2  0  0  0
 14 96  1  0  0  0
 15 97  1  0  0  0
 16 17  2  0  0  0
 16 21  1  0  0  0
 16 31  1  0  0  0
 17 18  1  0  0  0
 17 98  1  0  0  0
 18 19  2  0  0  0
 18 99  1  0  0  0
 19 20  1  0  0  0
 19 24  1  0  0  0
 20 21  2  0  0  0
 20100  1  0  0  0
 21 23  1  0  0  0
 22 28  1  0  0  0
 22 32  2  0  0  0
 26 27  1  0  0  0
 28101  1  0  0  0
 28102  1  0  0  0
 29103  1  0  0  0
 29104  1  0  0  0
 33 34  1  0  0  0
 33 66  1  0  0  0
 33 70  2  0  0  0
 34 36  1  0  0  0
 34 59  1  0  0  0
 34105  1  0  0  0
 35 44  2  0  0  0
 35 45  1  0  0  0
 35 68  1  0  0  0
 36 56  1  0  0  0
 36106  1  0  0  0
 37 39  1  0  0  0
 37 47  1  0  0  0
 37 66  1  0  0  0
 37107  1  0  0  0
 38 43  2  0  0  0
 38 46  1  0  0  0
 38 47  1  0  0  0
 39 64  1  0  0  0
 39 67  2  0  0  0
 40 52  1  0  0  0
 40 53  2  0  0  0
 40 58  1  0  0  0
 41108  1  0  0  0
 41109  1  0  0  0
 41110  1  0  0  0
 41 48  1  0  0  0
 42 43  1  0  0  0
 42 66  1  0  0  0
 42111  1  0  0  0
 42112  1  0  0  0
 43 44  1  0  0  0
 44113  1  0  0  0
 45 46  2  0  0  0
 45114  1  0  0  0
 46115  1  0  0  0
 47116  1  0  0  0
 47117  1  0  0  0
 48 56  1  0  0  0
 48 65  1  0  0  0
 48118  1  0  0  0
 49 50  1  0  0  0
 49 53  1  0  0  0
 49 64  1  0  0  0
 49119  1  0  0  0
 50 51  1  0  0  0
 50120  1  0  0  0
 50121  1  0  0  0
 51 52  1  0  0  0
 51122  1  0  0  0
 51123  1  0  0  0
 52124  1  0  0  0
 52125  1  0  0  0
 53 54  1  0  0  0
 54 55  2  0  0  0
 54126  1  0  0  0
 55 57  1  0  0  0
 55127  1  0  0  0
 56 69  2  0  0  0
 57 58  2  0  0  0
 57128  1  0  0  0
 58129  1  0  0  0
 59 60  1  0  0  0
 59 61  1  0  0  0
 59 62  1  0  0  0
 60130  1  0  0  0
 60131  1  0  0  0
 60132  1  0  0  0
 61133  1  0  0  0
 61134  1  0  0  0
 61135  1  0  0  0
 62136  1  0  0  0
 62137  1  0  0  0
 62138  1  0  0  0
 63 65  1  0  0  0
 63139  1  0  0  0
 63140  1  0  0  0
 63141  1  0  0  0
 64142  1  0  0  0
 65143  1  0  0  0
 68 81  1  0  0  0
 71 73  2  0  0  0
 71 75  1  0  0  0
 71144  1  0  0  0
 72 74  2  0  0  0
 72 82  1  0  0  0
 72145  1  0  0  0
 73 74  1  0  0  0
 73 76  1  0  0  0
 74 78  1  0  0  0
 75 82  2  0  0  0
 75 83  1  0  0  0
 76 77  1  0  0  0
 76146  1  0  0  0
 76147  1  0  0  0
 77 84  1  0  0  0
 77148  1  0  0  0
 77149  1  0  0  0
 78 79  1  0  0  0
 78 84  1  0  0  0
 78150  1  0  0  0
 79151  1  0  0  0
 79152  1  0  0  0
 79153  1  0  0  0
 80 81  1  0  0  0
 80154  1  0  0  0
 80155  1  0  0  0
 80 84  1  0  0  0
 81156  1  0  0  0
 81157  1  0  0  0
 83158  1  0  0  0
 84159  1  0  0  0
M  CHG  1  84   1
M  ISO  4   1 100  68 101  81 101  83 100
M  END
> <chiral flag>
0

> <version>
0

> <s_m_source_file>
/data/baiqing/PycharmProjects/Reinvent-master-3.2/result/LINK_invent/BTK/process_docking_weight1_custom_sum_contain_oxygen_bond_distance_aromatic_linkinvent_7_9_3/rearranged_h_0019.sdf

> <i_m_source_file_index>
16

> <r_mmod_Potential_Energy-OPLS-2005>
-149.87532043457

> <r_mmod_Stretch_Energy-OPLS-2005>
88.9935989379883

> <r_mmod_Bend_Energy-OPLS-2005>
139.232818603516

> <r_mmod_Torsional_Energy-OPLS-2005>
239.828109741211

> <r_mmod_Improper_Torsional_Energy-OPLS-2005>
4.13750553131104

> <r_mmod_Van_der_Waal_Energy-OPLS-2005>
146.997009277344

> <r_mmod_Electrostatic_Energy-OPLS-2005>
-349.737976074219

> <r_mmod_Solvation_Energy-OPLS-2005>
-473.412628173828

> <b_mmod_Minimization_Converged-OPLS-2005>
0

> <r_mmod_RMS_Derivative-OPLS-2005>
0.589701175689697

$$$$
16
                    3D
 Structure written by MMmdl.
150158  0  0  1  0            999 V2000
  -30.1827  -15.9010   20.3170 C   0  0  0  0  0  0
  -30.3996  -13.2881   19.5164 C   0  0  0  0  0  0
  -29.5524  -12.7144   18.3358 C   0  0  0  0  0  0
  -28.1549  -12.2839   18.8033 C   0  0  0  0  0  0
  -27.5820  -13.3082   19.8005 C   0  0  2  0  0  0
  -28.5816  -13.7750   20.8915 C   0  0  0  0  0  0
  -25.2272  -13.8206   20.5793 C   0  0  0  0  0  0
  -24.1683  -13.0371   20.9308 C   0  0  0  0  0  0
  -24.6406  -11.6896   20.8784 C   0  0  0  0  0  0
  -23.9107  -10.4254   21.0405 C   0  0  0  0  0  0
  -24.3641   -9.4167   21.9186 C   0  0  0  0  0  0
  -23.6296   -8.2217   22.0760 C   0  0  0  0  0  0
  -22.4282   -8.0265   21.3548 C   0  0  0  0  0  0
  -21.9929   -9.0243   20.4644 C   0  0  0  0  0  0
  -22.7276  -10.2114   20.3047 C   0  0  0  0  0  0
  -21.6845   -6.0717   22.5279 C   0  0  0  0  0  0
  -21.4004   -6.5621   23.8211 C   0  0  0  0  0  0
  -21.3669   -5.6775   24.9176 C   0  0  0  0  0  0
  -21.6059   -4.3040   24.7228 C   0  0  0  0  0  0
  -21.8816   -3.8126   23.4347 C   0  0  0  0  0  0
  -21.9191   -4.6943   22.3404 C   0  0  0  0  0  0
  -22.7705  -13.5136   21.1920 C   0  0  0  0  0  0
  -22.1653   -4.2123   21.0981 F   0  0  0  0  0  0
  -21.5654   -3.4530   25.7743 F   0  0  0  0  0  0
  -29.7004  -14.4868   20.2055 N   0  0  0  0  0  0
  -26.2730  -12.9556   20.3251 N   0  0  0  0  0  0
  -25.9357  -11.6627   20.5719 N   0  0  0  0  0  0
  -22.0363  -12.8125   22.0471 N   0  0  0  0  0  0
  -25.3758  -15.1938   20.4200 N   0  0  0  0  0  0
  -31.4321  -15.7902   20.2995 O   0  0  0  0  0  0
  -21.6644   -6.8862   21.4240 O   0  0  0  0  0  0
  -22.3397  -14.5442   20.6750 O   0  0  0  0  0  0
  -24.7022  -31.7804   23.1354 C   0  0  0  0  0  0
  -25.9523  -32.4371   23.7966 C   0  0  1  0  0  0
  -27.2262  -26.5271   20.2537 C   0  0  0  0  0  0
  -25.6043  -33.8202   24.1859 N   0  0  0  0  0  0
  -23.5343  -30.3741   21.4947 C   0  0  2  0  0  0
  -24.9866  -28.6713   20.1336 C   0  0  0  0  0  0
  -22.7860  -29.4218   22.4687 C   0  0  0  0  0  0
  -18.0357  -28.1423   22.8451 C   0  0  0  0  0  0
  -24.1489  -36.7107   23.2653 C   0  0  0  0  0  0
  -26.1206  -30.4583   21.4192 C   0  0  0  0  0  0
  -26.1804  -28.9996   20.7849 C   0  0  0  0  0  0
  -27.2803  -27.9653   20.7984 C   0  0  0  0  0  0
  -25.9928  -26.4478   19.5437 C   0  0  0  0  0  0
  -24.9409  -27.4232   19.4862 C   0  0  0  0  0  0
  -23.7945  -29.6503   20.1401 C   0  0  0  0  0  0
  -25.4136  -36.2834   24.0285 C   0  0  1  0  0  0
  -20.6003  -28.3794   23.1127 C   0  0  2  0  0  0
  -20.6812  -26.9442   22.5402 C   0  0  0  0  0  0
  -19.5776  -26.6367   21.5225 C   0  0  0  0  0  0
  -18.1965  -26.7958   22.1617 C   0  0  0  0  0  0
  -19.1630  -28.8934   23.2767 C   0  0  0  0  0  0
  -18.9521  -30.1516   23.8815 C   0  0  0  0  0  0
  -17.6505  -30.6597   24.0543 C   0  0  0  0  0  0
  -25.9140  -34.9238   23.4912 C   0  0  0  0  0  0
  -16.5396  -29.9075   23.6342 C   0  0  0  0  0  0
  -16.7339  -28.6495   23.0371 C   0  0  0  0  0  0
  -26.4634  -31.6465   25.0652 C   0  0  0  0  0  0
  -25.3660  -31.3811   26.1243 C   0  0  0  0  0  0
  -27.0576  -30.2795   24.6621 C   0  0  0  0  0  0
  -27.6082  -32.4331   25.7466 C   0  0  0  0  0  0
  -27.5553  -37.1702   24.8466 C   0  0  0  0  0  0
  -21.4491  -29.3027   22.3450 N   0  0  0  0  0  0
  -26.4235  -37.3623   23.9442 N   0  0  0  0  0  0
  -24.8114  -30.9093   22.0687 N   0  0  0  0  0  0
  -23.4230  -28.7844   23.3100 O   0  0  0  0  0  0
  -28.2152  -25.2710   20.2354 O   0  0  0  0  0  0
  -26.5767  -34.8861   22.4522 O   0  0  0  0  0  0
  -23.6005  -32.0949   23.6213 O   0  0  0  0  0  0
  -27.9060  -20.2436   20.6938 C   0  0  0  0  0  0
  -29.9581  -20.6317   19.9104 C   0  0  0  0  0  0
  -27.5518  -21.9335   20.1569 C   0  0  0  0  0  0
  -29.7253  -22.3660   20.3711 C   0  0  0  0  0  0
  -29.2994  -19.1810   20.5772 C   0  0  2  0  0  0
  -28.3441  -23.4350   20.4931 C   0  0  1  0  0  0
  -28.0292  -17.1269   19.8005 C   0  0  0  0  0  0
  -29.3935  -17.3304   20.2716 N   0  0  0  0  0  0
  -31.3602  -13.6085   19.1104 H   0  0  0  0  0  0
  -30.6443  -12.5018   20.2335 H   0  0  0  0  0  0
  -30.0673  -11.8743   17.8665 H   0  0  0  0  0  0
  -29.4522  -13.4787   17.5651 H   0  0  0  0  0  0
  -28.2414  -11.3147   19.2937 H   0  0  0  0  0  0
  -27.4836  -12.1416   17.9541 H   0  0  0  0  0  0
  -27.3899  -14.1643   19.1599 H   0  0  0  0  0  0
  -28.9152  -12.9509   21.5231 H   0  0  0  0  0  0
  -28.0907  -14.4853   21.5580 H   0  0  0  0  0  0
  -25.2774   -9.5640   22.4776 H   0  0  0  0  0  0
  -23.9987   -7.4607   22.7489 H   0  0  0  0  0  0
  -21.0858   -8.8766   19.8954 H   0  0  0  0  0  0
  -22.3724  -10.9655   19.6163 H   0  0  0  0  0  0
  -21.1969   -7.6124   23.9705 H   0  0  0  0  0  0
  -21.1512   -6.0507   25.9082 H   0  0  0  0  0  0
  -22.0586   -2.7583   23.2859 H   0  0  0  0  0  0
  -22.4003  -11.9783   22.4828 H   0  0  0  0  0  0
  -21.0991  -13.1149   22.2709 H   0  0  0  0  0  0
  -24.5920  -15.8277   20.5288 H   0  0  0  0  0  0
  -26.2164  -15.6478   20.0931 H   0  0  0  0  0  0
  -26.7628  -32.4787   23.0688 H   0  0  0  0  0  0
  -25.0176  -33.9191   25.0016 H   0  0  0  0  0  0
  -22.8691  -31.2151   21.2879 H   0  0  0  0  0  0
  -23.3781  -35.9399   23.3204 H   0  0  0  0  0  0
  -24.3589  -36.8871   22.2089 H   0  0  0  0  0  0
  -23.7193  -37.6234   23.6798 H   0  0  0  0  0  0
  -26.3316  -31.1610   20.6117 H   0  0  0  0  0  0
  -26.9723  -30.5427   22.0820 H   0  0  0  0  0  0
  -28.1866  -28.2421   21.3173 H   0  0  0  0  0  0
  -25.8022  -25.5173   19.0296 H   0  0  0  0  0  0
  -24.0464  -27.1596   18.9380 H   0  0  0  0  0  0
  -23.9907  -30.3967   19.3699 H   0  0  0  0  0  0
  -22.8947  -29.1273   19.8101 H   0  0  0  0  0  0
  -25.1337  -36.1552   25.0769 H   0  0  0  0  0  0
  -21.0075  -28.3398   24.1261 H   0  0  0  0  0  0
  -20.5664  -26.2417   23.3675 H   0  0  0  0  0  0
  -21.6667  -26.7362   22.1216 H   0  0  0  0  0  0
  -19.6930  -25.6260   21.1288 H   0  0  0  0  0  0
  -19.6709  -27.3145   20.6732 H   0  0  0  0  0  0
  -17.4242  -26.6729   21.4014 H   0  0  0  0  0  0
  -18.0334  -26.0113   22.9014 H   0  0  0  0  0  0
  -19.7996  -30.7356   24.2154 H   0  0  0  0  0  0
  -17.5049  -31.6272   24.5156 H   0  0  0  0  0  0
  -15.5389  -30.2937   23.7722 H   0  0  0  0  0  0
  -15.8750  -28.0776   22.7144 H   0  0  0  0  0  0
  -24.5903  -30.7108   25.7527 H   0  0  0  0  0  0
  -24.8786  -32.3029   26.4419 H   0  0  0  0  0  0
  -25.7808  -30.9124   27.0177 H   0  0  0  0  0  0
  -26.3318  -29.6394   24.1603 H   0  0  0  0  0  0
  -27.3968  -29.7264   25.5387 H   0  0  0  0  0  0
  -27.9296  -30.3914   24.0184 H   0  0  0  0  0  0
  -27.2672  -33.3765   26.1737 H   0  0  0  0  0  0
  -28.4044  -32.6660   25.0384 H   0  0  0  0  0  0
  -28.0580  -31.8642   26.5610 H   0  0  0  0  0  0
  -28.2487  -38.0077   24.7575 H   0  0  0  0  0  0
  -28.1122  -36.2603   24.6177 H   0  0  0  0  0  0
  -27.2306  -37.1201   25.8876 H   0  0  0  0  0  0
  -20.9854  -29.8652   21.6459 H   0  0  0  0  0  0
  -26.0032  -38.2647   24.1494 H   0  0  0  0  0  0
  -27.0764  -19.6743   20.2770 H   0  0  0  0  0  0
  -27.6711  -20.2514   21.7589 H   0  0  0  0  0  0
  -31.0377  -20.4793   19.9458 H   0  0  0  0  0  0
  -29.7268  -20.5877   18.8450 H   0  0  0  0  0  0
  -26.5200  -22.1016   20.4698 H   0  0  0  0  0  0
  -27.4753  -21.8788   19.0700 H   0  0  0  0  0  0
  -30.4018  -22.9038   19.7071 H   0  0  0  0  0  0
  -30.2124  -22.4552   21.3428 H   0  0  0  0  0  0
  -29.7215  -19.1761   21.5827 H   0  0  0  0  0  0
  -28.1680  -23.4923   21.5679 H   0  0  0  0  0  0
  -27.3399  -17.1664   20.6438 H   0  0  0  0  0  0
  -27.8867  -16.1965   19.2642 H   0  0  0  0  0  0
  -27.7505  -17.9031   19.0877 H   0  0  0  0  0  0
  1 25  1  0  0  0
  1 30  2  0  0  0
  1 78  1  0  0  0
  2  3  1  0  0  0
  2 25  1  0  0  0
  2 79  1  0  0  0
  2 80  1  0  0  0
  3  4  1  0  0  0
  3 81  1  0  0  0
  3 82  1  0  0  0
  4  5  1  0  0  0
  4 83  1  0  0  0
  4 84  1  0  0  0
  5  6  1  0  0  0
  5 26  1  0  0  0
  5 85  1  0  0  0
  6 25  1  0  0  0
  6 86  1  0  0  0
  6 87  1  0  0  0
  7  8  2  0  0  0
  7 26  1  0  0  0
  7 29  1  0  0  0
  8  9  1  0  0  0
  8 22  1  0  0  0
  9 10  1  0  0  0
  9 27  2  0  0  0
 10 11  2  0  0  0
 10 15  1  0  0  0
 11 12  1  0  0  0
 11 88  1  0  0  0
 12 13  2  0  0  0
 12 89  1  0  0  0
 13 14  1  0  0  0
 13 31  1  0  0  0
 14 15  2  0  0  0
 14 90  1  0  0  0
 15 91  1  0  0  0
 16 17  2  0  0  0
 16 21  1  0  0  0
 16 31  1  0  0  0
 17 18  1  0  0  0
 17 92  1  0  0  0
 18 19  2  0  0  0
 18 93  1  0  0  0
 19 20  1  0  0  0
 19 24  1  0  0  0
 20 21  2  0  0  0
 20 94  1  0  0  0
 21 23  1  0  0  0
 22 28  1  0  0  0
 22 32  2  0  0  0
 26 27  1  0  0  0
 28 95  1  0  0  0
 28 96  1  0  0  0
 29 97  1  0  0  0
 29 98  1  0  0  0
 33 34  1  0  0  0
 33 66  1  0  0  0
 33 70  2  0  0  0
 34 36  1  0  0  0
 34 59  1  0  0  0
 34 99  1  0  0  0
 35 44  2  0  0  0
 35 45  1  0  0  0
 35 68  1  0  0  0
 36 56  1  0  0  0
 36100  1  0  0  0
 37 39  1  0  0  0
 37 47  1  0  0  0
 37 66  1  0  0  0
 37101  1  0  0  0
 38 43  2  0  0  0
 38 46  1  0  0  0
 38 47  1  0  0  0
 39 64  1  0  0  0
 39 67  2  0  0  0
 40 52  1  0  0  0
 40 53  2  0  0  0
 40 58  1  0  0  0
 41102  1  0  0  0
 41103  1  0  0  0
 41104  1  0  0  0
 41 48  1  0  0  0
 42 43  1  0  0  0
 42 66  1  0  0  0
 42105  1  0  0  0
 42106  1  0  0  0
 43 44  1  0  0  0
 44107  1  0  0  0
 45 46  2  0  0  0
 45108  1  0  0  0
 46109  1  0  0  0
 47110  1  0  0  0
 47111  1  0  0  0
 48 56  1  0  0  0
 48 65  1  0  0  0
 48112  1  0  0  0
 49 50  1  0  0  0
 49 53  1  0  0  0
 49 64  1  0  0  0
 49113  1  0  0  0
 50 51  1  0  0  0
 50114  1  0  0  0
 50115  1  0  0  0
 51 52  1  0  0  0
 51116  1  0  0  0
 51117  1  0  0  0
 52118  1  0  0  0
 52119  1  0  0  0
 53 54  1  0  0  0
 54 55  2  0  0  0
 54120  1  0  0  0
 55 57  1  0  0  0
 55121  1  0  0  0
 56 69  2  0  0  0
 57 58  2  0  0  0
 57122  1  0  0  0
 58123  1  0  0  0
 59 60  1  0  0  0
 59 61  1  0  0  0
 59 62  1  0  0  0
 60124  1  0  0  0
 60125  1  0  0  0
 60126  1  0  0  0
 61127  1  0  0  0
 61128  1  0  0  0
 61129  1  0  0  0
 62130  1  0  0  0
 62131  1  0  0  0
 62132  1  0  0  0
 63 65  1  0  0  0
 63133  1  0  0  0
 63134  1  0  0  0
 63135  1  0  0  0
 64136  1  0  0  0
 65137  1  0  0  0
 68 76  1  0  0  0
 71 73  1  0  0  0
 71 75  1  0  0  0
 71138  1  0  0  0
 71139  1  0  0  0
 72 74  1  0  0  0
 72 75  1  0  0  0
 72140  1  0  0  0
 72141  1  0  0  0
 73 76  1  0  0  0
 73142  1  0  0  0
 73143  1  0  0  0
 74 76  1  0  0  0
 74144  1  0  0  0
 74145  1  0  0  0
 75 78  1  0  0  0
 75146  1  0  0  0
 76147  1  0  0  0
 77 78  1  0  0  0
 77148  1  0  0  0
 77149  1  0  0  0
 77150  1  0  0  0
M  ISO  4   1 100  68 101  76 101  78 100
M  END
> <chiral flag>
0

> <version>
0

> <s_m_source_file>
/data/baiqing/PycharmProjects/Reinvent-master-3.2/result/LINK_invent/BTK/process_docking_weight1_custom_sum_contain_oxygen_bond_distance_aromatic_linkinvent_7_9_3/rearranged_h_0019.sdf

> <i_m_source_file_index>
17

> <r_mmod_Potential_Energy-OPLS-2005>
3691.34765625

> <r_mmod_Stretch_Energy-OPLS-2005>
1381.32385253906

> <r_mmod_Bend_Energy-OPLS-2005>
1020.80969238281

> <r_mmod_Torsional_Energy-OPLS-2005>
330.405883789062

> <r_mmod_Improper_Torsional_Energy-OPLS-2005>
4.35735273361206

> <r_mmod_Van_der_Waal_Energy-OPLS-2005>
125.297576904297

> <r_mmod_Electrostatic_Energy-OPLS-2005>
-281.475738525391

> <r_mmod_Solvation_Energy-OPLS-2005>
-209.227767944336

> <b_mmod_Minimization_Converged-OPLS-2005>
0

> <r_mmod_RMS_Derivative-OPLS-2005>
2.33965992927551

$$$$
17
                    3D
 Structure written by MMmdl.
159167  0  0  1  0            999 V2000
  -30.3154  -15.6347   20.3353 C   0  0  0  0  0  0
  -30.4284  -13.0832   19.5244 C   0  0  0  0  0  0
  -29.5515  -12.6635   18.3107 C   0  0  0  0  0  0
  -28.1206  -12.3133   18.7478 C   0  0  0  0  0  0
  -27.5967  -13.3121   19.8048 C   0  0  2  0  0  0
  -28.6190  -13.6462   20.9171 C   0  0  0  0  0  0
  -25.2340  -13.8295   20.5778 C   0  0  0  0  0  0
  -24.1732  -13.0438   20.9274 C   0  0  0  0  0  0
  -24.6441  -11.6949   20.8746 C   0  0  0  0  0  0
  -23.9129  -10.4301   21.0381 C   0  0  0  0  0  0
  -24.3664   -9.4218   21.9167 C   0  0  0  0  0  0
  -23.6322   -8.2260   22.0742 C   0  0  0  0  0  0
  -22.4303   -8.0290   21.3537 C   0  0  0  0  0  0
  -21.9950   -9.0263   20.4637 C   0  0  0  0  0  0
  -22.7291  -10.2136   20.3041 C   0  0  0  0  0  0
  -21.6873   -6.0741   22.5276 C   0  0  0  0  0  0
  -21.4025   -6.5639   23.8211 C   0  0  0  0  0  0
  -21.3673   -5.6790   24.9172 C   0  0  0  0  0  0
  -21.6050   -4.3049   24.7214 C   0  0  0  0  0  0
  -21.8823   -3.8146   23.4333 C   0  0  0  0  0  0
  -21.9196   -4.6967   22.3394 C   0  0  0  0  0  0
  -22.7748  -13.5153   21.1917 C   0  0  0  0  0  0
  -22.1659   -4.2157   21.0969 F   0  0  0  0  0  0
  -21.5637   -3.4528   25.7723 F   0  0  0  0  0  0
  -29.7892  -14.2696   20.2533 N   0  0  0  0  0  0
  -26.2793  -12.9635   20.3201 N   0  0  0  0  0  0
  -25.9386  -11.6702   20.5664 N   0  0  0  0  0  0
  -22.0404  -12.8134   22.0465 N   0  0  0  0  0  0
  -25.3925  -15.2038   20.4217 N   0  0  0  0  0  0
  -31.5554  -15.5671   20.2397 O   0  0  0  0  0  0
  -21.6659   -6.8889   21.4238 O   0  0  0  0  0  0
  -22.3408  -14.5442   20.6740 O   0  0  0  0  0  0
  -24.6889  -31.7996   23.1514 C   0  0  0  0  0  0
  -25.9458  -32.4461   23.8065 C   0  0  1  0  0  0
  -27.2197  -26.6763   20.1925 C   0  0  0  0  0  0
  -25.6029  -33.8286   24.1950 N   0  0  0  0  0  0
  -23.5138  -30.4057   21.5086 C   0  0  2  0  0  0
  -24.9672  -28.7531   20.1192 C   0  0  0  0  0  0
  -22.7786  -29.4332   22.4715 C   0  0  0  0  0  0
  -18.0346  -28.1421   22.8439 C   0  0  0  0  0  0
  -24.1506  -36.7151   23.2651 C   0  0  0  0  0  0
  -26.0996  -30.5258   21.4180 C   0  0  0  0  0  0
  -26.1641  -29.0918   20.7599 C   0  0  0  0  0  0
  -27.2751  -28.0865   20.7576 C   0  0  0  0  0  0
  -25.9679  -26.5586   19.5244 C   0  0  0  0  0  0
  -24.9096  -27.5095   19.4802 C   0  0  0  0  0  0
  -23.7669  -29.7104   20.1435 C   0  0  0  0  0  0
  -25.4157  -36.2891   24.0275 C   0  0  1  0  0  0
  -20.5986  -28.3794   23.1124 C   0  0  2  0  0  0
  -20.6814  -26.9447   22.5397 C   0  0  0  0  0  0
  -19.5796  -26.6365   21.5209 C   0  0  0  0  0  0
  -18.1978  -26.7943   22.1607 C   0  0  0  0  0  0
  -19.1611  -28.8928   23.2764 C   0  0  0  0  0  0
  -18.9513  -30.1502   23.8821 C   0  0  0  0  0  0
  -17.6502  -30.6597   24.0552 C   0  0  0  0  0  0
  -25.9139  -34.9280   23.4946 C   0  0  0  0  0  0
  -16.5389  -29.9075   23.6355 C   0  0  0  0  0  0
  -16.7325  -28.6501   23.0364 C   0  0  0  0  0  0
  -26.4619  -31.6480   25.0681 C   0  0  0  0  0  0
  -25.3674  -31.3809   26.1282 C   0  0  0  0  0  0
  -27.0542  -30.2811   24.6586 C   0  0  0  0  0  0
  -27.6060  -32.4334   25.7525 C   0  0  0  0  0  0
  -27.5569  -37.1738   24.8461 C   0  0  0  0  0  0
  -21.4434  -29.3043   22.3448 N   0  0  0  0  0  0
  -26.4284  -37.3643   23.9392 N   0  0  0  0  0  0
  -24.7917  -30.9426   22.0785 N   0  0  0  0  0  0
  -23.4212  -28.7920   23.3065 O   0  0  0  0  0  0
  -28.1875  -25.4384   20.2510 O   0  0  0  0  0  0
  -26.5773  -34.8857   22.4559 O   0  0  0  0  0  0
  -23.5904  -32.1082   23.6453 O   0  0  0  0  0  0
  -28.3941  -20.1454   20.3893 C   0  0  0  0  0  0
  -30.6345  -19.8153   19.9440 C   0  0  0  0  0  0
  -28.8477  -21.8746   20.0964 C   0  0  2  0  0  0
  -29.5737  -18.7826   20.5424 C   0  0  2  0  0  0
  -30.3719  -21.4313   20.2903 C   0  0  0  0  0  0
  -30.7851  -21.6954   21.7500 C   0  0  0  0  0  0
  -31.2662  -22.2878   19.3732 C   0  0  0  0  0  0
  -27.6350  -23.6910   18.5596 C   0  0  0  0  0  0
  -26.7663  -23.4667   20.9566 C   0  0  0  0  0  0
  -27.9990  -23.6735   20.0640 C   0  0  0  0  0  0
  -29.5474  -16.9975   20.3347 N   0  0  0  0  0  0
  -31.4221  -13.3469   19.1607 H   0  0  0  0  0  0
  -30.5851  -12.2371   20.1972 H   0  0  0  0  0  0
  -30.0029  -11.8242   17.7799 H   0  0  0  0  0  0
  -29.5175  -13.4904   17.5998 H   0  0  0  0  0  0
  -28.1306  -11.3056   19.1638 H   0  0  0  0  0  0
  -27.4547  -12.2834   17.8842 H   0  0  0  0  0  0
  -27.4548  -14.2370   19.2432 H   0  0  0  0  0  0
  -28.8832  -12.7665   21.5063 H   0  0  0  0  0  0
  -28.1892  -14.3672   21.6137 H   0  0  0  0  0  0
  -25.2807   -9.5692   22.4746 H   0  0  0  0  0  0
  -24.0032   -7.4654   22.7465 H   0  0  0  0  0  0
  -21.0885   -8.8782   19.8940 H   0  0  0  0  0  0
  -22.3747  -10.9668   19.6146 H   0  0  0  0  0  0
  -21.2020   -7.6149   23.9711 H   0  0  0  0  0  0
  -21.1497   -6.0520   25.9078 H   0  0  0  0  0  0
  -22.0589   -2.7605   23.2827 H   0  0  0  0  0  0
  -22.4035  -11.9821   22.4902 H   0  0  0  0  0  0
  -21.0999  -13.1122   22.2619 H   0  0  0  0  0  0
  -24.6216  -15.8520   20.5386 H   0  0  0  0  0  0
  -26.2341  -15.6468   20.0775 H   0  0  0  0  0  0
  -26.7539  -32.4920   23.0777 H   0  0  0  0  0  0
  -25.0072  -33.9317   25.0038 H   0  0  0  0  0  0
  -22.8404  -31.2451   21.3205 H   0  0  0  0  0  0
  -23.3778  -35.9471   23.3271 H   0  0  0  0  0  0
  -24.3575  -36.8860   22.2074 H   0  0  0  0  0  0
  -23.7262  -37.6314   23.6759 H   0  0  0  0  0  0
  -26.3053  -31.2543   20.6327 H   0  0  0  0  0  0
  -26.9503  -30.5913   22.0843 H   0  0  0  0  0  0
  -28.1788  -28.3603   21.2821 H   0  0  0  0  0  0
  -25.7043  -25.6291   19.0554 H   0  0  0  0  0  0
  -23.9997  -27.2320   18.9659 H   0  0  0  0  0  0
  -23.9409  -30.4728   19.3834 H   0  0  0  0  0  0
  -22.8707  -29.1789   19.8183 H   0  0  0  0  0  0
  -25.1371  -36.1659   25.0765 H   0  0  0  0  0  0
  -21.0060  -28.3421   24.1255 H   0  0  0  0  0  0
  -20.5674  -26.2417   23.3662 H   0  0  0  0  0  0
  -21.6675  -26.7386   22.1217 H   0  0  0  0  0  0
  -19.6961  -25.6257   21.1288 H   0  0  0  0  0  0
  -19.6749  -27.3133   20.6706 H   0  0  0  0  0  0
  -17.4244  -26.6677   21.4013 H   0  0  0  0  0  0
  -18.0376  -26.0109   22.9024 H   0  0  0  0  0  0
  -19.7989  -30.7339   24.2157 H   0  0  0  0  0  0
  -17.5052  -31.6272   24.5162 H   0  0  0  0  0  0
  -15.5388  -30.2951   23.7724 H   0  0  0  0  0  0
  -15.8724  -28.0794   22.7125 H   0  0  0  0  0  0
  -24.5897  -30.7120   25.7575 H   0  0  0  0  0  0
  -24.8821  -32.3031   26.4478 H   0  0  0  0  0  0
  -25.7832  -30.9119   27.0208 H   0  0  0  0  0  0
  -26.3252  -29.6425   24.1573 H   0  0  0  0  0  0
  -27.3956  -29.7253   25.5331 H   0  0  0  0  0  0
  -27.9249  -30.3919   24.0121 H   0  0  0  0  0  0
  -27.2587  -33.3704   26.1891 H   0  0  0  0  0  0
  -28.3989  -32.6772   25.0442 H   0  0  0  0  0  0
  -28.0592  -31.8595   26.5619 H   0  0  0  0  0  0
  -28.2540  -38.0071   24.7488 H   0  0  0  0  0  0
  -28.1105  -36.2580   24.6312 H   0  0  0  0  0  0
  -27.2271  -37.1402   25.8860 H   0  0  0  0  0  0
  -20.9733  -29.8714   21.6529 H   0  0  0  0  0  0
  -26.0111  -38.2697   24.1380 H   0  0  0  0  0  0
  -27.7063  -19.8730   19.5879 H   0  0  0  0  0  0
  -27.7744  -20.1255   21.2869 H   0  0  0  0  0  0
  -30.6210  -19.6965   18.8596 H   0  0  0  0  0  0
  -31.6421  -19.5267   20.2481 H   0  0  0  0  0  0
  -28.8322  -21.7463   19.0165 H   0  0  0  0  0  0
  -29.8016  -18.7970   21.6089 H   0  0  0  0  0  0
  -30.1751  -21.1257   22.4513 H   0  0  0  0  0  0
  -30.6799  -22.7496   22.0094 H   0  0  0  0  0  0
  -31.8249  -21.4163   21.9248 H   0  0  0  0  0  0
  -31.0345  -22.1254   18.3201 H   0  0  0  0  0  0
  -32.3234  -22.0551   19.5100 H   0  0  0  0  0  0
  -31.1336  -23.3528   19.5711 H   0  0  0  0  0  0
  -27.0006  -22.8452   18.2896 H   0  0  0  0  0  0
  -28.5444  -23.6270   17.9593 H   0  0  0  0  0  0
  -27.1510  -24.5846   18.1951 H   0  0  0  0  0  0
  -26.9937  -23.7315   21.9889 H   0  0  0  0  0  0
  -26.4373  -22.4281   20.9477 H   0  0  0  0  0  0
  -25.9144  -24.0678   20.6444 H   0  0  0  0  0  0
  -28.5751  -16.7318   20.2651 H   0  0  0  0  0  0
  1 25  1  0  0  0
  1 30  2  0  0  0
  1 81  1  0  0  0
  2  3  1  0  0  0
  2 25  1  0  0  0
  2 82  1  0  0  0
  2 83  1  0  0  0
  3  4  1  0  0  0
  3 84  1  0  0  0
  3 85  1  0  0  0
  4  5  1  0  0  0
  4 86  1  0  0  0
  4 87  1  0  0  0
  5  6  1  0  0  0
  5 26  1  0  0  0
  5 88  1  0  0  0
  6 25  1  0  0  0
  6 89  1  0  0  0
  6 90  1  0  0  0
  7  8  2  0  0  0
  7 26  1  0  0  0
  7 29  1  0  0  0
  8  9  1  0  0  0
  8 22  1  0  0  0
  9 10  1  0  0  0
  9 27  2  0  0  0
 10 11  2  0  0  0
 10 15  1  0  0  0
 11 12  1  0  0  0
 11 91  1  0  0  0
 12 13  2  0  0  0
 12 92  1  0  0  0
 13 14  1  0  0  0
 13 31  1  0  0  0
 14 15  2  0  0  0
 14 93  1  0  0  0
 15 94  1  0  0  0
 16 17  2  0  0  0
 16 21  1  0  0  0
 16 31  1  0  0  0
 17 18  1  0  0  0
 17 95  1  0  0  0
 18 19  2  0  0  0
 18 96  1  0  0  0
 19 20  1  0  0  0
 19 24  1  0  0  0
 20 21  2  0  0  0
 20 97  1  0  0  0
 21 23  1  0  0  0
 22 28  1  0  0  0
 22 32  2  0  0  0
 26 27  1  0  0  0
 28 98  1  0  0  0
 28 99  1  0  0  0
 29100  1  0  0  0
 29101  1  0  0  0
 33 34  1  0  0  0
 33 66  1  0  0  0
 33 70  2  0  0  0
 34 36  1  0  0  0
 34 59  1  0  0  0
 34102  1  0  0  0
 35 44  2  0  0  0
 35 45  1  0  0  0
 35 68  1  0  0  0
 36 56  1  0  0  0
 36103  1  0  0  0
 37 39  1  0  0  0
 37 47  1  0  0  0
 37 66  1  0  0  0
 37104  1  0  0  0
 38 43  2  0  0  0
 38 46  1  0  0  0
 38 47  1  0  0  0
 39 64  1  0  0  0
 39 67  2  0  0  0
 40 52  1  0  0  0
 40 53  2  0  0  0
 40 58  1  0  0  0
 41105  1  0  0  0
 41106  1  0  0  0
 41107  1  0  0  0
 41 48  1  0  0  0
 42 43  1  0  0  0
 42 66  1  0  0  0
 42108  1  0  0  0
 42109  1  0  0  0
 43 44  1  0  0  0
 44110  1  0  0  0
 45 46  2  0  0  0
 45111  1  0  0  0
 46112  1  0  0  0
 47113  1  0  0  0
 47114  1  0  0  0
 48 56  1  0  0  0
 48 65  1  0  0  0
 48115  1  0  0  0
 49 50  1  0  0  0
 49 53  1  0  0  0
 49 64  1  0  0  0
 49116  1  0  0  0
 50 51  1  0  0  0
 50117  1  0  0  0
 50118  1  0  0  0
 51 52  1  0  0  0
 51119  1  0  0  0
 51120  1  0  0  0
 52121  1  0  0  0
 52122  1  0  0  0
 53 54  1  0  0  0
 54 55  2  0  0  0
 54123  1  0  0  0
 55 57  1  0  0  0
 55124  1  0  0  0
 56 69  2  0  0  0
 57 58  2  0  0  0
 57125  1  0  0  0
 58126  1  0  0  0
 59 60  1  0  0  0
 59 61  1  0  0  0
 59 62  1  0  0  0
 60127  1  0  0  0
 60128  1  0  0  0
 60129  1  0  0  0
 61130  1  0  0  0
 61131  1  0  0  0
 61132  1  0  0  0
 62133  1  0  0  0
 62134  1  0  0  0
 62135  1  0  0  0
 63 65  1  0  0  0
 63136  1  0  0  0
 63137  1  0  0  0
 63138  1  0  0  0
 64139  1  0  0  0
 65140  1  0  0  0
 68 80  1  0  0  0
 71 74  1  0  0  0
 71141  1  0  0  0
 71142  1  0  0  0
 71 73  1  0  0  0
 72 74  1  0  0  0
 72 75  1  0  0  0
 72143  1  0  0  0
 72144  1  0  0  0
 73 75  1  0  0  0
 73 80  1  0  0  0
 73145  1  0  0  0
 74 81  1  0  0  0
 74146  1  0  0  0
 75 76  1  0  0  0
 75 77  1  0  0  0
 76147  1  0  0  0
 76148  1  0  0  0
 76149  1  0  0  0
 77150  1  0  0  0
 77151  1  0  0  0
 77152  1  0  0  0
 78153  1  0  0  0
 78154  1  0  0  0
 78155  1  0  0  0
 78 80  1  0  0  0
 79 80  1  0  0  0
 79156  1  0  0  0
 79157  1  0  0  0
 79158  1  0  0  0
 81159  1  0  0  0
M  ISO  4   1 100  68 101  80 101  81 100
M  END
> <chiral flag>
0

> <version>
0

> <s_m_source_file>
/data/baiqing/PycharmProjects/Reinvent-master-3.2/result/LINK_invent/BTK/process_docking_weight1_custom_sum_contain_oxygen_bond_distance_aromatic_linkinvent_7_9_3/rearranged_h_0019.sdf

> <i_m_source_file_index>
18

> <r_mmod_Potential_Energy-OPLS-2005>
2707.08227539062

> <r_mmod_Stretch_Energy-OPLS-2005>
1137.72497558594

> <r_mmod_Bend_Energy-OPLS-2005>
820.342346191406

> <r_mmod_Torsional_Energy-OPLS-2005>
277.92236328125

> <r_mmod_Improper_Torsional_Energy-OPLS-2005>
4.1578540802002

> <r_mmod_Van_der_Waal_Energy-OPLS-2005>
118.750244140625

> <r_mmod_Electrostatic_Energy-OPLS-2005>
-366.416961669922

> <r_mmod_Solvation_Energy-OPLS-2005>
-204.180618286133

> <b_mmod_Minimization_Converged-OPLS-2005>
0

> <r_mmod_RMS_Derivative-OPLS-2005>
1.82420766353607

$$$$
18
                    3D
 Structure written by MMmdl.
150158  0  0  1  0            999 V2000
  -30.2618  -15.7684   20.3207 C   0  0  0  0  0  0
  -30.4130  -13.1816   19.5375 C   0  0  0  0  0  0
  -29.5530  -12.6879   18.3356 C   0  0  0  0  0  0
  -28.1387  -12.3012   18.7887 C   0  0  0  0  0  0
  -27.5907  -13.3213   19.8098 C   0  0  2  0  0  0
  -28.5992  -13.7163   20.9180 C   0  0  0  0  0  0
  -25.2302  -13.8303   20.5819 C   0  0  0  0  0  0
  -24.1705  -13.0435   20.9302 C   0  0  0  0  0  0
  -24.6424  -11.6952   20.8767 C   0  0  0  0  0  0
  -23.9129  -10.4294   21.0393 C   0  0  0  0  0  0
  -24.3660   -9.4207   21.9178 C   0  0  0  0  0  0
  -23.6317   -8.2249   22.0753 C   0  0  0  0  0  0
  -22.4296   -8.0290   21.3545 C   0  0  0  0  0  0
  -21.9947   -9.0266   20.4643 C   0  0  0  0  0  0
  -22.7294  -10.2136   20.3047 C   0  0  0  0  0  0
  -21.6860   -6.0743   22.5279 C   0  0  0  0  0  0
  -21.4020   -6.5645   23.8213 C   0  0  0  0  0  0
  -21.3660   -5.6796   24.9174 C   0  0  0  0  0  0
  -21.6043   -4.3058   24.7224 C   0  0  0  0  0  0
  -21.8819   -3.8152   23.4344 C   0  0  0  0  0  0
  -21.9195   -4.6970   22.3402 C   0  0  0  0  0  0
  -22.7713  -13.5155   21.1928 C   0  0  0  0  0  0
  -22.1662   -4.2155   21.0979 F   0  0  0  0  0  0
  -21.5626   -3.4541   25.7735 F   0  0  0  0  0  0
  -29.7495  -14.3806   20.2490 N   0  0  0  0  0  0
  -26.2764  -12.9661   20.3257 N   0  0  0  0  0  0
  -25.9376  -11.6716   20.5698 N   0  0  0  0  0  0
  -22.0381  -12.8128   22.0478 N   0  0  0  0  0  0
  -25.3871  -15.2047   20.4259 N   0  0  0  0  0  0
  -31.4981  -15.6573   20.1864 O   0  0  0  0  0  0
  -21.6650   -6.8892   21.4243 O   0  0  0  0  0  0
  -22.3386  -14.5452   20.6761 O   0  0  0  0  0  0
  -24.6935  -31.7887   23.1430 C   0  0  0  0  0  0
  -25.9469  -32.4409   23.8014 C   0  0  1  0  0  0
  -27.2296  -26.6030   20.2253 C   0  0  0  0  0  0
  -25.6008  -33.8238   24.1895 N   0  0  0  0  0  0
  -23.5240  -30.3863   21.4993 C   0  0  2  0  0  0
  -24.9825  -28.7060   20.1210 C   0  0  0  0  0  0
  -22.7813  -29.4256   22.4683 C   0  0  0  0  0  0
  -18.0345  -28.1430   22.8455 C   0  0  0  0  0  0
  -24.1491  -36.7119   23.2656 C   0  0  0  0  0  0
  -26.1090  -30.4891   21.4223 C   0  0  0  0  0  0
  -26.1737  -29.0426   20.7746 C   0  0  0  0  0  0
  -27.2777  -28.0225   20.7903 C   0  0  0  0  0  0
  -26.0042  -26.5011   19.5120 C   0  0  0  0  0  0
  -24.9432  -27.4626   19.4650 C   0  0  0  0  0  0
  -23.7835  -29.6737   20.1389 C   0  0  0  0  0  0
  -25.4146  -36.2859   24.0276 C   0  0  1  0  0  0
  -20.5988  -28.3791   23.1125 C   0  0  2  0  0  0
  -20.6805  -26.9440   22.5407 C   0  0  0  0  0  0
  -19.5780  -26.6372   21.5220 C   0  0  0  0  0  0
  -18.1964  -26.7956   22.1621 C   0  0  0  0  0  0
  -19.1616  -28.8937   23.2767 C   0  0  0  0  0  0
  -18.9519  -30.1520   23.8815 C   0  0  0  0  0  0
  -17.6507  -30.6609   24.0549 C   0  0  0  0  0  0
  -25.9135  -34.9253   23.4929 C   0  0  0  0  0  0
  -16.5396  -29.9090   23.6356 C   0  0  0  0  0  0
  -16.7325  -28.6513   23.0373 C   0  0  0  0  0  0
  -26.4614  -31.6485   25.0678 C   0  0  0  0  0  0
  -25.3654  -31.3834   26.1277 C   0  0  0  0  0  0
  -27.0566  -30.2813   24.6649 C   0  0  0  0  0  0
  -27.6042  -32.4369   25.7503 C   0  0  0  0  0  0
  -27.5555  -37.1719   24.8471 C   0  0  0  0  0  0
  -21.4451  -29.3017   22.3432 N   0  0  0  0  0  0
  -26.4261  -37.3633   23.9411 N   0  0  0  0  0  0
  -24.7999  -30.9238   22.0735 N   0  0  0  0  0  0
  -23.4213  -28.7875   23.3073 O   0  0  0  0  0  0
  -28.1774  -25.3372   20.2992 O   0  0  0  0  0  0
  -26.5785  -34.8852   22.4554 O   0  0  0  0  0  0
  -23.5935  -32.1004   23.6326 O   0  0  0  0  0  0
  -31.1911  -20.8938   20.7830 C   0  0  0  0  0  0
  -30.3099  -22.0151   20.6251 C   0  0  0  0  0  0
  -28.9293  -21.8974   20.3264 C   0  0  0  0  0  0
  -28.6785  -20.2737   20.2232 C   0  0  0  0  0  0
  -29.6256  -18.9395   20.3804 C   0  0  0  0  0  0
  -30.9064  -19.4915   20.6827 C   0  0  0  0  0  0
  -30.8974  -23.4059   20.7972 C   0  0  0  0  0  0
  -27.2397  -19.9165   19.9153 C   0  0  0  0  0  0
  -27.9613  -23.5456   20.1654 C   0  0  0  0  0  0
  -29.4980  -17.1716   20.3274 N   0  0  0  0  0  0
  -32.2508  -18.4578   20.9977 Cl  0  0  0  0  0  0
  -31.3953  -13.4595   19.1544 H   0  0  0  0  0  0
  -30.6081  -12.3655   20.2354 H   0  0  0  0  0  0
  -30.0349  -11.8448   17.8387 H   0  0  0  0  0  0
  -29.4885  -13.4855   17.5941 H   0  0  0  0  0  0
  -28.1933  -11.3163   19.2544 H   0  0  0  0  0  0
  -27.4695  -12.2037   17.9328 H   0  0  0  0  0  0
  -27.4327  -14.2220   19.2145 H   0  0  0  0  0  0
  -28.8924  -12.8600   21.5271 H   0  0  0  0  0  0
  -28.1396  -14.4323   21.6009 H   0  0  0  0  0  0
  -25.2798   -9.5680   22.4765 H   0  0  0  0  0  0
  -24.0016   -7.4642   22.7480 H   0  0  0  0  0  0
  -21.0876   -8.8797   19.8950 H   0  0  0  0  0  0
  -22.3753  -10.9678   19.6159 H   0  0  0  0  0  0
  -21.2015   -7.6153   23.9719 H   0  0  0  0  0  0
  -21.1480   -6.0524   25.9077 H   0  0  0  0  0  0
  -22.0595   -2.7614   23.2843 H   0  0  0  0  0  0
  -22.4028  -11.9806   22.4874 H   0  0  0  0  0  0
  -21.0984  -13.1116   22.2672 H   0  0  0  0  0  0
  -24.6124  -15.8500   20.5364 H   0  0  0  0  0  0
  -26.2255  -15.6484   20.0767 H   0  0  0  0  0  0
  -26.7559  -32.4859   23.0730 H   0  0  0  0  0  0
  -25.0060  -33.9255   24.9987 H   0  0  0  0  0  0
  -22.8545  -31.2259   21.3011 H   0  0  0  0  0  0
  -23.3775  -35.9425   23.3266 H   0  0  0  0  0  0
  -24.3553  -36.8839   22.2080 H   0  0  0  0  0  0
  -23.7229  -37.6272   23.6774 H   0  0  0  0  0  0
  -26.3224  -31.2071   20.6294 H   0  0  0  0  0  0
  -26.9558  -30.5617   22.0922 H   0  0  0  0  0  0
  -28.1719  -28.2902   21.3353 H   0  0  0  0  0  0
  -25.8201  -25.5650   19.0041 H   0  0  0  0  0  0
  -24.0471  -27.1943   18.9221 H   0  0  0  0  0  0
  -23.9668  -30.4294   19.3742 H   0  0  0  0  0  0
  -22.8860  -29.1455   19.8124 H   0  0  0  0  0  0
  -25.1361  -36.1604   25.0765 H   0  0  0  0  0  0
  -21.0067  -28.3423   24.1254 H   0  0  0  0  0  0
  -20.5659  -26.2417   23.3679 H   0  0  0  0  0  0
  -21.6665  -26.7367   22.1230 H   0  0  0  0  0  0
  -19.6929  -25.6262   21.1300 H   0  0  0  0  0  0
  -19.6723  -27.3139   20.6717 H   0  0  0  0  0  0
  -17.4234  -26.6705   21.4023 H   0  0  0  0  0  0
  -18.0343  -26.0118   22.9035 H   0  0  0  0  0  0
  -19.7993  -30.7361   24.2144 H   0  0  0  0  0  0
  -17.5056  -31.6279   24.5170 H   0  0  0  0  0  0
  -15.5392  -30.2965   23.7729 H   0  0  0  0  0  0
  -15.8726  -28.0804   22.7136 H   0  0  0  0  0  0
  -24.5868  -30.7151   25.7582 H   0  0  0  0  0  0
  -24.8810  -32.3065   26.4467 H   0  0  0  0  0  0
  -25.7810  -30.9155   27.0210 H   0  0  0  0  0  0
  -26.3307  -29.6395   24.1646 H   0  0  0  0  0  0
  -27.3964  -29.7299   25.5427 H   0  0  0  0  0  0
  -27.9297  -30.3923   24.0217 H   0  0  0  0  0  0
  -27.2569  -33.3756   26.1835 H   0  0  0  0  0  0
  -28.3979  -32.6794   25.0423 H   0  0  0  0  0  0
  -28.0571  -31.8662   26.5621 H   0  0  0  0  0  0
  -28.2546  -38.0037   24.7510 H   0  0  0  0  0  0
  -28.1075  -36.2559   24.6309 H   0  0  0  0  0  0
  -27.2269  -37.1368   25.8873 H   0  0  0  0  0  0
  -20.9780  -29.8651   21.6464 H   0  0  0  0  0  0
  -26.0077  -38.2676   24.1427 H   0  0  0  0  0  0
  -32.2191  -21.1277   21.0200 H   0  0  0  0  0  0
  -31.9540  -23.3739   21.0648 H   0  0  0  0  0  0
  -30.3766  -23.9481   21.5868 H   0  0  0  0  0  0
  -30.8077  -23.9763   19.8722 H   0  0  0  0  0  0
  -26.6450  -20.8025   19.6919 H   0  0  0  0  0  0
  -26.7867  -19.4085   20.7671 H   0  0  0  0  0  0
  -27.1894  -19.2504   19.0539 H   0  0  0  0  0  0
  -27.1178  -23.3715   20.8334 H   0  0  0  0  0  0
  -27.5228  -23.4474   19.1725 H   0  0  0  0  0  0
  -28.5196  -16.9286   20.2942 H   0  0  0  0  0  0
  1 25  1  0  0  0
  1 30  2  0  0  0
  1 80  1  0  0  0
  2  3  1  0  0  0
  2 25  1  0  0  0
  2 82  1  0  0  0
  2 83  1  0  0  0
  3  4  1  0  0  0
  3 84  1  0  0  0
  3 85  1  0  0  0
  4  5  1  0  0  0
  4 86  1  0  0  0
  4 87  1  0  0  0
  5  6  1  0  0  0
  5 26  1  0  0  0
  5 88  1  0  0  0
  6 25  1  0  0  0
  6 89  1  0  0  0
  6 90  1  0  0  0
  7  8  2  0  0  0
  7 26  1  0  0  0
  7 29  1  0  0  0
  8  9  1  0  0  0
  8 22  1  0  0  0
  9 10  1  0  0  0
  9 27  2  0  0  0
 10 11  2  0  0  0
 10 15  1  0  0  0
 11 12  1  0  0  0
 11 91  1  0  0  0
 12 13  2  0  0  0
 12 92  1  0  0  0
 13 14  1  0  0  0
 13 31  1  0  0  0
 14 15  2  0  0  0
 14 93  1  0  0  0
 15 94  1  0  0  0
 16 17  2  0  0  0
 16 21  1  0  0  0
 16 31  1  0  0  0
 17 18  1  0  0  0
 17 95  1  0  0  0
 18 19  2  0  0  0
 18 96  1  0  0  0
 19 20  1  0  0  0
 19 24  1  0  0  0
 20 21  2  0  0  0
 20 97  1  0  0  0
 21 23  1  0  0  0
 22 28  1  0  0  0
 22 32  2  0  0  0
 26 27  1  0  0  0
 28 98  1  0  0  0
 28 99  1  0  0  0
 29100  1  0  0  0
 29101  1  0  0  0
 33 34  1  0  0  0
 33 66  1  0  0  0
 33 70  2  0  0  0
 34 36  1  0  0  0
 34 59  1  0  0  0
 34102  1  0  0  0
 35 44  2  0  0  0
 35 45  1  0  0  0
 35 68  1  0  0  0
 36 56  1  0  0  0
 36103  1  0  0  0
 37 39  1  0  0  0
 37 47  1  0  0  0
 37 66  1  0  0  0
 37104  1  0  0  0
 38 43  2  0  0  0
 38 46  1  0  0  0
 38 47  1  0  0  0
 39 64  1  0  0  0
 39 67  2  0  0  0
 40 52  1  0  0  0
 40 53  2  0  0  0
 40 58  1  0  0  0
 41105  1  0  0  0
 41106  1  0  0  0
 41107  1  0  0  0
 41 48  1  0  0  0
 42 43  1  0  0  0
 42 66  1  0  0  0
 42108  1  0  0  0
 42109  1  0  0  0
 43 44  1  0  0  0
 44110  1  0  0  0
 45 46  2  0  0  0
 45111  1  0  0  0
 46112  1  0  0  0
 47113  1  0  0  0
 47114  1  0  0  0
 48 56  1  0  0  0
 48 65  1  0  0  0
 48115  1  0  0  0
 49 50  1  0  0  0
 49 53  1  0  0  0
 49 64  1  0  0  0
 49116  1  0  0  0
 50 51  1  0  0  0
 50117  1  0  0  0
 50118  1  0  0  0
 51 52  1  0  0  0
 51119  1  0  0  0
 51120  1  0  0  0
 52121  1  0  0  0
 52122  1  0  0  0
 53 54  1  0  0  0
 54 55  2  0  0  0
 54123  1  0  0  0
 55 57  1  0  0  0
 55124  1  0  0  0
 56 69  2  0  0  0
 57 58  2  0  0  0
 57125  1  0  0  0
 58126  1  0  0  0
 59 60  1  0  0  0
 59 61  1  0  0  0
 59 62  1  0  0  0
 60127  1  0  0  0
 60128  1  0  0  0
 60129  1  0  0  0
 61130  1  0  0  0
 61131  1  0  0  0
 61132  1  0  0  0
 62133  1  0  0  0
 62134  1  0  0  0
 62135  1  0  0  0
 63 65  1  0  0  0
 63136  1  0  0  0
 63137  1  0  0  0
 63138  1  0  0  0
 64139  1  0  0  0
 65140  1  0  0  0
 68 79  1  0  0  0
 71 72  2  0  0  0
 71 76  1  0  0  0
 71141  1  0  0  0
 72 73  1  0  0  0
 72 77  1  0  0  0
 73 74  2  0  0  0
 73 79  1  0  0  0
 74 75  1  0  0  0
 74 78  1  0  0  0
 75 76  2  0  0  0
 75 80  1  0  0  0
 76 81  1  0  0  0
 77142  1  0  0  0
 77143  1  0  0  0
 77144  1  0  0  0
 78145  1  0  0  0
 78146  1  0  0  0
 78147  1  0  0  0
 79148  1  0  0  0
 79149  1  0  0  0
 80150  1  0  0  0
M  ISO  4   1 100  68 101  79 101  80 100
M  END
> <chiral flag>
0

> <version>
0

> <s_m_source_file>
/data/baiqing/PycharmProjects/Reinvent-master-3.2/result/LINK_invent/BTK/process_docking_weight1_custom_sum_contain_oxygen_bond_distance_aromatic_linkinvent_7_9_3/rearranged_h_0019.sdf

> <i_m_source_file_index>
19

> <r_mmod_Potential_Energy-OPLS-2005>
2809.70263671875

> <r_mmod_Stretch_Energy-OPLS-2005>
1276.33813476562

> <r_mmod_Bend_Energy-OPLS-2005>
642.190612792969

> <r_mmod_Torsional_Energy-OPLS-2005>
223.007965087891

> <r_mmod_Improper_Torsional_Energy-OPLS-2005>
4.76329135894775

> <r_mmod_Van_der_Waal_Energy-OPLS-2005>
130.050735473633

> <r_mmod_Electrostatic_Energy-OPLS-2005>
-363.146301269531

> <r_mmod_Solvation_Energy-OPLS-2005>
-215.980377197266

> <b_mmod_Minimization_Converged-OPLS-2005>
0

> <r_mmod_RMS_Derivative-OPLS-2005>
0.336018562316895

$$$$
19
                    3D
 Structure written by MMmdl.
159167  0  0  1  0            999 V2000
  -30.4532  -15.1365   20.4385 C   0  0  0  0  0  0
  -30.4510  -12.7266   19.5114 C   0  0  0  0  0  0
  -29.5319  -12.5550   18.2744 C   0  0  0  0  0  0
  -28.0762  -12.2848   18.7007 C   0  0  0  0  0  0
  -27.6225  -13.2341   19.8341 C   0  0  2  0  0  0
  -28.6677  -13.2678   20.9714 C   0  0  0  0  0  0
  -25.2304  -13.8105   20.5527 C   0  0  0  0  0  0
  -24.1700  -13.0358   20.9208 C   0  0  0  0  0  0
  -24.6360  -11.6859   20.8782 C   0  0  0  0  0  0
  -23.9053  -10.4243   21.0419 C   0  0  0  0  0  0
  -24.3602   -9.4157   21.9198 C   0  0  0  0  0  0
  -23.6273   -8.2198   22.0754 C   0  0  0  0  0  0
  -22.4259   -8.0250   21.3539 C   0  0  0  0  0  0
  -21.9899   -9.0221   20.4641 C   0  0  0  0  0  0
  -22.7230  -10.2094   20.3053 C   0  0  0  0  0  0
  -21.6844   -6.0717   22.5277 C   0  0  0  0  0  0
  -21.4009   -6.5618   23.8217 C   0  0  0  0  0  0
  -21.3656   -5.6777   24.9182 C   0  0  0  0  0  0
  -21.6045   -4.3034   24.7231 C   0  0  0  0  0  0
  -21.8822   -3.8129   23.4358 C   0  0  0  0  0  0
  -21.9189   -4.6941   22.3408 C   0  0  0  0  0  0
  -22.7725  -13.5126   21.1903 C   0  0  0  0  0  0
  -22.1659   -4.2125   21.0988 F   0  0  0  0  0  0
  -21.5629   -3.4529   25.7755 F   0  0  0  0  0  0
  -29.9001  -13.8270   20.3798 N   0  0  0  0  0  0
  -26.2806  -12.9368   20.3180 N   0  0  0  0  0  0
  -25.9286  -11.6510   20.5758 N   0  0  0  0  0  0
  -22.0404  -12.8141   22.0489 N   0  0  0  0  0  0
  -25.3671  -15.1827   20.3637 N   0  0  0  0  0  0
  -31.6525  -15.1754   20.1232 O   0  0  0  0  0  0
  -21.6617   -6.8850   21.4234 O   0  0  0  0  0  0
  -22.3412  -14.5453   20.6776 O   0  0  0  0  0  0
  -24.6504  -31.8331   23.1792 C   0  0  0  0  0  0
  -25.9254  -32.4638   23.8203 C   0  0  1  0  0  0
  -27.2280  -27.0536   20.1726 C   0  0  0  0  0  0
  -25.5987  -33.8441   24.2121 N   0  0  0  0  0  0
  -23.4599  -30.4443   21.5266 C   0  0  2  0  0  0
  -24.9118  -28.8467   20.1220 C   0  0  0  0  0  0
  -22.7602  -29.4455   22.4824 C   0  0  0  0  0  0
  -18.0289  -28.1388   22.8422 C   0  0  0  0  0  0
  -24.1505  -36.7220   23.2630 C   0  0  0  0  0  0
  -26.0196  -30.6821   21.3904 C   0  0  0  0  0  0
  -26.0947  -29.2842   20.7334 C   0  0  0  0  0  0
  -27.2542  -28.4080   20.7286 C   0  0  0  0  0  0
  -26.0072  -26.7190   19.5524 C   0  0  0  0  0  0
  -24.8819  -27.5791   19.5195 C   0  0  0  0  0  0
  -23.6959  -29.7640   20.1516 C   0  0  0  0  0  0
  -25.4127  -36.2985   24.0298 C   0  0  1  0  0  0
  -20.5904  -28.3700   23.1195 C   0  0  2  0  0  0
  -20.6768  -26.9383   22.5407 C   0  0  0  0  0  0
  -19.5777  -26.6354   21.5179 C   0  0  0  0  0  0
  -18.1935  -26.7917   22.1565 C   0  0  0  0  0  0
  -19.1552  -28.8852   23.2784 C   0  0  0  0  0  0
  -18.9485  -30.1442   23.8820 C   0  0  0  0  0  0
  -17.6489  -30.6579   24.0527 C   0  0  0  0  0  0
  -25.9095  -34.9369   23.5023 C   0  0  0  0  0  0
  -16.5361  -29.9077   23.6331 C   0  0  0  0  0  0
  -16.7267  -28.6502   23.0330 C   0  0  0  0  0  0
  -26.4542  -31.6567   25.0697 C   0  0  0  0  0  0
  -25.3682  -31.3839   26.1373 C   0  0  0  0  0  0
  -27.0397  -30.2910   24.6418 C   0  0  0  0  0  0
  -27.6057  -32.4360   25.7494 C   0  0  0  0  0  0
  -27.5584  -37.1744   24.8448 C   0  0  0  0  0  0
  -21.4292  -29.3015   22.3582 N   0  0  0  0  0  0
  -26.4280  -37.3724   23.9407 N   0  0  0  0  0  0
  -24.7294  -31.0105   22.0856 N   0  0  0  0  0  0
  -23.4189  -28.7984   23.2996 O   0  0  0  0  0  0
  -28.3038  -26.0698   20.1449 O   0  0  0  0  0  0
  -26.5687  -34.8902   22.4600 O   0  0  0  0  0  0
  -23.5610  -32.1233   23.6985 O   0  0  0  0  0  0
  -29.2935  -20.3712   18.9293 C   0  0  0  0  0  0
  -28.8992  -20.5060   21.3082 C   0  0  0  0  0  0
  -29.0963  -18.7535   19.1908 C   0  0  0  0  0  0
  -29.7917  -19.1151   21.4814 C   0  0  0  0  0  0
  -29.2437  -21.4969   20.0981 C   0  0  2  0  0  0
  -29.9309  -17.9752   20.3162 C   0  0  1  0  0  0
  -29.6043  -23.6308   18.6260 C   0  0  0  0  0  0
  -28.4680  -16.3272   21.4276 C   0  0  0  0  0  0
  -28.2430  -24.5333   20.5699 C   0  0  0  0  0  0
  -28.6264  -23.0959   19.6897 C   0  0  2  0  0  0
  -29.6774  -16.3840   20.6067 N   0  0  0  0  0  0
  -31.4670  -12.9403   19.1798 H   0  0  0  0  0  0
  -30.5267  -11.7905   20.0664 H   0  0  0  0  0  0
  -29.8933  -11.7416   17.6447 H   0  0  0  0  0  0
  -29.5728  -13.4589   17.6653 H   0  0  0  0  0  0
  -28.0284  -11.2551   19.0567 H   0  0  0  0  0  0
  -27.4031  -12.3445   17.8454 H   0  0  0  0  0  0
  -27.5740  -14.2192   19.3701 H   0  0  0  0  0  0
  -28.8275  -12.2615   21.3631 H   0  0  0  0  0  0
  -28.3226  -13.8231   21.8381 H   0  0  0  0  0  0
  -25.2731   -9.5632   22.4790 H   0  0  0  0  0  0
  -23.9962   -7.4590   22.7479 H   0  0  0  0  0  0
  -21.0825   -8.8743   19.8949 H   0  0  0  0  0  0
  -22.3685  -10.9640   19.6162 H   0  0  0  0  0  0
  -21.2001   -7.6132   23.9710 H   0  0  0  0  0  0
  -21.1476   -6.0512   25.9084 H   0  0  0  0  0  0
  -22.0608   -2.7590   23.2871 H   0  0  0  0  0  0
  -22.4032  -11.9798   22.4850 H   0  0  0  0  0  0
  -21.1042  -13.1178   22.2741 H   0  0  0  0  0  0
  -24.5767  -15.8123   20.4476 H   0  0  0  0  0  0
  -26.1896  -15.6280   19.9812 H   0  0  0  0  0  0
  -26.7309  -32.5199   23.0921 H   0  0  0  0  0  0
  -25.0110  -33.9525   25.0254 H   0  0  0  0  0  0
  -22.7672  -31.2714   21.3632 H   0  0  0  0  0  0
  -23.3807  -35.9521   23.3246 H   0  0  0  0  0  0
  -24.3587  -36.8912   22.2058 H   0  0  0  0  0  0
  -23.7235  -37.6377   23.6712 H   0  0  0  0  0  0
  -26.1853  -31.4379   20.6220 H   0  0  0  0  0  0
  -26.8829  -30.7269   22.0454 H   0  0  0  0  0  0
  -28.1661  -28.7444   21.2024 H   0  0  0  0  0  0
  -25.9088  -25.7411   19.1004 H   0  0  0  0  0  0
  -23.9728  -27.2308   19.0468 H   0  0  0  0  0  0
  -23.8419  -30.5328   19.3919 H   0  0  0  0  0  0
  -22.8092  -29.2117   19.8376 H   0  0  0  0  0  0
  -25.1322  -36.1794   25.0792 H   0  0  0  0  0  0
  -20.9940  -28.3331   24.1336 H   0  0  0  0  0  0
  -20.5638  -26.2312   23.3639 H   0  0  0  0  0  0
  -21.6645  -26.7376   22.1233 H   0  0  0  0  0  0
  -19.6951  -25.6256   21.1230 H   0  0  0  0  0  0
  -19.6772  -27.3154   20.6699 H   0  0  0  0  0  0
  -17.4219  -26.6626   21.3955 H   0  0  0  0  0  0
  -18.0312  -26.0082   22.8985 H   0  0  0  0  0  0
  -19.7985  -30.7205   24.2238 H   0  0  0  0  0  0
  -17.5072  -31.6272   24.5114 H   0  0  0  0  0  0
  -15.5367  -30.2945   23.7737 H   0  0  0  0  0  0
  -15.8660  -28.0802   22.7095 H   0  0  0  0  0  0
  -24.5967  -30.7040   25.7749 H   0  0  0  0  0  0
  -24.8734  -32.3031   26.4511 H   0  0  0  0  0  0
  -25.7924  -30.9278   27.0329 H   0  0  0  0  0  0
  -26.3029  -29.6621   24.1402 H   0  0  0  0  0  0
  -27.3863  -29.7259   25.5087 H   0  0  0  0  0  0
  -27.9020  -30.4038   23.9837 H   0  0  0  0  0  0
  -27.2655  -33.3757   26.1861 H   0  0  0  0  0  0
  -28.3977  -32.6754   25.0389 H   0  0  0  0  0  0
  -28.0592  -31.8609   26.5587 H   0  0  0  0  0  0
  -28.2549  -38.0097   24.7540 H   0  0  0  0  0  0
  -28.1142  -36.2615   24.6223 H   0  0  0  0  0  0
  -27.2291  -37.1297   25.8851 H   0  0  0  0  0  0
  -20.9535  -29.8758   21.6767 H   0  0  0  0  0  0
  -26.0152  -38.2779   24.1499 H   0  0  0  0  0  0
  -28.5347  -20.6530   18.1965 H   0  0  0  0  0  0
  -30.2361  -20.5030   18.3959 H   0  0  0  0  0  0
  -29.0026  -21.0732   22.2324 H   0  0  0  0  0  0
  -27.8409  -20.2430   21.2608 H   0  0  0  0  0  0
  -29.2314  -18.2336   18.2419 H   0  0  0  0  0  0
  -28.0395  -18.6020   19.4151 H   0  0  0  0  0  0
  -29.4941  -18.6460   22.4206 H   0  0  0  0  0  0
  -30.8095  -19.4435   21.6907 H   0  0  0  0  0  0
  -30.2894  -21.7219   20.3114 H   0  0  0  0  0  0
  -30.9673  -18.0050   19.9833 H   0  0  0  0  0  0
  -29.8710  -22.8791   17.8832 H   0  0  0  0  0  0
  -30.5315  -23.9728   19.0923 H   0  0  0  0  0  0
  -29.1848  -24.4782   18.0838 H   0  0  0  0  0  0
  -27.9666  -17.2830   21.5727 H   0  0  0  0  0  0
  -28.6846  -15.9262   22.4178 H   0  0  0  0  0  0
  -27.7257  -15.7115   20.9476 H   0  0  0  0  0  0
  -28.9334  -24.5109   21.4138 H   0  0  0  0  0  0
  -27.2684  -24.3756   21.0354 H   0  0  0  0  0  0
  -27.6949  -22.8823   19.1643 H   0  0  0  0  0  0
  1 25  1  0  0  0
  1 30  2  0  0  0
  1 81  1  0  0  0
  2  3  1  0  0  0
  2 25  1  0  0  0
  2 82  1  0  0  0
  2 83  1  0  0  0
  3  4  1  0  0  0
  3 84  1  0  0  0
  3 85  1  0  0  0
  4  5  1  0  0  0
  4 86  1  0  0  0
  4 87  1  0  0  0
  5  6  1  0  0  0
  5 26  1  0  0  0
  5 88  1  0  0  0
  6 25  1  0  0  0
  6 89  1  0  0  0
  6 90  1  0  0  0
  7  8  2  0  0  0
  7 26  1  0  0  0
  7 29  1  0  0  0
  8  9  1  0  0  0
  8 22  1  0  0  0
  9 10  1  0  0  0
  9 27  2  0  0  0
 10 11  2  0  0  0
 10 15  1  0  0  0
 11 12  1  0  0  0
 11 91  1  0  0  0
 12 13  2  0  0  0
 12 92  1  0  0  0
 13 14  1  0  0  0
 13 31  1  0  0  0
 14 15  2  0  0  0
 14 93  1  0  0  0
 15 94  1  0  0  0
 16 17  2  0  0  0
 16 21  1  0  0  0
 16 31  1  0  0  0
 17 18  1  0  0  0
 17 95  1  0  0  0
 18 19  2  0  0  0
 18 96  1  0  0  0
 19 20  1  0  0  0
 19 24  1  0  0  0
 20 21  2  0  0  0
 20 97  1  0  0  0
 21 23  1  0  0  0
 22 28  1  0  0  0
 22 32  2  0  0  0
 26 27  1  0  0  0
 28 98  1  0  0  0
 28 99  1  0  0  0
 29100  1  0  0  0
 29101  1  0  0  0
 33 34  1  0  0  0
 33 66  1  0  0  0
 33 70  2  0  0  0
 34 36  1  0  0  0
 34 59  1  0  0  0
 34102  1  0  0  0
 35 44  2  0  0  0
 35 45  1  0  0  0
 35 68  1  0  0  0
 36 56  1  0  0  0
 36103  1  0  0  0
 37 39  1  0  0  0
 37 47  1  0  0  0
 37 66  1  0  0  0
 37104  1  0  0  0
 38 43  2  0  0  0
 38 46  1  0  0  0
 38 47  1  0  0  0
 39 64  1  0  0  0
 39 67  2  0  0  0
 40 52  1  0  0  0
 40 53  2  0  0  0
 40 58  1  0  0  0
 41105  1  0  0  0
 41106  1  0  0  0
 41107  1  0  0  0
 41 48  1  0  0  0
 42 43  1  0  0  0
 42 66  1  0  0  0
 42108  1  0  0  0
 42109  1  0  0  0
 43 44  1  0  0  0
 44110  1  0  0  0
 45 46  2  0  0  0
 45111  1  0  0  0
 46112  1  0  0  0
 47113  1  0  0  0
 47114  1  0  0  0
 48 56  1  0  0  0
 48 65  1  0  0  0
 48115  1  0  0  0
 49 50  1  0  0  0
 49 53  1  0  0  0
 49 64  1  0  0  0
 49116  1  0  0  0
 50 51  1  0  0  0
 50117  1  0  0  0
 50118  1  0  0  0
 51 52  1  0  0  0
 51119  1  0  0  0
 51120  1  0  0  0
 52121  1  0  0  0
 52122  1  0  0  0
 53 54  1  0  0  0
 54 55  2  0  0  0
 54123  1  0  0  0
 55 57  1  0  0  0
 55124  1  0  0  0
 56 69  2  0  0  0
 57 58  2  0  0  0
 57125  1  0  0  0
 58126  1  0  0  0
 59 60  1  0  0  0
 59 61  1  0  0  0
 59 62  1  0  0  0
 60127  1  0  0  0
 60128  1  0  0  0
 60129  1  0  0  0
 61130  1  0  0  0
 61131  1  0  0  0
 61132  1  0  0  0
 62133  1  0  0  0
 62134  1  0  0  0
 62135  1  0  0  0
 63 65  1  0  0  0
 63136  1  0  0  0
 63137  1  0  0  0
 63138  1  0  0  0
 64139  1  0  0  0
 65140  1  0  0  0
 68 79  1  0  0  0
 71 73  1  0  0  0
 71141  1  0  0  0
 71142  1  0  0  0
 71 75  1  0  0  0
 72 74  1  0  0  0
 72 75  1  0  0  0
 72143  1  0  0  0
 72144  1  0  0  0
 73 76  1  0  0  0
 73145  1  0  0  0
 73146  1  0  0  0
 74 76  1  0  0  0
 74147  1  0  0  0
 74148  1  0  0  0
 75 80  1  0  0  0
 75149  1  0  0  0
 76 81  1  0  0  0
 76150  1  0  0  0
 77151  1  0  0  0
 77152  1  0  0  0
 77153  1  0  0  0
 77 80  1  0  0  0
 78 81  1  0  0  0
 78154  1  0  0  0
 78155  1  0  0  0
 78156  1  0  0  0
 79 80  1  0  0  0
 79157  1  0  0  0
 79158  1  0  0  0
 80159  1  0  0  0
M  ISO  4   1 100  68 101  79 101  81 100
M  END
> <chiral flag>
0

> <version>
0

> <s_m_source_file>
/data/baiqing/PycharmProjects/Reinvent-master-3.2/result/LINK_invent/BTK/process_docking_weight1_custom_sum_contain_oxygen_bond_distance_aromatic_linkinvent_7_9_3/rearranged_h_0019.sdf

> <i_m_source_file_index>
20

> <r_mmod_Potential_Energy-OPLS-2005>
1135.96337890625

> <r_mmod_Stretch_Energy-OPLS-2005>
399.593536376953

> <r_mmod_Bend_Energy-OPLS-2005>
427.49560546875

> <r_mmod_Torsional_Energy-OPLS-2005>
339.516510009766

> <r_mmod_Improper_Torsional_Energy-OPLS-2005>
5.77476072311401

> <r_mmod_Van_der_Waal_Energy-OPLS-2005>
133.706741333008

> <r_mmod_Electrostatic_Energy-OPLS-2005>
-279.756103515625

> <r_mmod_Solvation_Energy-OPLS-2005>
-187.151962280273

> <b_mmod_Minimization_Converged-OPLS-2005>
0

> <r_mmod_RMS_Derivative-OPLS-2005>
3.57735991477966

$$$$
20
                    3D
 Structure written by MMmdl.
162170  0  0  1  0            999 V2000
  -30.4518  -15.3443   20.4038 C   0  0  0  0  0  0
  -30.4445  -12.8707   19.5421 C   0  0  0  0  0  0
  -29.5419  -12.5986   18.3099 C   0  0  0  0  0  0
  -28.1003  -12.3052   18.7481 C   0  0  0  0  0  0
  -27.6212  -13.2898   19.8406 C   0  0  2  0  0  0
  -28.6528  -13.4910   20.9730 C   0  0  0  0  0  0
  -25.2408  -13.8234   20.5805 C   0  0  0  0  0  0
  -24.1758  -13.0434   20.9248 C   0  0  0  0  0  0
  -24.6433  -11.6926   20.8770 C   0  0  0  0  0  0
  -23.9107  -10.4303   21.0412 C   0  0  0  0  0  0
  -24.3644   -9.4205   21.9186 C   0  0  0  0  0  0
  -23.6312   -8.2248   22.0757 C   0  0  0  0  0  0
  -22.4290   -8.0295   21.3546 C   0  0  0  0  0  0
  -21.9938   -9.0268   20.4641 C   0  0  0  0  0  0
  -22.7275  -10.2144   20.3057 C   0  0  0  0  0  0
  -21.6861   -6.0738   22.5274 C   0  0  0  0  0  0
  -21.4009   -6.5641   23.8205 C   0  0  0  0  0  0
  -21.3664   -5.6797   24.9172 C   0  0  0  0  0  0
  -21.6053   -4.3060   24.7217 C   0  0  0  0  0  0
  -21.8820   -3.8145   23.4340 C   0  0  0  0  0  0
  -21.9195   -4.6963   22.3399 C   0  0  0  0  0  0
  -22.7767  -13.5160   21.1901 C   0  0  0  0  0  0
  -22.1677   -4.2144   21.0981 F   0  0  0  0  0  0
  -21.5631   -3.4552   25.7734 F   0  0  0  0  0  0
  -29.8804  -14.0268   20.3483 N   0  0  0  0  0  0
  -26.2908  -12.9581   20.3370 N   0  0  0  0  0  0
  -25.9393  -11.6655   20.5750 N   0  0  0  0  0  0
  -22.0459  -12.8158   22.0477 N   0  0  0  0  0  0
  -25.3990  -15.1971   20.4192 N   0  0  0  0  0  0
  -31.6676  -15.3158   20.1627 O   0  0  0  0  0  0
  -21.6658   -6.8891   21.4240 O   0  0  0  0  0  0
  -22.3476  -14.5493   20.6760 O   0  0  0  0  0  0
  -24.6649  -31.8190   23.1704 C   0  0  0  0  0  0
  -25.9353  -32.4540   23.8144 C   0  0  1  0  0  0
  -27.2234  -26.8975   20.2073 C   0  0  0  0  0  0
  -25.6010  -33.8371   24.2029 N   0  0  0  0  0  0
  -23.4784  -30.4253   21.5187 C   0  0  2  0  0  0
  -24.9328  -28.8020   20.1104 C   0  0  0  0  0  0
  -22.7712  -29.4390   22.4811 C   0  0  0  0  0  0
  -18.0319  -28.1357   22.8420 C   0  0  0  0  0  0
  -24.1494  -36.7175   23.2639 C   0  0  0  0  0  0
  -26.0447  -30.6152   21.4053 C   0  0  0  0  0  0
  -26.1121  -29.1995   20.7544 C   0  0  0  0  0  0
  -27.2455  -28.2669   20.7809 C   0  0  0  0  0  0
  -26.0219  -26.6594   19.4997 C   0  0  0  0  0  0
  -24.9148  -27.5517   19.4633 C   0  0  0  0  0  0
  -23.7196  -29.7339   20.1465 C   0  0  0  0  0  0
  -25.4137  -36.2929   24.0281 C   0  0  1  0  0  0
  -20.5933  -28.3728   23.1144 C   0  0  2  0  0  0
  -20.6780  -26.9400   22.5371 C   0  0  0  0  0  0
  -19.5771  -26.6336   21.5155 C   0  0  0  0  0  0
  -18.1948  -26.7910   22.1556 C   0  0  0  0  0  0
  -19.1576  -28.8869   23.2756 C   0  0  0  0  0  0
  -18.9523  -30.1462   23.8791 C   0  0  0  0  0  0
  -17.6515  -30.6574   24.0521 C   0  0  0  0  0  0
  -25.9100  -34.9324   23.4960 C   0  0  0  0  0  0
  -16.5392  -29.9062   23.6322 C   0  0  0  0  0  0
  -16.7308  -28.6458   23.0352 C   0  0  0  0  0  0
  -26.4628  -31.6517   25.0690 C   0  0  0  0  0  0
  -25.3741  -31.3811   26.1329 C   0  0  0  0  0  0
  -27.0516  -30.2851   24.6493 C   0  0  0  0  0  0
  -27.6072  -32.4369   25.7503 C   0  0  0  0  0  0
  -27.5590  -37.1739   24.8485 C   0  0  0  0  0  0
  -21.4381  -29.3047   22.3555 N   0  0  0  0  0  0
  -26.4276  -37.3673   23.9439 N   0  0  0  0  0  0
  -24.7500  -30.9828   22.0848 N   0  0  0  0  0  0
  -23.4239  -28.7990   23.3086 O   0  0  0  0  0  0
  -28.2321  -25.7967   20.3608 O   0  0  0  0  0  0
  -26.5744  -34.8894   22.4590 O   0  0  0  0  0  0
  -23.5731  -32.1134   23.6858 O   0  0  0  0  0  0
  -30.7216  -21.1765   20.3254 C   0  0  0  0  0  0
  -31.2784  -18.7290   20.3134 C   0  0  0  0  0  0
  -31.6796  -20.1065   20.2706 C   0  0  0  0  0  0
  -29.3225  -21.0219   20.4549 C   0  0  0  0  0  0
  -28.9915  -19.5009   20.5452 C   0  0  0  0  0  0
  -29.9404  -18.2702   20.4554 C   0  0  0  0  0  0
  -27.5387  -19.1547   20.8170 C   0  0  0  0  0  0
  -33.7929  -20.2306   21.6643 C   0  0  0  0  0  0
  -33.5086  -21.9062   19.8483 C   0  0  0  0  0  0
  -33.9901  -19.5605   19.2506 C   0  0  0  0  0  0
  -28.4428  -22.5433   20.7268 C   0  0  0  0  0  0
  -28.2780  -24.1811   19.9326 C   0  0  0  0  0  0
  -33.2046  -20.4431   20.2521 C   0  0  0  0  0  0
  -29.7013  -16.6438   20.5377 N   0  0  0  0  0  0
  -31.4554  -13.0832   19.1922 H   0  0  0  0  0  0
  -30.5380  -11.9753   20.1586 H   0  0  0  0  0  0
  -29.9315  -11.7585   17.7342 H   0  0  0  0  0  0
  -29.5549  -13.4614   17.6432 H   0  0  0  0  0  0
  -28.0878  -11.2921   19.1490 H   0  0  0  0  0  0
  -27.4205  -12.3118   17.8951 H   0  0  0  0  0  0
  -27.5321  -14.2520   19.3346 H   0  0  0  0  0  0
  -28.8345  -12.5642   21.5186 H   0  0  0  0  0  0
  -28.2744  -14.2064   21.7053 H   0  0  0  0  0  0
  -25.2767   -9.5696   22.4782 H   0  0  0  0  0  0
  -24.0007   -7.4658   22.7490 H   0  0  0  0  0  0
  -21.0863   -8.8787   19.8971 H   0  0  0  0  0  0
  -22.3705  -10.9690   19.6189 H   0  0  0  0  0  0
  -21.2005   -7.6144   23.9701 H   0  0  0  0  0  0
  -21.1484   -6.0533   25.9072 H   0  0  0  0  0  0
  -22.0589   -2.7606   23.2840 H   0  0  0  0  0  0
  -22.4073  -11.9816   22.4847 H   0  0  0  0  0  0
  -21.1089  -13.1180   22.2687 H   0  0  0  0  0  0
  -24.6155  -15.8320   20.5167 H   0  0  0  0  0  0
  -26.2253  -15.6410   20.0466 H   0  0  0  0  0  0
  -26.7420  -32.5067   23.0843 H   0  0  0  0  0  0
  -25.0084  -33.9420   25.0134 H   0  0  0  0  0  0
  -22.7844  -31.2543   21.3502 H   0  0  0  0  0  0
  -23.3749  -35.9510   23.3247 H   0  0  0  0  0  0
  -24.3501  -36.8914   22.2053 H   0  0  0  0  0  0
  -23.7252  -37.6339   23.6753 H   0  0  0  0  0  0
  -26.2355  -31.3642   20.6352 H   0  0  0  0  0  0
  -26.8962  -30.6614   22.0705 H   0  0  0  0  0  0
  -28.1285  -28.5667   21.3309 H   0  0  0  0  0  0
  -25.8957  -25.7054   19.0103 H   0  0  0  0  0  0
  -24.0252  -27.2297   18.9392 H   0  0  0  0  0  0
  -23.8802  -30.5004   19.3878 H   0  0  0  0  0  0
  -22.8306  -29.1871   19.8228 H   0  0  0  0  0  0
  -25.1330  -36.1667   25.0753 H   0  0  0  0  0  0
  -20.9933  -28.3355   24.1302 H   0  0  0  0  0  0
  -20.5585  -26.2383   23.3646 H   0  0  0  0  0  0
  -21.6666  -26.7384   22.1224 H   0  0  0  0  0  0
  -19.6951  -25.6226   21.1254 H   0  0  0  0  0  0
  -19.6718  -27.3092   20.6634 H   0  0  0  0  0  0
  -17.4220  -26.6620   21.3960 H   0  0  0  0  0  0
  -18.0351  -26.0065   22.8952 H   0  0  0  0  0  0
  -19.8020  -30.7230   24.2144 H   0  0  0  0  0  0
  -17.5100  -31.6245   24.5134 H   0  0  0  0  0  0
  -15.5383  -30.2924   23.7711 H   0  0  0  0  0  0
  -15.8705  -28.0743   22.7150 H   0  0  0  0  0  0
  -24.5950  -30.7134   25.7658 H   0  0  0  0  0  0
  -24.8899  -32.3010   26.4581 H   0  0  0  0  0  0
  -25.7912  -30.9107   27.0224 H   0  0  0  0  0  0
  -26.3188  -29.6496   24.1497 H   0  0  0  0  0  0
  -27.3964  -29.7261   25.5201 H   0  0  0  0  0  0
  -27.9176  -30.3929   23.9960 H   0  0  0  0  0  0
  -27.2619  -33.3776   26.1786 H   0  0  0  0  0  0
  -28.4011  -32.6748   25.0423 H   0  0  0  0  0  0
  -28.0569  -31.8687   26.5651 H   0  0  0  0  0  0
  -28.2559  -38.0095   24.7515 H   0  0  0  0  0  0
  -28.1131  -36.2579   24.6278 H   0  0  0  0  0  0
  -27.2302  -37.1341   25.8903 H   0  0  0  0  0  0
  -20.9641  -29.8775   21.6705 H   0  0  0  0  0  0
  -26.0108  -38.2733   24.1441 H   0  0  0  0  0  0
  -31.0679  -22.1989   20.3387 H   0  0  0  0  0  0
  -32.0507  -17.9785   20.2727 H   0  0  0  0  0  0
  -26.9154  -20.0384   20.9550 H   0  0  0  0  0  0
  -27.4603  -18.5486   21.7210 H   0  0  0  0  0  0
  -27.1200  -18.5809   19.9925 H   0  0  0  0  0  0
  -33.3262  -20.8919   22.3944 H   0  0  0  0  0  0
  -34.8644  -20.4363   21.6881 H   0  0  0  0  0  0
  -33.6519  -19.2060   22.0089 H   0  0  0  0  0  0
  -33.1478  -22.6273   20.5817 H   0  0  0  0  0  0
  -33.0711  -22.1512   18.8808 H   0  0  0  0  0  0
  -34.5835  -22.0837   19.7696 H   0  0  0  0  0  0
  -34.0302  -18.5095   19.5411 H   0  0  0  0  0  0
  -35.0311  -19.8818   19.1697 H   0  0  0  0  0  0
  -33.5696  -19.6178   18.2459 H   0  0  0  0  0  0
  -27.4047  -22.2340   20.8650 H   0  0  0  0  0  0
  -28.7497  -22.7961   21.7417 H   0  0  0  0  0  0
  -27.4060  -24.0579   19.2879 H   0  0  0  0  0  0
  -29.1019  -24.1813   19.2204 H   0  0  0  0  0  0
  -28.7342  -16.4370   20.7326 H   0  0  0  0  0  0
  1 25  1  0  0  0
  1 30  2  0  0  0
  1 84  1  0  0  0
  2  3  1  0  0  0
  2 25  1  0  0  0
  2 85  1  0  0  0
  2 86  1  0  0  0
  3  4  1  0  0  0
  3 87  1  0  0  0
  3 88  1  0  0  0
  4  5  1  0  0  0
  4 89  1  0  0  0
  4 90  1  0  0  0
  5  6  1  0  0  0
  5 26  1  0  0  0
  5 91  1  0  0  0
  6 25  1  0  0  0
  6 92  1  0  0  0
  6 93  1  0  0  0
  7  8  2  0  0  0
  7 26  1  0  0  0
  7 29  1  0  0  0
  8  9  1  0  0  0
  8 22  1  0  0  0
  9 10  1  0  0  0
  9 27  2  0  0  0
 10 11  2  0  0  0
 10 15  1  0  0  0
 11 12  1  0  0  0
 11 94  1  0  0  0
 12 13  2  0  0  0
 12 95  1  0  0  0
 13 14  1  0  0  0
 13 31  1  0  0  0
 14 15  2  0  0  0
 14 96  1  0  0  0
 15 97  1  0  0  0
 16 17  2  0  0  0
 16 21  1  0  0  0
 16 31  1  0  0  0
 17 18  1  0  0  0
 17 98  1  0  0  0
 18 19  2  0  0  0
 18 99  1  0  0  0
 19 20  1  0  0  0
 19 24  1  0  0  0
 20 21  2  0  0  0
 20100  1  0  0  0
 21 23  1  0  0  0
 22 28  1  0  0  0
 22 32  2  0  0  0
 26 27  1  0  0  0
 28101  1  0  0  0
 28102  1  0  0  0
 29103  1  0  0  0
 29104  1  0  0  0
 33 34  1  0  0  0
 33 66  1  0  0  0
 33 70  2  0  0  0
 34 36  1  0  0  0
 34 59  1  0  0  0
 34105  1  0  0  0
 35 44  2  0  0  0
 35 45  1  0  0  0
 35 68  1  0  0  0
 36 56  1  0  0  0
 36106  1  0  0  0
 37 39  1  0  0  0
 37 47  1  0  0  0
 37 66  1  0  0  0
 37107  1  0  0  0
 38 43  2  0  0  0
 38 46  1  0  0  0
 38 47  1  0  0  0
 39 64  1  0  0  0
 39 67  2  0  0  0
 40 52  1  0  0  0
 40 53  2  0  0  0
 40 58  1  0  0  0
 41108  1  0  0  0
 41109  1  0  0  0
 41110  1  0  0  0
 41 48  1  0  0  0
 42 43  1  0  0  0
 42 66  1  0  0  0
 42111  1  0  0  0
 42112  1  0  0  0
 43 44  1  0  0  0
 44113  1  0  0  0
 45 46  2  0  0  0
 45114  1  0  0  0
 46115  1  0  0  0
 47116  1  0  0  0
 47117  1  0  0  0
 48 56  1  0  0  0
 48 65  1  0  0  0
 48118  1  0  0  0
 49 50  1  0  0  0
 49 53  1  0  0  0
 49 64  1  0  0  0
 49119  1  0  0  0
 50 51  1  0  0  0
 50120  1  0  0  0
 50121  1  0  0  0
 51 52  1  0  0  0
 51122  1  0  0  0
 51123  1  0  0  0
 52124  1  0  0  0
 52125  1  0  0  0
 53 54  1  0  0  0
 54 55  2  0  0  0
 54126  1  0  0  0
 55 57  1  0  0  0
 55127  1  0  0  0
 56 69  2  0  0  0
 57 58  2  0  0  0
 57128  1  0  0  0
 58129  1  0  0  0
 59 60  1  0  0  0
 59 61  1  0  0  0
 59 62  1  0  0  0
 60130  1  0  0  0
 60131  1  0  0  0
 60132  1  0  0  0
 61133  1  0  0  0
 61134  1  0  0  0
 61135  1  0  0  0
 62136  1  0  0  0
 62137  1  0  0  0
 62138  1  0  0  0
 63 65  1  0  0  0
 63139  1  0  0  0
 63140  1  0  0  0
 63141  1  0  0  0
 64142  1  0  0  0
 65143  1  0  0  0
 68 82  1  0  0  0
 71 73  2  0  0  0
 71 74  1  0  0  0
 71144  1  0  0  0
 72 73  1  0  0  0
 72 76  2  0  0  0
 72145  1  0  0  0
 73 83  1  0  0  0
 74 75  2  0  0  0
 74 81  1  0  0  0
 75 76  1  0  0  0
 75 77  1  0  0  0
 76 84  1  0  0  0
 77146  1  0  0  0
 77147  1  0  0  0
 77148  1  0  0  0
 78149  1  0  0  0
 78150  1  0  0  0
 78151  1  0  0  0
 78 83  1  0  0  0
 79 83  1  0  0  0
 79152  1  0  0  0
 79153  1  0  0  0
 79154  1  0  0  0
 80 83  1  0  0  0
 80155  1  0  0  0
 80156  1  0  0  0
 80157  1  0  0  0
 81 82  1  0  0  0
 81158  1  0  0  0
 81159  1  0  0  0
 82160  1  0  0  0
 82161  1  0  0  0
 84162  1  0  0  0
M  ISO  4   1 100  68 101  82 101  84 100
M  END
> <chiral flag>
0

> <version>
0

> <s_m_source_file>
/data/baiqing/PycharmProjects/Reinvent-master-3.2/result/LINK_invent/BTK/process_docking_weight1_custom_sum_contain_oxygen_bond_distance_aromatic_linkinvent_7_9_3/rearranged_h_0019.sdf

> <i_m_source_file_index>
21

> <r_mmod_Potential_Energy-OPLS-2005>
1412.44409179688

> <r_mmod_Stretch_Energy-OPLS-2005>
670.06787109375

> <r_mmod_Bend_Energy-OPLS-2005>
476.613647460938

> <r_mmod_Torsional_Energy-OPLS-2005>
225.382553100586

> <r_mmod_Improper_Torsional_Energy-OPLS-2005>
5.82283115386963

> <r_mmod_Van_der_Waal_Energy-OPLS-2005>
128.114669799805

> <r_mmod_Electrostatic_Energy-OPLS-2005>
-414.846557617188

> <r_mmod_Solvation_Energy-OPLS-2005>
-201.488540649414

> <b_mmod_Minimization_Converged-OPLS-2005>
0

> <r_mmod_RMS_Derivative-OPLS-2005>
6.1108603477478

$$$$
21
                    3D
 Structure written by MMmdl.
165173  0  0  1  0            999 V2000
  -30.5398  -14.7469   20.4940 C   0  0  0  0  0  0
  -30.4566  -12.4588   19.4635 C   0  0  0  0  0  0
  -29.5152  -12.5103   18.2357 C   0  0  0  0  0  0
  -28.0411  -12.3238   18.6519 C   0  0  0  0  0  0
  -27.6500  -13.2098   19.8618 C   0  0  2  0  0  0
  -28.6949  -13.0820   20.9927 C   0  0  0  0  0  0
  -25.2520  -13.8097   20.5531 C   0  0  0  0  0  0
  -24.1813  -13.0398   20.9176 C   0  0  0  0  0  0
  -24.6394  -11.6874   20.8791 C   0  0  0  0  0  0
  -23.9055  -10.4269   21.0459 C   0  0  0  0  0  0
  -24.3600   -9.4173   21.9225 C   0  0  0  0  0  0
  -23.6273   -8.2207   22.0767 C   0  0  0  0  0  0
  -22.4260   -8.0260   21.3541 C   0  0  0  0  0  0
  -21.9905   -9.0245   20.4649 C   0  0  0  0  0  0
  -22.7235  -10.2129   20.3088 C   0  0  0  0  0  0
  -21.6839   -6.0721   22.5281 C   0  0  0  0  0  0
  -21.4004   -6.5630   23.8213 C   0  0  0  0  0  0
  -21.3663   -5.6787   24.9180 C   0  0  0  0  0  0
  -21.6044   -4.3048   24.7234 C   0  0  0  0  0  0
  -21.8818   -3.8137   23.4354 C   0  0  0  0  0  0
  -21.9185   -4.6950   22.3407 C   0  0  0  0  0  0
  -22.7840  -13.5221   21.1831 C   0  0  0  0  0  0
  -22.1650   -4.2137   21.0981 F   0  0  0  0  0  0
  -21.5638   -3.4532   25.7747 F   0  0  0  0  0  0
  -29.9993  -13.4786   20.4338 N   0  0  0  0  0  0
  -26.2970  -12.9289   20.3300 N   0  0  0  0  0  0
  -25.9330  -11.6462   20.5839 N   0  0  0  0  0  0
  -22.0484  -12.8235   22.0409 N   0  0  0  0  0  0
  -25.4124  -15.1762   20.3615 N   0  0  0  0  0  0
  -31.6964  -14.9504   20.1113 O   0  0  0  0  0  0
  -21.6615   -6.8861   21.4239 O   0  0  0  0  0  0
  -22.3535  -14.5530   20.6679 O   0  0  0  0  0  0
  -24.6297  -31.8556   23.1987 C   0  0  0  0  0  0
  -25.9126  -32.4773   23.8322 C   0  0  1  0  0  0
  -27.2283  -27.2764   20.1314 C   0  0  0  0  0  0
  -25.5917  -33.8567   24.2253 N   0  0  0  0  0  0
  -23.4274  -30.4738   21.5417 C   0  0  2  0  0  0
  -24.8773  -28.9160   20.1158 C   0  0  0  0  0  0
  -22.7492  -29.4582   22.4926 C   0  0  0  0  0  0
  -18.0282  -28.1373   22.8479 C   0  0  0  0  0  0
  -24.1489  -36.7276   23.2648 C   0  0  0  0  0  0
  -25.9703  -30.7718   21.3768 C   0  0  0  0  0  0
  -26.0480  -29.3932   20.7214 C   0  0  0  0  0  0
  -27.2302  -28.5881   20.7125 C   0  0  0  0  0  0
  -26.0359  -26.8520   19.5106 C   0  0  0  0  0  0
  -24.8743  -27.6521   19.5005 C   0  0  0  0  0  0
  -23.6483  -29.8051   20.1588 C   0  0  0  0  0  0
  -25.4123  -36.3066   24.0319 C   0  0  1  0  0  0
  -20.5876  -28.3679   23.1259 C   0  0  2  0  0  0
  -20.6783  -26.9402   22.5393 C   0  0  0  0  0  0
  -19.5762  -26.6376   21.5193 C   0  0  0  0  0  0
  -18.1933  -26.7918   22.1602 C   0  0  0  0  0  0
  -19.1530  -28.8840   23.2866 C   0  0  0  0  0  0
  -18.9480  -30.1441   23.8880 C   0  0  0  0  0  0
  -17.6487  -30.6590   24.0542 C   0  0  0  0  0  0
  -25.9062  -34.9441   23.5089 C   0  0  0  0  0  0
  -16.5369  -29.9088   23.6320 C   0  0  0  0  0  0
  -16.7276  -28.6496   23.0356 C   0  0  0  0  0  0
  -26.4496  -31.6605   25.0712 C   0  0  0  0  0  0
  -25.3717  -31.3742   26.1434 C   0  0  0  0  0  0
  -27.0372  -30.3040   24.6190 C   0  0  0  0  0  0
  -27.6030  -32.4375   25.7487 C   0  0  0  0  0  0
  -27.5583  -37.1792   24.8473 C   0  0  0  0  0  0
  -21.4197  -29.3040   22.3670 N   0  0  0  0  0  0
  -26.4297  -37.3766   23.9411 N   0  0  0  0  0  0
  -24.6944  -31.0508   22.0966 N   0  0  0  0  0  0
  -23.4192  -28.8122   23.3039 O   0  0  0  0  0  0
  -28.3374  -26.4084   20.1148 O   0  0  0  0  0  0
  -26.5642  -34.8913   22.4663 O   0  0  0  0  0  0
  -23.5448  -32.1375   23.7283 O   0  0  0  0  0  0
  -29.9979  -18.2144   20.2020 C   0  0  0  0  0  0
  -29.2140  -19.4129   20.5371 C   0  0  0  0  0  0
  -29.4693  -17.1205   20.8893 C   0  0  0  0  0  0
  -28.1245  -21.6080   23.2642 C   0  0  0  0  0  0
  -27.2030  -17.8039   23.8073 C   0  0  0  0  0  0
  -30.2688  -22.5412   21.5543 C   0  0  0  0  0  0
  -29.1502  -20.9035   19.9481 C   0  0  0  0  0  0
  -27.7558  -22.0716   21.8420 C   0  0  0  0  0  0
  -28.6277  -23.6536   19.9836 C   0  0  0  0  0  0
  -27.4726  -17.0219   22.5115 C   0  0  0  0  0  0
  -28.2073  -25.0450   20.7223 C   0  0  0  0  0  0
  -28.9310  -22.2752   20.8296 C   0  0  1  0  0  0
  -28.2472  -19.0034   21.3545 N   0  0  0  0  0  0
  -28.4293  -17.6779   21.6250 N   0  0  0  0  0  0
  -29.6548  -15.7245   20.9050 N   0  0  0  0  0  0
  -31.2760  -18.1590   19.0423 Cl  0  0  0  0  0  0
  -31.4881  -12.6304   19.1525 H   0  0  0  0  0  0
  -30.4428  -11.4680   19.9213 H   0  0  0  0  0  0
  -29.7978  -11.7430   17.5142 H   0  0  0  0  0  0
  -29.6306  -13.4668   17.7255 H   0  0  0  0  0  0
  -27.9038  -11.2731   18.9123 H   0  0  0  0  0  0
  -27.3790  -12.5149   17.8070 H   0  0  0  0  0  0
  -27.6614  -14.2388   19.5035 H   0  0  0  0  0  0
  -28.7371  -12.0552   21.3611 H   0  0  0  0  0  0
  -28.4164  -13.6881   21.8548 H   0  0  0  0  0  0
  -25.2742   -9.5633   22.4809 H   0  0  0  0  0  0
  -23.9980   -7.4586   22.7477 H   0  0  0  0  0  0
  -21.0842   -8.8760   19.8944 H   0  0  0  0  0  0
  -22.3695  -10.9673   19.6202 H   0  0  0  0  0  0
  -21.1984   -7.6136   23.9717 H   0  0  0  0  0  0
  -21.1495   -6.0513   25.9083 H   0  0  0  0  0  0
  -22.0597   -2.7598   23.2858 H   0  0  0  0  0  0
  -22.4093  -11.9898   22.4806 H   0  0  0  0  0  0
  -21.1136  -13.1310   22.2673 H   0  0  0  0  0  0
  -24.6082  -15.7942   20.3665 H   0  0  0  0  0  0
  -26.2165  -15.5863   19.9062 H   0  0  0  0  0  0
  -26.7191  -32.5424   23.1053 H   0  0  0  0  0  0
  -25.0021  -33.9674   25.0376 H   0  0  0  0  0  0
  -22.7256  -31.2960   21.3940 H   0  0  0  0  0  0
  -23.3748  -35.9618   23.3317 H   0  0  0  0  0  0
  -24.3565  -36.8897   22.2062 H   0  0  0  0  0  0
  -23.7237  -37.6470   23.6685 H   0  0  0  0  0  0
  -26.1064  -31.5346   20.6091 H   0  0  0  0  0  0
  -26.8471  -30.8195   22.0097 H   0  0  0  0  0  0
  -28.1341  -28.9528   21.1814 H   0  0  0  0  0  0
  -25.9978  -25.8791   19.0398 H   0  0  0  0  0  0
  -23.9773  -27.2795   19.0253 H   0  0  0  0  0  0
  -23.7778  -30.5817   19.4045 H   0  0  0  0  0  0
  -22.7674  -29.2401   19.8513 H   0  0  0  0  0  0
  -25.1300  -36.1906   25.0811 H   0  0  0  0  0  0
  -20.9949  -28.3265   24.1376 H   0  0  0  0  0  0
  -20.5682  -26.2284   23.3602 H   0  0  0  0  0  0
  -21.6655  -26.7446   22.1182 H   0  0  0  0  0  0
  -19.6926  -25.6274   21.1242 H   0  0  0  0  0  0
  -19.6700  -27.3167   20.6708 H   0  0  0  0  0  0
  -17.4202  -26.6641   21.4005 H   0  0  0  0  0  0
  -18.0344  -26.0060   22.8999 H   0  0  0  0  0  0
  -19.7972  -30.7237   24.2259 H   0  0  0  0  0  0
  -17.5063  -31.6275   24.5142 H   0  0  0  0  0  0
  -15.5371  -30.3002   23.7677 H   0  0  0  0  0  0
  -15.8663  -28.0827   22.7090 H   0  0  0  0  0  0
  -24.5866  -30.7121   25.7758 H   0  0  0  0  0  0
  -24.8928  -32.2915   26.4885 H   0  0  0  0  0  0
  -25.8018  -30.8894   27.0209 H   0  0  0  0  0  0
  -26.2954  -29.6743   24.1265 H   0  0  0  0  0  0
  -27.4125  -29.7334   25.4691 H   0  0  0  0  0  0
  -27.8795  -30.4335   23.9385 H   0  0  0  0  0  0
  -27.2614  -33.3683   26.2030 H   0  0  0  0  0  0
  -28.3849  -32.6934   25.0324 H   0  0  0  0  0  0
  -28.0699  -31.8536   26.5429 H   0  0  0  0  0  0
  -28.2594  -38.0102   24.7520 H   0  0  0  0  0  0
  -28.1067  -36.2610   24.6296 H   0  0  0  0  0  0
  -27.2274  -37.1436   25.8870 H   0  0  0  0  0  0
  -20.9402  -29.8776   21.6873 H   0  0  0  0  0  0
  -26.0160  -38.2825   24.1449 H   0  0  0  0  0  0
  -28.7500  -20.7180   23.2655 H   0  0  0  0  0  0
  -27.2228  -21.3765   23.8332 H   0  0  0  0  0  0
  -28.6580  -22.3865   23.8106 H   0  0  0  0  0  0
  -26.4644  -17.2844   24.4187 H   0  0  0  0  0  0
  -26.8090  -18.7991   23.6019 H   0  0  0  0  0  0
  -28.1103  -17.9137   24.4010 H   0  0  0  0  0  0
  -30.5957  -21.6805   22.1389 H   0  0  0  0  0  0
  -30.2065  -23.3950   22.2292 H   0  0  0  0  0  0
  -31.0655  -22.7564   20.8404 H   0  0  0  0  0  0
  -28.3459  -20.8995   19.2119 H   0  0  0  0  0  0
  -30.0432  -21.0520   19.3400 H   0  0  0  0  0  0
  -27.1865  -22.9860   21.9812 H   0  0  0  0  0  0
  -27.0298  -21.3800   21.4117 H   0  0  0  0  0  0
  -29.5088  -23.8682   19.3780 H   0  0  0  0  0  0
  -27.8488  -23.4385   19.2518 H   0  0  0  0  0  0
  -26.5378  -16.9004   21.9687 H   0  0  0  0  0  0
  -27.8272  -16.0220   22.7607 H   0  0  0  0  0  0
  -28.8007  -25.1113   21.6325 H   0  0  0  0  0  0
  -27.1840  -24.9405   21.0795 H   0  0  0  0  0  0
  -28.8429  -15.2661   21.2826 H   0  0  0  0  0  0
  1 25  1  0  0  0
  1 30  2  0  0  0
  1 85  1  0  0  0
  2  3  1  0  0  0
  2 25  1  0  0  0
  2 87  1  0  0  0
  2 88  1  0  0  0
  3  4  1  0  0  0
  3 89  1  0  0  0
  3 90  1  0  0  0
  4  5  1  0  0  0
  4 91  1  0  0  0
  4 92  1  0  0  0
  5  6  1  0  0  0
  5 26  1  0  0  0
  5 93  1  0  0  0
  6 25  1  0  0  0
  6 94  1  0  0  0
  6 95  1  0  0  0
  7  8  2  0  0  0
  7 26  1  0  0  0
  7 29  1  0  0  0
  8  9  1  0  0  0
  8 22  1  0  0  0
  9 10  1  0  0  0
  9 27  2  0  0  0
 10 11  2  0  0  0
 10 15  1  0  0  0
 11 12  1  0  0  0
 11 96  1  0  0  0
 12 13  2  0  0  0
 12 97  1  0  0  0
 13 14  1  0  0  0
 13 31  1  0  0  0
 14 15  2  0  0  0
 14 98  1  0  0  0
 15 99  1  0  0  0
 16 17  2  0  0  0
 16 21  1  0  0  0
 16 31  1  0  0  0
 17 18  1  0  0  0
 17100  1  0  0  0
 18 19  2  0  0  0
 18101  1  0  0  0
 19 20  1  0  0  0
 19 24  1  0  0  0
 20 21  2  0  0  0
 20102  1  0  0  0
 21 23  1  0  0  0
 22 28  1  0  0  0
 22 32  2  0  0  0
 26 27  1  0  0  0
 28103  1  0  0  0
 28104  1  0  0  0
 29105  1  0  0  0
 29106  1  0  0  0
 33 34  1  0  0  0
 33 66  1  0  0  0
 33 70  2  0  0  0
 34 36  1  0  0  0
 34 59  1  0  0  0
 34107  1  0  0  0
 35 44  2  0  0  0
 35 45  1  0  0  0
 35 68  1  0  0  0
 36 56  1  0  0  0
 36108  1  0  0  0
 37 39  1  0  0  0
 37 47  1  0  0  0
 37 66  1  0  0  0
 37109  1  0  0  0
 38 43  2  0  0  0
 38 46  1  0  0  0
 38 47  1  0  0  0
 39 64  1  0  0  0
 39 67  2  0  0  0
 40 52  1  0  0  0
 40 53  2  0  0  0
 40 58  1  0  0  0
 41110  1  0  0  0
 41111  1  0  0  0
 41112  1  0  0  0
 41 48  1  0  0  0
 42 43  1  0  0  0
 42 66  1  0  0  0
 42113  1  0  0  0
 42114  1  0  0  0
 43 44  1  0  0  0
 44115  1  0  0  0
 45 46  2  0  0  0
 45116  1  0  0  0
 46117  1  0  0  0
 47118  1  0  0  0
 47119  1  0  0  0
 48 56  1  0  0  0
 48 65  1  0  0  0
 48120  1  0  0  0
 49 50  1  0  0  0
 49 53  1  0  0  0
 49 64  1  0  0  0
 49121  1  0  0  0
 50 51  1  0  0  0
 50122  1  0  0  0
 50123  1  0  0  0
 51 52  1  0  0  0
 51124  1  0  0  0
 51125  1  0  0  0
 52126  1  0  0  0
 52127  1  0  0  0
 53 54  1  0  0  0
 54 55  2  0  0  0
 54128  1  0  0  0
 55 57  1  0  0  0
 55129  1  0  0  0
 56 69  2  0  0  0
 57 58  2  0  0  0
 57130  1  0  0  0
 58131  1  0  0  0
 59 60  1  0  0  0
 59 61  1  0  0  0
 59 62  1  0  0  0
 60132  1  0  0  0
 60133  1  0  0  0
 60134  1  0  0  0
 61135  1  0  0  0
 61136  1  0  0  0
 61137  1  0  0  0
 62138  1  0  0  0
 62139  1  0  0  0
 62140  1  0  0  0
 63 65  1  0  0  0
 63141  1  0  0  0
 63142  1  0  0  0
 63143  1  0  0  0
 64144  1  0  0  0
 65145  1  0  0  0
 68 81  1  0  0  0
 71 72  1  0  0  0
 71 73  2  0  0  0
 71 86  1  0  0  0
 72 77  1  0  0  0
 72 83  2  0  0  0
 73 84  1  0  0  0
 73 85  1  0  0  0
 74 78  1  0  0  0
 74146  1  0  0  0
 74147  1  0  0  0
 74148  1  0  0  0
 75 80  1  0  0  0
 75149  1  0  0  0
 75150  1  0  0  0
 75151  1  0  0  0
 76152  1  0  0  0
 76153  1  0  0  0
 76154  1  0  0  0
 76 82  1  0  0  0
 77 82  1  0  0  0
 77155  1  0  0  0
 77156  1  0  0  0
 78 82  1  0  0  0
 78157  1  0  0  0
 78158  1  0  0  0
 79 81  1  0  0  0
 79 82  1  0  0  0
 79159  1  0  0  0
 79160  1  0  0  0
 80 84  1  0  0  0
 80161  1  0  0  0
 80162  1  0  0  0
 81163  1  0  0  0
 81164  1  0  0  0
 83 84  1  0  0  0
 85165  1  0  0  0
M  ISO  4   1 100  68 101  81 101  85 100
M  END
> <chiral flag>
0

> <version>
0

> <s_m_source_file>
/data/baiqing/PycharmProjects/Reinvent-master-3.2/result/LINK_invent/BTK/process_docking_weight1_custom_sum_contain_oxygen_bond_distance_aromatic_linkinvent_7_9_3/rearranged_h_0019.sdf

> <i_m_source_file_index>
22

> <r_mmod_Potential_Energy-OPLS-2005>
236.798690795898

> <r_mmod_Stretch_Energy-OPLS-2005>
130.206848144531

> <r_mmod_Bend_Energy-OPLS-2005>
240.166229248047

> <r_mmod_Torsional_Energy-OPLS-2005>
266.959136962891

> <r_mmod_Improper_Torsional_Energy-OPLS-2005>
6.28603601455688

> <r_mmod_Van_der_Waal_Energy-OPLS-2005>
113.27604675293

> <r_mmod_Electrostatic_Energy-OPLS-2005>
-393.997039794922

> <r_mmod_Solvation_Energy-OPLS-2005>
-206.650390625

> <b_mmod_Minimization_Converged-OPLS-2005>
0

> <r_mmod_RMS_Derivative-OPLS-2005>
2.43983435630798

$$$$
22
                    3D
 Structure written by MMmdl.
153161  0  0  1  0            999 V2000
  -30.6515  -14.6684   20.4757 C   0  0  0  0  0  0
  -30.4296  -12.4066   19.4704 C   0  0  0  0  0  0
  -29.5093  -12.5066   18.2346 C   0  0  0  0  0  0
  -28.0325  -12.3470   18.6437 C   0  0  0  0  0  0
  -27.6502  -13.2296   19.8631 C   0  0  2  0  0  0
  -28.6949  -13.1325   20.9983 C   0  0  0  0  0  0
  -25.2538  -13.8197   20.5717 C   0  0  0  0  0  0
  -24.1821  -13.0447   20.9199 C   0  0  0  0  0  0
  -24.6400  -11.6922   20.8744 C   0  0  0  0  0  0
  -23.9073  -10.4301   21.0399 C   0  0  0  0  0  0
  -24.3620   -9.4213   21.9176 C   0  0  0  0  0  0
  -23.6294   -8.2248   22.0748 C   0  0  0  0  0  0
  -22.4275   -8.0279   21.3536 C   0  0  0  0  0  0
  -21.9910   -9.0262   20.4641 C   0  0  0  0  0  0
  -22.7242  -10.2139   20.3050 C   0  0  0  0  0  0
  -21.6853   -6.0728   22.5277 C   0  0  0  0  0  0
  -21.4017   -6.5637   23.8210 C   0  0  0  0  0  0
  -21.3665   -5.6788   24.9176 C   0  0  0  0  0  0
  -21.6045   -4.3052   24.7219 C   0  0  0  0  0  0
  -21.8826   -3.8140   23.4345 C   0  0  0  0  0  0
  -21.9193   -4.6958   22.3396 C   0  0  0  0  0  0
  -22.7833  -13.5226   21.1848 C   0  0  0  0  0  0
  -22.1660   -4.2137   21.0976 F   0  0  0  0  0  0
  -21.5635   -3.4541   25.7738 F   0  0  0  0  0  0
  -30.0073  -13.4567   20.4241 N   0  0  0  0  0  0
  -26.2980  -12.9409   20.3340 N   0  0  0  0  0  0
  -25.9332  -11.6551   20.5760 N   0  0  0  0  0  0
  -22.0484  -12.8215   22.0409 N   0  0  0  0  0  0
  -25.4239  -15.1921   20.4140 N   0  0  0  0  0  0
  -31.8227  -14.7694   20.1040 O   0  0  0  0  0  0
  -21.6645   -6.8875   21.4232 O   0  0  0  0  0  0
  -22.3511  -14.5529   20.6691 O   0  0  0  0  0  0
  -24.6279  -31.8587   23.2029 C   0  0  0  0  0  0
  -25.9120  -32.4778   23.8365 C   0  0  1  0  0  0
  -27.2233  -27.2997   20.1132 C   0  0  0  0  0  0
  -25.5921  -33.8580   24.2278 N   0  0  0  0  0  0
  -23.4232  -30.4837   21.5448 C   0  0  2  0  0  0
  -24.8725  -28.9459   20.1024 C   0  0  0  0  0  0
  -22.7500  -29.4610   22.4924 C   0  0  0  0  0  0
  -18.0284  -28.1389   22.8493 C   0  0  0  0  0  0
  -24.1488  -36.7289   23.2641 C   0  0  0  0  0  0
  -25.9674  -30.7843   21.3812 C   0  0  0  0  0  0
  -26.0398  -29.4115   20.7190 C   0  0  0  0  0  0
  -27.2148  -28.5967   20.7220 C   0  0  0  0  0  0
  -26.0370  -26.9148   19.4414 C   0  0  0  0  0  0
  -24.8759  -27.7071   19.4497 C   0  0  0  0  0  0
  -23.6390  -29.8237   20.1576 C   0  0  0  0  0  0
  -25.4114  -36.3086   24.0329 C   0  0  1  0  0  0
  -20.5893  -28.3686   23.1289 C   0  0  2  0  0  0
  -20.6768  -26.9410   22.5414 C   0  0  0  0  0  0
  -19.5738  -26.6388   21.5217 C   0  0  0  0  0  0
  -18.1924  -26.7933   22.1639 C   0  0  0  0  0  0
  -19.1541  -28.8859   23.2885 C   0  0  0  0  0  0
  -18.9454  -30.1470   23.8894 C   0  0  0  0  0  0
  -17.6449  -30.6592   24.0562 C   0  0  0  0  0  0
  -25.9049  -34.9452   23.5104 C   0  0  0  0  0  0
  -16.5343  -29.9083   23.6336 C   0  0  0  0  0  0
  -16.7270  -28.6504   23.0351 C   0  0  0  0  0  0
  -26.4499  -31.6596   25.0742 C   0  0  0  0  0  0
  -25.3723  -31.3731   26.1458 C   0  0  0  0  0  0
  -27.0339  -30.3014   24.6211 C   0  0  0  0  0  0
  -27.6055  -32.4335   25.7507 C   0  0  0  0  0  0
  -27.5573  -37.1806   24.8466 C   0  0  0  0  0  0
  -21.4208  -29.3031   22.3678 N   0  0  0  0  0  0
  -26.4289  -37.3773   23.9412 N   0  0  0  0  0  0
  -24.6909  -31.0595   22.0983 N   0  0  0  0  0  0
  -23.4219  -28.8140   23.2997 O   0  0  0  0  0  0
  -28.3288  -26.4261   20.2017 O   0  0  0  0  0  0
  -26.5623  -34.8913   22.4670 O   0  0  0  0  0  0
  -23.5438  -32.1392   23.7344 O   0  0  0  0  0  0
  -27.8607  -19.5014   22.3741 C   0  0  0  0  0  0
  -29.4724  -18.4910   20.8296 C   0  0  0  0  0  0
  -28.8168  -20.9599   20.6365 C   0  0  0  0  0  0
  -28.6093  -18.3919   21.9409 C   0  0  0  0  0  0
  -27.9346  -20.7524   21.7283 C   0  0  0  0  0  0
  -29.5764  -19.7972   20.2016 C   0  0  0  0  0  0
  -28.7600  -22.3389   19.8436 C   0  0  0  0  0  0
  -30.2983  -17.2226   20.3546 C   0  0  0  0  0  0
  -28.9767  -23.7950   20.5052 C   0  0  0  0  0  0
  -28.1977  -24.9984   19.7885 C   0  0  0  0  0  0
  -29.9097  -15.7997   20.7191 N   0  0  0  0  0  0
  -28.4753  -17.2181   22.6055 F   0  0  0  0  0  0
  -26.8480  -21.9869   22.2648 Cl  0  0  0  0  0  0
  -30.6309  -19.9546   18.8378 Cl  0  0  0  0  0  0
  -31.4742  -12.5123   19.1680 H   0  0  0  0  0  0
  -30.3496  -11.4206   19.9339 H   0  0  0  0  0  0
  -29.7767  -11.7490   17.4972 H   0  0  0  0  0  0
  -29.6512  -13.4731   17.7486 H   0  0  0  0  0  0
  -27.8679  -11.2961   18.8799 H   0  0  0  0  0  0
  -27.3811  -12.5716   17.7971 H   0  0  0  0  0  0
  -27.6550  -14.2594   19.5052 H   0  0  0  0  0  0
  -28.7083  -12.1307   21.4315 H   0  0  0  0  0  0
  -28.4429  -13.8132   21.8137 H   0  0  0  0  0  0
  -25.2761   -9.5699   22.4753 H   0  0  0  0  0  0
  -24.0012   -7.4642   22.7467 H   0  0  0  0  0  0
  -21.0842   -8.8776   19.8949 H   0  0  0  0  0  0
  -22.3691  -10.9678   19.6168 H   0  0  0  0  0  0
  -21.2011   -7.6145   23.9708 H   0  0  0  0  0  0
  -21.1481   -6.0519   25.9072 H   0  0  0  0  0  0
  -22.0598   -2.7602   23.2847 H   0  0  0  0  0  0
  -22.4102  -11.9882   22.4820 H   0  0  0  0  0  0
  -21.1096  -13.1227   22.2617 H   0  0  0  0  0  0
  -24.6592  -15.8470   20.5368 H   0  0  0  0  0  0
  -26.2791  -15.6353   20.1047 H   0  0  0  0  0  0
  -26.7187  -32.5455   23.1120 H   0  0  0  0  0  0
  -25.0063  -33.9724   25.0414 H   0  0  0  0  0  0
  -22.7165  -31.3035   21.4025 H   0  0  0  0  0  0
  -23.3752  -35.9621   23.3319 H   0  0  0  0  0  0
  -24.3565  -36.8893   22.2049 H   0  0  0  0  0  0
  -23.7243  -37.6493   23.6653 H   0  0  0  0  0  0
  -26.1045  -31.5516   20.6175 H   0  0  0  0  0  0
  -26.8453  -30.8307   22.0136 H   0  0  0  0  0  0
  -28.1047  -28.9443   21.2267 H   0  0  0  0  0  0
  -25.9600  -25.9898   18.8948 H   0  0  0  0  0  0
  -23.9888  -27.3610   18.9373 H   0  0  0  0  0  0
  -23.7508  -30.6010   19.4000 H   0  0  0  0  0  0
  -22.7623  -29.2462   19.8582 H   0  0  0  0  0  0
  -25.1300  -36.1936   25.0822 H   0  0  0  0  0  0
  -20.9981  -28.3250   24.1412 H   0  0  0  0  0  0
  -20.5666  -26.2293   23.3607 H   0  0  0  0  0  0
  -21.6633  -26.7431   22.1211 H   0  0  0  0  0  0
  -19.6896  -25.6297   21.1246 H   0  0  0  0  0  0
  -19.6680  -27.3205   20.6751 H   0  0  0  0  0  0
  -17.4196  -26.6686   21.4043 H   0  0  0  0  0  0
  -18.0328  -26.0071   22.9031 H   0  0  0  0  0  0
  -19.7921  -30.7294   24.2263 H   0  0  0  0  0  0
  -17.4991  -31.6270   24.5160 H   0  0  0  0  0  0
  -15.5342  -30.2976   23.7648 H   0  0  0  0  0  0
  -15.8674  -28.0813   22.7063 H   0  0  0  0  0  0
  -24.5916  -30.7058   25.7784 H   0  0  0  0  0  0
  -24.8895  -32.2889   26.4872 H   0  0  0  0  0  0
  -25.8047  -30.8922   27.0240 H   0  0  0  0  0  0
  -26.2914  -29.6770   24.1224 H   0  0  0  0  0  0
  -27.4005  -29.7270   25.4730 H   0  0  0  0  0  0
  -27.8804  -30.4290   23.9458 H   0  0  0  0  0  0
  -27.2669  -33.3641   26.2072 H   0  0  0  0  0  0
  -28.3870  -32.6884   25.0337 H   0  0  0  0  0  0
  -28.0720  -31.8469   26.5432 H   0  0  0  0  0  0
  -28.2609  -38.0085   24.7497 H   0  0  0  0  0  0
  -28.1054  -36.2618   24.6325 H   0  0  0  0  0  0
  -27.2286  -37.1489   25.8866 H   0  0  0  0  0  0
  -20.9389  -29.8760   21.6895 H   0  0  0  0  0  0
  -26.0178  -38.2853   24.1398 H   0  0  0  0  0  0
  -27.1829  -19.3747   23.2053 H   0  0  0  0  0  0
  -27.7651  -22.3431   19.3982 H   0  0  0  0  0  0
  -29.4224  -22.2828   18.9831 H   0  0  0  0  0  0
  -31.3245  -17.3845   20.6857 H   0  0  0  0  0  0
  -30.3421  -17.2497   19.2656 H   0  0  0  0  0  0
  -30.0444  -24.0139   20.5423 H   0  0  0  0  0  0
  -28.6588  -23.7831   21.5445 H   0  0  0  0  0  0
  -27.1615  -24.6774   19.8661 H   0  0  0  0  0  0
  -28.4422  -24.9711   18.7257 H   0  0  0  0  0  0
  -28.9717  -15.6667   21.0665 H   0  0  0  0  0  0
  1 25  1  0  0  0
  1 30  2  0  0  0
  1 81  1  0  0  0
  2  3  1  0  0  0
  2 25  1  0  0  0
  2 85  1  0  0  0
  2 86  1  0  0  0
  3  4  1  0  0  0
  3 87  1  0  0  0
  3 88  1  0  0  0
  4  5  1  0  0  0
  4 89  1  0  0  0
  4 90  1  0  0  0
  5  6  1  0  0  0
  5 26  1  0  0  0
  5 91  1  0  0  0
  6 25  1  0  0  0
  6 92  1  0  0  0
  6 93  1  0  0  0
  7  8  2  0  0  0
  7 26  1  0  0  0
  7 29  1  0  0  0
  8  9  1  0  0  0
  8 22  1  0  0  0
  9 10  1  0  0  0
  9 27  2  0  0  0
 10 11  2  0  0  0
 10 15  1  0  0  0
 11 12  1  0  0  0
 11 94  1  0  0  0
 12 13  2  0  0  0
 12 95  1  0  0  0
 13 14  1  0  0  0
 13 31  1  0  0  0
 14 15  2  0  0  0
 14 96  1  0  0  0
 15 97  1  0  0  0
 16 17  2  0  0  0
 16 21  1  0  0  0
 16 31  1  0  0  0
 17 18  1  0  0  0
 17 98  1  0  0  0
 18 19  2  0  0  0
 18 99  1  0  0  0
 19 20  1  0  0  0
 19 24  1  0  0  0
 20 21  2  0  0  0
 20100  1  0  0  0
 21 23  1  0  0  0
 22 28  1  0  0  0
 22 32  2  0  0  0
 26 27  1  0  0  0
 28101  1  0  0  0
 28102  1  0  0  0
 29103  1  0  0  0
 29104  1  0  0  0
 33 34  1  0  0  0
 33 66  1  0  0  0
 33 70  2  0  0  0
 34 36  1  0  0  0
 34 59  1  0  0  0
 34105  1  0  0  0
 35 44  2  0  0  0
 35 45  1  0  0  0
 35 68  1  0  0  0
 36 56  1  0  0  0
 36106  1  0  0  0
 37 39  1  0  0  0
 37 47  1  0  0  0
 37 66  1  0  0  0
 37107  1  0  0  0
 38 43  2  0  0  0
 38 46  1  0  0  0
 38 47  1  0  0  0
 39 64  1  0  0  0
 39 67  2  0  0  0
 40 52  1  0  0  0
 40 53  2  0  0  0
 40 58  1  0  0  0
 41108  1  0  0  0
 41109  1  0  0  0
 41110  1  0  0  0
 41 48  1  0  0  0
 42 43  1  0  0  0
 42 66  1  0  0  0
 42111  1  0  0  0
 42112  1  0  0  0
 43 44  1  0  0  0
 44113  1  0  0  0
 45 46  2  0  0  0
 45114  1  0  0  0
 46115  1  0  0  0
 47116  1  0  0  0
 47117  1  0  0  0
 48 56  1  0  0  0
 48 65  1  0  0  0
 48118  1  0  0  0
 49 50  1  0  0  0
 49 53  1  0  0  0
 49 64  1  0  0  0
 49119  1  0  0  0
 50 51  1  0  0  0
 50120  1  0  0  0
 50121  1  0  0  0
 51 52  1  0  0  0
 51122  1  0  0  0
 51123  1  0  0  0
 52124  1  0  0  0
 52125  1  0  0  0
 53 54  1  0  0  0
 54 55  2  0  0  0
 54126  1  0  0  0
 55 57  1  0  0  0
 55127  1  0  0  0
 56 69  2  0  0  0
 57 58  2  0  0  0
 57128  1  0  0  0
 58129  1  0  0  0
 59 60  1  0  0  0
 59 61  1  0  0  0
 59 62  1  0  0  0
 60130  1  0  0  0
 60131  1  0  0  0
 60132  1  0  0  0
 61133  1  0  0  0
 61134  1  0  0  0
 61135  1  0  0  0
 62136  1  0  0  0
 62137  1  0  0  0
 62138  1  0  0  0
 63 65  1  0  0  0
 63139  1  0  0  0
 63140  1  0  0  0
 63141  1  0  0  0
 64142  1  0  0  0
 65143  1  0  0  0
 68 80  1  0  0  0
 71 74  2  0  0  0
 71 75  1  0  0  0
 71144  1  0  0  0
 72 74  1  0  0  0
 72 76  2  0  0  0
 72 78  1  0  0  0
 73 75  2  0  0  0
 73 76  1  0  0  0
 73 77  1  0  0  0
 74 82  1  0  0  0
 75 83  1  0  0  0
 76 84  1  0  0  0
 77 79  1  0  0  0
 77145  1  0  0  0
 77146  1  0  0  0
 78 81  1  0  0  0
 78147  1  0  0  0
 78148  1  0  0  0
 79 80  1  0  0  0
 79149  1  0  0  0
 79150  1  0  0  0
 80151  1  0  0  0
 80152  1  0  0  0
 81153  1  0  0  0
M  ISO  4   1 100  68 101  80 101  81 100
M  END
> <chiral flag>
0

> <version>
0

> <s_m_source_file>
/data/baiqing/PycharmProjects/Reinvent-master-3.2/result/LINK_invent/BTK/process_docking_weight1_custom_sum_contain_oxygen_bond_distance_aromatic_linkinvent_7_9_3/rearranged_h_0019.sdf

> <i_m_source_file_index>
23

> <r_mmod_Potential_Energy-OPLS-2005>
82.8950805664062

> <r_mmod_Stretch_Energy-OPLS-2005>
103.171325683594

> <r_mmod_Bend_Energy-OPLS-2005>
154.710266113281

> <r_mmod_Torsional_Energy-OPLS-2005>
205.174346923828

> <r_mmod_Improper_Torsional_Energy-OPLS-2005>
6.51431703567505

> <r_mmod_Van_der_Waal_Energy-OPLS-2005>
149.201568603516

> <r_mmod_Electrostatic_Energy-OPLS-2005>
-392.744781494141

> <r_mmod_Solvation_Energy-OPLS-2005>
-203.978759765625

> <b_mmod_Minimization_Converged-OPLS-2005>
0

> <r_mmod_RMS_Derivative-OPLS-2005>
2.36261653900146

$$$$
23
                    3D
 Structure written by MMmdl.
147155  0  0  1  0            999 V2000
  -30.2475  -15.7716   20.3168 C   0  0  0  0  0  0
  -30.4156  -13.1845   19.5377 C   0  0  0  0  0  0
  -29.5549  -12.6881   18.3363 C   0  0  0  0  0  0
  -28.1397  -12.3014   18.7885 C   0  0  0  0  0  0
  -27.5909  -13.3204   19.8100 C   0  0  2  0  0  0
  -28.5994  -13.7111   20.9193 C   0  0  0  0  0  0
  -25.2303  -13.8299   20.5815 C   0  0  0  0  0  0
  -24.1706  -13.0433   20.9297 C   0  0  0  0  0  0
  -24.6425  -11.6949   20.8766 C   0  0  0  0  0  0
  -23.9132  -10.4292   21.0395 C   0  0  0  0  0  0
  -24.3663   -9.4203   21.9178 C   0  0  0  0  0  0
  -23.6318   -8.2248   22.0753 C   0  0  0  0  0  0
  -22.4298   -8.0291   21.3544 C   0  0  0  0  0  0
  -21.9947   -9.0269   20.4644 C   0  0  0  0  0  0
  -22.7296  -10.2136   20.3049 C   0  0  0  0  0  0
  -21.6859   -6.0744   22.5277 C   0  0  0  0  0  0
  -21.4019   -6.5645   23.8212 C   0  0  0  0  0  0
  -21.3657   -5.6795   24.9171 C   0  0  0  0  0  0
  -21.6042   -4.3058   24.7220 C   0  0  0  0  0  0
  -21.8821   -3.8151   23.4341 C   0  0  0  0  0  0
  -21.9196   -4.6971   22.3399 C   0  0  0  0  0  0
  -22.7716  -13.5154   21.1925 C   0  0  0  0  0  0
  -22.1663   -4.2157   21.0976 F   0  0  0  0  0  0
  -21.5625   -3.4541   25.7732 F   0  0  0  0  0  0
  -29.7489  -14.3785   20.2523 N   0  0  0  0  0  0
  -26.2765  -12.9654   20.3254 N   0  0  0  0  0  0
  -25.9376  -11.6710   20.5697 N   0  0  0  0  0  0
  -22.0385  -12.8127   22.0477 N   0  0  0  0  0  0
  -25.3876  -15.2042   20.4254 N   0  0  0  0  0  0
  -31.4876  -15.6912   20.1846 O   0  0  0  0  0  0
  -21.6649   -6.8894   21.4243 O   0  0  0  0  0  0
  -22.3386  -14.5450   20.6757 O   0  0  0  0  0  0
  -24.6936  -31.7879   23.1425 C   0  0  0  0  0  0
  -25.9467  -32.4408   23.8012 C   0  0  1  0  0  0
  -27.2309  -26.5969   20.2254 C   0  0  0  0  0  0
  -25.6001  -33.8239   24.1888 N   0  0  0  0  0  0
  -23.5248  -30.3853   21.4985 C   0  0  2  0  0  0
  -24.9836  -28.7035   20.1215 C   0  0  0  0  0  0
  -22.7815  -29.4252   22.4676 C   0  0  0  0  0  0
  -18.0343  -28.1440   22.8449 C   0  0  0  0  0  0
  -24.1484  -36.7114   23.2658 C   0  0  0  0  0  0
  -26.1106  -30.4856   21.4236 C   0  0  0  0  0  0
  -26.1749  -29.0386   20.7754 C   0  0  0  0  0  0
  -27.2785  -28.0170   20.7908 C   0  0  0  0  0  0
  -26.0047  -26.4976   19.5121 C   0  0  0  0  0  0
  -24.9439  -27.4596   19.4659 C   0  0  0  0  0  0
  -23.7849  -29.6719   20.1389 C   0  0  0  0  0  0
  -25.4143  -36.2856   24.0275 C   0  0  1  0  0  0
  -20.5986  -28.3796   23.1121 C   0  0  2  0  0  0
  -20.6805  -26.9443   22.5407 C   0  0  0  0  0  0
  -19.5781  -26.6373   21.5223 C   0  0  0  0  0  0
  -18.1961  -26.7966   22.1620 C   0  0  0  0  0  0
  -19.1615  -28.8944   23.2763 C   0  0  0  0  0  0
  -18.9523  -30.1526   23.8815 C   0  0  0  0  0  0
  -17.6512  -30.6618   24.0549 C   0  0  0  0  0  0
  -25.9135  -34.9253   23.4925 C   0  0  0  0  0  0
  -16.5399  -29.9099   23.6359 C   0  0  0  0  0  0
  -16.7321  -28.6521   23.0375 C   0  0  0  0  0  0
  -26.4614  -31.6492   25.0677 C   0  0  0  0  0  0
  -25.3646  -31.3844   26.1267 C   0  0  0  0  0  0
  -27.0566  -30.2818   24.6657 C   0  0  0  0  0  0
  -27.6045  -32.4378   25.7499 C   0  0  0  0  0  0
  -27.5551  -37.1714   24.8473 C   0  0  0  0  0  0
  -21.4452  -29.3019   22.3425 N   0  0  0  0  0  0
  -26.4257  -37.3633   23.9412 N   0  0  0  0  0  0
  -24.8011  -30.9221   22.0736 N   0  0  0  0  0  0
  -23.4211  -28.7870   23.3069 O   0  0  0  0  0  0
  -28.1820  -25.3309   20.2920 O   0  0  0  0  0  0
  -26.5794  -34.8854   22.4555 O   0  0  0  0  0  0
  -23.5930  -32.1005   23.6305 O   0  0  0  0  0  0
  -30.9047  -19.4428   20.3770 C   0  0  0  0  0  0
  -30.3760  -21.9771   20.3787 C   0  0  0  0  0  0
  -28.9528  -21.8837   20.2902 C   0  0  0  0  0  0
  -29.5926  -18.9234   20.3237 C   0  0  0  0  0  0
  -31.2642  -20.8323   20.3993 C   0  0  0  0  0  0
  -28.6585  -20.2687   20.2745 C   0  0  0  0  0  0
  -30.9954  -23.3711   20.4387 C   0  0  0  0  0  0
  -27.9694  -23.5317   20.1933 C   0  0  0  0  0  0
  -29.4676  -17.1612   20.3346 N   0  0  0  0  0  0
  -32.9735  -21.1084   20.4410 Cl  0  0  0  0  0  0
  -26.9764  -19.8994   20.1807 Cl  0  0  0  0  0  0
  -31.3956  -13.4717   19.1551 H   0  0  0  0  0  0
  -30.6155  -12.3677   20.2335 H   0  0  0  0  0  0
  -30.0368  -11.8439   17.8413 H   0  0  0  0  0  0
  -29.4903  -13.4835   17.5926 H   0  0  0  0  0  0
  -28.1934  -11.3164   19.2536 H   0  0  0  0  0  0
  -27.4707  -12.2040   17.9323 H   0  0  0  0  0  0
  -27.4341  -14.2220   19.2160 H   0  0  0  0  0  0
  -28.8940  -12.8511   21.5230 H   0  0  0  0  0  0
  -28.1397  -14.4225   21.6069 H   0  0  0  0  0  0
  -25.2804   -9.5671   22.4762 H   0  0  0  0  0  0
  -24.0013   -7.4641   22.7481 H   0  0  0  0  0  0
  -21.0875   -8.8801   19.8955 H   0  0  0  0  0  0
  -22.3757  -10.9678   19.6160 H   0  0  0  0  0  0
  -21.2013   -7.6154   23.9715 H   0  0  0  0  0  0
  -21.1474   -6.0524   25.9073 H   0  0  0  0  0  0
  -22.0600   -2.7615   23.2838 H   0  0  0  0  0  0
  -22.4033  -11.9805   22.4869 H   0  0  0  0  0  0
  -21.0991  -13.1117   22.2680 H   0  0  0  0  0  0
  -24.6136  -15.8502   20.5373 H   0  0  0  0  0  0
  -26.2244  -15.6474   20.0716 H   0  0  0  0  0  0
  -26.7551  -32.4855   23.0723 H   0  0  0  0  0  0
  -25.0040  -33.9260   24.9968 H   0  0  0  0  0  0
  -22.8552  -31.2249   21.2990 H   0  0  0  0  0  0
  -23.3774  -35.9416   23.3272 H   0  0  0  0  0  0
  -24.3541  -36.8829   22.2081 H   0  0  0  0  0  0
  -23.7220  -37.6265   23.6776 H   0  0  0  0  0  0
  -26.3262  -31.2028   20.6307 H   0  0  0  0  0  0
  -26.9569  -30.5573   22.0943 H   0  0  0  0  0  0
  -28.1725  -28.2832   21.3368 H   0  0  0  0  0  0
  -25.8208  -25.5628   19.0012 H   0  0  0  0  0  0
  -24.0476  -27.1923   18.9230 H   0  0  0  0  0  0
  -23.9679  -30.4274   19.3741 H   0  0  0  0  0  0
  -22.8875  -29.1436   19.8119 H   0  0  0  0  0  0
  -25.1360  -36.1599   25.0765 H   0  0  0  0  0  0
  -21.0068  -28.3432   24.1248 H   0  0  0  0  0  0
  -20.5670  -26.2420   23.3679 H   0  0  0  0  0  0
  -21.6663  -26.7371   22.1226 H   0  0  0  0  0  0
  -19.6933  -25.6266   21.1298 H   0  0  0  0  0  0
  -19.6735  -27.3145   20.6727 H   0  0  0  0  0  0
  -17.4233  -26.6709   21.4019 H   0  0  0  0  0  0
  -18.0336  -26.0142   22.9046 H   0  0  0  0  0  0
  -19.8000  -30.7358   24.2152 H   0  0  0  0  0  0
  -17.5065  -31.6290   24.5168 H   0  0  0  0  0  0
  -15.5397  -30.2977   23.7739 H   0  0  0  0  0  0
  -15.8718  -28.0811   22.7149 H   0  0  0  0  0  0
  -24.5860  -30.7170   25.7554 H   0  0  0  0  0  0
  -24.8809  -32.3078   26.4460 H   0  0  0  0  0  0
  -25.7789  -30.9152   27.0198 H   0  0  0  0  0  0
  -26.3307  -29.6395   24.1662 H   0  0  0  0  0  0
  -27.3969  -29.7312   25.5439 H   0  0  0  0  0  0
  -27.9293  -30.3925   24.0221 H   0  0  0  0  0  0
  -27.2581  -33.3768   26.1826 H   0  0  0  0  0  0
  -28.3982  -32.6798   25.0418 H   0  0  0  0  0  0
  -28.0573  -31.8678   26.5622 H   0  0  0  0  0  0
  -28.2545  -38.0030   24.7514 H   0  0  0  0  0  0
  -28.1069  -36.2554   24.6311 H   0  0  0  0  0  0
  -27.2264  -37.1357   25.8874 H   0  0  0  0  0  0
  -20.9783  -29.8639   21.6443 H   0  0  0  0  0  0
  -26.0072  -38.2670   24.1444 H   0  0  0  0  0  0
  -31.7136  -18.7278   20.4054 H   0  0  0  0  0  0
  -30.3379  -24.0990   20.9071 H   0  0  0  0  0  0
  -31.2400  -23.7212   19.4355 H   0  0  0  0  0  0
  -31.9039  -23.3963   21.0386 H   0  0  0  0  0  0
  -27.1799  -23.3594   20.9247 H   0  0  0  0  0  0
  -27.4562  -23.4214   19.2379 H   0  0  0  0  0  0
  -28.4890  -16.9141   20.3610 H   0  0  0  0  0  0
  1 25  1  0  0  0
  1 30  2  0  0  0
  1 79  1  0  0  0
  2  3  1  0  0  0
  2 25  1  0  0  0
  2 82  1  0  0  0
  2 83  1  0  0  0
  3  4  1  0  0  0
  3 84  1  0  0  0
  3 85  1  0  0  0
  4  5  1  0  0  0
  4 86  1  0  0  0
  4 87  1  0  0  0
  5  6  1  0  0  0
  5 26  1  0  0  0
  5 88  1  0  0  0
  6 25  1  0  0  0
  6 89  1  0  0  0
  6 90  1  0  0  0
  7  8  2  0  0  0
  7 26  1  0  0  0
  7 29  1  0  0  0
  8  9  1  0  0  0
  8 22  1  0  0  0
  9 10  1  0  0  0
  9 27  2  0  0  0
 10 11  2  0  0  0
 10 15  1  0  0  0
 11 12  1  0  0  0
 11 91  1  0  0  0
 12 13  2  0  0  0
 12 92  1  0  0  0
 13 14  1  0  0  0
 13 31  1  0  0  0
 14 15  2  0  0  0
 14 93  1  0  0  0
 15 94  1  0  0  0
 16 17  2  0  0  0
 16 21  1  0  0  0
 16 31  1  0  0  0
 17 18  1  0  0  0
 17 95  1  0  0  0
 18 19  2  0  0  0
 18 96  1  0  0  0
 19 20  1  0  0  0
 19 24  1  0  0  0
 20 21  2  0  0  0
 20 97  1  0  0  0
 21 23  1  0  0  0
 22 28  1  0  0  0
 22 32  2  0  0  0
 26 27  1  0  0  0
 28 98  1  0  0  0
 28 99  1  0  0  0
 29100  1  0  0  0
 29101  1  0  0  0
 33 34  1  0  0  0
 33 66  1  0  0  0
 33 70  2  0  0  0
 34 36  1  0  0  0
 34 59  1  0  0  0
 34102  1  0  0  0
 35 44  2  0  0  0
 35 45  1  0  0  0
 35 68  1  0  0  0
 36 56  1  0  0  0
 36103  1  0  0  0
 37 39  1  0  0  0
 37 47  1  0  0  0
 37 66  1  0  0  0
 37104  1  0  0  0
 38 43  2  0  0  0
 38 46  1  0  0  0
 38 47  1  0  0  0
 39 64  1  0  0  0
 39 67  2  0  0  0
 40 52  1  0  0  0
 40 53  2  0  0  0
 40 58  1  0  0  0
 41105  1  0  0  0
 41106  1  0  0  0
 41107  1  0  0  0
 41 48  1  0  0  0
 42 43  1  0  0  0
 42 66  1  0  0  0
 42108  1  0  0  0
 42109  1  0  0  0
 43 44  1  0  0  0
 44110  1  0  0  0
 45 46  2  0  0  0
 45111  1  0  0  0
 46112  1  0  0  0
 47113  1  0  0  0
 47114  1  0  0  0
 48 56  1  0  0  0
 48 65  1  0  0  0
 48115  1  0  0  0
 49 50  1  0  0  0
 49 53  1  0  0  0
 49 64  1  0  0  0
 49116  1  0  0  0
 50 51  1  0  0  0
 50117  1  0  0  0
 50118  1  0  0  0
 51 52  1  0  0  0
 51119  1  0  0  0
 51120  1  0  0  0
 52121  1  0  0  0
 52122  1  0  0  0
 53 54  1  0  0  0
 54 55  2  0  0  0
 54123  1  0  0  0
 55 57  1  0  0  0
 55124  1  0  0  0
 56 69  2  0  0  0
 57 58  2  0  0  0
 57125  1  0  0  0
 58126  1  0  0  0
 59 60  1  0  0  0
 59 61  1  0  0  0
 59 62  1  0  0  0
 60127  1  0  0  0
 60128  1  0  0  0
 60129  1  0  0  0
 61130  1  0  0  0
 61131  1  0  0  0
 61132  1  0  0  0
 62133  1  0  0  0
 62134  1  0  0  0
 62135  1  0  0  0
 63 65  1  0  0  0
 63136  1  0  0  0
 63137  1  0  0  0
 63138  1  0  0  0
 64139  1  0  0  0
 65140  1  0  0  0
 68 78  1  0  0  0
 71 74  2  0  0  0
 71 75  1  0  0  0
 71141  1  0  0  0
 72 73  1  0  0  0
 72 75  2  0  0  0
 72 77  1  0  0  0
 73 76  2  0  0  0
 73 78  1  0  0  0
 74 76  1  0  0  0
 74 79  1  0  0  0
 75 80  1  0  0  0
 76 81  1  0  0  0
 77142  1  0  0  0
 77143  1  0  0  0
 77144  1  0  0  0
 78145  1  0  0  0
 78146  1  0  0  0
 79147  1  0  0  0
M  ISO  4   1 100  68 101  78 101  79 100
M  END
> <chiral flag>
0

> <version>
0

> <s_m_source_file>
/data/baiqing/PycharmProjects/Reinvent-master-3.2/result/LINK_invent/BTK/process_docking_weight1_custom_sum_contain_oxygen_bond_distance_aromatic_linkinvent_7_9_3/rearranged_h_0019.sdf

> <i_m_source_file_index>
24

> <r_mmod_Potential_Energy-OPLS-2005>
2808.27856445312

> <r_mmod_Stretch_Energy-OPLS-2005>
1269.47924804688

> <r_mmod_Bend_Energy-OPLS-2005>
638.134338378906

> <r_mmod_Torsional_Energy-OPLS-2005>
223.132598876953

> <r_mmod_Improper_Torsional_Energy-OPLS-2005>
4.0678014755249

> <r_mmod_Van_der_Waal_Energy-OPLS-2005>
129.698196411133

> <r_mmod_Electrostatic_Energy-OPLS-2005>
-372.476898193359

> <r_mmod_Solvation_Energy-OPLS-2005>
-210.24919128418

> <b_mmod_Minimization_Converged-OPLS-2005>
0

> <r_mmod_RMS_Derivative-OPLS-2005>
0.592912912368774

$$$$
24
                    3D
 Structure written by MMmdl.
156164  0  0  1  0            999 V2000
  -30.2911  -15.5939   20.3346 C   0  0  0  0  0  0
  -30.4333  -13.0459   19.5342 C   0  0  0  0  0  0
  -29.5511  -12.6395   18.3178 C   0  0  0  0  0  0
  -28.1187  -12.2928   18.7576 C   0  0  0  0  0  0
  -27.5973  -13.2985   19.8081 C   0  0  2  0  0  0
  -28.6162  -13.6056   20.9285 C   0  0  0  0  0  0
  -25.2327  -13.8273   20.5747 C   0  0  0  0  0  0
  -24.1717  -13.0439   20.9296 C   0  0  0  0  0  0
  -24.6410  -11.6940   20.8772 C   0  0  0  0  0  0
  -23.9118  -10.4297   21.0407 C   0  0  0  0  0  0
  -24.3637   -9.4213   21.9188 C   0  0  0  0  0  0
  -23.6301   -8.2255   22.0767 C   0  0  0  0  0  0
  -22.4282   -8.0299   21.3564 C   0  0  0  0  0  0
  -21.9931   -9.0283   20.4670 C   0  0  0  0  0  0
  -22.7285  -10.2148   20.3067 C   0  0  0  0  0  0
  -21.6856   -6.0740   22.5290 C   0  0  0  0  0  0
  -21.4023   -6.5646   23.8227 C   0  0  0  0  0  0
  -21.3655   -5.6797   24.9188 C   0  0  0  0  0  0
  -21.6034   -4.3062   24.7233 C   0  0  0  0  0  0
  -21.8818   -3.8151   23.4361 C   0  0  0  0  0  0
  -21.9192   -4.6964   22.3412 C   0  0  0  0  0  0
  -22.7730  -13.5188   21.1932 C   0  0  0  0  0  0
  -22.1662   -4.2154   21.0992 F   0  0  0  0  0  0
  -21.5620   -3.4543   25.7745 F   0  0  0  0  0  0
  -29.7968  -14.2201   20.2812 N   0  0  0  0  0  0
  -26.2773  -12.9591   20.3181 N   0  0  0  0  0  0
  -25.9354  -11.6684   20.5686 N   0  0  0  0  0  0
  -22.0378  -12.8174   22.0484 N   0  0  0  0  0  0
  -25.3896  -15.2008   20.4109 N   0  0  0  0  0  0
  -31.5275  -15.5715   20.1800 O   0  0  0  0  0  0
  -21.6648   -6.8894   21.4262 O   0  0  0  0  0  0
  -22.3422  -14.5496   20.6788 O   0  0  0  0  0  0
  -24.6817  -31.8023   23.1562 C   0  0  0  0  0  0
  -25.9406  -32.4484   23.8080 C   0  0  1  0  0  0
  -27.2142  -26.7155   20.2216 C   0  0  0  0  0  0
  -25.6002  -33.8314   24.1972 N   0  0  0  0  0  0
  -23.5080  -30.4097   21.5095 C   0  0  2  0  0  0
  -24.9636  -28.7553   20.1243 C   0  0  0  0  0  0
  -22.7770  -29.4345   22.4722 C   0  0  0  0  0  0
  -18.0341  -28.1415   22.8451 C   0  0  0  0  0  0
  -24.1502  -36.7156   23.2655 C   0  0  0  0  0  0
  -26.0885  -30.5430   21.4173 C   0  0  0  0  0  0
  -26.1554  -29.1075   20.7721 C   0  0  0  0  0  0
  -27.2718  -28.1180   20.7856 C   0  0  0  0  0  0
  -25.9929  -26.5786   19.5145 C   0  0  0  0  0  0
  -24.9197  -27.5150   19.4707 C   0  0  0  0  0  0
  -23.7615  -29.7115   20.1441 C   0  0  0  0  0  0
  -25.4159  -36.2912   24.0275 C   0  0  1  0  0  0
  -20.5979  -28.3776   23.1152 C   0  0  2  0  0  0
  -20.6804  -26.9437   22.5407 C   0  0  0  0  0  0
  -19.5770  -26.6370   21.5218 C   0  0  0  0  0  0
  -18.1959  -26.7944   22.1628 C   0  0  0  0  0  0
  -19.1610  -28.8915   23.2786 C   0  0  0  0  0  0
  -18.9511  -30.1495   23.8833 C   0  0  0  0  0  0
  -17.6506  -30.6601   24.0541 C   0  0  0  0  0  0
  -25.9133  -34.9299   23.4972 C   0  0  0  0  0  0
  -16.5399  -29.9074   23.6346 C   0  0  0  0  0  0
  -16.7321  -28.6496   23.0362 C   0  0  0  0  0  0
  -26.4590  -31.6491   25.0675 C   0  0  0  0  0  0
  -25.3643  -31.3796   26.1264 C   0  0  0  0  0  0
  -27.0542  -30.2836   24.6557 C   0  0  0  0  0  0
  -27.6031  -32.4339   25.7509 C   0  0  0  0  0  0
  -27.5570  -37.1733   24.8466 C   0  0  0  0  0  0
  -21.4417  -29.3031   22.3471 N   0  0  0  0  0  0
  -26.4288  -37.3661   23.9400 N   0  0  0  0  0  0
  -24.7834  -30.9485   22.0816 N   0  0  0  0  0  0
  -23.4226  -28.7951   23.3068 O   0  0  0  0  0  0
  -28.1685  -25.4904   20.1778 O   0  0  0  0  0  0
  -26.5774  -34.8871   22.4594 O   0  0  0  0  0  0
  -23.5845  -32.1116   23.6512 O   0  0  0  0  0  0
  -29.8224  -21.3114   20.5765 C   0  0  0  0  0  0
  -28.0356  -19.3721   20.1380 C   0  0  0  0  0  0
  -28.5409  -22.0699   20.3800 C   0  0  0  0  0  0
  -30.1742  -19.8069   20.5472 C   0  0  0  0  0  0
  -27.6855  -20.8589   20.1401 C   0  0  0  0  0  0
  -29.2968  -18.6140   20.3437 C   0  0  0  0  0  0
  -31.6369  -19.4785   20.7733 C   0  0  0  0  0  0
  -26.2075  -21.1028   19.8665 C   0  0  0  0  0  0
  -26.5837  -23.8316   21.2510 C   0  0  0  0  0  0
  -28.8890  -24.1341   22.0217 C   0  0  0  0  0  0
  -28.0447  -23.8484   20.7699 C   0  0  0  0  0  0
  -29.4426  -16.8950   20.3599 N   0  0  0  0  0  0
  -31.4258  -13.3125   19.1707 H   0  0  0  0  0  0
  -30.5964  -12.1942   20.2001 H   0  0  0  0  0  0
  -29.9942  -11.7974   17.7846 H   0  0  0  0  0  0
  -29.5181  -13.4689   17.6090 H   0  0  0  0  0  0
  -28.1365  -11.2896   19.1883 H   0  0  0  0  0  0
  -27.4486  -12.2515   17.8976 H   0  0  0  0  0  0
  -27.4679  -14.2239   19.2453 H   0  0  0  0  0  0
  -28.8642  -12.7135   21.5041 H   0  0  0  0  0  0
  -28.1893  -14.3206   21.6348 H   0  0  0  0  0  0
  -25.2775   -9.5675   22.4770 H   0  0  0  0  0  0
  -24.0002   -7.4651   22.7483 H   0  0  0  0  0  0
  -21.0868   -8.8827   19.8965 H   0  0  0  0  0  0
  -22.3764  -10.9693   19.6166 H   0  0  0  0  0  0
  -21.2018   -7.6156   23.9737 H   0  0  0  0  0  0
  -21.1469   -6.0526   25.9095 H   0  0  0  0  0  0
  -22.0582   -2.7614   23.2868 H   0  0  0  0  0  0
  -22.4001  -11.9826   22.4851 H   0  0  0  0  0  0
  -21.1001  -13.1198   22.2690 H   0  0  0  0  0  0
  -24.6046  -15.8376   20.5062 H   0  0  0  0  0  0
  -26.2049  -15.6368   20.0018 H   0  0  0  0  0  0
  -26.7483  -32.4967   23.0790 H   0  0  0  0  0  0
  -25.0000  -33.9349   25.0017 H   0  0  0  0  0  0
  -22.8321  -31.2470   21.3216 H   0  0  0  0  0  0
  -23.3786  -35.9458   23.3280 H   0  0  0  0  0  0
  -24.3574  -36.8865   22.2082 H   0  0  0  0  0  0
  -23.7246  -37.6317   23.6765 H   0  0  0  0  0  0
  -26.2872  -31.2732   20.6306 H   0  0  0  0  0  0
  -26.9405  -30.6141   22.0804 H   0  0  0  0  0  0
  -28.1741  -28.3996   21.3082 H   0  0  0  0  0  0
  -25.8306  -25.6438   18.9973 H   0  0  0  0  0  0
  -24.0236  -27.2418   18.9314 H   0  0  0  0  0  0
  -23.9377  -30.4731   19.3830 H   0  0  0  0  0  0
  -22.8652  -29.1791   19.8201 H   0  0  0  0  0  0
  -25.1362  -36.1678   25.0756 H   0  0  0  0  0  0
  -21.0049  -28.3385   24.1284 H   0  0  0  0  0  0
  -20.5674  -26.2393   23.3669 H   0  0  0  0  0  0
  -21.6663  -26.7386   22.1214 H   0  0  0  0  0  0
  -19.6934  -25.6262   21.1280 H   0  0  0  0  0  0
  -19.6706  -27.3149   20.6723 H   0  0  0  0  0  0
  -17.4228  -26.6686   21.4035 H   0  0  0  0  0  0
  -18.0341  -26.0107   22.9042 H   0  0  0  0  0  0
  -19.7995  -30.7311   24.2185 H   0  0  0  0  0  0
  -17.5063  -31.6277   24.5153 H   0  0  0  0  0  0
  -15.5393  -30.2954   23.7711 H   0  0  0  0  0  0
  -15.8723  -28.0796   22.7111 H   0  0  0  0  0  0
  -24.5885  -30.7051   25.7589 H   0  0  0  0  0  0
  -24.8748  -32.2997   26.4443 H   0  0  0  0  0  0
  -25.7818  -30.9166   27.0206 H   0  0  0  0  0  0
  -26.3223  -29.6382   24.1686 H   0  0  0  0  0  0
  -27.4126  -29.7348   25.5276 H   0  0  0  0  0  0
  -27.9137  -30.3985   23.9966 H   0  0  0  0  0  0
  -27.2536  -33.3654   26.1949 H   0  0  0  0  0  0
  -28.3916  -32.6888   25.0410 H   0  0  0  0  0  0
  -28.0613  -31.8573   26.5541 H   0  0  0  0  0  0
  -28.2554  -38.0055   24.7517 H   0  0  0  0  0  0
  -28.1097  -36.2585   24.6297 H   0  0  0  0  0  0
  -27.2274  -37.1375   25.8859 H   0  0  0  0  0  0
  -20.9717  -29.8690   21.6546 H   0  0  0  0  0  0
  -26.0122  -38.2707   24.1411 H   0  0  0  0  0  0
  -30.6565  -21.9526   20.8227 H   0  0  0  0  0  0
  -27.1961  -18.7177   19.9585 H   0  0  0  0  0  0
  -32.1111  -20.2083   21.4310 H   0  0  0  0  0  0
  -32.1683  -19.4725   19.8213 H   0  0  0  0  0  0
  -31.7542  -18.4972   21.2322 H   0  0  0  0  0  0
  -25.7086  -20.2288   19.4473 H   0  0  0  0  0  0
  -26.0750  -21.9079   19.1458 H   0  0  0  0  0  0
  -25.6734  -21.3420   20.7849 H   0  0  0  0  0  0
  -26.3098  -24.7477   21.7747 H   0  0  0  0  0  0
  -26.4137  -23.0260   21.9625 H   0  0  0  0  0  0
  -25.8873  -23.7240   20.4220 H   0  0  0  0  0  0
  -28.5883  -25.0580   22.5176 H   0  0  0  0  0  0
  -29.9428  -24.2391   21.7607 H   0  0  0  0  0  0
  -28.8034  -23.3321   22.7555 H   0  0  0  0  0  0
  -28.5044  -16.5263   20.3733 H   0  0  0  0  0  0
  1 25  1  0  0  0
  1 30  2  0  0  0
  1 82  1  0  0  0
  2  3  1  0  0  0
  2 25  1  0  0  0
  2 83  1  0  0  0
  2 84  1  0  0  0
  3  4  1  0  0  0
  3 85  1  0  0  0
  3 86  1  0  0  0
  4  5  1  0  0  0
  4 87  1  0  0  0
  4 88  1  0  0  0
  5  6  1  0  0  0
  5 26  1  0  0  0
  5 89  1  0  0  0
  6 25  1  0  0  0
  6 90  1  0  0  0
  6 91  1  0  0  0
  7  8  2  0  0  0
  7 26  1  0  0  0
  7 29  1  0  0  0
  8  9  1  0  0  0
  8 22  1  0  0  0
  9 10  1  0  0  0
  9 27  2  0  0  0
 10 11  2  0  0  0
 10 15  1  0  0  0
 11 12  1  0  0  0
 11 92  1  0  0  0
 12 13  2  0  0  0
 12 93  1  0  0  0
 13 14  1  0  0  0
 13 31  1  0  0  0
 14 15  2  0  0  0
 14 94  1  0  0  0
 15 95  1  0  0  0
 16 17  2  0  0  0
 16 21  1  0  0  0
 16 31  1  0  0  0
 17 18  1  0  0  0
 17 96  1  0  0  0
 18 19  2  0  0  0
 18 97  1  0  0  0
 19 20  1  0  0  0
 19 24  1  0  0  0
 20 21  2  0  0  0
 20 98  1  0  0  0
 21 23  1  0  0  0
 22 28  1  0  0  0
 22 32  2  0  0  0
 26 27  1  0  0  0
 28 99  1  0  0  0
 28100  1  0  0  0
 29101  1  0  0  0
 29102  1  0  0  0
 33 34  1  0  0  0
 33 66  1  0  0  0
 33 70  2  0  0  0
 34 36  1  0  0  0
 34 59  1  0  0  0
 34103  1  0  0  0
 35 44  2  0  0  0
 35 45  1  0  0  0
 35 68  1  0  0  0
 36 56  1  0  0  0
 36104  1  0  0  0
 37 39  1  0  0  0
 37 47  1  0  0  0
 37 66  1  0  0  0
 37105  1  0  0  0
 38 43  2  0  0  0
 38 46  1  0  0  0
 38 47  1  0  0  0
 39 64  1  0  0  0
 39 67  2  0  0  0
 40 52  1  0  0  0
 40 53  2  0  0  0
 40 58  1  0  0  0
 41106  1  0  0  0
 41107  1  0  0  0
 41108  1  0  0  0
 41 48  1  0  0  0
 42 43  1  0  0  0
 42 66  1  0  0  0
 42109  1  0  0  0
 42110  1  0  0  0
 43 44  1  0  0  0
 44111  1  0  0  0
 45 46  2  0  0  0
 45112  1  0  0  0
 46113  1  0  0  0
 47114  1  0  0  0
 47115  1  0  0  0
 48 56  1  0  0  0
 48 65  1  0  0  0
 48116  1  0  0  0
 49 50  1  0  0  0
 49 53  1  0  0  0
 49 64  1  0  0  0
 49117  1  0  0  0
 50 51  1  0  0  0
 50118  1  0  0  0
 50119  1  0  0  0
 51 52  1  0  0  0
 51120  1  0  0  0
 51121  1  0  0  0
 52122  1  0  0  0
 52123  1  0  0  0
 53 54  1  0  0  0
 54 55  2  0  0  0
 54124  1  0  0  0
 55 57  1  0  0  0
 55125  1  0  0  0
 56 69  2  0  0  0
 57 58  2  0  0  0
 57126  1  0  0  0
 58127  1  0  0  0
 59 60  1  0  0  0
 59 61  1  0  0  0
 59 62  1  0  0  0
 60128  1  0  0  0
 60129  1  0  0  0
 60130  1  0  0  0
 61131  1  0  0  0
 61132  1  0  0  0
 61133  1  0  0  0
 62134  1  0  0  0
 62135  1  0  0  0
 62136  1  0  0  0
 63 65  1  0  0  0
 63137  1  0  0  0
 63138  1  0  0  0
 63139  1  0  0  0
 64140  1  0  0  0
 65141  1  0  0  0
 68 81  1  0  0  0
 71 73  2  0  0  0
 71 74  1  0  0  0
 71142  1  0  0  0
 72 75  2  0  0  0
 72 76  1  0  0  0
 72143  1  0  0  0
 73 75  1  0  0  0
 73 81  1  0  0  0
 74 76  2  0  0  0
 74 77  1  0  0  0
 75 78  1  0  0  0
 76 82  1  0  0  0
 77144  1  0  0  0
 77145  1  0  0  0
 77146  1  0  0  0
 78147  1  0  0  0
 78148  1  0  0  0
 78149  1  0  0  0
 79150  1  0  0  0
 79151  1  0  0  0
 79152  1  0  0  0
 79 81  1  0  0  0
 80 81  1  0  0  0
 80153  1  0  0  0
 80154  1  0  0  0
 80155  1  0  0  0
 82156  1  0  0  0
M  ISO  4   1 100  68 101  81 101  82 100
M  END
> <chiral flag>
0

> <version>
0

> <s_m_source_file>
/data/baiqing/PycharmProjects/Reinvent-master-3.2/result/LINK_invent/BTK/process_docking_weight1_custom_sum_contain_oxygen_bond_distance_aromatic_linkinvent_7_9_3/rearranged_h_0019.sdf

> <i_m_source_file_index>
25

> <r_mmod_Potential_Energy-OPLS-2005>
2305.01684570312

> <r_mmod_Stretch_Energy-OPLS-2005>
939.047485351562

> <r_mmod_Bend_Energy-OPLS-2005>
702.37451171875

> <r_mmod_Torsional_Energy-OPLS-2005>
257.719177246094

> <r_mmod_Improper_Torsional_Energy-OPLS-2005>
8.5324821472168

> <r_mmod_Van_der_Waal_Energy-OPLS-2005>
138.705505371094

> <r_mmod_Electrostatic_Energy-OPLS-2005>
-395.086059570312

> <r_mmod_Solvation_Energy-OPLS-2005>
-201.803024291992

> <b_mmod_Minimization_Converged-OPLS-2005>
0

> <r_mmod_RMS_Derivative-OPLS-2005>
3.21078038215637

$$$$
25
                    3D
 Structure written by MMmdl.
152160  0  0  1  0            999 V2000
  -30.2816  -15.6129   20.3236 C   0  0  0  0  0  0
  -30.4320  -13.0637   19.5322 C   0  0  0  0  0  0
  -29.5516  -12.6483   18.3181 C   0  0  0  0  0  0
  -28.1224  -12.2971   18.7615 C   0  0  0  0  0  0
  -27.5971  -13.3024   19.8108 C   0  0  2  0  0  0
  -28.6166  -13.6161   20.9298 C   0  0  0  0  0  0
  -25.2329  -13.8267   20.5785 C   0  0  0  0  0  0
  -24.1717  -13.0422   20.9292 C   0  0  0  0  0  0
  -24.6413  -11.6934   20.8763 C   0  0  0  0  0  0
  -23.9115  -10.4286   21.0400 C   0  0  0  0  0  0
  -24.3650   -9.4198   21.9180 C   0  0  0  0  0  0
  -23.6310   -8.2242   22.0752 C   0  0  0  0  0  0
  -22.4288   -8.0287   21.3546 C   0  0  0  0  0  0
  -21.9936   -9.0263   20.4644 C   0  0  0  0  0  0
  -22.7282  -10.2132   20.3050 C   0  0  0  0  0  0
  -21.6856   -6.0739   22.5279 C   0  0  0  0  0  0
  -21.4015   -6.5641   23.8214 C   0  0  0  0  0  0
  -21.3658   -5.6794   24.9174 C   0  0  0  0  0  0
  -21.6042   -4.3055   24.7226 C   0  0  0  0  0  0
  -21.8819   -3.8149   23.4346 C   0  0  0  0  0  0
  -21.9194   -4.6968   22.3403 C   0  0  0  0  0  0
  -22.7729  -13.5159   21.1928 C   0  0  0  0  0  0
  -22.1661   -4.2154   21.0979 F   0  0  0  0  0  0
  -21.5626   -3.4537   25.7736 F   0  0  0  0  0  0
  -29.7921  -14.2367   20.2766 N   0  0  0  0  0  0
  -26.2774  -12.9591   20.3213 N   0  0  0  0  0  0
  -25.9355  -11.6669   20.5689 N   0  0  0  0  0  0
  -22.0390  -12.8137   22.0480 N   0  0  0  0  0  0
  -25.3904  -15.2007   20.4213 N   0  0  0  0  0  0
  -31.5186  -15.5952   20.1759 O   0  0  0  0  0  0
  -21.6642   -6.8889   21.4245 O   0  0  0  0  0  0
  -22.3401  -14.5457   20.6766 O   0  0  0  0  0  0
  -24.6845  -31.7992   23.1525 C   0  0  0  0  0  0
  -25.9431  -32.4457   23.8063 C   0  0  1  0  0  0
  -27.2254  -26.7035   20.2085 C   0  0  0  0  0  0
  -25.6014  -33.8282   24.1959 N   0  0  0  0  0  0
  -23.5100  -30.4026   21.5058 C   0  0  2  0  0  0
  -24.9682  -28.7462   20.1164 C   0  0  0  0  0  0
  -22.7771  -29.4310   22.4705 C   0  0  0  0  0  0
  -18.0338  -28.1424   22.8454 C   0  0  0  0  0  0
  -24.1492  -36.7131   23.2650 C   0  0  0  0  0  0
  -26.0910  -30.5334   21.4161 C   0  0  0  0  0  0
  -26.1579  -29.0984   20.7650 C   0  0  0  0  0  0
  -27.2721  -28.1053   20.7791 C   0  0  0  0  0  0
  -26.0022  -26.5629   19.5030 C   0  0  0  0  0  0
  -24.9297  -27.5037   19.4619 C   0  0  0  0  0  0
  -23.7645  -29.7014   20.1404 C   0  0  0  0  0  0
  -25.4144  -36.2883   24.0282 C   0  0  1  0  0  0
  -20.5974  -28.3779   23.1144 C   0  0  2  0  0  0
  -20.6801  -26.9437   22.5404 C   0  0  0  0  0  0
  -19.5780  -26.6381   21.5211 C   0  0  0  0  0  0
  -18.1964  -26.7951   22.1620 C   0  0  0  0  0  0
  -19.1605  -28.8927   23.2780 C   0  0  0  0  0  0
  -18.9511  -30.1510   23.8827 C   0  0  0  0  0  0
  -17.6499  -30.6605   24.0555 C   0  0  0  0  0  0
  -25.9128  -34.9274   23.4953 C   0  0  0  0  0  0
  -16.5390  -29.9088   23.6351 C   0  0  0  0  0  0
  -16.7318  -28.6510   23.0365 C   0  0  0  0  0  0
  -26.4618  -31.6481   25.0674 C   0  0  0  0  0  0
  -25.3696  -31.3792   26.1297 C   0  0  0  0  0  0
  -27.0539  -30.2818   24.6555 C   0  0  0  0  0  0
  -27.6079  -32.4328   25.7489 C   0  0  0  0  0  0
  -27.5559  -37.1723   24.8470 C   0  0  0  0  0  0
  -21.4416  -29.3019   22.3456 N   0  0  0  0  0  0
  -26.4264  -37.3652   23.9415 N   0  0  0  0  0  0
  -24.7854  -30.9444   22.0775 N   0  0  0  0  0  0
  -23.4210  -28.7909   23.3052 O   0  0  0  0  0  0
  -28.1735  -25.4715   20.2782 O   0  0  0  0  0  0
  -26.5764  -34.8852   22.4566 O   0  0  0  0  0  0
  -23.5865  -32.1065   23.6484 O   0  0  0  0  0  0
  -28.0701  -19.3270   19.6792 C   0  0  0  0  0  0
  -27.7113  -20.8126   19.6615 C   0  0  0  0  0  0
  -29.2542  -18.6351   20.2430 C   0  0  0  0  0  0
  -28.4789  -21.9873   20.1561 C   0  0  0  0  0  0
  -29.9736  -19.8661   20.7273 C   0  0  0  0  0  0
  -27.0769  -18.3733   19.0179 C   0  0  0  0  0  0
  -26.3460  -21.1670   19.0644 C   0  0  0  0  0  0
  -31.2941  -19.6212   21.4224 C   0  0  0  0  0  0
  -27.8257  -23.7614   20.1203 C   0  0  0  0  0  0
  -29.6331  -21.3132   20.6867 N   0  0  0  0  0  0
  -29.4291  -16.9127   20.3322 N   0  0  0  0  0  0
  -31.4214  -13.3393   19.1661 H   0  0  0  0  0  0
  -30.5996  -12.2167   20.1997 H   0  0  0  0  0  0
  -30.0004  -11.8064   17.7890 H   0  0  0  0  0  0
  -29.5156  -13.4736   17.6057 H   0  0  0  0  0  0
  -28.1457  -11.2978   19.1981 H   0  0  0  0  0  0
  -27.4529  -12.2448   17.9017 H   0  0  0  0  0  0
  -27.4637  -14.2276   19.2483 H   0  0  0  0  0  0
  -28.8736  -12.7255   21.5052 H   0  0  0  0  0  0
  -28.1894  -14.3277   21.6381 H   0  0  0  0  0  0
  -25.2791   -9.5669   22.4763 H   0  0  0  0  0  0
  -24.0010   -7.4630   22.7474 H   0  0  0  0  0  0
  -21.0866   -8.8793   19.8948 H   0  0  0  0  0  0
  -22.3746  -10.9673   19.6160 H   0  0  0  0  0  0
  -21.2009   -7.6149   23.9717 H   0  0  0  0  0  0
  -21.1476   -6.0522   25.9078 H   0  0  0  0  0  0
  -22.0599   -2.7612   23.2844 H   0  0  0  0  0  0
  -22.4026  -11.9805   22.4873 H   0  0  0  0  0  0
  -21.0996  -13.1130   22.2674 H   0  0  0  0  0  0
  -24.6136  -15.8431   20.5327 H   0  0  0  0  0  0
  -26.2213  -15.6408   20.0546 H   0  0  0  0  0  0
  -26.7506  -32.4940   23.0768 H   0  0  0  0  0  0
  -25.0080  -33.9319   25.0057 H   0  0  0  0  0  0
  -22.8344  -31.2396   21.3174 H   0  0  0  0  0  0
  -23.3776  -35.9437   23.3267 H   0  0  0  0  0  0
  -24.3557  -36.8833   22.2072 H   0  0  0  0  0  0
  -23.7224  -37.6289   23.6751 H   0  0  0  0  0  0
  -26.2922  -31.2601   20.6279 H   0  0  0  0  0  0
  -26.9422  -30.6021   22.0810 H   0  0  0  0  0  0
  -28.1664  -28.3801   21.3206 H   0  0  0  0  0  0
  -25.8286  -25.6243   18.9968 H   0  0  0  0  0  0
  -24.0317  -27.2265   18.9267 H   0  0  0  0  0  0
  -23.9401  -30.4626   19.3791 H   0  0  0  0  0  0
  -22.8690  -29.1681   19.8158 H   0  0  0  0  0  0
  -25.1350  -36.1639   25.0770 H   0  0  0  0  0  0
  -21.0058  -28.3404   24.1272 H   0  0  0  0  0  0
  -20.5661  -26.2400   23.3663 H   0  0  0  0  0  0
  -21.6664  -26.7380   22.1227 H   0  0  0  0  0  0
  -19.6937  -25.6281   21.1273 H   0  0  0  0  0  0
  -19.6725  -27.3163   20.6718 H   0  0  0  0  0  0
  -17.4233  -26.6690   21.4025 H   0  0  0  0  0  0
  -18.0361  -26.0113   22.9039 H   0  0  0  0  0  0
  -19.7986  -30.7345   24.2167 H   0  0  0  0  0  0
  -17.5049  -31.6274   24.5178 H   0  0  0  0  0  0
  -15.5386  -30.2966   23.7719 H   0  0  0  0  0  0
  -15.8718  -28.0806   22.7119 H   0  0  0  0  0  0
  -24.5923  -30.7088   25.7610 H   0  0  0  0  0  0
  -24.8843  -32.3008   26.4520 H   0  0  0  0  0  0
  -25.7898  -30.9105   27.0206 H   0  0  0  0  0  0
  -26.3255  -29.6450   24.1526 H   0  0  0  0  0  0
  -27.3949  -29.7240   25.5287 H   0  0  0  0  0  0
  -27.9246  -30.3940   24.0090 H   0  0  0  0  0  0
  -27.2642  -33.3715   26.1846 H   0  0  0  0  0  0
  -28.4010  -32.6743   25.0399 H   0  0  0  0  0  0
  -28.0608  -31.8591   26.5586 H   0  0  0  0  0  0
  -28.2547  -38.0045   24.7522 H   0  0  0  0  0  0
  -28.1083  -36.2569   24.6295 H   0  0  0  0  0  0
  -27.2274  -37.1355   25.8871 H   0  0  0  0  0  0
  -20.9724  -29.8659   21.6508 H   0  0  0  0  0  0
  -26.0085  -38.2690   24.1453 H   0  0  0  0  0  0
  -26.6700  -18.7864   18.0955 H   0  0  0  0  0  0
  -26.2536  -18.1504   19.6959 H   0  0  0  0  0  0
  -27.5340  -17.4313   18.7226 H   0  0  0  0  0  0
  -25.5822  -20.4300   19.3108 H   0  0  0  0  0  0
  -26.4125  -21.2451   17.9784 H   0  0  0  0  0  0
  -25.9418  -22.1026   19.4418 H   0  0  0  0  0  0
  -31.4329  -18.5622   21.6404 H   0  0  0  0  0  0
  -31.3414  -20.1663   22.3647 H   0  0  0  0  0  0
  -32.1192  -19.9475   20.7898 H   0  0  0  0  0  0
  -26.9745  -23.6760   20.7955 H   0  0  0  0  0  0
  -27.3856  -23.7790   19.1239 H   0  0  0  0  0  0
  -28.4946  -16.5316   20.3354 H   0  0  0  0  0  0
  1 25  1  0  0  0
  1 30  2  0  0  0
  1 81  1  0  0  0
  2  3  1  0  0  0
  2 25  1  0  0  0
  2 82  1  0  0  0
  2 83  1  0  0  0
  3  4  1  0  0  0
  3 84  1  0  0  0
  3 85  1  0  0  0
  4  5  1  0  0  0
  4 86  1  0  0  0
  4 87  1  0  0  0
  5  6  1  0  0  0
  5 26  1  0  0  0
  5 88  1  0  0  0
  6 25  1  0  0  0
  6 89  1  0  0  0
  6 90  1  0  0  0
  7  8  2  0  0  0
  7 26  1  0  0  0
  7 29  1  0  0  0
  8  9  1  0  0  0
  8 22  1  0  0  0
  9 10  1  0  0  0
  9 27  2  0  0  0
 10 11  2  0  0  0
 10 15  1  0  0  0
 11 12  1  0  0  0
 11 91  1  0  0  0
 12 13  2  0  0  0
 12 92  1  0  0  0
 13 14  1  0  0  0
 13 31  1  0  0  0
 14 15  2  0  0  0
 14 93  1  0  0  0
 15 94  1  0  0  0
 16 17  2  0  0  0
 16 21  1  0  0  0
 16 31  1  0  0  0
 17 18  1  0  0  0
 17 95  1  0  0  0
 18 19  2  0  0  0
 18 96  1  0  0  0
 19 20  1  0  0  0
 19 24  1  0  0  0
 20 21  2  0  0  0
 20 97  1  0  0  0
 21 23  1  0  0  0
 22 28  1  0  0  0
 22 32  2  0  0  0
 26 27  1  0  0  0
 28 98  1  0  0  0
 28 99  1  0  0  0
 29100  1  0  0  0
 29101  1  0  0  0
 33 34  1  0  0  0
 33 66  1  0  0  0
 33 70  2  0  0  0
 34 36  1  0  0  0
 34 59  1  0  0  0
 34102  1  0  0  0
 35 44  2  0  0  0
 35 45  1  0  0  0
 35 68  1  0  0  0
 36 56  1  0  0  0
 36103  1  0  0  0
 37 39  1  0  0  0
 37 47  1  0  0  0
 37 66  1  0  0  0
 37104  1  0  0  0
 38 43  2  0  0  0
 38 46  1  0  0  0
 38 47  1  0  0  0
 39 64  1  0  0  0
 39 67  2  0  0  0
 40 52  1  0  0  0
 40 53  2  0  0  0
 40 58  1  0  0  0
 41105  1  0  0  0
 41106  1  0  0  0
 41107  1  0  0  0
 41 48  1  0  0  0
 42 43  1  0  0  0
 42 66  1  0  0  0
 42108  1  0  0  0
 42109  1  0  0  0
 43 44  1  0  0  0
 44110  1  0  0  0
 45 46  2  0  0  0
 45111  1  0  0  0
 46112  1  0  0  0
 47113  1  0  0  0
 47114  1  0  0  0
 48 56  1  0  0  0
 48 65  1  0  0  0
 48115  1  0  0  0
 49 50  1  0  0  0
 49 53  1  0  0  0
 49 64  1  0  0  0
 49116  1  0  0  0
 50 51  1  0  0  0
 50117  1  0  0  0
 50118  1  0  0  0
 51 52  1  0  0  0
 51119  1  0  0  0
 51120  1  0  0  0
 52121  1  0  0  0
 52122  1  0  0  0
 53 54  1  0  0  0
 54 55  2  0  0  0
 54123  1  0  0  0
 55 57  1  0  0  0
 55124  1  0  0  0
 56 69  2  0  0  0
 57 58  2  0  0  0
 57125  1  0  0  0
 58126  1  0  0  0
 59 60  1  0  0  0
 59 61  1  0  0  0
 59 62  1  0  0  0
 60127  1  0  0  0
 60128  1  0  0  0
 60129  1  0  0  0
 61130  1  0  0  0
 61131  1  0  0  0
 61132  1  0  0  0
 62133  1  0  0  0
 62134  1  0  0  0
 62135  1  0  0  0
 63 65  1  0  0  0
 63136  1  0  0  0
 63137  1  0  0  0
 63138  1  0  0  0
 64139  1  0  0  0
 65140  1  0  0  0
 68 79  1  0  0  0
 71 72  2  0  0  0
 71 73  1  0  0  0
 71 76  1  0  0  0
 72 74  1  0  0  0
 72 77  1  0  0  0
 73 75  2  0  0  0
 73 81  1  0  0  0
 74 79  1  0  0  0
 74 80  2  0  0  0
 75 78  1  0  0  0
 75 80  1  0  0  0
 76141  1  0  0  0
 76142  1  0  0  0
 76143  1  0  0  0
 77144  1  0  0  0
 77145  1  0  0  0
 77146  1  0  0  0
 78147  1  0  0  0
 78148  1  0  0  0
 78149  1  0  0  0
 79150  1  0  0  0
 79151  1  0  0  0
 81152  1  0  0  0
M  ISO  4   1 100  68 101  79 101  81 100
M  END
> <chiral flag>
0

> <version>
0

> <s_m_source_file>
/data/baiqing/PycharmProjects/Reinvent-master-3.2/result/LINK_invent/BTK/process_docking_weight1_custom_sum_contain_oxygen_bond_distance_aromatic_linkinvent_7_9_3/rearranged_h_0019.sdf

> <i_m_source_file_index>
26

> <r_mmod_Potential_Energy-OPLS-2005>
2200.45922851562

> <r_mmod_Stretch_Energy-OPLS-2005>
959.950805664062

> <r_mmod_Bend_Energy-OPLS-2005>
717.330932617188

> <r_mmod_Torsional_Energy-OPLS-2005>
225.510131835938

> <r_mmod_Improper_Torsional_Energy-OPLS-2005>
5.30911874771118

> <r_mmod_Van_der_Waal_Energy-OPLS-2005>
139.995040893555

> <r_mmod_Electrostatic_Energy-OPLS-2005>
-501.036376953125

> <r_mmod_Solvation_Energy-OPLS-2005>
-238.40673828125

> <b_mmod_Minimization_Converged-OPLS-2005>
0

> <r_mmod_RMS_Derivative-OPLS-2005>
0.752881646156311

$$$$
26
                    3D
 Structure written by MMmdl.
187195  0  0  1  0            999 V2000
  -30.7304  -14.4956   20.3928 C   0  0  0  0  0  0
  -30.4103  -12.2673   19.4301 C   0  0  0  0  0  0
  -29.4611  -12.3345   18.2126 C   0  0  0  0  0  0
  -27.9856  -12.2907   18.6493 C   0  0  0  0  0  0
  -27.6484  -13.1998   19.8623 C   0  0  2  0  0  0
  -28.7134  -13.0951   20.9770 C   0  0  0  0  0  0
  -25.2576  -13.8141   20.5832 C   0  0  0  0  0  0
  -24.1810  -13.0456   20.9262 C   0  0  0  0  0  0
  -24.6321  -11.6908   20.8833 C   0  0  0  0  0  0
  -23.9011  -10.4309   21.0473 C   0  0  0  0  0  0
  -24.3581   -9.4210   21.9233 C   0  0  0  0  0  0
  -23.6257   -8.2249   22.0794 C   0  0  0  0  0  0
  -22.4238   -8.0298   21.3583 C   0  0  0  0  0  0
  -21.9872   -9.0273   20.4686 C   0  0  0  0  0  0
  -22.7188  -10.2159   20.3115 C   0  0  0  0  0  0
  -21.6840   -6.0744   22.5272 C   0  0  0  0  0  0
  -21.4004   -6.5651   23.8205 C   0  0  0  0  0  0
  -21.3650   -5.6815   24.9172 C   0  0  0  0  0  0
  -21.6042   -4.3077   24.7228 C   0  0  0  0  0  0
  -21.8802   -3.8160   23.4344 C   0  0  0  0  0  0
  -21.9187   -4.6974   22.3397 C   0  0  0  0  0  0
  -22.7843  -13.5279   21.1885 C   0  0  0  0  0  0
  -22.1676   -4.2161   21.0982 F   0  0  0  0  0  0
  -21.5627   -3.4557   25.7740 F   0  0  0  0  0  0
  -30.0275  -13.3328   20.3643 N   0  0  0  0  0  0
  -26.2994  -12.9305   20.3519 N   0  0  0  0  0  0
  -25.9252  -11.6482   20.5942 N   0  0  0  0  0  0
  -22.0470  -12.8304   22.0430 N   0  0  0  0  0  0
  -25.4335  -15.1861   20.4200 N   0  0  0  0  0  0
  -31.9556  -14.5309   20.3034 O   0  0  0  0  0  0
  -21.6625   -6.8884   21.4238 O   0  0  0  0  0  0
  -22.3567  -14.5607   20.6703 O   0  0  0  0  0  0
  -24.6077  -31.8691   23.2104 C   0  0  0  0  0  0
  -25.8986  -32.4807   23.8384 C   0  0  1  0  0  0
  -27.2251  -27.4694   20.0630 C   0  0  0  0  0  0
  -25.5868  -33.8608   24.2330 N   0  0  0  0  0  0
  -23.3935  -30.4961   21.5488 C   0  0  2  0  0  0
  -24.8371  -28.9711   20.1057 C   0  0  0  0  0  0
  -22.7374  -29.4656   22.4968 C   0  0  0  0  0  0
  -18.0251  -28.1360   22.8455 C   0  0  0  0  0  0
  -24.1494  -36.7326   23.2632 C   0  0  0  0  0  0
  -25.9211  -30.8444   21.3603 C   0  0  0  0  0  0
  -25.9958  -29.4842   20.7008 C   0  0  0  0  0  0
  -27.1898  -28.7339   20.6835 C   0  0  0  0  0  0
  -26.0580  -26.9831   19.4302 C   0  0  0  0  0  0
  -24.8591  -27.7153   19.4783 C   0  0  0  0  0  0
  -23.5980  -29.8319   20.1605 C   0  0  0  0  0  0
  -25.4094  -36.3117   24.0348 C   0  0  1  0  0  0
  -20.5836  -28.3633   23.1295 C   0  0  2  0  0  0
  -20.6737  -26.9368   22.5388 C   0  0  0  0  0  0
  -19.5741  -26.6362   21.5159 C   0  0  0  0  0  0
  -18.1921  -26.7902   22.1586 C   0  0  0  0  0  0
  -19.1495  -28.8807   23.2886 C   0  0  0  0  0  0
  -18.9421  -30.1402   23.8919 C   0  0  0  0  0  0
  -17.6429  -30.6563   24.0535 C   0  0  0  0  0  0
  -25.9016  -34.9474   23.5139 C   0  0  0  0  0  0
  -16.5320  -29.9067   23.6303 C   0  0  0  0  0  0
  -16.7237  -28.6480   23.0335 C   0  0  0  0  0  0
  -26.4447  -31.6538   25.0665 C   0  0  0  0  0  0
  -25.3729  -31.3534   26.1394 C   0  0  0  0  0  0
  -27.0397  -30.3008   24.6061 C   0  0  0  0  0  0
  -27.5962  -32.4297   25.7454 C   0  0  0  0  0  0
  -27.5598  -37.1823   24.8461 C   0  0  0  0  0  0
  -21.4108  -29.3040   22.3721 N   0  0  0  0  0  0
  -26.4291  -37.3802   23.9434 N   0  0  0  0  0  0
  -24.6587  -31.0839   22.0975 N   0  0  0  0  0  0
  -23.4179  -28.8164   23.2960 O   0  0  0  0  0  0
  -28.3894  -26.7455   20.1652 O   0  0  0  0  0  0
  -26.5570  -34.8934   22.4693 O   0  0  0  0  0  0
  -23.5282  -32.1407   23.7536 O   0  0  0  0  0  0
  -29.9060  -17.0529   22.1397 C   0  0  0  0  0  0
  -31.7915  -17.4894   18.7056 C   0  0  0  0  0  0
  -30.5309  -17.0655   17.9318 C   0  0  0  0  0  0
  -31.5347  -17.5460   20.2263 C   0  0  0  0  0  0
  -29.9579  -15.7375   18.4914 C   0  0  0  0  0  0
  -30.1588  -16.9218   20.6147 C   0  0  1  0  0  0
  -28.7969  -23.0702   20.5942 C   0  0  0  0  0  0
  -26.4568  -23.8022   20.3826 C   0  0  0  0  0  0
  -29.0343  -19.3324   21.7246 C   0  0  0  0  0  0
  -26.6539  -25.5256   22.6927 C   0  0  0  0  0  0
  -28.9797  -20.9738   24.7660 C   0  0  0  0  0  0
  -27.9962  -22.1219   25.0759 C   0  0  0  0  0  0
  -28.3015  -19.5995   24.5285 C   0  0  0  0  0  0
  -27.4542  -22.9075   23.8599 C   0  0  0  0  0  0
  -29.2804  -18.4711   24.0848 C   0  0  0  0  0  0
  -28.4484  -23.9662   23.2973 C   0  0  0  0  0  0
  -28.4364  -25.3684   19.7789 C   0  0  0  0  0  0
  -27.8707  -24.3012   20.7918 C   0  0  0  0  0  0
  -30.0275  -15.5862   19.9779 N   0  0  0  0  0  0
  -29.4324  -18.2388   22.6264 N   0  0  0  0  0  0
  -27.8918  -24.8392   22.2152 N   0  3  1  0  0  0
  -30.1707  -16.0964   22.8753 O   0  0  0  0  0  0
  -31.4488  -12.3517   19.1048 H   0  0  0  0  0  0
  -30.3267  -11.2989   19.9264 H   0  0  0  0  0  0
  -29.6563  -11.4828   17.5584 H   0  0  0  0  0  0
  -29.6346  -13.2015   17.5877 H   0  0  0  0  0  0
  -27.7718  -11.2522   18.9085 H   0  0  0  0  0  0
  -27.3302  -12.5298   17.8102 H   0  0  0  0  0  0
  -27.6595  -14.2250   19.4996 H   0  0  0  0  0  0
  -28.6913  -12.1081   21.4402 H   0  0  0  0  0  0
  -28.5157  -13.8218   21.7673 H   0  0  0  0  0  0
  -25.2733   -9.5675   22.4802 H   0  0  0  0  0  0
  -23.9963   -7.4633   22.7497 H   0  0  0  0  0  0
  -21.0813   -8.8768   19.8985 H   0  0  0  0  0  0
  -22.3636  -10.9708   19.6237 H   0  0  0  0  0  0
  -21.2005   -7.6161   23.9702 H   0  0  0  0  0  0
  -21.1498   -6.0563   25.9076 H   0  0  0  0  0  0
  -22.0584   -2.7622   23.2839 H   0  0  0  0  0  0
  -22.4038  -11.9888   22.4711 H   0  0  0  0  0  0
  -21.1100  -13.1370   22.2679 H   0  0  0  0  0  0
  -24.6659  -15.8385   20.5293 H   0  0  0  0  0  0
  -26.2909  -15.6225   20.1079 H   0  0  0  0  0  0
  -26.7043  -32.5553   23.1131 H   0  0  0  0  0  0
  -25.0025  -33.9766   25.0476 H   0  0  0  0  0  0
  -22.6813  -31.3116   21.4113 H   0  0  0  0  0  0
  -23.3726  -35.9683   23.3298 H   0  0  0  0  0  0
  -24.3612  -36.8906   22.2045 H   0  0  0  0  0  0
  -23.7286  -37.6566   23.6631 H   0  0  0  0  0  0
  -26.0299  -31.6175   20.5981 H   0  0  0  0  0  0
  -26.8087  -30.8920   21.9795 H   0  0  0  0  0  0
  -28.0829  -29.1157   21.1599 H   0  0  0  0  0  0
  -26.0389  -26.0425   18.9035 H   0  0  0  0  0  0
  -23.9675  -27.3126   19.0165 H   0  0  0  0  0  0
  -23.7060  -30.6042   19.3997 H   0  0  0  0  0  0
  -22.7222  -29.2497   19.8659 H   0  0  0  0  0  0
  -25.1250  -36.2007   25.0834 H   0  0  0  0  0  0
  -20.9940  -28.3195   24.1405 H   0  0  0  0  0  0
  -20.5548  -26.2255   23.3577 H   0  0  0  0  0  0
  -21.6627  -26.7356   22.1241 H   0  0  0  0  0  0
  -19.6898  -25.6263   21.1210 H   0  0  0  0  0  0
  -19.6700  -27.3140   20.6671 H   0  0  0  0  0  0
  -17.4175  -26.6572   21.4012 H   0  0  0  0  0  0
  -18.0371  -26.0050   22.9001 H   0  0  0  0  0  0
  -19.7888  -30.7184   24.2357 H   0  0  0  0  0  0
  -17.4983  -31.6255   24.5107 H   0  0  0  0  0  0
  -15.5319  -30.2991   23.7606 H   0  0  0  0  0  0
  -15.8634  -28.0798   22.7082 H   0  0  0  0  0  0
  -24.6153  -30.6544   25.7822 H   0  0  0  0  0  0
  -24.8595  -32.2563   26.4662 H   0  0  0  0  0  0
  -25.8227  -30.9057   27.0265 H   0  0  0  0  0  0
  -26.3004  -29.6776   24.1017 H   0  0  0  0  0  0
  -27.4044  -29.7230   25.4571 H   0  0  0  0  0  0
  -27.8902  -30.4369   23.9358 H   0  0  0  0  0  0
  -27.2359  -33.3242   26.2523 H   0  0  0  0  0  0
  -28.3493  -32.7454   25.0231 H   0  0  0  0  0  0
  -28.1028  -31.8278   26.4998 H   0  0  0  0  0  0
  -28.2579  -38.0153   24.7479 H   0  0  0  0  0  0
  -28.1089  -36.2639   24.6288 H   0  0  0  0  0  0
  -27.2335  -37.1463   25.8873 H   0  0  0  0  0  0
  -20.9260  -29.8831   21.7002 H   0  0  0  0  0  0
  -26.0170  -38.2878   24.1454 H   0  0  0  0  0  0
  -32.5834  -16.7639   18.5113 H   0  0  0  0  0  0
  -32.1685  -18.4440   18.3367 H   0  0  0  0  0  0
  -30.7676  -16.9544   16.8734 H   0  0  0  0  0  0
  -29.7781  -17.8564   17.9671 H   0  0  0  0  0  0
  -31.6030  -18.5814   20.5498 H   0  0  0  0  0  0
  -32.3482  -17.0526   20.7588 H   0  0  0  0  0  0
  -30.5649  -14.9766   18.0017 H   0  0  0  0  0  0
  -28.9359  -15.5926   18.1438 H   0  0  0  0  0  0
  -29.3513  -17.4803   20.1491 H   0  0  0  0  0  0
  -28.7481  -22.6938   19.5718 H   0  0  0  0  0  0
  -28.5274  -22.2275   21.2227 H   0  0  0  0  0  0
  -29.8431  -23.3108   20.7848 H   0  0  0  0  0  0
  -26.4377  -23.4773   19.3405 H   0  0  0  0  0  0
  -25.6686  -24.5452   20.4859 H   0  0  0  0  0  0
  -26.1514  -22.9418   20.9790 H   0  0  0  0  0  0
  -28.7977  -20.2611   22.2211 H   0  0  0  0  0  0
  -28.1441  -19.0426   21.1674 H   0  0  0  0  0  0
  -29.8144  -19.6031   21.0173 H   0  0  0  0  0  0
  -26.8186  -25.9714   23.6746 H   0  0  0  0  0  0
  -25.8064  -24.8478   22.7808 H   0  0  0  0  0  0
  -26.3237  -26.3313   22.0545 H   0  0  0  0  0  0
  -29.6541  -20.8621   25.6179 H   0  0  0  0  0  0
  -29.6179  -21.2591   23.9316 H   0  0  0  0  0  0
  -28.4839  -22.8383   25.7377 H   0  0  0  0  0  0
  -27.1567  -21.7243   25.6508 H   0  0  0  0  0  0
  -27.8495  -19.2920   25.4712 H   0  0  0  0  0  0
  -27.4502  -19.6806   23.8500 H   0  0  0  0  0  0
  -26.5557  -23.4130   24.2124 H   0  0  0  0  0  0
  -27.1147  -22.2256   23.0809 H   0  0  0  0  0  0
  -28.9364  -17.5481   24.5529 H   0  0  0  0  0  0
  -30.2685  -18.6589   24.5118 H   0  0  0  0  0  0
  -29.3846  -23.5011   23.0012 H   0  0  0  0  0  0
  -28.7470  -24.6305   24.1091 H   0  0  0  0  0  0
  -28.0707  -25.2120   18.7632 H   0  0  0  0  0  0
  -29.5114  -25.2154   19.6769 H   0  0  0  0  0  0
  -28.5678  -25.5910   22.1596 H   0  0  0  0  0  0
  1 25  1  0  0  0
  1 30  2  0  0  0
  1 89  1  0  0  0
  2  3  1  0  0  0
  2 25  1  0  0  0
  2 93  1  0  0  0
  2 94  1  0  0  0
  3  4  1  0  0  0
  3 95  1  0  0  0
  3 96  1  0  0  0
  4  5  1  0  0  0
  4 97  1  0  0  0
  4 98  1  0  0  0
  5  6  1  0  0  0
  5 26  1  0  0  0
  5 99  1  0  0  0
  6 25  1  0  0  0
  6100  1  0  0  0
  6101  1  0  0  0
  7  8  2  0  0  0
  7 26  1  0  0  0
  7 29  1  0  0  0
  8  9  1  0  0  0
  8 22  1  0  0  0
  9 10  1  0  0  0
  9 27  2  0  0  0
 10 11  2  0  0  0
 10 15  1  0  0  0
 11 12  1  0  0  0
 11102  1  0  0  0
 12 13  2  0  0  0
 12103  1  0  0  0
 13 14  1  0  0  0
 13 31  1  0  0  0
 14 15  2  0  0  0
 14104  1  0  0  0
 15105  1  0  0  0
 16 17  2  0  0  0
 16 21  1  0  0  0
 16 31  1  0  0  0
 17 18  1  0  0  0
 17106  1  0  0  0
 18 19  2  0  0  0
 18107  1  0  0  0
 19 20  1  0  0  0
 19 24  1  0  0  0
 20 21  2  0  0  0
 20108  1  0  0  0
 21 23  1  0  0  0
 22 28  1  0  0  0
 22 32  2  0  0  0
 26 27  1  0  0  0
 28109  1  0  0  0
 28110  1  0  0  0
 29111  1  0  0  0
 29112  1  0  0  0
 33 34  1  0  0  0
 33 66  1  0  0  0
 33 70  2  0  0  0
 34 36  1  0  0  0
 34 59  1  0  0  0
 34113  1  0  0  0
 35 44  2  0  0  0
 35 45  1  0  0  0
 35 68  1  0  0  0
 36 56  1  0  0  0
 36114  1  0  0  0
 37 39  1  0  0  0
 37 47  1  0  0  0
 37 66  1  0  0  0
 37115  1  0  0  0
 38 43  2  0  0  0
 38 46  1  0  0  0
 38 47  1  0  0  0
 39 64  1  0  0  0
 39 67  2  0  0  0
 40 52  1  0  0  0
 40 53  2  0  0  0
 40 58  1  0  0  0
 41116  1  0  0  0
 41117  1  0  0  0
 41118  1  0  0  0
 41 48  1  0  0  0
 42 43  1  0  0  0
 42 66  1  0  0  0
 42119  1  0  0  0
 42120  1  0  0  0
 43 44  1  0  0  0
 44121  1  0  0  0
 45 46  2  0  0  0
 45122  1  0  0  0
 46123  1  0  0  0
 47124  1  0  0  0
 47125  1  0  0  0
 48 56  1  0  0  0
 48 65  1  0  0  0
 48126  1  0  0  0
 49 50  1  0  0  0
 49 53  1  0  0  0
 49 64  1  0  0  0
 49127  1  0  0  0
 50 51  1  0  0  0
 50128  1  0  0  0
 50129  1  0  0  0
 51 52  1  0  0  0
 51130  1  0  0  0
 51131  1  0  0  0
 52132  1  0  0  0
 52133  1  0  0  0
 53 54  1  0  0  0
 54 55  2  0  0  0
 54134  1  0  0  0
 55 57  1  0  0  0
 55135  1  0  0  0
 56 69  2  0  0  0
 57 58  2  0  0  0
 57136  1  0  0  0
 58137  1  0  0  0
 59 60  1  0  0  0
 59 61  1  0  0  0
 59 62  1  0  0  0
 60138  1  0  0  0
 60139  1  0  0  0
 60140  1  0  0  0
 61141  1  0  0  0
 61142  1  0  0  0
 61143  1  0  0  0
 62144  1  0  0  0
 62145  1  0  0  0
 62146  1  0  0  0
 63 65  1  0  0  0
 63147  1  0  0  0
 63148  1  0  0  0
 63149  1  0  0  0
 64150  1  0  0  0
 65151  1  0  0  0
 68 87  1  0  0  0
 71 90  1  0  0  0
 71 92  2  0  0  0
 71 76  1  0  0  0
 72 73  1  0  0  0
 72 74  1  0  0  0
 72152  1  0  0  0
 72153  1  0  0  0
 73 75  1  0  0  0
 73154  1  0  0  0
 73155  1  0  0  0
 74 76  1  0  0  0
 74156  1  0  0  0
 74157  1  0  0  0
 75 89  1  0  0  0
 75158  1  0  0  0
 75159  1  0  0  0
 76 89  1  0  0  0
 76160  1  0  0  0
 77161  1  0  0  0
 77162  1  0  0  0
 77163  1  0  0  0
 77 88  1  0  0  0
 78 88  1  0  0  0
 78164  1  0  0  0
 78165  1  0  0  0
 78166  1  0  0  0
 79 90  1  0  0  0
 79167  1  0  0  0
 79168  1  0  0  0
 79169  1  0  0  0
 80170  1  0  0  0
 80171  1  0  0  0
 80172  1  0  0  0
 80 91  1  0  0  0
 81 82  1  0  0  0
 81 83  1  0  0  0
 81173  1  0  0  0
 81174  1  0  0  0
 82 84  1  0  0  0
 82175  1  0  0  0
 82176  1  0  0  0
 83 85  1  0  0  0
 83177  1  0  0  0
 83178  1  0  0  0
 84 86  1  0  0  0
 84179  1  0  0  0
 84180  1  0  0  0
 85 90  1  0  0  0
 85181  1  0  0  0
 85182  1  0  0  0
 86 91  1  0  0  0
 86183  1  0  0  0
 86184  1  0  0  0
 87 88  1  0  0  0
 87185  1  0  0  0
 87186  1  0  0  0
 88 91  1  0  0  0
 91187  1  0  0  0
M  CHG  1  91   1
M  ISO  4   1 100  68 101  87 101  89 100
M  END
> <chiral flag>
0

> <version>
0

> <s_m_source_file>
/data/baiqing/PycharmProjects/Reinvent-master-3.2/result/LINK_invent/BTK/process_docking_weight1_custom_sum_contain_oxygen_bond_distance_aromatic_linkinvent_7_9_3/rearranged_h_0019.sdf

> <i_m_source_file_index>
27

> <r_mmod_Potential_Energy-OPLS-2005>
323.396087646484

> <r_mmod_Stretch_Energy-OPLS-2005>
56.1608467102051

> <r_mmod_Bend_Energy-OPLS-2005>
169.22087097168

> <r_mmod_Torsional_Energy-OPLS-2005>
443.557891845703

> <r_mmod_Improper_Torsional_Energy-OPLS-2005>
20.9765205383301

> <r_mmod_Van_der_Waal_Energy-OPLS-2005>
190.884765625

> <r_mmod_Electrostatic_Energy-OPLS-2005>
-191.282669067383

> <r_mmod_Solvation_Energy-OPLS-2005>
-406.539123535156

> <b_mmod_Minimization_Converged-OPLS-2005>
0

> <r_mmod_RMS_Derivative-OPLS-2005>
5.34045457839966

$$$$
27
                    3D
 Structure written by MMmdl.
159167  0  0  1  0            999 V2000
  -30.2963  -15.6097   20.3731 C   0  0  0  0  0  0
  -30.4378  -13.0651   19.5438 C   0  0  0  0  0  0
  -29.5524  -12.6723   18.3229 C   0  0  0  0  0  0
  -28.1178  -12.3215   18.7502 C   0  0  0  0  0  0
  -27.6063  -13.3008   19.8297 C   0  0  2  0  0  0
  -28.6365  -13.5396   20.9569 C   0  0  0  0  0  0
  -25.2303  -13.8244   20.5720 C   0  0  0  0  0  0
  -24.1708  -13.0404   20.9262 C   0  0  0  0  0  0
  -24.6424  -11.6923   20.8768 C   0  0  0  0  0  0
  -23.9124  -10.4280   21.0405 C   0  0  0  0  0  0
  -24.3657   -9.4194   21.9188 C   0  0  0  0  0  0
  -23.6314   -8.2239   22.0758 C   0  0  0  0  0  0
  -22.4293   -8.0286   21.3547 C   0  0  0  0  0  0
  -21.9945   -9.0261   20.4643 C   0  0  0  0  0  0
  -22.7291  -10.2130   20.3052 C   0  0  0  0  0  0
  -21.6858   -6.0743   22.5280 C   0  0  0  0  0  0
  -21.4019   -6.5645   23.8213 C   0  0  0  0  0  0
  -21.3660   -5.6796   24.9175 C   0  0  0  0  0  0
  -21.6044   -4.3059   24.7223 C   0  0  0  0  0  0
  -21.8819   -3.8152   23.4343 C   0  0  0  0  0  0
  -21.9195   -4.6971   22.3401 C   0  0  0  0  0  0
  -22.7719  -13.5140   21.1905 C   0  0  0  0  0  0
  -22.1660   -4.2157   21.0978 F   0  0  0  0  0  0
  -21.5629   -3.4540   25.7733 F   0  0  0  0  0  0
  -29.8063  -14.2214   20.3337 N   0  0  0  0  0  0
  -26.2802  -12.9590   20.3264 N   0  0  0  0  0  0
  -25.9381  -11.6667   20.5740 N   0  0  0  0  0  0
  -22.0394  -12.8122   22.0468 N   0  0  0  0  0  0
  -25.3777  -15.1972   20.4043 N   0  0  0  0  0  0
  -31.5069  -15.5837   20.0757 O   0  0  0  0  0  0
  -21.6645   -6.8890   21.4244 O   0  0  0  0  0  0
  -22.3386  -14.5440   20.6748 O   0  0  0  0  0  0
  -24.6830  -31.8010   23.1527 C   0  0  0  0  0  0
  -25.9415  -32.4476   23.8072 C   0  0  1  0  0  0
  -27.2336  -26.7185   20.2100 C   0  0  0  0  0  0
  -25.5997  -33.8300   24.1960 N   0  0  0  0  0  0
  -23.5094  -30.4028   21.5064 C   0  0  2  0  0  0
  -24.9690  -28.7474   20.1178 C   0  0  0  0  0  0
  -22.7766  -29.4319   22.4717 C   0  0  0  0  0  0
  -18.0338  -28.1422   22.8455 C   0  0  0  0  0  0
  -24.1490  -36.7151   23.2652 C   0  0  0  0  0  0
  -26.0897  -30.5386   21.4158 C   0  0  0  0  0  0
  -26.1578  -29.1052   20.7650 C   0  0  0  0  0  0
  -27.2754  -28.1182   20.7800 C   0  0  0  0  0  0
  -26.0119  -26.5682   19.5049 C   0  0  0  0  0  0
  -24.9343  -27.5038   19.4643 C   0  0  0  0  0  0
  -23.7635  -29.7002   20.1418 C   0  0  0  0  0  0
  -25.4141  -36.2899   24.0284 C   0  0  1  0  0  0
  -20.5974  -28.3782   23.1142 C   0  0  2  0  0  0
  -20.6804  -26.9441   22.5403 C   0  0  0  0  0  0
  -19.5781  -26.6371   21.5215 C   0  0  0  0  0  0
  -18.1962  -26.7951   22.1617 C   0  0  0  0  0  0
  -19.1604  -28.8927   23.2778 C   0  0  0  0  0  0
  -18.9510  -30.1510   23.8823 C   0  0  0  0  0  0
  -17.6501  -30.6606   24.0550 C   0  0  0  0  0  0
  -25.9124  -34.9290   23.4959 C   0  0  0  0  0  0
  -16.5390  -29.9087   23.6353 C   0  0  0  0  0  0
  -16.7319  -28.6509   23.0368 C   0  0  0  0  0  0
  -26.4595  -31.6506   25.0689 C   0  0  0  0  0  0
  -25.3661  -31.3815   26.1302 C   0  0  0  0  0  0
  -27.0531  -30.2850   24.6578 C   0  0  0  0  0  0
  -27.6046  -32.4366   25.7503 C   0  0  0  0  0  0
  -27.5563  -37.1728   24.8464 C   0  0  0  0  0  0
  -21.4414  -29.3028   22.3464 N   0  0  0  0  0  0
  -26.4265  -37.3663   23.9415 N   0  0  0  0  0  0
  -24.7839  -30.9465   22.0777 N   0  0  0  0  0  0
  -23.4210  -28.7920   23.3061 O   0  0  0  0  0  0
  -28.1880  -25.4967   20.2917 O   0  0  0  0  0  0
  -26.5761  -34.8865   22.4574 O   0  0  0  0  0  0
  -23.5851  -32.1082   23.6481 O   0  0  0  0  0  0
  -29.7009  -21.3497   20.8608 C   0  0  0  0  0  0
  -27.8983  -20.8364   19.6061 C   0  0  0  0  0  0
  -28.5611  -22.0471   20.1870 C   0  0  0  0  0  0
  -30.0584  -19.8414   20.9332 C   0  0  0  0  0  0
  -28.2702  -19.3466   19.6520 C   0  0  0  0  0  0
  -29.3909  -18.6422   20.3259 C   0  0  0  0  0  0
  -30.6130  -22.3054   21.6168 C   0  0  0  0  0  0
  -26.5968  -21.1547   18.8688 C   0  0  0  0  0  0
  -31.2644  -19.4778   21.7890 C   0  0  0  0  0  0
  -27.3435  -18.3830   18.9139 C   0  0  0  0  0  0
  -28.5156  -16.6877   21.6661 C   0  0  0  0  0  0
  -27.8709  -23.7940   20.0819 C   0  0  0  0  0  0
  -29.5081  -16.9449   20.6236 N   0  0  0  0  0  0
  -31.4250  -13.3408   19.1722 H   0  0  0  0  0  0
  -30.6210  -12.1998   20.1830 H   0  0  0  0  0  0
  -29.9983  -11.8391   17.7782 H   0  0  0  0  0  0
  -29.5221  -13.5117   17.6269 H   0  0  0  0  0  0
  -28.1247  -11.3074   19.1515 H   0  0  0  0  0  0
  -27.4500  -12.3094   17.8881 H   0  0  0  0  0  0
  -27.4928  -14.2516   19.3075 H   0  0  0  0  0  0
  -28.9059  -12.6000   21.4418 H   0  0  0  0  0  0
  -28.1991  -14.1318   21.7543 H   0  0  0  0  0  0
  -25.2799   -9.5667   22.4771 H   0  0  0  0  0  0
  -24.0016   -7.4630   22.7482 H   0  0  0  0  0  0
  -21.0880   -8.8791   19.8941 H   0  0  0  0  0  0
  -22.3760  -10.9676   19.6162 H   0  0  0  0  0  0
  -21.2012   -7.6153   23.9717 H   0  0  0  0  0  0
  -21.1482   -6.0526   25.9079 H   0  0  0  0  0  0
  -22.0597   -2.7615   23.2839 H   0  0  0  0  0  0
  -22.4045  -11.9802   22.4863 H   0  0  0  0  0  0
  -21.1002  -13.1118   22.2673 H   0  0  0  0  0  0
  -24.5989  -15.8368   20.5156 H   0  0  0  0  0  0
  -26.2154  -15.6455   20.0602 H   0  0  0  0  0  0
  -26.7498  -32.4957   23.0785 H   0  0  0  0  0  0
  -25.0066  -33.9344   25.0061 H   0  0  0  0  0  0
  -22.8340  -31.2398   21.3168 H   0  0  0  0  0  0
  -23.3780  -35.9451   23.3253 H   0  0  0  0  0  0
  -24.3560  -36.8878   22.2079 H   0  0  0  0  0  0
  -23.7220  -37.6300   23.6770 H   0  0  0  0  0  0
  -26.2910  -31.2646   20.6270 H   0  0  0  0  0  0
  -26.9413  -30.6070   22.0803 H   0  0  0  0  0  0
  -28.1681  -28.3962   21.3219 H   0  0  0  0  0  0
  -25.8459  -25.6263   19.0020 H   0  0  0  0  0  0
  -24.0375  -27.2207   18.9305 H   0  0  0  0  0  0
  -23.9366  -30.4607   19.3796 H   0  0  0  0  0  0
  -22.8692  -29.1648   19.8182 H   0  0  0  0  0  0
  -25.1346  -36.1661   25.0773 H   0  0  0  0  0  0
  -21.0054  -28.3408   24.1269 H   0  0  0  0  0  0
  -20.5670  -26.2405   23.3663 H   0  0  0  0  0  0
  -21.6666  -26.7385   22.1219 H   0  0  0  0  0  0
  -19.6935  -25.6263   21.1293 H   0  0  0  0  0  0
  -19.6725  -27.3139   20.6712 H   0  0  0  0  0  0
  -17.4232  -26.6698   21.4018 H   0  0  0  0  0  0
  -18.0345  -26.0110   22.9027 H   0  0  0  0  0  0
  -19.7986  -30.7345   24.2158 H   0  0  0  0  0  0
  -17.5053  -31.6279   24.5167 H   0  0  0  0  0  0
  -15.5387  -30.2966   23.7722 H   0  0  0  0  0  0
  -15.8718  -28.0805   22.7125 H   0  0  0  0  0  0
  -24.5866  -30.7148   25.7594 H   0  0  0  0  0  0
  -24.8824  -32.3033   26.4542 H   0  0  0  0  0  0
  -25.7835  -30.9093   27.0204 H   0  0  0  0  0  0
  -26.3251  -29.6463   24.1567 H   0  0  0  0  0  0
  -27.3967  -29.7295   25.5315 H   0  0  0  0  0  0
  -27.9226  -30.3988   24.0102 H   0  0  0  0  0  0
  -27.2596  -33.3744   26.1868 H   0  0  0  0  0  0
  -28.3961  -32.6805   25.0404 H   0  0  0  0  0  0
  -28.0599  -31.8637   26.5591 H   0  0  0  0  0  0
  -28.2534  -38.0066   24.7536 H   0  0  0  0  0  0
  -28.1104  -36.2590   24.6261 H   0  0  0  0  0  0
  -27.2280  -37.1327   25.8865 H   0  0  0  0  0  0
  -20.9719  -29.8690   21.6533 H   0  0  0  0  0  0
  -26.0090  -38.2705   24.1452 H   0  0  0  0  0  0
  -30.2997  -23.3428   21.4970 H   0  0  0  0  0  0
  -31.6382  -22.2360   21.2530 H   0  0  0  0  0  0
  -30.6051  -22.0881   22.6848 H   0  0  0  0  0  0
  -26.1607  -22.1096   19.1475 H   0  0  0  0  0  0
  -25.8147  -20.4302   19.0923 H   0  0  0  0  0  0
  -26.7622  -21.1659   17.7912 H   0  0  0  0  0  0
  -32.1685  -19.9501   21.4051 H   0  0  0  0  0  0
  -31.4485  -18.4039   21.8022 H   0  0  0  0  0  0
  -31.1176  -19.7912   22.8225 H   0  0  0  0  0  0
  -27.0662  -18.7627   17.9310 H   0  0  0  0  0  0
  -26.4366  -18.2059   19.4924 H   0  0  0  0  0  0
  -27.8111  -17.4162   18.7313 H   0  0  0  0  0  0
  -28.1545  -17.6085   22.1258 H   0  0  0  0  0  0
  -28.9228  -16.0932   22.4858 H   0  0  0  0  0  0
  -27.6448  -16.1930   21.2482 H   0  0  0  0  0  0
  -26.9474  -23.6893   20.6519 H   0  0  0  0  0  0
  -27.5506  -23.8159   19.0407 H   0  0  0  0  0  0
  1 25  1  0  0  0
  1 30  2  0  0  0
  1 83  1  0  0  0
  2  3  1  0  0  0
  2 25  1  0  0  0
  2 84  1  0  0  0
  2 85  1  0  0  0
  3  4  1  0  0  0
  3 86  1  0  0  0
  3 87  1  0  0  0
  4  5  1  0  0  0
  4 88  1  0  0  0
  4 89  1  0  0  0
  5  6  1  0  0  0
  5 26  1  0  0  0
  5 90  1  0  0  0
  6 25  1  0  0  0
  6 91  1  0  0  0
  6 92  1  0  0  0
  7  8  2  0  0  0
  7 26  1  0  0  0
  7 29  1  0  0  0
  8  9  1  0  0  0
  8 22  1  0  0  0
  9 10  1  0  0  0
  9 27  2  0  0  0
 10 11  2  0  0  0
 10 15  1  0  0  0
 11 12  1  0  0  0
 11 93  1  0  0  0
 12 13  2  0  0  0
 12 94  1  0  0  0
 13 14  1  0  0  0
 13 31  1  0  0  0
 14 15  2  0  0  0
 14 95  1  0  0  0
 15 96  1  0  0  0
 16 17  2  0  0  0
 16 21  1  0  0  0
 16 31  1  0  0  0
 17 18  1  0  0  0
 17 97  1  0  0  0
 18 19  2  0  0  0
 18 98  1  0  0  0
 19 20  1  0  0  0
 19 24  1  0  0  0
 20 21  2  0  0  0
 20 99  1  0  0  0
 21 23  1  0  0  0
 22 28  1  0  0  0
 22 32  2  0  0  0
 26 27  1  0  0  0
 28100  1  0  0  0
 28101  1  0  0  0
 29102  1  0  0  0
 29103  1  0  0  0
 33 34  1  0  0  0
 33 66  1  0  0  0
 33 70  2  0  0  0
 34 36  1  0  0  0
 34 59  1  0  0  0
 34104  1  0  0  0
 35 44  2  0  0  0
 35 45  1  0  0  0
 35 68  1  0  0  0
 36 56  1  0  0  0
 36105  1  0  0  0
 37 39  1  0  0  0
 37 47  1  0  0  0
 37 66  1  0  0  0
 37106  1  0  0  0
 38 43  2  0  0  0
 38 46  1  0  0  0
 38 47  1  0  0  0
 39 64  1  0  0  0
 39 67  2  0  0  0
 40 52  1  0  0  0
 40 53  2  0  0  0
 40 58  1  0  0  0
 41107  1  0  0  0
 41108  1  0  0  0
 41109  1  0  0  0
 41 48  1  0  0  0
 42 43  1  0  0  0
 42 66  1  0  0  0
 42110  1  0  0  0
 42111  1  0  0  0
 43 44  1  0  0  0
 44112  1  0  0  0
 45 46  2  0  0  0
 45113  1  0  0  0
 46114  1  0  0  0
 47115  1  0  0  0
 47116  1  0  0  0
 48 56  1  0  0  0
 48 65  1  0  0  0
 48117  1  0  0  0
 49 50  1  0  0  0
 49 53  1  0  0  0
 49 64  1  0  0  0
 49118  1  0  0  0
 50 51  1  0  0  0
 50119  1  0  0  0
 50120  1  0  0  0
 51 52  1  0  0  0
 51121  1  0  0  0
 51122  1  0  0  0
 52123  1  0  0  0
 52124  1  0  0  0
 53 54  1  0  0  0
 54 55  2  0  0  0
 54125  1  0  0  0
 55 57  1  0  0  0
 55126  1  0  0  0
 56 69  2  0  0  0
 57 58  2  0  0  0
 57127  1  0  0  0
 58128  1  0  0  0
 59 60  1  0  0  0
 59 61  1  0  0  0
 59 62  1  0  0  0
 60129  1  0  0  0
 60130  1  0  0  0
 60131  1  0  0  0
 61132  1  0  0  0
 61133  1  0  0  0
 61134  1  0  0  0
 62135  1  0  0  0
 62136  1  0  0  0
 62137  1  0  0  0
 63 65  1  0  0  0
 63138  1  0  0  0
 63139  1  0  0  0
 63140  1  0  0  0
 64141  1  0  0  0
 65142  1  0  0  0
 68 82  1  0  0  0
 71 73  2  0  0  0
 71 74  1  0  0  0
 71 77  1  0  0  0
 72 73  1  0  0  0
 72 75  2  0  0  0
 72 78  1  0  0  0
 73 82  1  0  0  0
 74 76  2  0  0  0
 74 79  1  0  0  0
 75 76  1  0  0  0
 75 80  1  0  0  0
 76 83  1  0  0  0
 77143  1  0  0  0
 77144  1  0  0  0
 77145  1  0  0  0
 78146  1  0  0  0
 78147  1  0  0  0
 78148  1  0  0  0
 79149  1  0  0  0
 79150  1  0  0  0
 79151  1  0  0  0
 80152  1  0  0  0
 80153  1  0  0  0
 80154  1  0  0  0
 81 83  1  0  0  0
 81155  1  0  0  0
 81156  1  0  0  0
 81157  1  0  0  0
 82158  1  0  0  0
 82159  1  0  0  0
M  ISO  4   1 100  68 101  82 101  83 100
M  END
> <chiral flag>
0

> <version>
0

> <s_m_source_file>
/data/baiqing/PycharmProjects/Reinvent-master-3.2/result/LINK_invent/BTK/process_docking_weight1_custom_sum_contain_oxygen_bond_distance_aromatic_linkinvent_7_9_3/rearranged_h_0019.sdf

> <i_m_source_file_index>
28

> <r_mmod_Potential_Energy-OPLS-2005>
2477.34692382812

> <r_mmod_Stretch_Energy-OPLS-2005>
962.712829589844

> <r_mmod_Bend_Energy-OPLS-2005>
684.517822265625

> <r_mmod_Torsional_Energy-OPLS-2005>
314.854217529297

> <r_mmod_Improper_Torsional_Energy-OPLS-2005>
6.99694538116455

> <r_mmod_Van_der_Waal_Energy-OPLS-2005>
151.142654418945

> <r_mmod_Electrostatic_Energy-OPLS-2005>
-306.076599121094

> <r_mmod_Solvation_Energy-OPLS-2005>
-192.755676269531

> <b_mmod_Minimization_Converged-OPLS-2005>
0

> <r_mmod_RMS_Derivative-OPLS-2005>
0.461538106203079

$$$$
28
                    3D
 Structure written by MMmdl.
153161  0  0  1  0            999 V2000
  -30.6351  -14.6942   20.4870 C   0  0  0  0  0  0
  -30.4304  -12.4273   19.4718 C   0  0  0  0  0  0
  -29.5082  -12.5081   18.2357 C   0  0  0  0  0  0
  -28.0325  -12.3417   18.6474 C   0  0  0  0  0  0
  -27.6449  -13.2314   19.8595 C   0  0  2  0  0  0
  -28.6895  -13.1398   20.9944 C   0  0  0  0  0  0
  -25.2445  -13.8150   20.5583 C   0  0  0  0  0  0
  -24.1768  -13.0402   20.9166 C   0  0  0  0  0  0
  -24.6395  -11.6896   20.8761 C   0  0  0  0  0  0
  -23.9076  -10.4275   21.0418 C   0  0  0  0  0  0
  -24.3624   -9.4190   21.9195 C   0  0  0  0  0  0
  -23.6293   -8.2229   22.0759 C   0  0  0  0  0  0
  -22.4276   -8.0275   21.3545 C   0  0  0  0  0  0
  -21.9915   -9.0250   20.4648 C   0  0  0  0  0  0
  -22.7250  -10.2124   20.3062 C   0  0  0  0  0  0
  -21.6850   -6.0734   22.5279 C   0  0  0  0  0  0
  -21.4014   -6.5638   23.8213 C   0  0  0  0  0  0
  -21.3658   -5.6790   24.9175 C   0  0  0  0  0  0
  -21.6045   -4.3053   24.7226 C   0  0  0  0  0  0
  -21.8820   -3.8145   23.4346 C   0  0  0  0  0  0
  -21.9191   -4.6962   22.3403 C   0  0  0  0  0  0
  -22.7795  -13.5189   21.1841 C   0  0  0  0  0  0
  -22.1659   -4.2149   21.0981 F   0  0  0  0  0  0
  -21.5626   -3.4536   25.7738 F   0  0  0  0  0  0
  -29.9981  -13.4782   20.4198 N   0  0  0  0  0  0
  -26.2944  -12.9400   20.3327 N   0  0  0  0  0  0
  -25.9340  -11.6539   20.5816 N   0  0  0  0  0  0
  -22.0459  -12.8193   22.0425 N   0  0  0  0  0  0
  -25.3987  -15.1840   20.3811 N   0  0  0  0  0  0
  -31.8101  -14.8035   20.1283 O   0  0  0  0  0  0
  -21.6634   -6.8877   21.4241 O   0  0  0  0  0  0
  -22.3469  -14.5495   20.6698 O   0  0  0  0  0  0
  -24.6269  -31.8575   23.1987 C   0  0  0  0  0  0
  -25.9108  -32.4767   23.8330 C   0  0  1  0  0  0
  -27.2304  -27.3018   20.1396 C   0  0  0  0  0  0
  -25.5919  -33.8568   24.2261 N   0  0  0  0  0  0
  -23.4223  -30.4768   21.5415 C   0  0  2  0  0  0
  -24.8711  -28.9170   20.1207 C   0  0  0  0  0  0
  -22.7477  -29.4609   22.4939 C   0  0  0  0  0  0
  -18.0288  -28.1379   22.8487 C   0  0  0  0  0  0
  -24.1488  -36.7291   23.2641 C   0  0  0  0  0  0
  -25.9621  -30.7844   21.3695 C   0  0  0  0  0  0
  -26.0390  -29.4055   20.7213 C   0  0  0  0  0  0
  -27.2247  -28.6116   20.7138 C   0  0  0  0  0  0
  -26.0416  -26.8552   19.5305 C   0  0  0  0  0  0
  -24.8742  -27.6475   19.5159 C   0  0  0  0  0  0
  -23.6397  -29.8013   20.1607 C   0  0  0  0  0  0
  -25.4113  -36.3078   24.0328 C   0  0  1  0  0  0
  -20.5888  -28.3684   23.1286 C   0  0  2  0  0  0
  -20.6776  -26.9407   22.5412 C   0  0  0  0  0  0
  -19.5753  -26.6380   21.5213 C   0  0  0  0  0  0
  -18.1933  -26.7922   22.1624 C   0  0  0  0  0  0
  -19.1541  -28.8848   23.2881 C   0  0  0  0  0  0
  -18.9463  -30.1451   23.8896 C   0  0  0  0  0  0
  -17.6463  -30.6582   24.0562 C   0  0  0  0  0  0
  -25.9051  -34.9448   23.5099 C   0  0  0  0  0  0
  -16.5354  -29.9080   23.6329 C   0  0  0  0  0  0
  -16.7276  -28.6498   23.0351 C   0  0  0  0  0  0
  -26.4491  -31.6582   25.0706 C   0  0  0  0  0  0
  -25.3726  -31.3721   26.1436 C   0  0  0  0  0  0
  -27.0338  -30.3008   24.6162 C   0  0  0  0  0  0
  -27.6046  -32.4321   25.7482 C   0  0  0  0  0  0
  -27.5577  -37.1801   24.8466 C   0  0  0  0  0  0
  -21.4190  -29.3037   22.3681 N   0  0  0  0  0  0
  -26.4291  -37.3774   23.9407 N   0  0  0  0  0  0
  -24.6893  -31.0573   22.0938 N   0  0  0  0  0  0
  -23.4191  -28.8160   23.3037 O   0  0  0  0  0  0
  -28.3627  -26.4781   20.0916 O   0  0  0  0  0  0
  -26.5626  -34.8921   22.4669 O   0  0  0  0  0  0
  -23.5430  -32.1375   23.7311 O   0  0  0  0  0  0
  -27.5959  -20.7990   21.3427 C   0  0  0  0  0  0
  -27.2048  -19.4919   21.6869 C   0  0  0  0  0  0
  -28.8629  -21.0527   20.7869 C   0  0  0  0  0  0
  -29.3184  -18.5237   20.8676 C   0  0  0  0  0  0
  -28.0488  -18.3792   21.4901 C   0  0  0  0  0  0
  -29.7063  -19.8912   20.5394 C   0  0  0  0  0  0
  -29.3128  -22.5721   20.6627 C   0  0  0  0  0  0
  -30.2922  -17.2790   20.6151 C   0  0  0  0  0  0
  -28.3520  -23.7454   20.1050 C   0  0  0  0  0  0
  -28.3875  -25.1864   20.8241 C   0  0  0  0  0  0
  -29.8837  -15.8175   20.7579 N   0  0  0  0  0  0
  -27.4827  -16.8685   22.1073 Cl  0  0  0  0  0  0
  -31.2806  -20.1492   19.8709 Cl  0  0  0  0  0  0
  -31.4728  -12.5432   19.1706 H   0  0  0  0  0  0
  -30.3634  -11.4442   19.9405 H   0  0  0  0  0  0
  -29.7821  -11.7419   17.5093 H   0  0  0  0  0  0
  -29.6449  -13.4686   17.7358 H   0  0  0  0  0  0
  -27.8791  -11.2913   18.8974 H   0  0  0  0  0  0
  -27.3775  -12.5503   17.8008 H   0  0  0  0  0  0
  -27.6466  -14.2592   19.4956 H   0  0  0  0  0  0
  -28.7106  -12.1363   21.4216 H   0  0  0  0  0  0
  -28.4319  -13.8127   21.8140 H   0  0  0  0  0  0
  -25.2767   -9.5665   22.4774 H   0  0  0  0  0  0
  -23.9997   -7.4618   22.7479 H   0  0  0  0  0  0
  -21.0845   -8.8775   19.8954 H   0  0  0  0  0  0
  -22.3713  -10.9668   19.6173 H   0  0  0  0  0  0
  -21.2009   -7.6147   23.9719 H   0  0  0  0  0  0
  -21.1479   -6.0520   25.9078 H   0  0  0  0  0  0
  -22.0601   -2.7608   23.2846 H   0  0  0  0  0  0
  -22.4081  -11.9857   22.4813 H   0  0  0  0  0  0
  -21.1086  -13.1230   22.2654 H   0  0  0  0  0  0
  -24.6377  -15.8349   20.5351 H   0  0  0  0  0  0
  -26.2728  -15.6439   20.1655 H   0  0  0  0  0  0
  -26.7176  -32.5437   23.1080 H   0  0  0  0  0  0
  -25.0059  -33.9704   25.0402 H   0  0  0  0  0  0
  -22.7169  -31.2971   21.3925 H   0  0  0  0  0  0
  -23.3749  -35.9624   23.3305 H   0  0  0  0  0  0
  -24.3578  -36.8910   22.2055 H   0  0  0  0  0  0
  -23.7242  -37.6493   23.6664 H   0  0  0  0  0  0
  -26.0900  -31.5426   20.5957 H   0  0  0  0  0  0
  -26.8436  -30.8406   21.9966 H   0  0  0  0  0  0
  -28.1289  -28.9902   21.1699 H   0  0  0  0  0  0
  -26.0198  -25.8810   19.0626 H   0  0  0  0  0  0
  -23.9790  -27.2667   19.0437 H   0  0  0  0  0  0
  -23.7619  -30.5725   19.3993 H   0  0  0  0  0  0
  -22.7597  -29.2300   19.8597 H   0  0  0  0  0  0
  -25.1296  -36.1927   25.0821 H   0  0  0  0  0  0
  -20.9980  -28.3257   24.1407 H   0  0  0  0  0  0
  -20.5674  -26.2293   23.3611 H   0  0  0  0  0  0
  -21.6645  -26.7433   22.1208 H   0  0  0  0  0  0
  -19.6915  -25.6291   21.1241 H   0  0  0  0  0  0
  -19.6691  -27.3192   20.6744 H   0  0  0  0  0  0
  -17.4203  -26.6671   21.4025 H   0  0  0  0  0  0
  -18.0334  -26.0060   22.9016 H   0  0  0  0  0  0
  -19.7940  -30.7267   24.2263 H   0  0  0  0  0  0
  -17.5019  -31.6262   24.5163 H   0  0  0  0  0  0
  -15.5355  -30.2983   23.7651 H   0  0  0  0  0  0
  -15.8677  -28.0817   22.7066 H   0  0  0  0  0  0
  -24.5902  -30.7068   25.7766 H   0  0  0  0  0  0
  -24.8917  -32.2887   26.4861 H   0  0  0  0  0  0
  -25.8054  -30.8899   27.0210 H   0  0  0  0  0  0
  -26.2911  -29.6754   24.1194 H   0  0  0  0  0  0
  -27.4047  -29.7267   25.4664 H   0  0  0  0  0  0
  -27.8773  -30.4296   23.9375 H   0  0  0  0  0  0
  -27.2651  -33.3622   26.2054 H   0  0  0  0  0  0
  -28.3862  -32.6882   25.0316 H   0  0  0  0  0  0
  -28.0710  -31.8450   26.5404 H   0  0  0  0  0  0
  -28.2599  -38.0093   24.7509 H   0  0  0  0  0  0
  -28.1069  -36.2626   24.6299 H   0  0  0  0  0  0
  -27.2296  -37.1459   25.8869 H   0  0  0  0  0  0
  -20.9373  -29.8749   21.6880 H   0  0  0  0  0  0
  -26.0172  -38.2849   24.1405 H   0  0  0  0  0  0
  -26.9312  -21.6189   21.5746 H   0  0  0  0  0  0
  -26.2443  -19.3435   22.1594 H   0  0  0  0  0  0
  -30.2455  -22.6228   20.1024 H   0  0  0  0  0  0
  -29.5971  -22.8495   21.6779 H   0  0  0  0  0  0
  -31.1568  -17.4283   21.2628 H   0  0  0  0  0  0
  -30.6740  -17.3863   19.5991 H   0  0  0  0  0  0
  -27.3178  -23.4038   20.1293 H   0  0  0  0  0  0
  -28.5684  -23.8765   19.0446 H   0  0  0  0  0  0
  -29.3226  -25.2290   21.3828 H   0  0  0  0  0  0
  -27.6173  -25.2050   21.5967 H   0  0  0  0  0  0
  -28.9279  -15.6571   21.0416 H   0  0  0  0  0  0
  1 25  1  0  0  0
  1 30  2  0  0  0
  1 81  1  0  0  0
  2  3  1  0  0  0
  2 25  1  0  0  0
  2 84  1  0  0  0
  2 85  1  0  0  0
  3  4  1  0  0  0
  3 86  1  0  0  0
  3 87  1  0  0  0
  4  5  1  0  0  0
  4 88  1  0  0  0
  4 89  1  0  0  0
  5  6  1  0  0  0
  5 26  1  0  0  0
  5 90  1  0  0  0
  6 25  1  0  0  0
  6 91  1  0  0  0
  6 92  1  0  0  0
  7  8  2  0  0  0
  7 26  1  0  0  0
  7 29  1  0  0  0
  8  9  1  0  0  0
  8 22  1  0  0  0
  9 10  1  0  0  0
  9 27  2  0  0  0
 10 11  2  0  0  0
 10 15  1  0  0  0
 11 12  1  0  0  0
 11 93  1  0  0  0
 12 13  2  0  0  0
 12 94  1  0  0  0
 13 14  1  0  0  0
 13 31  1  0  0  0
 14 15  2  0  0  0
 14 95  1  0  0  0
 15 96  1  0  0  0
 16 17  2  0  0  0
 16 21  1  0  0  0
 16 31  1  0  0  0
 17 18  1  0  0  0
 17 97  1  0  0  0
 18 19  2  0  0  0
 18 98  1  0  0  0
 19 20  1  0  0  0
 19 24  1  0  0  0
 20 21  2  0  0  0
 20 99  1  0  0  0
 21 23  1  0  0  0
 22 28  1  0  0  0
 22 32  2  0  0  0
 26 27  1  0  0  0
 28100  1  0  0  0
 28101  1  0  0  0
 29102  1  0  0  0
 29103  1  0  0  0
 33 34  1  0  0  0
 33 66  1  0  0  0
 33 70  2  0  0  0
 34 36  1  0  0  0
 34 59  1  0  0  0
 34104  1  0  0  0
 35 44  2  0  0  0
 35 45  1  0  0  0
 35 68  1  0  0  0
 36 56  1  0  0  0
 36105  1  0  0  0
 37 39  1  0  0  0
 37 47  1  0  0  0
 37 66  1  0  0  0
 37106  1  0  0  0
 38 43  2  0  0  0
 38 46  1  0  0  0
 38 47  1  0  0  0
 39 64  1  0  0  0
 39 67  2  0  0  0
 40 52  1  0  0  0
 40 53  2  0  0  0
 40 58  1  0  0  0
 41107  1  0  0  0
 41108  1  0  0  0
 41109  1  0  0  0
 41 48  1  0  0  0
 42 43  1  0  0  0
 42 66  1  0  0  0
 42110  1  0  0  0
 42111  1  0  0  0
 43 44  1  0  0  0
 44112  1  0  0  0
 45 46  2  0  0  0
 45113  1  0  0  0
 46114  1  0  0  0
 47115  1  0  0  0
 47116  1  0  0  0
 48 56  1  0  0  0
 48 65  1  0  0  0
 48117  1  0  0  0
 49 50  1  0  0  0
 49 53  1  0  0  0
 49 64  1  0  0  0
 49118  1  0  0  0
 50 51  1  0  0  0
 50119  1  0  0  0
 50120  1  0  0  0
 51 52  1  0  0  0
 51121  1  0  0  0
 51122  1  0  0  0
 52123  1  0  0  0
 52124  1  0  0  0
 53 54  1  0  0  0
 54 55  2  0  0  0
 54125  1  0  0  0
 55 57  1  0  0  0
 55126  1  0  0  0
 56 69  2  0  0  0
 57 58  2  0  0  0
 57127  1  0  0  0
 58128  1  0  0  0
 59 60  1  0  0  0
 59 61  1  0  0  0
 59 62  1  0  0  0
 60129  1  0  0  0
 60130  1  0  0  0
 60131  1  0  0  0
 61132  1  0  0  0
 61133  1  0  0  0
 61134  1  0  0  0
 62135  1  0  0  0
 62136  1  0  0  0
 62137  1  0  0  0
 63 65  1  0  0  0
 63138  1  0  0  0
 63139  1  0  0  0
 63140  1  0  0  0
 64141  1  0  0  0
 65142  1  0  0  0
 68 80  1  0  0  0
 71 72  2  0  0  0
 71 73  1  0  0  0
 71143  1  0  0  0
 72 75  1  0  0  0
 72144  1  0  0  0
 73 76  2  0  0  0
 73 77  1  0  0  0
 74 75  2  0  0  0
 74 76  1  0  0  0
 74 78  1  0  0  0
 75 82  1  0  0  0
 76 83  1  0  0  0
 77 79  1  0  0  0
 77145  1  0  0  0
 77146  1  0  0  0
 78 81  1  0  0  0
 78147  1  0  0  0
 78148  1  0  0  0
 79 80  1  0  0  0
 79149  1  0  0  0
 79150  1  0  0  0
 80151  1  0  0  0
 80152  1  0  0  0
 81153  1  0  0  0
M  ISO  4   1 100  68 101  80 101  81 100
M  END
> <chiral flag>
0

> <version>
0

> <s_m_source_file>
/data/baiqing/PycharmProjects/Reinvent-master-3.2/result/LINK_invent/BTK/process_docking_weight1_custom_sum_contain_oxygen_bond_distance_aromatic_linkinvent_7_9_3/rearranged_h_0019.sdf

> <i_m_source_file_index>
29

> <r_mmod_Potential_Energy-OPLS-2005>
123.978454589844

> <r_mmod_Stretch_Energy-OPLS-2005>
106.866683959961

> <r_mmod_Bend_Energy-OPLS-2005>
161.17643737793

> <r_mmod_Torsional_Energy-OPLS-2005>
238.51628112793

> <r_mmod_Improper_Torsional_Energy-OPLS-2005>
5.60214328765869

> <r_mmod_Van_der_Waal_Energy-OPLS-2005>
136.325149536133

> <r_mmod_Electrostatic_Energy-OPLS-2005>
-385.476318359375

> <r_mmod_Solvation_Energy-OPLS-2005>
-198.443359375

> <b_mmod_Minimization_Converged-OPLS-2005>
0

> <r_mmod_RMS_Derivative-OPLS-2005>
0.353959113359451

$$$$
29
                    3D
 Structure written by MMmdl.
159167  0  0  1  0            999 V2000
  -30.5468  -14.9648   20.3737 C   0  0  0  0  0  0
  -30.4374  -12.5936   19.4952 C   0  0  0  0  0  0
  -29.5178  -12.5207   18.2551 C   0  0  0  0  0  0
  -28.0532  -12.3069   18.6789 C   0  0  0  0  0  0
  -27.6260  -13.2523   19.8322 C   0  0  2  0  0  0
  -28.6716  -13.3021   20.9660 C   0  0  0  0  0  0
  -25.2448  -13.8229   20.5706 C   0  0  0  0  0  0
  -24.1769  -13.0447   20.9239 C   0  0  0  0  0  0
  -24.6394  -11.6937   20.8767 C   0  0  0  0  0  0
  -23.9084  -10.4299   21.0417 C   0  0  0  0  0  0
  -24.3626   -9.4205   21.9192 C   0  0  0  0  0  0
  -23.6294   -8.2244   22.0755 C   0  0  0  0  0  0
  -22.4284   -8.0281   21.3537 C   0  0  0  0  0  0
  -21.9923   -9.0260   20.4646 C   0  0  0  0  0  0
  -22.7258  -10.2140   20.3058 C   0  0  0  0  0  0
  -21.6854   -6.0733   22.5275 C   0  0  0  0  0  0
  -21.4017   -6.5638   23.8210 C   0  0  0  0  0  0
  -21.3657   -5.6788   24.9171 C   0  0  0  0  0  0
  -21.6048   -4.3051   24.7226 C   0  0  0  0  0  0
  -21.8818   -3.8145   23.4345 C   0  0  0  0  0  0
  -21.9194   -4.6960   22.3399 C   0  0  0  0  0  0
  -22.7790  -13.5213   21.1889 C   0  0  0  0  0  0
  -22.1662   -4.2138   21.0976 F   0  0  0  0  0  0
  -21.5625   -3.4536   25.7743 F   0  0  0  0  0  0
  -29.9451  -13.7062   20.3571 N   0  0  0  0  0  0
  -26.2872  -12.9469   20.3240 N   0  0  0  0  0  0
  -25.9325  -11.6597   20.5751 N   0  0  0  0  0  0
  -22.0447  -12.8182   22.0444 N   0  0  0  0  0  0
  -25.4110  -15.1954   20.4103 N   0  0  0  0  0  0
  -31.7686  -14.9839   20.1970 O   0  0  0  0  0  0
  -21.6641   -6.8880   21.4238 O   0  0  0  0  0  0
  -22.3468  -14.5516   20.6744 O   0  0  0  0  0  0
  -24.6462  -31.8439   23.1882 C   0  0  0  0  0  0
  -25.9231  -32.4692   23.8275 C   0  0  1  0  0  0
  -27.2148  -27.1159   20.1542 C   0  0  0  0  0  0
  -25.5973  -33.8500   24.2196 N   0  0  0  0  0  0
  -23.4498  -30.4618   21.5363 C   0  0  2  0  0  0
  -24.8971  -28.8819   20.1163 C   0  0  0  0  0  0
  -22.7583  -29.4535   22.4880 C   0  0  0  0  0  0
  -18.0303  -28.1377   22.8474 C   0  0  0  0  0  0
  -24.1495  -36.7250   23.2643 C   0  0  0  0  0  0
  -26.0064  -30.7086   21.3898 C   0  0  0  0  0  0
  -26.0765  -29.3152   20.7361 C   0  0  0  0  0  0
  -27.2368  -28.4501   20.7363 C   0  0  0  0  0  0
  -26.0121  -26.7916   19.4897 C   0  0  0  0  0  0
  -24.8782  -27.6323   19.4786 C   0  0  0  0  0  0
  -23.6769  -29.7906   20.1563 C   0  0  0  0  0  0
  -25.4120  -36.3029   24.0324 C   0  0  1  0  0  0
  -20.5915  -28.3723   23.1226 C   0  0  2  0  0  0
  -20.6796  -26.9427   22.5395 C   0  0  0  0  0  0
  -19.5765  -26.6378   21.5206 C   0  0  0  0  0  0
  -18.1949  -26.7917   22.1615 C   0  0  0  0  0  0
  -19.1562  -28.8869   23.2838 C   0  0  0  0  0  0
  -18.9483  -30.1464   23.8856 C   0  0  0  0  0  0
  -17.6485  -30.6581   24.0553 C   0  0  0  0  0  0
  -25.9082  -34.9412   23.5069 C   0  0  0  0  0  0
  -16.5374  -29.9074   23.6328 C   0  0  0  0  0  0
  -16.7291  -28.6495   23.0349 C   0  0  0  0  0  0
  -26.4532  -31.6546   25.0720 C   0  0  0  0  0  0
  -25.3698  -31.3742   26.1403 C   0  0  0  0  0  0
  -27.0410  -30.2947   24.6311 C   0  0  0  0  0  0
  -27.6071  -32.4319   25.7494 C   0  0  0  0  0  0
  -27.5578  -37.1783   24.8466 C   0  0  0  0  0  0
  -21.4273  -29.3048   22.3624 N   0  0  0  0  0  0
  -26.4283  -37.3739   23.9410 N   0  0  0  0  0  0
  -24.7208  -31.0266   22.0936 N   0  0  0  0  0  0
  -23.4221  -28.8090   23.3038 O   0  0  0  0  0  0
  -28.2701  -26.1271   20.1777 O   0  0  0  0  0  0
  -26.5678  -34.8922   22.4658 O   0  0  0  0  0  0
  -23.5574  -32.1341   23.7080 O   0  0  0  0  0  0
  -30.3168  -20.3969   18.9944 C   0  0  0  0  0  0
  -29.4018  -20.2553   20.0476 C   0  0  0  0  0  0
  -30.9676  -19.2951   18.3947 C   0  0  0  0  0  0
  -29.2523  -18.8424   20.5254 C   0  0  0  0  0  0
  -29.9589  -17.6408   19.9758 C   0  0  0  0  0  0
  -30.7750  -17.9518   18.8397 C   0  0  0  0  0  0
  -28.2725  -18.5814   21.6534 C   0  0  0  0  0  0
  -33.3424  -19.7992   17.6395 C   0  0  0  0  0  0
  -28.6270  -21.6410   20.5392 C   0  0  0  0  0  0
  -31.8807  -19.6117   17.2122 C   0  0  0  0  0  0
  -28.9223  -23.2376   20.0294 C   0  0  0  0  0  0
  -27.9972  -24.6033   20.4355 C   0  0  0  0  0  0
  -29.7680  -16.1656   20.4262 N   0  0  0  0  0  0
  -31.4780  -16.7007   17.8642 Cl  0  0  0  0  0  0
  -31.4700  -12.7468   19.1788 H   0  0  0  0  0  0
  -30.4310  -11.6509   20.0436 H   0  0  0  0  0  0
  -29.8381  -11.7147   17.5939 H   0  0  0  0  0  0
  -29.6006  -13.4431   17.6792 H   0  0  0  0  0  0
  -27.9555  -11.2698   19.0014 H   0  0  0  0  0  0
  -27.3875  -12.4222   17.8229 H   0  0  0  0  0  0
  -27.5831  -14.2478   19.3901 H   0  0  0  0  0  0
  -28.7612  -12.3350   21.4626 H   0  0  0  0  0  0
  -28.3733  -14.0193   21.7323 H   0  0  0  0  0  0
  -25.2770   -9.5675   22.4771 H   0  0  0  0  0  0
  -23.9994   -7.4635   22.7477 H   0  0  0  0  0  0
  -21.0855   -8.8793   19.8952 H   0  0  0  0  0  0
  -22.3725  -10.9679   19.6164 H   0  0  0  0  0  0
  -21.2013   -7.6145   23.9709 H   0  0  0  0  0  0
  -21.1480   -6.0520   25.9071 H   0  0  0  0  0  0
  -22.0601   -2.7602   23.2854 H   0  0  0  0  0  0
  -22.4070  -11.9836   22.4809 H   0  0  0  0  0  0
  -21.1060  -13.1189   22.2666 H   0  0  0  0  0  0
  -24.6380  -15.8446   20.5124 H   0  0  0  0  0  0
  -26.2430  -15.6308   20.0350 H   0  0  0  0  0  0
  -26.7308  -32.5302   23.1013 H   0  0  0  0  0  0
  -25.0060  -33.9601   25.0303 H   0  0  0  0  0  0
  -22.7519  -31.2870   21.3836 H   0  0  0  0  0  0
  -23.3774  -35.9572   23.3292 H   0  0  0  0  0  0
  -24.3568  -36.8898   22.2058 H   0  0  0  0  0  0
  -23.7247  -37.6449   23.6684 H   0  0  0  0  0  0
  -26.1625  -31.4592   20.6131 H   0  0  0  0  0  0
  -26.8753  -30.7610   22.0331 H   0  0  0  0  0  0
  -28.1381  -28.7773   21.2359 H   0  0  0  0  0  0
  -25.9251  -25.8476   18.9731 H   0  0  0  0  0  0
  -23.9824  -27.2966   18.9746 H   0  0  0  0  0  0
  -23.8209  -30.5675   19.4039 H   0  0  0  0  0  0
  -22.7884  -29.2407   19.8431 H   0  0  0  0  0  0
  -25.1300  -36.1857   25.0815 H   0  0  0  0  0  0
  -20.9995  -28.3330   24.1351 H   0  0  0  0  0  0
  -20.5700  -26.2339   23.3623 H   0  0  0  0  0  0
  -21.6658  -26.7434   22.1194 H   0  0  0  0  0  0
  -19.6937  -25.6289   21.1248 H   0  0  0  0  0  0
  -19.6695  -27.3185   20.6742 H   0  0  0  0  0  0
  -17.4219  -26.6668   21.4023 H   0  0  0  0  0  0
  -18.0333  -26.0042   22.8994 H   0  0  0  0  0  0
  -19.7970  -30.7281   24.2205 H   0  0  0  0  0  0
  -17.5047  -31.6249   24.5179 H   0  0  0  0  0  0
  -15.5374  -30.2969   23.7676 H   0  0  0  0  0  0
  -15.8690  -28.0815   22.7062 H   0  0  0  0  0  0
  -24.5908  -30.7046   25.7724 H   0  0  0  0  0  0
  -24.8838  -32.2916   26.4734 H   0  0  0  0  0  0
  -25.7965  -30.8992   27.0239 H   0  0  0  0  0  0
  -26.3040  -29.6657   24.1315 H   0  0  0  0  0  0
  -27.4019  -29.7254   25.4883 H   0  0  0  0  0  0
  -27.8935  -30.4190   23.9636 H   0  0  0  0  0  0
  -27.2683  -33.3671   26.1962 H   0  0  0  0  0  0
  -28.3922  -32.6790   25.0327 H   0  0  0  0  0  0
  -28.0677  -31.8498   26.5485 H   0  0  0  0  0  0
  -28.2578  -38.0100   24.7519 H   0  0  0  0  0  0
  -28.1092  -36.2634   24.6270 H   0  0  0  0  0  0
  -27.2294  -37.1383   25.8869 H   0  0  0  0  0  0
  -20.9505  -29.8755   21.6783 H   0  0  0  0  0  0
  -26.0163  -38.2811   24.1424 H   0  0  0  0  0  0
  -30.5006  -21.3843   18.5961 H   0  0  0  0  0  0
  -27.9087  -19.5007   22.1093 H   0  0  0  0  0  0
  -28.7422  -17.9863   22.4367 H   0  0  0  0  0  0
  -27.4096  -18.0314   21.2768 H   0  0  0  0  0  0
  -33.9794  -19.9906   16.7756 H   0  0  0  0  0  0
  -33.7263  -18.9136   18.1473 H   0  0  0  0  0  0
  -33.4454  -20.6457   18.3184 H   0  0  0  0  0  0
  -28.7048  -21.6528   21.6261 H   0  0  0  0  0  0
  -27.5716  -21.4511   20.3422 H   0  0  0  0  0  0
  -31.5346  -20.5244   16.7238 H   0  0  0  0  0  0
  -31.8076  -18.8480   16.4393 H   0  0  0  0  0  0
  -28.9376  -23.2108   18.9405 H   0  0  0  0  0  0
  -29.9506  -23.4617   20.3122 H   0  0  0  0  0  0
  -27.8903  -24.5545   21.5192 H   0  0  0  0  0  0
  -26.9965  -24.3771   20.0753 H   0  0  0  0  0  0
  -28.8325  -15.9756   20.7471 H   0  0  0  0  0  0
  1 25  1  0  0  0
  1 30  2  0  0  0
  1 83  1  0  0  0
  2  3  1  0  0  0
  2 25  1  0  0  0
  2 85  1  0  0  0
  2 86  1  0  0  0
  3  4  1  0  0  0
  3 87  1  0  0  0
  3 88  1  0  0  0
  4  5  1  0  0  0
  4 89  1  0  0  0
  4 90  1  0  0  0
  5  6  1  0  0  0
  5 26  1  0  0  0
  5 91  1  0  0  0
  6 25  1  0  0  0
  6 92  1  0  0  0
  6 93  1  0  0  0
  7  8  2  0  0  0
  7 26  1  0  0  0
  7 29  1  0  0  0
  8  9  1  0  0  0
  8 22  1  0  0  0
  9 10  1  0  0  0
  9 27  2  0  0  0
 10 11  2  0  0  0
 10 15  1  0  0  0
 11 12  1  0  0  0
 11 94  1  0  0  0
 12 13  2  0  0  0
 12 95  1  0  0  0
 13 14  1  0  0  0
 13 31  1  0  0  0
 14 15  2  0  0  0
 14 96  1  0  0  0
 15 97  1  0  0  0
 16 17  2  0  0  0
 16 21  1  0  0  0
 16 31  1  0  0  0
 17 18  1  0  0  0
 17 98  1  0  0  0
 18 19  2  0  0  0
 18 99  1  0  0  0
 19 20  1  0  0  0
 19 24  1  0  0  0
 20 21  2  0  0  0
 20100  1  0  0  0
 21 23  1  0  0  0
 22 28  1  0  0  0
 22 32  2  0  0  0
 26 27  1  0  0  0
 28101  1  0  0  0
 28102  1  0  0  0
 29103  1  0  0  0
 29104  1  0  0  0
 33 34  1  0  0  0
 33 66  1  0  0  0
 33 70  2  0  0  0
 34 36  1  0  0  0
 34 59  1  0  0  0
 34105  1  0  0  0
 35 44  2  0  0  0
 35 45  1  0  0  0
 35 68  1  0  0  0
 36 56  1  0  0  0
 36106  1  0  0  0
 37 39  1  0  0  0
 37 47  1  0  0  0
 37 66  1  0  0  0
 37107  1  0  0  0
 38 43  2  0  0  0
 38 46  1  0  0  0
 38 47  1  0  0  0
 39 64  1  0  0  0
 39 67  2  0  0  0
 40 52  1  0  0  0
 40 53  2  0  0  0
 40 58  1  0  0  0
 41108  1  0  0  0
 41109  1  0  0  0
 41110  1  0  0  0
 41 48  1  0  0  0
 42 43  1  0  0  0
 42 66  1  0  0  0
 42111  1  0  0  0
 42112  1  0  0  0
 43 44  1  0  0  0
 44113  1  0  0  0
 45 46  2  0  0  0
 45114  1  0  0  0
 46115  1  0  0  0
 47116  1  0  0  0
 47117  1  0  0  0
 48 56  1  0  0  0
 48 65  1  0  0  0
 48118  1  0  0  0
 49 50  1  0  0  0
 49 53  1  0  0  0
 49 64  1  0  0  0
 49119  1  0  0  0
 50 51  1  0  0  0
 50120  1  0  0  0
 50121  1  0  0  0
 51 52  1  0  0  0
 51122  1  0  0  0
 51123  1  0  0  0
 52124  1  0  0  0
 52125  1  0  0  0
 53 54  1  0  0  0
 54 55  2  0  0  0
 54126  1  0  0  0
 55 57  1  0  0  0
 55127  1  0  0  0
 56 69  2  0  0  0
 57 58  2  0  0  0
 57128  1  0  0  0
 58129  1  0  0  0
 59 60  1  0  0  0
 59 61  1  0  0  0
 59 62  1  0  0  0
 60130  1  0  0  0
 60131  1  0  0  0
 60132  1  0  0  0
 61133  1  0  0  0
 61134  1  0  0  0
 61135  1  0  0  0
 62136  1  0  0  0
 62137  1  0  0  0
 62138  1  0  0  0
 63 65  1  0  0  0
 63139  1  0  0  0
 63140  1  0  0  0
 63141  1  0  0  0
 64142  1  0  0  0
 65143  1  0  0  0
 68 82  1  0  0  0
 71 72  2  0  0  0
 71 73  1  0  0  0
 71144  1  0  0  0
 72 74  1  0  0  0
 72 79  1  0  0  0
 73 76  2  0  0  0
 73 80  1  0  0  0
 74 75  2  0  0  0
 74 77  1  0  0  0
 75 76  1  0  0  0
 75 83  1  0  0  0
 76 84  1  0  0  0
 77145  1  0  0  0
 77146  1  0  0  0
 77147  1  0  0  0
 78 80  1  0  0  0
 78148  1  0  0  0
 78149  1  0  0  0
 78150  1  0  0  0
 79 81  1  0  0  0
 79151  1  0  0  0
 79152  1  0  0  0
 80153  1  0  0  0
 80154  1  0  0  0
 81 82  1  0  0  0
 81155  1  0  0  0
 81156  1  0  0  0
 82157  1  0  0  0
 82158  1  0  0  0
 83159  1  0  0  0
M  ISO  4   1 100  68 101  82 101  83 100
M  END
> <chiral flag>
0

> <version>
0

> <s_m_source_file>
/data/baiqing/PycharmProjects/Reinvent-master-3.2/result/LINK_invent/BTK/process_docking_weight1_custom_sum_contain_oxygen_bond_distance_aromatic_linkinvent_7_9_3/rearranged_h_0019.sdf

> <i_m_source_file_index>
30

> <r_mmod_Potential_Energy-OPLS-2005>
532.94921875

> <r_mmod_Stretch_Energy-OPLS-2005>
290.442657470703

> <r_mmod_Bend_Energy-OPLS-2005>
252.713043212891

> <r_mmod_Torsional_Energy-OPLS-2005>
240.740371704102

> <r_mmod_Improper_Torsional_Energy-OPLS-2005>
4.31725645065308

> <r_mmod_Van_der_Waal_Energy-OPLS-2005>
138.27424621582

> <r_mmod_Electrostatic_Energy-OPLS-2005>
-392.907196044922

> <r_mmod_Solvation_Energy-OPLS-2005>
-206.884552001953

> <b_mmod_Minimization_Converged-OPLS-2005>
0

> <r_mmod_RMS_Derivative-OPLS-2005>
1.84131062030792

$$$$
30
                    3D
 Structure written by MMmdl.
147155  0  0  1  0            999 V2000
  -30.4380  -15.1805   20.3791 C   0  0  0  0  0  0
  -30.4496  -12.7434   19.5195 C   0  0  0  0  0  0
  -29.5359  -12.5618   18.2807 C   0  0  0  0  0  0
  -28.0800  -12.2985   18.7068 C   0  0  0  0  0  0
  -27.6210  -13.2624   19.8297 C   0  0  2  0  0  0
  -28.6587  -13.3802   20.9667 C   0  0  0  0  0  0
  -25.2427  -13.8223   20.5723 C   0  0  0  0  0  0
  -24.1767  -13.0428   20.9242 C   0  0  0  0  0  0
  -24.6406  -11.6917   20.8755 C   0  0  0  0  0  0
  -23.9097  -10.4282   21.0407 C   0  0  0  0  0  0
  -24.3641   -9.4194   21.9185 C   0  0  0  0  0  0
  -23.6308   -8.2236   22.0755 C   0  0  0  0  0  0
  -22.4288   -8.0281   21.3548 C   0  0  0  0  0  0
  -21.9929   -9.0255   20.4651 C   0  0  0  0  0  0
  -22.7264  -10.2128   20.3058 C   0  0  0  0  0  0
  -21.6857   -6.0739   22.5283 C   0  0  0  0  0  0
  -21.4013   -6.5648   23.8211 C   0  0  0  0  0  0
  -21.3653   -5.6805   24.9179 C   0  0  0  0  0  0
  -21.6043   -4.3067   24.7234 C   0  0  0  0  0  0
  -21.8817   -3.8154   23.4357 C   0  0  0  0  0  0
  -21.9190   -4.6968   22.3409 C   0  0  0  0  0  0
  -22.7782  -13.5183   21.1904 C   0  0  0  0  0  0
  -22.1658   -4.2152   21.0987 F   0  0  0  0  0  0
  -21.5624   -3.4548   25.7745 F   0  0  0  0  0  0
  -29.9049  -13.8681   20.3553 N   0  0  0  0  0  0
  -26.2854  -12.9479   20.3220 N   0  0  0  0  0  0
  -25.9338  -11.6593   20.5720 N   0  0  0  0  0  0
  -22.0460  -12.8152   22.0467 N   0  0  0  0  0  0
  -25.4081  -15.1954   20.4135 N   0  0  0  0  0  0
  -31.6488  -15.2414   20.1247 O   0  0  0  0  0  0
  -21.6646   -6.8882   21.4245 O   0  0  0  0  0  0
  -22.3452  -14.5479   20.6751 O   0  0  0  0  0  0
  -24.6592  -31.8283   23.1735 C   0  0  0  0  0  0
  -25.9283  -32.4612   23.8196 C   0  0  1  0  0  0
  -27.2207  -26.9762   20.1756 C   0  0  0  0  0  0
  -25.5961  -33.8426   24.2103 N   0  0  0  0  0  0
  -23.4718  -30.4415   21.5213 C   0  0  2  0  0  0
  -24.9235  -28.8345   20.1127 C   0  0  0  0  0  0
  -22.7645  -29.4484   22.4794 C   0  0  0  0  0  0
  -18.0322  -28.1406   22.8449 C   0  0  0  0  0  0
  -24.1487  -36.7217   23.2649 C   0  0  0  0  0  0
  -26.0385  -30.6496   21.3962 C   0  0  0  0  0  0
  -26.1063  -29.2441   20.7403 C   0  0  0  0  0  0
  -27.2518  -28.3363   20.7445 C   0  0  0  0  0  0
  -26.0069  -26.7028   19.5066 C   0  0  0  0  0  0
  -24.8965  -27.5832   19.4757 C   0  0  0  0  0  0
  -23.7083  -29.7578   20.1468 C   0  0  0  0  0  0
  -25.4127  -36.2989   24.0308 C   0  0  1  0  0  0
  -20.5941  -28.3770   23.1188 C   0  0  2  0  0  0
  -20.6811  -26.9451   22.5404 C   0  0  0  0  0  0
  -19.5787  -26.6361   21.5221 C   0  0  0  0  0  0
  -18.1963  -26.7940   22.1604 C   0  0  0  0  0  0
  -19.1573  -28.8908   23.2809 C   0  0  0  0  0  0
  -18.9472  -30.1495   23.8842 C   0  0  0  0  0  0
  -17.6458  -30.6587   24.0541 C   0  0  0  0  0  0
  -25.9090  -34.9367   23.5027 C   0  0  0  0  0  0
  -16.5357  -29.9069   23.6322 C   0  0  0  0  0  0
  -16.7298  -28.6499   23.0329 C   0  0  0  0  0  0
  -26.4549  -31.6541   25.0706 C   0  0  0  0  0  0
  -25.3694  -31.3767   26.1370 C   0  0  0  0  0  0
  -27.0437  -30.2917   24.6407 C   0  0  0  0  0  0
  -27.6046  -32.4349   25.7499 C   0  0  0  0  0  0
  -27.5570  -37.1766   24.8470 C   0  0  0  0  0  0
  -21.4322  -29.3063   22.3537 N   0  0  0  0  0  0
  -26.4281  -37.3717   23.9409 N   0  0  0  0  0  0
  -24.7441  -30.9997   22.0841 N   0  0  0  0  0  0
  -23.4204  -28.8055   23.3028 O   0  0  0  0  0  0
  -28.2470  -25.9102   20.2363 O   0  0  0  0  0  0
  -26.5705  -34.8897   22.4625 O   0  0  0  0  0  0
  -23.5672  -32.1228   23.6859 O   0  0  0  0  0  0
  -29.4075  -20.3628   21.4879 C   0  0  0  0  0  0
  -29.0711  -20.2530   19.2166 C   0  0  0  0  0  0
  -29.1014  -21.1940   20.3305 C   0  0  0  0  0  0
  -29.6007  -17.9665   20.4203 C   0  0  0  0  0  0
  -29.6222  -18.8951   21.5411 C   0  0  0  0  0  0
  -29.2815  -18.7795   19.2520 C   0  0  0  0  0  0
  -29.1435  -22.9335   20.2867 C   0  0  0  0  0  0
  -28.0100  -24.2945   20.1756 C   0  0  0  0  0  0
  -29.5907  -16.3652   20.5174 N   0  0  0  0  0  0
  -29.9217  -18.2175   23.1012 Cl  0  0  0  0  0  0
  -29.1153  -17.9388   17.7524 Cl  0  0  0  0  0  0
  -31.4712  -12.9449   19.1947 H   0  0  0  0  0  0
  -30.5031  -11.8200   20.0990 H   0  0  0  0  0  0
  -29.8976  -11.7440   17.6567 H   0  0  0  0  0  0
  -29.5774  -13.4603   17.6627 H   0  0  0  0  0  0
  -28.0230  -11.2696   19.0654 H   0  0  0  0  0  0
  -27.4112  -12.3590   17.8476 H   0  0  0  0  0  0
  -27.5544  -14.2414   19.3544 H   0  0  0  0  0  0
  -28.8024  -12.4243   21.4722 H   0  0  0  0  0  0
  -28.3166  -14.0823   21.7287 H   0  0  0  0  0  0
  -25.2787   -9.5666   22.4757 H   0  0  0  0  0  0
  -24.0016   -7.4628   22.7472 H   0  0  0  0  0  0
  -21.0858   -8.8777   19.8961 H   0  0  0  0  0  0
  -22.3726  -10.9668   19.6166 H   0  0  0  0  0  0
  -21.2008   -7.6156   23.9712 H   0  0  0  0  0  0
  -21.1473   -6.0539   25.9079 H   0  0  0  0  0  0
  -22.0599   -2.7616   23.2858 H   0  0  0  0  0  0
  -22.4122  -11.9816   22.4830 H   0  0  0  0  0  0
  -21.1071  -13.1135   22.2700 H   0  0  0  0  0  0
  -24.6335  -15.8424   20.5140 H   0  0  0  0  0  0
  -26.2382  -15.6318   20.0360 H   0  0  0  0  0  0
  -26.7354  -32.5163   23.0917 H   0  0  0  0  0  0
  -25.0028  -33.9501   25.0196 H   0  0  0  0  0  0
  -22.7840  -31.2727   21.3530 H   0  0  0  0  0  0
  -23.3761  -35.9536   23.3293 H   0  0  0  0  0  0
  -24.3563  -36.8876   22.2068 H   0  0  0  0  0  0
  -23.7229  -37.6397   23.6710 H   0  0  0  0  0  0
  -26.2149  -31.3923   20.6168 H   0  0  0  0  0  0
  -26.9005  -30.7044   22.0498 H   0  0  0  0  0  0
  -28.1525  -28.6504   21.2539 H   0  0  0  0  0  0
  -25.8864  -25.7466   19.0193 H   0  0  0  0  0  0
  -23.9977  -27.2644   18.9657 H   0  0  0  0  0  0
  -23.8619  -30.5261   19.3881 H   0  0  0  0  0  0
  -22.8185  -29.2101   19.8317 H   0  0  0  0  0  0
  -25.1326  -36.1798   25.0802 H   0  0  0  0  0  0
  -21.0031  -28.3391   24.1309 H   0  0  0  0  0  0
  -20.5718  -26.2390   23.3650 H   0  0  0  0  0  0
  -21.6674  -26.7457   22.1197 H   0  0  0  0  0  0
  -19.6951  -25.6243   21.1320 H   0  0  0  0  0  0
  -19.6722  -27.3104   20.6700 H   0  0  0  0  0  0
  -17.4249  -26.6691   21.3992 H   0  0  0  0  0  0
  -18.0327  -26.0091   22.9005 H   0  0  0  0  0  0
  -19.7935  -30.7339   24.2190 H   0  0  0  0  0  0
  -17.4995  -31.6264   24.5151 H   0  0  0  0  0  0
  -15.5352  -30.2945   23.7661 H   0  0  0  0  0  0
  -15.8711  -28.0799   22.7046 H   0  0  0  0  0  0
  -24.5890  -30.7100   25.7681 H   0  0  0  0  0  0
  -24.8858  -32.2954   26.4706 H   0  0  0  0  0  0
  -25.7940  -30.8996   27.0211 H   0  0  0  0  0  0
  -26.3090  -29.6600   24.1403 H   0  0  0  0  0  0
  -27.3970  -29.7275   25.5047 H   0  0  0  0  0  0
  -27.9034  -30.4106   23.9809 H   0  0  0  0  0  0
  -27.2616  -33.3685   26.1969 H   0  0  0  0  0  0
  -28.3905  -32.6853   25.0361 H   0  0  0  0  0  0
  -28.0666  -31.8551   26.5499 H   0  0  0  0  0  0
  -28.2585  -38.0066   24.7513 H   0  0  0  0  0  0
  -28.1070  -36.2593   24.6308 H   0  0  0  0  0  0
  -27.2286  -37.1426   25.8873 H   0  0  0  0  0  0
  -20.9592  -29.8721   21.6628 H   0  0  0  0  0  0
  -26.0137  -38.2780   24.1413 H   0  0  0  0  0  0
  -29.5174  -20.8843   22.4279 H   0  0  0  0  0  0
  -28.8947  -20.6794   18.2394 H   0  0  0  0  0  0
  -29.8417  -23.1216   19.4711 H   0  0  0  0  0  0
  -29.7263  -23.1698   21.1767 H   0  0  0  0  0  0
  -27.2706  -24.1112   20.9554 H   0  0  0  0  0  0
  -27.4696  -24.1284   19.2438 H   0  0  0  0  0  0
  -28.6570  -16.0451   20.7197 H   0  0  0  0  0  0
  1 25  1  0  0  0
  1 30  2  0  0  0
  1 79  1  0  0  0
  2  3  1  0  0  0
  2 25  1  0  0  0
  2 82  1  0  0  0
  2 83  1  0  0  0
  3  4  1  0  0  0
  3 84  1  0  0  0
  3 85  1  0  0  0
  4  5  1  0  0  0
  4 86  1  0  0  0
  4 87  1  0  0  0
  5  6  1  0  0  0
  5 26  1  0  0  0
  5 88  1  0  0  0
  6 25  1  0  0  0
  6 89  1  0  0  0
  6 90  1  0  0  0
  7  8  2  0  0  0
  7 26  1  0  0  0
  7 29  1  0  0  0
  8  9  1  0  0  0
  8 22  1  0  0  0
  9 10  1  0  0  0
  9 27  2  0  0  0
 10 11  2  0  0  0
 10 15  1  0  0  0
 11 12  1  0  0  0
 11 91  1  0  0  0
 12 13  2  0  0  0
 12 92  1  0  0  0
 13 14  1  0  0  0
 13 31  1  0  0  0
 14 15  2  0  0  0
 14 93  1  0  0  0
 15 94  1  0  0  0
 16 17  2  0  0  0
 16 21  1  0  0  0
 16 31  1  0  0  0
 17 18  1  0  0  0
 17 95  1  0  0  0
 18 19  2  0  0  0
 18 96  1  0  0  0
 19 20  1  0  0  0
 19 24  1  0  0  0
 20 21  2  0  0  0
 20 97  1  0  0  0
 21 23  1  0  0  0
 22 28  1  0  0  0
 22 32  2  0  0  0
 26 27  1  0  0  0
 28 98  1  0  0  0
 28 99  1  0  0  0
 29100  1  0  0  0
 29101  1  0  0  0
 33 34  1  0  0  0
 33 66  1  0  0  0
 33 70  2  0  0  0
 34 36  1  0  0  0
 34 59  1  0  0  0
 34102  1  0  0  0
 35 44  2  0  0  0
 35 45  1  0  0  0
 35 68  1  0  0  0
 36 56  1  0  0  0
 36103  1  0  0  0
 37 39  1  0  0  0
 37 47  1  0  0  0
 37 66  1  0  0  0
 37104  1  0  0  0
 38 43  2  0  0  0
 38 46  1  0  0  0
 38 47  1  0  0  0
 39 64  1  0  0  0
 39 67  2  0  0  0
 40 52  1  0  0  0
 40 53  2  0  0  0
 40 58  1  0  0  0
 41105  1  0  0  0
 41106  1  0  0  0
 41107  1  0  0  0
 41 48  1  0  0  0
 42 43  1  0  0  0
 42 66  1  0  0  0
 42108  1  0  0  0
 42109  1  0  0  0
 43 44  1  0  0  0
 44110  1  0  0  0
 45 46  2  0  0  0
 45111  1  0  0  0
 46112  1  0  0  0
 47113  1  0  0  0
 47114  1  0  0  0
 48 56  1  0  0  0
 48 65  1  0  0  0
 48115  1  0  0  0
 49 50  1  0  0  0
 49 53  1  0  0  0
 49 64  1  0  0  0
 49116  1  0  0  0
 50 51  1  0  0  0
 50117  1  0  0  0
 50118  1  0  0  0
 51 52  1  0  0  0
 51119  1  0  0  0
 51120  1  0  0  0
 52121  1  0  0  0
 52122  1  0  0  0
 53 54  1  0  0  0
 54 55  2  0  0  0
 54123  1  0  0  0
 55 57  1  0  0  0
 55124  1  0  0  0
 56 69  2  0  0  0
 57 58  2  0  0  0
 57125  1  0  0  0
 58126  1  0  0  0
 59 60  1  0  0  0
 59 61  1  0  0  0
 59 62  1  0  0  0
 60127  1  0  0  0
 60128  1  0  0  0
 60129  1  0  0  0
 61130  1  0  0  0
 61131  1  0  0  0
 61132  1  0  0  0
 62133  1  0  0  0
 62134  1  0  0  0
 62135  1  0  0  0
 63 65  1  0  0  0
 63136  1  0  0  0
 63137  1  0  0  0
 63138  1  0  0  0
 64139  1  0  0  0
 65140  1  0  0  0
 68 78  1  0  0  0
 71 73  2  0  0  0
 71 75  1  0  0  0
 71141  1  0  0  0
 72 73  1  0  0  0
 72 76  2  0  0  0
 72142  1  0  0  0
 73 77  1  0  0  0
 74 75  2  0  0  0
 74 76  1  0  0  0
 74 79  1  0  0  0
 75 80  1  0  0  0
 76 81  1  0  0  0
 77 78  1  0  0  0
 77143  1  0  0  0
 77144  1  0  0  0
 78145  1  0  0  0
 78146  1  0  0  0
 79147  1  0  0  0
M  ISO  4   1 100  68 101  78 101  79 100
M  END
> <chiral flag>
0

> <version>
0

> <s_m_source_file>
/data/baiqing/PycharmProjects/Reinvent-master-3.2/result/LINK_invent/BTK/process_docking_weight1_custom_sum_contain_oxygen_bond_distance_aromatic_linkinvent_7_9_3/rearranged_h_0019.sdf

> <i_m_source_file_index>
31

> <r_mmod_Potential_Energy-OPLS-2005>
997.540222167969

> <r_mmod_Stretch_Energy-OPLS-2005>
451.9970703125

> <r_mmod_Bend_Energy-OPLS-2005>
394.108825683594

> <r_mmod_Torsional_Energy-OPLS-2005>
249.586349487305

> <r_mmod_Improper_Torsional_Energy-OPLS-2005>
8.37569332122803

> <r_mmod_Van_der_Waal_Energy-OPLS-2005>
121.993186950684

> <r_mmod_Electrostatic_Energy-OPLS-2005>
-394.539337158203

> <r_mmod_Solvation_Energy-OPLS-2005>
-212.876556396484

> <b_mmod_Minimization_Converged-OPLS-2005>
0

> <r_mmod_RMS_Derivative-OPLS-2005>
1.15531599521637

$$$$
31
                    3D
 Structure written by MMmdl.
153161  0  0  1  0            999 V2000
  -30.4374  -15.1835   20.3785 C   0  0  0  0  0  0
  -30.4485  -12.7470   19.5175 C   0  0  0  0  0  0
  -29.5368  -12.5668   18.2780 C   0  0  0  0  0  0
  -28.0792  -12.3059   18.7012 C   0  0  0  0  0  0
  -27.6196  -13.2658   19.8277 C   0  0  2  0  0  0
  -28.6572  -13.3855   20.9639 C   0  0  0  0  0  0
  -25.2420  -13.8232   20.5723 C   0  0  0  0  0  0
  -24.1762  -13.0435   20.9250 C   0  0  0  0  0  0
  -24.6404  -11.6928   20.8754 C   0  0  0  0  0  0
  -23.9091  -10.4294   21.0404 C   0  0  0  0  0  0
  -24.3634   -9.4206   21.9182 C   0  0  0  0  0  0
  -23.6303   -8.2244   22.0752 C   0  0  0  0  0  0
  -22.4284   -8.0284   21.3543 C   0  0  0  0  0  0
  -21.9924   -9.0260   20.4644 C   0  0  0  0  0  0
  -22.7261  -10.2136   20.3053 C   0  0  0  0  0  0
  -21.6855   -6.0741   22.5282 C   0  0  0  0  0  0
  -21.4018   -6.5641   23.8217 C   0  0  0  0  0  0
  -21.3659   -5.6790   24.9175 C   0  0  0  0  0  0
  -21.6044   -4.3054   24.7224 C   0  0  0  0  0  0
  -21.8818   -3.8149   23.4344 C   0  0  0  0  0  0
  -21.9192   -4.6967   22.3402 C   0  0  0  0  0  0
  -22.7777  -13.5194   21.1899 C   0  0  0  0  0  0
  -22.1660   -4.2154   21.0979 F   0  0  0  0  0  0
  -21.5624   -3.4535   25.7735 F   0  0  0  0  0  0
  -29.9026  -13.8727   20.3502 N   0  0  0  0  0  0
  -26.2848  -12.9493   20.3209 N   0  0  0  0  0  0
  -25.9341  -11.6607   20.5717 N   0  0  0  0  0  0
  -22.0427  -12.8184   22.0454 N   0  0  0  0  0  0
  -25.4040  -15.1968   20.4142 N   0  0  0  0  0  0
  -31.6532  -15.2395   20.1449 O   0  0  0  0  0  0
  -21.6642   -6.8887   21.4245 O   0  0  0  0  0  0
  -22.3457  -14.5492   20.6735 O   0  0  0  0  0  0
  -24.6584  -31.8283   23.1737 C   0  0  0  0  0  0
  -25.9285  -32.4613   23.8188 C   0  0  1  0  0  0
  -27.2228  -26.9790   20.1779 C   0  0  0  0  0  0
  -25.5969  -33.8424   24.2097 N   0  0  0  0  0  0
  -23.4705  -30.4410   21.5225 C   0  0  2  0  0  0
  -24.9233  -28.8348   20.1133 C   0  0  0  0  0  0
  -22.7644  -29.4466   22.4803 C   0  0  0  0  0  0
  -18.0319  -28.1407   22.8467 C   0  0  0  0  0  0
  -24.1494  -36.7219   23.2647 C   0  0  0  0  0  0
  -26.0363  -30.6521   21.3950 C   0  0  0  0  0  0
  -26.1061  -29.2465   20.7399 C   0  0  0  0  0  0
  -27.2524  -28.3397   20.7456 C   0  0  0  0  0  0
  -26.0091  -26.7035   19.5103 C   0  0  0  0  0  0
  -24.8969  -27.5821   19.4791 C   0  0  0  0  0  0
  -23.7071  -29.7570   20.1480 C   0  0  0  0  0  0
  -25.4132  -36.2983   24.0304 C   0  0  1  0  0  0
  -20.5940  -28.3747   23.1200 C   0  0  2  0  0  0
  -20.6797  -26.9434   22.5404 C   0  0  0  0  0  0
  -19.5773  -26.6377   21.5214 C   0  0  0  0  0  0
  -18.1954  -26.7940   22.1621 C   0  0  0  0  0  0
  -19.1578  -28.8897   23.2821 C   0  0  0  0  0  0
  -18.9489  -30.1488   23.8854 C   0  0  0  0  0  0
  -17.6483  -30.6596   24.0556 C   0  0  0  0  0  0
  -25.9093  -34.9364   23.5021 C   0  0  0  0  0  0
  -16.5375  -29.9085   23.6341 C   0  0  0  0  0  0
  -16.7301  -28.6506   23.0359 C   0  0  0  0  0  0
  -26.4551  -31.6540   25.0698 C   0  0  0  0  0  0
  -25.3688  -31.3774   26.1362 C   0  0  0  0  0  0
  -27.0443  -30.2916   24.6394 C   0  0  0  0  0  0
  -27.6050  -32.4341   25.7499 C   0  0  0  0  0  0
  -27.5572  -37.1768   24.8466 C   0  0  0  0  0  0
  -21.4319  -29.3044   22.3551 N   0  0  0  0  0  0
  -26.4282  -37.3714   23.9407 N   0  0  0  0  0  0
  -24.7428  -30.9994   22.0847 N   0  0  0  0  0  0
  -23.4212  -28.8037   23.3030 O   0  0  0  0  0  0
  -28.2499  -25.9147   20.2416 O   0  0  0  0  0  0
  -26.5700  -34.8892   22.4614 O   0  0  0  0  0  0
  -23.5666  -32.1229   23.6864 O   0  0  0  0  0  0
  -29.5322  -20.3742   21.4643 C   0  0  0  0  0  0
  -28.9470  -20.2630   19.2432 C   0  0  0  0  0  0
  -29.1075  -21.2027   20.3434 C   0  0  0  0  0  0
  -29.7454  -18.9041   21.5036 C   0  0  0  0  0  0
  -29.1499  -18.7867   19.2632 C   0  0  0  0  0  0
  -29.5952  -17.9750   20.3935 C   0  0  0  0  0  0
  -30.1427  -18.2982   22.8362 C   0  0  0  0  0  0
  -28.8539  -18.0376   17.9775 C   0  0  0  0  0  0
  -29.1474  -22.9422   20.3108 C   0  0  0  0  0  0
  -28.0150  -24.3000   20.1722 C   0  0  0  0  0  0
  -29.5853  -16.3732   20.4792 N   0  0  0  0  0  0
  -31.4703  -12.9495   19.1941 H   0  0  0  0  0  0
  -30.5011  -11.8249   20.0985 H   0  0  0  0  0  0
  -29.9005  -11.7496   17.6537 H   0  0  0  0  0  0
  -29.5811  -13.4666   17.6620 H   0  0  0  0  0  0
  -28.0188  -11.2753   19.0529 H   0  0  0  0  0  0
  -27.4124  -12.3754   17.8409 H   0  0  0  0  0  0
  -27.5509  -14.2460   19.3543 H   0  0  0  0  0  0
  -28.8025  -12.4316   21.4730 H   0  0  0  0  0  0
  -28.3143  -14.0920   21.7215 H   0  0  0  0  0  0
  -25.2777   -9.5680   22.4760 H   0  0  0  0  0  0
  -24.0008   -7.4634   22.7473 H   0  0  0  0  0  0
  -21.0854   -8.8787   19.8952 H   0  0  0  0  0  0
  -22.3723  -10.9675   19.6162 H   0  0  0  0  0  0
  -21.2019   -7.6151   23.9725 H   0  0  0  0  0  0
  -21.1478   -6.0517   25.9078 H   0  0  0  0  0  0
  -22.0598   -2.7612   23.2841 H   0  0  0  0  0  0
  -22.4050  -11.9858   22.4859 H   0  0  0  0  0  0
  -21.1037  -13.1199   22.2649 H   0  0  0  0  0  0
  -24.6276  -15.8401   20.5249 H   0  0  0  0  0  0
  -26.2327  -15.6416   20.0436 H   0  0  0  0  0  0
  -26.7354  -32.5168   23.0906 H   0  0  0  0  0  0
  -25.0068  -33.9508   25.0215 H   0  0  0  0  0  0
  -22.7814  -31.2712   21.3545 H   0  0  0  0  0  0
  -23.3766  -35.9540   23.3284 H   0  0  0  0  0  0
  -24.3571  -36.8888   22.2066 H   0  0  0  0  0  0
  -23.7240  -37.6399   23.6715 H   0  0  0  0  0  0
  -26.2092  -31.3965   20.6166 H   0  0  0  0  0  0
  -26.8992  -30.7085   22.0468 H   0  0  0  0  0  0
  -28.1514  -28.6551   21.2562 H   0  0  0  0  0  0
  -25.8900  -25.7459   19.0255 H   0  0  0  0  0  0
  -23.9967  -27.2602   18.9737 H   0  0  0  0  0  0
  -23.8587  -30.5259   19.3896 H   0  0  0  0  0  0
  -22.8176  -29.2087   19.8325 H   0  0  0  0  0  0
  -25.1330  -36.1786   25.0795 H   0  0  0  0  0  0
  -21.0029  -28.3352   24.1324 H   0  0  0  0  0  0
  -20.5683  -26.2366   23.3640 H   0  0  0  0  0  0
  -21.6662  -26.7420   22.1208 H   0  0  0  0  0  0
  -19.6933  -25.6276   21.1275 H   0  0  0  0  0  0
  -19.6712  -27.3162   20.6724 H   0  0  0  0  0  0
  -17.4224  -26.6683   21.4025 H   0  0  0  0  0  0
  -18.0351  -26.0094   22.9029 H   0  0  0  0  0  0
  -19.7964  -30.7316   24.2206 H   0  0  0  0  0  0
  -17.5035  -31.6273   24.5167 H   0  0  0  0  0  0
  -15.5372  -30.2973   23.7690 H   0  0  0  0  0  0
  -15.8703  -28.0812   22.7097 H   0  0  0  0  0  0
  -24.5882  -30.7113   25.7669 H   0  0  0  0  0  0
  -24.8863  -32.2970   26.4683 H   0  0  0  0  0  0
  -25.7929  -30.9008   27.0208 H   0  0  0  0  0  0
  -26.3099  -29.6598   24.1387 H   0  0  0  0  0  0
  -27.3982  -29.7271   25.5031 H   0  0  0  0  0  0
  -27.9036  -30.4114   23.9793 H   0  0  0  0  0  0
  -27.2622  -33.3679   26.1968 H   0  0  0  0  0  0
  -28.3917  -32.6842   25.0368 H   0  0  0  0  0  0
  -28.0656  -31.8539   26.5504 H   0  0  0  0  0  0
  -28.2575  -38.0076   24.7512 H   0  0  0  0  0  0
  -28.1082  -36.2604   24.6297 H   0  0  0  0  0  0
  -27.2289  -37.1416   25.8869 H   0  0  0  0  0  0
  -20.9566  -29.8728   21.6680 H   0  0  0  0  0  0
  -26.0136  -38.2776   24.1410 H   0  0  0  0  0  0
  -29.7375  -20.9113   22.3801 H   0  0  0  0  0  0
  -28.6644  -20.7014   18.2958 H   0  0  0  0  0  0
  -30.3867  -19.0612   23.5753 H   0  0  0  0  0  0
  -31.0175  -17.6581   22.7167 H   0  0  0  0  0  0
  -29.3280  -17.6913   23.2319 H   0  0  0  0  0  0
  -28.7743  -18.7125   17.1250 H   0  0  0  0  0  0
  -27.9153  -17.4906   18.0672 H   0  0  0  0  0  0
  -29.6459  -17.3206   17.7596 H   0  0  0  0  0  0
  -29.8744  -23.1380   19.5225 H   0  0  0  0  0  0
  -29.6989  -23.1737   21.2219 H   0  0  0  0  0  0
  -27.2551  -24.1159   20.9318 H   0  0  0  0  0  0
  -27.4989  -24.1362   19.2265 H   0  0  0  0  0  0
  -28.6414  -16.0449   20.6130 H   0  0  0  0  0  0
  1 25  1  0  0  0
  1 30  2  0  0  0
  1 81  1  0  0  0
  2  3  1  0  0  0
  2 25  1  0  0  0
  2 82  1  0  0  0
  2 83  1  0  0  0
  3  4  1  0  0  0
  3 84  1  0  0  0
  3 85  1  0  0  0
  4  5  1  0  0  0
  4 86  1  0  0  0
  4 87  1  0  0  0
  5  6  1  0  0  0
  5 26  1  0  0  0
  5 88  1  0  0  0
  6 25  1  0  0  0
  6 89  1  0  0  0
  6 90  1  0  0  0
  7  8  2  0  0  0
  7 26  1  0  0  0
  7 29  1  0  0  0
  8  9  1  0  0  0
  8 22  1  0  0  0
  9 10  1  0  0  0
  9 27  2  0  0  0
 10 11  2  0  0  0
 10 15  1  0  0  0
 11 12  1  0  0  0
 11 91  1  0  0  0
 12 13  2  0  0  0
 12 92  1  0  0  0
 13 14  1  0  0  0
 13 31  1  0  0  0
 14 15  2  0  0  0
 14 93  1  0  0  0
 15 94  1  0  0  0
 16 17  2  0  0  0
 16 21  1  0  0  0
 16 31  1  0  0  0
 17 18  1  0  0  0
 17 95  1  0  0  0
 18 19  2  0  0  0
 18 96  1  0  0  0
 19 20  1  0  0  0
 19 24  1  0  0  0
 20 21  2  0  0  0
 20 97  1  0  0  0
 21 23  1  0  0  0
 22 28  1  0  0  0
 22 32  2  0  0  0
 26 27  1  0  0  0
 28 98  1  0  0  0
 28 99  1  0  0  0
 29100  1  0  0  0
 29101  1  0  0  0
 33 34  1  0  0  0
 33 66  1  0  0  0
 33 70  2  0  0  0
 34 36  1  0  0  0
 34 59  1  0  0  0
 34102  1  0  0  0
 35 44  2  0  0  0
 35 45  1  0  0  0
 35 68  1  0  0  0
 36 56  1  0  0  0
 36103  1  0  0  0
 37 39  1  0  0  0
 37 47  1  0  0  0
 37 66  1  0  0  0
 37104  1  0  0  0
 38 43  2  0  0  0
 38 46  1  0  0  0
 38 47  1  0  0  0
 39 64  1  0  0  0
 39 67  2  0  0  0
 40 52  1  0  0  0
 40 53  2  0  0  0
 40 58  1  0  0  0
 41105  1  0  0  0
 41106  1  0  0  0
 41107  1  0  0  0
 41 48  1  0  0  0
 42 43  1  0  0  0
 42 66  1  0  0  0
 42108  1  0  0  0
 42109  1  0  0  0
 43 44  1  0  0  0
 44110  1  0  0  0
 45 46  2  0  0  0
 45111  1  0  0  0
 46112  1  0  0  0
 47113  1  0  0  0
 47114  1  0  0  0
 48 56  1  0  0  0
 48 65  1  0  0  0
 48115  1  0  0  0
 49 50  1  0  0  0
 49 53  1  0  0  0
 49 64  1  0  0  0
 49116  1  0  0  0
 50 51  1  0  0  0
 50117  1  0  0  0
 50118  1  0  0  0
 51 52  1  0  0  0
 51119  1  0  0  0
 51120  1  0  0  0
 52121  1  0  0  0
 52122  1  0  0  0
 53 54  1  0  0  0
 54 55  2  0  0  0
 54123  1  0  0  0
 55 57  1  0  0  0
 55124  1  0  0  0
 56 69  2  0  0  0
 57 58  2  0  0  0
 57125  1  0  0  0
 58126  1  0  0  0
 59 60  1  0  0  0
 59 61  1  0  0  0
 59 62  1  0  0  0
 60127  1  0  0  0
 60128  1  0  0  0
 60129  1  0  0  0
 61130  1  0  0  0
 61131  1  0  0  0
 61132  1  0  0  0
 62133  1  0  0  0
 62134  1  0  0  0
 62135  1  0  0  0
 63 65  1  0  0  0
 63136  1  0  0  0
 63137  1  0  0  0
 63138  1  0  0  0
 64139  1  0  0  0
 65140  1  0  0  0
 68 80  1  0  0  0
 71 73  2  0  0  0
 71 74  1  0  0  0
 71141  1  0  0  0
 72 73  1  0  0  0
 72 75  2  0  0  0
 72142  1  0  0  0
 73 79  1  0  0  0
 74 76  2  0  0  0
 74 77  1  0  0  0
 75 76  1  0  0  0
 75 78  1  0  0  0
 76 81  1  0  0  0
 77143  1  0  0  0
 77144  1  0  0  0
 77145  1  0  0  0
 78146  1  0  0  0
 78147  1  0  0  0
 78148  1  0  0  0
 79 80  1  0  0  0
 79149  1  0  0  0
 79150  1  0  0  0
 80151  1  0  0  0
 80152  1  0  0  0
 81153  1  0  0  0
M  ISO  4   1 100  68 101  80 101  81 100
M  END
> <chiral flag>
0

> <version>
0

> <s_m_source_file>
/data/baiqing/PycharmProjects/Reinvent-master-3.2/result/LINK_invent/BTK/process_docking_weight1_custom_sum_contain_oxygen_bond_distance_aromatic_linkinvent_7_9_3/rearranged_h_0019.sdf

> <i_m_source_file_index>
32

> <r_mmod_Potential_Energy-OPLS-2005>
1006.48681640625

> <r_mmod_Stretch_Energy-OPLS-2005>
452.890258789062

> <r_mmod_Bend_Energy-OPLS-2005>
394.327545166016

> <r_mmod_Torsional_Energy-OPLS-2005>
248.988204956055

> <r_mmod_Improper_Torsional_Energy-OPLS-2005>
8.50920295715332

> <r_mmod_Van_der_Waal_Energy-OPLS-2005>
124.299011230469

> <r_mmod_Electrostatic_Energy-OPLS-2005>
-393.191802978516

> <r_mmod_Solvation_Energy-OPLS-2005>
-208.489166259766

> <b_mmod_Minimization_Converged-OPLS-2005>
0

> <r_mmod_RMS_Derivative-OPLS-2005>
0.444947332143784

$$$$
32
                    3D
 Structure written by MMmdl.
160168  0  0  1  0            999 V2000
  -30.3930  -15.3618   20.3384 C   0  0  0  0  0  0
  -30.4368  -12.8690   19.5378 C   0  0  0  0  0  0
  -29.5471  -12.6193   18.2926 C   0  0  0  0  0  0
  -28.0991  -12.3133   18.7145 C   0  0  0  0  0  0
  -27.6109  -13.2853   19.8174 C   0  0  2  0  0  0
  -28.6360  -13.4953   20.9557 C   0  0  0  0  0  0
  -25.2386  -13.8246   20.5723 C   0  0  0  0  0  0
  -24.1735  -13.0437   20.9234 C   0  0  0  0  0  0
  -24.6394  -11.6933   20.8719 C   0  0  0  0  0  0
  -23.9076  -10.4292   21.0351 C   0  0  0  0  0  0
  -24.3625   -9.4216   21.9136 C   0  0  0  0  0  0
  -23.6318   -8.2238   22.0730 C   0  0  0  0  0  0
  -22.4298   -8.0268   21.3524 C   0  0  0  0  0  0
  -21.9907   -9.0239   20.4633 C   0  0  0  0  0  0
  -22.7230  -10.2123   20.3029 C   0  0  0  0  0  0
  -21.6862   -6.0707   22.5269 C   0  0  0  0  0  0
  -21.4021   -6.5618   23.8192 C   0  0  0  0  0  0
  -21.3679   -5.6781   24.9147 C   0  0  0  0  0  0
  -21.6068   -4.3045   24.7198 C   0  0  0  0  0  0
  -21.8829   -3.8119   23.4322 C   0  0  0  0  0  0
  -21.9186   -4.6927   22.3376 C   0  0  0  0  0  0
  -22.7735  -13.5184   21.1889 C   0  0  0  0  0  0
  -22.1652   -4.2110   21.0954 F   0  0  0  0  0  0
  -21.5631   -3.4540   25.7725 F   0  0  0  0  0  0
  -29.8601  -14.0279   20.3339 N   0  0  0  0  0  0
  -26.2818  -12.9539   20.3161 N   0  0  0  0  0  0
  -25.9340  -11.6635   20.5649 N   0  0  0  0  0  0
  -22.0373  -12.8209   22.0460 N   0  0  0  0  0  0
  -25.4006  -15.1985   20.4135 N   0  0  0  0  0  0
  -31.6077  -15.3508   20.0905 O   0  0  0  0  0  0
  -21.6669   -6.8871   21.4243 O   0  0  0  0  0  0
  -22.3409  -14.5458   20.6693 O   0  0  0  0  0  0
  -24.6718  -31.8139   23.1659 C   0  0  0  0  0  0
  -25.9362  -32.4535   23.8123 C   0  0  1  0  0  0
  -27.2153  -26.8618   20.1973 C   0  0  0  0  0  0
  -25.5988  -33.8367   24.2014 N   0  0  0  0  0  0
  -23.4856  -30.4256   21.5190 C   0  0  2  0  0  0
  -24.9339  -28.7889   20.1245 C   0  0  0  0  0  0
  -22.7676  -29.4403   22.4788 C   0  0  0  0  0  0
  -18.0313  -28.1411   22.8439 C   0  0  0  0  0  0
  -24.1493  -36.7223   23.2638 C   0  0  0  0  0  0
  -26.0604  -30.5951   21.4058 C   0  0  0  0  0  0
  -26.1243  -29.1799   20.7524 C   0  0  0  0  0  0
  -27.2600  -28.2428   20.7511 C   0  0  0  0  0  0
  -25.9909  -26.6285   19.5313 C   0  0  0  0  0  0
  -24.8951  -27.5327   19.4980 C   0  0  0  0  0  0
  -23.7283  -29.7319   20.1505 C   0  0  0  0  0  0
  -25.4137  -36.2961   24.0284 C   0  0  1  0  0  0
  -20.5934  -28.3756   23.1191 C   0  0  2  0  0  0
  -20.6799  -26.9434   22.5411 C   0  0  0  0  0  0
  -19.5794  -26.6352   21.5220 C   0  0  0  0  0  0
  -18.1965  -26.7934   22.1603 C   0  0  0  0  0  0
  -19.1572  -28.8910   23.2792 C   0  0  0  0  0  0
  -18.9472  -30.1513   23.8816 C   0  0  0  0  0  0
  -17.6477  -30.6589   24.0551 C   0  0  0  0  0  0
  -25.9103  -34.9331   23.4978 C   0  0  0  0  0  0
  -16.5365  -29.9069   23.6372 C   0  0  0  0  0  0
  -16.7297  -28.6500   23.0344 C   0  0  0  0  0  0
  -26.4541  -31.6540   25.0721 C   0  0  0  0  0  0
  -25.3622  -31.3888   26.1363 C   0  0  0  0  0  0
  -27.0428  -30.2864   24.6582 C   0  0  0  0  0  0
  -27.5980  -32.4393   25.7565 C   0  0  0  0  0  0
  -27.5587  -37.1772   24.8434 C   0  0  0  0  0  0
  -21.4327  -29.3037   22.3523 N   0  0  0  0  0  0
  -26.4275  -37.3713   23.9401 N   0  0  0  0  0  0
  -24.7616  -30.9734   22.0829 N   0  0  0  0  0  0
  -23.4191  -28.7974   23.3037 O   0  0  0  0  0  0
  -28.2337  -25.7525   20.2202 O   0  0  0  0  0  0
  -26.5717  -34.8882   22.4579 O   0  0  0  0  0  0
  -23.5782  -32.1136   23.6734 O   0  0  0  0  0  0
  -28.9742  -19.5783   20.5586 C   0  0  0  0  0  0
  -29.6928  -18.2592   20.1477 C   0  0  0  0  0  0
  -29.3575  -20.8626   19.9305 C   0  0  0  0  0  0
  -30.4947  -18.7963   19.1797 C   0  0  0  0  0  0
  -31.4050  -18.0150   18.2607 C   0  0  0  0  0  0
  -30.9022  -22.7126   21.7786 C   0  0  0  0  0  0
  -28.9101  -22.9817   18.3447 C   0  0  0  0  0  0
  -31.2707  -20.8936   18.1461 C   0  0  0  0  0  0
  -30.4854  -23.2858   20.4132 C   0  0  0  0  0  0
  -28.0752  -24.0808   20.3802 C   0  0  0  0  0  0
  -29.1514  -22.6866   19.8496 C   0  0  2  0  0  0
  -30.3665  -20.2314   19.0954 N   0  0  0  0  0  0
  -29.6106  -16.6437   20.4893 N   0  0  0  0  0  0
  -31.4567  -13.0749   19.2116 H   0  0  0  0  0  0
  -30.5077  -11.9649   20.1442 H   0  0  0  0  0  0
  -29.9515  -11.8087   17.6830 H   0  0  0  0  0  0
  -29.5611  -13.5123   17.6633 H   0  0  0  0  0  0
  -28.0651  -11.2887   19.0834 H   0  0  0  0  0  0
  -27.4367  -12.3412   17.8486 H   0  0  0  0  0  0
  -27.5178  -14.2478   19.3115 H   0  0  0  0  0  0
  -28.8178  -12.5750   21.5118 H   0  0  0  0  0  0
  -28.2575  -14.2223   21.6737 H   0  0  0  0  0  0
  -25.2765   -9.5718   22.4694 H   0  0  0  0  0  0
  -24.0029   -7.4648   22.7478 H   0  0  0  0  0  0
  -21.0816   -8.8767   19.8967 H   0  0  0  0  0  0
  -22.3675  -10.9643   19.6137 H   0  0  0  0  0  0
  -21.2039   -7.6132   23.9703 H   0  0  0  0  0  0
  -21.1495   -6.0491   25.9073 H   0  0  0  0  0  0
  -22.0594   -2.7586   23.2826 H   0  0  0  0  0  0
  -22.4024  -11.9937   22.4947 H   0  0  0  0  0  0
  -21.0965  -13.1216   22.2589 H   0  0  0  0  0  0
  -24.6307  -15.8484   20.5288 H   0  0  0  0  0  0
  -26.2402  -15.6371   20.0576 H   0  0  0  0  0  0
  -26.7427  -32.5009   23.0820 H   0  0  0  0  0  0
  -25.0060  -33.9411   25.0110 H   0  0  0  0  0  0
  -22.8043  -31.2620   21.3441 H   0  0  0  0  0  0
  -23.3784  -35.9523   23.3206 H   0  0  0  0  0  0
  -24.3570  -36.8976   22.2070 H   0  0  0  0  0  0
  -23.7212  -37.6364   23.6766 H   0  0  0  0  0  0
  -26.2515  -31.3264   20.6200 H   0  0  0  0  0  0
  -26.9169  -30.6470   22.0669 H   0  0  0  0  0  0
  -28.1658  -28.5474   21.2553 H   0  0  0  0  0  0
  -25.8487  -25.6723   19.0473 H   0  0  0  0  0  0
  -23.9857  -27.2208   19.0020 H   0  0  0  0  0  0
  -23.8982  -30.4945   19.3906 H   0  0  0  0  0  0
  -22.8311  -29.1976   19.8314 H   0  0  0  0  0  0
  -25.1342  -36.1740   25.0781 H   0  0  0  0  0  0
  -21.0014  -28.3376   24.1326 H   0  0  0  0  0  0
  -20.5699  -26.2370   23.3649 H   0  0  0  0  0  0
  -21.6665  -26.7415   22.1228 H   0  0  0  0  0  0
  -19.6957  -25.6237   21.1312 H   0  0  0  0  0  0
  -19.6778  -27.3094   20.6705 H   0  0  0  0  0  0
  -17.4258  -26.6679   21.3979 H   0  0  0  0  0  0
  -18.0355  -26.0077   22.9009 H   0  0  0  0  0  0
  -19.7954  -30.7352   24.2115 H   0  0  0  0  0  0
  -17.5025  -31.6261   24.5176 H   0  0  0  0  0  0
  -15.5357  -30.2939   23.7766 H   0  0  0  0  0  0
  -15.8691  -28.0821   22.7079 H   0  0  0  0  0  0
  -24.5753  -30.7288   25.7685 H   0  0  0  0  0  0
  -24.8867  -32.3144   26.4632 H   0  0  0  0  0  0
  -25.7792  -30.9132   27.0249 H   0  0  0  0  0  0
  -26.3091  -29.6516   24.1596 H   0  0  0  0  0  0
  -27.3841  -29.7302   25.5325 H   0  0  0  0  0  0
  -27.9094  -30.3950   24.0063 H   0  0  0  0  0  0
  -27.2431  -33.3672   26.2076 H   0  0  0  0  0  0
  -28.3832  -32.7022   25.0464 H   0  0  0  0  0  0
  -28.0603  -31.8596   26.5563 H   0  0  0  0  0  0
  -28.2545  -38.0129   24.7543 H   0  0  0  0  0  0
  -28.1143  -36.2660   24.6166 H   0  0  0  0  0  0
  -27.2317  -37.1298   25.8836 H   0  0  0  0  0  0
  -20.9609  -29.8703   21.6608 H   0  0  0  0  0  0
  -26.0121  -38.2769   24.1421 H   0  0  0  0  0  0
  -28.1993  -19.5857   21.3095 H   0  0  0  0  0  0
  -30.9514  -17.0553   18.0118 H   0  0  0  0  0  0
  -32.3652  -17.8155   18.7393 H   0  0  0  0  0  0
  -31.5947  -18.4916   17.2979 H   0  0  0  0  0  0
  -31.7457  -23.2684   22.1936 H   0  0  0  0  0  0
  -31.2093  -21.6682   21.7093 H   0  0  0  0  0  0
  -30.0880  -22.7637   22.4996 H   0  0  0  0  0  0
  -29.2122  -22.1956   17.6648 H   0  0  0  0  0  0
  -29.3809  -23.9143   18.0298 H   0  0  0  0  0  0
  -27.8450  -23.0701   18.1296 H   0  0  0  0  0  0
  -31.2651  -21.9708   18.1855 H   0  0  0  0  0  0
  -30.9971  -20.6206   17.1251 H   0  0  0  0  0  0
  -32.2995  -20.5814   18.3294 H   0  0  0  0  0  0
  -31.3370  -23.1855   19.7556 H   0  0  0  0  0  0
  -30.4090  -24.3691   20.5095 H   0  0  0  0  0  0
  -27.9953  -23.9672   21.4614 H   0  0  0  0  0  0
  -27.0634  -23.8512   20.0450 H   0  0  0  0  0  0
  -28.7157  -16.4114   20.8967 H   0  0  0  0  0  0
  1 25  1  0  0  0
  1 30  2  0  0  0
  1 83  1  0  0  0
  2  3  1  0  0  0
  2 25  1  0  0  0
  2 84  1  0  0  0
  2 85  1  0  0  0
  3  4  1  0  0  0
  3 86  1  0  0  0
  3 87  1  0  0  0
  4  5  1  0  0  0
  4 88  1  0  0  0
  4 89  1  0  0  0
  5  6  1  0  0  0
  5 26  1  0  0  0
  5 90  1  0  0  0
  6 25  1  0  0  0
  6 91  1  0  0  0
  6 92  1  0  0  0
  7  8  2  0  0  0
  7 26  1  0  0  0
  7 29  1  0  0  0
  8  9  1  0  0  0
  8 22  1  0  0  0
  9 10  1  0  0  0
  9 27  2  0  0  0
 10 11  2  0  0  0
 10 15  1  0  0  0
 11 12  1  0  0  0
 11 93  1  0  0  0
 12 13  2  0  0  0
 12 94  1  0  0  0
 13 14  1  0  0  0
 13 31  1  0  0  0
 14 15  2  0  0  0
 14 95  1  0  0  0
 15 96  1  0  0  0
 16 17  2  0  0  0
 16 21  1  0  0  0
 16 31  1  0  0  0
 17 18  1  0  0  0
 17 97  1  0  0  0
 18 19  2  0  0  0
 18 98  1  0  0  0
 19 20  1  0  0  0
 19 24  1  0  0  0
 20 21  2  0  0  0
 20 99  1  0  0  0
 21 23  1  0  0  0
 22 28  1  0  0  0
 22 32  2  0  0  0
 26 27  1  0  0  0
 28100  1  0  0  0
 28101  1  0  0  0
 29102  1  0  0  0
 29103  1  0  0  0
 33 34  1  0  0  0
 33 66  1  0  0  0
 33 70  2  0  0  0
 34 36  1  0  0  0
 34 59  1  0  0  0
 34104  1  0  0  0
 35 44  2  0  0  0
 35 45  1  0  0  0
 35 68  1  0  0  0
 36 56  1  0  0  0
 36105  1  0  0  0
 37 39  1  0  0  0
 37 47  1  0  0  0
 37 66  1  0  0  0
 37106  1  0  0  0
 38 43  2  0  0  0
 38 46  1  0  0  0
 38 47  1  0  0  0
 39 64  1  0  0  0
 39 67  2  0  0  0
 40 52  1  0  0  0
 40 53  2  0  0  0
 40 58  1  0  0  0
 41107  1  0  0  0
 41108  1  0  0  0
 41109  1  0  0  0
 41 48  1  0  0  0
 42 43  1  0  0  0
 42 66  1  0  0  0
 42110  1  0  0  0
 42111  1  0  0  0
 43 44  1  0  0  0
 44112  1  0  0  0
 45 46  2  0  0  0
 45113  1  0  0  0
 46114  1  0  0  0
 47115  1  0  0  0
 47116  1  0  0  0
 48 56  1  0  0  0
 48 65  1  0  0  0
 48117  1  0  0  0
 49 50  1  0  0  0
 49 53  1  0  0  0
 49 64  1  0  0  0
 49118  1  0  0  0
 50 51  1  0  0  0
 50119  1  0  0  0
 50120  1  0  0  0
 51 52  1  0  0  0
 51121  1  0  0  0
 51122  1  0  0  0
 52123  1  0  0  0
 52124  1  0  0  0
 53 54  1  0  0  0
 54 55  2  0  0  0
 54125  1  0  0  0
 55 57  1  0  0  0
 55126  1  0  0  0
 56 69  2  0  0  0
 57 58  2  0  0  0
 57127  1  0  0  0
 58128  1  0  0  0
 59 60  1  0  0  0
 59 61  1  0  0  0
 59 62  1  0  0  0
 60129  1  0  0  0
 60130  1  0  0  0
 60131  1  0  0  0
 61132  1  0  0  0
 61133  1  0  0  0
 61134  1  0  0  0
 62135  1  0  0  0
 62136  1  0  0  0
 62137  1  0  0  0
 63 65  1  0  0  0
 63138  1  0  0  0
 63139  1  0  0  0
 63140  1  0  0  0
 64141  1  0  0  0
 65142  1  0  0  0
 68 80  1  0  0  0
 71 72  1  0  0  0
 71 73  2  0  0  0
 71143  1  0  0  0
 72 74  2  0  0  0
 72 83  1  0  0  0
 73 81  1  0  0  0
 73 82  1  0  0  0
 74 75  1  0  0  0
 74 82  1  0  0  0
 75144  1  0  0  0
 75145  1  0  0  0
 75146  1  0  0  0
 76 79  1  0  0  0
 76147  1  0  0  0
 76148  1  0  0  0
 76149  1  0  0  0
 77150  1  0  0  0
 77151  1  0  0  0
 77152  1  0  0  0
 77 81  1  0  0  0
 78 82  1  0  0  0
 78153  1  0  0  0
 78154  1  0  0  0
 78155  1  0  0  0
 79 81  1  0  0  0
 79156  1  0  0  0
 79157  1  0  0  0
 80 81  1  0  0  0
 80158  1  0  0  0
 80159  1  0  0  0
 83160  1  0  0  0
M  ISO  4   1 100  68 101  80 101  83 100
M  END
> <chiral flag>
0

> <version>
0

> <s_m_source_file>
/data/baiqing/PycharmProjects/Reinvent-master-3.2/result/LINK_invent/BTK/process_docking_weight1_custom_sum_contain_oxygen_bond_distance_aromatic_linkinvent_7_9_3/rearranged_h_0019.sdf

> <i_m_source_file_index>
33

> <r_mmod_Potential_Energy-OPLS-2005>
1643.43872070312

> <r_mmod_Stretch_Energy-OPLS-2005>
731.752319335938

> <r_mmod_Bend_Energy-OPLS-2005>
561.341979980469

> <r_mmod_Torsional_Energy-OPLS-2005>
256.129852294922

> <r_mmod_Improper_Torsional_Energy-OPLS-2005>
3.01522088050842

> <r_mmod_Van_der_Waal_Energy-OPLS-2005>
132.910339355469

> <r_mmod_Electrostatic_Energy-OPLS-2005>
-392.724945068359

> <r_mmod_Solvation_Energy-OPLS-2005>
-204.922317504883

> <b_mmod_Minimization_Converged-OPLS-2005>
0

> <r_mmod_RMS_Derivative-OPLS-2005>
4.46304416656494

$$$$
33
                    3D
 Structure written by MMmdl.
151159  0  0  1  0            999 V2000
  -30.3022  -15.5923   20.3192 C   0  0  0  0  0  0
  -30.4345  -13.0414   19.5539 C   0  0  0  0  0  0
  -29.5584  -12.6360   18.3329 C   0  0  0  0  0  0
  -28.1265  -12.2907   18.7726 C   0  0  0  0  0  0
  -27.5995  -13.3042   19.8153 C   0  0  2  0  0  0
  -28.6148  -13.6171   20.9407 C   0  0  0  0  0  0
  -25.2342  -13.8278   20.5789 C   0  0  0  0  0  0
  -24.1725  -13.0437   20.9288 C   0  0  0  0  0  0
  -24.6420  -11.6943   20.8766 C   0  0  0  0  0  0
  -23.9125  -10.4293   21.0414 C   0  0  0  0  0  0
  -24.3658   -9.4205   21.9193 C   0  0  0  0  0  0
  -23.6314   -8.2246   22.0760 C   0  0  0  0  0  0
  -22.4294   -8.0292   21.3549 C   0  0  0  0  0  0
  -21.9947   -9.0273   20.4654 C   0  0  0  0  0  0
  -22.7292  -10.2144   20.3067 C   0  0  0  0  0  0
  -21.6857   -6.0759   22.5280 C   0  0  0  0  0  0
  -21.4022   -6.5660   23.8213 C   0  0  0  0  0  0
  -21.3649   -5.6806   24.9174 C   0  0  0  0  0  0
  -21.6039   -4.3068   24.7218 C   0  0  0  0  0  0
  -21.8810   -3.8171   23.4336 C   0  0  0  0  0  0
  -21.9197   -4.6991   22.3398 C   0  0  0  0  0  0
  -22.7733  -13.5180   21.1916 C   0  0  0  0  0  0
  -22.1659   -4.2176   21.0970 F   0  0  0  0  0  0
  -21.5617   -3.4546   25.7729 F   0  0  0  0  0  0
  -29.8049  -14.2205   20.2987 N   0  0  0  0  0  0
  -26.2785  -12.9606   20.3232 N   0  0  0  0  0  0
  -25.9366  -11.6685   20.5710 N   0  0  0  0  0  0
  -22.0398  -12.8164   22.0475 N   0  0  0  0  0  0
  -25.3956  -15.2012   20.4225 N   0  0  0  0  0  0
  -31.5291  -15.5668   20.1089 O   0  0  0  0  0  0
  -21.6644   -6.8905   21.4243 O   0  0  0  0  0  0
  -22.3417  -14.5468   20.6741 O   0  0  0  0  0  0
  -24.6853  -31.8025   23.1492 C   0  0  0  0  0  0
  -25.9433  -32.4492   23.8037 C   0  0  1  0  0  0
  -27.2262  -26.7107   20.2119 C   0  0  0  0  0  0
  -25.6008  -33.8309   24.1962 N   0  0  0  0  0  0
  -23.5093  -30.4050   21.5038 C   0  0  2  0  0  0
  -24.9679  -28.7463   20.1183 C   0  0  0  0  0  0
  -22.7772  -29.4338   22.4699 C   0  0  0  0  0  0
  -18.0361  -28.1467   22.8478 C   0  0  0  0  0  0
  -24.1486  -36.7143   23.2643 C   0  0  0  0  0  0
  -26.0894  -30.5393   21.4110 C   0  0  0  0  0  0
  -26.1567  -29.1026   20.7642 C   0  0  0  0  0  0
  -27.2726  -28.1129   20.7805 C   0  0  0  0  0  0
  -26.0024  -26.5621   19.5112 C   0  0  0  0  0  0
  -24.9286  -27.5016   19.4676 C   0  0  0  0  0  0
  -23.7639  -29.7011   20.1398 C   0  0  0  0  0  0
  -25.4139  -36.2908   24.0286 C   0  0  1  0  0  0
  -20.5991  -28.3811   23.1164 C   0  0  2  0  0  0
  -20.6820  -26.9468   22.5426 C   0  0  0  0  0  0
  -19.5784  -26.6417   21.5245 C   0  0  0  0  0  0
  -18.1970  -26.7994   22.1647 C   0  0  0  0  0  0
  -19.1626  -28.8963   23.2804 C   0  0  0  0  0  0
  -18.9511  -30.1547   23.8839 C   0  0  0  0  0  0
  -17.6502  -30.6627   24.0584 C   0  0  0  0  0  0
  -25.9118  -34.9299   23.4953 C   0  0  0  0  0  0
  -16.5396  -29.9117   23.6369 C   0  0  0  0  0  0
  -16.7345  -28.6553   23.0370 C   0  0  0  0  0  0
  -26.4599  -31.6501   25.0638 C   0  0  0  0  0  0
  -25.3658  -31.3861   26.1265 C   0  0  0  0  0  0
  -27.0481  -30.2820   24.6511 C   0  0  0  0  0  0
  -27.6105  -32.4312   25.7425 C   0  0  0  0  0  0
  -27.5571  -37.1725   24.8468 C   0  0  0  0  0  0
  -21.4414  -29.3046   22.3453 N   0  0  0  0  0  0
  -26.4265  -37.3678   23.9425 N   0  0  0  0  0  0
  -24.7846  -30.9492   22.0732 N   0  0  0  0  0  0
  -23.4224  -28.7959   23.3049 O   0  0  0  0  0  0
  -28.1781  -25.4839   20.2915 O   0  0  0  0  0  0
  -26.5746  -34.8881   22.4566 O   0  0  0  0  0  0
  -23.5869  -32.1090   23.6448 O   0  0  0  0  0  0
  -27.9657  -20.9008   20.9762 C   0  0  0  0  0  0
  -28.5918  -22.0519   20.2758 C   0  0  0  0  0  0
  -29.6710  -21.2633   19.5879 C   0  0  0  0  0  0
  -29.3431  -18.6159   20.3543 C   0  0  0  0  0  0
  -30.0097  -19.7495   19.6212 C   0  0  0  0  0  0
  -28.2796  -19.4136   21.0185 C   0  0  0  0  0  0
  -30.5260  -22.0959   18.6440 C   0  0  0  0  0  0
  -30.8743  -18.3954   17.8577 C   0  0  0  0  0  0
  -27.8695  -23.7722   20.0981 C   0  0  0  0  0  0
  -29.4779  -16.8991   20.4344 N   0  0  0  0  0  0
  -31.0826  -19.4201   18.8232 O   0  0  0  0  0  0
  -27.1919  -18.4764   21.9791 Cl  0  0  0  0  0  0
  -31.4345  -13.2938   19.2003 H   0  0  0  0  0  0
  -30.5797  -12.1928   20.2243 H   0  0  0  0  0  0
  -30.0055  -11.7883   17.8104 H   0  0  0  0  0  0
  -29.5324  -13.4614   17.6206 H   0  0  0  0  0  0
  -28.1488  -11.2963   19.2222 H   0  0  0  0  0  0
  -27.4590  -12.2253   17.9121 H   0  0  0  0  0  0
  -27.4705  -14.2283   19.2499 H   0  0  0  0  0  0
  -28.8565  -12.7296   21.5262 H   0  0  0  0  0  0
  -28.1873  -14.3372   21.6404 H   0  0  0  0  0  0
  -25.2794   -9.5679   22.4793 H   0  0  0  0  0  0
  -24.0012   -7.4647   22.7485 H   0  0  0  0  0  0
  -21.0879   -8.8816   19.8965 H   0  0  0  0  0  0
  -22.3754  -10.9697   19.6187 H   0  0  0  0  0  0
  -21.2020   -7.6168   23.9723 H   0  0  0  0  0  0
  -21.1471   -6.0537   25.9074 H   0  0  0  0  0  0
  -22.0598   -2.7637   23.2824 H   0  0  0  0  0  0
  -22.4009  -11.9814   22.4850 H   0  0  0  0  0  0
  -21.1019  -13.1194   22.2691 H   0  0  0  0  0  0
  -24.6298  -15.8522   20.5552 H   0  0  0  0  0  0
  -26.2363  -15.6461   20.0829 H   0  0  0  0  0  0
  -26.7515  -32.4995   23.0754 H   0  0  0  0  0  0
  -25.0103  -33.9343   25.0082 H   0  0  0  0  0  0
  -22.8331  -31.2412   21.3150 H   0  0  0  0  0  0
  -23.3776  -35.9441   23.3258 H   0  0  0  0  0  0
  -24.3546  -36.8840   22.2061 H   0  0  0  0  0  0
  -23.7211  -37.6303   23.6725 H   0  0  0  0  0  0
  -26.2887  -31.2633   20.6189 H   0  0  0  0  0  0
  -26.9396  -30.6094   22.0760 H   0  0  0  0  0  0
  -28.1676  -28.3901   21.3195 H   0  0  0  0  0  0
  -25.8356  -25.6196   19.0118 H   0  0  0  0  0  0
  -24.0321  -27.2208   18.9325 H   0  0  0  0  0  0
  -23.9339  -30.4592   19.3739 H   0  0  0  0  0  0
  -22.8672  -29.1665   19.8215 H   0  0  0  0  0  0
  -25.1341  -36.1654   25.0770 H   0  0  0  0  0  0
  -21.0110  -28.3448   24.1280 H   0  0  0  0  0  0
  -20.5708  -26.2428   23.3692 H   0  0  0  0  0  0
  -21.6680  -26.7428   22.1222 H   0  0  0  0  0  0
  -19.6916  -25.6313   21.1316 H   0  0  0  0  0  0
  -19.6729  -27.3190   20.6736 H   0  0  0  0  0  0
  -17.4253  -26.6789   21.4033 H   0  0  0  0  0  0
  -18.0320  -26.0152   22.9048 H   0  0  0  0  0  0
  -19.7972  -30.7404   24.2168 H   0  0  0  0  0  0
  -17.5044  -31.6293   24.5206 H   0  0  0  0  0  0
  -15.5393  -30.3004   23.7705 H   0  0  0  0  0  0
  -15.8756  -28.0856   22.7108 H   0  0  0  0  0  0
  -24.5891  -30.7139   25.7611 H   0  0  0  0  0  0
  -24.8787  -32.3096   26.4397 H   0  0  0  0  0  0
  -25.7845  -30.9256   27.0219 H   0  0  0  0  0  0
  -26.3160  -29.6486   24.1495 H   0  0  0  0  0  0
  -27.3890  -29.7231   25.5233 H   0  0  0  0  0  0
  -27.9175  -30.3920   24.0025 H   0  0  0  0  0  0
  -27.2724  -33.3724   26.1767 H   0  0  0  0  0  0
  -28.4032  -32.6686   25.0313 H   0  0  0  0  0  0
  -28.0623  -31.8556   26.5514 H   0  0  0  0  0  0
  -28.2578  -38.0033   24.7538 H   0  0  0  0  0  0
  -28.1083  -36.2572   24.6261 H   0  0  0  0  0  0
  -27.2297  -37.1328   25.8872 H   0  0  0  0  0  0
  -20.9720  -29.8665   21.6491 H   0  0  0  0  0  0
  -26.0090  -38.2722   24.1468 H   0  0  0  0  0  0
  -27.0825  -21.1669   21.5382 H   0  0  0  0  0  0
  -30.3875  -23.1674   18.8012 H   0  0  0  0  0  0
  -30.2646  -21.8726   17.6080 H   0  0  0  0  0  0
  -31.5878  -21.8828   18.7782 H   0  0  0  0  0  0
  -31.3831  -17.4777   18.1511 H   0  0  0  0  0  0
  -31.3076  -18.7189   16.9102 H   0  0  0  0  0  0
  -29.8227  -18.1741   17.6680 H   0  0  0  0  0  0
  -26.9710  -23.6654   20.7084 H   0  0  0  0  0  0
  -27.4887  -23.7348   19.0772 H   0  0  0  0  0  0
  -28.5703  -16.5637   20.7225 H   0  0  0  0  0  0
  1 25  1  0  0  0
  1 30  2  0  0  0
  1 80  1  0  0  0
  2  3  1  0  0  0
  2 25  1  0  0  0
  2 83  1  0  0  0
  2 84  1  0  0  0
  3  4  1  0  0  0
  3 85  1  0  0  0
  3 86  1  0  0  0
  4  5  1  0  0  0
  4 87  1  0  0  0
  4 88  1  0  0  0
  5  6  1  0  0  0
  5 26  1  0  0  0
  5 89  1  0  0  0
  6 25  1  0  0  0
  6 90  1  0  0  0
  6 91  1  0  0  0
  7  8  2  0  0  0
  7 26  1  0  0  0
  7 29  1  0  0  0
  8  9  1  0  0  0
  8 22  1  0  0  0
  9 10  1  0  0  0
  9 27  2  0  0  0
 10 11  2  0  0  0
 10 15  1  0  0  0
 11 12  1  0  0  0
 11 92  1  0  0  0
 12 13  2  0  0  0
 12 93  1  0  0  0
 13 14  1  0  0  0
 13 31  1  0  0  0
 14 15  2  0  0  0
 14 94  1  0  0  0
 15 95  1  0  0  0
 16 17  2  0  0  0
 16 21  1  0  0  0
 16 31  1  0  0  0
 17 18  1  0  0  0
 17 96  1  0  0  0
 18 19  2  0  0  0
 18 97  1  0  0  0
 19 20  1  0  0  0
 19 24  1  0  0  0
 20 21  2  0  0  0
 20 98  1  0  0  0
 21 23  1  0  0  0
 22 28  1  0  0  0
 22 32  2  0  0  0
 26 27  1  0  0  0
 28 99  1  0  0  0
 28100  1  0  0  0
 29101  1  0  0  0
 29102  1  0  0  0
 33 34  1  0  0  0
 33 66  1  0  0  0
 33 70  2  0  0  0
 34 36  1  0  0  0
 34 59  1  0  0  0
 34103  1  0  0  0
 35 44  2  0  0  0
 35 45  1  0  0  0
 35 68  1  0  0  0
 36 56  1  0  0  0
 36104  1  0  0  0
 37 39  1  0  0  0
 37 47  1  0  0  0
 37 66  1  0  0  0
 37105  1  0  0  0
 38 43  2  0  0  0
 38 46  1  0  0  0
 38 47  1  0  0  0
 39 64  1  0  0  0
 39 67  2  0  0  0
 40 52  1  0  0  0
 40 53  2  0  0  0
 40 58  1  0  0  0
 41106  1  0  0  0
 41107  1  0  0  0
 41108  1  0  0  0
 41 48  1  0  0  0
 42 43  1  0  0  0
 42 66  1  0  0  0
 42109  1  0  0  0
 42110  1  0  0  0
 43 44  1  0  0  0
 44111  1  0  0  0
 45 46  2  0  0  0
 45112  1  0  0  0
 46113  1  0  0  0
 47114  1  0  0  0
 47115  1  0  0  0
 48 56  1  0  0  0
 48 65  1  0  0  0
 48116  1  0  0  0
 49 50  1  0  0  0
 49 53  1  0  0  0
 49 64  1  0  0  0
 49117  1  0  0  0
 50 51  1  0  0  0
 50118  1  0  0  0
 50119  1  0  0  0
 51 52  1  0  0  0
 51120  1  0  0  0
 51121  1  0  0  0
 52122  1  0  0  0
 52123  1  0  0  0
 53 54  1  0  0  0
 54 55  2  0  0  0
 54124  1  0  0  0
 55 57  1  0  0  0
 55125  1  0  0  0
 56 69  2  0  0  0
 57 58  2  0  0  0
 57126  1  0  0  0
 58127  1  0  0  0
 59 60  1  0  0  0
 59 61  1  0  0  0
 59 62  1  0  0  0
 60128  1  0  0  0
 60129  1  0  0  0
 60130  1  0  0  0
 61131  1  0  0  0
 61132  1  0  0  0
 61133  1  0  0  0
 62134  1  0  0  0
 62135  1  0  0  0
 62136  1  0  0  0
 63 65  1  0  0  0
 63137  1  0  0  0
 63138  1  0  0  0
 63139  1  0  0  0
 64140  1  0  0  0
 65141  1  0  0  0
 68 79  1  0  0  0
 71 72  2  0  0  0
 71 76  1  0  0  0
 71142  1  0  0  0
 72 73  1  0  0  0
 72 79  1  0  0  0
 73 75  2  0  0  0
 73 77  1  0  0  0
 74 75  1  0  0  0
 74 76  2  0  0  0
 74 80  1  0  0  0
 75 81  1  0  0  0
 76 82  1  0  0  0
 77143  1  0  0  0
 77144  1  0  0  0
 77145  1  0  0  0
 78 81  1  0  0  0
 78146  1  0  0  0
 78147  1  0  0  0
 78148  1  0  0  0
 79149  1  0  0  0
 79150  1  0  0  0
 80151  1  0  0  0
M  ISO  4   1 100  68 101  79 101  80 100
M  END
> <chiral flag>
0

> <version>
0

> <s_m_source_file>
/data/baiqing/PycharmProjects/Reinvent-master-3.2/result/LINK_invent/BTK/process_docking_weight1_custom_sum_contain_oxygen_bond_distance_aromatic_linkinvent_7_9_3/rearranged_h_0019.sdf

> <i_m_source_file_index>
34

> <r_mmod_Potential_Energy-OPLS-2005>
2222.30737304688

> <r_mmod_Stretch_Energy-OPLS-2005>
922.80419921875

> <r_mmod_Bend_Energy-OPLS-2005>
674.670959472656

> <r_mmod_Torsional_Energy-OPLS-2005>
254.058868408203

> <r_mmod_Improper_Torsional_Energy-OPLS-2005>
6.32325553894043

> <r_mmod_Van_der_Waal_Energy-OPLS-2005>
129.778793334961

> <r_mmod_Electrostatic_Energy-OPLS-2005>
-418.834899902344

> <r_mmod_Solvation_Energy-OPLS-2005>
-212.230499267578

> <b_mmod_Minimization_Converged-OPLS-2005>
0

> <r_mmod_RMS_Derivative-OPLS-2005>
3.09160351753235

$$$$
34
                    3D
 Structure written by MMmdl.
160168  0  0  1  0            999 V2000
  -30.4100  -15.4167   20.2881 C   0  0  0  0  0  0
  -30.4348  -12.9266   19.4810 C   0  0  0  0  0  0
  -29.5321  -12.5608   18.2768 C   0  0  0  0  0  0
  -28.0923  -12.2661   18.7331 C   0  0  0  0  0  0
  -27.5995  -13.2668   19.8064 C   0  0  2  0  0  0
  -28.6442  -13.5632   20.9024 C   0  0  0  0  0  0
  -25.2415  -13.8205   20.5825 C   0  0  0  0  0  0
  -24.1737  -13.0421   20.9296 C   0  0  0  0  0  0
  -24.6369  -11.6915   20.8772 C   0  0  0  0  0  0
  -23.9057  -10.4283   21.0391 C   0  0  0  0  0  0
  -24.3610   -9.4204   21.9168 C   0  0  0  0  0  0
  -23.6299   -8.2236   22.0734 C   0  0  0  0  0  0
  -22.4290   -8.0250   21.3525 C   0  0  0  0  0  0
  -21.9907   -9.0229   20.4629 C   0  0  0  0  0  0
  -22.7230  -10.2118   20.3045 C   0  0  0  0  0  0
  -21.6866   -6.0711   22.5269 C   0  0  0  0  0  0
  -21.4022   -6.5622   23.8200 C   0  0  0  0  0  0
  -21.3685   -5.6779   24.9159 C   0  0  0  0  0  0
  -21.6052   -4.3040   24.7223 C   0  0  0  0  0  0
  -21.8824   -3.8126   23.4341 C   0  0  0  0  0  0
  -21.9192   -4.6935   22.3387 C   0  0  0  0  0  0
  -22.7764  -13.5198   21.1934 C   0  0  0  0  0  0
  -22.1645   -4.2113   21.0965 F   0  0  0  0  0  0
  -21.5650   -3.4516   25.7734 F   0  0  0  0  0  0
  -29.8261  -14.1071   20.2054 N   0  0  0  0  0  0
  -26.2805  -12.9446   20.3263 N   0  0  0  0  0  0
  -25.9314  -11.6570   20.5753 N   0  0  0  0  0  0
  -22.0416  -12.8159   22.0463 N   0  0  0  0  0  0
  -25.4162  -15.1934   20.4309 N   0  0  0  0  0  0
  -31.6508  -15.3269   20.3005 O   0  0  0  0  0  0
  -21.6656   -6.8846   21.4225 O   0  0  0  0  0  0
  -22.3443  -14.5493   20.6752 O   0  0  0  0  0  0
  -24.6694  -31.8177   23.1650 C   0  0  0  0  0  0
  -25.9341  -32.4568   23.8151 C   0  0  1  0  0  0
  -27.2225  -26.8595   20.1836 C   0  0  0  0  0  0
  -25.5983  -33.8382   24.2056 N   0  0  0  0  0  0
  -23.4884  -30.4262   21.5178 C   0  0  2  0  0  0
  -24.9434  -28.8009   20.1176 C   0  0  0  0  0  0
  -22.7706  -29.4407   22.4770 C   0  0  0  0  0  0
  -18.0327  -28.1427   22.8462 C   0  0  0  0  0  0
  -24.1488  -36.7184   23.2649 C   0  0  0  0  0  0
  -26.0635  -30.6003   21.4074 C   0  0  0  0  0  0
  -26.1326  -29.1829   20.7521 C   0  0  0  0  0  0
  -27.2657  -28.2362   20.7564 C   0  0  0  0  0  0
  -25.9985  -26.6501   19.5027 C   0  0  0  0  0  0
  -24.9045  -27.5553   19.4740 C   0  0  0  0  0  0
  -23.7338  -29.7373   20.1480 C   0  0  0  0  0  0
  -25.4132  -36.2961   24.0307 C   0  0  1  0  0  0
  -20.5957  -28.3769   23.1178 C   0  0  2  0  0  0
  -20.6805  -26.9441   22.5404 C   0  0  0  0  0  0
  -19.5781  -26.6380   21.5221 C   0  0  0  0  0  0
  -18.1965  -26.7955   22.1622 C   0  0  0  0  0  0
  -19.1588  -28.8921   23.2803 C   0  0  0  0  0  0
  -18.9499  -30.1510   23.8844 C   0  0  0  0  0  0
  -17.6485  -30.6605   24.0562 C   0  0  0  0  0  0
  -25.9110  -34.9335   23.5009 C   0  0  0  0  0  0
  -16.5378  -29.9093   23.6350 C   0  0  0  0  0  0
  -16.7307  -28.6516   23.0357 C   0  0  0  0  0  0
  -26.4560  -31.6533   25.0702 C   0  0  0  0  0  0
  -25.3658  -31.3801   26.1339 C   0  0  0  0  0  0
  -27.0470  -30.2893   24.6485 C   0  0  0  0  0  0
  -27.6058  -32.4340   25.7494 C   0  0  0  0  0  0
  -27.5574  -37.1745   24.8464 C   0  0  0  0  0  0
  -21.4361  -29.3040   22.3516 N   0  0  0  0  0  0
  -26.4281  -37.3698   23.9421 N   0  0  0  0  0  0
  -24.7629  -30.9748   22.0841 N   0  0  0  0  0  0
  -23.4212  -28.8001   23.3048 O   0  0  0  0  0  0
  -28.2043  -25.7070   20.2266 O   0  0  0  0  0  0
  -26.5724  -34.8882   22.4611 O   0  0  0  0  0  0
  -23.5750  -32.1186   23.6687 O   0  0  0  0  0  0
  -30.3338  -20.7996   19.6854 C   0  0  0  0  0  0
  -30.0222  -22.2395   19.6305 C   0  0  0  0  0  0
  -29.3743  -19.9814   20.2558 C   0  0  0  0  0  0
  -28.7714  -22.5589   20.1414 C   0  0  0  0  0  0
  -30.9812  -23.2510   19.0597 C   0  0  0  0  0  0
  -30.7514  -16.7834   17.6096 C   0  0  0  0  0  0
  -28.2533  -16.4403   17.9586 C   0  0  0  0  0  0
  -27.0918  -20.8561   21.0650 C   0  0  0  0  0  0
  -29.4391  -18.2497   20.7197 C   0  0  0  0  0  0
  -27.8212  -24.0728   20.2027 C   0  0  0  0  0  0
  -29.5390  -17.0590   18.5231 C   0  0  0  0  0  0
  -28.3995  -21.1247   20.4977 N   0  0  0  0  0  0
  -29.7434  -16.7548   19.9686 N   0  0  0  0  0  0
  -31.4312  -13.1707   19.1083 H   0  0  0  0  0  0
  -30.5667  -12.0744   20.1489 H   0  0  0  0  0  0
  -29.9427  -11.7009   17.7453 H   0  0  0  0  0  0
  -29.5217  -13.3844   17.5636 H   0  0  0  0  0  0
  -28.0796  -11.2584   19.1506 H   0  0  0  0  0  0
  -27.4153  -12.2516   17.8782 H   0  0  0  0  0  0
  -27.4630  -14.1960   19.2657 H   0  0  0  0  0  0
  -28.8791  -12.6839   21.5020 H   0  0  0  0  0  0
  -28.2591  -14.3207   21.5894 H   0  0  0  0  0  0
  -25.2760   -9.5691   22.4740 H   0  0  0  0  0  0
  -24.0016   -7.4636   22.7458 H   0  0  0  0  0  0
  -21.0841   -8.8744   19.8949 H   0  0  0  0  0  0
  -22.3670  -10.9654   19.6145 H   0  0  0  0  0  0
  -21.2017   -7.6137   23.9684 H   0  0  0  0  0  0
  -21.1508   -6.0514   25.9065 H   0  0  0  0  0  0
  -22.0591   -2.7584   23.2851 H   0  0  0  0  0  0
  -22.4047  -11.9838   22.4876 H   0  0  0  0  0  0
  -21.1019  -13.1147   22.2653 H   0  0  0  0  0  0
  -24.6698  -15.8641   20.5751 H   0  0  0  0  0  0
  -26.2869  -15.6238   20.1504 H   0  0  0  0  0  0
  -26.7410  -32.5083   23.0867 H   0  0  0  0  0  0
  -25.0058  -33.9455   25.0164 H   0  0  0  0  0  0
  -22.8066  -31.2606   21.3407 H   0  0  0  0  0  0
  -23.3791  -35.9476   23.3265 H   0  0  0  0  0  0
  -24.3568  -36.8876   22.2072 H   0  0  0  0  0  0
  -23.7197  -37.6338   23.6734 H   0  0  0  0  0  0
  -26.2496  -31.3374   20.6252 H   0  0  0  0  0  0
  -26.9206  -30.6621   22.0656 H   0  0  0  0  0  0
  -28.1657  -28.5290   21.2785 H   0  0  0  0  0  0
  -25.8441  -25.7090   18.9961 H   0  0  0  0  0  0
  -24.0014  -27.2565   18.9588 H   0  0  0  0  0  0
  -23.8970  -30.5031   19.3895 H   0  0  0  0  0  0
  -22.8418  -29.1974   19.8276 H   0  0  0  0  0  0
  -25.1332  -36.1756   25.0802 H   0  0  0  0  0  0
  -21.0047  -28.3382   24.1306 H   0  0  0  0  0  0
  -20.5685  -26.2390   23.3657 H   0  0  0  0  0  0
  -21.6667  -26.7425   22.1205 H   0  0  0  0  0  0
  -19.6941  -25.6278   21.1287 H   0  0  0  0  0  0
  -19.6730  -27.3156   20.6727 H   0  0  0  0  0  0
  -17.4241  -26.6705   21.4024 H   0  0  0  0  0  0
  -18.0353  -26.0115   22.9027 H   0  0  0  0  0  0
  -19.7977  -30.7339   24.2195 H   0  0  0  0  0  0
  -17.5042  -31.6276   24.5171 H   0  0  0  0  0  0
  -15.5376  -30.2972   23.7717 H   0  0  0  0  0  0
  -15.8712  -28.0821   22.7099 H   0  0  0  0  0  0
  -24.5840  -30.7176   25.7608 H   0  0  0  0  0  0
  -24.8849  -32.3011   26.4642 H   0  0  0  0  0  0
  -25.7843  -30.9009   27.0201 H   0  0  0  0  0  0
  -26.3155  -29.6540   24.1483 H   0  0  0  0  0  0
  -27.3973  -29.7290   25.5166 H   0  0  0  0  0  0
  -27.9108  -30.4065   23.9940 H   0  0  0  0  0  0
  -27.2645  -33.3677   26.1976 H   0  0  0  0  0  0
  -28.3909  -32.6848   25.0348 H   0  0  0  0  0  0
  -28.0701  -31.8538   26.5480 H   0  0  0  0  0  0
  -28.2564  -38.0061   24.7540 H   0  0  0  0  0  0
  -28.1097  -36.2599   24.6264 H   0  0  0  0  0  0
  -27.2301  -37.1344   25.8864 H   0  0  0  0  0  0
  -20.9651  -29.8697   21.6604 H   0  0  0  0  0  0
  -26.0129  -38.2760   24.1443 H   0  0  0  0  0  0
  -31.2738  -20.3904   19.3388 H   0  0  0  0  0  0
  -32.0069  -22.8841   19.1277 H   0  0  0  0  0  0
  -30.9330  -24.1922   19.6068 H   0  0  0  0  0  0
  -30.7553  -23.4486   18.0108 H   0  0  0  0  0  0
  -30.5350  -17.0908   16.5863 H   0  0  0  0  0  0
  -31.0233  -15.7286   17.5742 H   0  0  0  0  0  0
  -31.6255  -17.3506   17.9268 H   0  0  0  0  0  0
  -27.9716  -16.9278   17.0231 H   0  0  0  0  0  0
  -27.4168  -16.5645   18.6464 H   0  0  0  0  0  0
  -28.3787  -15.3845   17.7341 H   0  0  0  0  0  0
  -26.8864  -19.7868   21.0687 H   0  0  0  0  0  0
  -26.3229  -21.3471   20.4668 H   0  0  0  0  0  0
  -27.0439  -21.2345   22.0866 H   0  0  0  0  0  0
  -28.4774  -18.0565   21.1928 H   0  0  0  0  0  0
  -30.1243  -18.2197   21.5657 H   0  0  0  0  0  0
  -27.1639  -23.9659   21.0642 H   0  0  0  0  0  0
  -27.1473  -23.9873   19.3529 H   0  0  0  0  0  0
  -29.3832  -18.1312   18.4056 H   0  0  0  0  0  0
  1 25  1  0  0  0
  1 30  2  0  0  0
  1 83  1  0  0  0
  2  3  1  0  0  0
  2 25  1  0  0  0
  2 84  1  0  0  0
  2 85  1  0  0  0
  3  4  1  0  0  0
  3 86  1  0  0  0
  3 87  1  0  0  0
  4  5  1  0  0  0
  4 88  1  0  0  0
  4 89  1  0  0  0
  5  6  1  0  0  0
  5 26  1  0  0  0
  5 90  1  0  0  0
  6 25  1  0  0  0
  6 91  1  0  0  0
  6 92  1  0  0  0
  7  8  2  0  0  0
  7 26  1  0  0  0
  7 29  1  0  0  0
  8  9  1  0  0  0
  8 22  1  0  0  0
  9 10  1  0  0  0
  9 27  2  0  0  0
 10 11  2  0  0  0
 10 15  1  0  0  0
 11 12  1  0  0  0
 11 93  1  0  0  0
 12 13  2  0  0  0
 12 94  1  0  0  0
 13 14  1  0  0  0
 13 31  1  0  0  0
 14 15  2  0  0  0
 14 95  1  0  0  0
 15 96  1  0  0  0
 16 17  2  0  0  0
 16 21  1  0  0  0
 16 31  1  0  0  0
 17 18  1  0  0  0
 17 97  1  0  0  0
 18 19  2  0  0  0
 18 98  1  0  0  0
 19 20  1  0  0  0
 19 24  1  0  0  0
 20 21  2  0  0  0
 20 99  1  0  0  0
 21 23  1  0  0  0
 22 28  1  0  0  0
 22 32  2  0  0  0
 26 27  1  0  0  0
 28100  1  0  0  0
 28101  1  0  0  0
 29102  1  0  0  0
 29103  1  0  0  0
 33 34  1  0  0  0
 33 66  1  0  0  0
 33 70  2  0  0  0
 34 36  1  0  0  0
 34 59  1  0  0  0
 34104  1  0  0  0
 35 44  2  0  0  0
 35 45  1  0  0  0
 35 68  1  0  0  0
 36 56  1  0  0  0
 36105  1  0  0  0
 37 39  1  0  0  0
 37 47  1  0  0  0
 37 66  1  0  0  0
 37106  1  0  0  0
 38 43  2  0  0  0
 38 46  1  0  0  0
 38 47  1  0  0  0
 39 64  1  0  0  0
 39 67  2  0  0  0
 40 52  1  0  0  0
 40 53  2  0  0  0
 40 58  1  0  0  0
 41107  1  0  0  0
 41108  1  0  0  0
 41109  1  0  0  0
 41 48  1  0  0  0
 42 43  1  0  0  0
 42 66  1  0  0  0
 42110  1  0  0  0
 42111  1  0  0  0
 43 44  1  0  0  0
 44112  1  0  0  0
 45 46  2  0  0  0
 45113  1  0  0  0
 46114  1  0  0  0
 47115  1  0  0  0
 47116  1  0  0  0
 48 56  1  0  0  0
 48 65  1  0  0  0
 48117  1  0  0  0
 49 50  1  0  0  0
 49 53  1  0  0  0
 49 64  1  0  0  0
 49118  1  0  0  0
 50 51  1  0  0  0
 50119  1  0  0  0
 50120  1  0  0  0
 51 52  1  0  0  0
 51121  1  0  0  0
 51122  1  0  0  0
 52123  1  0  0  0
 52124  1  0  0  0
 53 54  1  0  0  0
 54 55  2  0  0  0
 54125  1  0  0  0
 55 57  1  0  0  0
 55126  1  0  0  0
 56 69  2  0  0  0
 57 58  2  0  0  0
 57127  1  0  0  0
 58128  1  0  0  0
 59 60  1  0  0  0
 59 61  1  0  0  0
 59 62  1  0  0  0
 60129  1  0  0  0
 60130  1  0  0  0
 60131  1  0  0  0
 61132  1  0  0  0
 61133  1  0  0  0
 61134  1  0  0  0
 62135  1  0  0  0
 62136  1  0  0  0
 62137  1  0  0  0
 63 65  1  0  0  0
 63138  1  0  0  0
 63139  1  0  0  0
 63140  1  0  0  0
 64141  1  0  0  0
 65142  1  0  0  0
 68 80  1  0  0  0
 71 72  1  0  0  0
 71 73  2  0  0  0
 71143  1  0  0  0
 72 74  2  0  0  0
 72 75  1  0  0  0
 73 79  1  0  0  0
 73 82  1  0  0  0
 74 80  1  0  0  0
 74 82  1  0  0  0
 75144  1  0  0  0
 75145  1  0  0  0
 75146  1  0  0  0
 76147  1  0  0  0
 76148  1  0  0  0
 76149  1  0  0  0
 76 81  1  0  0  0
 77 81  1  0  0  0
 77150  1  0  0  0
 77151  1  0  0  0
 77152  1  0  0  0
 78 82  1  0  0  0
 78153  1  0  0  0
 78154  1  0  0  0
 78155  1  0  0  0
 79 83  1  0  0  0
 79156  1  0  0  0
 79157  1  0  0  0
 80158  1  0  0  0
 80159  1  0  0  0
 81 83  1  0  0  0
 81160  1  0  0  0
M  ISO  4   1 100  68 101  80 101  83 100
M  END
> <chiral flag>
0

> <version>
0

> <s_m_source_file>
/data/baiqing/PycharmProjects/Reinvent-master-3.2/result/LINK_invent/BTK/process_docking_weight1_custom_sum_contain_oxygen_bond_distance_aromatic_linkinvent_7_9_3/rearranged_h_0019.sdf

> <i_m_source_file_index>
35

> <r_mmod_Potential_Energy-OPLS-2005>
1805.87475585938

> <r_mmod_Stretch_Energy-OPLS-2005>
705.998596191406

> <r_mmod_Bend_Energy-OPLS-2005>
508.937927246094

> <r_mmod_Torsional_Energy-OPLS-2005>
321.819671630859

> <r_mmod_Improper_Torsional_Energy-OPLS-2005>
13.7205457687378

> <r_mmod_Van_der_Waal_Energy-OPLS-2005>
102.415023803711

> <r_mmod_Electrostatic_Energy-OPLS-2005>
-257.637878417969

> <r_mmod_Solvation_Energy-OPLS-2005>
-203.503845214844

> <b_mmod_Minimization_Converged-OPLS-2005>
0

> <r_mmod_RMS_Derivative-OPLS-2005>
3.2933337688446

$$$$
35
                    3D
 Structure written by MMmdl.
146153  0  0  1  0            999 V2000
  -30.1566  -16.0855   20.2717 C   0  0  0  0  0  0
  -30.3834  -13.4087   19.5644 C   0  0  0  0  0  0
  -29.5671  -12.7782   18.3835 C   0  0  0  0  0  0
  -28.1784  -12.3222   18.8423 C   0  0  0  0  0  0
  -27.5789  -13.3634   19.8053 C   0  0  2  0  0  0
  -28.5539  -13.8954   20.8947 C   0  0  0  0  0  0
  -25.2240  -13.8373   20.5869 C   0  0  0  0  0  0
  -24.1679  -13.0447   20.9306 C   0  0  0  0  0  0
  -24.6452  -11.6983   20.8747 C   0  0  0  0  0  0
  -23.9171  -10.4306   21.0378 C   0  0  0  0  0  0
  -24.3690   -9.4221   21.9177 C   0  0  0  0  0  0
  -23.6333   -8.2269   22.0762 C   0  0  0  0  0  0
  -22.4311   -8.0305   21.3554 C   0  0  0  0  0  0
  -21.9966   -9.0285   20.4650 C   0  0  0  0  0  0
  -22.7323  -10.2146   20.3041 C   0  0  0  0  0  0
  -21.6867   -6.0751   22.5280 C   0  0  0  0  0  0
  -21.4024   -6.5652   23.8214 C   0  0  0  0  0  0
  -21.3663   -5.6800   24.9174 C   0  0  0  0  0  0
  -21.6042   -4.3065   24.7224 C   0  0  0  0  0  0
  -21.8814   -3.8157   23.4340 C   0  0  0  0  0  0
  -21.9194   -4.6977   22.3400 C   0  0  0  0  0  0
  -22.7675  -13.5133   21.1940 C   0  0  0  0  0  0
  -22.1661   -4.2159   21.0976 F   0  0  0  0  0  0
  -21.5628   -3.4548   25.7735 F   0  0  0  0  0  0
  -29.6754  -14.6399   20.2320 N   0  0  0  0  0  0
  -26.2750  -12.9814   20.3294 N   0  0  0  0  0  0
  -25.9423  -11.6821   20.5665 N   0  0  0  0  0  0
  -22.0367  -12.8090   22.0498 N   0  0  0  0  0  0
  -25.3752  -15.2135   20.4352 N   0  0  0  0  0  0
  -31.3944  -15.8952   20.1462 O   0  0  0  0  0  0
  -21.6663   -6.8904   21.4247 O   0  0  0  0  0  0
  -22.3332  -14.5419   20.6767 O   0  0  0  0  0  0
  -24.7132  -31.7631   23.1265 C   0  0  0  0  0  0
  -25.9548  -32.4291   23.7932 C   0  0  1  0  0  0
  -27.2398  -26.3844   20.2424 C   0  0  0  0  0  0
  -25.5976  -33.8136   24.1764 N   0  0  0  0  0  0
  -23.5557  -30.3520   21.4866 C   0  0  2  0  0  0
  -25.0168  -28.6290   20.1283 C   0  0  0  0  0  0
  -22.7912  -29.4133   22.4626 C   0  0  0  0  0  0
  -18.0360  -28.1436   22.8440 C   0  0  0  0  0  0
  -24.1500  -36.7094   23.2685 C   0  0  0  0  0  0
  -26.1491  -30.3906   21.4428 C   0  0  0  0  0  0
  -26.2110  -28.9213   20.7967 C   0  0  0  0  0  0
  -27.2901  -27.8376   20.8129 C   0  0  0  0  0  0
  -26.0063  -26.3887   19.5148 C   0  0  0  0  0  0
  -24.9726  -27.3911   19.4628 C   0  0  0  0  0  0
  -23.8286  -29.6216   20.1360 C   0  0  0  0  0  0
  -25.4169  -36.2808   24.0271 C   0  0  1  0  0  0
  -20.6017  -28.3817   23.1083 C   0  0  2  0  0  0
  -20.6806  -26.9444   22.5407 C   0  0  0  0  0  0
  -19.5784  -26.6351   21.5220 C   0  0  0  0  0  0
  -18.1968  -26.7951   22.1614 C   0  0  0  0  0  0
  -19.1638  -28.8951   23.2727 C   0  0  0  0  0  0
  -18.9539  -30.1528   23.8793 C   0  0  0  0  0  0
  -17.6524  -30.6609   24.0543 C   0  0  0  0  0  0
  -25.9150  -34.9199   23.4889 C   0  0  0  0  0  0
  -16.5413  -29.9090   23.6360 C   0  0  0  0  0  0
  -16.7341  -28.6512   23.0378 C   0  0  0  0  0  0
  -26.4608  -31.6484   25.0706 C   0  0  0  0  0  0
  -25.3575  -31.3897   26.1253 C   0  0  0  0  0  0
  -27.0615  -30.2792   24.6880 C   0  0  0  0  0  0
  -27.5987  -32.4442   25.7526 C   0  0  0  0  0  0
  -27.5537  -37.1742   24.8491 C   0  0  0  0  0  0
  -21.4530  -29.3005   22.3364 N   0  0  0  0  0  0
  -26.4286  -37.3580   23.9364 N   0  0  0  0  0  0
  -24.8331  -30.8766   22.0695 N   0  0  0  0  0  0
  -23.4205  -28.7794   23.3124 O   0  0  0  0  0  0
  -28.1627  -25.0182   20.3100 O   0  0  0  0  0  0
  -26.5852  -34.8834   22.4544 O   0  0  0  0  0  0
  -23.6083  -32.0860   23.6010 O   0  0  0  0  0  0
  -29.5219  -17.8820   20.3013 C   0  0  0  0  0  0
  -29.2069  -19.2381   20.2626 C   0  0  0  0  0  0
  -27.5369  -23.4230   18.6631 C   0  0  0  0  0  0
  -29.8157  -21.2756   18.7304 C   0  0  0  0  0  0
  -27.4086  -20.4865   19.3093 C   0  0  0  0  0  0
  -28.0449  -23.1028   20.1001 C   0  0  1  0  0  0
  -28.7718  -21.0495   19.8484 C   0  0  0  0  0  0
  -31.3486  -13.7054   19.1543 H   0  0  0  0  0  0
  -30.6337  -12.6496   20.3086 H   0  0  0  0  0  0
  -30.1133  -11.9426   17.9438 H   0  0  0  0  0  0
  -29.4570  -13.5234   17.5936 H   0  0  0  0  0  0
  -28.2888  -11.3707   19.3655 H   0  0  0  0  0  0
  -27.5214  -12.1416   17.9909 H   0  0  0  0  0  0
  -27.3811  -14.2178   19.1562 H   0  0  0  0  0  0
  -28.8983  -13.0979   21.5556 H   0  0  0  0  0  0
  -28.0326  -14.6028   21.5395 H   0  0  0  0  0  0
  -25.2831   -9.5689   22.4767 H   0  0  0  0  0  0
  -24.0032   -7.4655   22.7482 H   0  0  0  0  0  0
  -21.0899   -8.8812   19.8952 H   0  0  0  0  0  0
  -22.3788  -10.9688   19.6149 H   0  0  0  0  0  0
  -21.2026   -7.6162   23.9720 H   0  0  0  0  0  0
  -21.1494   -6.0537   25.9079 H   0  0  0  0  0  0
  -22.0589   -2.7620   23.2843 H   0  0  0  0  0  0
  -22.4035  -11.9772   22.4877 H   0  0  0  0  0  0
  -21.0974  -13.1057   22.2720 H   0  0  0  0  0  0
  -24.6007  -15.8568   20.5555 H   0  0  0  0  0  0
  -26.2251  -15.6721   20.1336 H   0  0  0  0  0  0
  -26.7674  -32.4685   23.0682 H   0  0  0  0  0  0
  -24.9888  -33.9089   24.9756 H   0  0  0  0  0  0
  -22.9004  -31.1973   21.2675 H   0  0  0  0  0  0
  -23.3741  -35.9444   23.3357 H   0  0  0  0  0  0
  -24.3540  -36.8763   22.2096 H   0  0  0  0  0  0
  -23.7305  -37.6289   23.6784 H   0  0  0  0  0  0
  -26.3914  -31.0968   20.6474 H   0  0  0  0  0  0
  -26.9842  -30.4656   22.1261 H   0  0  0  0  0  0
  -28.1785  -28.0801   21.3776 H   0  0  0  0  0  0
  -25.7650  -25.4816   18.9855 H   0  0  0  0  0  0
  -24.0813  -27.1490   18.9001 H   0  0  0  0  0  0
  -24.0316  -30.3654   19.3644 H   0  0  0  0  0  0
  -22.9271  -29.1043   19.8047 H   0  0  0  0  0  0
  -25.1414  -36.1545   25.0767 H   0  0  0  0  0  0
  -21.0088  -28.3462   24.1217 H   0  0  0  0  0  0
  -20.5626  -26.2458   23.3703 H   0  0  0  0  0  0
  -21.6668  -26.7324   22.1259 H   0  0  0  0  0  0
  -19.6930  -25.6229   21.1325 H   0  0  0  0  0  0
  -19.6723  -27.3103   20.6706 H   0  0  0  0  0  0
  -17.4234  -26.6698   21.4017 H   0  0  0  0  0  0
  -18.0339  -26.0120   22.9037 H   0  0  0  0  0  0
  -19.8018  -30.7355   24.2125 H   0  0  0  0  0  0
  -17.5084  -31.6282   24.5159 H   0  0  0  0  0  0
  -15.5413  -30.2963   23.7736 H   0  0  0  0  0  0
  -15.8739  -28.0790   22.7170 H   0  0  0  0  0  0
  -24.5765  -30.7251   25.7531 H   0  0  0  0  0  0
  -24.8756  -32.3154   26.4418 H   0  0  0  0  0  0
  -25.7661  -30.9202   27.0211 H   0  0  0  0  0  0
  -26.3403  -29.6267   24.1950 H   0  0  0  0  0  0
  -27.3979  -29.7442   25.5774 H   0  0  0  0  0  0
  -27.9407  -30.3845   24.0524 H   0  0  0  0  0  0
  -27.2457  -33.3832   26.1806 H   0  0  0  0  0  0
  -28.3939  -32.6868   25.0463 H   0  0  0  0  0  0
  -28.0511  -31.8786   26.5684 H   0  0  0  0  0  0
  -28.2625  -37.9956   24.7358 H   0  0  0  0  0  0
  -28.0954  -36.2469   24.6558 H   0  0  0  0  0  0
  -27.2219  -37.1683   25.8889 H   0  0  0  0  0  0
  -20.9910  -29.8634   21.6350 H   0  0  0  0  0  0
  -26.0096  -38.2647   24.1227 H   0  0  0  0  0  0
  -27.8229  -22.6938   17.9095 H   0  0  0  0  0  0
  -27.9350  -24.3499   18.2512 H   0  0  0  0  0  0
  -26.4506  -23.4828   18.6434 H   0  0  0  0  0  0
  -29.4534  -20.9321   17.7600 H   0  0  0  0  0  0
  -30.7572  -20.7598   18.9249 H   0  0  0  0  0  0
  -30.0716  -22.3301   18.6285 H   0  0  0  0  0  0
  -27.5150  -19.6779   18.5816 H   0  0  0  0  0  0
  -26.7345  -21.1721   18.8128 H   0  0  0  0  0  0
  -26.8039  -20.1120   20.1366 H   0  0  0  0  0  0
  -27.1880  -22.9246   20.7496 H   0  0  0  0  0  0
  1 25  1  0  0  0
  1 30  2  0  0  0
  1 71  1  0  0  0
  2  3  1  0  0  0
  2 25  1  0  0  0
  2 78  1  0  0  0
  2 79  1  0  0  0
  3  4  1  0  0  0
  3 80  1  0  0  0
  3 81  1  0  0  0
  4  5  1  0  0  0
  4 82  1  0  0  0
  4 83  1  0  0  0
  5  6  1  0  0  0
  5 26  1  0  0  0
  5 84  1  0  0  0
  6 25  1  0  0  0
  6 85  1  0  0  0
  6 86  1  0  0  0
  7  8  2  0  0  0
  7 26  1  0  0  0
  7 29  1  0  0  0
  8  9  1  0  0  0
  8 22  1  0  0  0
  9 10  1  0  0  0
  9 27  2  0  0  0
 10 11  2  0  0  0
 10 15  1  0  0  0
 11 12  1  0  0  0
 11 87  1  0  0  0
 12 13  2  0  0  0
 12 88  1  0  0  0
 13 14  1  0  0  0
 13 31  1  0  0  0
 14 15  2  0  0  0
 14 89  1  0  0  0
 15 90  1  0  0  0
 16 17  2  0  0  0
 16 21  1  0  0  0
 16 31  1  0  0  0
 17 18  1  0  0  0
 17 91  1  0  0  0
 18 19  2  0  0  0
 18 92  1  0  0  0
 19 20  1  0  0  0
 19 24  1  0  0  0
 20 21  2  0  0  0
 20 93  1  0  0  0
 21 23  1  0  0  0
 22 28  1  0  0  0
 22 32  2  0  0  0
 26 27  1  0  0  0
 28 94  1  0  0  0
 28 95  1  0  0  0
 29 96  1  0  0  0
 29 97  1  0  0  0
 33 34  1  0  0  0
 33 66  1  0  0  0
 33 70  2  0  0  0
 34 36  1  0  0  0
 34 59  1  0  0  0
 34 98  1  0  0  0
 35 44  2  0  0  0
 35 45  1  0  0  0
 35 68  1  0  0  0
 36 56  1  0  0  0
 36 99  1  0  0  0
 37 39  1  0  0  0
 37 47  1  0  0  0
 37 66  1  0  0  0
 37100  1  0  0  0
 38 43  2  0  0  0
 38 46  1  0  0  0
 38 47  1  0  0  0
 39 64  1  0  0  0
 39 67  2  0  0  0
 40 52  1  0  0  0
 40 53  2  0  0  0
 40 58  1  0  0  0
 41101  1  0  0  0
 41102  1  0  0  0
 41103  1  0  0  0
 41 48  1  0  0  0
 42 43  1  0  0  0
 42 66  1  0  0  0
 42104  1  0  0  0
 42105  1  0  0  0
 43 44  1  0  0  0
 44106  1  0  0  0
 45 46  2  0  0  0
 45107  1  0  0  0
 46108  1  0  0  0
 47109  1  0  0  0
 47110  1  0  0  0
 48 56  1  0  0  0
 48 65  1  0  0  0
 48111  1  0  0  0
 49 50  1  0  0  0
 49 53  1  0  0  0
 49 64  1  0  0  0
 49112  1  0  0  0
 50 51  1  0  0  0
 50113  1  0  0  0
 50114  1  0  0  0
 51 52  1  0  0  0
 51115  1  0  0  0
 51116  1  0  0  0
 52117  1  0  0  0
 52118  1  0  0  0
 53 54  1  0  0  0
 54 55  2  0  0  0
 54119  1  0  0  0
 55 57  1  0  0  0
 55120  1  0  0  0
 56 69  2  0  0  0
 57 58  2  0  0  0
 57121  1  0  0  0
 58122  1  0  0  0
 59 60  1  0  0  0
 59 61  1  0  0  0
 59 62  1  0  0  0
 60123  1  0  0  0
 60124  1  0  0  0
 60125  1  0  0  0
 61126  1  0  0  0
 61127  1  0  0  0
 61128  1  0  0  0
 62129  1  0  0  0
 62130  1  0  0  0
 62131  1  0  0  0
 63 65  1  0  0  0
 63132  1  0  0  0
 63133  1  0  0  0
 63134  1  0  0  0
 64135  1  0  0  0
 65136  1  0  0  0
 68 76  1  0  0  0
 71 72  3  0  0  0
 72 77  1  0  0  0
 73137  1  0  0  0
 73138  1  0  0  0
 73139  1  0  0  0
 73 76  1  0  0  0
 74140  1  0  0  0
 74141  1  0  0  0
 74142  1  0  0  0
 74 77  1  0  0  0
 75 77  1  0  0  0
 75143  1  0  0  0
 75144  1  0  0  0
 75145  1  0  0  0
 76 77  1  0  0  0
 76146  1  0  0  0
M  ISO  4   1 100  68 101  71 100  76 101
M  END
> <chiral flag>
0

> <version>
0

> <s_m_source_file>
/data/baiqing/PycharmProjects/Reinvent-master-3.2/result/LINK_invent/BTK/process_docking_weight1_custom_sum_contain_oxygen_bond_distance_aromatic_linkinvent_7_9_3/rearranged_h_0019.sdf

> <i_m_source_file_index>
36

> <r_mmod_Potential_Energy-OPLS-2005>
4503.96875

> <r_mmod_Stretch_Energy-OPLS-2005>
2022.33557128906

> <r_mmod_Bend_Energy-OPLS-2005>
931.733459472656

> <r_mmod_Torsional_Energy-OPLS-2005>
221.156463623047

> <r_mmod_Improper_Torsional_Energy-OPLS-2005>
3.01741409301758

> <r_mmod_Van_der_Waal_Energy-OPLS-2005>
147.956130981445

> <r_mmod_Electrostatic_Energy-OPLS-2005>
-319.031982421875

> <r_mmod_Solvation_Energy-OPLS-2005>
-189.349212646484

> <b_mmod_Minimization_Converged-OPLS-2005>
0

> <r_mmod_RMS_Derivative-OPLS-2005>
2.18385791778564

$$$$
36
                    3D
 Structure written by MMmdl.
163171  0  0  1  0            999 V2000
  -30.6060  -14.6459   20.4755 C   0  0  0  0  0  0
  -30.4387  -12.3907   19.4526 C   0  0  0  0  0  0
  -29.5082  -12.5049   18.2239 C   0  0  0  0  0  0
  -28.0303  -12.3435   18.6344 C   0  0  0  0  0  0
  -27.6518  -13.2150   19.8613 C   0  0  2  0  0  0
  -28.6963  -13.0711   20.9909 C   0  0  0  0  0  0
  -25.2561  -13.8167   20.5686 C   0  0  0  0  0  0
  -24.1826  -13.0436   20.9196 C   0  0  0  0  0  0
  -24.6388  -11.6905   20.8739 C   0  0  0  0  0  0
  -23.9057  -10.4291   21.0405 C   0  0  0  0  0  0
  -24.3611   -9.4208   21.9183 C   0  0  0  0  0  0
  -23.6288   -8.2242   22.0752 C   0  0  0  0  0  0
  -22.4272   -8.0279   21.3541 C   0  0  0  0  0  0
  -21.9905   -9.0253   20.4645 C   0  0  0  0  0  0
  -22.7228  -10.2134   20.3055 C   0  0  0  0  0  0
  -21.6852   -6.0734   22.5277 C   0  0  0  0  0  0
  -21.4014   -6.5638   23.8212 C   0  0  0  0  0  0
  -21.3659   -5.6790   24.9174 C   0  0  0  0  0  0
  -21.6045   -4.3053   24.7223 C   0  0  0  0  0  0
  -21.8820   -3.8143   23.4344 C   0  0  0  0  0  0
  -21.9191   -4.6962   22.3401 C   0  0  0  0  0  0
  -22.7850  -13.5234   21.1858 C   0  0  0  0  0  0
  -22.1661   -4.2147   21.0977 F   0  0  0  0  0  0
  -21.5626   -3.4536   25.7736 F   0  0  0  0  0  0
  -30.0115  -13.4128   20.4272 N   0  0  0  0  0  0
  -26.2979  -12.9342   20.3305 N   0  0  0  0  0  0
  -25.9315  -11.6500   20.5749 N   0  0  0  0  0  0
  -22.0490  -12.8230   22.0414 N   0  0  0  0  0  0
  -25.4280  -15.1887   20.4101 N   0  0  0  0  0  0
  -31.7873  -14.7949   20.1504 O   0  0  0  0  0  0
  -21.6636   -6.8876   21.4240 O   0  0  0  0  0  0
  -22.3538  -14.5538   20.6699 O   0  0  0  0  0  0
  -24.6238  -31.8602   23.2021 C   0  0  0  0  0  0
  -25.9090  -32.4783   23.8352 C   0  0  1  0  0  0
  -27.2291  -27.3342   20.1261 C   0  0  0  0  0  0
  -25.5910  -33.8583   24.2285 N   0  0  0  0  0  0
  -23.4177  -30.4813   21.5443 C   0  0  2  0  0  0
  -24.8659  -28.9318   20.1153 C   0  0  0  0  0  0
  -22.7464  -29.4620   22.4947 C   0  0  0  0  0  0
  -18.0284  -28.1382   22.8488 C   0  0  0  0  0  0
  -24.1487  -36.7295   23.2640 C   0  0  0  0  0  0
  -25.9556  -30.7970   21.3690 C   0  0  0  0  0  0
  -26.0326  -29.4232   20.7155 C   0  0  0  0  0  0
  -27.2200  -28.6370   20.7063 C   0  0  0  0  0  0
  -26.0438  -26.8838   19.5082 C   0  0  0  0  0  0
  -24.8721  -27.6669   19.5027 C   0  0  0  0  0  0
  -23.6324  -29.8105   20.1612 C   0  0  0  0  0  0
  -25.4112  -36.3090   24.0333 C   0  0  1  0  0  0
  -20.5882  -28.3682   23.1291 C   0  0  2  0  0  0
  -20.6772  -26.9407   22.5413 C   0  0  0  0  0  0
  -19.5749  -26.6382   21.5213 C   0  0  0  0  0  0
  -18.1929  -26.7926   22.1624 C   0  0  0  0  0  0
  -19.1536  -28.8849   23.2885 C   0  0  0  0  0  0
  -18.9458  -30.1453   23.8900 C   0  0  0  0  0  0
  -17.6459  -30.6585   24.0564 C   0  0  0  0  0  0
  -25.9045  -34.9456   23.5112 C   0  0  0  0  0  0
  -16.5350  -29.9084   23.6329 C   0  0  0  0  0  0
  -16.7272  -28.6501   23.0350 C   0  0  0  0  0  0
  -26.4485  -31.6588   25.0714 C   0  0  0  0  0  0
  -25.3726  -31.3716   26.1446 C   0  0  0  0  0  0
  -27.0328  -30.3019   24.6147 C   0  0  0  0  0  0
  -27.6050  -32.4318   25.7481 C   0  0  0  0  0  0
  -27.5581  -37.1803   24.8466 C   0  0  0  0  0  0
  -21.4179  -29.3036   22.3688 N   0  0  0  0  0  0
  -26.4295  -37.3780   23.9406 N   0  0  0  0  0  0
  -24.6845  -31.0625   22.0961 N   0  0  0  0  0  0
  -23.4193  -28.8169   23.3029 O   0  0  0  0  0  0
  -28.3592  -26.5136   20.1284 O   0  0  0  0  0  0
  -26.5616  -34.8921   22.4680 O   0  0  0  0  0  0
  -23.5405  -32.1390   23.7360 O   0  0  0  0  0  0
  -28.6743  -19.3261   21.0854 C   0  0  0  0  0  0
  -29.2584  -20.0140   19.9976 C   0  0  0  0  0  0
  -28.9166  -17.9439   21.3408 C   0  0  0  0  0  0
  -30.1626  -19.2503   19.1934 C   0  0  0  0  0  0
  -30.3418  -17.8305   19.3850 C   0  0  0  0  0  0
  -29.7386  -17.1434   20.4911 C   0  0  0  0  0  0
  -28.2122  -17.3098   22.5307 C   0  0  0  0  0  0
  -30.9220  -19.9636   18.0763 C   0  0  0  0  0  0
  -31.1058  -17.0432   18.3237 C   0  0  0  0  0  0
  -30.1722  -24.2962   19.1857 C   0  0  0  0  0  0
  -28.7356  -21.4456   19.5720 C   0  0  0  0  0  0
  -28.2255  -25.1279   20.6290 C   0  0  0  0  0  0
  -28.7896  -23.9306   19.7445 C   0  0  2  0  0  0
  -29.7587  -15.6912   20.7488 N   0  0  0  0  0  0
  -28.9613  -22.6238   20.4123 O   0  0  0  0  0  0
  -31.4796  -12.5197   19.1505 H   0  0  0  0  0  0
  -30.3750  -11.3956   19.8956 H   0  0  0  0  0  0
  -29.7722  -11.7533   17.4790 H   0  0  0  0  0  0
  -29.6506  -13.4741   17.7432 H   0  0  0  0  0  0
  -27.8658  -11.2903   18.8654 H   0  0  0  0  0  0
  -27.3772  -12.5744   17.7920 H   0  0  0  0  0  0
  -27.6676  -14.2490   19.5171 H   0  0  0  0  0  0
  -28.7071  -12.0501   21.3752 H   0  0  0  0  0  0
  -28.4438  -13.7064   21.8416 H   0  0  0  0  0  0
  -25.2758   -9.5685   22.4756 H   0  0  0  0  0  0
  -23.9995   -7.4635   22.7473 H   0  0  0  0  0  0
  -21.0834   -8.8770   19.8953 H   0  0  0  0  0  0
  -22.3684  -10.9674   19.6163 H   0  0  0  0  0  0
  -21.2010   -7.6148   23.9715 H   0  0  0  0  0  0
  -21.1480   -6.0521   25.9077 H   0  0  0  0  0  0
  -22.0598   -2.7605   23.2846 H   0  0  0  0  0  0
  -22.4099  -11.9890   22.4803 H   0  0  0  0  0  0
  -21.1107  -13.1261   22.2613 H   0  0  0  0  0  0
  -24.6586  -15.8406   20.5167 H   0  0  0  0  0  0
  -26.2682  -15.6255   20.0533 H   0  0  0  0  0  0
  -26.7158  -32.5465   23.1104 H   0  0  0  0  0  0
  -25.0058  -33.9731   25.0430 H   0  0  0  0  0  0
  -22.7107  -31.3008   21.3993 H   0  0  0  0  0  0
  -23.3749  -35.9629   23.3310 H   0  0  0  0  0  0
  -24.3578  -36.8906   22.2053 H   0  0  0  0  0  0
  -23.7240  -37.6500   23.6655 H   0  0  0  0  0  0
  -26.0814  -31.5597   20.5993 H   0  0  0  0  0  0
  -26.8379  -30.8495   21.9954 H   0  0  0  0  0  0
  -28.1202  -29.0126   21.1728 H   0  0  0  0  0  0
  -26.0215  -25.9143   19.0308 H   0  0  0  0  0  0
  -23.9777  -27.2851   19.0298 H   0  0  0  0  0  0
  -23.7499  -30.5842   19.4017 H   0  0  0  0  0  0
  -22.7531  -29.2372   19.8613 H   0  0  0  0  0  0
  -25.1293  -36.1950   25.0827 H   0  0  0  0  0  0
  -20.9975  -28.3254   24.1412 H   0  0  0  0  0  0
  -20.5674  -26.2291   23.3609 H   0  0  0  0  0  0
  -21.6642  -26.7439   22.1207 H   0  0  0  0  0  0
  -19.6911  -25.6295   21.1238 H   0  0  0  0  0  0
  -19.6688  -27.3196   20.6747 H   0  0  0  0  0  0
  -17.4200  -26.6676   21.4026 H   0  0  0  0  0  0
  -18.0329  -26.0067   22.9019 H   0  0  0  0  0  0
  -19.7935  -30.7269   24.2269 H   0  0  0  0  0  0
  -17.5012  -31.6265   24.5165 H   0  0  0  0  0  0
  -15.5351  -30.2987   23.7648 H   0  0  0  0  0  0
  -15.8672  -28.0822   22.7063 H   0  0  0  0  0  0
  -24.5901  -30.7066   25.7773 H   0  0  0  0  0  0
  -24.8917  -32.2878   26.4881 H   0  0  0  0  0  0
  -25.8055  -30.8885   27.0214 H   0  0  0  0  0  0
  -26.2895  -29.6768   24.1185 H   0  0  0  0  0  0
  -27.4056  -29.7274   25.4637 H   0  0  0  0  0  0
  -27.8749  -30.4321   23.9345 H   0  0  0  0  0  0
  -27.2669  -33.3617   26.2066 H   0  0  0  0  0  0
  -28.3854  -32.6879   25.0301 H   0  0  0  0  0  0
  -28.0725  -31.8437   26.5388 H   0  0  0  0  0  0
  -28.2605  -38.0095   24.7508 H   0  0  0  0  0  0
  -28.1070  -36.2626   24.6301 H   0  0  0  0  0  0
  -27.2297  -37.1462   25.8869 H   0  0  0  0  0  0
  -20.9357  -29.8755   21.6896 H   0  0  0  0  0  0
  -26.0181  -38.2859   24.1400 H   0  0  0  0  0  0
  -27.9781  -19.8663   21.7117 H   0  0  0  0  0  0
  -27.7525  -18.0624   23.1720 H   0  0  0  0  0  0
  -28.9172  -16.7472   23.1435 H   0  0  0  0  0  0
  -27.4256  -16.6330   22.1965 H   0  0  0  0  0  0
  -31.1402  -20.9984   18.3393 H   0  0  0  0  0  0
  -30.3490  -19.9532   17.1488 H   0  0  0  0  0  0
  -31.8958  -19.5116   17.8892 H   0  0  0  0  0  0
  -31.0756  -17.5152   17.3433 H   0  0  0  0  0  0
  -30.6607  -16.0640   18.1597 H   0  0  0  0  0  0
  -32.1495  -16.9182   18.6118 H   0  0  0  0  0  0
  -30.1338  -25.2282   18.6211 H   0  0  0  0  0  0
  -30.5547  -23.5274   18.5152 H   0  0  0  0  0  0
  -30.8967  -24.4270   19.9896 H   0  0  0  0  0  0
  -27.6534  -21.3520   19.4729 H   0  0  0  0  0  0
  -29.0641  -21.6677   18.5586 H   0  0  0  0  0  0
  -28.7635  -25.1133   21.5770 H   0  0  0  0  0  0
  -27.1922  -24.9059   20.8981 H   0  0  0  0  0  0
  -28.0991  -23.8119   18.9076 H   0  0  0  0  0  0
  -28.9029  -15.3567   21.1619 H   0  0  0  0  0  0
  1 25  1  0  0  0
  1 30  2  0  0  0
  1 84  1  0  0  0
  2  3  1  0  0  0
  2 25  1  0  0  0
  2 86  1  0  0  0
  2 87  1  0  0  0
  3  4  1  0  0  0
  3 88  1  0  0  0
  3 89  1  0  0  0
  4  5  1  0  0  0
  4 90  1  0  0  0
  4 91  1  0  0  0
  5  6  1  0  0  0
  5 26  1  0  0  0
  5 92  1  0  0  0
  6 25  1  0  0  0
  6 93  1  0  0  0
  6 94  1  0  0  0
  7  8  2  0  0  0
  7 26  1  0  0  0
  7 29  1  0  0  0
  8  9  1  0  0  0
  8 22  1  0  0  0
  9 10  1  0  0  0
  9 27  2  0  0  0
 10 11  2  0  0  0
 10 15  1  0  0  0
 11 12  1  0  0  0
 11 95  1  0  0  0
 12 13  2  0  0  0
 12 96  1  0  0  0
 13 14  1  0  0  0
 13 31  1  0  0  0
 14 15  2  0  0  0
 14 97  1  0  0  0
 15 98  1  0  0  0
 16 17  2  0  0  0
 16 21  1  0  0  0
 16 31  1  0  0  0
 17 18  1  0  0  0
 17 99  1  0  0  0
 18 19  2  0  0  0
 18100  1  0  0  0
 19 20  1  0  0  0
 19 24  1  0  0  0
 20 21  2  0  0  0
 20101  1  0  0  0
 21 23  1  0  0  0
 22 28  1  0  0  0
 22 32  2  0  0  0
 26 27  1  0  0  0
 28102  1  0  0  0
 28103  1  0  0  0
 29104  1  0  0  0
 29105  1  0  0  0
 33 34  1  0  0  0
 33 66  1  0  0  0
 33 70  2  0  0  0
 34 36  1  0  0  0
 34 59  1  0  0  0
 34106  1  0  0  0
 35 44  2  0  0  0
 35 45  1  0  0  0
 35 68  1  0  0  0
 36 56  1  0  0  0
 36107  1  0  0  0
 37 39  1  0  0  0
 37 47  1  0  0  0
 37 66  1  0  0  0
 37108  1  0  0  0
 38 43  2  0  0  0
 38 46  1  0  0  0
 38 47  1  0  0  0
 39 64  1  0  0  0
 39 67  2  0  0  0
 40 52  1  0  0  0
 40 53  2  0  0  0
 40 58  1  0  0  0
 41109  1  0  0  0
 41110  1  0  0  0
 41111  1  0  0  0
 41 48  1  0  0  0
 42 43  1  0  0  0
 42 66  1  0  0  0
 42112  1  0  0  0
 42113  1  0  0  0
 43 44  1  0  0  0
 44114  1  0  0  0
 45 46  2  0  0  0
 45115  1  0  0  0
 46116  1  0  0  0
 47117  1  0  0  0
 47118  1  0  0  0
 48 56  1  0  0  0
 48 65  1  0  0  0
 48119  1  0  0  0
 49 50  1  0  0  0
 49 53  1  0  0  0
 49 64  1  0  0  0
 49120  1  0  0  0
 50 51  1  0  0  0
 50121  1  0  0  0
 50122  1  0  0  0
 51 52  1  0  0  0
 51123  1  0  0  0
 51124  1  0  0  0
 52125  1  0  0  0
 52126  1  0  0  0
 53 54  1  0  0  0
 54 55  2  0  0  0
 54127  1  0  0  0
 55 57  1  0  0  0
 55128  1  0  0  0
 56 69  2  0  0  0
 57 58  2  0  0  0
 57129  1  0  0  0
 58130  1  0  0  0
 59 60  1  0  0  0
 59 61  1  0  0  0
 59 62  1  0  0  0
 60131  1  0  0  0
 60132  1  0  0  0
 60133  1  0  0  0
 61134  1  0  0  0
 61135  1  0  0  0
 61136  1  0  0  0
 62137  1  0  0  0
 62138  1  0  0  0
 62139  1  0  0  0
 63 65  1  0  0  0
 63140  1  0  0  0
 63141  1  0  0  0
 63142  1  0  0  0
 64143  1  0  0  0
 65144  1  0  0  0
 68 82  1  0  0  0
 71 72  2  0  0  0
 71 73  1  0  0  0
 71145  1  0  0  0
 72 74  1  0  0  0
 72 81  1  0  0  0
 73 76  2  0  0  0
 73 77  1  0  0  0
 74 75  2  0  0  0
 74 78  1  0  0  0
 75 76  1  0  0  0
 75 79  1  0  0  0
 76 84  1  0  0  0
 77146  1  0  0  0
 77147  1  0  0  0
 77148  1  0  0  0
 78149  1  0  0  0
 78150  1  0  0  0
 78151  1  0  0  0
 79152  1  0  0  0
 79153  1  0  0  0
 79154  1  0  0  0
 80155  1  0  0  0
 80156  1  0  0  0
 80157  1  0  0  0
 80 83  1  0  0  0
 81 85  1  0  0  0
 81158  1  0  0  0
 81159  1  0  0  0
 82 83  1  0  0  0
 82160  1  0  0  0
 82161  1  0  0  0
 83 85  1  0  0  0
 83162  1  0  0  0
 84163  1  0  0  0
M  ISO  4   1 100  68 101  82 101  84 100
M  END
> <chiral flag>
0

> <version>
0

> <s_m_source_file>
/data/baiqing/PycharmProjects/Reinvent-master-3.2/result/LINK_invent/BTK/process_docking_weight1_custom_sum_contain_oxygen_bond_distance_aromatic_linkinvent_7_9_3/rearranged_h_0019.sdf

> <i_m_source_file_index>
37

> <r_mmod_Potential_Energy-OPLS-2005>
95.3614196777344

> <r_mmod_Stretch_Energy-OPLS-2005>
86.1663360595703

> <r_mmod_Bend_Energy-OPLS-2005>
149.525024414062

> <r_mmod_Torsional_Energy-OPLS-2005>
267.098846435547

> <r_mmod_Improper_Torsional_Energy-OPLS-2005>
5.97736501693726

> <r_mmod_Van_der_Waal_Energy-OPLS-2005>
151.068511962891

> <r_mmod_Electrostatic_Energy-OPLS-2005>
-408.243469238281

> <r_mmod_Solvation_Energy-OPLS-2005>
-202.042922973633

> <b_mmod_Minimization_Converged-OPLS-2005>
0

> <r_mmod_RMS_Derivative-OPLS-2005>
0.455861121416092

$$$$
37
                    3D
 Structure written by MMmdl.
175183  0  0  1  0            999 V2000
  -29.8805  -15.1270   20.7231 C   0  0  0  0  0  0
  -30.3980  -12.8009   19.6117 C   0  0  0  0  0  0
  -29.5306  -12.6213   18.3290 C   0  0  0  0  0  0
  -28.0586  -12.3061   18.6743 C   0  0  0  0  0  0
  -27.5697  -13.1862   19.8480 C   0  0  2  0  0  0
  -28.5184  -13.0883   21.0436 C   0  0  0  0  0  0
  -25.2155  -13.7996   20.5500 C   0  0  0  0  0  0
  -24.1512  -13.0324   20.9210 C   0  0  0  0  0  0
  -24.6068  -11.6790   20.8740 C   0  0  0  0  0  0
  -23.8832  -10.4213   21.0457 C   0  0  0  0  0  0
  -24.3483   -9.4165   21.9214 C   0  0  0  0  0  0
  -23.6219   -8.2174   22.0760 C   0  0  0  0  0  0
  -22.4210   -8.0197   21.3538 C   0  0  0  0  0  0
  -21.9782   -9.0149   20.4654 C   0  0  0  0  0  0
  -22.7041  -10.2053   20.3082 C   0  0  0  0  0  0
  -21.6826   -6.0687   22.5283 C   0  0  0  0  0  0
  -21.3996   -6.5611   23.8209 C   0  0  0  0  0  0
  -21.3654   -5.6776   24.9178 C   0  0  0  0  0  0
  -21.6044   -4.3038   24.7239 C   0  0  0  0  0  0
  -21.8823   -3.8117   23.4366 C   0  0  0  0  0  0
  -21.9186   -4.6922   22.3415 C   0  0  0  0  0  0
  -22.7619  -13.5204   21.1956 C   0  0  0  0  0  0
  -22.1659   -4.2108   21.0993 F   0  0  0  0  0  0
  -21.5633   -3.4531   25.7760 F   0  0  0  0  0  0
  -29.7072  -13.7439   20.5717 N   0  0  0  0  0  0
  -26.2329  -12.9044   20.2865 N   0  0  0  0  0  0
  -25.8884  -11.6267   20.5520 N   0  0  0  0  0  0
  -22.0299  -12.8222   22.0552 N   0  0  0  0  0  0
  -25.3976  -15.1686   20.3873 N   0  0  0  0  0  0
  -31.0308  -15.4791   20.3617 O   0  0  0  0  0  0
  -21.6596   -6.8797   21.4232 O   0  0  0  0  0  0
  -22.3348  -14.5520   20.6792 O   0  0  0  0  0  0
  -24.6567  -31.9372   23.2297 C   0  0  0  0  0  0
  -25.9487  -32.5078   23.8631 C   0  0  1  0  0  0
  -26.1304  -27.2345   20.3999 C   0  0  0  0  0  0
  -25.6346  -33.8833   24.2577 N   0  0  0  0  0  0
  -23.4575  -30.5942   21.5903 C   0  0  2  0  0  0
  -24.8577  -29.3566   19.7862 C   0  0  0  0  0  0
  -23.0607  -29.4996   22.6189 C   0  0  0  0  0  0
  -18.5811  -27.8173   22.4547 C   0  0  0  0  0  0
  -24.1518  -36.7364   23.2598 C   0  0  0  0  0  0
  -25.9848  -30.8484   21.4239 C   0  0  0  0  0  0
  -25.9237  -29.5457   20.6669 C   0  0  0  0  0  0
  -26.7572  -28.4330   20.8711 C   0  0  0  0  0  0
  -25.8800  -27.2582   19.0575 C   0  0  0  0  0  0
  -24.9733  -28.3074   18.8210 C   0  0  0  0  0  0
  -23.6043  -30.1546   20.0826 C   0  0  0  0  0  0
  -25.4134  -36.3206   24.0326 C   0  0  1  0  0  0
  -21.2921  -28.0962   23.5315 C   0  0  2  0  0  0
  -22.1636  -26.3931   22.7936 C   0  0  0  0  0  0
  -20.6095  -25.4290   21.2911 C   0  0  0  0  0  0
  -18.9015  -26.4563   21.3806 C   0  0  0  0  0  0
  -19.6206  -28.5410   23.2795 C   0  0  0  0  0  0
  -19.1855  -29.7694   23.9255 C   0  0  0  0  0  0
  -17.8590  -30.2706   23.9546 C   0  0  0  0  0  0
  -25.9142  -34.9605   23.5157 C   0  0  0  0  0  0
  -16.8521  -29.5067   23.3527 C   0  0  0  0  0  0
  -17.2172  -28.3248   22.6325 C   0  0  0  0  0  0
  -26.4618  -31.6674   25.0940 C   0  0  0  0  0  0
  -25.3742  -31.3811   26.1554 C   0  0  0  0  0  0
  -27.0394  -30.3066   24.6392 C   0  0  0  0  0  0
  -27.6186  -32.4277   25.7796 C   0  0  0  0  0  0
  -27.5599  -37.1890   24.8464 C   0  0  0  0  0  0
  -21.8137  -29.3701   22.9871 N   0  0  0  0  0  0
  -26.4303  -37.3893   23.9419 N   0  0  0  0  0  0
  -24.7140  -31.1891   22.0995 N   0  0  0  0  0  0
  -23.8816  -28.7958   23.1897 O   0  0  0  0  0  0
  -24.8123  -26.9837   20.9790 O   0  0  0  0  0  0
  -26.5520  -34.9004   22.4609 O   0  0  0  0  0  0
  -23.5754  -32.2036   23.7774 O   0  0  0  0  0  0
  -25.6427  -21.0124   22.1669 C   0  0  0  0  0  0
  -24.6600  -22.1310   22.4134 C   0  0  0  0  0  0
  -25.4293  -19.5644   22.2438 C   0  0  0  0  0  0
  -23.2342  -22.0421   22.8038 C   0  0  0  0  0  0
  -24.0199  -19.4895   22.6643 C   0  0  0  0  0  0
  -23.0254  -20.5972   22.8904 C   0  0  0  0  0  0
  -25.2010  -23.5327   22.1794 C   0  0  0  0  0  0
  -23.0907  -16.3347   24.2535 C   0  0  0  0  0  0
  -19.8045  -26.2582   24.9378 C   0  0  0  0  0  0
  -26.4723  -18.1212   22.0500 C   0  0  0  0  0  0
  -21.9916  -23.3251   22.7181 C   0  0  0  0  0  0
  -21.1282  -27.5884   21.2421 C   0  0  0  0  0  0
  -28.0333  -17.5297   21.2920 C   0  0  0  0  0  0
  -23.2905  -17.8504   24.1847 C   0  0  0  0  0  0
  -23.0342  -27.2082   20.5504 C   0  0  0  0  0  0
  -20.1040  -25.9000   23.4205 C   0  0  1  0  0  0
  -28.7020  -15.9722   21.1577 N   0  0  0  0  0  0
  -20.9261  -24.3018   23.6608 N   0  3  0  0  0  0
  -23.5673  -18.2049   22.8357 O   0  0  0  0  0  0
  -21.7523  -20.2211   23.1618 F   0  0  0  0  0  0
  -31.3854  -13.1799   19.3432 H   0  0  0  0  0  0
  -30.5723  -11.8374   20.0934 H   0  0  0  0  0  0
  -29.9486  -11.8444   17.6865 H   0  0  0  0  0  0
  -29.5645  -13.5465   17.7518 H   0  0  0  0  0  0
  -27.9849  -11.2530   18.9487 H   0  0  0  0  0  0
  -27.4225  -12.4422   17.7994 H   0  0  0  0  0  0
  -27.5544  -14.2030   19.4556 H   0  0  0  0  0  0
  -28.7011  -12.0506   21.3277 H   0  0  0  0  0  0
  -28.1100  -13.5729   21.9325 H   0  0  0  0  0  0
  -25.2638   -9.5677   22.4763 H   0  0  0  0  0  0
  -23.9956   -7.4563   22.7459 H   0  0  0  0  0  0
  -21.0717   -8.8630   19.8965 H   0  0  0  0  0  0
  -22.3486  -10.9589   19.6194 H   0  0  0  0  0  0
  -21.1983   -7.6120   23.9696 H   0  0  0  0  0  0
  -21.1476   -6.0515   25.9078 H   0  0  0  0  0  0
  -22.0614   -2.7578   23.2880 H   0  0  0  0  0  0
  -22.3913  -11.9863   22.4901 H   0  0  0  0  0  0
  -21.0942  -13.1268   22.2819 H   0  0  0  0  0  0
  -24.6167  -15.8085   20.4815 H   0  0  0  0  0  0
  -26.1980  -15.5860   19.9307 H   0  0  0  0  0  0
  -26.7594  -32.5619   23.1394 H   0  0  0  0  0  0
  -25.0655  -34.0003   25.0830 H   0  0  0  0  0  0
  -22.6719  -31.3533   21.6021 H   0  0  0  0  0  0
  -23.3795  -35.9681   23.3257 H   0  0  0  0  0  0
  -24.3638  -36.8973   22.2016 H   0  0  0  0  0  0
  -23.7250  -37.6570   23.6591 H   0  0  0  0  0  0
  -26.2273  -31.6476   20.7218 H   0  0  0  0  0  0
  -26.8354  -30.7602   22.0875 H   0  0  0  0  0  0
  -27.4936  -28.4256   21.6623 H   0  0  0  0  0  0
  -25.7693  -26.3545   18.4744 H   0  0  0  0  0  0
  -24.2747  -28.2278   17.9991 H   0  0  0  0  0  0
  -23.6701  -31.0563   19.4726 H   0  0  0  0  0  0
  -22.6974  -29.6667   19.7340 H   0  0  0  0  0  0
  -25.1282  -36.2078   25.0811 H   0  0  0  0  0  0
  -21.5338  -28.1874   24.5917 H   0  0  0  0  0  0
  -22.4673  -25.9081   23.7220 H   0  0  0  0  0  0
  -23.2285  -26.3868   22.6026 H   0  0  0  0  0  0
  -20.2840  -24.3988   21.3648 H   0  0  0  0  0  0
  -20.9710  -25.3665   20.2609 H   0  0  0  0  0  0
  -18.6681  -26.8174   20.3772 H   0  0  0  0  0  0
  -18.0826  -25.7463   21.5137 H   0  0  0  0  0  0
  -19.9182  -30.3340   24.4860 H   0  0  0  0  0  0
  -17.6207  -31.1829   24.4853 H   0  0  0  0  0  0
  -15.8203  -29.8261   23.3943 H   0  0  0  0  0  0
  -16.4215  -27.7971   22.1233 H   0  0  0  0  0  0
  -24.5950  -30.7165   25.7806 H   0  0  0  0  0  0
  -24.8913  -32.2982   26.4939 H   0  0  0  0  0  0
  -25.7986  -30.8990   27.0369 H   0  0  0  0  0  0
  -26.2998  -29.6928   24.1253 H   0  0  0  0  0  0
  -27.3865  -29.7220   25.4920 H   0  0  0  0  0  0
  -27.9004  -30.4296   23.9819 H   0  0  0  0  0  0
  -27.2849  -33.3576   26.2410 H   0  0  0  0  0  0
  -28.4072  -32.6811   25.0696 H   0  0  0  0  0  0
  -28.0752  -31.8322   26.5711 H   0  0  0  0  0  0
  -28.2592  -38.0211   24.7541 H   0  0  0  0  0  0
  -28.1123  -36.2748   24.6243 H   0  0  0  0  0  0
  -27.2328  -37.1488   25.8869 H   0  0  0  0  0  0
  -21.1304  -30.0262   22.6353 H   0  0  0  0  0  0
  -26.0186  -38.2960   24.1459 H   0  0  0  0  0  0
  -26.6435  -21.3056   21.8805 H   0  0  0  0  0  0
  -26.2912  -23.5491   22.1815 H   0  0  0  0  0  0
  -24.8677  -24.2172   22.9599 H   0  0  0  0  0  0
  -24.8644  -23.9194   21.2171 H   0  0  0  0  0  0
  -22.8554  -16.0167   25.2694 H   0  0  0  0  0  0
  -23.9904  -15.8047   23.9405 H   0  0  0  0  0  0
  -22.2727  -16.0179   23.6062 H   0  0  0  0  0  0
  -19.0462  -27.0213   25.1005 H   0  0  0  0  0  0
  -20.6889  -26.5041   25.5221 H   0  0  0  0  0  0
  -19.3860  -25.3880   25.4461 H   0  0  0  0  0  0
  -25.7437  -17.4162   21.6576 H   0  0  0  0  0  0
  -26.5798  -17.8103   23.0899 H   0  0  0  0  0  0
  -21.2943  -22.7822   22.0819 H   0  0  0  0  0  0
  -22.5071  -24.0071   22.0508 H   0  0  0  0  0  0
  -20.6799  -27.4640   20.2488 H   0  0  0  0  0  0
  -20.7876  -28.6178   21.1236 H   0  0  0  0  0  0
  -28.8277  -18.1348   21.7290 H   0  0  0  0  0  0
  -27.9841  -17.8651   20.2554 H   0  0  0  0  0  0
  -24.1187  -18.1400   24.8339 H   0  0  0  0  0  0
  -22.3978  -18.3564   24.5521 H   0  0  0  0  0  0
  -22.9026  -27.5462   19.5352 H   0  0  0  0  0  0
  -22.9443  -26.1517   20.3091 H   0  0  0  0  0  0
  -19.1159  -25.4429   23.3184 H   0  0  0  0  0  0
  -27.9820  -15.3152   21.4246 H   0  0  0  0  0  0
  -21.4981  -24.4727   24.4722 H   0  0  0  0  0  0
  -20.2154  -23.6639   23.9841 H   0  0  0  0  0  0
  1 25  1  0  0  0
  1 30  2  0  0  0
  1 87  1  0  0  0
  2  3  1  0  0  0
  2 25  1  0  0  0
  2 91  1  0  0  0
  2 92  1  0  0  0
  3  4  1  0  0  0
  3 93  1  0  0  0
  3 94  1  0  0  0
  4  5  1  0  0  0
  4 95  1  0  0  0
  4 96  1  0  0  0
  5  6  1  0  0  0
  5 26  1  0  0  0
  5 97  1  0  0  0
  6 25  1  0  0  0
  6 98  1  0  0  0
  6 99  1  0  0  0
  7  8  2  0  0  0
  7 26  1  0  0  0
  7 29  1  0  0  0
  8  9  1  0  0  0
  8 22  1  0  0  0
  9 10  1  0  0  0
  9 27  2  0  0  0
 10 11  2  0  0  0
 10 15  1  0  0  0
 11 12  1  0  0  0
 11100  1  0  0  0
 12 13  2  0  0  0
 12101  1  0  0  0
 13 14  1  0  0  0
 13 31  1  0  0  0
 14 15  2  0  0  0
 14102  1  0  0  0
 15103  1  0  0  0
 16 17  2  0  0  0
 16 21  1  0  0  0
 16 31  1  0  0  0
 17 18  1  0  0  0
 17104  1  0  0  0
 18 19  2  0  0  0
 18105  1  0  0  0
 19 20  1  0  0  0
 19 24  1  0  0  0
 20 21  2  0  0  0
 20106  1  0  0  0
 21 23  1  0  0  0
 22 28  1  0  0  0
 22 32  2  0  0  0
 26 27  1  0  0  0
 28107  1  0  0  0
 28108  1  0  0  0
 29109  1  0  0  0
 29110  1  0  0  0
 33 34  1  0  0  0
 33 66  1  0  0  0
 33 70  2  0  0  0
 34 36  1  0  0  0
 34 59  1  0  0  0
 34111  1  0  0  0
 35 44  2  0  0  0
 35 45  1  0  0  0
 35 68  1  0  0  0
 36 56  1  0  0  0
 36112  1  0  0  0
 37 39  1  0  0  0
 37 47  1  0  0  0
 37 66  1  0  0  0
 37113  1  0  0  0
 38 43  2  0  0  0
 38 46  1  0  0  0
 38 47  1  0  0  0
 39 64  1  0  0  0
 39 67  2  0  0  0
 40 52  1  0  0  0
 40 53  2  0  0  0
 40 58  1  0  0  0
 41114  1  0  0  0
 41115  1  0  0  0
 41116  1  0  0  0
 41 48  1  0  0  0
 42 43  1  0  0  0
 42 66  1  0  0  0
 42117  1  0  0  0
 42118  1  0  0  0
 43 44  1  0  0  0
 44119  1  0  0  0
 45 46  2  0  0  0
 45120  1  0  0  0
 46121  1  0  0  0
 47122  1  0  0  0
 47123  1  0  0  0
 48 56  1  0  0  0
 48 65  1  0  0  0
 48124  1  0  0  0
 49 50  1  0  0  0
 49 53  1  0  0  0
 49 64  1  0  0  0
 49125  1  0  0  0
 50 51  1  0  0  0
 50126  1  0  0  0
 50127  1  0  0  0
 51 52  1  0  0  0
 51128  1  0  0  0
 51129  1  0  0  0
 52130  1  0  0  0
 52131  1  0  0  0
 53 54  1  0  0  0
 54 55  2  0  0  0
 54132  1  0  0  0
 55 57  1  0  0  0
 55133  1  0  0  0
 56 69  2  0  0  0
 57 58  2  0  0  0
 57134  1  0  0  0
 58135  1  0  0  0
 59 60  1  0  0  0
 59 61  1  0  0  0
 59 62  1  0  0  0
 60136  1  0  0  0
 60137  1  0  0  0
 60138  1  0  0  0
 61139  1  0  0  0
 61140  1  0  0  0
 61141  1  0  0  0
 62142  1  0  0  0
 62143  1  0  0  0
 62144  1  0  0  0
 63 65  1  0  0  0
 63145  1  0  0  0
 63146  1  0  0  0
 63147  1  0  0  0
 64148  1  0  0  0
 65149  1  0  0  0
 68 85  1  0  0  0
 71 72  2  0  0  0
 71 73  1  0  0  0
 71150  1  0  0  0
 72 74  1  0  0  0
 72 77  1  0  0  0
 73 75  2  0  0  0
 73 80  1  0  0  0
 74 76  2  0  0  0
 74 81  1  0  0  0
 75 76  1  0  0  0
 75 89  1  0  0  0
 76 90  1  0  0  0
 77151  1  0  0  0
 77152  1  0  0  0
 77153  1  0  0  0
 78 84  1  0  0  0
 78154  1  0  0  0
 78155  1  0  0  0
 78156  1  0  0  0
 79157  1  0  0  0
 79158  1  0  0  0
 79159  1  0  0  0
 79 86  1  0  0  0
 80 83  1  0  0  0
 80160  1  0  0  0
 80161  1  0  0  0
 81 88  1  0  0  0
 81162  1  0  0  0
 81163  1  0  0  0
 82 85  1  0  0  0
 82 86  1  0  0  0
 82164  1  0  0  0
 82165  1  0  0  0
 83 87  1  0  0  0
 83166  1  0  0  0
 83167  1  0  0  0
 84 89  1  0  0  0
 84168  1  0  0  0
 84169  1  0  0  0
 85170  1  0  0  0
 85171  1  0  0  0
 86 88  1  0  0  0
 86172  1  0  0  0
 87173  1  0  0  0
 88174  1  0  0  0
 88175  1  0  0  0
M  CHG  1  88   1
M  ISO  4   1 100  68 101  85 101  87 100
M  END
> <chiral flag>
0

> <version>
0

> <s_m_source_file>
/data/baiqing/PycharmProjects/Reinvent-master-3.2/result/LINK_invent/BTK/process_docking_weight1_custom_sum_contain_oxygen_bond_distance_aromatic_linkinvent_7_9_3/rearranged_h_0019.sdf

> <i_m_source_file_index>
38

> <r_mmod_Potential_Energy-OPLS-2005>
11277.8681640625

> <r_mmod_Stretch_Energy-OPLS-2005>
5238.96826171875

> <r_mmod_Bend_Energy-OPLS-2005>
1164.40795898438

> <r_mmod_Torsional_Energy-OPLS-2005>
550.358581542969

> <r_mmod_Improper_Torsional_Energy-OPLS-2005>
42.0435066223145

> <r_mmod_Van_der_Waal_Energy-OPLS-2005>
1927.64611816406

> <r_mmod_Electrostatic_Energy-OPLS-2005>
-327.650634765625

> <r_mmod_Solvation_Energy-OPLS-2005>
-441.051910400391

> <b_mmod_Minimization_Converged-OPLS-2005>
0

> <r_mmod_RMS_Derivative-OPLS-2005>
2.10784363746643

$$$$
38
                    3D
 Structure written by MMmdl.
196205  0  0  1  0            999 V2000
  -30.8338  -14.3469   20.7366 C   0  0  0  0  0  0
  -30.4030  -12.2959   19.4237 C   0  0  0  0  0  0
  -29.4894  -12.5241   18.2051 C   0  0  0  0  0  0
  -28.0141  -12.3652   18.6040 C   0  0  0  0  0  0
  -27.6572  -13.2067   19.8511 C   0  0  2  0  0  0
  -28.6797  -13.0006   20.9821 C   0  0  0  0  0  0
  -25.2579  -13.8168   20.5604 C   0  0  0  0  0  0
  -24.1835  -13.0444   20.9150 C   0  0  0  0  0  0
  -24.6382  -11.6916   20.8693 C   0  0  0  0  0  0
  -23.9051  -10.4298   21.0390 C   0  0  0  0  0  0
  -24.3602   -9.4221   21.9174 C   0  0  0  0  0  0
  -23.6290   -8.2252   22.0747 C   0  0  0  0  0  0
  -22.4273   -8.0282   21.3542 C   0  0  0  0  0  0
  -21.9899   -9.0247   20.4641 C   0  0  0  0  0  0
  -22.7216  -10.2138   20.3052 C   0  0  0  0  0  0
  -21.6861   -6.0735   22.5276 C   0  0  0  0  0  0
  -21.4014   -6.5637   23.8205 C   0  0  0  0  0  0
  -21.3658   -5.6794   24.9169 C   0  0  0  0  0  0
  -21.6052   -4.3055   24.7226 C   0  0  0  0  0  0
  -21.8819   -3.8144   23.4344 C   0  0  0  0  0  0
  -21.9191   -4.6962   22.3398 C   0  0  0  0  0  0
  -22.7869  -13.5248   21.1845 C   0  0  0  0  0  0
  -22.1663   -4.2149   21.0977 F   0  0  0  0  0  0
  -21.5630   -3.4536   25.7735 F   0  0  0  0  0  0
  -30.0490  -13.2530   20.4896 N   0  0  0  0  0  0
  -26.2985  -12.9333   20.3187 N   0  0  0  0  0  0
  -25.9295  -11.6498   20.5645 N   0  0  0  0  0  0
  -22.0519  -12.8232   22.0414 N   0  0  0  0  0  0
  -25.4330  -15.1873   20.4047 N   0  0  0  0  0  0
  -31.7324  -14.6676   19.9502 O   0  0  0  0  0  0
  -21.6647   -6.8879   21.4236 O   0  0  0  0  0  0
  -22.3537  -14.5550   20.6710 O   0  0  0  0  0  0
  -24.6097  -31.8700   23.2144 C   0  0  0  0  0  0
  -25.8997  -32.4829   23.8430 C   0  0  1  0  0  0
  -27.2474  -27.4566   20.0741 C   0  0  0  0  0  0
  -25.5873  -33.8631   24.2363 N   0  0  0  0  0  0
  -23.3967  -30.4945   21.5527 C   0  0  2  0  0  0
  -24.8456  -28.9570   20.1205 C   0  0  0  0  0  0
  -22.7360  -29.4661   22.4988 C   0  0  0  0  0  0
  -18.0260  -28.1325   22.8488 C   0  0  0  0  0  0
  -24.1481  -36.7336   23.2630 C   0  0  0  0  0  0
  -25.9265  -30.8322   21.3702 C   0  0  0  0  0  0
  -26.0023  -29.4659   20.7215 C   0  0  0  0  0  0
  -27.2024  -28.7185   20.7088 C   0  0  0  0  0  0
  -26.0641  -26.9436   19.4967 C   0  0  0  0  0  0
  -24.8681  -27.6882   19.5139 C   0  0  0  0  0  0
  -23.6052  -29.8230   20.1687 C   0  0  0  0  0  0
  -25.4094  -36.3125   24.0337 C   0  0  1  0  0  0
  -20.5852  -28.3612   23.1308 C   0  0  2  0  0  0
  -20.6748  -26.9343   22.5402 C   0  0  0  0  0  0
  -19.5731  -26.6350   21.5181 C   0  0  0  0  0  0
  -18.1908  -26.7875   22.1600 C   0  0  0  0  0  0
  -19.1506  -28.8776   23.2903 C   0  0  0  0  0  0
  -18.9432  -30.1391   23.8900 C   0  0  0  0  0  0
  -17.6438  -30.6542   24.0541 C   0  0  0  0  0  0
  -25.9015  -34.9477   23.5143 C   0  0  0  0  0  0
  -16.5332  -29.9042   23.6314 C   0  0  0  0  0  0
  -16.7256  -28.6461   23.0336 C   0  0  0  0  0  0
  -26.4431  -31.6598   25.0745 C   0  0  0  0  0  0
  -25.3699  -31.3683   26.1504 C   0  0  0  0  0  0
  -27.0267  -30.3030   24.6124 C   0  0  0  0  0  0
  -27.6032  -32.4303   25.7477 C   0  0  0  0  0  0
  -27.5583  -37.1817   24.8447 C   0  0  0  0  0  0
  -21.4094  -29.3013   22.3721 N   0  0  0  0  0  0
  -26.4291  -37.3806   23.9401 N   0  0  0  0  0  0
  -24.6624  -31.0797   22.1043 N   0  0  0  0  0  0
  -23.4144  -28.8214   23.3029 O   0  0  0  0  0  0
  -28.4410  -26.7651   20.0335 O   0  0  0  0  0  0
  -26.5559  -34.8917   22.4699 O   0  0  0  0  0  0
  -23.5295  -32.1467   23.7528 O   0  0  0  0  0  0
  -27.7279  -20.0395   21.0839 C   0  0  0  0  0  0
  -28.0505  -21.4587   20.5709 C   0  0  0  0  0  0
  -33.3725  -17.5068   23.1386 C   0  0  0  0  0  0
  -32.7193  -16.2094   22.6670 C   0  0  0  0  0  0
  -29.9972  -20.0307   20.4601 C   0  0  0  0  0  0
  -31.1638  -18.6153   23.3989 C   0  0  0  0  0  0
  -29.0734  -19.4686   21.5549 C   0  0  2  0  0  0
  -29.5782  -21.5108   20.3551 C   0  0  1  0  0  0
  -32.4663  -18.2518   24.1375 C   0  0  2  0  0  0
  -30.3791  -17.4455   22.7466 C   0  0  2  0  0  0
  -31.3033  -16.3909   22.0467 C   0  0  2  0  0  0
  -27.8532  -17.3588   22.3754 C   0  0  0  0  0  0
  -31.4466  -21.8601   18.6292 C   0  0  0  0  0  0
  -34.3568  -19.0224   25.6717 C   0  0  0  0  0  0
  -32.1741  -20.1915   25.7832 C   0  0  0  0  0  0
  -33.6625  -20.5233   23.7909 C   0  0  0  0  0  0
  -30.2880  -14.3982   23.1674 C   0  0  0  0  0  0
  -28.6512  -24.5107   18.9984 C   0  0  0  0  0  0
  -30.0079  -23.8323   19.2812 C   0  0  0  0  0  0
  -28.7392  -26.0455   18.8319 C   0  0  0  0  0  0
  -29.1791  -17.9215   21.8255 C   0  0  1  0  0  0
  -30.0368  -22.2876   19.0860 C   0  0  2  0  0  0
  -33.1563  -19.4859   24.8203 C   0  0  0  0  0  0
  -30.6530  -15.0548   21.8920 N   0  0  0  0  0  0
  -31.4511  -12.3676   19.1266 H   0  0  0  0  0  0
  -30.2804  -11.2796   19.8007 H   0  0  0  0  0  0
  -29.7382  -11.8177   17.4121 H   0  0  0  0  0  0
  -29.6590  -13.5203   17.7948 H   0  0  0  0  0  0
  -27.8297  -11.3082   18.8002 H   0  0  0  0  0  0
  -27.3656  -12.6364   17.7702 H   0  0  0  0  0  0
  -27.7043  -14.2539   19.5513 H   0  0  0  0  0  0
  -28.6210  -11.9883   21.3839 H   0  0  0  0  0  0
  -28.3659  -13.6640   21.7786 H   0  0  0  0  0  0
  -25.2755   -9.5715   22.4736 H   0  0  0  0  0  0
  -24.0010   -7.4655   22.7469 H   0  0  0  0  0  0
  -21.0835   -8.8757   19.8952 H   0  0  0  0  0  0
  -22.3663  -10.9669   19.6156 H   0  0  0  0  0  0
  -21.2007   -7.6146   23.9710 H   0  0  0  0  0  0
  -21.1484   -6.0522   25.9075 H   0  0  0  0  0  0
  -22.0600   -2.7607   23.2840 H   0  0  0  0  0  0
  -22.4144  -11.9892   22.4785 H   0  0  0  0  0  0
  -21.1145  -13.1255   22.2640 H   0  0  0  0  0  0
  -24.6764  -15.8514   20.5282 H   0  0  0  0  0  0
  -26.2986  -15.6223   20.1111 H   0  0  0  0  0  0
  -26.7056  -32.5537   23.1194 H   0  0  0  0  0  0
  -25.0017  -33.9818   25.0490 H   0  0  0  0  0  0
  -22.6838  -31.3095   21.4141 H   0  0  0  0  0  0
  -23.3731  -35.9679   23.3301 H   0  0  0  0  0  0
  -24.3584  -36.8959   22.2049 H   0  0  0  0  0  0
  -23.7265  -37.6549   23.6648 H   0  0  0  0  0  0
  -26.0363  -31.5949   20.5989 H   0  0  0  0  0  0
  -26.8169  -30.8899   21.9853 H   0  0  0  0  0  0
  -28.1011  -29.1154   21.1617 H   0  0  0  0  0  0
  -26.0640  -25.9699   19.0292 H   0  0  0  0  0  0
  -23.9750  -27.2853   19.0587 H   0  0  0  0  0  0
  -23.7093  -30.5969   19.4072 H   0  0  0  0  0  0
  -22.7287  -29.2403   19.8784 H   0  0  0  0  0  0
  -25.1277  -36.2014   25.0836 H   0  0  0  0  0  0
  -20.9936  -28.3178   24.1434 H   0  0  0  0  0  0
  -20.5574  -26.2228   23.3595 H   0  0  0  0  0  0
  -21.6631  -26.7358   22.1230 H   0  0  0  0  0  0
  -19.6882  -25.6256   21.1218 H   0  0  0  0  0  0
  -19.6671  -27.3150   20.6694 H   0  0  0  0  0  0
  -17.4174  -26.6590   21.4006 H   0  0  0  0  0  0
  -18.0321  -25.9988   22.8964 H   0  0  0  0  0  0
  -19.7908  -30.7188   24.2269 H   0  0  0  0  0  0
  -17.5007  -31.6227   24.5120 H   0  0  0  0  0  0
  -15.5331  -30.2953   23.7633 H   0  0  0  0  0  0
  -15.8651  -28.0799   22.7046 H   0  0  0  0  0  0
  -24.5885  -30.7008   25.7850 H   0  0  0  0  0  0
  -24.8835  -32.2824   26.4928 H   0  0  0  0  0  0
  -25.8067  -30.8880   27.0277 H   0  0  0  0  0  0
  -26.2824  -29.6784   24.1159 H   0  0  0  0  0  0
  -27.4011  -29.7278   25.4604 H   0  0  0  0  0  0
  -27.8681  -30.4327   23.9308 H   0  0  0  0  0  0
  -27.2682  -33.3611   26.2055 H   0  0  0  0  0  0
  -28.3828  -32.6841   25.0289 H   0  0  0  0  0  0
  -28.0693  -31.8407   26.5384 H   0  0  0  0  0  0
  -28.2591  -38.0124   24.7525 H   0  0  0  0  0  0
  -28.1115  -36.2669   24.6254 H   0  0  0  0  0  0
  -27.2304  -37.1435   25.8849 H   0  0  0  0  0  0
  -20.9208  -29.8803   21.7035 H   0  0  0  0  0  0
  -26.0193  -38.2892   24.1411 H   0  0  0  0  0  0
  -27.3274  -19.4347   20.2687 H   0  0  0  0  0  0
  -26.9842  -20.0555   21.8819 H   0  0  0  0  0  0
  -27.7540  -22.2167   21.2982 H   0  0  0  0  0  0
  -27.4950  -21.6645   19.6558 H   0  0  0  0  0  0
  -33.5943  -18.1308   22.2738 H   0  0  0  0  0  0
  -34.3293  -17.2535   23.5927 H   0  0  0  0  0  0
  -32.7167  -15.5366   23.5214 H   0  0  0  0  0  0
  -33.3735  -15.7295   21.9374 H   0  0  0  0  0  0
  -29.8134  -19.5117   19.5181 H   0  0  0  0  0  0
  -31.0589  -19.9233   20.6727 H   0  0  0  0  0  0
  -31.4358  -19.3446   22.6476 H   0  0  0  0  0  0
  -30.4805  -19.1111   24.0872 H   0  0  0  0  0  0
  -29.2586  -20.0015   22.4863 H   0  0  0  0  0  0
  -30.0227  -22.0009   21.2234 H   0  0  0  0  0  0
  -32.2016  -17.5514   24.9324 H   0  0  0  0  0  0
  -29.9479  -16.9450   23.6129 H   0  0  0  0  0  0
  -31.4874  -16.8251   21.0614 H   0  0  0  0  0  0
  -27.0346  -17.4906   21.6683 H   0  0  0  0  0  0
  -27.5714  -17.8449   23.3092 H   0  0  0  0  0  0
  -27.9210  -16.2885   22.5652 H   0  0  0  0  0  0
  -31.4698  -20.8127   18.3271 H   0  0  0  0  0  0
  -32.1813  -21.9950   19.4228 H   0  0  0  0  0  0
  -31.7808  -22.4344   17.7632 H   0  0  0  0  0  0
  -34.0758  -18.2230   26.3574 H   0  0  0  0  0  0
  -34.7577  -19.8382   26.2740 H   0  0  0  0  0  0
  -35.1821  -18.6607   25.0603 H   0  0  0  0  0  0
  -31.6964  -19.4796   26.4579 H   0  0  0  0  0  0
  -31.3851  -20.7247   25.2520 H   0  0  0  0  0  0
  -32.6772  -20.9360   26.4008 H   0  0  0  0  0  0
  -34.3896  -20.0951   23.1016 H   0  0  0  0  0  0
  -34.1568  -21.3613   24.2824 H   0  0  0  0  0  0
  -32.8557  -20.9457   23.1924 H   0  0  0  0  0  0
  -30.8635  -14.7492   24.0196 H   0  0  0  0  0  0
  -30.4333  -13.3176   23.1331 H   0  0  0  0  0  0
  -29.2523  -14.5973   23.4329 H   0  0  0  0  0  0
  -27.9204  -24.2518   19.7642 H   0  0  0  0  0  0
  -28.2662  -24.1052   18.0634 H   0  0  0  0  0  0
  -30.7284  -24.2742   18.5918 H   0  0  0  0  0  0
  -30.3651  -24.1024   20.2764 H   0  0  0  0  0  0
  -28.1073  -26.3696   18.0032 H   0  0  0  0  0  0
  -29.7422  -26.3326   18.5184 H   0  0  0  0  0  0
  -29.2993  -17.4520   20.8483 H   0  0  0  0  0  0
  -29.3704  -22.0269   18.2622 H   0  0  0  0  0  0
  1 25  1  0  0  0
  1 30  2  0  0  0
  1 94  1  0  0  0
  2  3  1  0  0  0
  2 25  1  0  0  0
  2 95  1  0  0  0
  2 96  1  0  0  0
  3  4  1  0  0  0
  3 97  1  0  0  0
  3 98  1  0  0  0
  4  5  1  0  0  0
  4 99  1  0  0  0
  4100  1  0  0  0
  5  6  1  0  0  0
  5 26  1  0  0  0
  5101  1  0  0  0
  6 25  1  0  0  0
  6102  1  0  0  0
  6103  1  0  0  0
  7  8  2  0  0  0
  7 26  1  0  0  0
  7 29  1  0  0  0
  8  9  1  0  0  0
  8 22  1  0  0  0
  9 10  1  0  0  0
  9 27  2  0  0  0
 10 11  2  0  0  0
 10 15  1  0  0  0
 11 12  1  0  0  0
 11104  1  0  0  0
 12 13  2  0  0  0
 12105  1  0  0  0
 13 14  1  0  0  0
 13 31  1  0  0  0
 14 15  2  0  0  0
 14106  1  0  0  0
 15107  1  0  0  0
 16 17  2  0  0  0
 16 21  1  0  0  0
 16 31  1  0  0  0
 17 18  1  0  0  0
 17108  1  0  0  0
 18 19  2  0  0  0
 18109  1  0  0  0
 19 20  1  0  0  0
 19 24  1  0  0  0
 20 21  2  0  0  0
 20110  1  0  0  0
 21 23  1  0  0  0
 22 28  1  0  0  0
 22 32  2  0  0  0
 26 27  1  0  0  0
 28111  1  0  0  0
 28112  1  0  0  0
 29113  1  0  0  0
 29114  1  0  0  0
 33 34  1  0  0  0
 33 66  1  0  0  0
 33 70  2  0  0  0
 34 36  1  0  0  0
 34 59  1  0  0  0
 34115  1  0  0  0
 35 44  2  0  0  0
 35 45  1  0  0  0
 35 68  1  0  0  0
 36 56  1  0  0  0
 36116  1  0  0  0
 37 39  1  0  0  0
 37 47  1  0  0  0
 37 66  1  0  0  0
 37117  1  0  0  0
 38 43  2  0  0  0
 38 46  1  0  0  0
 38 47  1  0  0  0
 39 64  1  0  0  0
 39 67  2  0  0  0
 40 52  1  0  0  0
 40 53  2  0  0  0
 40 58  1  0  0  0
 41118  1  0  0  0
 41119  1  0  0  0
 41120  1  0  0  0
 41 48  1  0  0  0
 42 43  1  0  0  0
 42 66  1  0  0  0
 42121  1  0  0  0
 42122  1  0  0  0
 43 44  1  0  0  0
 44123  1  0  0  0
 45 46  2  0  0  0
 45124  1  0  0  0
 46125  1  0  0  0
 47126  1  0  0  0
 47127  1  0  0  0
 48 56  1  0  0  0
 48 65  1  0  0  0
 48128  1  0  0  0
 49 50  1  0  0  0
 49 53  1  0  0  0
 49 64  1  0  0  0
 49129  1  0  0  0
 50 51  1  0  0  0
 50130  1  0  0  0
 50131  1  0  0  0
 51 52  1  0  0  0
 51132  1  0  0  0
 51133  1  0  0  0
 52134  1  0  0  0
 52135  1  0  0  0
 53 54  1  0  0  0
 54 55  2  0  0  0
 54136  1  0  0  0
 55 57  1  0  0  0
 55137  1  0  0  0
 56 69  2  0  0  0
 57 58  2  0  0  0
 57138  1  0  0  0
 58139  1  0  0  0
 59 60  1  0  0  0
 59 61  1  0  0  0
 59 62  1  0  0  0
 60140  1  0  0  0
 60141  1  0  0  0
 60142  1  0  0  0
 61143  1  0  0  0
 61144  1  0  0  0
 61145  1  0  0  0
 62146  1  0  0  0
 62147  1  0  0  0
 62148  1  0  0  0
 63 65  1  0  0  0
 63149  1  0  0  0
 63150  1  0  0  0
 63151  1  0  0  0
 64152  1  0  0  0
 65153  1  0  0  0
 68 90  1  0  0  0
 71 72  1  0  0  0
 71154  1  0  0  0
 71155  1  0  0  0
 71 77  1  0  0  0
 72156  1  0  0  0
 72157  1  0  0  0
 72 78  1  0  0  0
 73 74  1  0  0  0
 73158  1  0  0  0
 73159  1  0  0  0
 73 79  1  0  0  0
 74 81  1  0  0  0
 74160  1  0  0  0
 74161  1  0  0  0
 75 77  1  0  0  0
 75 78  1  0  0  0
 75162  1  0  0  0
 75163  1  0  0  0
 76 79  1  0  0  0
 76164  1  0  0  0
 76165  1  0  0  0
 76 80  1  0  0  0
 77 91  1  0  0  0
 77166  1  0  0  0
 78 92  1  0  0  0
 78167  1  0  0  0
 79 93  1  0  0  0
 79168  1  0  0  0
 80 81  1  0  0  0
 80 91  1  0  0  0
 80169  1  0  0  0
 81 94  1  0  0  0
 81170  1  0  0  0
 82171  1  0  0  0
 82172  1  0  0  0
 82173  1  0  0  0
 82 91  1  0  0  0
 83174  1  0  0  0
 83175  1  0  0  0
 83176  1  0  0  0
 83 92  1  0  0  0
 84177  1  0  0  0
 84178  1  0  0  0
 84179  1  0  0  0
 84 93  1  0  0  0
 85 93  1  0  0  0
 85180  1  0  0  0
 85181  1  0  0  0
 85182  1  0  0  0
 86 93  1  0  0  0
 86183  1  0  0  0
 86184  1  0  0  0
 86185  1  0  0  0
 87 94  1  0  0  0
 87186  1  0  0  0
 87187  1  0  0  0
 87188  1  0  0  0
 88 89  1  0  0  0
 88 90  1  0  0  0
 88189  1  0  0  0
 88190  1  0  0  0
 89 92  1  0  0  0
 89191  1  0  0  0
 89192  1  0  0  0
 90193  1  0  0  0
 90194  1  0  0  0
 91195  1  0  0  0
 92196  1  0  0  0
M  ISO  4   1 100  68 101  90 101  94 100
M  END
> <chiral flag>
0

> <version>
0

> <s_m_source_file>
/data/baiqing/PycharmProjects/Reinvent-master-3.2/result/LINK_invent/BTK/process_docking_weight1_custom_sum_contain_oxygen_bond_distance_aromatic_linkinvent_7_9_3/rearranged_h_0019.sdf

> <i_m_source_file_index>
39

> <r_mmod_Potential_Energy-OPLS-2005>
339.526550292969

> <r_mmod_Stretch_Energy-OPLS-2005>
53.6443405151367

> <r_mmod_Bend_Energy-OPLS-2005>
175.281143188477

> <r_mmod_Torsional_Energy-OPLS-2005>
420.389099121094

> <r_mmod_Improper_Torsional_Energy-OPLS-2005>
3.09748673439026

> <r_mmod_Van_der_Waal_Energy-OPLS-2005>
167.193481445312

> <r_mmod_Electrostatic_Energy-OPLS-2005>
-335.353057861328

> <r_mmod_Solvation_Energy-OPLS-2005>
-155.372772216797

> <b_mmod_Minimization_Converged-OPLS-2005>
0

> <r_mmod_RMS_Derivative-OPLS-2005>
2.39043855667114

$$$$
39
                    3D
 Structure written by MMmdl.
153161  0  0  1  0            999 V2000
  -30.2934  -15.5989   20.3341 C   0  0  0  0  0  0
  -30.4314  -13.0493   19.5493 C   0  0  0  0  0  0
  -29.5541  -12.6497   18.3277 C   0  0  0  0  0  0
  -28.1241  -12.2979   18.7656 C   0  0  0  0  0  0
  -27.5999  -13.3023   19.8169 C   0  0  2  0  0  0
  -28.6147  -13.6091   20.9429 C   0  0  0  0  0  0
  -25.2334  -13.8274   20.5778 C   0  0  0  0  0  0
  -24.1718  -13.0431   20.9280 C   0  0  0  0  0  0
  -24.6409  -11.6939   20.8757 C   0  0  0  0  0  0
  -23.9109  -10.4289   21.0393 C   0  0  0  0  0  0
  -24.3648   -9.4202   21.9175 C   0  0  0  0  0  0
  -23.6307   -8.2244   22.0754 C   0  0  0  0  0  0
  -22.4289   -8.0284   21.3547 C   0  0  0  0  0  0
  -21.9934   -9.0257   20.4644 C   0  0  0  0  0  0
  -22.7277  -10.2127   20.3042 C   0  0  0  0  0  0
  -21.6857   -6.0734   22.5275 C   0  0  0  0  0  0
  -21.4019   -6.5637   23.8208 C   0  0  0  0  0  0
  -21.3659   -5.6791   24.9171 C   0  0  0  0  0  0
  -21.6043   -4.3052   24.7222 C   0  0  0  0  0  0
  -21.8820   -3.8145   23.4345 C   0  0  0  0  0  0
  -21.9194   -4.6962   22.3399 C   0  0  0  0  0  0
  -22.7730  -13.5165   21.1914 C   0  0  0  0  0  0
  -22.1662   -4.2146   21.0978 F   0  0  0  0  0  0
  -21.5628   -3.4536   25.7736 F   0  0  0  0  0  0
  -29.8007  -14.2233   20.3033 N   0  0  0  0  0  0
  -26.2782  -12.9594   20.3224 N   0  0  0  0  0  0
  -25.9355  -11.6671   20.5694 N   0  0  0  0  0  0
  -22.0393  -12.8142   22.0470 N   0  0  0  0  0  0
  -25.3928  -15.2015   20.4214 N   0  0  0  0  0  0
  -31.5214  -15.5759   20.1230 O   0  0  0  0  0  0
  -21.6646   -6.8883   21.4240 O   0  0  0  0  0  0
  -22.3406  -14.5461   20.6745 O   0  0  0  0  0  0
  -24.6826  -31.7999   23.1513 C   0  0  0  0  0  0
  -25.9414  -32.4461   23.8053 C   0  0  1  0  0  0
  -27.2248  -26.7077   20.2146 C   0  0  0  0  0  0
  -25.6003  -33.8285   24.1940 N   0  0  0  0  0  0
  -23.5088  -30.4021   21.5044 C   0  0  2  0  0  0
  -24.9673  -28.7452   20.1149 C   0  0  0  0  0  0
  -22.7766  -29.4315   22.4706 C   0  0  0  0  0  0
  -18.0346  -28.1420   22.8452 C   0  0  0  0  0  0
  -24.1501  -36.7152   23.2654 C   0  0  0  0  0  0
  -26.0891  -30.5350   21.4156 C   0  0  0  0  0  0
  -26.1556  -29.1004   20.7648 C   0  0  0  0  0  0
  -27.2688  -28.1084   20.7844 C   0  0  0  0  0  0
  -26.0060  -26.5627   19.5042 C   0  0  0  0  0  0
  -24.9311  -27.5017   19.4613 C   0  0  0  0  0  0
  -23.7631  -29.6992   20.1393 C   0  0  0  0  0  0
  -25.4146  -36.2882   24.0283 C   0  0  1  0  0  0
  -20.5980  -28.3777   23.1144 C   0  0  2  0  0  0
  -20.6812  -26.9439   22.5398 C   0  0  0  0  0  0
  -19.5787  -26.6370   21.5214 C   0  0  0  0  0  0
  -18.1971  -26.7948   22.1616 C   0  0  0  0  0  0
  -19.1613  -28.8921   23.2780 C   0  0  0  0  0  0
  -18.9518  -30.1507   23.8823 C   0  0  0  0  0  0
  -17.6509  -30.6600   24.0550 C   0  0  0  0  0  0
  -25.9130  -34.9278   23.4947 C   0  0  0  0  0  0
  -16.5398  -29.9079   23.6352 C   0  0  0  0  0  0
  -16.7328  -28.6505   23.0361 C   0  0  0  0  0  0
  -26.4597  -31.6493   25.0670 C   0  0  0  0  0  0
  -25.3657  -31.3803   26.1276 C   0  0  0  0  0  0
  -27.0536  -30.2836   24.6560 C   0  0  0  0  0  0
  -27.6053  -32.4348   25.7478 C   0  0  0  0  0  0
  -27.5564  -37.1725   24.8464 C   0  0  0  0  0  0
  -21.4414  -29.3029   22.3463 N   0  0  0  0  0  0
  -26.4267  -37.3646   23.9413 N   0  0  0  0  0  0
  -24.7834  -30.9449   22.0765 N   0  0  0  0  0  0
  -23.4209  -28.7918   23.3051 O   0  0  0  0  0  0
  -28.1739  -25.4809   20.3051 O   0  0  0  0  0  0
  -26.5763  -34.8859   22.4560 O   0  0  0  0  0  0
  -23.5849  -32.1075   23.6470 O   0  0  0  0  0  0
  -28.5183  -21.0719   21.3948 C   0  0  0  0  0  0
  -28.6237  -22.0546   20.2746 C   0  0  0  0  0  0
  -28.8402  -19.5632   21.4517 C   0  0  0  0  0  0
  -29.1623  -21.1137   19.2409 C   0  0  0  0  0  0
  -29.3718  -18.6286   20.4105 C   0  0  0  0  0  0
  -29.4928  -19.6116   19.2993 C   0  0  0  0  0  0
  -27.9526  -21.6870   22.6696 C   0  0  0  0  0  0
  -28.5517  -18.8731   22.7816 C   0  0  0  0  0  0
  -29.3583  -21.7486   17.8750 C   0  0  0  0  0  0
  -27.8805  -23.7694   20.0840 C   0  0  0  0  0  0
  -29.4673  -16.9063   20.4610 N   0  0  0  0  0  0
  -29.9110  -19.0615   18.1331 F   0  0  0  0  0  0
  -31.4276  -13.3106   19.1910 H   0  0  0  0  0  0
  -30.5846  -12.1957   20.2117 H   0  0  0  0  0  0
  -30.0027  -11.8117   17.7925 H   0  0  0  0  0  0
  -29.5219  -13.4828   17.6239 H   0  0  0  0  0  0
  -28.1456  -11.2975   19.2000 H   0  0  0  0  0  0
  -27.4560  -12.2477   17.9050 H   0  0  0  0  0  0
  -27.4719  -14.2309   19.2586 H   0  0  0  0  0  0
  -28.8611  -12.7154   21.5182 H   0  0  0  0  0  0
  -28.1863  -14.3202   21.6510 H   0  0  0  0  0  0
  -25.2791   -9.5672   22.4758 H   0  0  0  0  0  0
  -24.0003   -7.4638   22.7484 H   0  0  0  0  0  0
  -21.0862   -8.8782   19.8953 H   0  0  0  0  0  0
  -22.3737  -10.9664   19.6151 H   0  0  0  0  0  0
  -21.2013   -7.6146   23.9710 H   0  0  0  0  0  0
  -21.1483   -6.0522   25.9073 H   0  0  0  0  0  0
  -22.0598   -2.7606   23.2845 H   0  0  0  0  0  0
  -22.4040  -11.9820   22.4867 H   0  0  0  0  0  0
  -21.0997  -13.1136   22.2658 H   0  0  0  0  0  0
  -24.6164  -15.8451   20.5298 H   0  0  0  0  0  0
  -26.2200  -15.6418   20.0418 H   0  0  0  0  0  0
  -26.7492  -32.4933   23.0762 H   0  0  0  0  0  0
  -25.0076  -33.9321   25.0041 H   0  0  0  0  0  0
  -22.8342  -31.2396   21.3137 H   0  0  0  0  0  0
  -23.3778  -35.9465   23.3249 H   0  0  0  0  0  0
  -24.3582  -36.8872   22.2083 H   0  0  0  0  0  0
  -23.7247  -37.6308   23.6771 H   0  0  0  0  0  0
  -26.2909  -31.2607   20.6269 H   0  0  0  0  0  0
  -26.9411  -30.6032   22.0794 H   0  0  0  0  0  0
  -28.1595  -28.3833   21.3319 H   0  0  0  0  0  0
  -25.8382  -25.6206   19.0025 H   0  0  0  0  0  0
  -24.0342  -27.2211   18.9263 H   0  0  0  0  0  0
  -23.9375  -30.4589   19.3765 H   0  0  0  0  0  0
  -22.8687  -29.1644   19.8157 H   0  0  0  0  0  0
  -25.1354  -36.1637   25.0773 H   0  0  0  0  0  0
  -21.0068  -28.3401   24.1268 H   0  0  0  0  0  0
  -20.5684  -26.2403   23.3658 H   0  0  0  0  0  0
  -21.6673  -26.7385   22.1212 H   0  0  0  0  0  0
  -19.6945  -25.6263   21.1288 H   0  0  0  0  0  0
  -19.6730  -27.3145   20.6715 H   0  0  0  0  0  0
  -17.4241  -26.6701   21.4019 H   0  0  0  0  0  0
  -18.0354  -26.0107   22.9027 H   0  0  0  0  0  0
  -19.7996  -30.7344   24.2159 H   0  0  0  0  0  0
  -17.5058  -31.6275   24.5164 H   0  0  0  0  0  0
  -15.5395  -30.2955   23.7716 H   0  0  0  0  0  0
  -15.8732  -28.0797   22.7112 H   0  0  0  0  0  0
  -24.5883  -30.7116   25.7557 H   0  0  0  0  0  0
  -24.8803  -32.3022   26.4492 H   0  0  0  0  0  0
  -25.7824  -30.9093   27.0189 H   0  0  0  0  0  0
  -26.3256  -29.6444   24.1556 H   0  0  0  0  0  0
  -27.3984  -29.7283   25.5293 H   0  0  0  0  0  0
  -27.9221  -30.3974   24.0071 H   0  0  0  0  0  0
  -27.2616  -33.3739   26.1829 H   0  0  0  0  0  0
  -28.3972  -32.6762   25.0374 H   0  0  0  0  0  0
  -28.0603  -31.8625   26.5571 H   0  0  0  0  0  0
  -28.2522  -38.0070   24.7526 H   0  0  0  0  0  0
  -28.1115  -36.2593   24.6267 H   0  0  0  0  0  0
  -27.2288  -37.1326   25.8867 H   0  0  0  0  0  0
  -20.9717  -29.8685   21.6531 H   0  0  0  0  0  0
  -26.0088  -38.2687   24.1439 H   0  0  0  0  0  0
  -27.8314  -22.7667   22.5919 H   0  0  0  0  0  0
  -28.6182  -21.5170   23.5153 H   0  0  0  0  0  0
  -26.9744  -21.2659   22.9032 H   0  0  0  0  0  0
  -27.5029  -18.9779   23.0578 H   0  0  0  0  0  0
  -29.1649  -19.2969   23.5766 H   0  0  0  0  0  0
  -28.7661  -17.8062   22.7629 H   0  0  0  0  0  0
  -29.5474  -22.8191   17.9559 H   0  0  0  0  0  0
  -28.4706  -21.6010   17.2599 H   0  0  0  0  0  0
  -30.2104  -21.3138   17.3534 H   0  0  0  0  0  0
  -26.9357  -23.6507   20.6141 H   0  0  0  0  0  0
  -27.5715  -23.7483   19.0397 H   0  0  0  0  0  0
  -28.5471  -16.5711   20.7022 H   0  0  0  0  0  0
  1 25  1  0  0  0
  1 30  2  0  0  0
  1 81  1  0  0  0
  2  3  1  0  0  0
  2 25  1  0  0  0
  2 83  1  0  0  0
  2 84  1  0  0  0
  3  4  1  0  0  0
  3 85  1  0  0  0
  3 86  1  0  0  0
  4  5  1  0  0  0
  4 87  1  0  0  0
  4 88  1  0  0  0
  5  6  1  0  0  0
  5 26  1  0  0  0
  5 89  1  0  0  0
  6 25  1  0  0  0
  6 90  1  0  0  0
  6 91  1  0  0  0
  7  8  2  0  0  0
  7 26  1  0  0  0
  7 29  1  0  0  0
  8  9  1  0  0  0
  8 22  1  0  0  0
  9 10  1  0  0  0
  9 27  2  0  0  0
 10 11  2  0  0  0
 10 15  1  0  0  0
 11 12  1  0  0  0
 11 92  1  0  0  0
 12 13  2  0  0  0
 12 93  1  0  0  0
 13 14  1  0  0  0
 13 31  1  0  0  0
 14 15  2  0  0  0
 14 94  1  0  0  0
 15 95  1  0  0  0
 16 17  2  0  0  0
 16 21  1  0  0  0
 16 31  1  0  0  0
 17 18  1  0  0  0
 17 96  1  0  0  0
 18 19  2  0  0  0
 18 97  1  0  0  0
 19 20  1  0  0  0
 19 24  1  0  0  0
 20 21  2  0  0  0
 20 98  1  0  0  0
 21 23  1  0  0  0
 22 28  1  0  0  0
 22 32  2  0  0  0
 26 27  1  0  0  0
 28 99  1  0  0  0
 28100  1  0  0  0
 29101  1  0  0  0
 29102  1  0  0  0
 33 34  1  0  0  0
 33 66  1  0  0  0
 33 70  2  0  0  0
 34 36  1  0  0  0
 34 59  1  0  0  0
 34103  1  0  0  0
 35 44  2  0  0  0
 35 45  1  0  0  0
 35 68  1  0  0  0
 36 56  1  0  0  0
 36104  1  0  0  0
 37 39  1  0  0  0
 37 47  1  0  0  0
 37 66  1  0  0  0
 37105  1  0  0  0
 38 43  2  0  0  0
 38 46  1  0  0  0
 38 47  1  0  0  0
 39 64  1  0  0  0
 39 67  2  0  0  0
 40 52  1  0  0  0
 40 53  2  0  0  0
 40 58  1  0  0  0
 41106  1  0  0  0
 41107  1  0  0  0
 41108  1  0  0  0
 41 48  1  0  0  0
 42 43  1  0  0  0
 42 66  1  0  0  0
 42109  1  0  0  0
 42110  1  0  0  0
 43 44  1  0  0  0
 44111  1  0  0  0
 45 46  2  0  0  0
 45112  1  0  0  0
 46113  1  0  0  0
 47114  1  0  0  0
 47115  1  0  0  0
 48 56  1  0  0  0
 48 65  1  0  0  0
 48116  1  0  0  0
 49 50  1  0  0  0
 49 53  1  0  0  0
 49 64  1  0  0  0
 49117  1  0  0  0
 50 51  1  0  0  0
 50118  1  0  0  0
 50119  1  0  0  0
 51 52  1  0  0  0
 51120  1  0  0  0
 51121  1  0  0  0
 52122  1  0  0  0
 52123  1  0  0  0
 53 54  1  0  0  0
 54 55  2  0  0  0
 54124  1  0  0  0
 55 57  1  0  0  0
 55125  1  0  0  0
 56 69  2  0  0  0
 57 58  2  0  0  0
 57126  1  0  0  0
 58127  1  0  0  0
 59 60  1  0  0  0
 59 61  1  0  0  0
 59 62  1  0  0  0
 60128  1  0  0  0
 60129  1  0  0  0
 60130  1  0  0  0
 61131  1  0  0  0
 61132  1  0  0  0
 61133  1  0  0  0
 62134  1  0  0  0
 62135  1  0  0  0
 62136  1  0  0  0
 63 65  1  0  0  0
 63137  1  0  0  0
 63138  1  0  0  0
 63139  1  0  0  0
 64140  1  0  0  0
 65141  1  0  0  0
 68 80  1  0  0  0
 71 72  2  0  0  0
 71 73  1  0  0  0
 71 77  1  0  0  0
 72 74  1  0  0  0
 72 80  1  0  0  0
 73 75  2  0  0  0
 73 78  1  0  0  0
 74 76  2  0  0  0
 74 79  1  0  0  0
 75 76  1  0  0  0
 75 81  1  0  0  0
 76 82  1  0  0  0
 77142  1  0  0  0
 77143  1  0  0  0
 77144  1  0  0  0
 78145  1  0  0  0
 78146  1  0  0  0
 78147  1  0  0  0
 79148  1  0  0  0
 79149  1  0  0  0
 79150  1  0  0  0
 80151  1  0  0  0
 80152  1  0  0  0
 81153  1  0  0  0
M  ISO  4   1 100  68 101  80 101  81 100
M  END
> <chiral flag>
0

> <version>
0

> <s_m_source_file>
/data/baiqing/PycharmProjects/Reinvent-master-3.2/result/LINK_invent/BTK/process_docking_weight1_custom_sum_contain_oxygen_bond_distance_aromatic_linkinvent_7_9_3/rearranged_h_0019.sdf

> <i_m_source_file_index>
40

> <r_mmod_Potential_Energy-OPLS-2005>
2256.71850585938

> <r_mmod_Stretch_Energy-OPLS-2005>
934.196411132812

> <r_mmod_Bend_Energy-OPLS-2005>
642.4560546875

> <r_mmod_Torsional_Energy-OPLS-2005>
254.718215942383

> <r_mmod_Improper_Torsional_Energy-OPLS-2005>
8.87304878234863

> <r_mmod_Van_der_Waal_Energy-OPLS-2005>
138.298904418945

> <r_mmod_Electrostatic_Energy-OPLS-2005>
-384.613464355469

> <r_mmod_Solvation_Energy-OPLS-2005>
-210.12336730957

> <b_mmod_Minimization_Converged-OPLS-2005>
0

> <r_mmod_RMS_Derivative-OPLS-2005>
0.805043697357178

$$$$
40
                    3D
 Structure written by MMmdl.
158166  0  0  1  0            999 V2000
  -30.3098  -15.7281   20.3349 C   0  0  0  0  0  0
  -30.4124  -13.1443   19.5846 C   0  0  0  0  0  0
  -29.5545  -12.6764   18.3691 C   0  0  0  0  0  0
  -28.1406  -12.2929   18.8146 C   0  0  0  0  0  0
  -27.5892  -13.3261   19.8162 C   0  0  2  0  0  0
  -28.5794  -13.7249   20.9400 C   0  0  0  0  0  0
  -25.2264  -13.8348   20.5799 C   0  0  0  0  0  0
  -24.1674  -13.0492   20.9280 C   0  0  0  0  0  0
  -24.6398  -11.6996   20.8767 C   0  0  0  0  0  0
  -23.9123  -10.4333   21.0394 C   0  0  0  0  0  0
  -24.3656   -9.4247   21.9186 C   0  0  0  0  0  0
  -23.6305   -8.2294   22.0770 C   0  0  0  0  0  0
  -22.4288   -8.0326   21.3553 C   0  0  0  0  0  0
  -21.9932   -9.0305   20.4644 C   0  0  0  0  0  0
  -22.7289  -10.2168   20.3044 C   0  0  0  0  0  0
  -21.6871   -6.0748   22.5262 C   0  0  0  0  0  0
  -21.4024   -6.5640   23.8198 C   0  0  0  0  0  0
  -21.3658   -5.6798   24.9160 C   0  0  0  0  0  0
  -21.6056   -4.3055   24.7208 C   0  0  0  0  0  0
  -21.8834   -3.8145   23.4323 C   0  0  0  0  0  0
  -21.9192   -4.6971   22.3376 C   0  0  0  0  0  0
  -22.7674  -13.5171   21.1930 C   0  0  0  0  0  0
  -22.1650   -4.2146   21.0955 F   0  0  0  0  0  0
  -21.5636   -3.4539   25.7724 F   0  0  0  0  0  0
  -29.7768  -14.3490   20.3218 N   0  0  0  0  0  0
  -26.2726  -12.9719   20.3235 N   0  0  0  0  0  0
  -25.9356  -11.6766   20.5717 N   0  0  0  0  0  0
  -22.0369  -12.8149   22.0479 N   0  0  0  0  0  0
  -25.3943  -15.2117   20.4301 N   0  0  0  0  0  0
  -31.5217  -15.6079   20.0445 O   0  0  0  0  0  0
  -21.6662   -6.8913   21.4237 O   0  0  0  0  0  0
  -22.3338  -14.5482   20.6793 O   0  0  0  0  0  0
  -24.6913  -31.7998   23.1481 C   0  0  0  0  0  0
  -25.9467  -32.4474   23.8061 C   0  0  1  0  0  0
  -27.2225  -26.6720   20.2289 C   0  0  0  0  0  0
  -25.6018  -33.8299   24.1975 N   0  0  0  0  0  0
  -23.5183  -30.4043   21.5015 C   0  0  2  0  0  0
  -24.9684  -28.7277   20.1236 C   0  0  0  0  0  0
  -22.7805  -29.4332   22.4625 C   0  0  0  0  0  0
  -18.0344  -28.1423   22.8411 C   0  0  0  0  0  0
  -24.1459  -36.7193   23.2662 C   0  0  0  0  0  0
  -26.0973  -30.5286   21.4038 C   0  0  0  0  0  0
  -26.1610  -29.0817   20.7679 C   0  0  0  0  0  0
  -27.2770  -28.0859   20.7800 C   0  0  0  0  0  0
  -25.9970  -26.5292   19.5307 C   0  0  0  0  0  0
  -24.9251  -27.4747   19.4826 C   0  0  0  0  0  0
  -23.7784  -29.7046   20.1357 C   0  0  0  0  0  0
  -25.4103  -36.2910   24.0307 C   0  0  1  0  0  0
  -20.5995  -28.3792   23.1059 C   0  0  2  0  0  0
  -20.6797  -26.9432   22.5352 C   0  0  0  0  0  0
  -19.5776  -26.6361   21.5166 C   0  0  0  0  0  0
  -18.1963  -26.7946   22.1579 C   0  0  0  0  0  0
  -19.1622  -28.8917   23.2730 C   0  0  0  0  0  0
  -18.9546  -30.1481   23.8803 C   0  0  0  0  0  0
  -17.6539  -30.6579   24.0549 C   0  0  0  0  0  0
  -25.9106  -34.9298   23.4968 C   0  0  0  0  0  0
  -16.5421  -29.9112   23.6306 C   0  0  0  0  0  0
  -16.7332  -28.6533   23.0310 C   0  0  0  0  0  0
  -26.4606  -31.6503   25.0698 C   0  0  0  0  0  0
  -25.3664  -31.3834   26.1315 C   0  0  0  0  0  0
  -27.0503  -30.2833   24.6531 C   0  0  0  0  0  0
  -27.6042  -32.4352   25.7525 C   0  0  0  0  0  0
  -27.5545  -37.1721   24.8484 C   0  0  0  0  0  0
  -21.4443  -29.3107   22.3423 N   0  0  0  0  0  0
  -26.4221  -37.3667   23.9458 N   0  0  0  0  0  0
  -24.7935  -30.9435   22.0727 N   0  0  0  0  0  0
  -23.4241  -28.7872   23.2929 O   0  0  0  0  0  0
  -28.2060  -25.4577   20.2282 O   0  0  0  0  0  0
  -26.5735  -34.8881   22.4578 O   0  0  0  0  0  0
  -23.5923  -32.1077   23.6420 O   0  0  0  0  0  0
  -29.6428  -19.6315   21.6618 C   0  0  0  0  0  0
  -29.1195  -20.1177   20.4092 C   0  0  0  0  0  0
  -30.0410  -18.2673   21.7725 C   0  0  0  0  0  0
  -29.1715  -18.7034   19.8379 C   0  0  0  0  0  0
  -28.6673  -18.4037   18.4616 C   0  0  0  0  0  0
  -30.8223  -18.8077   24.1490 C   0  0  0  0  0  0
  -32.2164  -17.3848   22.7269 C   0  0  0  0  0  0
  -29.9784  -16.5598   23.6441 C   0  0  0  0  0  0
  -28.7869  -21.9532   19.9221 C   0  0  0  0  0  0
  -28.1025  -23.7001   20.5072 C   0  0  0  0  0  0
  -30.7451  -17.7407   23.0226 C   0  0  0  0  0  0
  -29.7549  -17.4521   20.6135 N   0  0  0  0  0  0
  -31.4022  -13.3938   19.2029 H   0  0  0  0  0  0
  -30.5836  -12.3188   20.2767 H   0  0  0  0  0  0
  -30.0331  -11.8352   17.8665 H   0  0  0  0  0  0
  -29.5018  -13.4803   17.6348 H   0  0  0  0  0  0
  -28.2003  -11.3177   19.3039 H   0  0  0  0  0  0
  -27.4756  -12.1778   17.9575 H   0  0  0  0  0  0
  -27.4402  -14.2256   19.2157 H   0  0  0  0  0  0
  -28.8384  -12.8831   21.5829 H   0  0  0  0  0  0
  -28.1112  -14.4726   21.5828 H   0  0  0  0  0  0
  -25.2816   -9.5713   22.4758 H   0  0  0  0  0  0
  -23.9994   -7.4695   22.7508 H   0  0  0  0  0  0
  -21.0863   -8.8862   19.8937 H   0  0  0  0  0  0
  -22.3780  -10.9719   19.6138 H   0  0  0  0  0  0
  -21.2021   -7.6148   23.9707 H   0  0  0  0  0  0
  -21.1464   -6.0510   25.9069 H   0  0  0  0  0  0
  -22.0605   -2.7601   23.2826 H   0  0  0  0  0  0
  -22.3978  -11.9737   22.4722 H   0  0  0  0  0  0
  -21.1032  -13.1195   22.2838 H   0  0  0  0  0  0
  -24.6424  -15.8775   20.5772 H   0  0  0  0  0  0
  -26.2622  -15.6522   20.1554 H   0  0  0  0  0  0
  -26.7608  -32.4925   23.0821 H   0  0  0  0  0  0
  -25.0124  -33.9320   25.0099 H   0  0  0  0  0  0
  -22.8516  -31.2477   21.3132 H   0  0  0  0  0  0
  -23.3708  -35.9530   23.3239 H   0  0  0  0  0  0
  -24.3561  -36.8936   22.2103 H   0  0  0  0  0  0
  -23.7211  -37.6344   23.6780 H   0  0  0  0  0  0
  -26.2832  -31.2426   20.5981 H   0  0  0  0  0  0
  -26.9564  -30.6145   22.0558 H   0  0  0  0  0  0
  -28.1841  -28.3720   21.2918 H   0  0  0  0  0  0
  -25.8404  -25.5839   19.0290 H   0  0  0  0  0  0
  -24.0249  -27.1918   18.9558 H   0  0  0  0  0  0
  -24.0011  -30.4791   19.4014 H   0  0  0  0  0  0
  -22.8761  -29.2131   19.7691 H   0  0  0  0  0  0
  -25.1257  -36.1714   25.0794 H   0  0  0  0  0  0
  -21.0068  -28.3451   24.1192 H   0  0  0  0  0  0
  -20.5603  -26.2451   23.3650 H   0  0  0  0  0  0
  -21.6667  -26.7333   22.1208 H   0  0  0  0  0  0
  -19.6952  -25.6254   21.1259 H   0  0  0  0  0  0
  -19.6718  -27.3086   20.6630 H   0  0  0  0  0  0
  -17.4214  -26.6633   21.4002 H   0  0  0  0  0  0
  -18.0391  -26.0123   22.9016 H   0  0  0  0  0  0
  -19.8061  -30.7265   24.2170 H   0  0  0  0  0  0
  -17.5144  -31.6256   24.5168 H   0  0  0  0  0  0
  -15.5431  -30.3000   23.7684 H   0  0  0  0  0  0
  -15.8738  -28.0847   22.7047 H   0  0  0  0  0  0
  -24.5952  -30.7051   25.7676 H   0  0  0  0  0  0
  -24.8731  -32.3029   26.4469 H   0  0  0  0  0  0
  -25.7895  -30.9282   27.0294 H   0  0  0  0  0  0
  -26.3198  -29.6450   24.1536 H   0  0  0  0  0  0
  -27.3968  -29.7277   25.5262 H   0  0  0  0  0  0
  -27.9167  -30.3955   24.0011 H   0  0  0  0  0  0
  -27.2613  -33.3781   26.1799 H   0  0  0  0  0  0
  -28.4005  -32.6675   25.0454 H   0  0  0  0  0  0
  -28.0486  -31.8661   26.5698 H   0  0  0  0  0  0
  -28.2477  -38.0079   24.7514 H   0  0  0  0  0  0
  -28.1086  -36.2584   24.6259 H   0  0  0  0  0  0
  -27.2292  -37.1321   25.8892 H   0  0  0  0  0  0
  -20.9734  -29.9002   21.6686 H   0  0  0  0  0  0
  -26.0053  -38.2718   24.1497 H   0  0  0  0  0  0
  -29.7850  -20.3356   22.4674 H   0  0  0  0  0  0
  -28.1519  -19.2633   18.0305 H   0  0  0  0  0  0
  -27.9425  -17.5893   18.4992 H   0  0  0  0  0  0
  -29.4713  -18.1142   17.7833 H   0  0  0  0  0  0
  -29.8354  -19.1854   24.4231 H   0  0  0  0  0  0
  -31.4503  -19.6548   23.8687 H   0  0  0  0  0  0
  -31.2546  -18.3969   25.0623 H   0  0  0  0  0  0
  -32.3303  -16.4707   22.1572 H   0  0  0  0  0  0
  -32.7065  -18.1867   22.1693 H   0  0  0  0  0  0
  -32.7918  -17.2445   23.6445 H   0  0  0  0  0  0
  -28.9366  -16.8310   23.8308 H   0  0  0  0  0  0
  -30.3998  -16.2700   24.6051 H   0  0  0  0  0  0
  -29.9841  -15.6726   23.0214 H   0  0  0  0  0  0
  -28.2435  -21.8140   18.9869 H   0  0  0  0  0  0
  -29.7899  -22.2239   19.5871 H   0  0  0  0  0  0
  -28.3843  -23.6821   21.5598 H   0  0  0  0  0  0
  -27.0234  -23.5574   20.5502 H   0  0  0  0  0  0
  1 25  1  0  0  0
  1 30  2  0  0  0
  1 82  1  0  0  0
  2  3  1  0  0  0
  2 25  1  0  0  0
  2 83  1  0  0  0
  2 84  1  0  0  0
  3  4  1  0  0  0
  3 85  1  0  0  0
  3 86  1  0  0  0
  4  5  1  0  0  0
  4 87  1  0  0  0
  4 88  1  0  0  0
  5  6  1  0  0  0
  5 26  1  0  0  0
  5 89  1  0  0  0
  6 25  1  0  0  0
  6 90  1  0  0  0
  6 91  1  0  0  0
  7  8  2  0  0  0
  7 26  1  0  0  0
  7 29  1  0  0  0
  8  9  1  0  0  0
  8 22  1  0  0  0
  9 10  1  0  0  0
  9 27  2  0  0  0
 10 11  2  0  0  0
 10 15  1  0  0  0
 11 12  1  0  0  0
 11 92  1  0  0  0
 12 13  2  0  0  0
 12 93  1  0  0  0
 13 14  1  0  0  0
 13 31  1  0  0  0
 14 15  2  0  0  0
 14 94  1  0  0  0
 15 95  1  0  0  0
 16 17  2  0  0  0
 16 21  1  0  0  0
 16 31  1  0  0  0
 17 18  1  0  0  0
 17 96  1  0  0  0
 18 19  2  0  0  0
 18 97  1  0  0  0
 19 20  1  0  0  0
 19 24  1  0  0  0
 20 21  2  0  0  0
 20 98  1  0  0  0
 21 23  1  0  0  0
 22 28  1  0  0  0
 22 32  2  0  0  0
 26 27  1  0  0  0
 28 99  1  0  0  0
 28100  1  0  0  0
 29101  1  0  0  0
 29102  1  0  0  0
 33 34  1  0  0  0
 33 66  1  0  0  0
 33 70  2  0  0  0
 34 36  1  0  0  0
 34 59  1  0  0  0
 34103  1  0  0  0
 35 44  2  0  0  0
 35 45  1  0  0  0
 35 68  1  0  0  0
 36 56  1  0  0  0
 36104  1  0  0  0
 37 39  1  0  0  0
 37 47  1  0  0  0
 37 66  1  0  0  0
 37105  1  0  0  0
 38 43  2  0  0  0
 38 46  1  0  0  0
 38 47  1  0  0  0
 39 64  1  0  0  0
 39 67  2  0  0  0
 40 52  1  0  0  0
 40 53  2  0  0  0
 40 58  1  0  0  0
 41106  1  0  0  0
 41107  1  0  0  0
 41108  1  0  0  0
 41 48  1  0  0  0
 42 43  1  0  0  0
 42 66  1  0  0  0
 42109  1  0  0  0
 42110  1  0  0  0
 43 44  1  0  0  0
 44111  1  0  0  0
 45 46  2  0  0  0
 45112  1  0  0  0
 46113  1  0  0  0
 47114  1  0  0  0
 47115  1  0  0  0
 48 56  1  0  0  0
 48 65  1  0  0  0
 48116  1  0  0  0
 49 50  1  0  0  0
 49 53  1  0  0  0
 49 64  1  0  0  0
 49117  1  0  0  0
 50 51  1  0  0  0
 50118  1  0  0  0
 50119  1  0  0  0
 51 52  1  0  0  0
 51120  1  0  0  0
 51121  1  0  0  0
 52122  1  0  0  0
 52123  1  0  0  0
 53 54  1  0  0  0
 54 55  2  0  0  0
 54124  1  0  0  0
 55 57  1  0  0  0
 55125  1  0  0  0
 56 69  2  0  0  0
 57 58  2  0  0  0
 57126  1  0  0  0
 58127  1  0  0  0
 59 60  1  0  0  0
 59 61  1  0  0  0
 59 62  1  0  0  0
 60128  1  0  0  0
 60129  1  0  0  0
 60130  1  0  0  0
 61131  1  0  0  0
 61132  1  0  0  0
 61133  1  0  0  0
 62134  1  0  0  0
 62135  1  0  0  0
 62136  1  0  0  0
 63 65  1  0  0  0
 63137  1  0  0  0
 63138  1  0  0  0
 63139  1  0  0  0
 64140  1  0  0  0
 65141  1  0  0  0
 68 80  1  0  0  0
 71 72  1  0  0  0
 71 73  2  0  0  0
 71142  1  0  0  0
 72 74  2  0  0  0
 72 79  1  0  0  0
 73 81  1  0  0  0
 73 82  1  0  0  0
 74 75  1  0  0  0
 74 82  1  0  0  0
 75143  1  0  0  0
 75144  1  0  0  0
 75145  1  0  0  0
 76146  1  0  0  0
 76147  1  0  0  0
 76148  1  0  0  0
 76 81  1  0  0  0
 77 81  1  0  0  0
 77149  1  0  0  0
 77150  1  0  0  0
 77151  1  0  0  0
 78 81  1  0  0  0
 78152  1  0  0  0
 78153  1  0  0  0
 78154  1  0  0  0
 79 80  1  0  0  0
 79155  1  0  0  0
 79156  1  0  0  0
 80157  1  0  0  0
 80158  1  0  0  0
M  ISO  4   1 100  68 101  80 101  82 100
M  END
> <chiral flag>
0

> <version>
0

> <s_m_source_file>
/data/baiqing/PycharmProjects/Reinvent-master-3.2/result/LINK_invent/BTK/process_docking_weight1_custom_sum_contain_oxygen_bond_distance_aromatic_linkinvent_7_9_3/rearranged_h_0019.sdf

> <i_m_source_file_index>
41

> <r_mmod_Potential_Energy-OPLS-2005>
2874.73901367188

> <r_mmod_Stretch_Energy-OPLS-2005>
1219.99963378906

> <r_mmod_Bend_Energy-OPLS-2005>
722.639526367188

> <r_mmod_Torsional_Energy-OPLS-2005>
273.273254394531

> <r_mmod_Improper_Torsional_Energy-OPLS-2005>
4.07836675643921

> <r_mmod_Van_der_Waal_Energy-OPLS-2005>
114.962738037109

> <r_mmod_Electrostatic_Energy-OPLS-2005>
-270.104766845703

> <r_mmod_Solvation_Energy-OPLS-2005>
-187.062896728516

> <b_mmod_Minimization_Converged-OPLS-2005>
0

> <r_mmod_RMS_Derivative-OPLS-2005>
4.94811201095581

$$$$
41
                    3D
 Structure written by MMmdl.
156164  0  0  1  0            999 V2000
  -30.5470  -14.9546   20.4346 C   0  0  0  0  0  0
  -30.4360  -12.5948   19.4969 C   0  0  0  0  0  0
  -29.5170  -12.5290   18.2558 C   0  0  0  0  0  0
  -28.0521  -12.3125   18.6777 C   0  0  0  0  0  0
  -27.6273  -13.2491   19.8386 C   0  0  2  0  0  0
  -28.6700  -13.2853   20.9760 C   0  0  0  0  0  0
  -25.2446  -13.8217   20.5718 C   0  0  0  0  0  0
  -24.1767  -13.0437   20.9240 C   0  0  0  0  0  0
  -24.6388  -11.6925   20.8764 C   0  0  0  0  0  0
  -23.9076  -10.4294   21.0413 C   0  0  0  0  0  0
  -24.3626   -9.4205   21.9188 C   0  0  0  0  0  0
  -23.6297   -8.2241   22.0754 C   0  0  0  0  0  0
  -22.4280   -8.0284   21.3543 C   0  0  0  0  0  0
  -21.9921   -9.0257   20.4643 C   0  0  0  0  0  0
  -22.7251  -10.2136   20.3055 C   0  0  0  0  0  0
  -21.6855   -6.0737   22.5277 C   0  0  0  0  0  0
  -21.4013   -6.5638   23.8210 C   0  0  0  0  0  0
  -21.3656   -5.6791   24.9172 C   0  0  0  0  0  0
  -21.6045   -4.3054   24.7224 C   0  0  0  0  0  0
  -21.8820   -3.8146   23.4343 C   0  0  0  0  0  0
  -21.9194   -4.6965   22.3399 C   0  0  0  0  0  0
  -22.7787  -13.5206   21.1893 C   0  0  0  0  0  0
  -22.1663   -4.2150   21.0978 F   0  0  0  0  0  0
  -21.5629   -3.4537   25.7735 F   0  0  0  0  0  0
  -29.9429  -13.6983   20.3722 N   0  0  0  0  0  0
  -26.2871  -12.9453   20.3256 N   0  0  0  0  0  0
  -25.9321  -11.6582   20.5754 N   0  0  0  0  0  0
  -22.0443  -12.8187   22.0449 N   0  0  0  0  0  0
  -25.4096  -15.1944   20.4121 N   0  0  0  0  0  0
  -31.7463  -15.0005   20.1409 O   0  0  0  0  0  0
  -21.6641   -6.8881   21.4239 O   0  0  0  0  0  0
  -22.3468  -14.5512   20.6742 O   0  0  0  0  0  0
  -24.6444  -31.8426   23.1876 C   0  0  0  0  0  0
  -25.9214  -32.4685   23.8267 C   0  0  1  0  0  0
  -27.2148  -27.1237   20.1530 C   0  0  0  0  0  0
  -25.5950  -33.8490   24.2182 N   0  0  0  0  0  0
  -23.4485  -30.4618   21.5330 C   0  0  2  0  0  0
  -24.8979  -28.8862   20.1089 C   0  0  0  0  0  0
  -22.7573  -29.4540   22.4855 C   0  0  0  0  0  0
  -18.0307  -28.1399   22.8477 C   0  0  0  0  0  0
  -24.1483  -36.7247   23.2645 C   0  0  0  0  0  0
  -26.0046  -30.7124   21.3880 C   0  0  0  0  0  0
  -26.0755  -29.3224   20.7294 C   0  0  0  0  0  0
  -27.2348  -28.4575   20.7336 C   0  0  0  0  0  0
  -26.0119  -26.7923   19.4912 C   0  0  0  0  0  0
  -24.8797  -27.6355   19.4740 C   0  0  0  0  0  0
  -23.6752  -29.7899   20.1524 C   0  0  0  0  0  0
  -25.4118  -36.3025   24.0314 C   0  0  1  0  0  0
  -20.5919  -28.3726   23.1230 C   0  0  2  0  0  0
  -20.6790  -26.9427   22.5403 C   0  0  0  0  0  0
  -19.5763  -26.6386   21.5211 C   0  0  0  0  0  0
  -18.1944  -26.7939   22.1622 C   0  0  0  0  0  0
  -19.1562  -28.8881   23.2845 C   0  0  0  0  0  0
  -18.9482  -30.1477   23.8871 C   0  0  0  0  0  0
  -17.6480  -30.6596   24.0561 C   0  0  0  0  0  0
  -25.9073  -34.9401   23.5061 C   0  0  0  0  0  0
  -16.5370  -29.9087   23.6343 C   0  0  0  0  0  0
  -16.7292  -28.6506   23.0362 C   0  0  0  0  0  0
  -26.4531  -31.6562   25.0719 C   0  0  0  0  0  0
  -25.3715  -31.3750   26.1415 C   0  0  0  0  0  0
  -27.0407  -30.2961   24.6312 C   0  0  0  0  0  0
  -27.6056  -32.4338   25.7507 C   0  0  0  0  0  0
  -27.5567  -37.1777   24.8466 C   0  0  0  0  0  0
  -21.4264  -29.3048   22.3599 N   0  0  0  0  0  0
  -26.4278  -37.3739   23.9410 N   0  0  0  0  0  0
  -24.7191  -31.0271   22.0913 N   0  0  0  0  0  0
  -23.4212  -28.8093   23.3011 O   0  0  0  0  0  0
  -28.2615  -26.1302   20.2339 O   0  0  0  0  0  0
  -26.5666  -34.8902   22.4646 O   0  0  0  0  0  0
  -23.5561  -32.1307   23.7090 O   0  0  0  0  0  0
  -31.4728  -19.3240   21.9521 C   0  0  0  0  0  0
  -30.7448  -20.4413   21.4846 C   0  0  0  0  0  0
  -29.5814  -20.2847   20.6785 C   0  0  0  0  0  0
  -29.2879  -18.8418   20.3622 C   0  0  0  0  0  0
  -30.0743  -17.6424   20.8126 C   0  0  0  0  0  0
  -31.1542  -17.9827   21.6704 C   0  0  0  0  0  0
  -31.2693  -21.7943   21.9317 C   0  0  0  0  0  0
  -28.0704  -18.5574   19.5001 C   0  0  0  0  0  0
  -28.6861  -21.6275   20.2214 C   0  0  0  0  0  0
  -28.9865  -23.2944   20.4584 C   0  0  0  0  0  0
  -27.9902  -24.6003   20.0478 C   0  0  0  0  0  0
  -29.7672  -16.1464   20.5669 N   0  0  0  0  0  0
  -32.0924  -16.8063   22.5262 Cl  0  0  0  0  0  0
  -31.4692  -12.7499   19.1825 H   0  0  0  0  0  0
  -30.4296  -11.6458   20.0354 H   0  0  0  0  0  0
  -29.8366  -11.7274   17.5886 H   0  0  0  0  0  0
  -29.6021  -13.4560   17.6863 H   0  0  0  0  0  0
  -27.9533  -11.2728   18.9921 H   0  0  0  0  0  0
  -27.3860  -12.4368   17.8232 H   0  0  0  0  0  0
  -27.5880  -14.2489   19.4055 H   0  0  0  0  0  0
  -28.7594  -12.3129   21.4622 H   0  0  0  0  0  0
  -28.3685  -13.9929   21.7504 H   0  0  0  0  0  0
  -25.2768   -9.5681   22.4769 H   0  0  0  0  0  0
  -24.0004   -7.4631   22.7473 H   0  0  0  0  0  0
  -21.0853   -8.8778   19.8946 H   0  0  0  0  0  0
  -22.3711  -10.9676   19.6167 H   0  0  0  0  0  0
  -21.2003   -7.6146   23.9713 H   0  0  0  0  0  0
  -21.1478   -6.0520   25.9076 H   0  0  0  0  0  0
  -22.0602   -2.7609   23.2843 H   0  0  0  0  0  0
  -22.4068  -11.9845   22.4820 H   0  0  0  0  0  0
  -21.1060  -13.1200   22.2663 H   0  0  0  0  0  0
  -24.6355  -15.8415   20.5161 H   0  0  0  0  0  0
  -26.2434  -15.6326   20.0462 H   0  0  0  0  0  0
  -26.7280  -32.5288   23.0993 H   0  0  0  0  0  0
  -25.0044  -33.9597   25.0293 H   0  0  0  0  0  0
  -22.7516  -31.2881   21.3781 H   0  0  0  0  0  0
  -23.3752  -35.9571   23.3292 H   0  0  0  0  0  0
  -24.3563  -36.8905   22.2064 H   0  0  0  0  0  0
  -23.7231  -37.6432   23.6699 H   0  0  0  0  0  0
  -26.1613  -31.4661   20.6152 H   0  0  0  0  0  0
  -26.8745  -30.7633   22.0311 H   0  0  0  0  0  0
  -28.1305  -28.7839   21.2435 H   0  0  0  0  0  0
  -25.9120  -25.8355   19.0013 H   0  0  0  0  0  0
  -23.9806  -27.2968   18.9776 H   0  0  0  0  0  0
  -23.8126  -30.5639   19.3965 H   0  0  0  0  0  0
  -22.7893  -29.2324   19.8429 H   0  0  0  0  0  0
  -25.1307  -36.1847   25.0806 H   0  0  0  0  0  0
  -21.0007  -28.3325   24.1351 H   0  0  0  0  0  0
  -20.5684  -26.2341   23.3625 H   0  0  0  0  0  0
  -21.6656  -26.7433   22.1199 H   0  0  0  0  0  0
  -19.6918  -25.6289   21.1258 H   0  0  0  0  0  0
  -19.6700  -27.3183   20.6731 H   0  0  0  0  0  0
  -17.4212  -26.6688   21.4027 H   0  0  0  0  0  0
  -18.0337  -26.0087   22.9021 H   0  0  0  0  0  0
  -19.7957  -30.7297   24.2230 H   0  0  0  0  0  0
  -17.5036  -31.6272   24.5168 H   0  0  0  0  0  0
  -15.5369  -30.2981   23.7686 H   0  0  0  0  0  0
  -15.8691  -28.0818   22.7093 H   0  0  0  0  0  0
  -24.5905  -30.7085   25.7737 H   0  0  0  0  0  0
  -24.8887  -32.2926   26.4786 H   0  0  0  0  0  0
  -25.8003  -30.8963   27.0231 H   0  0  0  0  0  0
  -26.3035  -29.6671   24.1313 H   0  0  0  0  0  0
  -27.4011  -29.7278   25.4898 H   0  0  0  0  0  0
  -27.8944  -30.4200   23.9647 H   0  0  0  0  0  0
  -27.2655  -33.3679   26.1994 H   0  0  0  0  0  0
  -28.3915  -32.6838   25.0366 H   0  0  0  0  0  0
  -28.0668  -31.8520   26.5499 H   0  0  0  0  0  0
  -28.2578  -38.0080   24.7517 H   0  0  0  0  0  0
  -28.1072  -36.2610   24.6292 H   0  0  0  0  0  0
  -27.2284  -37.1424   25.8869 H   0  0  0  0  0  0
  -20.9479  -29.8754   21.6767 H   0  0  0  0  0  0
  -26.0144  -38.2803   24.1429 H   0  0  0  0  0  0
  -32.3186  -19.4928   22.6035 H   0  0  0  0  0  0
  -32.2143  -21.7022   22.4678 H   0  0  0  0  0  0
  -30.5739  -22.2707   22.6203 H   0  0  0  0  0  0
  -31.4721  -22.4413   21.0815 H   0  0  0  0  0  0
  -27.3254  -19.3485   19.5723 H   0  0  0  0  0  0
  -27.5808  -17.6328   19.8036 H   0  0  0  0  0  0
  -28.3648  -18.4602   18.4549 H   0  0  0  0  0  0
  -27.7017  -21.4520   20.6560 H   0  0  0  0  0  0
  -28.5335  -21.5061   19.1488 H   0  0  0  0  0  0
  -29.9366  -23.5092   19.9723 H   0  0  0  0  0  0
  -29.1526  -23.4351   21.5230 H   0  0  0  0  0  0
  -27.0447  -24.4087   20.5567 H   0  0  0  0  0  0
  -27.7685  -24.4762   18.9874 H   0  0  0  0  0  0
  -28.7808  -15.9460   20.5392 H   0  0  0  0  0  0
  1 25  1  0  0  0
  1 30  2  0  0  0
  1 82  1  0  0  0
  2  3  1  0  0  0
  2 25  1  0  0  0
  2 84  1  0  0  0
  2 85  1  0  0  0
  3  4  1  0  0  0
  3 86  1  0  0  0
  3 87  1  0  0  0
  4  5  1  0  0  0
  4 88  1  0  0  0
  4 89  1  0  0  0
  5  6  1  0  0  0
  5 26  1  0  0  0
  5 90  1  0  0  0
  6 25  1  0  0  0
  6 91  1  0  0  0
  6 92  1  0  0  0
  7  8  2  0  0  0
  7 26  1  0  0  0
  7 29  1  0  0  0
  8  9  1  0  0  0
  8 22  1  0  0  0
  9 10  1  0  0  0
  9 27  2  0  0  0
 10 11  2  0  0  0
 10 15  1  0  0  0
 11 12  1  0  0  0
 11 93  1  0  0  0
 12 13  2  0  0  0
 12 94  1  0  0  0
 13 14  1  0  0  0
 13 31  1  0  0  0
 14 15  2  0  0  0
 14 95  1  0  0  0
 15 96  1  0  0  0
 16 17  2  0  0  0
 16 21  1  0  0  0
 16 31  1  0  0  0
 17 18  1  0  0  0
 17 97  1  0  0  0
 18 19  2  0  0  0
 18 98  1  0  0  0
 19 20  1  0  0  0
 19 24  1  0  0  0
 20 21  2  0  0  0
 20 99  1  0  0  0
 21 23  1  0  0  0
 22 28  1  0  0  0
 22 32  2  0  0  0
 26 27  1  0  0  0
 28100  1  0  0  0
 28101  1  0  0  0
 29102  1  0  0  0
 29103  1  0  0  0
 33 34  1  0  0  0
 33 66  1  0  0  0
 33 70  2  0  0  0
 34 36  1  0  0  0
 34 59  1  0  0  0
 34104  1  0  0  0
 35 44  2  0  0  0
 35 45  1  0  0  0
 35 68  1  0  0  0
 36 56  1  0  0  0
 36105  1  0  0  0
 37 39  1  0  0  0
 37 47  1  0  0  0
 37 66  1  0  0  0
 37106  1  0  0  0
 38 43  2  0  0  0
 38 46  1  0  0  0
 38 47  1  0  0  0
 39 64  1  0  0  0
 39 67  2  0  0  0
 40 52  1  0  0  0
 40 53  2  0  0  0
 40 58  1  0  0  0
 41107  1  0  0  0
 41108  1  0  0  0
 41109  1  0  0  0
 41 48  1  0  0  0
 42 43  1  0  0  0
 42 66  1  0  0  0
 42110  1  0  0  0
 42111  1  0  0  0
 43 44  1  0  0  0
 44112  1  0  0  0
 45 46  2  0  0  0
 45113  1  0  0  0
 46114  1  0  0  0
 47115  1  0  0  0
 47116  1  0  0  0
 48 56  1  0  0  0
 48 65  1  0  0  0
 48117  1  0  0  0
 49 50  1  0  0  0
 49 53  1  0  0  0
 49 64  1  0  0  0
 49118  1  0  0  0
 50 51  1  0  0  0
 50119  1  0  0  0
 50120  1  0  0  0
 51 52  1  0  0  0
 51121  1  0  0  0
 51122  1  0  0  0
 52123  1  0  0  0
 52124  1  0  0  0
 53 54  1  0  0  0
 54 55  2  0  0  0
 54125  1  0  0  0
 55 57  1  0  0  0
 55126  1  0  0  0
 56 69  2  0  0  0
 57 58  2  0  0  0
 57127  1  0  0  0
 58128  1  0  0  0
 59 60  1  0  0  0
 59 61  1  0  0  0
 59 62  1  0  0  0
 60129  1  0  0  0
 60130  1  0  0  0
 60131  1  0  0  0
 61132  1  0  0  0
 61133  1  0  0  0
 61134  1  0  0  0
 62135  1  0  0  0
 62136  1  0  0  0
 62137  1  0  0  0
 63 65  1  0  0  0
 63138  1  0  0  0
 63139  1  0  0  0
 63140  1  0  0  0
 64141  1  0  0  0
 65142  1  0  0  0
 68 81  1  0  0  0
 71 72  2  0  0  0
 71 76  1  0  0  0
 71143  1  0  0  0
 72 73  1  0  0  0
 72 77  1  0  0  0
 73 74  2  0  0  0
 73 79  1  0  0  0
 74 75  1  0  0  0
 74 78  1  0  0  0
 75 76  2  0  0  0
 75 82  1  0  0  0
 76 83  1  0  0  0
 77144  1  0  0  0
 77145  1  0  0  0
 77146  1  0  0  0
 78147  1  0  0  0
 78148  1  0  0  0
 78149  1  0  0  0
 79 80  1  0  0  0
 79150  1  0  0  0
 79151  1  0  0  0
 80 81  1  0  0  0
 80152  1  0  0  0
 80153  1  0  0  0
 81154  1  0  0  0
 81155  1  0  0  0
 82156  1  0  0  0
M  ISO  4   1 100  68 101  81 101  82 100
M  END
> <chiral flag>
0

> <version>
0

> <s_m_source_file>
/data/baiqing/PycharmProjects/Reinvent-master-3.2/result/LINK_invent/BTK/process_docking_weight1_custom_sum_contain_oxygen_bond_distance_aromatic_linkinvent_7_9_3/rearranged_h_0019.sdf

> <i_m_source_file_index>
42

> <r_mmod_Potential_Energy-OPLS-2005>
517.173095703125

> <r_mmod_Stretch_Energy-OPLS-2005>
294.602081298828

> <r_mmod_Bend_Energy-OPLS-2005>
260.608764648438

> <r_mmod_Torsional_Energy-OPLS-2005>
220.234481811523

> <r_mmod_Improper_Torsional_Energy-OPLS-2005>
6.64576816558838

> <r_mmod_Van_der_Waal_Energy-OPLS-2005>
143.923110961914

> <r_mmod_Electrostatic_Energy-OPLS-2005>
-400.182189941406

> <r_mmod_Solvation_Energy-OPLS-2005>
-208.420959472656

> <b_mmod_Minimization_Converged-OPLS-2005>
0

> <r_mmod_RMS_Derivative-OPLS-2005>
0.54266232252121

$$$$
42
                    3D
 Structure written by MMmdl.
150158  0  0  1  0            999 V2000
  -30.4402  -15.3277   20.3240 C   0  0  0  0  0  0
  -30.4450  -12.8503   19.5282 C   0  0  0  0  0  0
  -29.5365  -12.5775   18.3026 C   0  0  0  0  0  0
  -28.0964  -12.2810   18.7494 C   0  0  0  0  0  0
  -27.6158  -13.2805   19.8280 C   0  0  2  0  0  0
  -28.6510  -13.4984   20.9564 C   0  0  0  0  0  0
  -25.2418  -13.8284   20.5768 C   0  0  0  0  0  0
  -24.1760  -13.0469   20.9260 C   0  0  0  0  0  0
  -24.6420  -11.6962   20.8799 C   0  0  0  0  0  0
  -23.9122  -10.4323   21.0443 C   0  0  0  0  0  0
  -24.3653   -9.4220   21.9202 C   0  0  0  0  0  0
  -23.6304   -8.2266   22.0763 C   0  0  0  0  0  0
  -22.4292   -8.0307   21.3552 C   0  0  0  0  0  0
  -21.9952   -9.0295   20.4651 C   0  0  0  0  0  0
  -22.7302  -10.2168   20.3064 C   0  0  0  0  0  0
  -21.6850   -6.0742   22.5271 C   0  0  0  0  0  0
  -21.4009   -6.5642   23.8200 C   0  0  0  0  0  0
  -21.3658   -5.6795   24.9162 C   0  0  0  0  0  0
  -21.6050   -4.3061   24.7219 C   0  0  0  0  0  0
  -21.8818   -3.8146   23.4338 C   0  0  0  0  0  0
  -21.9187   -4.6966   22.3396 C   0  0  0  0  0  0
  -22.7770  -13.5206   21.1900 C   0  0  0  0  0  0
  -22.1659   -4.2149   21.0973 F   0  0  0  0  0  0
  -21.5634   -3.4534   25.7735 F   0  0  0  0  0  0
  -29.8807  -14.0092   20.3231 N   0  0  0  0  0  0
  -26.2863  -12.9566   20.3299 N   0  0  0  0  0  0
  -25.9364  -11.6667   20.5796 N   0  0  0  0  0  0
  -22.0424  -12.8174   22.0452 N   0  0  0  0  0  0
  -25.4082  -15.2005   20.4181 N   0  0  0  0  0  0
  -31.6582  -15.3003   20.0938 O   0  0  0  0  0  0
  -21.6652   -6.8898   21.4240 O   0  0  0  0  0  0
  -22.3452  -14.5506   20.6732 O   0  0  0  0  0  0
  -24.6686  -31.8171   23.1623 C   0  0  0  0  0  0
  -25.9335  -32.4543   23.8122 C   0  0  1  0  0  0
  -27.2347  -26.8943   20.1723 C   0  0  0  0  0  0
  -25.5969  -33.8358   24.2031 N   0  0  0  0  0  0
  -23.4845  -30.4243   21.5125 C   0  0  2  0  0  0
  -24.9393  -28.8030   20.1040 C   0  0  0  0  0  0
  -22.7704  -29.4364   22.4739 C   0  0  0  0  0  0
  -18.0321  -28.1403   22.8444 C   0  0  0  0  0  0
  -24.1486  -36.7196   23.2662 C   0  0  0  0  0  0
  -26.0538  -30.6112   21.3940 C   0  0  0  0  0  0
  -26.1229  -29.1972   20.7413 C   0  0  0  0  0  0
  -27.2569  -28.2621   20.7551 C   0  0  0  0  0  0
  -26.0233  -26.6620   19.4806 C   0  0  0  0  0  0
  -24.9173  -27.5557   19.4563 C   0  0  0  0  0  0
  -23.7274  -29.7368   20.1384 C   0  0  0  0  0  0
  -25.4128  -36.2941   24.0306 C   0  0  1  0  0  0
  -20.5951  -28.3737   23.1161 C   0  0  2  0  0  0
  -20.6784  -26.9411   22.5395 C   0  0  0  0  0  0
  -19.5763  -26.6378   21.5199 C   0  0  0  0  0  0
  -18.1943  -26.7930   22.1603 C   0  0  0  0  0  0
  -19.1589  -28.8895   23.2776 C   0  0  0  0  0  0
  -18.9515  -30.1476   23.8832 C   0  0  0  0  0  0
  -17.6518  -30.6593   24.0543 C   0  0  0  0  0  0
  -25.9109  -34.9333   23.5020 C   0  0  0  0  0  0
  -16.5398  -29.9093   23.6338 C   0  0  0  0  0  0
  -16.7303  -28.6503   23.0350 C   0  0  0  0  0  0
  -26.4573  -31.6496   25.0668 C   0  0  0  0  0  0
  -25.3675  -31.3773   26.1310 C   0  0  0  0  0  0
  -27.0495  -30.2869   24.6429 C   0  0  0  0  0  0
  -27.6055  -32.4335   25.7451 C   0  0  0  0  0  0
  -27.5559  -37.1731   24.8478 C   0  0  0  0  0  0
  -21.4364  -29.3017   22.3506 N   0  0  0  0  0  0
  -26.4267  -37.3689   23.9439 N   0  0  0  0  0  0
  -24.7578  -30.9802   22.0765 N   0  0  0  0  0  0
  -23.4234  -28.7946   23.3002 O   0  0  0  0  0  0
  -28.2443  -25.7874   20.2935 O   0  0  0  0  0  0
  -26.5740  -34.8889   22.4621 O   0  0  0  0  0  0
  -23.5752  -32.1138   23.6701 O   0  0  0  0  0  0
  -30.2631  -19.7473   18.0739 C   0  0  0  0  0  0
  -29.7607  -20.9318   18.6723 C   0  0  0  0  0  0
  -30.2674  -18.4457   18.6600 C   0  0  0  0  0  0
  -29.1898  -20.9643   19.9614 C   0  0  0  0  0  0
  -29.7424  -18.1855   19.9630 C   0  0  0  0  0  0
  -29.2080  -19.5240   20.5622 C   0  0  0  0  0  0
  -30.8306  -17.3289   17.7935 C   0  0  0  0  0  0
  -28.7654  -22.5721   20.5714 C   0  0  0  0  0  0
  -28.2279  -24.1716   19.8544 C   0  0  0  0  0  0
  -29.6945  -16.6206   20.4634 N   0  0  0  0  0  0
  -28.5468  -19.3937   22.1504 Cl  0  0  0  0  0  0
  -31.4526  -13.0625   19.1688 H   0  0  0  0  0  0
  -30.5438  -11.9627   20.1535 H   0  0  0  0  0  0
  -29.9297  -11.7492   17.7130 H   0  0  0  0  0  0
  -29.5432  -13.4489   17.6471 H   0  0  0  0  0  0
  -28.0834  -11.2704   19.1614 H   0  0  0  0  0  0
  -27.4180  -12.2718   17.8957 H   0  0  0  0  0  0
  -27.5262  -14.2351   19.3083 H   0  0  0  0  0  0
  -28.8304  -12.5825   21.5184 H   0  0  0  0  0  0
  -28.2828  -14.2380   21.6690 H   0  0  0  0  0  0
  -25.2796   -9.5673   22.4788 H   0  0  0  0  0  0
  -23.9988   -7.4648   22.7482 H   0  0  0  0  0  0
  -21.0881   -8.8836   19.8949 H   0  0  0  0  0  0
  -22.3776  -10.9709   19.6169 H   0  0  0  0  0  0
  -21.2004   -7.6146   23.9701 H   0  0  0  0  0  0
  -21.1481   -6.0526   25.9067 H   0  0  0  0  0  0
  -22.0599   -2.7600   23.2841 H   0  0  0  0  0  0
  -22.4035  -11.9836   22.4835 H   0  0  0  0  0  0
  -21.1033  -13.1189   22.2667 H   0  0  0  0  0  0
  -24.6426  -15.8561   20.5316 H   0  0  0  0  0  0
  -26.2557  -15.6387   20.0824 H   0  0  0  0  0  0
  -26.7418  -32.5065   23.0841 H   0  0  0  0  0  0
  -25.0029  -33.9400   25.0121 H   0  0  0  0  0  0
  -22.8022  -31.2585   21.3393 H   0  0  0  0  0  0
  -23.3758  -35.9504   23.3302 H   0  0  0  0  0  0
  -24.3573  -36.8884   22.2084 H   0  0  0  0  0  0
  -23.7225  -37.6371   23.6737 H   0  0  0  0  0  0
  -26.2421  -31.3481   20.6115 H   0  0  0  0  0  0
  -26.9114  -30.6668   22.0529 H   0  0  0  0  0  0
  -28.1478  -28.5612   21.2887 H   0  0  0  0  0  0
  -25.8915  -25.7109   18.9874 H   0  0  0  0  0  0
  -24.0191  -27.2441   18.9400 H   0  0  0  0  0  0
  -23.8885  -30.5050   19.3821 H   0  0  0  0  0  0
  -22.8341  -29.1958   19.8166 H   0  0  0  0  0  0
  -25.1301  -36.1742   25.0788 H   0  0  0  0  0  0
  -21.0010  -28.3370   24.1291 H   0  0  0  0  0  0
  -20.5637  -26.2362   23.3648 H   0  0  0  0  0  0
  -21.6653  -26.7368   22.1212 H   0  0  0  0  0  0
  -19.6923  -25.6281   21.1250 H   0  0  0  0  0  0
  -19.6709  -27.3171   20.6724 H   0  0  0  0  0  0
  -17.4204  -26.6670   21.4004 H   0  0  0  0  0  0
  -18.0312  -26.0087   22.9024 H   0  0  0  0  0  0
  -19.8016  -30.7267   24.2176 H   0  0  0  0  0  0
  -17.5108  -31.6262   24.5170 H   0  0  0  0  0  0
  -15.5399  -30.2993   23.7703 H   0  0  0  0  0  0
  -15.8694  -28.0817   22.7093 H   0  0  0  0  0  0
  -24.5899  -30.7070   25.7647 H   0  0  0  0  0  0
  -24.8814  -32.2973   26.4571 H   0  0  0  0  0  0
  -25.7892  -30.9091   27.0215 H   0  0  0  0  0  0
  -26.3172  -29.6530   24.1422 H   0  0  0  0  0  0
  -27.4020  -29.7251   25.5093 H   0  0  0  0  0  0
  -27.9101  -30.4078   23.9837 H   0  0  0  0  0  0
  -27.2617  -33.3726   26.1798 H   0  0  0  0  0  0
  -28.3938  -32.6745   25.0307 H   0  0  0  0  0  0
  -28.0614  -31.8621   26.5560 H   0  0  0  0  0  0
  -28.2525  -38.0067   24.7530 H   0  0  0  0  0  0
  -28.1095  -36.2594   24.6277 H   0  0  0  0  0  0
  -27.2291  -37.1334   25.8881 H   0  0  0  0  0  0
  -20.9663  -29.8808   21.6688 H   0  0  0  0  0  0
  -26.0132  -38.2750   24.1489 H   0  0  0  0  0  0
  -30.6722  -19.8521   17.0773 H   0  0  0  0  0  0
  -29.8433  -21.8547   18.1123 H   0  0  0  0  0  0
  -30.1489  -16.4823   17.7346 H   0  0  0  0  0  0
  -31.7876  -16.9913   18.1885 H   0  0  0  0  0  0
  -31.0084  -17.6517   16.7681 H   0  0  0  0  0  0
  -29.6672  -22.8404   21.1227 H   0  0  0  0  0  0
  -28.0414  -22.3590   21.3565 H   0  0  0  0  0  0
  -27.2121  -23.9883   19.5059 H   0  0  0  0  0  0
  -28.8037  -24.2280   18.9302 H   0  0  0  0  0  0
  -28.8243  -16.4370   20.9395 H   0  0  0  0  0  0
  1 25  1  0  0  0
  1 30  2  0  0  0
  1 80  1  0  0  0
  2  3  1  0  0  0
  2 25  1  0  0  0
  2 82  1  0  0  0
  2 83  1  0  0  0
  3  4  1  0  0  0
  3 84  1  0  0  0
  3 85  1  0  0  0
  4  5  1  0  0  0
  4 86  1  0  0  0
  4 87  1  0  0  0
  5  6  1  0  0  0
  5 26  1  0  0  0
  5 88  1  0  0  0
  6 25  1  0  0  0
  6 89  1  0  0  0
  6 90  1  0  0  0
  7  8  2  0  0  0
  7 26  1  0  0  0
  7 29  1  0  0  0
  8  9  1  0  0  0
  8 22  1  0  0  0
  9 10  1  0  0  0
  9 27  2  0  0  0
 10 11  2  0  0  0
 10 15  1  0  0  0
 11 12  1  0  0  0
 11 91  1  0  0  0
 12 13  2  0  0  0
 12 92  1  0  0  0
 13 14  1  0  0  0
 13 31  1  0  0  0
 14 15  2  0  0  0
 14 93  1  0  0  0
 15 94  1  0  0  0
 16 17  2  0  0  0
 16 21  1  0  0  0
 16 31  1  0  0  0
 17 18  1  0  0  0
 17 95  1  0  0  0
 18 19  2  0  0  0
 18 96  1  0  0  0
 19 20  1  0  0  0
 19 24  1  0  0  0
 20 21  2  0  0  0
 20 97  1  0  0  0
 21 23  1  0  0  0
 22 28  1  0  0  0
 22 32  2  0  0  0
 26 27  1  0  0  0
 28 98  1  0  0  0
 28 99  1  0  0  0
 29100  1  0  0  0
 29101  1  0  0  0
 33 34  1  0  0  0
 33 66  1  0  0  0
 33 70  2  0  0  0
 34 36  1  0  0  0
 34 59  1  0  0  0
 34102  1  0  0  0
 35 44  2  0  0  0
 35 45  1  0  0  0
 35 68  1  0  0  0
 36 56  1  0  0  0
 36103  1  0  0  0
 37 39  1  0  0  0
 37 47  1  0  0  0
 37 66  1  0  0  0
 37104  1  0  0  0
 38 43  2  0  0  0
 38 46  1  0  0  0
 38 47  1  0  0  0
 39 64  1  0  0  0
 39 67  2  0  0  0
 40 52  1  0  0  0
 40 53  2  0  0  0
 40 58  1  0  0  0
 41105  1  0  0  0
 41106  1  0  0  0
 41107  1  0  0  0
 41 48  1  0  0  0
 42 43  1  0  0  0
 42 66  1  0  0  0
 42108  1  0  0  0
 42109  1  0  0  0
 43 44  1  0  0  0
 44110  1  0  0  0
 45 46  2  0  0  0
 45111  1  0  0  0
 46112  1  0  0  0
 47113  1  0  0  0
 47114  1  0  0  0
 48 56  1  0  0  0
 48 65  1  0  0  0
 48115  1  0  0  0
 49 50  1  0  0  0
 49 53  1  0  0  0
 49 64  1  0  0  0
 49116  1  0  0  0
 50 51  1  0  0  0
 50117  1  0  0  0
 50118  1  0  0  0
 51 52  1  0  0  0
 51119  1  0  0  0
 51120  1  0  0  0
 52121  1  0  0  0
 52122  1  0  0  0
 53 54  1  0  0  0
 54 55  2  0  0  0
 54123  1  0  0  0
 55 57  1  0  0  0
 55124  1  0  0  0
 56 69  2  0  0  0
 57 58  2  0  0  0
 57125  1  0  0  0
 58126  1  0  0  0
 59 60  1  0  0  0
 59 61  1  0  0  0
 59 62  1  0  0  0
 60127  1  0  0  0
 60128  1  0  0  0
 60129  1  0  0  0
 61130  1  0  0  0
 61131  1  0  0  0
 61132  1  0  0  0
 62133  1  0  0  0
 62134  1  0  0  0
 62135  1  0  0  0
 63 65  1  0  0  0
 63136  1  0  0  0
 63137  1  0  0  0
 63138  1  0  0  0
 64139  1  0  0  0
 65140  1  0  0  0
 68 79  1  0  0  0
 71 72  2  0  0  0
 71 73  1  0  0  0
 71141  1  0  0  0
 72 74  1  0  0  0
 72142  1  0  0  0
 73 75  2  0  0  0
 73 77  1  0  0  0
 74 76  2  0  0  0
 74 78  1  0  0  0
 75 76  1  0  0  0
 75 80  1  0  0  0
 76 81  1  0  0  0
 77143  1  0  0  0
 77144  1  0  0  0
 77145  1  0  0  0
 78 79  1  0  0  0
 78146  1  0  0  0
 78147  1  0  0  0
 79148  1  0  0  0
 79149  1  0  0  0
 80150  1  0  0  0
M  ISO  4   1 100  68 101  79 101  80 100
M  END
> <chiral flag>
0

> <version>
0

> <s_m_source_file>
/data/baiqing/PycharmProjects/Reinvent-master-3.2/result/LINK_invent/BTK/process_docking_weight1_custom_sum_contain_oxygen_bond_distance_aromatic_linkinvent_7_9_3/rearranged_h_0019.sdf

> <i_m_source_file_index>
43

> <r_mmod_Potential_Energy-OPLS-2005>
1392.20764160156

> <r_mmod_Stretch_Energy-OPLS-2005>
659.79638671875

> <r_mmod_Bend_Energy-OPLS-2005>
447.418670654297

> <r_mmod_Torsional_Energy-OPLS-2005>
232.547821044922

> <r_mmod_Improper_Torsional_Energy-OPLS-2005>
3.4364001750946

> <r_mmod_Van_der_Waal_Energy-OPLS-2005>
124.696090698242

> <r_mmod_Electrostatic_Energy-OPLS-2005>
-387.368865966797

> <r_mmod_Solvation_Energy-OPLS-2005>
-205.583068847656

> <b_mmod_Minimization_Converged-OPLS-2005>
0

> <r_mmod_RMS_Derivative-OPLS-2005>
3.74648809432983

$$$$
43
                    3D
 Structure written by MMmdl.
154162  0  0  1  0            999 V2000
  -30.7201  -14.4221   20.6002 C   0  0  0  0  0  0
  -30.4118  -12.2884   19.4022 C   0  0  0  0  0  0
  -29.4816  -12.5118   18.1938 C   0  0  0  0  0  0
  -28.0055  -12.3733   18.6117 C   0  0  0  0  0  0
  -27.6628  -13.2015   19.8789 C   0  0  2  0  0  0
  -28.7041  -12.9600   20.9950 C   0  0  0  0  0  0
  -25.2608  -13.8156   20.5680 C   0  0  0  0  0  0
  -24.1856  -13.0441   20.9166 C   0  0  0  0  0  0
  -24.6396  -11.6901   20.8744 C   0  0  0  0  0  0
  -23.9066  -10.4286   21.0397 C   0  0  0  0  0  0
  -24.3624   -9.4201   21.9171 C   0  0  0  0  0  0
  -23.6299   -8.2241   22.0751 C   0  0  0  0  0  0
  -22.4281   -8.0273   21.3545 C   0  0  0  0  0  0
  -21.9911   -9.0241   20.4643 C   0  0  0  0  0  0
  -22.7240  -10.2118   20.3043 C   0  0  0  0  0  0
  -21.6860   -6.0734   22.5280 C   0  0  0  0  0  0
  -21.4014   -6.5638   23.8208 C   0  0  0  0  0  0
  -21.3658   -5.6790   24.9169 C   0  0  0  0  0  0
  -21.6047   -4.3054   24.7221 C   0  0  0  0  0  0
  -21.8824   -3.8147   23.4341 C   0  0  0  0  0  0
  -21.9197   -4.6963   22.3400 C   0  0  0  0  0  0
  -22.7884  -13.5241   21.1830 C   0  0  0  0  0  0
  -22.1663   -4.2145   21.0977 F   0  0  0  0  0  0
  -21.5629   -3.4535   25.7732 F   0  0  0  0  0  0
  -30.0353  -13.2600   20.4412 N   0  0  0  0  0  0
  -26.3036  -12.9314   20.3396 N   0  0  0  0  0  0
  -25.9318  -11.6480   20.5787 N   0  0  0  0  0  0
  -22.0544  -12.8212   22.0378 N   0  0  0  0  0  0
  -25.4360  -15.1875   20.4087 N   0  0  0  0  0  0
  -31.8295  -14.6214   20.0971 O   0  0  0  0  0  0
  -21.6647   -6.8871   21.4241 O   0  0  0  0  0  0
  -22.3564  -14.5560   20.6690 O   0  0  0  0  0  0
  -24.6173  -31.8691   23.2113 C   0  0  0  0  0  0
  -25.9066  -32.4822   23.8422 C   0  0  1  0  0  0
  -27.2297  -27.4388   20.1057 C   0  0  0  0  0  0
  -25.5921  -33.8621   24.2375 N   0  0  0  0  0  0
  -23.4030  -30.4902   21.5549 C   0  0  2  0  0  0
  -24.8469  -28.9507   20.1224 C   0  0  0  0  0  0
  -22.7439  -29.4643   22.5053 C   0  0  0  0  0  0
  -18.0278  -28.1384   22.8491 C   0  0  0  0  0  0
  -24.1490  -36.7284   23.2627 C   0  0  0  0  0  0
  -25.9292  -30.8382   21.3567 C   0  0  0  0  0  0
  -26.0068  -29.4680   20.7147 C   0  0  0  0  0  0
  -27.2044  -28.7197   20.7020 C   0  0  0  0  0  0
  -26.0571  -26.9321   19.5114 C   0  0  0  0  0  0
  -24.8665  -27.6819   19.5161 C   0  0  0  0  0  0
  -23.6104  -29.8181   20.1706 C   0  0  0  0  0  0
  -25.4107  -36.3108   24.0351 C   0  0  1  0  0  0
  -20.5875  -28.3651   23.1346 C   0  0  2  0  0  0
  -20.6767  -26.9401   22.5420 C   0  0  0  0  0  0
  -19.5736  -26.6383   21.5227 C   0  0  0  0  0  0
  -18.1914  -26.7925   22.1639 C   0  0  0  0  0  0
  -19.1529  -28.8833   23.2904 C   0  0  0  0  0  0
  -18.9455  -30.1449   23.8916 C   0  0  0  0  0  0
  -17.6456  -30.6589   24.0584 C   0  0  0  0  0  0
  -25.9022  -34.9461   23.5153 C   0  0  0  0  0  0
  -16.5347  -29.9084   23.6351 C   0  0  0  0  0  0
  -16.7260  -28.6507   23.0361 C   0  0  0  0  0  0
  -26.4465  -31.6555   25.0719 C   0  0  0  0  0  0
  -25.3729  -31.3669   26.1479 C   0  0  0  0  0  0
  -27.0242  -30.2993   24.6016 C   0  0  0  0  0  0
  -27.6084  -32.4213   25.7475 C   0  0  0  0  0  0
  -27.5586  -37.1804   24.8471 C   0  0  0  0  0  0
  -21.4184  -29.3003   22.3778 N   0  0  0  0  0  0
  -26.4294  -37.3794   23.9406 N   0  0  0  0  0  0
  -24.6690  -31.0800   22.1002 N   0  0  0  0  0  0
  -23.4212  -28.8202   23.3118 O   0  0  0  0  0  0
  -28.3954  -26.7111   20.0720 O   0  0  0  0  0  0
  -26.5563  -34.8884   22.4705 O   0  0  0  0  0  0
  -23.5377  -32.1420   23.7522 O   0  0  0  0  0  0
  -28.6444  -19.4140   19.6240 C   0  0  0  0  0  0
  -29.4176  -20.3653   21.7016 C   0  0  0  0  0  0
  -29.8704  -17.9878   21.2167 C   0  0  0  0  0  0
  -28.7766  -20.5425   20.4559 C   0  0  0  0  0  0
  -29.1836  -18.1556   19.9795 C   0  0  0  0  0  0
  -29.9614  -19.1200   22.0724 C   0  0  0  0  0  0
  -30.6343  -16.7020   21.6123 C   0  0  0  0  0  0
  -28.2043  -24.2140   19.9898 C   0  0  0  0  0  0
  -28.3962  -25.4952   20.8348 C   0  0  0  0  0  0
  -28.4895  -22.9287   20.7961 C   0  0  0  0  0  0
  -30.0735  -15.3847   21.2786 N   0  0  0  0  0  0
  -28.2941  -21.7581   19.9936 O   0  0  0  0  0  0
  -29.0169  -16.8810   18.8229 Cl  0  0  0  0  0  0
  -30.7833  -19.0538   23.5945 Cl  0  0  0  0  0  0
  -31.4571  -12.3777   19.0996 H   0  0  0  0  0  0
  -30.2981  -11.2713   19.7809 H   0  0  0  0  0  0
  -29.7116  -11.7986   17.4004 H   0  0  0  0  0  0
  -29.6517  -13.5047   17.7750 H   0  0  0  0  0  0
  -27.8114  -11.3163   18.7989 H   0  0  0  0  0  0
  -27.3499  -12.6591   17.7876 H   0  0  0  0  0  0
  -27.7136  -14.2526   19.5966 H   0  0  0  0  0  0
  -28.6763  -11.9196   21.3241 H   0  0  0  0  0  0
  -28.4653  -13.5465   21.8833 H   0  0  0  0  0  0
  -25.2761   -9.5681   22.4748 H   0  0  0  0  0  0
  -24.0006   -7.4638   22.7480 H   0  0  0  0  0  0
  -21.0838   -8.8762   19.8952 H   0  0  0  0  0  0
  -22.3696  -10.9660   19.6161 H   0  0  0  0  0  0
  -21.2005   -7.6143   23.9707 H   0  0  0  0  0  0
  -21.1482   -6.0519   25.9071 H   0  0  0  0  0  0
  -22.0608   -2.7607   23.2843 H   0  0  0  0  0  0
  -22.4157  -11.9856   22.4743 H   0  0  0  0  0  0
  -21.1172  -13.1237   22.2626 H   0  0  0  0  0  0
  -24.6696  -15.8442   20.5099 H   0  0  0  0  0  0
  -26.2909  -15.6218   20.0841 H   0  0  0  0  0  0
  -26.7169  -32.5542   23.1223 H   0  0  0  0  0  0
  -25.0179  -33.9796   25.0593 H   0  0  0  0  0  0
  -22.6920  -31.3084   21.4189 H   0  0  0  0  0  0
  -23.3757  -35.9621   23.3311 H   0  0  0  0  0  0
  -24.3601  -36.8870   22.2040 H   0  0  0  0  0  0
  -23.7216  -37.6491   23.6599 H   0  0  0  0  0  0
  -26.0265  -31.5964   20.5786 H   0  0  0  0  0  0
  -26.8249  -30.9079   21.9613 H   0  0  0  0  0  0
  -28.1037  -29.1169   21.1548 H   0  0  0  0  0  0
  -26.0637  -25.9649   19.0343 H   0  0  0  0  0  0
  -23.9787  -27.2789   19.0476 H   0  0  0  0  0  0
  -23.7176  -30.5899   19.4069 H   0  0  0  0  0  0
  -22.7367  -29.2337   19.8784 H   0  0  0  0  0  0
  -25.1292  -36.2015   25.0850 H   0  0  0  0  0  0
  -20.9950  -28.3190   24.1480 H   0  0  0  0  0  0
  -20.5699  -26.2255   23.3580 H   0  0  0  0  0  0
  -21.6640  -26.7467   22.1224 H   0  0  0  0  0  0
  -19.6894  -25.6293   21.1251 H   0  0  0  0  0  0
  -19.6677  -27.3234   20.6780 H   0  0  0  0  0  0
  -17.4207  -26.6692   21.4018 H   0  0  0  0  0  0
  -18.0297  -26.0075   22.9034 H   0  0  0  0  0  0
  -19.7935  -30.7275   24.2272 H   0  0  0  0  0  0
  -17.5017  -31.6294   24.5170 H   0  0  0  0  0  0
  -15.5352  -30.3001   23.7649 H   0  0  0  0  0  0
  -15.8662  -28.0828   22.7055 H   0  0  0  0  0  0
  -24.5849  -30.7101   25.7787 H   0  0  0  0  0  0
  -24.8979  -32.2830   26.5018 H   0  0  0  0  0  0
  -25.8075  -30.8736   27.0194 H   0  0  0  0  0  0
  -26.2754  -29.6821   24.1026 H   0  0  0  0  0  0
  -27.3974  -29.7160   25.4436 H   0  0  0  0  0  0
  -27.8614  -30.4323   23.9166 H   0  0  0  0  0  0
  -27.2759  -33.3506   26.2128 H   0  0  0  0  0  0
  -28.3875  -32.6782   25.0287 H   0  0  0  0  0  0
  -28.0755  -31.8252   26.5328 H   0  0  0  0  0  0
  -28.2640  -38.0066   24.7533 H   0  0  0  0  0  0
  -28.1059  -36.2615   24.6309 H   0  0  0  0  0  0
  -27.2302  -37.1487   25.8872 H   0  0  0  0  0  0
  -20.9359  -29.8728   21.6998 H   0  0  0  0  0  0
  -26.0196  -38.2902   24.1352 H   0  0  0  0  0  0
  -28.1506  -19.5207   18.6694 H   0  0  0  0  0  0
  -29.5357  -21.1820   22.3975 H   0  0  0  0  0  0
  -30.7801  -16.6587   22.6893 H   0  0  0  0  0  0
  -31.6344  -16.8198   21.1931 H   0  0  0  0  0  0
  -28.8801  -24.2514   19.1348 H   0  0  0  0  0  0
  -27.1929  -24.1691   19.5872 H   0  0  0  0  0  0
  -27.6680  -25.5303   21.6489 H   0  0  0  0  0  0
  -29.3726  -25.4474   21.3181 H   0  0  0  0  0  0
  -27.8345  -22.8799   21.6678 H   0  0  0  0  0  0
  -29.5172  -22.9784   21.1552 H   0  0  0  0  0  0
  -29.1675  -15.1496   21.6528 H   0  0  0  0  0  0
  1 25  1  0  0  0
  1 30  2  0  0  0
  1 81  1  0  0  0
  2  3  1  0  0  0
  2 25  1  0  0  0
  2 85  1  0  0  0
  2 86  1  0  0  0
  3  4  1  0  0  0
  3 87  1  0  0  0
  3 88  1  0  0  0
  4  5  1  0  0  0
  4 89  1  0  0  0
  4 90  1  0  0  0
  5  6  1  0  0  0
  5 26  1  0  0  0
  5 91  1  0  0  0
  6 25  1  0  0  0
  6 92  1  0  0  0
  6 93  1  0  0  0
  7  8  2  0  0  0
  7 26  1  0  0  0
  7 29  1  0  0  0
  8  9  1  0  0  0
  8 22  1  0  0  0
  9 10  1  0  0  0
  9 27  2  0  0  0
 10 11  2  0  0  0
 10 15  1  0  0  0
 11 12  1  0  0  0
 11 94  1  0  0  0
 12 13  2  0  0  0
 12 95  1  0  0  0
 13 14  1  0  0  0
 13 31  1  0  0  0
 14 15  2  0  0  0
 14 96  1  0  0  0
 15 97  1  0  0  0
 16 17  2  0  0  0
 16 21  1  0  0  0
 16 31  1  0  0  0
 17 18  1  0  0  0
 17 98  1  0  0  0
 18 19  2  0  0  0
 18 99  1  0  0  0
 19 20  1  0  0  0
 19 24  1  0  0  0
 20 21  2  0  0  0
 20100  1  0  0  0
 21 23  1  0  0  0
 22 28  1  0  0  0
 22 32  2  0  0  0
 26 27  1  0  0  0
 28101  1  0  0  0
 28102  1  0  0  0
 29103  1  0  0  0
 29104  1  0  0  0
 33 34  1  0  0  0
 33 66  1  0  0  0
 33 70  2  0  0  0
 34 36  1  0  0  0
 34 59  1  0  0  0
 34105  1  0  0  0
 35 44  2  0  0  0
 35 45  1  0  0  0
 35 68  1  0  0  0
 36 56  1  0  0  0
 36106  1  0  0  0
 37 39  1  0  0  0
 37 47  1  0  0  0
 37 66  1  0  0  0
 37107  1  0  0  0
 38 43  2  0  0  0
 38 46  1  0  0  0
 38 47  1  0  0  0
 39 64  1  0  0  0
 39 67  2  0  0  0
 40 52  1  0  0  0
 40 53  2  0  0  0
 40 58  1  0  0  0
 41108  1  0  0  0
 41109  1  0  0  0
 41110  1  0  0  0
 41 48  1  0  0  0
 42 43  1  0  0  0
 42 66  1  0  0  0
 42111  1  0  0  0
 42112  1  0  0  0
 43 44  1  0  0  0
 44113  1  0  0  0
 45 46  2  0  0  0
 45114  1  0  0  0
 46115  1  0  0  0
 47116  1  0  0  0
 47117  1  0  0  0
 48 56  1  0  0  0
 48 65  1  0  0  0
 48118  1  0  0  0
 49 50  1  0  0  0
 49 53  1  0  0  0
 49 64  1  0  0  0
 49119  1  0  0  0
 50 51  1  0  0  0
 50120  1  0  0  0
 50121  1  0  0  0
 51 52  1  0  0  0
 51122  1  0  0  0
 51123  1  0  0  0
 52124  1  0  0  0
 52125  1  0  0  0
 53 54  1  0  0  0
 54 55  2  0  0  0
 54126  1  0  0  0
 55 57  1  0  0  0
 55127  1  0  0  0
 56 69  2  0  0  0
 57 58  2  0  0  0
 57128  1  0  0  0
 58129  1  0  0  0
 59 60  1  0  0  0
 59 61  1  0  0  0
 59 62  1  0  0  0
 60130  1  0  0  0
 60131  1  0  0  0
 60132  1  0  0  0
 61133  1  0  0  0
 61134  1  0  0  0
 61135  1  0  0  0
 62136  1  0  0  0
 62137  1  0  0  0
 62138  1  0  0  0
 63 65  1  0  0  0
 63139  1  0  0  0
 63140  1  0  0  0
 63141  1  0  0  0
 64142  1  0  0  0
 65143  1  0  0  0
 68 79  1  0  0  0
 71 74  2  0  0  0
 71 75  1  0  0  0
 71144  1  0  0  0
 72 74  1  0  0  0
 72 76  2  0  0  0
 72145  1  0  0  0
 73 75  2  0  0  0
 73 76  1  0  0  0
 73 77  1  0  0  0
 74 82  1  0  0  0
 75 83  1  0  0  0
 76 84  1  0  0  0
 77 81  1  0  0  0
 77146  1  0  0  0
 77147  1  0  0  0
 78 79  1  0  0  0
 78 80  1  0  0  0
 78148  1  0  0  0
 78149  1  0  0  0
 79150  1  0  0  0
 79151  1  0  0  0
 80 82  1  0  0  0
 80152  1  0  0  0
 80153  1  0  0  0
 81154  1  0  0  0
M  ISO  4   1 100  68 101  79 101  81 100
M  END
> <chiral flag>
0

> <version>
0

> <s_m_source_file>
/data/baiqing/PycharmProjects/Reinvent-master-3.2/result/LINK_invent/BTK/process_docking_weight1_custom_sum_contain_oxygen_bond_distance_aromatic_linkinvent_7_9_3/rearranged_h_0019.sdf

> <i_m_source_file_index>
44

> <r_mmod_Potential_Energy-OPLS-2005>
-72.182258605957

> <r_mmod_Stretch_Energy-OPLS-2005>
37.8708877563477

> <r_mmod_Bend_Energy-OPLS-2005>
106.27180480957

> <r_mmod_Torsional_Energy-OPLS-2005>
212.062957763672

> <r_mmod_Improper_Torsional_Energy-OPLS-2005>
2.86330890655518

> <r_mmod_Van_der_Waal_Energy-OPLS-2005>
157.156433105469

> <r_mmod_Electrostatic_Energy-OPLS-2005>
-389.213043212891

> <r_mmod_Solvation_Energy-OPLS-2005>
-208.499862670898

> <b_mmod_Minimization_Converged-OPLS-2005>
0

> <r_mmod_RMS_Derivative-OPLS-2005>
3.0156946182251

$$$$
44
                    3D
 Structure written by MMmdl.
163171  0  0  1  0            999 V2000
  -30.3895  -15.3730   20.3229 C   0  0  0  0  0  0
  -30.4443  -12.8808   19.5192 C   0  0  0  0  0  0
  -29.5408  -12.5814   18.2937 C   0  0  0  0  0  0
  -28.1003  -12.2827   18.7392 C   0  0  0  0  0  0
  -27.6097  -13.2811   19.8145 C   0  0  2  0  0  0
  -28.6440  -13.5115   20.9402 C   0  0  0  0  0  0
  -25.2388  -13.8271   20.5759 C   0  0  0  0  0  0
  -24.1736  -13.0456   20.9319 C   0  0  0  0  0  0
  -24.6394  -11.6967   20.8795 C   0  0  0  0  0  0
  -23.9081  -10.4318   21.0431 C   0  0  0  0  0  0
  -24.3632   -9.4220   21.9196 C   0  0  0  0  0  0
  -23.6307   -8.2250   22.0736 C   0  0  0  0  0  0
  -22.4285   -8.0288   21.3532 C   0  0  0  0  0  0
  -21.9942   -9.0271   20.4631 C   0  0  0  0  0  0
  -22.7267  -10.2153   20.3060 C   0  0  0  0  0  0
  -21.6853   -6.0749   22.5293 C   0  0  0  0  0  0
  -21.4005   -6.5650   23.8222 C   0  0  0  0  0  0
  -21.3648   -5.6795   24.9186 C   0  0  0  0  0  0
  -21.6044   -4.3062   24.7234 C   0  0  0  0  0  0
  -21.8820   -3.8157   23.4356 C   0  0  0  0  0  0
  -21.9191   -4.6982   22.3410 C   0  0  0  0  0  0
  -22.7755  -13.5224   21.1989 C   0  0  0  0  0  0
  -22.1663   -4.2162   21.0988 F   0  0  0  0  0  0
  -21.5625   -3.4538   25.7745 F   0  0  0  0  0  0
  -29.8599  -14.0398   20.2976 N   0  0  0  0  0  0
  -26.2812  -12.9555   20.3209 N   0  0  0  0  0  0
  -25.9329  -11.6663   20.5718 N   0  0  0  0  0  0
  -22.0378  -12.8164   22.0506 N   0  0  0  0  0  0
  -25.4045  -15.1981   20.4168 N   0  0  0  0  0  0
  -31.6175  -15.3768   20.1336 O   0  0  0  0  0  0
  -21.6638   -6.8893   21.4243 O   0  0  0  0  0  0
  -22.3442  -14.5546   20.6863 O   0  0  0  0  0  0
  -24.6691  -31.8170   23.1596 C   0  0  0  0  0  0
  -25.9356  -32.4514   23.8098 C   0  0  1  0  0  0
  -27.2330  -26.8773   20.1771 C   0  0  0  0  0  0
  -25.5993  -33.8325   24.1994 N   0  0  0  0  0  0
  -23.4892  -30.4291   21.5040 C   0  0  2  0  0  0
  -24.9446  -28.7960   20.1007 C   0  0  0  0  0  0
  -22.7714  -29.4445   22.4650 C   0  0  0  0  0  0
  -18.0373  -28.1407   22.8458 C   0  0  0  0  0  0
  -24.1520  -36.7190   23.2654 C   0  0  0  0  0  0
  -26.0613  -30.6015   21.4008 C   0  0  0  0  0  0
  -26.1248  -29.1879   20.7405 C   0  0  0  0  0  0
  -27.2558  -28.2451   20.7618 C   0  0  0  0  0  0
  -26.0287  -26.6467   19.4812 C   0  0  0  0  0  0
  -24.9214  -27.5429   19.4559 C   0  0  0  0  0  0
  -23.7356  -29.7347   20.1334 C   0  0  0  0  0  0
  -25.4144  -36.2880   24.0284 C   0  0  1  0  0  0
  -20.6007  -28.3761   23.1149 C   0  0  2  0  0  0
  -20.6820  -26.9427   22.5385 C   0  0  0  0  0  0
  -19.5778  -26.6362   21.5207 C   0  0  0  0  0  0
  -18.1972  -26.7957   22.1614 C   0  0  0  0  0  0
  -19.1645  -28.8892   23.2817 C   0  0  0  0  0  0
  -18.9538  -30.1487   23.8841 C   0  0  0  0  0  0
  -17.6521  -30.6568   24.0545 C   0  0  0  0  0  0
  -25.9130  -34.9286   23.4959 C   0  0  0  0  0  0
  -16.5419  -29.9060   23.6317 C   0  0  0  0  0  0
  -16.7357  -28.6492   23.0326 C   0  0  0  0  0  0
  -26.4575  -31.6511   25.0673 C   0  0  0  0  0  0
  -25.3654  -31.3795   26.1292 C   0  0  0  0  0  0
  -27.0474  -30.2867   24.6466 C   0  0  0  0  0  0
  -27.6048  -32.4351   25.7470 C   0  0  0  0  0  0
  -27.5568  -37.1726   24.8459 C   0  0  0  0  0  0
  -21.4359  -29.3093   22.3470 N   0  0  0  0  0  0
  -26.4278  -37.3627   23.9401 N   0  0  0  0  0  0
  -24.7614  -30.9800   22.0742 N   0  0  0  0  0  0
  -23.4258  -28.7996   23.2880 O   0  0  0  0  0  0
  -28.2330  -25.7637   20.3284 O   0  0  0  0  0  0
  -26.5758  -34.8848   22.4573 O   0  0  0  0  0  0
  -23.5753  -32.1189   23.6650 O   0  0  0  0  0  0
  -28.5600  -19.4061   20.3192 C   0  0  0  0  0  0
  -30.6942  -19.1310   20.1611 C   0  0  0  0  0  0
  -29.6095  -18.2827   20.2805 C   0  0  0  0  0  0
  -28.9573  -20.8245   20.2492 C   0  0  0  0  0  0
  -32.2643  -24.3564   21.3354 C   0  0  0  0  0  0
  -27.8800  -22.6122   21.9160 C   0  0  0  0  0  0
  -26.7901  -22.1548   19.7680 C   0  0  0  0  0  0
  -31.8979  -23.0465   22.0512 C   0  0  0  0  0  0
  -32.2288  -21.7745   21.2526 C   0  0  0  0  0  0
  -31.3667  -21.5650   19.9854 C   0  0  0  0  0  0
  -28.4152  -24.1680   19.8273 C   0  0  0  0  0  0
  -28.1612  -22.4333   20.4132 C   0  0  0  0  0  0
  -30.3456  -20.5395   20.1430 N   0  0  0  0  0  0
  -29.5608  -16.6313   20.3666 N   0  0  0  0  0  0
  -31.4538  -13.1092   19.1748 H   0  0  0  0  0  0
  -30.5451  -11.9987   20.1524 H   0  0  0  0  0  0
  -29.9433  -11.7415   17.7252 H   0  0  0  0  0  0
  -29.5373  -13.4359   17.6160 H   0  0  0  0  0  0
  -28.0932  -11.2753   19.1572 H   0  0  0  0  0  0
  -27.4254  -12.2679   17.8841 H   0  0  0  0  0  0
  -27.5080  -14.2276   19.2821 H   0  0  0  0  0  0
  -28.8384  -12.6003   21.5071 H   0  0  0  0  0  0
  -28.2724  -14.2517   21.6514 H   0  0  0  0  0  0
  -25.2765   -9.5714   22.4791 H   0  0  0  0  0  0
  -24.0021   -7.4634   22.7447 H   0  0  0  0  0  0
  -21.0878   -8.8810   19.8918 H   0  0  0  0  0  0
  -22.3728  -10.9713   19.6181 H   0  0  0  0  0  0
  -21.1984   -7.6150   23.9748 H   0  0  0  0  0  0
  -21.1463   -6.0509   25.9087 H   0  0  0  0  0  0
  -22.0603   -2.7620   23.2860 H   0  0  0  0  0  0
  -22.3977  -11.9802   22.4869 H   0  0  0  0  0  0
  -21.0978  -13.1153   22.2703 H   0  0  0  0  0  0
  -24.6434  -15.8584   20.5330 H   0  0  0  0  0  0
  -26.2447  -15.6295   20.0560 H   0  0  0  0  0  0
  -26.7428  -32.4987   23.0802 H   0  0  0  0  0  0
  -25.0031  -33.9336   25.0072 H   0  0  0  0  0  0
  -22.8073  -31.2631   21.3209 H   0  0  0  0  0  0
  -23.3752  -35.9559   23.3269 H   0  0  0  0  0  0
  -24.3620  -36.8909   22.2088 H   0  0  0  0  0  0
  -23.7343  -37.6377   23.6770 H   0  0  0  0  0  0
  -26.2528  -31.3347   20.6162 H   0  0  0  0  0  0
  -26.9201  -30.6619   22.0579 H   0  0  0  0  0  0
  -28.1324  -28.5334   21.3247 H   0  0  0  0  0  0
  -25.9123  -25.6805   19.0120 H   0  0  0  0  0  0
  -24.0185  -27.2252   18.9559 H   0  0  0  0  0  0
  -23.9053  -30.5051   19.3806 H   0  0  0  0  0  0
  -22.8416  -29.2038   19.8026 H   0  0  0  0  0  0
  -25.1357  -36.1634   25.0772 H   0  0  0  0  0  0
  -21.0135  -28.3361   24.1255 H   0  0  0  0  0  0
  -20.5685  -26.2372   23.3641 H   0  0  0  0  0  0
  -21.6674  -26.7369   22.1185 H   0  0  0  0  0  0
  -19.6936  -25.6260   21.1269 H   0  0  0  0  0  0
  -19.6714  -27.3140   20.6717 H   0  0  0  0  0  0
  -17.4243  -26.6748   21.4006 H   0  0  0  0  0  0
  -18.0324  -26.0133   22.9033 H   0  0  0  0  0  0
  -19.8022  -30.7312   24.2181 H   0  0  0  0  0  0
  -17.5070  -31.6238   24.5162 H   0  0  0  0  0  0
  -15.5404  -30.2896   23.7661 H   0  0  0  0  0  0
  -15.8796  -28.0760   22.7014 H   0  0  0  0  0  0
  -24.5899  -30.7089   25.7591 H   0  0  0  0  0  0
  -24.8766  -32.2999   26.4475 H   0  0  0  0  0  0
  -25.7844  -30.9129   27.0215 H   0  0  0  0  0  0
  -26.3136  -29.6499   24.1508 H   0  0  0  0  0  0
  -27.4020  -29.7280   25.5139 H   0  0  0  0  0  0
  -27.9070  -30.4042   23.9872 H   0  0  0  0  0  0
  -27.2626  -33.3748   26.1816 H   0  0  0  0  0  0
  -28.3956  -32.6761   25.0356 H   0  0  0  0  0  0
  -28.0614  -31.8642   26.5557 H   0  0  0  0  0  0
  -28.2484  -38.0102   24.7455 H   0  0  0  0  0  0
  -28.1146  -36.2590   24.6317 H   0  0  0  0  0  0
  -27.2262  -37.1385   25.8857 H   0  0  0  0  0  0
  -20.9568  -29.8855   21.6693 H   0  0  0  0  0  0
  -26.0098  -38.2667   24.1427 H   0  0  0  0  0  0
  -27.5112  -19.1693   20.4226 H   0  0  0  0  0  0
  -31.7414  -18.8646   20.0943 H   0  0  0  0  0  0
  -32.0076  -25.2196   21.9526 H   0  0  0  0  0  0
  -31.7455  -24.4720   20.3833 H   0  0  0  0  0  0
  -33.3348  -24.3998   21.1348 H   0  0  0  0  0  0
  -27.4800  -21.7023   22.3624 H   0  0  0  0  0  0
  -27.1437  -23.3981   22.0912 H   0  0  0  0  0  0
  -28.7726  -22.8801   22.4702 H   0  0  0  0  0  0
  -26.2584  -21.3315   20.2473 H   0  0  0  0  0  0
  -26.9045  -21.9048   18.7131 H   0  0  0  0  0  0
  -26.1435  -23.0286   19.8128 H   0  0  0  0  0  0
  -30.8446  -23.0444   22.2996 H   0  0  0  0  0  0
  -32.4231  -23.0096   23.0069 H   0  0  0  0  0  0
  -32.1301  -20.9159   21.9183 H   0  0  0  0  0  0
  -33.2848  -21.7952   20.9764 H   0  0  0  0  0  0
  -32.0079  -21.2512   19.1623 H   0  0  0  0  0  0
  -30.9020  -22.4876   19.6411 H   0  0  0  0  0  0
  -28.0440  -24.1828   18.8005 H   0  0  0  0  0  0
  -29.4907  -24.2007   19.6802 H   0  0  0  0  0  0
  -28.6065  -16.3273   20.4839 H   0  0  0  0  0  0
  1 25  1  0  0  0
  1 30  2  0  0  0
  1 84  1  0  0  0
  2  3  1  0  0  0
  2 25  1  0  0  0
  2 85  1  0  0  0
  2 86  1  0  0  0
  3  4  1  0  0  0
  3 87  1  0  0  0
  3 88  1  0  0  0
  4  5  1  0  0  0
  4 89  1  0  0  0
  4 90  1  0  0  0
  5  6  1  0  0  0
  5 26  1  0  0  0
  5 91  1  0  0  0
  6 25  1  0  0  0
  6 92  1  0  0  0
  6 93  1  0  0  0
  7  8  2  0  0  0
  7 26  1  0  0  0
  7 29  1  0  0  0
  8  9  1  0  0  0
  8 22  1  0  0  0
  9 10  1  0  0  0
  9 27  2  0  0  0
 10 11  2  0  0  0
 10 15  1  0  0  0
 11 12  1  0  0  0
 11 94  1  0  0  0
 12 13  2  0  0  0
 12 95  1  0  0  0
 13 14  1  0  0  0
 13 31  1  0  0  0
 14 15  2  0  0  0
 14 96  1  0  0  0
 15 97  1  0  0  0
 16 17  2  0  0  0
 16 21  1  0  0  0
 16 31  1  0  0  0
 17 18  1  0  0  0
 17 98  1  0  0  0
 18 19  2  0  0  0
 18 99  1  0  0  0
 19 20  1  0  0  0
 19 24  1  0  0  0
 20 21  2  0  0  0
 20100  1  0  0  0
 21 23  1  0  0  0
 22 28  1  0  0  0
 22 32  2  0  0  0
 26 27  1  0  0  0
 28101  1  0  0  0
 28102  1  0  0  0
 29103  1  0  0  0
 29104  1  0  0  0
 33 34  1  0  0  0
 33 66  1  0  0  0
 33 70  2  0  0  0
 34 36  1  0  0  0
 34 59  1  0  0  0
 34105  1  0  0  0
 35 44  2  0  0  0
 35 45  1  0  0  0
 35 68  1  0  0  0
 36 56  1  0  0  0
 36106  1  0  0  0
 37 39  1  0  0  0
 37 47  1  0  0  0
 37 66  1  0  0  0
 37107  1  0  0  0
 38 43  2  0  0  0
 38 46  1  0  0  0
 38 47  1  0  0  0
 39 64  1  0  0  0
 39 67  2  0  0  0
 40 52  1  0  0  0
 40 53  2  0  0  0
 40 58  1  0  0  0
 41108  1  0  0  0
 41109  1  0  0  0
 41110  1  0  0  0
 41 48  1  0  0  0
 42 43  1  0  0  0
 42 66  1  0  0  0
 42111  1  0  0  0
 42112  1  0  0  0
 43 44  1  0  0  0
 44113  1  0  0  0
 45 46  2  0  0  0
 45114  1  0  0  0
 46115  1  0  0  0
 47116  1  0  0  0
 47117  1  0  0  0
 48 56  1  0  0  0
 48 65  1  0  0  0
 48118  1  0  0  0
 49 50  1  0  0  0
 49 53  1  0  0  0
 49 64  1  0  0  0
 49119  1  0  0  0
 50 51  1  0  0  0
 50120  1  0  0  0
 50121  1  0  0  0
 51 52  1  0  0  0
 51122  1  0  0  0
 51123  1  0  0  0
 52124  1  0  0  0
 52125  1  0  0  0
 53 54  1  0  0  0
 54 55  2  0  0  0
 54126  1  0  0  0
 55 57  1  0  0  0
 55127  1  0  0  0
 56 69  2  0  0  0
 57 58  2  0  0  0
 57128  1  0  0  0
 58129  1  0  0  0
 59 60  1  0  0  0
 59 61  1  0  0  0
 59 62  1  0  0  0
 60130  1  0  0  0
 60131  1  0  0  0
 60132  1  0  0  0
 61133  1  0  0  0
 61134  1  0  0  0
 61135  1  0  0  0
 62136  1  0  0  0
 62137  1  0  0  0
 62138  1  0  0  0
 63 65  1  0  0  0
 63139  1  0  0  0
 63140  1  0  0  0
 63141  1  0  0  0
 64142  1  0  0  0
 65143  1  0  0  0
 68 81  1  0  0  0
 71 73  1  0  0  0
 71 74  2  0  0  0
 71144  1  0  0  0
 72 73  2  0  0  0
 72 83  1  0  0  0
 72145  1  0  0  0
 73 84  1  0  0  0
 74 82  1  0  0  0
 74 83  1  0  0  0
 75 78  1  0  0  0
 75146  1  0  0  0
 75147  1  0  0  0
 75148  1  0  0  0
 76149  1  0  0  0
 76150  1  0  0  0
 76151  1  0  0  0
 76 82  1  0  0  0
 77 82  1  0  0  0
 77152  1  0  0  0
 77153  1  0  0  0
 77154  1  0  0  0
 78 79  1  0  0  0
 78155  1  0  0  0
 78156  1  0  0  0
 79 80  1  0  0  0
 79157  1  0  0  0
 79158  1  0  0  0
 80 83  1  0  0  0
 80159  1  0  0  0
 80160  1  0  0  0
 81 82  1  0  0  0
 81161  1  0  0  0
 81162  1  0  0  0
 84163  1  0  0  0
M  ISO  4   1 100  68 101  81 101  84 100
M  END
> <chiral flag>
0

> <version>
0

> <s_m_source_file>
/data/baiqing/PycharmProjects/Reinvent-master-3.2/result/LINK_invent/BTK/process_docking_weight1_custom_sum_contain_oxygen_bond_distance_aromatic_linkinvent_7_9_3/rearranged_h_0019.sdf

> <i_m_source_file_index>
45

> <r_mmod_Potential_Energy-OPLS-2005>
1604.89184570312

> <r_mmod_Stretch_Energy-OPLS-2005>
683.594848632812

> <r_mmod_Bend_Energy-OPLS-2005>
555.386474609375

> <r_mmod_Torsional_Energy-OPLS-2005>
262.358123779297

> <r_mmod_Improper_Torsional_Energy-OPLS-2005>
4.59053754806519

> <r_mmod_Van_der_Waal_Energy-OPLS-2005>
99.2853317260742

> <r_mmod_Electrostatic_Energy-OPLS-2005>
-363.343017578125

> <r_mmod_Solvation_Energy-OPLS-2005>
-205.522644042969

> <b_mmod_Minimization_Converged-OPLS-2005>
0

> <r_mmod_RMS_Derivative-OPLS-2005>
4.81984996795654

$$$$
45
                    3D
 Structure written by MMmdl.
199207  0  0  1  0            999 V2000
  -30.8284  -14.3279   20.5967 C   0  0  0  0  0  0
  -30.3805  -12.2291   19.4192 C   0  0  0  0  0  0
  -29.4890  -12.5162   18.2011 C   0  0  0  0  0  0
  -28.0110  -12.3998   18.6094 C   0  0  0  0  0  0
  -27.6684  -13.2165   19.8856 C   0  0  2  0  0  0
  -28.7115  -12.9944   21.0144 C   0  0  0  0  0  0
  -25.2578  -13.8161   20.5593 C   0  0  0  0  0  0
  -24.1884  -13.0427   20.9100 C   0  0  0  0  0  0
  -24.6461  -11.6873   20.8742 C   0  0  0  0  0  0
  -23.9137  -10.4276   21.0457 C   0  0  0  0  0  0
  -24.3658   -9.4186   21.9269 C   0  0  0  0  0  0
  -23.6313   -8.2214   22.0794 C   0  0  0  0  0  0
  -22.4314   -8.0296   21.3526 C   0  0  0  0  0  0
  -21.9964   -9.0325   20.4643 C   0  0  0  0  0  0
  -22.7307  -10.2198   20.3086 C   0  0  0  0  0  0
  -21.6842   -6.0735   22.5292 C   0  0  0  0  0  0
  -21.4001   -6.5632   23.8247 C   0  0  0  0  0  0
  -21.3672   -5.6796   24.9221 C   0  0  0  0  0  0
  -21.6032   -4.3058   24.7268 C   0  0  0  0  0  0
  -21.8802   -3.8125   23.4396 C   0  0  0  0  0  0
  -21.9190   -4.6938   22.3446 C   0  0  0  0  0  0
  -22.7895  -13.5230   21.1723 C   0  0  0  0  0  0
  -22.1647   -4.2114   21.1027 F   0  0  0  0  0  0
  -21.5614   -3.4548   25.7786 F   0  0  0  0  0  0
  -30.0623  -13.2153   20.4635 N   0  0  0  0  0  0
  -26.3080  -12.9383   20.3376 N   0  0  0  0  0  0
  -25.9441  -11.6508   20.5844 N   0  0  0  0  0  0
  -22.0437  -12.8380   22.0267 N   0  0  0  0  0  0
  -25.4110  -15.1925   20.3873 N   0  0  0  0  0  0
  -31.8730  -14.4836   19.9565 O   0  0  0  0  0  0
  -21.6657   -6.8914   21.4246 O   0  0  0  0  0  0
  -22.3682  -14.5612   20.6599 O   0  0  0  0  0  0
  -24.6165  -31.8756   23.2176 C   0  0  0  0  0  0
  -25.9047  -32.4867   23.8518 C   0  0  1  0  0  0
  -27.1805  -27.4096   20.0724 C   0  0  0  0  0  0
  -25.5927  -33.8682   24.2461 N   0  0  0  0  0  0
  -23.4051  -30.4983   21.5580 C   0  0  2  0  0  0
  -24.8538  -28.9982   20.0757 C   0  0  0  0  0  0
  -22.7463  -29.4658   22.5039 C   0  0  0  0  0  0
  -18.0369  -28.1359   22.8433 C   0  0  0  0  0  0
  -24.1473  -36.7352   23.2637 C   0  0  0  0  0  0
  -25.9384  -30.8053   21.3999 C   0  0  0  0  0  0
  -26.0041  -29.4459   20.7390 C   0  0  0  0  0  0
  -27.1631  -28.6343   20.7817 C   0  0  0  0  0  0
  -26.0899  -27.1070   19.2434 C   0  0  0  0  0  0
  -24.8920  -27.8230   19.3211 C   0  0  0  0  0  0
  -23.6181  -29.8609   20.1572 C   0  0  0  0  0  0
  -25.4088  -36.3170   24.0384 C   0  0  1  0  0  0
  -20.5932  -28.3607   23.1394 C   0  0  2  0  0  0
  -20.6774  -26.9368   22.5460 C   0  0  0  0  0  0
  -19.5907  -26.6541   21.5069 C   0  0  0  0  0  0
  -18.1970  -26.8026   22.1248 C   0  0  0  0  0  0
  -19.1596  -28.8778   23.2950 C   0  0  0  0  0  0
  -18.9559  -30.1341   23.9057 C   0  0  0  0  0  0
  -17.6538  -30.6493   24.0657 C   0  0  0  0  0  0
  -25.9030  -34.9500   23.5216 C   0  0  0  0  0  0
  -16.5436  -29.9025   23.6357 C   0  0  0  0  0  0
  -16.7351  -28.6432   23.0341 C   0  0  0  0  0  0
  -26.4450  -31.6640   25.0822 C   0  0  0  0  0  0
  -25.3690  -31.3707   26.1538 C   0  0  0  0  0  0
  -27.0295  -30.3102   24.6207 C   0  0  0  0  0  0
  -27.6128  -32.4274   25.7501 C   0  0  0  0  0  0
  -27.5608  -37.1826   24.8465 C   0  0  0  0  0  0
  -21.4186  -29.3022   22.3805 N   0  0  0  0  0  0
  -26.4321  -37.3821   23.9396 N   0  0  0  0  0  0
  -24.6702  -31.0728   22.1172 N   0  0  0  0  0  0
  -23.4221  -28.8215   23.3095 O   0  0  0  0  0  0
  -28.2165  -26.5150   20.2225 O   0  0  0  0  0  0
  -26.5580  -34.8946   22.4770 O   0  0  0  0  0  0
  -23.5333  -32.1627   23.7459 O   0  0  0  0  0  0
  -28.9208  -21.1920   19.5987 C   0  0  0  0  0  0
  -26.3467  -22.2361   18.6921 C   0  0  0  0  0  0
  -28.3965  -19.0994   18.2485 C   0  0  0  0  0  0
  -30.7149  -18.6865   18.8175 C   0  0  0  0  0  0
  -28.7529  -19.6453   19.6453 C   0  0  1  0  0  0
  -29.6801  -18.4615   17.6972 C   0  0  0  0  0  0
  -26.7860  -22.8984   17.3885 C   0  0  0  0  0  0
  -29.4857  -16.9615   17.3849 C   0  0  0  0  0  0
  -30.1401  -19.1465   16.4056 C   0  0  0  0  0  0
  -26.1625  -23.7509   23.0605 C   0  0  0  0  0  0
  -31.4959  -16.6657   23.7495 C   0  0  0  0  0  0
  -33.2772  -16.6599   21.9975 C   0  0  0  0  0  0
  -28.8935  -17.9708   22.2224 C   0  0  0  0  0  0
  -25.3515  -24.5357   20.2515 C   0  0  0  0  0  0
  -28.2633  -21.4385   21.8903 C   0  0  0  0  0  0
  -27.0642  -24.4819   22.0381 C   0  0  0  0  0  0
  -27.9966  -25.1202   19.8440 C   0  0  0  0  0  0
  -26.9782  -22.6660   20.0946 C   0  0  2  0  0  0
  -31.8412  -17.1326   22.3202 C   0  0  0  0  0  0
  -30.8379  -16.6999   21.2121 C   0  0  2  0  0  0
  -29.6372  -17.6563   20.9038 C   0  0  2  0  0  0
  -26.8627  -24.2036   20.5167 C   0  0  2  0  0  0
  -25.4879  -21.3116   18.5300 N   0  0  0  0  0  0
  -30.3719  -15.3079   21.3821 N   0  0  0  0  0  0
  -28.2081  -21.9078   20.4964 N   0  0  0  0  0  0
  -29.9698  -18.8979   20.0932 N   0  3  1  0  0  0
  -29.5151  -21.7276   18.6603 O   0  0  0  0  0  0
  -24.9043  -20.3561   19.9155 Cl  0  0  0  0  0  0
  -31.4352  -12.2281   19.1306 H   0  0  0  0  0  0
  -30.1786  -11.2270   19.8019 H   0  0  0  0  0  0
  -29.7183  -11.8350   17.3790 H   0  0  0  0  0  0
  -29.6942  -13.5228   17.8274 H   0  0  0  0  0  0
  -27.7936  -11.3466   18.7817 H   0  0  0  0  0  0
  -27.3805  -12.7093   17.7782 H   0  0  0  0  0  0
  -27.7063  -14.2662   19.5994 H   0  0  0  0  0  0
  -28.6522  -11.9714   21.3955 H   0  0  0  0  0  0
  -28.4883  -13.6384   21.8658 H   0  0  0  0  0  0
  -25.2791   -9.5629   22.4906 H   0  0  0  0  0  0
  -23.9921   -7.4615   22.7602 H   0  0  0  0  0  0
  -21.0836   -8.8987   19.9034 H   0  0  0  0  0  0
  -22.3820  -10.9817   19.6238 H   0  0  0  0  0  0
  -21.1998   -7.6146   23.9794 H   0  0  0  0  0  0
  -21.1502   -6.0480   25.9164 H   0  0  0  0  0  0
  -22.0566   -2.7570   23.2897 H   0  0  0  0  0  0
  -22.3830  -12.0061   22.4835 H   0  0  0  0  0  0
  -21.1155  -13.1708   22.2490 H   0  0  0  0  0  0
  -24.5917  -15.7895   20.4164 H   0  0  0  0  0  0
  -26.2191  -15.6588   19.9994 H   0  0  0  0  0  0
  -26.7112  -32.5527   23.1294 H   0  0  0  0  0  0
  -25.0040  -33.9851   25.0586 H   0  0  0  0  0  0
  -22.6867  -31.3108   21.4287 H   0  0  0  0  0  0
  -23.3750  -35.9656   23.3246 H   0  0  0  0  0  0
  -24.3632  -36.8977   22.2065 H   0  0  0  0  0  0
  -23.7176  -37.6563   23.6631 H   0  0  0  0  0  0
  -26.0456  -31.5544   20.6158 H   0  0  0  0  0  0
  -26.8330  -30.8638   22.0078 H   0  0  0  0  0  0
  -28.0201  -28.9035   21.3819 H   0  0  0  0  0  0
  -26.1285  -26.2793   18.5538 H   0  0  0  0  0  0
  -24.0337  -27.5102   18.7417 H   0  0  0  0  0  0
  -23.7182  -30.6494   19.4075 H   0  0  0  0  0  0
  -22.7437  -29.2765   19.8703 H   0  0  0  0  0  0
  -25.1190  -36.2142   25.0880 H   0  0  0  0  0  0
  -20.9984  -28.3024   24.1557 H   0  0  0  0  0  0
  -20.5473  -26.2236   23.3634 H   0  0  0  0  0  0
  -21.6666  -26.7294   22.1387 H   0  0  0  0  0  0
  -19.7158  -25.6547   21.0875 H   0  0  0  0  0  0
  -19.7037  -27.3491   20.6756 H   0  0  0  0  0  0
  -17.4426  -26.7188   21.3435 H   0  0  0  0  0  0
  -18.0121  -25.9896   22.8294 H   0  0  0  0  0  0
  -19.8048  -30.7106   24.2518 H   0  0  0  0  0  0
  -17.5097  -31.6112   24.5358 H   0  0  0  0  0  0
  -15.5451  -30.2899   23.7734 H   0  0  0  0  0  0
  -15.8782  -28.0802   22.6962 H   0  0  0  0  0  0
  -24.5920  -30.7002   25.7811 H   0  0  0  0  0  0
  -24.8768  -32.2826   26.4992 H   0  0  0  0  0  0
  -25.8020  -30.8899   27.0331 H   0  0  0  0  0  0
  -26.2886  -29.6839   24.1215 H   0  0  0  0  0  0
  -27.4044  -29.7349   25.4685 H   0  0  0  0  0  0
  -27.8718  -30.4410   23.9385 H   0  0  0  0  0  0
  -27.2964  -33.3615   26.2158 H   0  0  0  0  0  0
  -28.3902  -32.6779   25.0248 H   0  0  0  0  0  0
  -28.0860  -31.8313   26.5328 H   0  0  0  0  0  0
  -28.2611  -38.0134   24.7549 H   0  0  0  0  0  0
  -28.1131  -36.2699   24.6219 H   0  0  0  0  0  0
  -27.2356  -37.1352   25.8873 H   0  0  0  0  0  0
  -20.9303  -29.8841   21.7124 H   0  0  0  0  0  0
  -26.0267  -38.2925   24.1391 H   0  0  0  0  0  0
  -28.0161  -19.8794   17.5875 H   0  0  0  0  0  0
  -27.5879  -18.3702   18.3243 H   0  0  0  0  0  0
  -31.2648  -19.6156   18.6357 H   0  0  0  0  0  0
  -31.5024  -17.9439   18.7900 H   0  0  0  0  0  0
  -27.8865  -19.4330   20.2619 H   0  0  0  0  0  0
  -27.3957  -23.7705   17.5089 H   0  0  0  0  0  0
  -25.9190  -23.2124   16.8006 H   0  0  0  0  0  0
  -27.3634  -22.2088   16.7750 H   0  0  0  0  0  0
  -29.2561  -16.3712   18.2711 H   0  0  0  0  0  0
  -30.3804  -16.5289   16.9330 H   0  0  0  0  0  0
  -28.6682  -16.8103   16.6773 H   0  0  0  0  0  0
  -30.2576  -20.2206   16.5420 H   0  0  0  0  0  0
  -29.4129  -19.0056   15.6046 H   0  0  0  0  0  0
  -31.0990  -18.7440   16.0685 H   0  0  0  0  0  0
  -26.2839  -24.1942   24.0514 H   0  0  0  0  0  0
  -26.3843  -22.6954   23.1657 H   0  0  0  0  0  0
  -25.1048  -23.8380   22.8307 H   0  0  0  0  0  0
  -30.4695  -16.8711   24.0425 H   0  0  0  0  0  0
  -32.1336  -17.1861   24.4676 H   0  0  0  0  0  0
  -31.6604  -15.5944   23.8780 H   0  0  0  0  0  0
  -33.9857  -17.0804   22.7108 H   0  0  0  0  0  0
  -33.6190  -16.9609   21.0050 H   0  0  0  0  0  0
  -33.3754  -15.5735   22.0594 H   0  0  0  0  0  0
  -28.6974  -17.0567   22.7832 H   0  0  0  0  0  0
  -27.9181  -18.4272   22.0792 H   0  0  0  0  0  0
  -29.4796  -18.6280   22.8636 H   0  0  0  0  0  0
  -25.0381  -25.4550   20.7415 H   0  0  0  0  0  0
  -24.6880  -23.7758   20.6728 H   0  0  0  0  0  0
  -25.0696  -24.5963   19.1974 H   0  0  0  0  0  0
  -29.0660  -20.7296   22.0708 H   0  0  0  0  0  0
  -27.3311  -20.9606   22.2060 H   0  0  0  0  0  0
  -28.4954  -22.2536   22.5690 H   0  0  0  0  0  0
  -28.1101  -24.3656   22.3050 H   0  0  0  0  0  0
  -26.8693  -25.5439   22.1930 H   0  0  0  0  0  0
  -28.0144  -25.1099   18.7657 H   0  0  0  0  0  0
  -28.9422  -24.6467   20.1096 H   0  0  0  0  0  0
  -26.2746  -22.2557   20.8089 H   0  0  0  0  0  0
  -31.8778  -18.2239   22.3127 H   0  0  0  0  0  0
  -31.4364  -16.7073   20.3208 H   0  0  0  0  0  0
  -28.9247  -17.0920   20.3058 H   0  0  0  0  0  0
  -29.5398  -15.1260   21.9193 H   0  0  0  0  0  0
  -30.5523  -19.4979   20.6532 H   0  0  0  0  0  0
  1 25  1  0  0  0
  1 30  2  0  0  0
  1 94  1  0  0  0
  2  3  1  0  0  0
  2 25  1  0  0  0
  2 99  1  0  0  0
  2100  1  0  0  0
  3  4  1  0  0  0
  3101  1  0  0  0
  3102  1  0  0  0
  4  5  1  0  0  0
  4103  1  0  0  0
  4104  1  0  0  0
  5  6  1  0  0  0
  5 26  1  0  0  0
  5105  1  0  0  0
  6 25  1  0  0  0
  6106  1  0  0  0
  6107  1  0  0  0
  7  8  2  0  0  0
  7 26  1  0  0  0
  7 29  1  0  0  0
  8  9  1  0  0  0
  8 22  1  0  0  0
  9 10  1  0  0  0
  9 27  2  0  0  0
 10 11  2  0  0  0
 10 15  1  0  0  0
 11 12  1  0  0  0
 11108  1  0  0  0
 12 13  2  0  0  0
 12109  1  0  0  0
 13 14  1  0  0  0
 13 31  1  0  0  0
 14 15  2  0  0  0
 14110  1  0  0  0
 15111  1  0  0  0
 16 17  2  0  0  0
 16 21  1  0  0  0
 16 31  1  0  0  0
 17 18  1  0  0  0
 17112  1  0  0  0
 18 19  2  0  0  0
 18113  1  0  0  0
 19 20  1  0  0  0
 19 24  1  0  0  0
 20 21  2  0  0  0
 20114  1  0  0  0
 21 23  1  0  0  0
 22 28  1  0  0  0
 22 32  2  0  0  0
 26 27  1  0  0  0
 28115  1  0  0  0
 28116  1  0  0  0
 29117  1  0  0  0
 29118  1  0  0  0
 33 34  1  0  0  0
 33 66  1  0  0  0
 33 70  2  0  0  0
 34 36  1  0  0  0
 34 59  1  0  0  0
 34119  1  0  0  0
 35 44  2  0  0  0
 35 45  1  0  0  0
 35 68  1  0  0  0
 36 56  1  0  0  0
 36120  1  0  0  0
 37 39  1  0  0  0
 37 47  1  0  0  0
 37 66  1  0  0  0
 37121  1  0  0  0
 38 43  2  0  0  0
 38 46  1  0  0  0
 38 47  1  0  0  0
 39 64  1  0  0  0
 39 67  2  0  0  0
 40 52  1  0  0  0
 40 53  2  0  0  0
 40 58  1  0  0  0
 41122  1  0  0  0
 41123  1  0  0  0
 41124  1  0  0  0
 41 48  1  0  0  0
 42 43  1  0  0  0
 42 66  1  0  0  0
 42125  1  0  0  0
 42126  1  0  0  0
 43 44  1  0  0  0
 44127  1  0  0  0
 45 46  2  0  0  0
 45128  1  0  0  0
 46129  1  0  0  0
 47130  1  0  0  0
 47131  1  0  0  0
 48 56  1  0  0  0
 48 65  1  0  0  0
 48132  1  0  0  0
 49 50  1  0  0  0
 49 53  1  0  0  0
 49 64  1  0  0  0
 49133  1  0  0  0
 50 51  1  0  0  0
 50134  1  0  0  0
 50135  1  0  0  0
 51 52  1  0  0  0
 51136  1  0  0  0
 51137  1  0  0  0
 52138  1  0  0  0
 52139  1  0  0  0
 53 54  1  0  0  0
 54 55  2  0  0  0
 54140  1  0  0  0
 55 57  1  0  0  0
 55141  1  0  0  0
 56 69  2  0  0  0
 57 58  2  0  0  0
 57142  1  0  0  0
 58143  1  0  0  0
 59 60  1  0  0  0
 59 61  1  0  0  0
 59 62  1  0  0  0
 60144  1  0  0  0
 60145  1  0  0  0
 60146  1  0  0  0
 61147  1  0  0  0
 61148  1  0  0  0
 61149  1  0  0  0
 62150  1  0  0  0
 62151  1  0  0  0
 62152  1  0  0  0
 63 65  1  0  0  0
 63153  1  0  0  0
 63154  1  0  0  0
 63155  1  0  0  0
 64156  1  0  0  0
 65157  1  0  0  0
 68 87  1  0  0  0
 71 95  1  0  0  0
 71 97  2  0  0  0
 71 75  1  0  0  0
 72 77  1  0  0  0
 72 88  1  0  0  0
 72 93  2  0  0  0
 73 75  1  0  0  0
 73 76  1  0  0  0
 73158  1  0  0  0
 73159  1  0  0  0
 74 76  1  0  0  0
 74160  1  0  0  0
 74161  1  0  0  0
 74 96  1  0  0  0
 75 96  1  0  0  0
 75162  1  0  0  0
 76 78  1  0  0  0
 76 79  1  0  0  0
 77163  1  0  0  0
 77164  1  0  0  0
 77165  1  0  0  0
 78166  1  0  0  0
 78167  1  0  0  0
 78168  1  0  0  0
 79169  1  0  0  0
 79170  1  0  0  0
 79171  1  0  0  0
 80 86  1  0  0  0
 80172  1  0  0  0
 80173  1  0  0  0
 80174  1  0  0  0
 81175  1  0  0  0
 81176  1  0  0  0
 81177  1  0  0  0
 81 89  1  0  0  0
 82 89  1  0  0  0
 82178  1  0  0  0
 82179  1  0  0  0
 82180  1  0  0  0
 83181  1  0  0  0
 83182  1  0  0  0
 83183  1  0  0  0
 83 91  1  0  0  0
 84184  1  0  0  0
 84185  1  0  0  0
 84186  1  0  0  0
 84 92  1  0  0  0
 85 95  1  0  0  0
 85187  1  0  0  0
 85188  1  0  0  0
 85189  1  0  0  0
 86 92  1  0  0  0
 86190  1  0  0  0
 86191  1  0  0  0
 87 92  1  0  0  0
 87192  1  0  0  0
 87193  1  0  0  0
 88 92  1  0  0  0
 88 95  1  0  0  0
 88194  1  0  0  0
 89 90  1  0  0  0
 89195  1  0  0  0
 90 91  1  0  0  0
 90 94  1  0  0  0
 90196  1  0  0  0
 91 96  1  0  0  0
 91197  1  0  0  0
 93 98  1  0  0  0
 94198  1  0  0  0
 96199  1  0  0  0
M  CHG  1  96   1
M  ISO  4   1 100  68 101  87 101  94 100
M  END
> <chiral flag>
0

> <version>
0

> <s_m_source_file>
/data/baiqing/PycharmProjects/Reinvent-master-3.2/result/LINK_invent/BTK/process_docking_weight1_custom_sum_contain_oxygen_bond_distance_aromatic_linkinvent_7_9_3/rearranged_h_0019.sdf

> <i_m_source_file_index>
46

> <r_mmod_Potential_Energy-OPLS-2005>
220.668975830078

> <r_mmod_Stretch_Energy-OPLS-2005>
77.4518814086914

> <r_mmod_Bend_Energy-OPLS-2005>
239.256332397461

> <r_mmod_Torsional_Energy-OPLS-2005>
456.936065673828

> <r_mmod_Improper_Torsional_Energy-OPLS-2005>
8.93142890930176

> <r_mmod_Van_der_Waal_Energy-OPLS-2005>
198.323059082031

> <r_mmod_Electrostatic_Energy-OPLS-2005>
-389.240417480469

> <r_mmod_Solvation_Energy-OPLS-2005>
-417.169555664062

> <b_mmod_Minimization_Converged-OPLS-2005>
0

> <r_mmod_RMS_Derivative-OPLS-2005>
9.51029682159424

$$$$
46
                    3D
 Structure written by MMmdl.
159167  0  0  1  0            999 V2000
  -30.5323  -14.8580   20.4333 C   0  0  0  0  0  0
  -30.4474  -12.5248   19.4894 C   0  0  0  0  0  0
  -29.5193  -12.5237   18.2509 C   0  0  0  0  0  0
  -28.0477  -12.3242   18.6640 C   0  0  0  0  0  0
  -27.6385  -13.2345   19.8512 C   0  0  2  0  0  0
  -28.6823  -13.1922   20.9891 C   0  0  0  0  0  0
  -25.2474  -13.8178   20.5672 C   0  0  0  0  0  0
  -24.1775  -13.0426   20.9220 C   0  0  0  0  0  0
  -24.6375  -11.6909   20.8762 C   0  0  0  0  0  0
  -23.9059  -10.4289   21.0419 C   0  0  0  0  0  0
  -24.3599   -9.4191   21.9187 C   0  0  0  0  0  0
  -23.6278   -8.2228   22.0742 C   0  0  0  0  0  0
  -22.4254   -8.0284   21.3545 C   0  0  0  0  0  0
  -21.9905   -9.0255   20.4638 C   0  0  0  0  0  0
  -22.7236  -10.2132   20.3069 C   0  0  0  0  0  0
  -21.6842   -6.0740   22.5286 C   0  0  0  0  0  0
  -21.4004   -6.5638   23.8221 C   0  0  0  0  0  0
  -21.3664   -5.6781   24.9181 C   0  0  0  0  0  0
  -21.6050   -4.3049   24.7215 C   0  0  0  0  0  0
  -21.8819   -3.8145   23.4330 C   0  0  0  0  0  0
  -21.9179   -4.6968   22.3388 C   0  0  0  0  0  0
  -22.7794  -13.5205   21.1879 C   0  0  0  0  0  0
  -22.1655   -4.2158   21.0966 F   0  0  0  0  0  0
  -21.5625   -3.4529   25.7725 F   0  0  0  0  0  0
  -29.9744  -13.5898   20.4107 N   0  0  0  0  0  0
  -26.2910  -12.9394   20.3276 N   0  0  0  0  0  0
  -25.9306  -11.6534   20.5759 N   0  0  0  0  0  0
  -22.0434  -12.8217   22.0449 N   0  0  0  0  0  0
  -25.4124  -15.1906   20.4041 N   0  0  0  0  0  0
  -31.7110  -14.9933   20.0845 O   0  0  0  0  0  0
  -21.6619   -6.8883   21.4251 O   0  0  0  0  0  0
  -22.3485  -14.5507   20.6719 O   0  0  0  0  0  0
  -24.6388  -31.8484   23.1935 C   0  0  0  0  0  0
  -25.9193  -32.4716   23.8287 C   0  0  1  0  0  0
  -27.2154  -27.1912   20.1362 C   0  0  0  0  0  0
  -25.5958  -33.8520   24.2205 N   0  0  0  0  0  0
  -23.4392  -30.4699   21.5379 C   0  0  2  0  0  0
  -24.8863  -28.9082   20.1099 C   0  0  0  0  0  0
  -22.7554  -29.4569   22.4887 C   0  0  0  0  0  0
  -18.0304  -28.1387   22.8482 C   0  0  0  0  0  0
  -24.1491  -36.7266   23.2639 C   0  0  0  0  0  0
  -25.9932  -30.7383   21.3855 C   0  0  0  0  0  0
  -26.0637  -29.3570   20.7227 C   0  0  0  0  0  0
  -27.2308  -28.5139   20.7201 C   0  0  0  0  0  0
  -26.0091  -26.8312   19.4920 C   0  0  0  0  0  0
  -24.8688  -27.6559   19.4828 C   0  0  0  0  0  0
  -23.6615  -29.8038   20.1559 C   0  0  0  0  0  0
  -25.4123  -36.3041   24.0312 C   0  0  1  0  0  0
  -20.5912  -28.3706   23.1243 C   0  0  2  0  0  0
  -20.6796  -26.9413   22.5404 C   0  0  0  0  0  0
  -19.5767  -26.6375   21.5223 C   0  0  0  0  0  0
  -18.1942  -26.7927   22.1627 C   0  0  0  0  0  0
  -19.1559  -28.8872   23.2846 C   0  0  0  0  0  0
  -18.9474  -30.1470   23.8865 C   0  0  0  0  0  0
  -17.6473  -30.6587   24.0554 C   0  0  0  0  0  0
  -25.9068  -34.9415   23.5058 C   0  0  0  0  0  0
  -16.5359  -29.9076   23.6335 C   0  0  0  0  0  0
  -16.7285  -28.6497   23.0359 C   0  0  0  0  0  0
  -26.4520  -31.6585   25.0725 C   0  0  0  0  0  0
  -25.3721  -31.3792   26.1440 C   0  0  0  0  0  0
  -27.0387  -30.2982   24.6306 C   0  0  0  0  0  0
  -27.6025  -32.4373   25.7519 C   0  0  0  0  0  0
  -27.5579  -37.1787   24.8461 C   0  0  0  0  0  0
  -21.4254  -29.3038   22.3627 N   0  0  0  0  0  0
  -26.4292  -37.3751   23.9406 N   0  0  0  0  0  0
  -24.7100  -31.0409   22.0928 N   0  0  0  0  0  0
  -23.4233  -28.8101   23.2998 O   0  0  0  0  0  0
  -28.2796  -26.2358   20.1987 O   0  0  0  0  0  0
  -26.5643  -34.8901   22.4628 O   0  0  0  0  0  0
  -23.5525  -32.1321   23.7205 O   0  0  0  0  0  0
  -29.3575  -18.2937   21.6536 C   0  0  0  0  0  0
  -29.0555  -19.7049   21.5768 C   0  0  0  0  0  0
  -29.4304  -19.6269   19.2216 C   0  0  0  0  0  0
  -29.0341  -20.4415   20.3460 C   0  0  0  0  0  0
  -29.7282  -18.1958   19.3098 C   0  0  0  0  0  0
  -29.6843  -17.4548   20.5448 C   0  0  0  0  0  0
  -28.6697  -20.3910   22.8756 C   0  0  0  0  0  0
  -29.4597  -20.2858   17.8447 C   0  0  0  0  0  0
  -30.0188  -17.4412   18.0171 C   0  0  0  0  0  0
  -28.3175  -21.9112   20.2045 C   0  0  0  0  0  0
  -28.9526  -23.4334   20.3107 C   0  0  0  0  0  0
  -27.9722  -24.7420   20.0280 C   0  0  0  0  0  0
  -29.6895  -15.9462   20.7177 N   0  0  0  0  0  0
  -31.4817  -12.6859   19.1816 H   0  0  0  0  0  0
  -30.4330  -11.5552   19.9901 H   0  0  0  0  0  0
  -29.8213  -11.7393   17.5549 H   0  0  0  0  0  0
  -29.6241  -13.4680   17.7159 H   0  0  0  0  0  0
  -27.9240  -11.2768   18.9427 H   0  0  0  0  0  0
  -27.3858  -12.4918   17.8134 H   0  0  0  0  0  0
  -27.6250  -14.2505   19.4567 H   0  0  0  0  0  0
  -28.7427  -12.1940   21.4253 H   0  0  0  0  0  0
  -28.3923  -13.8601   21.8016 H   0  0  0  0  0  0
  -25.2738   -9.5652   22.4775 H   0  0  0  0  0  0
  -23.9987   -7.4604   22.7441 H   0  0  0  0  0  0
  -21.0845   -8.8773   19.8929 H   0  0  0  0  0  0
  -22.3699  -10.9678   19.6183 H   0  0  0  0  0  0
  -21.2011   -7.6148   23.9734 H   0  0  0  0  0  0
  -21.1491   -6.0507   25.9086 H   0  0  0  0  0  0
  -22.0597   -2.7614   23.2819 H   0  0  0  0  0  0
  -22.4050  -11.9899   22.4881 H   0  0  0  0  0  0
  -21.1055  -13.1266   22.2652 H   0  0  0  0  0  0
  -24.6321  -15.8324   20.4920 H   0  0  0  0  0  0
  -26.2440  -15.6294   20.0298 H   0  0  0  0  0  0
  -26.7258  -32.5347   23.1013 H   0  0  0  0  0  0
  -25.0133  -33.9625   25.0374 H   0  0  0  0  0  0
  -22.7384  -31.2944   21.3901 H   0  0  0  0  0  0
  -23.3751  -35.9606   23.3293 H   0  0  0  0  0  0
  -24.3569  -36.8908   22.2056 H   0  0  0  0  0  0
  -23.7255  -37.6461   23.6680 H   0  0  0  0  0  0
  -26.1483  -31.4955   20.6162 H   0  0  0  0  0  0
  -26.8639  -30.7818   22.0282 H   0  0  0  0  0  0
  -28.1296  -28.8530   21.2166 H   0  0  0  0  0  0
  -25.9053  -25.8747   19.0046 H   0  0  0  0  0  0
  -23.9696  -27.3034   18.9979 H   0  0  0  0  0  0
  -23.7906  -30.5794   19.4006 H   0  0  0  0  0  0
  -22.7787  -29.2405   19.8468 H   0  0  0  0  0  0
  -25.1310  -36.1868   25.0807 H   0  0  0  0  0  0
  -20.9989  -28.3294   24.1373 H   0  0  0  0  0  0
  -20.5715  -26.2311   23.3616 H   0  0  0  0  0  0
  -21.6652  -26.7438   22.1181 H   0  0  0  0  0  0
  -19.6903  -25.6285   21.1259 H   0  0  0  0  0  0
  -19.6697  -27.3176   20.6748 H   0  0  0  0  0  0
  -17.4212  -26.6680   21.4021 H   0  0  0  0  0  0
  -18.0314  -26.0082   22.9032 H   0  0  0  0  0  0
  -19.7955  -30.7294   24.2205 H   0  0  0  0  0  0
  -17.5028  -31.6260   24.5161 H   0  0  0  0  0  0
  -15.5353  -30.2960   23.7691 H   0  0  0  0  0  0
  -15.8693  -28.0803   22.7084 H   0  0  0  0  0  0
  -24.5859  -30.7175   25.7783 H   0  0  0  0  0  0
  -24.8963  -32.2998   26.4835 H   0  0  0  0  0  0
  -25.8015  -30.8984   27.0242 H   0  0  0  0  0  0
  -26.3002  -29.6715   24.1293 H   0  0  0  0  0  0
  -27.3968  -29.7275   25.4886 H   0  0  0  0  0  0
  -27.8925  -30.4206   23.9638 H   0  0  0  0  0  0
  -27.2553  -33.3659   26.2064 H   0  0  0  0  0  0
  -28.3854  -32.6974   25.0382 H   0  0  0  0  0  0
  -28.0678  -31.8551   26.5479 H   0  0  0  0  0  0
  -28.2580  -38.0094   24.7500 H   0  0  0  0  0  0
  -28.1079  -36.2615   24.6290 H   0  0  0  0  0  0
  -27.2287  -37.1453   25.8860 H   0  0  0  0  0  0
  -20.9459  -29.8776   21.6834 H   0  0  0  0  0  0
  -26.0153  -38.2821   24.1406 H   0  0  0  0  0  0
  -29.2770  -17.8211   22.6220 H   0  0  0  0  0  0
  -29.2775  -20.0152   23.6997 H   0  0  0  0  0  0
  -27.6252  -20.1966   23.1156 H   0  0  0  0  0  0
  -28.8244  -21.4684   22.8336 H   0  0  0  0  0  0
  -29.4536  -21.3736   17.8900 H   0  0  0  0  0  0
  -28.5953  -19.9710   17.2583 H   0  0  0  0  0  0
  -30.3642  -20.0149   17.2990 H   0  0  0  0  0  0
  -31.0067  -17.7129   17.6445 H   0  0  0  0  0  0
  -29.2814  -17.6836   17.2502 H   0  0  0  0  0  0
  -29.9926  -16.3609   18.1371 H   0  0  0  0  0  0
  -27.5018  -21.8938   20.9271 H   0  0  0  0  0  0
  -27.7772  -21.8816   19.2584 H   0  0  0  0  0  0
  -29.7889  -23.4971   19.6144 H   0  0  0  0  0  0
  -29.3909  -23.5454   21.3013 H   0  0  0  0  0  0
  -27.0744  -24.5603   20.6211 H   0  0  0  0  0  0
  -27.6615  -24.6255   18.9889 H   0  0  0  0  0  0
  -28.8297  -15.6108   21.1251 H   0  0  0  0  0  0
  1 25  1  0  0  0
  1 30  2  0  0  0
  1 83  1  0  0  0
  2  3  1  0  0  0
  2 25  1  0  0  0
  2 84  1  0  0  0
  2 85  1  0  0  0
  3  4  1  0  0  0
  3 86  1  0  0  0
  3 87  1  0  0  0
  4  5  1  0  0  0
  4 88  1  0  0  0
  4 89  1  0  0  0
  5  6  1  0  0  0
  5 26  1  0  0  0
  5 90  1  0  0  0
  6 25  1  0  0  0
  6 91  1  0  0  0
  6 92  1  0  0  0
  7  8  2  0  0  0
  7 26  1  0  0  0
  7 29  1  0  0  0
  8  9  1  0  0  0
  8 22  1  0  0  0
  9 10  1  0  0  0
  9 27  2  0  0  0
 10 11  2  0  0  0
 10 15  1  0  0  0
 11 12  1  0  0  0
 11 93  1  0  0  0
 12 13  2  0  0  0
 12 94  1  0  0  0
 13 14  1  0  0  0
 13 31  1  0  0  0
 14 15  2  0  0  0
 14 95  1  0  0  0
 15 96  1  0  0  0
 16 17  2  0  0  0
 16 21  1  0  0  0
 16 31  1  0  0  0
 17 18  1  0  0  0
 17 97  1  0  0  0
 18 19  2  0  0  0
 18 98  1  0  0  0
 19 20  1  0  0  0
 19 24  1  0  0  0
 20 21  2  0  0  0
 20 99  1  0  0  0
 21 23  1  0  0  0
 22 28  1  0  0  0
 22 32  2  0  0  0
 26 27  1  0  0  0
 28100  1  0  0  0
 28101  1  0  0  0
 29102  1  0  0  0
 29103  1  0  0  0
 33 34  1  0  0  0
 33 66  1  0  0  0
 33 70  2  0  0  0
 34 36  1  0  0  0
 34 59  1  0  0  0
 34104  1  0  0  0
 35 44  2  0  0  0
 35 45  1  0  0  0
 35 68  1  0  0  0
 36 56  1  0  0  0
 36105  1  0  0  0
 37 39  1  0  0  0
 37 47  1  0  0  0
 37 66  1  0  0  0
 37106  1  0  0  0
 38 43  2  0  0  0
 38 46  1  0  0  0
 38 47  1  0  0  0
 39 64  1  0  0  0
 39 67  2  0  0  0
 40 52  1  0  0  0
 40 53  2  0  0  0
 40 58  1  0  0  0
 41107  1  0  0  0
 41108  1  0  0  0
 41109  1  0  0  0
 41 48  1  0  0  0
 42 43  1  0  0  0
 42 66  1  0  0  0
 42110  1  0  0  0
 42111  1  0  0  0
 43 44  1  0  0  0
 44112  1  0  0  0
 45 46  2  0  0  0
 45113  1  0  0  0
 46114  1  0  0  0
 47115  1  0  0  0
 47116  1  0  0  0
 48 56  1  0  0  0
 48 65  1  0  0  0
 48117  1  0  0  0
 49 50  1  0  0  0
 49 53  1  0  0  0
 49 64  1  0  0  0
 49118  1  0  0  0
 50 51  1  0  0  0
 50119  1  0  0  0
 50120  1  0  0  0
 51 52  1  0  0  0
 51121  1  0  0  0
 51122  1  0  0  0
 52123  1  0  0  0
 52124  1  0  0  0
 53 54  1  0  0  0
 54 55  2  0  0  0
 54125  1  0  0  0
 55 57  1  0  0  0
 55126  1  0  0  0
 56 69  2  0  0  0
 57 58  2  0  0  0
 57127  1  0  0  0
 58128  1  0  0  0
 59 60  1  0  0  0
 59 61  1  0  0  0
 59 62  1  0  0  0
 60129  1  0  0  0
 60130  1  0  0  0
 60131  1  0  0  0
 61132  1  0  0  0
 61133  1  0  0  0
 61134  1  0  0  0
 62135  1  0  0  0
 62136  1  0  0  0
 62137  1  0  0  0
 63 65  1  0  0  0
 63138  1  0  0  0
 63139  1  0  0  0
 63140  1  0  0  0
 64141  1  0  0  0
 65142  1  0  0  0
 68 82  1  0  0  0
 71 72  2  0  0  0
 71 76  1  0  0  0
 71143  1  0  0  0
 72 74  1  0  0  0
 72 77  1  0  0  0
 73 74  2  0  0  0
 73 75  1  0  0  0
 73 78  1  0  0  0
 74 80  1  0  0  0
 75 76  2  0  0  0
 75 79  1  0  0  0
 76 83  1  0  0  0
 77144  1  0  0  0
 77145  1  0  0  0
 77146  1  0  0  0
 78147  1  0  0  0
 78148  1  0  0  0
 78149  1  0  0  0
 79150  1  0  0  0
 79151  1  0  0  0
 79152  1  0  0  0
 80 81  1  0  0  0
 80153  1  0  0  0
 80154  1  0  0  0
 81 82  1  0  0  0
 81155  1  0  0  0
 81156  1  0  0  0
 82157  1  0  0  0
 82158  1  0  0  0
 83159  1  0  0  0
M  ISO  4   1 100  68 101  82 101  83 100
M  END
> <chiral flag>
0

> <version>
0

> <s_m_source_file>
/data/baiqing/PycharmProjects/Reinvent-master-3.2/result/LINK_invent/BTK/process_docking_weight1_custom_sum_contain_oxygen_bond_distance_aromatic_linkinvent_7_9_3/rearranged_h_0019.sdf

> <i_m_source_file_index>
47

> <r_mmod_Potential_Energy-OPLS-2005>
336.928527832031

> <r_mmod_Stretch_Energy-OPLS-2005>
186.250061035156

> <r_mmod_Bend_Energy-OPLS-2005>
227.729400634766

> <r_mmod_Torsional_Energy-OPLS-2005>
244.369918823242

> <r_mmod_Improper_Torsional_Energy-OPLS-2005>
7.66756391525269

> <r_mmod_Van_der_Waal_Energy-OPLS-2005>
143.017669677734

> <r_mmod_Electrostatic_Energy-OPLS-2005>
-406.582824707031

> <r_mmod_Solvation_Energy-OPLS-2005>
-206.882965087891

> <b_mmod_Minimization_Converged-OPLS-2005>
0

> <r_mmod_RMS_Derivative-OPLS-2005>
2.45392060279846

$$$$
47
                    3D
 Structure written by MMmdl.
168176  0  0  1  0            999 V2000
  -30.7561  -14.4103   20.6747 C   0  0  0  0  0  0
  -30.4153  -12.3026   19.4192 C   0  0  0  0  0  0
  -29.4922  -12.5270   18.2059 C   0  0  0  0  0  0
  -28.0142  -12.3826   18.6107 C   0  0  0  0  0  0
  -27.6629  -13.2099   19.8738 C   0  0  2  0  0  0
  -28.6964  -12.9766   20.9972 C   0  0  0  0  0  0
  -25.2579  -13.8175   20.5662 C   0  0  0  0  0  0
  -24.1846  -13.0439   20.9181 C   0  0  0  0  0  0
  -24.6414  -11.6912   20.8738 C   0  0  0  0  0  0
  -23.9089  -10.4297   21.0414 C   0  0  0  0  0  0
  -24.3635   -9.4213   21.9196 C   0  0  0  0  0  0
  -23.6310   -8.2248   22.0761 C   0  0  0  0  0  0
  -22.4287   -8.0295   21.3558 C   0  0  0  0  0  0
  -21.9936   -9.0265   20.4648 C   0  0  0  0  0  0
  -22.7266  -10.2142   20.3060 C   0  0  0  0  0  0
  -21.6855   -6.0756   22.5291 C   0  0  0  0  0  0
  -21.4024   -6.5654   23.8229 C   0  0  0  0  0  0
  -21.3662   -5.6799   24.9183 C   0  0  0  0  0  0
  -21.6047   -4.3061   24.7223 C   0  0  0  0  0  0
  -21.8817   -3.8165   23.4341 C   0  0  0  0  0  0
  -21.9193   -4.6990   22.3408 C   0  0  0  0  0  0
  -22.7867  -13.5236   21.1847 C   0  0  0  0  0  0
  -22.1651   -4.2175   21.0980 F   0  0  0  0  0  0
  -21.5624   -3.4544   25.7732 F   0  0  0  0  0  0
  -30.0457  -13.2629   20.4726 N   0  0  0  0  0  0
  -26.3026  -12.9357   20.3338 N   0  0  0  0  0  0
  -25.9338  -11.6509   20.5742 N   0  0  0  0  0  0
  -22.0492  -12.8225   22.0384 N   0  0  0  0  0  0
  -25.4272  -15.1902   20.4072 N   0  0  0  0  0  0
  -31.7407  -14.7087   19.9920 O   0  0  0  0  0  0
  -21.6639   -6.8903   21.4256 O   0  0  0  0  0  0
  -22.3556  -14.5547   20.6698 O   0  0  0  0  0  0
  -24.6143  -31.8671   23.2101 C   0  0  0  0  0  0
  -25.9044  -32.4818   23.8397 C   0  0  1  0  0  0
  -27.2394  -27.4348   20.0932 C   0  0  0  0  0  0
  -25.5900  -33.8616   24.2327 N   0  0  0  0  0  0
  -23.4018  -30.4895   21.5507 C   0  0  2  0  0  0
  -24.8485  -28.9538   20.1160 C   0  0  0  0  0  0
  -22.7405  -29.4653   22.5003 C   0  0  0  0  0  0
  -18.0267  -28.1376   22.8494 C   0  0  0  0  0  0
  -24.1483  -36.7310   23.2642 C   0  0  0  0  0  0
  -25.9296  -30.8337   21.3604 C   0  0  0  0  0  0
  -26.0083  -29.4677   20.7080 C   0  0  0  0  0  0
  -27.2055  -28.7167   20.6902 C   0  0  0  0  0  0
  -26.0612  -26.9376   19.4904 C   0  0  0  0  0  0
  -24.8695  -27.6882   19.5046 C   0  0  0  0  0  0
  -23.6099  -29.8194   20.1660 C   0  0  0  0  0  0
  -25.4107  -36.3107   24.0337 C   0  0  1  0  0  0
  -20.5857  -28.3657   23.1329 C   0  0  2  0  0  0
  -20.6755  -26.9393   22.5425 C   0  0  0  0  0  0
  -19.5739  -26.6386   21.5216 C   0  0  0  0  0  0
  -18.1915  -26.7928   22.1618 C   0  0  0  0  0  0
  -19.1518  -28.8834   23.2908 C   0  0  0  0  0  0
  -18.9447  -30.1443   23.8917 C   0  0  0  0  0  0
  -17.6450  -30.6585   24.0569 C   0  0  0  0  0  0
  -25.9035  -34.9472   23.5129 C   0  0  0  0  0  0
  -16.5339  -29.9087   23.6326 C   0  0  0  0  0  0
  -16.7255  -28.6500   23.0353 C   0  0  0  0  0  0
  -26.4483  -31.6597   25.0718 C   0  0  0  0  0  0
  -25.3759  -31.3681   26.1470 C   0  0  0  0  0  0
  -27.0314  -30.3048   24.6071 C   0  0  0  0  0  0
  -27.6054  -32.4317   25.7478 C   0  0  0  0  0  0
  -27.5581  -37.1810   24.8462 C   0  0  0  0  0  0
  -21.4133  -29.3028   22.3743 N   0  0  0  0  0  0
  -26.4289  -37.3795   23.9415 N   0  0  0  0  0  0
  -24.6673  -31.0781   22.0997 N   0  0  0  0  0  0
  -23.4179  -28.8195   23.3049 O   0  0  0  0  0  0
  -28.4236  -26.7220   20.1043 O   0  0  0  0  0  0
  -26.5593  -34.8921   22.4688 O   0  0  0  0  0  0
  -23.5344  -32.1419   23.7505 O   0  0  0  0  0  0
  -29.8342  -18.7084   20.1725 C   0  0  0  0  0  0
  -30.4558  -19.8389   19.5924 C   0  0  0  0  0  0
  -30.5518  -17.7334   20.9057 C   0  0  0  0  0  0
  -31.8620  -19.9831   19.7192 C   0  0  0  0  0  0
  -32.5870  -19.0703   20.5356 C   0  0  0  0  0  0
  -31.9365  -17.9573   21.1359 C   0  0  0  0  0  0
  -32.6026  -21.1052   18.9908 C   0  0  0  0  0  0
  -34.0830  -19.2807   20.7724 C   0  0  0  0  0  0
  -30.6225  -14.8451   23.0665 C   0  0  0  0  0  0
  -29.7274  -16.5505   21.4654 C   0  0  0  0  0  0
  -29.5848  -20.8350   18.8044 C   0  0  0  0  0  0
  -28.8507  -24.6395   18.8562 C   0  0  0  0  0  0
  -28.5830  -23.1155   18.6961 C   0  0  0  0  0  0
  -28.3664  -25.2852   20.1722 C   0  0  0  0  0  0
  -30.3228  -15.2108   21.6765 N   0  0  0  0  0  0
  -29.5575  -22.2117   19.3689 N   0  3  0  0  0  0
  -32.8578  -16.9174   22.1713 Cl  0  0  0  0  0  0
  -31.4626  -12.3920   19.1232 H   0  0  0  0  0  0
  -30.3045  -11.2849   19.7948 H   0  0  0  0  0  0
  -29.7327  -11.8187   17.4125 H   0  0  0  0  0  0
  -29.6651  -13.5213   17.7902 H   0  0  0  0  0  0
  -27.8172  -11.3262   18.7910 H   0  0  0  0  0  0
  -27.3683  -12.6731   17.7816 H   0  0  0  0  0  0
  -27.7144  -14.2610   19.5924 H   0  0  0  0  0  0
  -28.6554  -11.9438   21.3452 H   0  0  0  0  0  0
  -28.4228  -13.5862   21.8572 H   0  0  0  0  0  0
  -25.2777   -9.5685   22.4774 H   0  0  0  0  0  0
  -24.0026   -7.4640   22.7476 H   0  0  0  0  0  0
  -21.0879   -8.8792   19.8941 H   0  0  0  0  0  0
  -22.3746  -10.9685   19.6167 H   0  0  0  0  0  0
  -21.2018   -7.6161   23.9753 H   0  0  0  0  0  0
  -21.1484   -6.0513   25.9088 H   0  0  0  0  0  0
  -22.0595   -2.7629   23.2828 H   0  0  0  0  0  0
  -22.4072  -11.9864   22.4759 H   0  0  0  0  0  0
  -21.1112  -13.1273   22.2568 H   0  0  0  0  0  0
  -24.6621  -15.8456   20.5224 H   0  0  0  0  0  0
  -26.2789  -15.6292   20.0821 H   0  0  0  0  0  0
  -26.7113  -32.5529   23.1163 H   0  0  0  0  0  0
  -25.0067  -33.9783   25.0484 H   0  0  0  0  0  0
  -22.6909  -31.3061   21.4105 H   0  0  0  0  0  0
  -23.3744  -35.9643   23.3306 H   0  0  0  0  0  0
  -24.3581  -36.8927   22.2056 H   0  0  0  0  0  0
  -23.7230  -37.6512   23.6657 H   0  0  0  0  0  0
  -26.0382  -31.5993   20.5910 H   0  0  0  0  0  0
  -26.8188  -30.8907   21.9762 H   0  0  0  0  0  0
  -28.1028  -29.1121   21.1453 H   0  0  0  0  0  0
  -26.0518  -25.9764   18.9975 H   0  0  0  0  0  0
  -23.9785  -27.2888   19.0411 H   0  0  0  0  0  0
  -23.7175  -30.5931   19.4046 H   0  0  0  0  0  0
  -22.7342  -29.2383   19.8706 H   0  0  0  0  0  0
  -25.1285  -36.1969   25.0830 H   0  0  0  0  0  0
  -20.9942  -28.3216   24.1451 H   0  0  0  0  0  0
  -20.5655  -26.2267   23.3613 H   0  0  0  0  0  0
  -21.6629  -26.7439   22.1221 H   0  0  0  0  0  0
  -19.6902  -25.6299   21.1238 H   0  0  0  0  0  0
  -19.6689  -27.3207   20.6756 H   0  0  0  0  0  0
  -17.4192  -26.6693   21.4005 H   0  0  0  0  0  0
  -18.0300  -26.0054   22.8998 H   0  0  0  0  0  0
  -19.7921  -30.7250   24.2300 H   0  0  0  0  0  0
  -17.5002  -31.6266   24.5163 H   0  0  0  0  0  0
  -15.5341  -30.2996   23.7641 H   0  0  0  0  0  0
  -15.8654  -28.0824   22.7068 H   0  0  0  0  0  0
  -24.5935  -30.7031   25.7806 H   0  0  0  0  0  0
  -24.8955  -32.2827   26.4952 H   0  0  0  0  0  0
  -25.8130  -30.8828   27.0205 H   0  0  0  0  0  0
  -26.2844  -29.6797   24.1165 H   0  0  0  0  0  0
  -27.4151  -29.7295   25.4507 H   0  0  0  0  0  0
  -27.8649  -30.4392   23.9169 H   0  0  0  0  0  0
  -27.2675  -33.3609   26.2074 H   0  0  0  0  0  0
  -28.3852  -32.6886   25.0297 H   0  0  0  0  0  0
  -28.0732  -31.8427   26.5377 H   0  0  0  0  0  0
  -28.2587  -38.0117   24.7525 H   0  0  0  0  0  0
  -28.1085  -36.2652   24.6263 H   0  0  0  0  0  0
  -27.2304  -37.1427   25.8864 H   0  0  0  0  0  0
  -20.9301  -29.8750   21.6962 H   0  0  0  0  0  0
  -26.0173  -38.2868   24.1428 H   0  0  0  0  0  0
  -28.7689  -18.5771   20.0440 H   0  0  0  0  0  0
  -32.0758  -21.4598   18.1068 H   0  0  0  0  0  0
  -33.5703  -20.7635   18.6222 H   0  0  0  0  0  0
  -32.7763  -21.9517   19.6563 H   0  0  0  0  0  0
  -34.3705  -20.3286   20.7111 H   0  0  0  0  0  0
  -34.6594  -18.7211   20.0358 H   0  0  0  0  0  0
  -34.3996  -18.9597   21.7639 H   0  0  0  0  0  0
  -29.8651  -14.1767   23.4765 H   0  0  0  0  0  0
  -30.6767  -15.7203   23.7146 H   0  0  0  0  0  0
  -31.5852  -14.3374   23.1401 H   0  0  0  0  0  0
  -28.8771  -16.3945   20.7988 H   0  0  0  0  0  0
  -29.2762  -16.8958   22.3960 H   0  0  0  0  0  0
  -28.5610  -20.4598   18.7697 H   0  0  0  0  0  0
  -29.9196  -20.8599   17.7668 H   0  0  0  0  0  0
  -28.3234  -25.1415   18.0444 H   0  0  0  0  0  0
  -29.9053  -24.8632   18.6935 H   0  0  0  0  0  0
  -28.6119  -22.8985   17.6266 H   0  0  0  0  0  0
  -27.5705  -22.8690   19.0192 H   0  0  0  0  0  0
  -29.0229  -24.9705   20.9843 H   0  0  0  0  0  0
  -27.3784  -24.9172   20.4504 H   0  0  0  0  0  0
  -30.4830  -22.5962   19.2823 H   0  0  0  0  0  0
  -29.3397  -22.1505   20.3502 H   0  0  0  0  0  0
  1 25  1  0  0  0
  1 30  2  0  0  0
  1 85  1  0  0  0
  2  3  1  0  0  0
  2 25  1  0  0  0
  2 88  1  0  0  0
  2 89  1  0  0  0
  3  4  1  0  0  0
  3 90  1  0  0  0
  3 91  1  0  0  0
  4  5  1  0  0  0
  4 92  1  0  0  0
  4 93  1  0  0  0
  5  6  1  0  0  0
  5 26  1  0  0  0
  5 94  1  0  0  0
  6 25  1  0  0  0
  6 95  1  0  0  0
  6 96  1  0  0  0
  7  8  2  0  0  0
  7 26  1  0  0  0
  7 29  1  0  0  0
  8  9  1  0  0  0
  8 22  1  0  0  0
  9 10  1  0  0  0
  9 27  2  0  0  0
 10 11  2  0  0  0
 10 15  1  0  0  0
 11 12  1  0  0  0
 11 97  1  0  0  0
 12 13  2  0  0  0
 12 98  1  0  0  0
 13 14  1  0  0  0
 13 31  1  0  0  0
 14 15  2  0  0  0
 14 99  1  0  0  0
 15100  1  0  0  0
 16 17  2  0  0  0
 16 21  1  0  0  0
 16 31  1  0  0  0
 17 18  1  0  0  0
 17101  1  0  0  0
 18 19  2  0  0  0
 18102  1  0  0  0
 19 20  1  0  0  0
 19 24  1  0  0  0
 20 21  2  0  0  0
 20103  1  0  0  0
 21 23  1  0  0  0
 22 28  1  0  0  0
 22 32  2  0  0  0
 26 27  1  0  0  0
 28104  1  0  0  0
 28105  1  0  0  0
 29106  1  0  0  0
 29107  1  0  0  0
 33 34  1  0  0  0
 33 66  1  0  0  0
 33 70  2  0  0  0
 34 36  1  0  0  0
 34 59  1  0  0  0
 34108  1  0  0  0
 35 44  2  0  0  0
 35 45  1  0  0  0
 35 68  1  0  0  0
 36 56  1  0  0  0
 36109  1  0  0  0
 37 39  1  0  0  0
 37 47  1  0  0  0
 37 66  1  0  0  0
 37110  1  0  0  0
 38 43  2  0  0  0
 38 46  1  0  0  0
 38 47  1  0  0  0
 39 64  1  0  0  0
 39 67  2  0  0  0
 40 52  1  0  0  0
 40 53  2  0  0  0
 40 58  1  0  0  0
 41111  1  0  0  0
 41112  1  0  0  0
 41113  1  0  0  0
 41 48  1  0  0  0
 42 43  1  0  0  0
 42 66  1  0  0  0
 42114  1  0  0  0
 42115  1  0  0  0
 43 44  1  0  0  0
 44116  1  0  0  0
 45 46  2  0  0  0
 45117  1  0  0  0
 46118  1  0  0  0
 47119  1  0  0  0
 47120  1  0  0  0
 48 56  1  0  0  0
 48 65  1  0  0  0
 48121  1  0  0  0
 49 50  1  0  0  0
 49 53  1  0  0  0
 49 64  1  0  0  0
 49122  1  0  0  0
 50 51  1  0  0  0
 50123  1  0  0  0
 50124  1  0  0  0
 51 52  1  0  0  0
 51125  1  0  0  0
 51126  1  0  0  0
 52127  1  0  0  0
 52128  1  0  0  0
 53 54  1  0  0  0
 54 55  2  0  0  0
 54129  1  0  0  0
 55 57  1  0  0  0
 55130  1  0  0  0
 56 69  2  0  0  0
 57 58  2  0  0  0
 57131  1  0  0  0
 58132  1  0  0  0
 59 60  1  0  0  0
 59 61  1  0  0  0
 59 62  1  0  0  0
 60133  1  0  0  0
 60134  1  0  0  0
 60135  1  0  0  0
 61136  1  0  0  0
 61137  1  0  0  0
 61138  1  0  0  0
 62139  1  0  0  0
 62140  1  0  0  0
 62141  1  0  0  0
 63 65  1  0  0  0
 63142  1  0  0  0
 63143  1  0  0  0
 63144  1  0  0  0
 64145  1  0  0  0
 65146  1  0  0  0
 68 84  1  0  0  0
 71 72  2  0  0  0
 71 73  1  0  0  0
 71147  1  0  0  0
 72 74  1  0  0  0
 72 81  1  0  0  0
 73 76  2  0  0  0
 73 80  1  0  0  0
 74 75  2  0  0  0
 74 77  1  0  0  0
 75 76  1  0  0  0
 75 78  1  0  0  0
 76 87  1  0  0  0
 77148  1  0  0  0
 77149  1  0  0  0
 77150  1  0  0  0
 78151  1  0  0  0
 78152  1  0  0  0
 78153  1  0  0  0
 79 85  1  0  0  0
 79154  1  0  0  0
 79155  1  0  0  0
 79156  1  0  0  0
 80 85  1  0  0  0
 80157  1  0  0  0
 80158  1  0  0  0
 81 86  1  0  0  0
 81159  1  0  0  0
 81160  1  0  0  0
 82 83  1  0  0  0
 82 84  1  0  0  0
 82161  1  0  0  0
 82162  1  0  0  0
 83 86  1  0  0  0
 83163  1  0  0  0
 83164  1  0  0  0
 84165  1  0  0  0
 84166  1  0  0  0
 86167  1  0  0  0
 86168  1  0  0  0
M  CHG  1  86   1
M  ISO  4   1 100  68 101  84 101  85 100
M  END
> <chiral flag>
0

> <version>
0

> <s_m_source_file>
/data/baiqing/PycharmProjects/Reinvent-master-3.2/result/LINK_invent/BTK/process_docking_weight1_custom_sum_contain_oxygen_bond_distance_aromatic_linkinvent_7_9_3/rearranged_h_0019.sdf

> <i_m_source_file_index>
48

> <r_mmod_Potential_Energy-OPLS-2005>
-72.0937118530273

> <r_mmod_Stretch_Energy-OPLS-2005>
44.9892692565918

> <r_mmod_Bend_Energy-OPLS-2005>
113.583068847656

> <r_mmod_Torsional_Energy-OPLS-2005>
283.682037353516

> <r_mmod_Improper_Torsional_Energy-OPLS-2005>
2.25784492492676

> <r_mmod_Van_der_Waal_Energy-OPLS-2005>
161.233245849609

> <r_mmod_Electrostatic_Energy-OPLS-2005>
-223.958465576172

> <r_mmod_Solvation_Energy-OPLS-2005>
-463.536682128906

> <b_mmod_Minimization_Converged-OPLS-2005>
0

> <r_mmod_RMS_Derivative-OPLS-2005>
1.49794006347656

$$$$
48
                    3D
 Structure written by MMmdl.
182190  0  0  1  0            999 V2000
  -30.1719  -14.9725   20.6535 C   0  0  0  0  0  0
  -30.3797  -12.6505   19.5804 C   0  0  0  0  0  0
  -29.5085  -12.5750   18.2992 C   0  0  0  0  0  0
  -28.0308  -12.3298   18.6644 C   0  0  0  0  0  0
  -27.5716  -13.2196   19.8503 C   0  0  2  0  0  0
  -28.5351  -13.1280   21.0352 C   0  0  0  0  0  0
  -25.1852  -13.8027   20.5156 C   0  0  0  0  0  0
  -24.1396  -13.0295   20.9146 C   0  0  0  0  0  0
  -24.6110  -11.6811   20.8809 C   0  0  0  0  0  0
  -23.8905  -10.4210   21.0478 C   0  0  0  0  0  0
  -24.3537   -9.4156   21.9232 C   0  0  0  0  0  0
  -23.6245   -8.2188   22.0778 C   0  0  0  0  0  0
  -22.4235   -8.0226   21.3562 C   0  0  0  0  0  0
  -21.9841   -9.0169   20.4661 C   0  0  0  0  0  0
  -22.7119  -10.2058   20.3084 C   0  0  0  0  0  0
  -21.6836   -6.0710   22.5290 C   0  0  0  0  0  0
  -21.3998   -6.5625   23.8215 C   0  0  0  0  0  0
  -21.3647   -5.6784   24.9177 C   0  0  0  0  0  0
  -21.6038   -4.3046   24.7237 C   0  0  0  0  0  0
  -21.8816   -3.8135   23.4357 C   0  0  0  0  0  0
  -21.9190   -4.6946   22.3413 C   0  0  0  0  0  0
  -22.7474  -13.5107   21.1898 C   0  0  0  0  0  0
  -22.1664   -4.2127   21.0995 F   0  0  0  0  0  0
  -21.5631   -3.4540   25.7753 F   0  0  0  0  0  0
  -29.7690  -13.6540   20.5199 N   0  0  0  0  0  0
  -26.2330  -12.9272   20.2968 N   0  0  0  0  0  0
  -25.8991  -11.6445   20.5742 N   0  0  0  0  0  0
  -22.0221  -12.8151   22.0540 N   0  0  0  0  0  0
  -25.3014  -15.1682   20.2843 N   0  0  0  0  0  0
  -31.3539  -15.1539   20.2971 O   0  0  0  0  0  0
  -21.6610   -6.8835   21.4245 O   0  0  0  0  0  0
  -22.3151  -14.5415   20.6745 O   0  0  0  0  0  0
  -24.7140  -31.9553   23.2699 C   0  0  0  0  0  0
  -25.9873  -32.5301   23.9026 C   0  0  1  0  0  0
  -27.0353  -27.4505   19.8915 C   0  0  0  0  0  0
  -25.6665  -33.9030   24.2942 N   0  0  0  0  0  0
  -23.5330  -30.6732   21.6469 C   0  0  2  0  0  0
  -24.9438  -29.1183   20.2843 C   0  0  0  0  0  0
  -22.9531  -29.6174   22.6398 C   0  0  0  0  0  0
  -18.1354  -27.8931   22.4199 C   0  0  0  0  0  0
  -24.1534  -36.7380   23.2559 C   0  0  0  0  0  0
  -26.1185  -30.9481   21.4025 C   0  0  0  0  0  0
  -26.1715  -29.6442   20.5839 C   0  0  0  0  0  0
  -27.2913  -28.8031   20.3150 C   0  0  0  0  0  0
  -26.0393  -26.9291   20.6254 C   0  0  0  0  0  0
  -24.9264  -27.7644   20.7080 C   0  0  0  0  0  0
  -23.8564  -30.1872   20.2438 C   0  0  0  0  0  0
  -25.4147  -36.3284   24.0320 C   0  0  1  0  0  0
  -21.0500  -28.1505   23.1404 C   0  0  2  0  0  0
  -21.8426  -26.3347   22.8001 C   0  0  0  0  0  0
  -19.1697  -24.8827   21.5718 C   0  0  0  0  0  0
  -17.9370  -26.3176   21.6638 C   0  0  0  0  0  0
  -19.3788  -28.6418   22.9609 C   0  0  0  0  0  0
  -19.0975  -29.8807   23.6615 C   0  0  0  0  0  0
  -17.8139  -30.4225   23.9025 C   0  0  0  0  0  0
  -25.9190  -34.9684   23.5254 C   0  0  0  0  0  0
  -16.6956  -29.7140   23.4609 C   0  0  0  0  0  0
  -16.8697  -28.5017   22.7519 C   0  0  0  0  0  0
  -26.4858  -31.6705   25.1190 C   0  0  0  0  0  0
  -25.3895  -31.3782   26.1692 C   0  0  0  0  0  0
  -27.0543  -30.3103   24.6419 C   0  0  0  0  0  0
  -27.6425  -32.4194   25.8163 C   0  0  0  0  0  0
  -27.5611  -37.1938   24.8461 C   0  0  0  0  0  0
  -21.6558  -29.3675   22.5840 N   0  0  0  0  0  0
  -26.4316  -37.3952   23.9419 N   0  0  0  0  0  0
  -24.8169  -31.1909   22.1595 N   0  0  0  0  0  0
  -23.6643  -28.9382   23.3799 O   0  0  0  0  0  0
  -26.4977  -27.1302   18.6390 O   0  0  0  0  0  0
  -26.5387  -34.8988   22.4597 O   0  0  0  0  0  0
  -23.6195  -32.2311   23.7960 O   0  0  0  0  0  0
  -21.2559  -25.4291   20.5892 C   0  0  0  0  0  0
  -21.6834  -24.1766   21.2748 C   0  0  0  0  0  0
  -20.4324  -24.5366   23.6197 C   0  0  0  0  0  0
  -21.4333  -23.7112   22.6686 C   0  0  0  0  0  0
  -19.7651  -26.0657   23.2880 C   0  0  0  0  0  0
  -20.4030  -26.6563   21.2025 C   0  0  0  0  0  0
  -22.4670  -23.2601   20.3522 C   0  0  0  0  0  0
  -20.0980  -23.8121   24.9196 C   0  0  0  0  0  0
  -19.0530  -26.5586   24.6167 C   0  0  0  0  0  0
  -22.1783  -27.7513   20.3637 C   0  0  0  0  0  0
  -22.4930  -22.4191   23.1326 C   0  0  0  0  0  0
  -23.2535  -20.9960   22.3665 C   0  0  0  0  0  0
  -24.9072  -20.4196   22.2231 C   0  0  0  0  0  0
  -25.5496  -18.7934   22.0177 C   0  0  0  0  0  0
  -27.1086  -18.1921   21.4637 C   0  0  0  0  0  0
  -23.3556  -27.4996   18.0920 C   0  0  0  0  0  0
  -27.9170  -16.6337   21.6329 C   0  0  0  0  0  0
  -21.5889  -27.3208   18.5944 C   0  0  0  0  0  0
  -24.9294  -26.6772   18.2851 C   0  0  0  0  0  0
  -29.2703  -16.1081   20.8983 N   0  0  0  0  0  0
  -20.8360  -27.5829   20.0589 N   0  0  0  0  0  0
  -31.4100  -12.9042   19.3242 H   0  0  0  0  0  0
  -30.4228  -11.6710   20.0596 H   0  0  0  0  0  0
  -29.8705  -11.7852   17.6385 H   0  0  0  0  0  0
  -29.5916  -13.5112   17.7444 H   0  0  0  0  0  0
  -27.9238  -11.2789   18.9328 H   0  0  0  0  0  0
  -27.3861  -12.4820   17.7996 H   0  0  0  0  0  0
  -27.5696  -14.2455   19.4819 H   0  0  0  0  0  0
  -28.6447  -12.0998   21.3835 H   0  0  0  0  0  0
  -28.1822  -13.7024   21.8928 H   0  0  0  0  0  0
  -25.2676   -9.5670   22.4800 H   0  0  0  0  0  0
  -23.9965   -7.4585   22.7486 H   0  0  0  0  0  0
  -21.0792   -8.8665   19.8953 H   0  0  0  0  0  0
  -22.3580  -10.9609   19.6206 H   0  0  0  0  0  0
  -21.1977   -7.6131   23.9713 H   0  0  0  0  0  0
  -21.1474   -6.0517   25.9081 H   0  0  0  0  0  0
  -22.0608   -2.7599   23.2865 H   0  0  0  0  0  0
  -22.3890  -11.9791   22.4837 H   0  0  0  0  0  0
  -21.0869  -13.1172   22.2868 H   0  0  0  0  0  0
  -24.5075  -15.7938   20.3672 H   0  0  0  0  0  0
  -26.1188  -15.6135   19.8891 H   0  0  0  0  0  0
  -26.8107  -32.5989   23.1959 H   0  0  0  0  0  0
  -25.1180  -34.0287   25.1333 H   0  0  0  0  0  0
  -22.8113  -31.4890   21.5454 H   0  0  0  0  0  0
  -23.3822  -35.9684   23.3251 H   0  0  0  0  0  0
  -24.3650  -36.8940   22.1967 H   0  0  0  0  0  0
  -23.7261  -37.6596   23.6525 H   0  0  0  0  0  0
  -26.2989  -31.8048   20.7510 H   0  0  0  0  0  0
  -26.9789  -30.8874   22.0581 H   0  0  0  0  0  0
  -28.2924  -29.1030   20.5974 H   0  0  0  0  0  0
  -26.0439  -25.9125   20.9936 H   0  0  0  0  0  0
  -24.2544  -27.3675   21.4253 H   0  0  0  0  0  0
  -24.3451  -31.0229   19.7337 H   0  0  0  0  0  0
  -23.0730  -30.2659   19.4902 H   0  0  0  0  0  0
  -25.1274  -36.2197   25.0796 H   0  0  0  0  0  0
  -21.2220  -28.2697   24.2121 H   0  0  0  0  0  0
  -22.1959  -26.0429   23.8000 H   0  0  0  0  0  0
  -22.8147  -26.2164   22.3190 H   0  0  0  0  0  0
  -18.7314  -24.0309   22.0998 H   0  0  0  0  0  0
  -19.1314  -24.5055   20.5426 H   0  0  0  0  0  0
  -17.6598  -26.5453   20.6327 H   0  0  0  0  0  0
  -17.0197  -25.8983   22.0809 H   0  0  0  0  0  0
  -19.9240  -30.4257   24.0949 H   0  0  0  0  0  0
  -17.6997  -31.3473   24.4512 H   0  0  0  0  0  0
  -15.7011  -30.0937   23.6622 H   0  0  0  0  0  0
  -15.9679  -27.9906   22.4408 H   0  0  0  0  0  0
  -24.6083  -30.7246   25.7784 H   0  0  0  0  0  0
  -24.9130  -32.2969   26.5129 H   0  0  0  0  0  0
  -25.8026  -30.8807   27.0481 H   0  0  0  0  0  0
  -26.3134  -29.7106   24.1114 H   0  0  0  0  0  0
  -27.3946  -29.7062   25.4845 H   0  0  0  0  0  0
  -27.9201  -30.4364   23.9909 H   0  0  0  0  0  0
  -27.3096  -33.3454   26.2879 H   0  0  0  0  0  0
  -28.4369  -32.6779   25.1136 H   0  0  0  0  0  0
  -28.0945  -31.8134   26.6037 H   0  0  0  0  0  0
  -28.2582  -38.0279   24.7575 H   0  0  0  0  0  0
  -28.1165  -36.2815   24.6228 H   0  0  0  0  0  0
  -27.2331  -37.1517   25.8860 H   0  0  0  0  0  0
  -21.0917  -29.8818   21.9240 H   0  0  0  0  0  0
  -26.0186  -38.2999   24.1503 H   0  0  0  0  0  0
  -21.5577  -25.3315   19.5802 H   0  0  0  0  0  0
  -22.4693  -23.5624   19.3053 H   0  0  0  0  0  0
  -21.9687  -22.2980   20.3551 H   0  0  0  0  0  0
  -23.5059  -23.1828   20.6688 H   0  0  0  0  0  0
  -20.1951  -22.7320   24.8149 H   0  0  0  0  0  0
  -19.0543  -23.9547   25.2035 H   0  0  0  0  0  0
  -20.7485  -24.1439   25.7301 H   0  0  0  0  0  0
  -17.9724  -26.4374   24.5704 H   0  0  0  0  0  0
  -19.2790  -27.5438   25.0094 H   0  0  0  0  0  0
  -19.3686  -26.0145   25.4937 H   0  0  0  0  0  0
  -22.8728  -26.9200   20.1759 H   0  0  0  0  0  0
  -22.4478  -27.8264   21.3240 H   0  0  0  0  0  0
  -22.3822  -28.6713   19.9655 H   0  0  0  0  0  0
  -21.9899  -21.9751   23.9887 H   0  0  0  0  0  0
  -23.3253  -22.9446   23.5986 H   0  0  0  0  0  0
  -22.8136  -20.7964   21.3942 H   0  0  0  0  0  0
  -22.7909  -20.1846   22.9302 H   0  0  0  0  0  0
  -25.4359  -20.8235   23.0885 H   0  0  0  0  0  0
  -25.3135  -20.9859   21.3820 H   0  0  0  0  0  0
  -24.8221  -18.2842   21.3850 H   0  0  0  0  0  0
  -25.4044  -18.3226   22.9889 H   0  0  0  0  0  0
  -27.8292  -18.8980   21.8735 H   0  0  0  0  0  0
  -27.1181  -18.4019   20.3925 H   0  0  0  0  0  0
  -23.5880  -28.5597   18.1133 H   0  0  0  0  0  0
  -23.2332  -27.3846   17.0161 H   0  0  0  0  0  0
  -27.1983  -15.8373   21.5447 H   0  0  0  0  0  0
  -28.1714  -16.5745   22.6925 H   0  0  0  0  0  0
  -21.1436  -26.4754   18.0672 H   0  0  0  0  0  0
  -21.1466  -28.1399   18.0240 H   0  0  0  0  0  0
  -25.0885  -26.2116   17.3148 H   0  0  0  0  0  0
  -24.7077  -25.7792   18.8643 H   0  0  0  0  0  0
  -29.8269  -16.9257   20.6872 H   0  0  0  0  0  0
  1 25  1  0  0  0
  1 30  2  0  0  0
  1 90  1  0  0  0
  2  3  1  0  0  0
  2 25  1  0  0  0
  2 92  1  0  0  0
  2 93  1  0  0  0
  3  4  1  0  0  0
  3 94  1  0  0  0
  3 95  1  0  0  0
  4  5  1  0  0  0
  4 96  1  0  0  0
  4 97  1  0  0  0
  5  6  1  0  0  0
  5 26  1  0  0  0
  5 98  1  0  0  0
  6 25  1  0  0  0
  6 99  1  0  0  0
  6100  1  0  0  0
  7  8  2  0  0  0
  7 26  1  0  0  0
  7 29  1  0  0  0
  8  9  1  0  0  0
  8 22  1  0  0  0
  9 10  1  0  0  0
  9 27  2  0  0  0
 10 11  2  0  0  0
 10 15  1  0  0  0
 11 12  1  0  0  0
 11101  1  0  0  0
 12 13  2  0  0  0
 12102  1  0  0  0
 13 14  1  0  0  0
 13 31  1  0  0  0
 14 15  2  0  0  0
 14103  1  0  0  0
 15104  1  0  0  0
 16 17  2  0  0  0
 16 21  1  0  0  0
 16 31  1  0  0  0
 17 18  1  0  0  0
 17105  1  0  0  0
 18 19  2  0  0  0
 18106  1  0  0  0
 19 20  1  0  0  0
 19 24  1  0  0  0
 20 21  2  0  0  0
 20107  1  0  0  0
 21 23  1  0  0  0
 22 28  1  0  0  0
 22 32  2  0  0  0
 26 27  1  0  0  0
 28108  1  0  0  0
 28109  1  0  0  0
 29110  1  0  0  0
 29111  1  0  0  0
 33 34  1  0  0  0
 33 66  1  0  0  0
 33 70  2  0  0  0
 34 36  1  0  0  0
 34 59  1  0  0  0
 34112  1  0  0  0
 35 44  2  0  0  0
 35 45  1  0  0  0
 35 68  1  0  0  0
 36 56  1  0  0  0
 36113  1  0  0  0
 37 39  1  0  0  0
 37 47  1  0  0  0
 37 66  1  0  0  0
 37114  1  0  0  0
 38 43  2  0  0  0
 38 46  1  0  0  0
 38 47  1  0  0  0
 39 64  1  0  0  0
 39 67  2  0  0  0
 40 52  1  0  0  0
 40 53  2  0  0  0
 40 58  1  0  0  0
 41115  1  0  0  0
 41116  1  0  0  0
 41117  1  0  0  0
 41 48  1  0  0  0
 42 43  1  0  0  0
 42 66  1  0  0  0
 42118  1  0  0  0
 42119  1  0  0  0
 43 44  1  0  0  0
 44120  1  0  0  0
 45 46  2  0  0  0
 45121  1  0  0  0
 46122  1  0  0  0
 47123  1  0  0  0
 47124  1  0  0  0
 48 56  1  0  0  0
 48 65  1  0  0  0
 48125  1  0  0  0
 49 50  1  0  0  0
 49 53  1  0  0  0
 49 64  1  0  0  0
 49126  1  0  0  0
 50 51  1  0  0  0
 50127  1  0  0  0
 50128  1  0  0  0
 51 52  1  0  0  0
 51129  1  0  0  0
 51130  1  0  0  0
 52131  1  0  0  0
 52132  1  0  0  0
 53 54  1  0  0  0
 54 55  2  0  0  0
 54133  1  0  0  0
 55 57  1  0  0  0
 55134  1  0  0  0
 56 69  2  0  0  0
 57 58  2  0  0  0
 57135  1  0  0  0
 58136  1  0  0  0
 59 60  1  0  0  0
 59 61  1  0  0  0
 59 62  1  0  0  0
 60137  1  0  0  0
 60138  1  0  0  0
 60139  1  0  0  0
 61140  1  0  0  0
 61141  1  0  0  0
 61142  1  0  0  0
 62143  1  0  0  0
 62144  1  0  0  0
 62145  1  0  0  0
 63 65  1  0  0  0
 63146  1  0  0  0
 63147  1  0  0  0
 63148  1  0  0  0
 64149  1  0  0  0
 65150  1  0  0  0
 68 89  1  0  0  0
 71 72  2  0  0  0
 71 76  1  0  0  0
 71151  1  0  0  0
 72 74  1  0  0  0
 72 77  1  0  0  0
 73 74  2  0  0  0
 73 75  1  0  0  0
 73 78  1  0  0  0
 74 81  1  0  0  0
 75 76  2  0  0  0
 75 79  1  0  0  0
 76 91  1  0  0  0
 77152  1  0  0  0
 77153  1  0  0  0
 77154  1  0  0  0
 78155  1  0  0  0
 78156  1  0  0  0
 78157  1  0  0  0
 79158  1  0  0  0
 79159  1  0  0  0
 79160  1  0  0  0
 80 91  1  0  0  0
 80161  1  0  0  0
 80162  1  0  0  0
 80163  1  0  0  0
 81 82  1  0  0  0
 81164  1  0  0  0
 81165  1  0  0  0
 82 83  1  0  0  0
 82166  1  0  0  0
 82167  1  0  0  0
 83 84  1  0  0  0
 83168  1  0  0  0
 83169  1  0  0  0
 84 85  1  0  0  0
 84170  1  0  0  0
 84171  1  0  0  0
 85 87  1  0  0  0
 85172  1  0  0  0
 85173  1  0  0  0
 86 88  1  0  0  0
 86 89  1  0  0  0
 86174  1  0  0  0
 86175  1  0  0  0
 87 90  1  0  0  0
 87176  1  0  0  0
 87177  1  0  0  0
 88 91  1  0  0  0
 88178  1  0  0  0
 88179  1  0  0  0
 89180  1  0  0  0
 89181  1  0  0  0
 90182  1  0  0  0
M  ISO  4   1 100  68 101  89 101  90 100
M  END
> <chiral flag>
0

> <version>
0

> <s_m_source_file>
/data/baiqing/PycharmProjects/Reinvent-master-3.2/result/LINK_invent/BTK/process_docking_weight1_custom_sum_contain_oxygen_bond_distance_aromatic_linkinvent_7_9_3/rearranged_h_0019.sdf

> <i_m_source_file_index>
49

> <r_mmod_Potential_Energy-OPLS-2005>
13228.533203125

> <r_mmod_Stretch_Energy-OPLS-2005>
6840.17236328125

> <r_mmod_Bend_Energy-OPLS-2005>
1501.25842285156

> <r_mmod_Torsional_Energy-OPLS-2005>
630.742248535156

> <r_mmod_Improper_Torsional_Energy-OPLS-2005>
70.4282531738281

> <r_mmod_Van_der_Waal_Energy-OPLS-2005>
2982.23217773438

> <r_mmod_Electrostatic_Energy-OPLS-2005>
-405.520904541016

> <r_mmod_Solvation_Energy-OPLS-2005>
-203.999771118164

> <b_mmod_Minimization_Converged-OPLS-2005>
0

> <r_mmod_RMS_Derivative-OPLS-2005>
14.6662769317627

$$$$
49
                    3D
 Structure written by MMmdl.
199207  0  0  1  0            999 V2000
  -30.8164  -14.3014   20.7465 C   0  0  0  0  0  0
  -30.4114  -12.2877   19.3860 C   0  0  0  0  0  0
  -29.4791  -12.5481   18.1917 C   0  0  0  0  0  0
  -28.0060  -12.3995   18.6085 C   0  0  0  0  0  0
  -27.6698  -13.2081   19.8871 C   0  0  2  0  0  0
  -28.7070  -12.9460   21.0030 C   0  0  0  0  0  0
  -25.2584  -13.8151   20.5602 C   0  0  0  0  0  0
  -24.1843  -13.0435   20.9148 C   0  0  0  0  0  0
  -24.6399  -11.6912   20.8726 C   0  0  0  0  0  0
  -23.9061  -10.4293   21.0406 C   0  0  0  0  0  0
  -24.3614   -9.4210   21.9188 C   0  0  0  0  0  0
  -23.6291   -8.2247   22.0758 C   0  0  0  0  0  0
  -22.4273   -8.0283   21.3548 C   0  0  0  0  0  0
  -21.9911   -9.0253   20.4640 C   0  0  0  0  0  0
  -22.7237  -10.2138   20.3051 C   0  0  0  0  0  0
  -21.6850   -6.0737   22.5284 C   0  0  0  0  0  0
  -21.4010   -6.5648   23.8217 C   0  0  0  0  0  0
  -21.3660   -5.6802   24.9178 C   0  0  0  0  0  0
  -21.6043   -4.3066   24.7225 C   0  0  0  0  0  0
  -21.8820   -3.8153   23.4349 C   0  0  0  0  0  0
  -21.9194   -4.6966   22.3402 C   0  0  0  0  0  0
  -22.7866  -13.5251   21.1823 C   0  0  0  0  0  0
  -22.1659   -4.2149   21.0978 F   0  0  0  0  0  0
  -21.5637   -3.4549   25.7738 F   0  0  0  0  0  0
  -30.0595  -13.2105   20.4738 N   0  0  0  0  0  0
  -26.3062  -12.9339   20.3413 N   0  0  0  0  0  0
  -25.9342  -11.6501   20.5794 N   0  0  0  0  0  0
  -22.0515  -12.8214   22.0381 N   0  0  0  0  0  0
  -25.4279  -15.1826   20.3876 N   0  0  0  0  0  0
  -31.7532  -14.6753   20.0334 O   0  0  0  0  0  0
  -21.6644   -6.8886   21.4247 O   0  0  0  0  0  0
  -22.3564  -14.5564   20.6698 O   0  0  0  0  0  0
  -24.6083  -31.8722   23.2171 C   0  0  0  0  0  0
  -25.8996  -32.4838   23.8478 C   0  0  1  0  0  0
  -27.2329  -27.4874   20.0655 C   0  0  0  0  0  0
  -25.5863  -33.8643   24.2383 N   0  0  0  0  0  0
  -23.3966  -30.4985   21.5521 C   0  0  2  0  0  0
  -24.8483  -28.9791   20.1021 C   0  0  0  0  0  0
  -22.7354  -29.4752   22.5009 C   0  0  0  0  0  0
  -18.0269  -28.1381   22.8524 C   0  0  0  0  0  0
  -24.1474  -36.7363   23.2637 C   0  0  0  0  0  0
  -25.9252  -30.8394   21.3824 C   0  0  0  0  0  0
  -26.0012  -29.4825   20.7183 C   0  0  0  0  0  0
  -27.1971  -28.7365   20.7184 C   0  0  0  0  0  0
  -26.0870  -27.0177   19.3926 C   0  0  0  0  0  0
  -24.8817  -27.7380   19.4397 C   0  0  0  0  0  0
  -23.6035  -29.8319   20.1668 C   0  0  0  0  0  0
  -25.4094  -36.3130   24.0331 C   0  0  1  0  0  0
  -20.5848  -28.3694   23.1312 C   0  0  2  0  0  0
  -20.6734  -26.9447   22.5368 C   0  0  0  0  0  0
  -19.5729  -26.6569   21.5102 C   0  0  0  0  0  0
  -18.1928  -26.7967   22.1590 C   0  0  0  0  0  0
  -19.1508  -28.8852   23.2944 C   0  0  0  0  0  0
  -18.9418  -30.1431   23.8981 C   0  0  0  0  0  0
  -17.6422  -30.6568   24.0629 C   0  0  0  0  0  0
  -25.9005  -34.9484   23.5157 C   0  0  0  0  0  0
  -16.5313  -29.9080   23.6356 C   0  0  0  0  0  0
  -16.7261  -28.6491   23.0385 C   0  0  0  0  0  0
  -26.4466  -31.6643   25.0806 C   0  0  0  0  0  0
  -25.3734  -31.3688   26.1536 C   0  0  0  0  0  0
  -27.0362  -30.3105   24.6248 C   0  0  0  0  0  0
  -27.6011  -32.4412   25.7557 C   0  0  0  0  0  0
  -27.5576  -37.1816   24.8443 C   0  0  0  0  0  0
  -21.4092  -29.3051   22.3676 N   0  0  0  0  0  0
  -26.4287  -37.3796   23.9381 N   0  0  0  0  0  0
  -24.6599  -31.0844   22.1068 N   0  0  0  0  0  0
  -23.4102  -28.8428   23.3157 O   0  0  0  0  0  0
  -28.3426  -26.6859   20.1254 O   0  0  0  0  0  0
  -26.5573  -34.8922   22.4728 O   0  0  0  0  0  0
  -23.5268  -32.1494   23.7535 O   0  0  0  0  0  0
  -27.1052  -18.9868   21.7532 C   0  0  0  0  0  0
  -24.9603  -17.8419   24.1602 C   0  0  0  0  0  0
  -24.9154  -18.1096   22.6625 C   0  0  0  0  0  0
  -26.3119  -18.5526   24.1717 C   0  0  0  0  0  0
  -25.9858  -19.2366   22.8048 C   0  0  0  0  0  0
  -27.6527  -23.7307   20.4496 C   0  0  0  0  0  0
  -27.3961  -21.6574   24.3121 C   0  0  0  0  0  0
  -24.3656  -20.9791   23.8037 C   0  0  0  0  0  0
  -24.8241  -21.0147   21.3629 C   0  0  0  0  0  0
  -26.7797  -26.7169   24.0945 C   0  0  0  0  0  0
  -25.7070  -24.7478   25.1257 C   0  0  0  0  0  0
  -24.7059  -25.7919   23.0770 C   0  0  0  0  0  0
  -30.1137  -17.7577   21.1838 C   0  0  0  0  0  0
  -30.5376  -17.2608   22.5778 C   0  0  0  0  0  0
  -29.5211  -19.1745   21.2113 C   0  0  0  0  0  0
  -31.3384  -15.9503   22.5476 C   0  0  0  0  0  0
  -28.4039  -25.9318   21.3452 C   0  0  0  0  0  0
  -27.2752  -24.8570   21.4383 C   0  0  2  0  0  0
  -26.6324  -21.8083   22.9721 C   0  0  1  0  0  0
  -26.8902  -24.3884   22.8865 C   0  0  1  0  0  0
  -25.4841  -20.7401   22.7485 C   0  0  0  0  0  0
  -26.0417  -25.4030   23.7605 C   0  0  0  0  0  0
  -28.3690  -19.2546   22.1052 N   0  0  0  0  0  0
  -30.5760  -14.8603   21.9398 N   0  0  0  0  0  0
  -26.0509  -23.1647   22.8160 N   0  3  0  0  0  0
  -26.8208  -18.5821   20.6231 O   0  0  0  0  0  0
  -31.4542  -12.3900   19.0797 H   0  0  0  0  0  0
  -30.3056  -11.2594   19.7355 H   0  0  0  0  0  0
  -29.7081  -11.8609   17.3769 H   0  0  0  0  0  0
  -29.6526  -13.5532   17.8039 H   0  0  0  0  0  0
  -27.8070  -11.3403   18.7728 H   0  0  0  0  0  0
  -27.3535  -12.7096   17.7915 H   0  0  0  0  0  0
  -27.7303  -14.2647   19.6259 H   0  0  0  0  0  0
  -28.6525  -11.9074   21.3324 H   0  0  0  0  0  0
  -28.4559  -13.5464   21.8783 H   0  0  0  0  0  0
  -25.2760   -9.5700   22.4767 H   0  0  0  0  0  0
  -23.9997   -7.4653   22.7482 H   0  0  0  0  0  0
  -21.0852   -8.8771   19.8944 H   0  0  0  0  0  0
  -22.3694  -10.9680   19.6162 H   0  0  0  0  0  0
  -21.2000   -7.6157   23.9714 H   0  0  0  0  0  0
  -21.1489   -6.0536   25.9083 H   0  0  0  0  0  0
  -22.0599   -2.7609   23.2850 H   0  0  0  0  0  0
  -22.4119  -11.9842   22.4714 H   0  0  0  0  0  0
  -21.1132  -13.1240   22.2590 H   0  0  0  0  0  0
  -24.6624  -15.8382   20.4851 H   0  0  0  0  0  0
  -26.2910  -15.6283   20.1035 H   0  0  0  0  0  0
  -26.7080  -32.5573   23.1248 H   0  0  0  0  0  0
  -24.9946  -33.9833   25.0487 H   0  0  0  0  0  0
  -22.6828  -31.3132   21.4146 H   0  0  0  0  0  0
  -23.3703  -35.9725   23.3300 H   0  0  0  0  0  0
  -24.3514  -36.8994   22.2043 H   0  0  0  0  0  0
  -23.7302  -37.6587   23.6690 H   0  0  0  0  0  0
  -26.0512  -31.6108   20.6231 H   0  0  0  0  0  0
  -26.8041  -30.8732   22.0140 H   0  0  0  0  0  0
  -28.0761  -29.1019   21.2301 H   0  0  0  0  0  0
  -26.1221  -26.0703   18.8733 H   0  0  0  0  0  0
  -24.0005  -27.3533   18.9452 H   0  0  0  0  0  0
  -23.6902  -30.6034   19.4031 H   0  0  0  0  0  0
  -22.7352  -29.2341   19.8881 H   0  0  0  0  0  0
  -25.1274  -36.1981   25.0822 H   0  0  0  0  0  0
  -20.9981  -28.3269   24.1413 H   0  0  0  0  0  0
  -20.5530  -26.2295   23.3518 H   0  0  0  0  0  0
  -21.6630  -26.7452   22.1206 H   0  0  0  0  0  0
  -19.6902  -25.6601   21.0844 H   0  0  0  0  0  0
  -19.6616  -27.3611   20.6802 H   0  0  0  0  0  0
  -17.4161  -26.6738   21.4033 H   0  0  0  0  0  0
  -18.0390  -26.0075   22.8945 H   0  0  0  0  0  0
  -19.7867  -30.7240   24.2412 H   0  0  0  0  0  0
  -17.4948  -31.6229   24.5268 H   0  0  0  0  0  0
  -15.5309  -30.2983   23.7661 H   0  0  0  0  0  0
  -15.8658  -28.0813   22.7081 H   0  0  0  0  0  0
  -24.5895  -30.7071   25.7841 H   0  0  0  0  0  0
  -24.8923  -32.2801   26.5097 H   0  0  0  0  0  0
  -25.8063  -30.8768   27.0252 H   0  0  0  0  0  0
  -26.2931  -29.6844   24.1298 H   0  0  0  0  0  0
  -27.4104  -29.7400   25.4762 H   0  0  0  0  0  0
  -27.8802  -30.4410   23.9466 H   0  0  0  0  0  0
  -27.2609  -33.3688   26.2189 H   0  0  0  0  0  0
  -28.3777  -32.7022   25.0357 H   0  0  0  0  0  0
  -28.0769  -31.8549   26.5433 H   0  0  0  0  0  0
  -28.2572  -38.0132   24.7483 H   0  0  0  0  0  0
  -28.1114  -36.2652   24.6293 H   0  0  0  0  0  0
  -27.2270  -37.1474   25.8839 H   0  0  0  0  0  0
  -20.9250  -29.8692   21.6839 H   0  0  0  0  0  0
  -26.0184  -38.2884   24.1337 H   0  0  0  0  0  0
  -24.9944  -16.7860   24.4297 H   0  0  0  0  0  0
  -24.1864  -18.3701   24.7178 H   0  0  0  0  0  0
  -23.9335  -18.4154   22.3045 H   0  0  0  0  0  0
  -25.2559  -17.2330   22.1118 H   0  0  0  0  0  0
  -27.1390  -17.8408   24.1313 H   0  0  0  0  0  0
  -26.4150  -19.2056   25.0370 H   0  0  0  0  0  0
  -27.9120  -24.1479   19.4736 H   0  0  0  0  0  0
  -26.8258  -23.0501   20.2583 H   0  0  0  0  0  0
  -28.5154  -23.1562   20.7882 H   0  0  0  0  0  0
  -27.8768  -20.6871   24.4033 H   0  0  0  0  0  0
  -26.7494  -21.7968   25.1790 H   0  0  0  0  0  0
  -28.2207  -22.3603   24.4040 H   0  0  0  0  0  0
  -23.5175  -20.3128   23.6473 H   0  0  0  0  0  0
  -23.9461  -21.9822   23.7633 H   0  0  0  0  0  0
  -24.7127  -20.8226   24.8245 H   0  0  0  0  0  0
  -24.0817  -20.2603   21.1076 H   0  0  0  0  0  0
  -25.5532  -21.0224   20.5517 H   0  0  0  0  0  0
  -24.2926  -21.9658   21.3213 H   0  0  0  0  0  0
  -26.3008  -27.2451   24.9212 H   0  0  0  0  0  0
  -26.7593  -27.4151   23.2569 H   0  0  0  0  0  0
  -27.8160  -26.5485   24.3867 H   0  0  0  0  0  0
  -25.2176  -25.4513   25.8039 H   0  0  0  0  0  0
  -26.6105  -24.3989   25.6285 H   0  0  0  0  0  0
  -25.0231  -23.9038   25.0438 H   0  0  0  0  0  0
  -24.0781  -26.3709   23.7553 H   0  0  0  0  0  0
  -24.1081  -24.9413   22.7517 H   0  0  0  0  0  0
  -24.8673  -26.4259   22.2033 H   0  0  0  0  0  0
  -29.3872  -17.0681   20.7516 H   0  0  0  0  0  0
  -30.9728  -17.7473   20.5115 H   0  0  0  0  0  0
  -29.6570  -17.1321   23.2091 H   0  0  0  0  0  0
  -31.1452  -18.0267   23.0618 H   0  0  0  0  0  0
  -29.2503  -19.4873   20.2010 H   0  0  0  0  0  0
  -30.2765  -19.8855   21.5500 H   0  0  0  0  0  0
  -31.5982  -15.6629   23.5672 H   0  0  0  0  0  0
  -32.2905  -16.1094   22.0371 H   0  0  0  0  0  0
  -29.3773  -25.4453   21.4007 H   0  0  0  0  0  0
  -28.4117  -26.6288   22.1746 H   0  0  0  0  0  0
  -26.3469  -25.2548   21.0518 H   0  0  0  0  0  0
  -27.3697  -21.7023   22.1801 H   0  0  0  0  0  0
  -27.8196  -24.1852   23.4165 H   0  0  0  0  0  0
  -28.5489  -19.5404   23.0580 H   0  0  0  0  0  0
  -29.8423  -14.4432   22.4947 H   0  0  0  0  0  0
  -25.3751  -23.2674   23.5594 H   0  0  0  0  0  0
  -25.5375  -23.1815   21.9469 H   0  0  0  0  0  0
  1 25  1  0  0  0
  1 30  2  0  0  0
  1 94  1  0  0  0
  2  3  1  0  0  0
  2 25  1  0  0  0
  2 97  1  0  0  0
  2 98  1  0  0  0
  3  4  1  0  0  0
  3 99  1  0  0  0
  3100  1  0  0  0
  4  5  1  0  0  0
  4101  1  0  0  0
  4102  1  0  0  0
  5  6  1  0  0  0
  5 26  1  0  0  0
  5103  1  0  0  0
  6 25  1  0  0  0
  6104  1  0  0  0
  6105  1  0  0  0
  7  8  2  0  0  0
  7 26  1  0  0  0
  7 29  1  0  0  0
  8  9  1  0  0  0
  8 22  1  0  0  0
  9 10  1  0  0  0
  9 27  2  0  0  0
 10 11  2  0  0  0
 10 15  1  0  0  0
 11 12  1  0  0  0
 11106  1  0  0  0
 12 13  2  0  0  0
 12107  1  0  0  0
 13 14  1  0  0  0
 13 31  1  0  0  0
 14 15  2  0  0  0
 14108  1  0  0  0
 15109  1  0  0  0
 16 17  2  0  0  0
 16 21  1  0  0  0
 16 31  1  0  0  0
 17 18  1  0  0  0
 17110  1  0  0  0
 18 19  2  0  0  0
 18111  1  0  0  0
 19 20  1  0  0  0
 19 24  1  0  0  0
 20 21  2  0  0  0
 20112  1  0  0  0
 21 23  1  0  0  0
 22 28  1  0  0  0
 22 32  2  0  0  0
 26 27  1  0  0  0
 28113  1  0  0  0
 28114  1  0  0  0
 29115  1  0  0  0
 29116  1  0  0  0
 33 34  1  0  0  0
 33 66  1  0  0  0
 33 70  2  0  0  0
 34 36  1  0  0  0
 34 59  1  0  0  0
 34117  1  0  0  0
 35 44  2  0  0  0
 35 45  1  0  0  0
 35 68  1  0  0  0
 36 56  1  0  0  0
 36118  1  0  0  0
 37 39  1  0  0  0
 37 47  1  0  0  0
 37 66  1  0  0  0
 37119  1  0  0  0
 38 43  2  0  0  0
 38 46  1  0  0  0
 38 47  1  0  0  0
 39 64  1  0  0  0
 39 67  2  0  0  0
 40 52  1  0  0  0
 40 53  2  0  0  0
 40 58  1  0  0  0
 41120  1  0  0  0
 41121  1  0  0  0
 41122  1  0  0  0
 41 48  1  0  0  0
 42 43  1  0  0  0
 42 66  1  0  0  0
 42123  1  0  0  0
 42124  1  0  0  0
 43 44  1  0  0  0
 44125  1  0  0  0
 45 46  2  0  0  0
 45126  1  0  0  0
 46127  1  0  0  0
 47128  1  0  0  0
 47129  1  0  0  0
 48 56  1  0  0  0
 48 65  1  0  0  0
 48130  1  0  0  0
 49 50  1  0  0  0
 49 53  1  0  0  0
 49 64  1  0  0  0
 49131  1  0  0  0
 50 51  1  0  0  0
 50132  1  0  0  0
 50133  1  0  0  0
 51 52  1  0  0  0
 51134  1  0  0  0
 51135  1  0  0  0
 52136  1  0  0  0
 52137  1  0  0  0
 53 54  1  0  0  0
 54 55  2  0  0  0
 54138  1  0  0  0
 55 57  1  0  0  0
 55139  1  0  0  0
 56 69  2  0  0  0
 57 58  2  0  0  0
 57140  1  0  0  0
 58141  1  0  0  0
 59 60  1  0  0  0
 59 61  1  0  0  0
 59 62  1  0  0  0
 60142  1  0  0  0
 60143  1  0  0  0
 60144  1  0  0  0
 61145  1  0  0  0
 61146  1  0  0  0
 61147  1  0  0  0
 62148  1  0  0  0
 62149  1  0  0  0
 62150  1  0  0  0
 63 65  1  0  0  0
 63151  1  0  0  0
 63152  1  0  0  0
 63153  1  0  0  0
 64154  1  0  0  0
 65155  1  0  0  0
 68 87  1  0  0  0
 71 93  1  0  0  0
 71 96  2  0  0  0
 71 75  1  0  0  0
 72 73  1  0  0  0
 72 74  1  0  0  0
 72156  1  0  0  0
 72157  1  0  0  0
 73 75  1  0  0  0
 73158  1  0  0  0
 73159  1  0  0  0
 74 75  1  0  0  0
 74160  1  0  0  0
 74161  1  0  0  0
 75 91  1  0  0  0
 76162  1  0  0  0
 76163  1  0  0  0
 76164  1  0  0  0
 76 88  1  0  0  0
 77165  1  0  0  0
 77166  1  0  0  0
 77167  1  0  0  0
 77 89  1  0  0  0
 78168  1  0  0  0
 78169  1  0  0  0
 78170  1  0  0  0
 78 91  1  0  0  0
 79 91  1  0  0  0
 79171  1  0  0  0
 79172  1  0  0  0
 79173  1  0  0  0
 80174  1  0  0  0
 80175  1  0  0  0
 80176  1  0  0  0
 80 92  1  0  0  0
 81 92  1  0  0  0
 81177  1  0  0  0
 81178  1  0  0  0
 81179  1  0  0  0
 82 92  1  0  0  0
 82180  1  0  0  0
 82181  1  0  0  0
 82182  1  0  0  0
 83 84  1  0  0  0
 83 85  1  0  0  0
 83183  1  0  0  0
 83184  1  0  0  0
 84 86  1  0  0  0
 84185  1  0  0  0
 84186  1  0  0  0
 85 93  1  0  0  0
 85187  1  0  0  0
 85188  1  0  0  0
 86 94  1  0  0  0
 86189  1  0  0  0
 86190  1  0  0  0
 87 88  1  0  0  0
 87191  1  0  0  0
 87192  1  0  0  0
 88 90  1  0  0  0
 88193  1  0  0  0
 89 91  1  0  0  0
 89 95  1  0  0  0
 89194  1  0  0  0
 90 92  1  0  0  0
 90 95  1  0  0  0
 90195  1  0  0  0
 93196  1  0  0  0
 94197  1  0  0  0
 95198  1  0  0  0
 95199  1  0  0  0
M  CHG  1  95   1
M  ISO  4   1 100  68 101  87 101  94 100
M  END
> <chiral flag>
0

> <version>
0

> <s_m_source_file>
/data/baiqing/PycharmProjects/Reinvent-master-3.2/result/LINK_invent/BTK/process_docking_weight1_custom_sum_contain_oxygen_bond_distance_aromatic_linkinvent_7_9_3/rearranged_h_0019.sdf

> <i_m_source_file_index>
50

> <r_mmod_Potential_Energy-OPLS-2005>
-118.422203063965

> <r_mmod_Stretch_Energy-OPLS-2005>
52.5872497558594

> <r_mmod_Bend_Energy-OPLS-2005>
145.729141235352

> <r_mmod_Torsional_Energy-OPLS-2005>
337.10498046875

> <r_mmod_Improper_Torsional_Energy-OPLS-2005>
3.27499389648438

> <r_mmod_Van_der_Waal_Energy-OPLS-2005>
148.551834106445

> <r_mmod_Electrostatic_Energy-OPLS-2005>
-393.258544921875

> <r_mmod_Solvation_Energy-OPLS-2005>
-424.672119140625

> <b_mmod_Minimization_Converged-OPLS-2005>
0

> <r_mmod_RMS_Derivative-OPLS-2005>
3.38766694068909

$$$$
50
                    3D
 Structure written by MMmdl.
155163  0  0  1  0            999 V2000
  -30.4029  -15.3386   20.3241 C   0  0  0  0  0  0
  -30.4375  -12.8470   19.5501 C   0  0  0  0  0  0
  -29.5484  -12.5946   18.3040 C   0  0  0  0  0  0
  -28.0929  -12.3174   18.7176 C   0  0  0  0  0  0
  -27.6114  -13.2888   19.8232 C   0  0  2  0  0  0
  -28.6389  -13.4823   20.9619 C   0  0  0  0  0  0
  -25.2385  -13.8277   20.5741 C   0  0  0  0  0  0
  -24.1747  -13.0452   20.9262 C   0  0  0  0  0  0
  -24.6421  -11.6952   20.8769 C   0  0  0  0  0  0
  -23.9108  -10.4310   21.0405 C   0  0  0  0  0  0
  -24.3646   -9.4220   21.9177 C   0  0  0  0  0  0
  -23.6320   -8.2257   22.0749 C   0  0  0  0  0  0
  -22.4302   -8.0303   21.3546 C   0  0  0  0  0  0
  -21.9940   -9.0280   20.4645 C   0  0  0  0  0  0
  -22.7277  -10.2148   20.3052 C   0  0  0  0  0  0
  -21.6873   -6.0751   22.5280 C   0  0  0  0  0  0
  -21.4031   -6.5650   23.8212 C   0  0  0  0  0  0
  -21.3664   -5.6787   24.9164 C   0  0  0  0  0  0
  -21.6046   -4.3056   24.7220 C   0  0  0  0  0  0
  -21.8819   -3.8155   23.4339 C   0  0  0  0  0  0
  -21.9199   -4.6975   22.3390 C   0  0  0  0  0  0
  -22.7752  -13.5192   21.1903 C   0  0  0  0  0  0
  -22.1660   -4.2162   21.0967 F   0  0  0  0  0  0
  -21.5620   -3.4534   25.7728 F   0  0  0  0  0  0
  -29.8703  -14.0060   20.3457 N   0  0  0  0  0  0
  -26.2813  -12.9572   20.3178 N   0  0  0  0  0  0
  -25.9358  -11.6658   20.5685 N   0  0  0  0  0  0
  -22.0399  -12.8187   22.0462 N   0  0  0  0  0  0
  -25.4004  -15.2021   20.4199 N   0  0  0  0  0  0
  -31.6123  -15.3273   20.0376 O   0  0  0  0  0  0
  -21.6660   -6.8904   21.4245 O   0  0  0  0  0  0
  -22.3426  -14.5475   20.6707 O   0  0  0  0  0  0
  -24.6670  -31.8177   23.1661 C   0  0  0  0  0  0
  -25.9329  -32.4553   23.8146 C   0  0  1  0  0  0
  -27.2217  -26.8826   20.1818 C   0  0  0  0  0  0
  -25.5979  -33.8374   24.2044 N   0  0  0  0  0  0
  -23.4839  -30.4274   21.5150 C   0  0  2  0  0  0
  -24.9390  -28.8046   20.1098 C   0  0  0  0  0  0
  -22.7686  -29.4410   22.4759 C   0  0  0  0  0  0
  -18.0324  -28.1411   22.8467 C   0  0  0  0  0  0
  -24.1496  -36.7191   23.2652 C   0  0  0  0  0  0
  -26.0550  -30.6086   21.4051 C   0  0  0  0  0  0
  -26.1223  -29.1939   20.7487 C   0  0  0  0  0  0
  -27.2532  -28.2530   20.7621 C   0  0  0  0  0  0
  -26.0127  -26.6590   19.4850 C   0  0  0  0  0  0
  -24.9122  -27.5597   19.4573 C   0  0  0  0  0  0
  -23.7269  -29.7378   20.1430 C   0  0  0  0  0  0
  -25.4136  -36.2955   24.0300 C   0  0  1  0  0  0
  -20.5949  -28.3752   23.1178 C   0  0  2  0  0  0
  -20.6798  -26.9427   22.5403 C   0  0  0  0  0  0
  -19.5770  -26.6370   21.5216 C   0  0  0  0  0  0
  -18.1957  -26.7941   22.1627 C   0  0  0  0  0  0
  -19.1588  -28.8898   23.2812 C   0  0  0  0  0  0
  -18.9498  -30.1494   23.8840 C   0  0  0  0  0  0
  -17.6492  -30.6601   24.0547 C   0  0  0  0  0  0
  -25.9101  -34.9334   23.4997 C   0  0  0  0  0  0
  -16.5378  -29.9083   23.6347 C   0  0  0  0  0  0
  -16.7307  -28.6502   23.0360 C   0  0  0  0  0  0
  -26.4575  -31.6518   25.0698 C   0  0  0  0  0  0
  -25.3681  -31.3786   26.1339 C   0  0  0  0  0  0
  -27.0482  -30.2873   24.6475 C   0  0  0  0  0  0
  -27.6053  -32.4346   25.7500 C   0  0  0  0  0  0
  -27.5567  -37.1760   24.8470 C   0  0  0  0  0  0
  -21.4343  -29.3036   22.3510 N   0  0  0  0  0  0
  -26.4285  -37.3686   23.9412 N   0  0  0  0  0  0
  -24.7567  -30.9798   22.0816 N   0  0  0  0  0  0
  -23.4219  -28.7990   23.3025 O   0  0  0  0  0  0
  -28.2170  -25.7601   20.2974 O   0  0  0  0  0  0
  -26.5720  -34.8873   22.4605 O   0  0  0  0  0  0
  -23.5728  -32.1172   23.6724 O   0  0  0  0  0  0
  -29.3741  -20.7973   18.6777 C   0  0  0  0  0  0
  -29.0483  -20.9198   20.0425 C   0  0  0  0  0  0
  -29.1698  -19.5036   20.6882 C   0  0  0  0  0  0
  -29.7716  -19.5657   18.0862 C   0  0  0  0  0  0
  -29.6076  -18.1658   20.0226 C   0  0  0  0  0  0
  -30.0864  -19.5520   16.6031 C   0  0  0  0  0  0
  -30.1744  -22.9899   21.1217 C   0  0  0  0  0  0
  -27.8811  -22.3890   21.8954 C   0  0  0  0  0  0
  -28.1342  -24.1258   19.9202 C   0  0  0  0  0  0
  -28.7719  -22.5677   20.6560 C   0  0  0  0  0  0
  -29.8952  -18.3554   18.7094 N   0  0  0  0  0  0
  -29.6521  -16.6178   20.5476 N   0  0  0  0  0  0
  -28.8689  -19.4168   22.0056 F   0  0  0  0  0  0
  -31.4603  -13.0484   19.2301 H   0  0  0  0  0  0
  -30.5048  -11.9479   20.1650 H   0  0  0  0  0  0
  -29.9388  -11.7581   17.7236 H   0  0  0  0  0  0
  -29.5850  -13.4665   17.6477 H   0  0  0  0  0  0
  -28.0417  -11.2931   19.0871 H   0  0  0  0  0  0
  -27.4354  -12.3618   17.8495 H   0  0  0  0  0  0
  -27.5227  -14.2533   19.3231 H   0  0  0  0  0  0
  -28.8121  -12.5558   21.5115 H   0  0  0  0  0  0
  -28.2647  -14.2041   21.6880 H   0  0  0  0  0  0
  -25.2797   -9.5699   22.4739 H   0  0  0  0  0  0
  -24.0042   -7.4655   22.7463 H   0  0  0  0  0  0
  -21.0874   -8.8817   19.8952 H   0  0  0  0  0  0
  -22.3760  -10.9690   19.6155 H   0  0  0  0  0  0
  -21.2036   -7.6159   23.9727 H   0  0  0  0  0  0
  -21.1473   -6.0504   25.9064 H   0  0  0  0  0  0
  -22.0596   -2.7624   23.2817 H   0  0  0  0  0  0
  -22.4036  -11.9889   22.4900 H   0  0  0  0  0  0
  -21.0987  -13.1167   22.2615 H   0  0  0  0  0  0
  -24.6270  -15.8473   20.5404 H   0  0  0  0  0  0
  -26.2312  -15.6446   20.0482 H   0  0  0  0  0  0
  -26.7398  -32.5078   23.0852 H   0  0  0  0  0  0
  -25.0072  -33.9438   25.0160 H   0  0  0  0  0  0
  -22.8005  -31.2608   21.3393 H   0  0  0  0  0  0
  -23.3764  -35.9516   23.3295 H   0  0  0  0  0  0
  -24.3561  -36.8857   22.2069 H   0  0  0  0  0  0
  -23.7241  -37.6371   23.6715 H   0  0  0  0  0  0
  -26.2426  -31.3476   20.6252 H   0  0  0  0  0  0
  -26.9121  -30.6658   22.0643 H   0  0  0  0  0  0
  -28.1435  -28.5464   21.3011 H   0  0  0  0  0  0
  -25.8799  -25.7105   18.9859 H   0  0  0  0  0  0
  -24.0153  -27.2570   18.9346 H   0  0  0  0  0  0
  -23.8842  -30.5035   19.3825 H   0  0  0  0  0  0
  -22.8367  -29.1927   19.8244 H   0  0  0  0  0  0
  -25.1340  -36.1749   25.0789 H   0  0  0  0  0  0
  -21.0055  -28.3373   24.1292 H   0  0  0  0  0  0
  -20.5668  -26.2380   23.3653 H   0  0  0  0  0  0
  -21.6663  -26.7394   22.1212 H   0  0  0  0  0  0
  -19.6927  -25.6265   21.1280 H   0  0  0  0  0  0
  -19.6713  -27.3147   20.6720 H   0  0  0  0  0  0
  -17.4229  -26.6690   21.4027 H   0  0  0  0  0  0
  -18.0349  -26.0090   22.9030 H   0  0  0  0  0  0
  -19.7974  -30.7324   24.2191 H   0  0  0  0  0  0
  -17.5039  -31.6273   24.5163 H   0  0  0  0  0  0
  -15.5372  -30.2960   23.7697 H   0  0  0  0  0  0
  -15.8716  -28.0797   22.7106 H   0  0  0  0  0  0
  -24.5877  -30.7122   25.7640 H   0  0  0  0  0  0
  -24.8857  -32.2994   26.4623 H   0  0  0  0  0  0
  -25.7897  -30.9039   27.0208 H   0  0  0  0  0  0
  -26.3162  -29.6522   24.1467 H   0  0  0  0  0  0
  -27.3971  -29.7268   25.5161 H   0  0  0  0  0  0
  -27.9123  -30.4031   23.9927 H   0  0  0  0  0  0
  -27.2609  -33.3696   26.1923 H   0  0  0  0  0  0
  -28.3936  -32.6822   25.0381 H   0  0  0  0  0  0
  -28.0633  -31.8575   26.5540 H   0  0  0  0  0  0
  -28.2580  -38.0061   24.7499 H   0  0  0  0  0  0
  -28.1073  -36.2585   24.6325 H   0  0  0  0  0  0
  -27.2284  -37.1433   25.8875 H   0  0  0  0  0  0
  -20.9610  -29.8718   21.6621 H   0  0  0  0  0  0
  -26.0131  -38.2756   24.1390 H   0  0  0  0  0  0
  -29.3462  -21.6849   18.0605 H   0  0  0  0  0  0
  -30.6962  -20.4133   16.3295 H   0  0  0  0  0  0
  -29.1623  -19.5944   16.0257 H   0  0  0  0  0  0
  -30.6244  -18.6517   16.3071 H   0  0  0  0  0  0
  -30.6107  -22.2582   21.8035 H   0  0  0  0  0  0
  -30.1531  -23.9524   21.6346 H   0  0  0  0  0  0
  -30.8488  -23.0860   20.2699 H   0  0  0  0  0  0
  -28.3334  -21.7175   22.6242 H   0  0  0  0  0  0
  -26.9112  -21.9746   21.6184 H   0  0  0  0  0  0
  -27.7034  -23.3392   22.4017 H   0  0  0  0  0  0
  -27.0730  -23.9365   19.7603 H   0  0  0  0  0  0
  -28.5489  -24.1199   18.9125 H   0  0  0  0  0  0
  -28.8262  -16.4251   21.0926 H   0  0  0  0  0  0
  1 25  1  0  0  0
  1 30  2  0  0  0
  1 82  1  0  0  0
  2  3  1  0  0  0
  2 25  1  0  0  0
  2 84  1  0  0  0
  2 85  1  0  0  0
  3  4  1  0  0  0
  3 86  1  0  0  0
  3 87  1  0  0  0
  4  5  1  0  0  0
  4 88  1  0  0  0
  4 89  1  0  0  0
  5  6  1  0  0  0
  5 26  1  0  0  0
  5 90  1  0  0  0
  6 25  1  0  0  0
  6 91  1  0  0  0
  6 92  1  0  0  0
  7  8  2  0  0  0
  7 26  1  0  0  0
  7 29  1  0  0  0
  8  9  1  0  0  0
  8 22  1  0  0  0
  9 10  1  0  0  0
  9 27  2  0  0  0
 10 11  2  0  0  0
 10 15  1  0  0  0
 11 12  1  0  0  0
 11 93  1  0  0  0
 12 13  2  0  0  0
 12 94  1  0  0  0
 13 14  1  0  0  0
 13 31  1  0  0  0
 14 15  2  0  0  0
 14 95  1  0  0  0
 15 96  1  0  0  0
 16 17  2  0  0  0
 16 21  1  0  0  0
 16 31  1  0  0  0
 17 18  1  0  0  0
 17 97  1  0  0  0
 18 19  2  0  0  0
 18 98  1  0  0  0
 19 20  1  0  0  0
 19 24  1  0  0  0
 20 21  2  0  0  0
 20 99  1  0  0  0
 21 23  1  0  0  0
 22 28  1  0  0  0
 22 32  2  0  0  0
 26 27  1  0  0  0
 28100  1  0  0  0
 28101  1  0  0  0
 29102  1  0  0  0
 29103  1  0  0  0
 33 34  1  0  0  0
 33 66  1  0  0  0
 33 70  2  0  0  0
 34 36  1  0  0  0
 34 59  1  0  0  0
 34104  1  0  0  0
 35 44  2  0  0  0
 35 45  1  0  0  0
 35 68  1  0  0  0
 36 56  1  0  0  0
 36105  1  0  0  0
 37 39  1  0  0  0
 37 47  1  0  0  0
 37 66  1  0  0  0
 37106  1  0  0  0
 38 43  2  0  0  0
 38 46  1  0  0  0
 38 47  1  0  0  0
 39 64  1  0  0  0
 39 67  2  0  0  0
 40 52  1  0  0  0
 40 53  2  0  0  0
 40 58  1  0  0  0
 41107  1  0  0  0
 41108  1  0  0  0
 41109  1  0  0  0
 41 48  1  0  0  0
 42 43  1  0  0  0
 42 66  1  0  0  0
 42110  1  0  0  0
 42111  1  0  0  0
 43 44  1  0  0  0
 44112  1  0  0  0
 45 46  2  0  0  0
 45113  1  0  0  0
 46114  1  0  0  0
 47115  1  0  0  0
 47116  1  0  0  0
 48 56  1  0  0  0
 48 65  1  0  0  0
 48117  1  0  0  0
 49 50  1  0  0  0
 49 53  1  0  0  0
 49 64  1  0  0  0
 49118  1  0  0  0
 50 51  1  0  0  0
 50119  1  0  0  0
 50120  1  0  0  0
 51 52  1  0  0  0
 51121  1  0  0  0
 51122  1  0  0  0
 52123  1  0  0  0
 52124  1  0  0  0
 53 54  1  0  0  0
 54 55  2  0  0  0
 54125  1  0  0  0
 55 57  1  0  0  0
 55126  1  0  0  0
 56 69  2  0  0  0
 57 58  2  0  0  0
 57127  1  0  0  0
 58128  1  0  0  0
 59 60  1  0  0  0
 59 61  1  0  0  0
 59 62  1  0  0  0
 60129  1  0  0  0
 60130  1  0  0  0
 60131  1  0  0  0
 61132  1  0  0  0
 61133  1  0  0  0
 61134  1  0  0  0
 62135  1  0  0  0
 62136  1  0  0  0
 62137  1  0  0  0
 63 65  1  0  0  0
 63138  1  0  0  0
 63139  1  0  0  0
 63140  1  0  0  0
 64141  1  0  0  0
 65142  1  0  0  0
 68 79  1  0  0  0
 71 72  2  0  0  0
 71 74  1  0  0  0
 71143  1  0  0  0
 72 73  1  0  0  0
 72 80  1  0  0  0
 73 75  2  0  0  0
 73 83  1  0  0  0
 74 76  1  0  0  0
 74 81  2  0  0  0
 75 81  1  0  0  0
 75 82  1  0  0  0
 76144  1  0  0  0
 76145  1  0  0  0
 76146  1  0  0  0
 77147  1  0  0  0
 77148  1  0  0  0
 77149  1  0  0  0
 77 80  1  0  0  0
 78 80  1  0  0  0
 78150  1  0  0  0
 78151  1  0  0  0
 78152  1  0  0  0
 79 80  1  0  0  0
 79153  1  0  0  0
 79154  1  0  0  0
 82155  1  0  0  0
M  ISO  4   1 100  68 101  79 101  82 100
M  END
> <chiral flag>
0

> <version>
0

> <s_m_source_file>
/data/baiqing/PycharmProjects/Reinvent-master-3.2/result/LINK_invent/BTK/process_docking_weight1_custom_sum_contain_oxygen_bond_distance_aromatic_linkinvent_7_9_3/rearranged_h_0019.sdf

> <i_m_source_file_index>
51

> <r_mmod_Potential_Energy-OPLS-2005>
1313.64770507812

> <r_mmod_Stretch_Energy-OPLS-2005>
667.798889160156

> <r_mmod_Bend_Energy-OPLS-2005>
456.834045410156

> <r_mmod_Torsional_Energy-OPLS-2005>
236.411819458008

> <r_mmod_Improper_Torsional_Energy-OPLS-2005>
3.43483734130859

> <r_mmod_Van_der_Waal_Energy-OPLS-2005>
123.421211242676

> <r_mmod_Electrostatic_Energy-OPLS-2005>
-488.725982666016

> <r_mmod_Solvation_Energy-OPLS-2005>
-218.346130371094

> <b_mmod_Minimization_Converged-OPLS-2005>
0

> <r_mmod_RMS_Derivative-OPLS-2005>
2.30804657936096

$$$$
51
                    3D
 Structure written by MMmdl.
153161  0  0  1  0            999 V2000
  -30.2629  -15.7656   20.3265 C   0  0  0  0  0  0
  -30.4146  -13.1850   19.5344 C   0  0  0  0  0  0
  -29.5526  -12.6872   18.3346 C   0  0  0  0  0  0
  -28.1444  -12.2918   18.7984 C   0  0  0  0  0  0
  -27.5933  -13.3172   19.8117 C   0  0  2  0  0  0
  -28.6031  -13.7147   20.9183 C   0  0  0  0  0  0
  -25.2325  -13.8297   20.5839 C   0  0  0  0  0  0
  -24.1716  -13.0436   20.9311 C   0  0  0  0  0  0
  -24.6426  -11.6950   20.8775 C   0  0  0  0  0  0
  -23.9129  -10.4289   21.0393 C   0  0  0  0  0  0
  -24.3657   -9.4201   21.9182 C   0  0  0  0  0  0
  -23.6317   -8.2245   22.0757 C   0  0  0  0  0  0
  -22.4302   -8.0294   21.3543 C   0  0  0  0  0  0
  -21.9944   -9.0271   20.4641 C   0  0  0  0  0  0
  -22.7293  -10.2136   20.3044 C   0  0  0  0  0  0
  -21.6859   -6.0751   22.5283 C   0  0  0  0  0  0
  -21.4013   -6.5648   23.8218 C   0  0  0  0  0  0
  -21.3653   -5.6800   24.9179 C   0  0  0  0  0  0
  -21.6039   -4.3065   24.7231 C   0  0  0  0  0  0
  -21.8816   -3.8160   23.4351 C   0  0  0  0  0  0
  -21.9190   -4.6974   22.3403 C   0  0  0  0  0  0
  -22.7722  -13.5165   21.1932 C   0  0  0  0  0  0
  -22.1662   -4.2158   21.0981 F   0  0  0  0  0  0
  -21.5619   -3.4544   25.7741 F   0  0  0  0  0  0
  -29.7492  -14.3796   20.2464 N   0  0  0  0  0  0
  -26.2786  -12.9634   20.3270 N   0  0  0  0  0  0
  -25.9379  -11.6693   20.5711 N   0  0  0  0  0  0
  -22.0363  -12.8152   22.0471 N   0  0  0  0  0  0
  -25.3914  -15.2048   20.4304 N   0  0  0  0  0  0
  -31.5014  -15.6609   20.2016 O   0  0  0  0  0  0
  -21.6654   -6.8905   21.4253 O   0  0  0  0  0  0
  -22.3401  -14.5454   20.6755 O   0  0  0  0  0  0
  -24.6926  -31.7908   23.1398 C   0  0  0  0  0  0
  -25.9484  -32.4420   23.7978 C   0  0  1  0  0  0
  -27.2299  -26.6029   20.2311 C   0  0  0  0  0  0
  -25.6009  -33.8239   24.1878 N   0  0  0  0  0  0
  -23.5207  -30.3869   21.4988 C   0  0  2  0  0  0
  -24.9810  -28.7049   20.1226 C   0  0  0  0  0  0
  -22.7803  -29.4265   22.4708 C   0  0  0  0  0  0
  -18.0346  -28.1459   22.8472 C   0  0  0  0  0  0
  -24.1477  -36.7097   23.2652 C   0  0  0  0  0  0
  -26.1046  -30.4938   21.4158 C   0  0  0  0  0  0
  -26.1721  -29.0438   20.7751 C   0  0  0  0  0  0
  -27.2755  -28.0246   20.7943 C   0  0  0  0  0  0
  -26.0028  -26.4976   19.5203 C   0  0  0  0  0  0
  -24.9428  -27.4586   19.4691 C   0  0  0  0  0  0
  -23.7805  -29.6711   20.1398 C   0  0  0  0  0  0
  -25.4137  -36.2862   24.0283 C   0  0  1  0  0  0
  -20.5987  -28.3821   23.1157 C   0  0  2  0  0  0
  -20.6807  -26.9471   22.5425 C   0  0  0  0  0  0
  -19.5772  -26.6416   21.5238 C   0  0  0  0  0  0
  -18.1951  -26.7995   22.1635 C   0  0  0  0  0  0
  -19.1612  -28.8973   23.2783 C   0  0  0  0  0  0
  -18.9530  -30.1553   23.8830 C   0  0  0  0  0  0
  -17.6515  -30.6635   24.0576 C   0  0  0  0  0  0
  -25.9129  -34.9258   23.4929 C   0  0  0  0  0  0
  -16.5405  -29.9122   23.6367 C   0  0  0  0  0  0
  -16.7322  -28.6548   23.0379 C   0  0  0  0  0  0
  -26.4616  -31.6468   25.0620 C   0  0  0  0  0  0
  -25.3648  -31.3852   26.1219 C   0  0  0  0  0  0
  -27.0551  -30.2793   24.6564 C   0  0  0  0  0  0
  -27.6059  -32.4316   25.7441 C   0  0  0  0  0  0
  -27.5546  -37.1706   24.8471 C   0  0  0  0  0  0
  -21.4446  -29.3026   22.3454 N   0  0  0  0  0  0
  -26.4232  -37.3656   23.9439 N   0  0  0  0  0  0
  -24.7980  -30.9269   22.0691 N   0  0  0  0  0  0
  -23.4212  -28.7898   23.3102 O   0  0  0  0  0  0
  -28.1774  -25.3368   20.3119 O   0  0  0  0  0  0
  -26.5784  -34.8866   22.4540 O   0  0  0  0  0  0
  -23.5932  -32.1013   23.6313 O   0  0  0  0  0  0
  -31.1452  -20.8747   20.9959 C   0  0  0  0  0  0
  -30.2894  -21.9981   20.7624 C   0  0  0  0  0  0
  -30.8740  -19.4717   20.8537 C   0  0  0  0  0  0
  -28.9327  -21.8932   20.3563 C   0  0  0  0  0  0
  -28.6926  -20.2704   20.2067 C   0  0  0  0  0  0
  -29.6227  -18.9330   20.4207 C   0  0  0  0  0  0
  -30.9033  -23.3726   20.9718 C   0  0  0  0  0  0
  -32.0250  -18.5504   21.2156 C   0  0  0  0  0  0
  -27.2910  -19.9125   19.7522 C   0  0  0  0  0  0
  -27.9743  -23.5445   20.1468 C   0  0  0  0  0  0
  -29.5000  -17.1689   20.3305 N   0  0  0  0  0  0
  -31.3928  -13.4723   19.1484 H   0  0  0  0  0  0
  -30.6162  -12.3712   20.2324 H   0  0  0  0  0  0
  -30.0382  -11.8477   17.8336 H   0  0  0  0  0  0
  -29.4802  -13.4848   17.5949 H   0  0  0  0  0  0
  -28.2163  -11.3160   19.2824 H   0  0  0  0  0  0
  -27.4719  -12.1682   17.9494 H   0  0  0  0  0  0
  -27.4346  -14.2153   19.2125 H   0  0  0  0  0  0
  -28.9044  -12.8576   21.5227 H   0  0  0  0  0  0
  -28.1455  -14.4265   21.6061 H   0  0  0  0  0  0
  -25.2786   -9.5687   22.4780 H   0  0  0  0  0  0
  -24.0008   -7.4641   22.7492 H   0  0  0  0  0  0
  -21.0866   -8.8807   19.8956 H   0  0  0  0  0  0
  -22.3752  -10.9680   19.6166 H   0  0  0  0  0  0
  -21.2013   -7.6157   23.9726 H   0  0  0  0  0  0
  -21.1470   -6.0529   25.9079 H   0  0  0  0  0  0
  -22.0598   -2.7622   23.2852 H   0  0  0  0  0  0
  -22.3983  -11.9836   22.4885 H   0  0  0  0  0  0
  -21.0966  -13.1162   22.2633 H   0  0  0  0  0  0
  -24.6204  -15.8538   20.5459 H   0  0  0  0  0  0
  -26.2397  -15.6482   20.1049 H   0  0  0  0  0  0
  -26.7561  -32.4908   23.0686 H   0  0  0  0  0  0
  -25.0087  -33.9235   24.9993 H   0  0  0  0  0  0
  -22.8492  -31.2238   21.2996 H   0  0  0  0  0  0
  -23.3775  -35.9386   23.3247 H   0  0  0  0  0  0
  -24.3518  -36.8814   22.2071 H   0  0  0  0  0  0
  -23.7187  -37.6245   23.6758 H   0  0  0  0  0  0
  -26.3123  -31.2106   20.6199 H   0  0  0  0  0  0
  -26.9532  -30.5742   22.0811 H   0  0  0  0  0  0
  -28.1675  -28.2973   21.3437 H   0  0  0  0  0  0
  -25.8180  -25.5585   19.0188 H   0  0  0  0  0  0
  -24.0462  -27.1904   18.9271 H   0  0  0  0  0  0
  -23.9582  -30.4226   19.3700 H   0  0  0  0  0  0
  -22.8831  -29.1402   19.8189 H   0  0  0  0  0  0
  -25.1341  -36.1573   25.0766 H   0  0  0  0  0  0
  -21.0071  -28.3450   24.1290 H   0  0  0  0  0  0
  -20.5680  -26.2447   23.3702 H   0  0  0  0  0  0
  -21.6666  -26.7393   22.1257 H   0  0  0  0  0  0
  -19.6918  -25.6303   21.1322 H   0  0  0  0  0  0
  -19.6717  -27.3186   20.6735 H   0  0  0  0  0  0
  -17.4236  -26.6758   21.4022 H   0  0  0  0  0  0
  -18.0298  -26.0151   22.9043 H   0  0  0  0  0  0
  -19.7999  -30.7394   24.2153 H   0  0  0  0  0  0
  -17.5071  -31.6307   24.5201 H   0  0  0  0  0  0
  -15.5411  -30.3021   23.7733 H   0  0  0  0  0  0
  -15.8717  -28.0853   22.7156 H   0  0  0  0  0  0
  -24.5875  -30.7115   25.7571 H   0  0  0  0  0  0
  -24.8773  -32.3107   26.4316 H   0  0  0  0  0  0
  -25.7814  -30.9272   27.0192 H   0  0  0  0  0  0
  -26.3290  -29.6399   24.1536 H   0  0  0  0  0  0
  -27.3949  -29.7249   25.5322 H   0  0  0  0  0  0
  -27.9281  -30.3903   24.0113 H   0  0  0  0  0  0
  -27.2623  -33.3731   26.1730 H   0  0  0  0  0  0
  -28.4044  -32.6673   25.0384 H   0  0  0  0  0  0
  -28.0512  -31.8592   26.5589 H   0  0  0  0  0  0
  -28.2558  -38.0013   24.7545 H   0  0  0  0  0  0
  -28.1050  -36.2551   24.6264 H   0  0  0  0  0  0
  -27.2264  -37.1310   25.8872 H   0  0  0  0  0  0
  -20.9797  -29.8623   21.6447 H   0  0  0  0  0  0
  -26.0040  -38.2679   24.1500 H   0  0  0  0  0  0
  -32.1410  -21.1253   21.3345 H   0  0  0  0  0  0
  -31.9899  -23.3268   20.9087 H   0  0  0  0  0  0
  -30.6429  -23.7614   21.9567 H   0  0  0  0  0  0
  -30.5802  -24.0838   20.2110 H   0  0  0  0  0  0
  -32.7868  -19.0672   21.8001 H   0  0  0  0  0  0
  -32.5020  -18.1701   20.3117 H   0  0  0  0  0  0
  -31.6899  -17.7159   21.8296 H   0  0  0  0  0  0
  -26.6087  -20.7556   19.8495 H   0  0  0  0  0  0
  -26.8905  -19.0873   20.3425 H   0  0  0  0  0  0
  -27.3093  -19.6053   18.7048 H   0  0  0  0  0  0
  -27.0749  -23.3640   20.7377 H   0  0  0  0  0  0
  -27.6206  -23.4578   19.1186 H   0  0  0  0  0  0
  -28.5211  -16.9255   20.2759 H   0  0  0  0  0  0
  1 25  1  0  0  0
  1 30  2  0  0  0
  1 81  1  0  0  0
  2  3  1  0  0  0
  2 25  1  0  0  0
  2 82  1  0  0  0
  2 83  1  0  0  0
  3  4  1  0  0  0
  3 84  1  0  0  0
  3 85  1  0  0  0
  4  5  1  0  0  0
  4 86  1  0  0  0
  4 87  1  0  0  0
  5  6  1  0  0  0
  5 26  1  0  0  0
  5 88  1  0  0  0
  6 25  1  0  0  0
  6 89  1  0  0  0
  6 90  1  0  0  0
  7  8  2  0  0  0
  7 26  1  0  0  0
  7 29  1  0  0  0
  8  9  1  0  0  0
  8 22  1  0  0  0
  9 10  1  0  0  0
  9 27  2  0  0  0
 10 11  2  0  0  0
 10 15  1  0  0  0
 11 12  1  0  0  0
 11 91  1  0  0  0
 12 13  2  0  0  0
 12 92  1  0  0  0
 13 14  1  0  0  0
 13 31  1  0  0  0
 14 15  2  0  0  0
 14 93  1  0  0  0
 15 94  1  0  0  0
 16 17  2  0  0  0
 16 21  1  0  0  0
 16 31  1  0  0  0
 17 18  1  0  0  0
 17 95  1  0  0  0
 18 19  2  0  0  0
 18 96  1  0  0  0
 19 20  1  0  0  0
 19 24  1  0  0  0
 20 21  2  0  0  0
 20 97  1  0  0  0
 21 23  1  0  0  0
 22 28  1  0  0  0
 22 32  2  0  0  0
 26 27  1  0  0  0
 28 98  1  0  0  0
 28 99  1  0  0  0
 29100  1  0  0  0
 29101  1  0  0  0
 33 34  1  0  0  0
 33 66  1  0  0  0
 33 70  2  0  0  0
 34 36  1  0  0  0
 34 59  1  0  0  0
 34102  1  0  0  0
 35 44  2  0  0  0
 35 45  1  0  0  0
 35 68  1  0  0  0
 36 56  1  0  0  0
 36103  1  0  0  0
 37 39  1  0  0  0
 37 47  1  0  0  0
 37 66  1  0  0  0
 37104  1  0  0  0
 38 43  2  0  0  0
 38 46  1  0  0  0
 38 47  1  0  0  0
 39 64  1  0  0  0
 39 67  2  0  0  0
 40 52  1  0  0  0
 40 53  2  0  0  0
 40 58  1  0  0  0
 41105  1  0  0  0
 41106  1  0  0  0
 41107  1  0  0  0
 41 48  1  0  0  0
 42 43  1  0  0  0
 42 66  1  0  0  0
 42108  1  0  0  0
 42109  1  0  0  0
 43 44  1  0  0  0
 44110  1  0  0  0
 45 46  2  0  0  0
 45111  1  0  0  0
 46112  1  0  0  0
 47113  1  0  0  0
 47114  1  0  0  0
 48 56  1  0  0  0
 48 65  1  0  0  0
 48115  1  0  0  0
 49 50  1  0  0  0
 49 53  1  0  0  0
 49 64  1  0  0  0
 49116  1  0  0  0
 50 51  1  0  0  0
 50117  1  0  0  0
 50118  1  0  0  0
 51 52  1  0  0  0
 51119  1  0  0  0
 51120  1  0  0  0
 52121  1  0  0  0
 52122  1  0  0  0
 53 54  1  0  0  0
 54 55  2  0  0  0
 54123  1  0  0  0
 55 57  1  0  0  0
 55124  1  0  0  0
 56 69  2  0  0  0
 57 58  2  0  0  0
 57125  1  0  0  0
 58126  1  0  0  0
 59 60  1  0  0  0
 59 61  1  0  0  0
 59 62  1  0  0  0
 60127  1  0  0  0
 60128  1  0  0  0
 60129  1  0  0  0
 61130  1  0  0  0
 61131  1  0  0  0
 61132  1  0  0  0
 62133  1  0  0  0
 62134  1  0  0  0
 62135  1  0  0  0
 63 65  1  0  0  0
 63136  1  0  0  0
 63137  1  0  0  0
 63138  1  0  0  0
 64139  1  0  0  0
 65140  1  0  0  0
 68 80  1  0  0  0
 71 72  2  0  0  0
 71 73  1  0  0  0
 71141  1  0  0  0
 72 74  1  0  0  0
 72 77  1  0  0  0
 73 76  2  0  0  0
 73 78  1  0  0  0
 74 75  2  0  0  0
 74 80  1  0  0  0
 75 76  1  0  0  0
 75 79  1  0  0  0
 76 81  1  0  0  0
 77142  1  0  0  0
 77143  1  0  0  0
 77144  1  0  0  0
 78145  1  0  0  0
 78146  1  0  0  0
 78147  1  0  0  0
 79148  1  0  0  0
 79149  1  0  0  0
 79150  1  0  0  0
 80151  1  0  0  0
 80152  1  0  0  0
 81153  1  0  0  0
M  ISO  4   1 100  68 101  80 101  81 100
M  END
> <chiral flag>
0

> <version>
0

> <s_m_source_file>
/data/baiqing/PycharmProjects/Reinvent-master-3.2/result/LINK_invent/BTK/process_docking_weight1_custom_sum_contain_oxygen_bond_distance_aromatic_linkinvent_7_9_3/rearranged_h_0019.sdf

> <i_m_source_file_index>
52

> <r_mmod_Potential_Energy-OPLS-2005>
2802.1328125

> <r_mmod_Stretch_Energy-OPLS-2005>
1277.92749023438

> <r_mmod_Bend_Energy-OPLS-2005>
643.240356445312

> <r_mmod_Torsional_Energy-OPLS-2005>
223.104019165039

> <r_mmod_Improper_Torsional_Energy-OPLS-2005>
4.76089096069336

> <r_mmod_Van_der_Waal_Energy-OPLS-2005>
132.802398681641

> <r_mmod_Electrostatic_Energy-OPLS-2005>
-385.983306884766

> <r_mmod_Solvation_Energy-OPLS-2005>
-206.680892944336

> <b_mmod_Minimization_Converged-OPLS-2005>
0

> <r_mmod_RMS_Derivative-OPLS-2005>
3.52881741523743

$$$$
52
                    3D
 Structure written by MMmdl.
158166  0  0  1  0            999 V2000
  -30.7389  -14.4251   20.6269 C   0  0  0  0  0  0
  -30.4204  -12.3014   19.4137 C   0  0  0  0  0  0
  -29.4898  -12.4957   18.2018 C   0  0  0  0  0  0
  -28.0166  -12.3369   18.6214 C   0  0  0  0  0  0
  -27.6604  -13.1955   19.8644 C   0  0  2  0  0  0
  -28.6979  -12.9846   20.9885 C   0  0  0  0  0  0
  -25.2599  -13.8128   20.5631 C   0  0  0  0  0  0
  -24.1849  -13.0432   20.9163 C   0  0  0  0  0  0
  -24.6390  -11.6887   20.8743 C   0  0  0  0  0  0
  -23.9051  -10.4289   21.0418 C   0  0  0  0  0  0
  -24.3612   -9.4207   21.9191 C   0  0  0  0  0  0
  -23.6294   -8.2240   22.0751 C   0  0  0  0  0  0
  -22.4271   -8.0287   21.3549 C   0  0  0  0  0  0
  -21.9905   -9.0256   20.4642 C   0  0  0  0  0  0
  -22.7233  -10.2132   20.3063 C   0  0  0  0  0  0
  -21.6848   -6.0749   22.5289 C   0  0  0  0  0  0
  -21.4014   -6.5650   23.8228 C   0  0  0  0  0  0
  -21.3650   -5.6793   24.9186 C   0  0  0  0  0  0
  -21.6048   -4.3061   24.7233 C   0  0  0  0  0  0
  -21.8816   -3.8158   23.4354 C   0  0  0  0  0  0
  -21.9197   -4.6977   22.3416 C   0  0  0  0  0  0
  -22.7881  -13.5249   21.1852 C   0  0  0  0  0  0
  -22.1666   -4.2165   21.0994 F   0  0  0  0  0  0
  -21.5628   -3.4541   25.7740 F   0  0  0  0  0  0
  -30.0328  -13.2790   20.4413 N   0  0  0  0  0  0
  -26.3014  -12.9279   20.3291 N   0  0  0  0  0  0
  -25.9307  -11.6450   20.5753 N   0  0  0  0  0  0
  -22.0523  -12.8231   22.0399 N   0  0  0  0  0  0
  -25.4321  -15.1846   20.4024 N   0  0  0  0  0  0
  -31.8290  -14.6415   20.0956 O   0  0  0  0  0  0
  -21.6639   -6.8885   21.4246 O   0  0  0  0  0  0
  -22.3573  -14.5578   20.6718 O   0  0  0  0  0  0
  -24.6184  -31.8659   23.2083 C   0  0  0  0  0  0
  -25.9063  -32.4814   23.8400 C   0  0  1  0  0  0
  -27.2409  -27.4153   20.0884 C   0  0  0  0  0  0
  -25.5907  -33.8619   24.2327 N   0  0  0  0  0  0
  -23.4061  -30.4907   21.5498 C   0  0  2  0  0  0
  -24.8509  -28.9489   20.1198 C   0  0  0  0  0  0
  -22.7428  -29.4679   22.4997 C   0  0  0  0  0  0
  -18.0271  -28.1403   22.8511 C   0  0  0  0  0  0
  -24.1489  -36.7313   23.2642 C   0  0  0  0  0  0
  -25.9378  -30.8264   21.3617 C   0  0  0  0  0  0
  -26.0132  -29.4572   20.7116 C   0  0  0  0  0  0
  -27.2056  -28.6965   20.6956 C   0  0  0  0  0  0
  -26.0481  -26.9155   19.5145 C   0  0  0  0  0  0
  -24.8626  -27.6760   19.5241 C   0  0  0  0  0  0
  -23.6174  -29.8219   20.1650 C   0  0  0  0  0  0
  -25.4108  -36.3107   24.0344 C   0  0  1  0  0  0
  -20.5866  -28.3696   23.1320 C   0  0  2  0  0  0
  -20.6774  -26.9449   22.5383 C   0  0  0  0  0  0
  -19.5716  -26.6421   21.5215 C   0  0  0  0  0  0
  -18.1912  -26.7944   22.1665 C   0  0  0  0  0  0
  -19.1521  -28.8870   23.2918 C   0  0  0  0  0  0
  -18.9446  -30.1480   23.8902 C   0  0  0  0  0  0
  -17.6447  -30.6614   24.0564 C   0  0  0  0  0  0
  -25.9038  -34.9471   23.5132 C   0  0  0  0  0  0
  -16.5335  -29.9110   23.6332 C   0  0  0  0  0  0
  -16.7258  -28.6530   23.0363 C   0  0  0  0  0  0
  -26.4487  -31.6599   25.0737 C   0  0  0  0  0  0
  -25.3759  -31.3688   26.1488 C   0  0  0  0  0  0
  -27.0329  -30.3051   24.6097 C   0  0  0  0  0  0
  -27.6055  -32.4328   25.7490 C   0  0  0  0  0  0
  -27.5577  -37.1814   24.8467 C   0  0  0  0  0  0
  -21.4151  -29.3106   22.3775 N   0  0  0  0  0  0
  -26.4293  -37.3789   23.9408 N   0  0  0  0  0  0
  -24.6730  -31.0765   22.0981 N   0  0  0  0  0  0
  -23.4180  -28.8192   23.3028 O   0  0  0  0  0  0
  -28.4297  -26.7036   20.1038 O   0  0  0  0  0  0
  -26.5601  -34.8918   22.4694 O   0  0  0  0  0  0
  -23.5370  -32.1425   23.7462 O   0  0  0  0  0  0
  -27.9029  -23.1523   19.3022 C   0  0  0  0  0  0
  -29.5744  -23.9093   20.8759 C   0  0  0  0  0  0
  -28.6773  -24.2067   19.8328 C   0  0  0  0  0  0
  -28.0072  -21.8249   19.7919 C   0  0  0  0  0  0
  -28.9270  -21.5245   20.8436 C   0  0  0  0  0  0
  -29.6970  -22.5940   21.3758 C   0  0  0  0  0  0
  -27.1008  -20.7837   19.1512 C   0  0  0  0  0  0
  -28.6401  -25.6042   19.1976 C   0  0  0  0  0  0
  -29.6833  -17.8036   21.4535 C   0  0  0  0  0  0
  -28.9128  -18.9573   20.7674 C   0  0  0  0  0  0
  -29.3260  -16.4040   20.8974 C   0  0  0  0  0  0
  -29.1320  -20.2471   21.4256 N   0  0  0  0  0  0
  -30.1952  -15.3466   21.4350 N   0  0  0  0  0  0
  -30.8320  -22.3020   22.6520 Cl  0  0  0  0  0  0
  -31.4645  -12.4013   19.1115 H   0  0  0  0  0  0
  -30.3242  -11.2906   19.8140 H   0  0  0  0  0  0
  -29.7352  -11.7756   17.4208 H   0  0  0  0  0  0
  -29.6449  -13.4855   17.7701 H   0  0  0  0  0  0
  -27.8506  -11.2818   18.8422 H   0  0  0  0  0  0
  -27.3547  -12.5765   17.7886 H   0  0  0  0  0  0
  -27.7064  -14.2387   19.5508 H   0  0  0  0  0  0
  -28.6719  -11.9510   21.3405 H   0  0  0  0  0  0
  -28.4479  -13.5936   21.8578 H   0  0  0  0  0  0
  -25.2769   -9.5680   22.4746 H   0  0  0  0  0  0
  -24.0017   -7.4625   22.7456 H   0  0  0  0  0  0
  -21.0844   -8.8782   19.8926 H   0  0  0  0  0  0
  -22.3723  -10.9673   19.6164 H   0  0  0  0  0  0
  -21.1991   -7.6157   23.9740 H   0  0  0  0  0  0
  -21.1472   -6.0523   25.9090 H   0  0  0  0  0  0
  -22.0595   -2.7622   23.2857 H   0  0  0  0  0  0
  -22.4149  -11.9876   22.4755 H   0  0  0  0  0  0
  -21.1135  -13.1217   22.2623 H   0  0  0  0  0  0
  -24.6601  -15.8353   20.4959 H   0  0  0  0  0  0
  -26.2808  -15.6186   20.0622 H   0  0  0  0  0  0
  -26.7152  -32.5517   23.1175 H   0  0  0  0  0  0
  -25.0075  -33.9788   25.0485 H   0  0  0  0  0  0
  -22.6945  -31.3074   21.4081 H   0  0  0  0  0  0
  -23.3742  -35.9656   23.3322 H   0  0  0  0  0  0
  -24.3581  -36.8913   22.2053 H   0  0  0  0  0  0
  -23.7263  -37.6531   23.6648 H   0  0  0  0  0  0
  -26.0515  -31.5904   20.5911 H   0  0  0  0  0  0
  -26.8259  -30.8835   21.9786 H   0  0  0  0  0  0
  -28.1054  -29.0899   21.1479 H   0  0  0  0  0  0
  -26.0049  -25.9298   19.0753 H   0  0  0  0  0  0
  -23.9626  -27.2696   19.0833 H   0  0  0  0  0  0
  -23.7375  -30.5964   19.4062 H   0  0  0  0  0  0
  -22.7390  -29.2486   19.8621 H   0  0  0  0  0  0
  -25.1288  -36.1976   25.0842 H   0  0  0  0  0  0
  -20.9963  -28.3233   24.1443 H   0  0  0  0  0  0
  -21.6629  -26.7539   22.1092 H   0  0  0  0  0  0
  -20.5756  -26.2292   23.3559 H   0  0  0  0  0  0
  -19.6877  -25.6341   21.1213 H   0  0  0  0  0  0
  -19.6614  -27.3252   20.6757 H   0  0  0  0  0  0
  -17.4160  -26.6685   21.4089 H   0  0  0  0  0  0
  -18.0330  -26.0106   22.9071 H   0  0  0  0  0  0
  -19.7918  -30.7302   24.2257 H   0  0  0  0  0  0
  -17.4987  -31.6285   24.5171 H   0  0  0  0  0  0
  -15.5329  -30.3009   23.7658 H   0  0  0  0  0  0
  -15.8657  -28.0855   22.7083 H   0  0  0  0  0  0
  -24.5887  -30.7099   25.7804 H   0  0  0  0  0  0
  -24.9004  -32.2843   26.5018 H   0  0  0  0  0  0
  -25.8116  -30.8776   27.0197 H   0  0  0  0  0  0
  -26.2870  -29.6796   24.1172 H   0  0  0  0  0  0
  -27.4150  -29.7300   25.4537 H   0  0  0  0  0  0
  -27.8682  -30.4395   23.9217 H   0  0  0  0  0  0
  -27.2663  -33.3592   26.2130 H   0  0  0  0  0  0
  -28.3818  -32.6953   25.0294 H   0  0  0  0  0  0
  -28.0780  -31.8429   26.5350 H   0  0  0  0  0  0
  -28.2610  -38.0090   24.7487 H   0  0  0  0  0  0
  -28.1061  -36.2628   24.6328 H   0  0  0  0  0  0
  -27.2294  -37.1504   25.8869 H   0  0  0  0  0  0
  -20.9338  -29.8878   21.7027 H   0  0  0  0  0  0
  -26.0185  -38.2877   24.1379 H   0  0  0  0  0  0
  -27.2276  -23.3658   18.4863 H   0  0  0  0  0  0
  -30.1960  -24.6918   21.2845 H   0  0  0  0  0  0
  -27.6763  -20.1014   18.5259 H   0  0  0  0  0  0
  -26.3549  -21.2510   18.5083 H   0  0  0  0  0  0
  -26.5601  -20.2120   19.9049 H   0  0  0  0  0  0
  -27.9768  -25.6179   18.3327 H   0  0  0  0  0  0
  -29.6285  -25.7651   18.7664 H   0  0  0  0  0  0
  -29.4831  -17.8131   22.5270 H   0  0  0  0  0  0
  -30.7536  -17.9784   21.3372 H   0  0  0  0  0  0
  -27.8488  -18.7201   20.7868 H   0  0  0  0  0  0
  -29.2213  -19.0145   19.7231 H   0  0  0  0  0  0
  -29.3742  -16.4231   19.8053 H   0  0  0  0  0  0
  -28.2942  -16.1639   21.1595 H   0  0  0  0  0  0
  -29.7905  -20.2441   22.2005 H   0  0  0  0  0  0
  -30.9039  -15.7482   22.0318 H   0  0  0  0  0  0
  1 25  1  0  0  0
  1 30  2  0  0  0
  1 83  1  0  0  0
  2  3  1  0  0  0
  2 25  1  0  0  0
  2 85  1  0  0  0
  2 86  1  0  0  0
  3  4  1  0  0  0
  3 87  1  0  0  0
  3 88  1  0  0  0
  4  5  1  0  0  0
  4 89  1  0  0  0
  4 90  1  0  0  0
  5  6  1  0  0  0
  5 26  1  0  0  0
  5 91  1  0  0  0
  6 25  1  0  0  0
  6 92  1  0  0  0
  6 93  1  0  0  0
  7  8  2  0  0  0
  7 26  1  0  0  0
  7 29  1  0  0  0
  8  9  1  0  0  0
  8 22  1  0  0  0
  9 10  1  0  0  0
  9 27  2  0  0  0
 10 11  2  0  0  0
 10 15  1  0  0  0
 11 12  1  0  0  0
 11 94  1  0  0  0
 12 13  2  0  0  0
 12 95  1  0  0  0
 13 14  1  0  0  0
 13 31  1  0  0  0
 14 15  2  0  0  0
 14 96  1  0  0  0
 15 97  1  0  0  0
 16 17  2  0  0  0
 16 21  1  0  0  0
 16 31  1  0  0  0
 17 18  1  0  0  0
 17 98  1  0  0  0
 18 19  2  0  0  0
 18 99  1  0  0  0
 19 20  1  0  0  0
 19 24  1  0  0  0
 20 21  2  0  0  0
 20100  1  0  0  0
 21 23  1  0  0  0
 22 28  1  0  0  0
 22 32  2  0  0  0
 26 27  1  0  0  0
 28101  1  0  0  0
 28102  1  0  0  0
 29103  1  0  0  0
 29104  1  0  0  0
 33 34  1  0  0  0
 33 66  1  0  0  0
 33 70  2  0  0  0
 34 36  1  0  0  0
 34 59  1  0  0  0
 34105  1  0  0  0
 35 44  2  0  0  0
 35 45  1  0  0  0
 35 68  1  0  0  0
 36 56  1  0  0  0
 36106  1  0  0  0
 37 39  1  0  0  0
 37 47  1  0  0  0
 37 66  1  0  0  0
 37107  1  0  0  0
 38 43  2  0  0  0
 38 46  1  0  0  0
 38 47  1  0  0  0
 39 64  1  0  0  0
 39 67  2  0  0  0
 40 52  1  0  0  0
 40 53  2  0  0  0
 40 58  1  0  0  0
 41108  1  0  0  0
 41109  1  0  0  0
 41110  1  0  0  0
 41 48  1  0  0  0
 42 43  1  0  0  0
 42 66  1  0  0  0
 42111  1  0  0  0
 42112  1  0  0  0
 43 44  1  0  0  0
 44113  1  0  0  0
 45 46  2  0  0  0
 45114  1  0  0  0
 46115  1  0  0  0
 47116  1  0  0  0
 47117  1  0  0  0
 48 56  1  0  0  0
 48 65  1  0  0  0
 48118  1  0  0  0
 49 50  1  0  0  0
 49 53  1  0  0  0
 49 64  1  0  0  0
 49119  1  0  0  0
 50 51  1  0  0  0
 50120  1  0  0  0
 50121  1  0  0  0
 51 52  1  0  0  0
 51122  1  0  0  0
 51123  1  0  0  0
 52124  1  0  0  0
 52125  1  0  0  0
 53 54  1  0  0  0
 54 55  2  0  0  0
 54126  1  0  0  0
 55 57  1  0  0  0
 55127  1  0  0  0
 56 69  2  0  0  0
 57 58  2  0  0  0
 57128  1  0  0  0
 58129  1  0  0  0
 59 60  1  0  0  0
 59 61  1  0  0  0
 59 62  1  0  0  0
 60130  1  0  0  0
 60131  1  0  0  0
 60132  1  0  0  0
 61133  1  0  0  0
 61134  1  0  0  0
 61135  1  0  0  0
 62136  1  0  0  0
 62137  1  0  0  0
 62138  1  0  0  0
 63 65  1  0  0  0
 63139  1  0  0  0
 63140  1  0  0  0
 63141  1  0  0  0
 64142  1  0  0  0
 65143  1  0  0  0
 68 78  1  0  0  0
 71 73  2  0  0  0
 71 74  1  0  0  0
 71144  1  0  0  0
 72 73  1  0  0  0
 72 76  2  0  0  0
 72145  1  0  0  0
 73 78  1  0  0  0
 74 75  2  0  0  0
 74 77  1  0  0  0
 75 76  1  0  0  0
 75 82  1  0  0  0
 76 84  1  0  0  0
 77146  1  0  0  0
 77147  1  0  0  0
 77148  1  0  0  0
 78149  1  0  0  0
 78150  1  0  0  0
 79 80  1  0  0  0
 79 81  1  0  0  0
 79151  1  0  0  0
 79152  1  0  0  0
 80 82  1  0  0  0
 80153  1  0  0  0
 80154  1  0  0  0
 81 83  1  0  0  0
 81155  1  0  0  0
 81156  1  0  0  0
 82157  1  0  0  0
 83158  1  0  0  0
M  ISO  4   1 100  68 101  78 101  83 100
M  END
> <chiral flag>
0

> <version>
0

> <s_m_source_file>
/data/baiqing/PycharmProjects/Reinvent-master-3.2/result/LINK_invent/BTK/process_docking_weight1_custom_sum_contain_oxygen_bond_distance_aromatic_linkinvent_7_9_3/rearranged_h_0019.sdf

> <i_m_source_file_index>
53

> <r_mmod_Potential_Energy-OPLS-2005>
19.380464553833

> <r_mmod_Stretch_Energy-OPLS-2005>
39.9418296813965

> <r_mmod_Bend_Energy-OPLS-2005>
127.106117248535

> <r_mmod_Torsional_Energy-OPLS-2005>
259.837188720703

> <r_mmod_Improper_Torsional_Energy-OPLS-2005>
8.32834529876709

> <r_mmod_Van_der_Waal_Energy-OPLS-2005>
152.728973388672

> <r_mmod_Electrostatic_Energy-OPLS-2005>
-371.710754394531

> <r_mmod_Solvation_Energy-OPLS-2005>
-208.637481689453

> <b_mmod_Minimization_Converged-OPLS-2005>
0

> <r_mmod_RMS_Derivative-OPLS-2005>
2.60557508468628

$$$$
53
                    3D
 Structure written by MMmdl.
159167  0  0  1  0            999 V2000
  -30.4921  -14.9560   20.4264 C   0  0  0  0  0  0
  -30.4400  -12.5770   19.5458 C   0  0  0  0  0  0
  -29.5316  -12.4705   18.2957 C   0  0  0  0  0  0
  -28.0521  -12.3059   18.6928 C   0  0  0  0  0  0
  -27.6266  -13.2381   19.8562 C   0  0  2  0  0  0
  -28.6539  -13.2559   21.0039 C   0  0  0  0  0  0
  -25.2428  -13.8170   20.5758 C   0  0  0  0  0  0
  -24.1731  -13.0404   20.9288 C   0  0  0  0  0  0
  -24.6327  -11.6880   20.8800 C   0  0  0  0  0  0
  -23.9026  -10.4226   21.0398 C   0  0  0  0  0  0
  -24.3573   -9.4133   21.9154 C   0  0  0  0  0  0
  -23.6247   -8.2164   22.0726 C   0  0  0  0  0  0
  -22.4221   -8.0218   21.3529 C   0  0  0  0  0  0
  -21.9865   -9.0193   20.4615 C   0  0  0  0  0  0
  -22.7203  -10.2067   20.3033 C   0  0  0  0  0  0
  -21.6815   -6.0690   22.5283 C   0  0  0  0  0  0
  -21.4008   -6.5595   23.8225 C   0  0  0  0  0  0
  -21.3669   -5.6744   24.9185 C   0  0  0  0  0  0
  -21.6045   -4.3004   24.7238 C   0  0  0  0  0  0
  -21.8821   -3.8108   23.4353 C   0  0  0  0  0  0
  -21.9170   -4.6924   22.3409 C   0  0  0  0  0  0
  -22.7747  -13.5159   21.1972 C   0  0  0  0  0  0
  -22.1617   -4.2113   21.0984 F   0  0  0  0  0  0
  -21.5674   -3.4491   25.7756 F   0  0  0  0  0  0
  -29.9318  -13.6785   20.4185 N   0  0  0  0  0  0
  -26.2819  -12.9369   20.3312 N   0  0  0  0  0  0
  -25.9252  -11.6516   20.5797 N   0  0  0  0  0  0
  -22.0385  -12.8143   22.0546 N   0  0  0  0  0  0
  -25.4247  -15.1894   20.4193 N   0  0  0  0  0  0
  -31.6852  -15.0386   20.1118 O   0  0  0  0  0  0
  -21.6584   -6.8817   21.4234 O   0  0  0  0  0  0
  -22.3419  -14.5431   20.6771 O   0  0  0  0  0  0
  -24.6455  -31.8460   23.1851 C   0  0  0  0  0  0
  -25.9223  -32.4709   23.8288 C   0  0  1  0  0  0
  -27.2062  -27.1189   20.1657 C   0  0  0  0  0  0
  -25.5965  -33.8518   24.2202 N   0  0  0  0  0  0
  -23.4503  -30.4654   21.5295 C   0  0  2  0  0  0
  -24.8978  -28.8880   20.1086 C   0  0  0  0  0  0
  -22.7599  -29.4593   22.4863 C   0  0  0  0  0  0
  -18.0318  -28.1410   22.8481 C   0  0  0  0  0  0
  -24.1486  -36.7256   23.2647 C   0  0  0  0  0  0
  -26.0081  -30.7122   21.3878 C   0  0  0  0  0  0
  -26.0740  -29.3209   20.7332 C   0  0  0  0  0  0
  -27.2339  -28.4538   20.7435 C   0  0  0  0  0  0
  -26.0142  -26.8026   19.4822 C   0  0  0  0  0  0
  -24.8822  -27.6443   19.4594 C   0  0  0  0  0  0
  -23.6759  -29.7943   20.1483 C   0  0  0  0  0  0
  -25.4119  -36.3059   24.0330 C   0  0  1  0  0  0
  -20.5928  -28.3767   23.1206 C   0  0  2  0  0  0
  -20.6806  -26.9467   22.5370 C   0  0  0  0  0  0
  -19.5778  -26.6396   21.5182 C   0  0  0  0  0  0
  -18.1965  -26.7954   22.1609 C   0  0  0  0  0  0
  -19.1577  -28.8905   23.2827 C   0  0  0  0  0  0
  -18.9499  -30.1498   23.8857 C   0  0  0  0  0  0
  -17.6496  -30.6602   24.0581 C   0  0  0  0  0  0
  -25.9076  -34.9430   23.5070 C   0  0  0  0  0  0
  -16.5383  -29.9115   23.6341 C   0  0  0  0  0  0
  -16.7297  -28.6529   23.0357 C   0  0  0  0  0  0
  -26.4502  -31.6576   25.0753 C   0  0  0  0  0  0
  -25.3675  -31.3732   26.1436 C   0  0  0  0  0  0
  -27.0362  -30.2994   24.6327 C   0  0  0  0  0  0
  -27.6057  -32.4333   25.7509 C   0  0  0  0  0  0
  -27.5566  -37.1787   24.8474 C   0  0  0  0  0  0
  -21.4296  -29.3088   22.3597 N   0  0  0  0  0  0
  -26.4276  -37.3781   23.9424 N   0  0  0  0  0  0
  -24.7208  -31.0319   22.0876 N   0  0  0  0  0  0
  -23.4240  -28.8168   23.3035 O   0  0  0  0  0  0
  -28.2451  -26.1125   20.2124 O   0  0  0  0  0  0
  -26.5653  -34.8933   22.4652 O   0  0  0  0  0  0
  -23.5562  -32.1336   23.7072 O   0  0  0  0  0  0
  -29.6356  -18.8651   17.9341 C   0  0  0  0  0  0
  -29.1931  -20.0558   18.5501 C   0  0  0  0  0  0
  -29.8076  -17.6373   18.6064 C   0  0  0  0  0  0
  -29.0146  -20.1487   19.9577 C   0  0  0  0  0  0
  -29.6283  -17.5323   20.0128 C   0  0  0  0  0  0
  -29.2152  -18.8285   20.6494 C   0  0  0  0  0  0
  -28.8019  -21.1755   17.5980 C   0  0  0  0  0  0
  -30.0434  -16.4248   17.7162 C   0  0  0  0  0  0
  -26.8952  -21.4547   20.6652 C   0  0  0  0  0  0
  -28.8207  -23.1962   20.1605 C   0  0  0  0  0  0
  -27.9209  -24.6022   20.4917 C   0  0  0  0  0  0
  -28.4284  -21.5819   20.6027 C   0  0  2  0  0  0
  -29.6919  -16.1213   20.6470 N   0  0  0  0  0  0
  -28.8464  -18.7689   22.3374 Cl  0  0  0  0  0  0
  -31.4712  -12.7506   19.2362 H   0  0  0  0  0  0
  -30.4542  -11.6379   20.1030 H   0  0  0  0  0  0
  -29.8450  -11.6120   17.6965 H   0  0  0  0  0  0
  -29.6576  -13.3509   17.6667 H   0  0  0  0  0  0
  -27.9171  -11.2676   18.9945 H   0  0  0  0  0  0
  -27.4036  -12.4590   17.8294 H   0  0  0  0  0  0
  -27.5995  -14.2421   19.4361 H   0  0  0  0  0  0
  -28.7403  -12.2734   21.4724 H   0  0  0  0  0  0
  -28.3423  -13.9455   21.7890 H   0  0  0  0  0  0
  -25.2711   -9.5584   22.4736 H   0  0  0  0  0  0
  -23.9956   -7.4527   22.7415 H   0  0  0  0  0  0
  -21.0805   -8.8678   19.8897 H   0  0  0  0  0  0
  -22.3645  -10.9599   19.6136 H   0  0  0  0  0  0
  -21.1987   -7.6097   23.9738 H   0  0  0  0  0  0
  -21.1519   -6.0460   25.9099 H   0  0  0  0  0  0
  -22.0613   -2.7579   23.2862 H   0  0  0  0  0  0
  -22.3951  -11.9798   22.4980 H   0  0  0  0  0  0
  -21.1028  -13.1212   22.2782 H   0  0  0  0  0  0
  -24.6840  -15.8672   20.5531 H   0  0  0  0  0  0
  -26.2847  -15.6029   20.0845 H   0  0  0  0  0  0
  -26.7348  -32.5301   23.1064 H   0  0  0  0  0  0
  -25.0158  -33.9618   25.0383 H   0  0  0  0  0  0
  -22.7523  -31.2907   21.3752 H   0  0  0  0  0  0
  -23.3764  -35.9570   23.3303 H   0  0  0  0  0  0
  -24.3563  -36.8882   22.2058 H   0  0  0  0  0  0
  -23.7201  -37.6442   23.6669 H   0  0  0  0  0  0
  -26.1690  -31.4588   20.6089 H   0  0  0  0  0  0
  -26.8761  -30.7613   22.0334 H   0  0  0  0  0  0
  -28.1316  -28.7827   21.2479 H   0  0  0  0  0  0
  -25.9324  -25.8627   18.9576 H   0  0  0  0  0  0
  -23.9953  -27.3107   18.9380 H   0  0  0  0  0  0
  -23.8162  -30.5671   19.3915 H   0  0  0  0  0  0
  -22.7922  -29.2363   19.8365 H   0  0  0  0  0  0
  -25.1296  -36.1891   25.0818 H   0  0  0  0  0  0
  -20.9996  -28.3347   24.1328 H   0  0  0  0  0  0
  -20.5672  -26.2406   23.3612 H   0  0  0  0  0  0
  -21.6690  -26.7475   22.1193 H   0  0  0  0  0  0
  -19.6941  -25.6283   21.1270 H   0  0  0  0  0  0
  -19.6689  -27.3175   20.6673 H   0  0  0  0  0  0
  -17.4226  -26.6691   21.4019 H   0  0  0  0  0  0
  -18.0394  -26.0073   22.8992 H   0  0  0  0  0  0
  -19.7972  -30.7339   24.2203 H   0  0  0  0  0  0
  -17.5048  -31.6271   24.5229 H   0  0  0  0  0  0
  -15.5390  -30.3019   23.7667 H   0  0  0  0  0  0
  -15.8698  -28.0842   22.7085 H   0  0  0  0  0  0
  -24.5897  -30.7045   25.7734 H   0  0  0  0  0  0
  -24.8793  -32.2877   26.4814 H   0  0  0  0  0  0
  -25.7945  -30.8934   27.0257 H   0  0  0  0  0  0
  -26.2964  -29.6727   24.1347 H   0  0  0  0  0  0
  -27.3992  -29.7296   25.4883 H   0  0  0  0  0  0
  -27.8878  -30.4254   23.9652 H   0  0  0  0  0  0
  -27.2703  -33.3688   26.2001 H   0  0  0  0  0  0
  -28.3881  -32.6791   25.0323 H   0  0  0  0  0  0
  -28.0721  -31.8508   26.5458 H   0  0  0  0  0  0
  -28.2610  -38.0064   24.7539 H   0  0  0  0  0  0
  -28.1039  -36.2596   24.6290 H   0  0  0  0  0  0
  -27.2292  -37.1443   25.8885 H   0  0  0  0  0  0
  -20.9532  -29.8808   21.6768 H   0  0  0  0  0  0
  -26.0146  -38.2864   24.1410 H   0  0  0  0  0  0
  -29.7658  -18.8682   16.8593 H   0  0  0  0  0  0
  -28.5500  -20.7746   16.6124 H   0  0  0  0  0  0
  -29.6144  -21.8882   17.4631 H   0  0  0  0  0  0
  -27.9093  -21.6945   17.9382 H   0  0  0  0  0  0
  -29.3701  -15.6170   18.0007 H   0  0  0  0  0  0
  -31.0723  -16.0733   17.7822 H   0  0  0  0  0  0
  -29.8372  -16.6361   16.6672 H   0  0  0  0  0  0
  -26.4504  -21.3720   19.6742 H   0  0  0  0  0  0
  -26.4320  -22.3064   21.1653 H   0  0  0  0  0  0
  -26.5999  -20.5699   21.2287 H   0  0  0  0  0  0
  -29.8270  -23.3712   20.5439 H   0  0  0  0  0  0
  -28.9453  -23.2385   19.0868 H   0  0  0  0  0  0
  -27.7543  -24.5838   21.5686 H   0  0  0  0  0  0
  -26.9380  -24.4000   20.0762 H   0  0  0  0  0  0
  -28.7487  -21.5328   21.6427 H   0  0  0  0  0  0
  -28.8905  -15.9261   21.2302 H   0  0  0  0  0  0
  1 25  1  0  0  0
  1 30  2  0  0  0
  1 83  1  0  0  0
  2  3  1  0  0  0
  2 25  1  0  0  0
  2 85  1  0  0  0
  2 86  1  0  0  0
  3  4  1  0  0  0
  3 87  1  0  0  0
  3 88  1  0  0  0
  4  5  1  0  0  0
  4 89  1  0  0  0
  4 90  1  0  0  0
  5  6  1  0  0  0
  5 26  1  0  0  0
  5 91  1  0  0  0
  6 25  1  0  0  0
  6 92  1  0  0  0
  6 93  1  0  0  0
  7  8  2  0  0  0
  7 26  1  0  0  0
  7 29  1  0  0  0
  8  9  1  0  0  0
  8 22  1  0  0  0
  9 10  1  0  0  0
  9 27  2  0  0  0
 10 11  2  0  0  0
 10 15  1  0  0  0
 11 12  1  0  0  0
 11 94  1  0  0  0
 12 13  2  0  0  0
 12 95  1  0  0  0
 13 14  1  0  0  0
 13 31  1  0  0  0
 14 15  2  0  0  0
 14 96  1  0  0  0
 15 97  1  0  0  0
 16 17  2  0  0  0
 16 21  1  0  0  0
 16 31  1  0  0  0
 17 18  1  0  0  0
 17 98  1  0  0  0
 18 19  2  0  0  0
 18 99  1  0  0  0
 19 20  1  0  0  0
 19 24  1  0  0  0
 20 21  2  0  0  0
 20100  1  0  0  0
 21 23  1  0  0  0
 22 28  1  0  0  0
 22 32  2  0  0  0
 26 27  1  0  0  0
 28101  1  0  0  0
 28102  1  0  0  0
 29103  1  0  0  0
 29104  1  0  0  0
 33 34  1  0  0  0
 33 66  1  0  0  0
 33 70  2  0  0  0
 34 36  1  0  0  0
 34 59  1  0  0  0
 34105  1  0  0  0
 35 44  2  0  0  0
 35 45  1  0  0  0
 35 68  1  0  0  0
 36 56  1  0  0  0
 36106  1  0  0  0
 37 39  1  0  0  0
 37 47  1  0  0  0
 37 66  1  0  0  0
 37107  1  0  0  0
 38 43  2  0  0  0
 38 46  1  0  0  0
 38 47  1  0  0  0
 39 64  1  0  0  0
 39 67  2  0  0  0
 40 52  1  0  0  0
 40 53  2  0  0  0
 40 58  1  0  0  0
 41108  1  0  0  0
 41109  1  0  0  0
 41110  1  0  0  0
 41 48  1  0  0  0
 42 43  1  0  0  0
 42 66  1  0  0  0
 42111  1  0  0  0
 42112  1  0  0  0
 43 44  1  0  0  0
 44113  1  0  0  0
 45 46  2  0  0  0
 45114  1  0  0  0
 46115  1  0  0  0
 47116  1  0  0  0
 47117  1  0  0  0
 48 56  1  0  0  0
 48 65  1  0  0  0
 48118  1  0  0  0
 49 50  1  0  0  0
 49 53  1  0  0  0
 49 64  1  0  0  0
 49119  1  0  0  0
 50 51  1  0  0  0
 50120  1  0  0  0
 50121  1  0  0  0
 51 52  1  0  0  0
 51122  1  0  0  0
 51123  1  0  0  0
 52124  1  0  0  0
 52125  1  0  0  0
 53 54  1  0  0  0
 54 55  2  0  0  0
 54126  1  0  0  0
 55 57  1  0  0  0
 55127  1  0  0  0
 56 69  2  0  0  0
 57 58  2  0  0  0
 57128  1  0  0  0
 58129  1  0  0  0
 59 60  1  0  0  0
 59 61  1  0  0  0
 59 62  1  0  0  0
 60130  1  0  0  0
 60131  1  0  0  0
 60132  1  0  0  0
 61133  1  0  0  0
 61134  1  0  0  0
 61135  1  0  0  0
 62136  1  0  0  0
 62137  1  0  0  0
 62138  1  0  0  0
 63 65  1  0  0  0
 63139  1  0  0  0
 63140  1  0  0  0
 63141  1  0  0  0
 64142  1  0  0  0
 65143  1  0  0  0
 68 81  1  0  0  0
 71 72  2  0  0  0
 71 73  1  0  0  0
 71144  1  0  0  0
 72 74  1  0  0  0
 72 77  1  0  0  0
 73 75  2  0  0  0
 73 78  1  0  0  0
 74 76  2  0  0  0
 74 82  1  0  0  0
 75 76  1  0  0  0
 75 83  1  0  0  0
 76 84  1  0  0  0
 77145  1  0  0  0
 77146  1  0  0  0
 77147  1  0  0  0
 78148  1  0  0  0
 78149  1  0  0  0
 78150  1  0  0  0
 79151  1  0  0  0
 79152  1  0  0  0
 79153  1  0  0  0
 79 82  1  0  0  0
 80 81  1  0  0  0
 80 82  1  0  0  0
 80154  1  0  0  0
 80155  1  0  0  0
 81156  1  0  0  0
 81157  1  0  0  0
 82158  1  0  0  0
 83159  1  0  0  0
M  ISO  4   1 100  68 101  81 101  83 100
M  END
> <chiral flag>
0

> <version>
0

> <s_m_source_file>
/data/baiqing/PycharmProjects/Reinvent-master-3.2/result/LINK_invent/BTK/process_docking_weight1_custom_sum_contain_oxygen_bond_distance_aromatic_linkinvent_7_9_3/rearranged_h_0019.sdf

> <i_m_source_file_index>
54

> <r_mmod_Potential_Energy-OPLS-2005>
593.039001464844

> <r_mmod_Stretch_Energy-OPLS-2005>
304.793426513672

> <r_mmod_Bend_Energy-OPLS-2005>
263.837738037109

> <r_mmod_Torsional_Energy-OPLS-2005>
264.854736328125

> <r_mmod_Improper_Torsional_Energy-OPLS-2005>
5.89866781234741

> <r_mmod_Van_der_Waal_Energy-OPLS-2005>
138.46272277832

> <r_mmod_Electrostatic_Energy-OPLS-2005>
-390.991394042969

> <r_mmod_Solvation_Energy-OPLS-2005>
-199.931289672852

> <b_mmod_Minimization_Converged-OPLS-2005>
0

> <r_mmod_RMS_Derivative-OPLS-2005>
4.83658885955811

$$$$
54
                    3D
 Structure written by MMmdl.
160168  0  0  1  0            999 V2000
  -30.6339  -14.6581   20.5546 C   0  0  0  0  0  0
  -30.4383  -12.4206   19.4797 C   0  0  0  0  0  0
  -29.5156  -12.5287   18.2445 C   0  0  0  0  0  0
  -28.0385  -12.3539   18.6474 C   0  0  0  0  0  0
  -27.6544  -13.2229   19.8739 C   0  0  2  0  0  0
  -28.6893  -13.0873   21.0114 C   0  0  0  0  0  0
  -25.2513  -13.8179   20.5657 C   0  0  0  0  0  0
  -24.1792  -13.0464   20.9151 C   0  0  0  0  0  0
  -24.6370  -11.6916   20.8722 C   0  0  0  0  0  0
  -23.9038  -10.4309   21.0409 C   0  0  0  0  0  0
  -24.3605   -9.4212   21.9190 C   0  0  0  0  0  0
  -23.6291   -8.2234   22.0756 C   0  0  0  0  0  0
  -22.4282   -8.0273   21.3526 C   0  0  0  0  0  0
  -21.9902   -9.0250   20.4641 C   0  0  0  0  0  0
  -22.7205  -10.2132   20.3062 C   0  0  0  0  0  0
  -21.6852   -6.0724   22.5274 C   0  0  0  0  0  0
  -21.4011   -6.5634   23.8205 C   0  0  0  0  0  0
  -21.3650   -5.6786   24.9167 C   0  0  0  0  0  0
  -21.6054   -4.3056   24.7222 C   0  0  0  0  0  0
  -21.8808   -3.8133   23.4340 C   0  0  0  0  0  0
  -21.9188   -4.6956   22.3400 C   0  0  0  0  0  0
  -22.7804  -13.5233   21.1844 C   0  0  0  0  0  0
  -22.1648   -4.2131   21.0980 F   0  0  0  0  0  0
  -21.5633   -3.4551   25.7732 F   0  0  0  0  0  0
  -30.0098  -13.4366   20.4646 N   0  0  0  0  0  0
  -26.2979  -12.9390   20.3353 N   0  0  0  0  0  0
  -25.9320  -11.6534   20.5763 N   0  0  0  0  0  0
  -22.0457  -12.8260   22.0409 N   0  0  0  0  0  0
  -25.4246  -15.1902   20.4005 N   0  0  0  0  0  0
  -31.7866  -14.8070   20.1407 O   0  0  0  0  0  0
  -21.6633   -6.8874   21.4241 O   0  0  0  0  0  0
  -22.3466  -14.5550   20.6686 O   0  0  0  0  0  0
  -24.6299  -31.8600   23.2028 C   0  0  0  0  0  0
  -25.9152  -32.4772   23.8376 C   0  0  1  0  0  0
  -27.2271  -27.3014   20.1185 C   0  0  0  0  0  0
  -25.5983  -33.8574   24.2296 N   0  0  0  0  0  0
  -23.4253  -30.4851   21.5422 C   0  0  2  0  0  0
  -24.8737  -28.9401   20.1145 C   0  0  0  0  0  0
  -22.7506  -29.4626   22.4875 C   0  0  0  0  0  0
  -18.0289  -28.1404   22.8487 C   0  0  0  0  0  0
  -24.1490  -36.7243   23.2635 C   0  0  0  0  0  0
  -25.9724  -30.7838   21.3817 C   0  0  0  0  0  0
  -26.0460  -29.4114   20.7197 C   0  0  0  0  0  0
  -27.2269  -28.6042   20.7121 C   0  0  0  0  0  0
  -26.0244  -26.8890   19.4941 C   0  0  0  0  0  0
  -24.8653  -27.6820   19.4970 C   0  0  0  0  0  0
  -23.6462  -29.8250   20.1575 C   0  0  0  0  0  0
  -25.4124  -36.3066   24.0330 C   0  0  1  0  0  0
  -20.5905  -28.3721   23.1256 C   0  0  2  0  0  0
  -20.6771  -26.9430   22.5406 C   0  0  0  0  0  0
  -19.5744  -26.6407   21.5202 C   0  0  0  0  0  0
  -18.1921  -26.7957   22.1608 C   0  0  0  0  0  0
  -19.1549  -28.8866   23.2876 C   0  0  0  0  0  0
  -18.9473  -30.1467   23.8908 C   0  0  0  0  0  0
  -17.6469  -30.6606   24.0579 C   0  0  0  0  0  0
  -25.9069  -34.9446   23.5093 C   0  0  0  0  0  0
  -16.5356  -29.9111   23.6346 C   0  0  0  0  0  0
  -16.7268  -28.6519   23.0371 C   0  0  0  0  0  0
  -26.4562  -31.6565   25.0724 C   0  0  0  0  0  0
  -25.3803  -31.3691   26.1446 C   0  0  0  0  0  0
  -27.0401  -30.2982   24.6170 C   0  0  0  0  0  0
  -27.6118  -32.4315   25.7504 C   0  0  0  0  0  0
  -27.5581  -37.1794   24.8476 C   0  0  0  0  0  0
  -21.4205  -29.3078   22.3637 N   0  0  0  0  0  0
  -26.4285  -37.3775   23.9422 N   0  0  0  0  0  0
  -24.6930  -31.0623   22.0967 N   0  0  0  0  0  0
  -23.4231  -28.8133   23.2930 O   0  0  0  0  0  0
  -28.3305  -26.4263   20.1649 O   0  0  0  0  0  0
  -26.5596  -34.8924   22.4637 O   0  0  0  0  0  0
  -23.5456  -32.1382   23.7350 O   0  0  0  0  0  0
  -29.7048  -18.0275   21.9315 C   0  0  0  0  0  0
  -29.6764  -19.4511   21.8166 C   0  0  0  0  0  0
  -30.1740  -17.8208   19.5633 C   0  0  0  0  0  0
  -30.2198  -19.2554   19.4624 C   0  0  0  0  0  0
  -29.9645  -17.1707   20.8230 C   0  0  0  0  0  0
  -29.9002  -20.0905   20.5717 C   0  0  0  0  0  0
  -29.4903  -20.3125   23.0592 C   0  0  0  0  0  0
  -30.2758  -16.9630   18.3081 C   0  0  0  0  0  0
  -30.6805  -19.9514   18.1820 C   0  0  0  0  0  0
  -29.1752  -23.8784   20.3465 C   0  0  0  0  0  0
  -28.0753  -24.9697   19.9740 C   0  0  0  0  0  0
  -28.8603  -22.3269   20.1442 C   0  0  0  0  0  0
  -29.8751  -15.7125   21.0130 N   0  0  0  0  0  0
  -30.0039  -21.4878   20.4976 O   0  0  0  0  0  0
  -31.4813  -12.5481   19.1882 H   0  0  0  0  0  0
  -30.3733  -11.4271   19.9237 H   0  0  0  0  0  0
  -29.7955  -11.7843   17.4969 H   0  0  0  0  0  0
  -29.6460  -13.5009   17.7669 H   0  0  0  0  0  0
  -27.8754  -11.3000   18.8772 H   0  0  0  0  0  0
  -27.3908  -12.5836   17.8001 H   0  0  0  0  0  0
  -27.6804  -14.2605   19.5390 H   0  0  0  0  0  0
  -28.6968  -12.0659   21.3940 H   0  0  0  0  0  0
  -28.4187  -13.7161   21.8596 H   0  0  0  0  0  0
  -25.2764   -9.5705   22.4742 H   0  0  0  0  0  0
  -23.9984   -7.4648   22.7499 H   0  0  0  0  0  0
  -21.0808   -8.8783   19.8974 H   0  0  0  0  0  0
  -22.3666  -10.9680   19.6159 H   0  0  0  0  0  0
  -21.1995   -7.6137   23.9698 H   0  0  0  0  0  0
  -21.1495   -6.0525   25.9068 H   0  0  0  0  0  0
  -22.0599   -2.7604   23.2860 H   0  0  0  0  0  0
  -22.4079  -11.9928   22.4832 H   0  0  0  0  0  0
  -21.1093  -13.1295   22.2628 H   0  0  0  0  0  0
  -24.6578  -15.8480   20.4910 H   0  0  0  0  0  0
  -26.2722  -15.6194   20.0572 H   0  0  0  0  0  0
  -26.7206  -32.5456   23.1121 H   0  0  0  0  0  0
  -25.0290  -33.9717   25.0557 H   0  0  0  0  0  0
  -22.7167  -31.3035   21.3980 H   0  0  0  0  0  0
  -23.3776  -35.9548   23.3311 H   0  0  0  0  0  0
  -24.3577  -36.8832   22.2040 H   0  0  0  0  0  0
  -23.7219  -37.6446   23.6635 H   0  0  0  0  0  0
  -26.1221  -31.5503   20.6216 H   0  0  0  0  0  0
  -26.8485  -30.8242   22.0166 H   0  0  0  0  0  0
  -28.1240  -28.9567   21.2023 H   0  0  0  0  0  0
  -25.9435  -25.9294   19.0083 H   0  0  0  0  0  0
  -23.9680  -27.3060   19.0248 H   0  0  0  0  0  0
  -23.7823  -30.6057   19.4071 H   0  0  0  0  0  0
  -22.7644  -29.2646   19.8420 H   0  0  0  0  0  0
  -25.1310  -36.1907   25.0823 H   0  0  0  0  0  0
  -21.0008  -28.3305   24.1374 H   0  0  0  0  0  0
  -20.5666  -26.2325   23.3617 H   0  0  0  0  0  0
  -21.6635  -26.7464   22.1197 H   0  0  0  0  0  0
  -19.6907  -25.6326   21.1215 H   0  0  0  0  0  0
  -19.6681  -27.3235   20.6744 H   0  0  0  0  0  0
  -17.4207  -26.6726   21.3996 H   0  0  0  0  0  0
  -18.0305  -26.0107   22.9004 H   0  0  0  0  0  0
  -19.7947  -30.7270   24.2297 H   0  0  0  0  0  0
  -17.5034  -31.6284   24.5179 H   0  0  0  0  0  0
  -15.5369  -30.3020   23.7661 H   0  0  0  0  0  0
  -15.8667  -28.0831   22.7116 H   0  0  0  0  0  0
  -24.6022  -30.6978   25.7790 H   0  0  0  0  0  0
  -24.8966  -32.2843   26.4856 H   0  0  0  0  0  0
  -25.8177  -30.8915   27.0218 H   0  0  0  0  0  0
  -26.2937  -29.6704   24.1273 H   0  0  0  0  0  0
  -27.4179  -29.7275   25.4664 H   0  0  0  0  0  0
  -27.8803  -30.4251   23.9335 H   0  0  0  0  0  0
  -27.2731  -33.3653   26.2007 H   0  0  0  0  0  0
  -28.3995  -32.6797   25.0372 H   0  0  0  0  0  0
  -28.0704  -31.8472   26.5489 H   0  0  0  0  0  0
  -28.2619  -38.0080   24.7573 H   0  0  0  0  0  0
  -28.1076  -36.2635   24.6270 H   0  0  0  0  0  0
  -27.2309  -37.1389   25.8879 H   0  0  0  0  0  0
  -20.9354  -29.8818   21.6883 H   0  0  0  0  0  0
  -26.0159  -38.2835   24.1471 H   0  0  0  0  0  0
  -29.5332  -17.5828   22.9031 H   0  0  0  0  0  0
  -29.2837  -21.3525   22.8046 H   0  0  0  0  0  0
  -30.4146  -20.3094   23.6359 H   0  0  0  0  0  0
  -28.6727  -19.9645   23.6908 H   0  0  0  0  0  0
  -31.2144  -16.4101   18.2706 H   0  0  0  0  0  0
  -30.1813  -17.5251   17.3838 H   0  0  0  0  0  0
  -29.4524  -16.2513   18.2896 H   0  0  0  0  0  0
  -29.8450  -20.3417   17.6016 H   0  0  0  0  0  0
  -31.2694  -19.3092   17.5321 H   0  0  0  0  0  0
  -31.3381  -20.7874   18.4277 H   0  0  0  0  0  0
  -29.4596  -24.0333   21.3894 H   0  0  0  0  0  0
  -30.0648  -24.0716   19.7497 H   0  0  0  0  0  0
  -27.1869  -24.7020   20.5482 H   0  0  0  0  0  0
  -27.8084  -24.8150   18.9286 H   0  0  0  0  0  0
  -28.6201  -22.1283   19.0963 H   0  0  0  0  0  0
  -27.9730  -22.0477   20.7202 H   0  0  0  0  0  0
  -29.0613  -15.4172   21.5288 H   0  0  0  0  0  0
  1 25  1  0  0  0
  1 30  2  0  0  0
  1 83  1  0  0  0
  2  3  1  0  0  0
  2 25  1  0  0  0
  2 85  1  0  0  0
  2 86  1  0  0  0
  3  4  1  0  0  0
  3 87  1  0  0  0
  3 88  1  0  0  0
  4  5  1  0  0  0
  4 89  1  0  0  0
  4 90  1  0  0  0
  5  6  1  0  0  0
  5 26  1  0  0  0
  5 91  1  0  0  0
  6 25  1  0  0  0
  6 92  1  0  0  0
  6 93  1  0  0  0
  7  8  2  0  0  0
  7 26  1  0  0  0
  7 29  1  0  0  0
  8  9  1  0  0  0
  8 22  1  0  0  0
  9 10  1  0  0  0
  9 27  2  0  0  0
 10 11  2  0  0  0
 10 15  1  0  0  0
 11 12  1  0  0  0
 11 94  1  0  0  0
 12 13  2  0  0  0
 12 95  1  0  0  0
 13 14  1  0  0  0
 13 31  1  0  0  0
 14 15  2  0  0  0
 14 96  1  0  0  0
 15 97  1  0  0  0
 16 17  2  0  0  0
 16 21  1  0  0  0
 16 31  1  0  0  0
 17 18  1  0  0  0
 17 98  1  0  0  0
 18 19  2  0  0  0
 18 99  1  0  0  0
 19 20  1  0  0  0
 19 24  1  0  0  0
 20 21  2  0  0  0
 20100  1  0  0  0
 21 23  1  0  0  0
 22 28  1  0  0  0
 22 32  2  0  0  0
 26 27  1  0  0  0
 28101  1  0  0  0
 28102  1  0  0  0
 29103  1  0  0  0
 29104  1  0  0  0
 33 34  1  0  0  0
 33 66  1  0  0  0
 33 70  2  0  0  0
 34 36  1  0  0  0
 34 59  1  0  0  0
 34105  1  0  0  0
 35 44  2  0  0  0
 35 45  1  0  0  0
 35 68  1  0  0  0
 36 56  1  0  0  0
 36106  1  0  0  0
 37 39  1  0  0  0
 37 47  1  0  0  0
 37 66  1  0  0  0
 37107  1  0  0  0
 38 43  2  0  0  0
 38 46  1  0  0  0
 38 47  1  0  0  0
 39 64  1  0  0  0
 39 67  2  0  0  0
 40 52  1  0  0  0
 40 53  2  0  0  0
 40 58  1  0  0  0
 41108  1  0  0  0
 41109  1  0  0  0
 41110  1  0  0  0
 41 48  1  0  0  0
 42 43  1  0  0  0
 42 66  1  0  0  0
 42111  1  0  0  0
 42112  1  0  0  0
 43 44  1  0  0  0
 44113  1  0  0  0
 45 46  2  0  0  0
 45114  1  0  0  0
 46115  1  0  0  0
 47116  1  0  0  0
 47117  1  0  0  0
 48 56  1  0  0  0
 48 65  1  0  0  0
 48118  1  0  0  0
 49 50  1  0  0  0
 49 53  1  0  0  0
 49 64  1  0  0  0
 49119  1  0  0  0
 50 51  1  0  0  0
 50120  1  0  0  0
 50121  1  0  0  0
 51 52  1  0  0  0
 51122  1  0  0  0
 51123  1  0  0  0
 52124  1  0  0  0
 52125  1  0  0  0
 53 54  1  0  0  0
 54 55  2  0  0  0
 54126  1  0  0  0
 55 57  1  0  0  0
 55127  1  0  0  0
 56 69  2  0  0  0
 57 58  2  0  0  0
 57128  1  0  0  0
 58129  1  0  0  0
 59 60  1  0  0  0
 59 61  1  0  0  0
 59 62  1  0  0  0
 60130  1  0  0  0
 60131  1  0  0  0
 60132  1  0  0  0
 61133  1  0  0  0
 61134  1  0  0  0
 61135  1  0  0  0
 62136  1  0  0  0
 62137  1  0  0  0
 62138  1  0  0  0
 63 65  1  0  0  0
 63139  1  0  0  0
 63140  1  0  0  0
 63141  1  0  0  0
 64142  1  0  0  0
 65143  1  0  0  0
 68 81  1  0  0  0
 71 72  2  0  0  0
 71 75  1  0  0  0
 71144  1  0  0  0
 72 76  1  0  0  0
 72 77  1  0  0  0
 73 74  1  0  0  0
 73 75  2  0  0  0
 73 78  1  0  0  0
 74 76  2  0  0  0
 74 79  1  0  0  0
 75 83  1  0  0  0
 76 84  1  0  0  0
 77145  1  0  0  0
 77146  1  0  0  0
 77147  1  0  0  0
 78148  1  0  0  0
 78149  1  0  0  0
 78150  1  0  0  0
 79151  1  0  0  0
 79152  1  0  0  0
 79153  1  0  0  0
 80 81  1  0  0  0
 80 82  1  0  0  0
 80154  1  0  0  0
 80155  1  0  0  0
 81156  1  0  0  0
 81157  1  0  0  0
 82 84  1  0  0  0
 82158  1  0  0  0
 82159  1  0  0  0
 83160  1  0  0  0
M  ISO  4   1 100  68 101  81 101  83 100
M  END
> <chiral flag>
0

> <version>
0

> <s_m_source_file>
/data/baiqing/PycharmProjects/Reinvent-master-3.2/result/LINK_invent/BTK/process_docking_weight1_custom_sum_contain_oxygen_bond_distance_aromatic_linkinvent_7_9_3/rearranged_h_0019.sdf

> <i_m_source_file_index>
55

> <r_mmod_Potential_Energy-OPLS-2005>
68.8571624755859

> <r_mmod_Stretch_Energy-OPLS-2005>
87.3016128540039

> <r_mmod_Bend_Energy-OPLS-2005>
140.564819335938

> <r_mmod_Torsional_Energy-OPLS-2005>
263.140533447266

> <r_mmod_Improper_Torsional_Energy-OPLS-2005>
4.63871431350708

> <r_mmod_Van_der_Waal_Energy-OPLS-2005>
149.13591003418

> <r_mmod_Electrostatic_Energy-OPLS-2005>
-421.630615234375

> <r_mmod_Solvation_Energy-OPLS-2005>
-210.362030029297

> <b_mmod_Minimization_Converged-OPLS-2005>
0

> <r_mmod_RMS_Derivative-OPLS-2005>
6.24121856689453

$$$$
55
                    3D
 Structure written by MMmdl.
153161  0  0  1  0            999 V2000
  -30.5958  -14.8407   20.3778 C   0  0  0  0  0  0
  -30.4302  -12.5035   19.4953 C   0  0  0  0  0  0
  -29.5158  -12.5080   18.2489 C   0  0  0  0  0  0
  -28.0399  -12.3284   18.6587 C   0  0  0  0  0  0
  -27.6304  -13.2453   19.8400 C   0  0  2  0  0  0
  -28.6752  -13.2482   20.9744 C   0  0  0  0  0  0
  -25.2469  -13.8242   20.5758 C   0  0  0  0  0  0
  -24.1769  -13.0458   20.9239 C   0  0  0  0  0  0
  -24.6399  -11.6928   20.8772 C   0  0  0  0  0  0
  -23.9059  -10.4301   21.0416 C   0  0  0  0  0  0
  -24.3628   -9.4223   21.9172 C   0  0  0  0  0  0
  -23.6312   -8.2248   22.0745 C   0  0  0  0  0  0
  -22.4271   -8.0280   21.3552 C   0  0  0  0  0  0
  -21.9929   -9.0255   20.4638 C   0  0  0  0  0  0
  -22.7259  -10.2134   20.3054 C   0  0  0  0  0  0
  -21.6854   -6.0737   22.5264 C   0  0  0  0  0  0
  -21.4021   -6.5645   23.8206 C   0  0  0  0  0  0
  -21.3665   -5.6786   24.9167 C   0  0  0  0  0  0
  -21.6045   -4.3053   24.7210 C   0  0  0  0  0  0
  -21.8820   -3.8149   23.4338 C   0  0  0  0  0  0
  -21.9199   -4.6959   22.3399 C   0  0  0  0  0  0
  -22.7773  -13.5236   21.1886 C   0  0  0  0  0  0
  -22.1669   -4.2145   21.0970 F   0  0  0  0  0  0
  -21.5622   -3.4539   25.7733 F   0  0  0  0  0  0
  -29.9665  -13.6050   20.3754 N   0  0  0  0  0  0
  -26.2895  -12.9486   20.3257 N   0  0  0  0  0  0
  -25.9344  -11.6602   20.5742 N   0  0  0  0  0  0
  -22.0429  -12.8204   22.0439 N   0  0  0  0  0  0
  -25.4169  -15.1993   20.4207 N   0  0  0  0  0  0
  -31.8088  -14.8788   20.1479 O   0  0  0  0  0  0
  -21.6646   -6.8881   21.4228 O   0  0  0  0  0  0
  -22.3434  -14.5535   20.6724 O   0  0  0  0  0  0
  -24.6359  -31.8440   23.1894 C   0  0  0  0  0  0
  -25.9152  -32.4708   23.8286 C   0  0  1  0  0  0
  -27.2303  -27.1804   20.1535 C   0  0  0  0  0  0
  -25.5929  -33.8529   24.2196 N   0  0  0  0  0  0
  -23.4394  -30.4656   21.5329 C   0  0  2  0  0  0
  -24.8943  -28.8935   20.1128 C   0  0  0  0  0  0
  -22.7528  -29.4595   22.4887 C   0  0  0  0  0  0
  -18.0300  -28.1433   22.8465 C   0  0  0  0  0  0
  -24.1486  -36.7261   23.2651 C   0  0  0  0  0  0
  -25.9931  -30.7330   21.3843 C   0  0  0  0  0  0
  -26.0706  -29.3492   20.7290 C   0  0  0  0  0  0
  -27.2354  -28.5087   20.7294 C   0  0  0  0  0  0
  -26.0301  -26.8063   19.5079 C   0  0  0  0  0  0
  -24.8860  -27.6351   19.4908 C   0  0  0  0  0  0
  -23.6702  -29.7943   20.1519 C   0  0  0  0  0  0
  -25.4117  -36.3062   24.0317 C   0  0  1  0  0  0
  -20.5914  -28.3756   23.1298 C   0  0  2  0  0  0
  -20.6784  -26.9433   22.5515 C   0  0  0  0  0  0
  -19.5817  -26.6420   21.5241 C   0  0  0  0  0  0
  -18.1932  -26.8007   22.1548 C   0  0  0  0  0  0
  -19.1567  -28.8891   23.2868 C   0  0  0  0  0  0
  -18.9477  -30.1481   23.8887 C   0  0  0  0  0  0
  -17.6458  -30.6583   24.0554 C   0  0  0  0  0  0
  -25.9053  -34.9429   23.5063 C   0  0  0  0  0  0
  -16.5364  -29.9085   23.6316 C   0  0  0  0  0  0
  -16.7286  -28.6526   23.0319 C   0  0  0  0  0  0
  -26.4518  -31.6571   25.0715 C   0  0  0  0  0  0
  -25.3727  -31.3716   26.1421 C   0  0  0  0  0  0
  -27.0386  -30.2972   24.6251 C   0  0  0  0  0  0
  -27.6043  -32.4364   25.7494 C   0  0  0  0  0  0
  -27.5576  -37.1783   24.8471 C   0  0  0  0  0  0
  -21.4229  -29.3074   22.3620 N   0  0  0  0  0  0
  -26.4294  -37.3753   23.9412 N   0  0  0  0  0  0
  -24.7101  -31.0337   22.0919 N   0  0  0  0  0  0
  -23.4167  -28.8143   23.3027 O   0  0  0  0  0  0
  -28.3130  -26.2397   20.2337 O   0  0  0  0  0  0
  -26.5659  -34.8918   22.4646 O   0  0  0  0  0  0
  -23.5488  -32.1343   23.7130 O   0  0  0  0  0  0
  -28.6657  -20.9398   21.0514 C   0  0  0  0  0  0
  -28.9182  -19.5089   20.9356 C   0  0  0  0  0  0
  -29.2893  -21.9646   20.2529 C   0  0  0  0  0  0
  -29.8474  -18.9531   19.9921 C   0  0  0  0  0  0
  -30.2012  -21.3963   19.3076 C   0  0  0  0  0  0
  -30.4629  -19.9742   19.1866 C   0  0  0  0  0  0
  -28.1843  -18.5539   21.8648 C   0  0  0  0  0  0
  -29.2221  -23.5887   20.5447 C   0  0  0  0  0  0
  -30.2913  -17.3871   19.7246 C   0  0  0  0  0  0
  -28.1149  -24.7175   20.0493 C   0  0  0  0  0  0
  -29.8537  -16.0325   20.3515 N   0  0  0  0  0  0
  -31.0824  -22.4875   18.2855 Cl  0  0  0  0  0  0
  -31.6264  -19.4603   18.0087 Cl  0  0  0  0  0  0
  -31.4769  -12.6080   19.2046 H   0  0  0  0  0  0
  -30.3580  -11.5463   20.0172 H   0  0  0  0  0  0
  -29.8113  -11.7177   17.5562 H   0  0  0  0  0  0
  -29.6352  -13.4518   17.7098 H   0  0  0  0  0  0
  -27.9039  -11.2881   18.9423 H   0  0  0  0  0  0
  -27.3857  -12.4998   17.8054 H   0  0  0  0  0  0
  -27.6038  -14.2549   19.4286 H   0  0  0  0  0  0
  -28.7359  -12.2805   21.4735 H   0  0  0  0  0  0
  -28.4093  -13.9714   21.7463 H   0  0  0  0  0  0
  -25.2780   -9.5678   22.4748 H   0  0  0  0  0  0
  -24.0009   -7.4635   22.7467 H   0  0  0  0  0  0
  -21.0858   -8.8796   19.8934 H   0  0  0  0  0  0
  -22.3744  -10.9668   19.6154 H   0  0  0  0  0  0
  -21.2028   -7.6144   23.9731 H   0  0  0  0  0  0
  -21.1479   -6.0496   25.9068 H   0  0  0  0  0  0
  -22.0604   -2.7605   23.2833 H   0  0  0  0  0  0
  -22.4063  -11.9874   22.4809 H   0  0  0  0  0  0
  -21.1038  -13.1181   22.2651 H   0  0  0  0  0  0
  -24.6594  -15.8555   20.5663 H   0  0  0  0  0  0
  -26.2726  -15.6433   20.1225 H   0  0  0  0  0  0
  -26.7225  -32.5353   23.1039 H   0  0  0  0  0  0
  -25.0086  -33.9630   25.0350 H   0  0  0  0  0  0
  -22.7432  -31.2924   21.3823 H   0  0  0  0  0  0
  -23.3759  -35.9585   23.3326 H   0  0  0  0  0  0
  -24.3597  -36.8869   22.2069 H   0  0  0  0  0  0
  -23.7220  -37.6445   23.6682 H   0  0  0  0  0  0
  -26.1438  -31.4910   20.6162 H   0  0  0  0  0  0
  -26.8655  -30.7864   22.0254 H   0  0  0  0  0  0
  -28.1310  -28.8525   21.2282 H   0  0  0  0  0  0
  -25.9491  -25.8374   19.0347 H   0  0  0  0  0  0
  -23.9876  -27.2786   19.0046 H   0  0  0  0  0  0
  -23.8053  -30.5718   19.3974 H   0  0  0  0  0  0
  -22.7845  -29.2342   19.8456 H   0  0  0  0  0  0
  -25.1312  -36.1914   25.0810 H   0  0  0  0  0  0
  -21.0028  -28.3389   24.1422 H   0  0  0  0  0  0
  -21.6620  -26.7405   22.1291 H   0  0  0  0  0  0
  -20.5638  -26.2341   23.3757 H   0  0  0  0  0  0
  -19.6966  -25.6329   21.1272 H   0  0  0  0  0  0
  -19.6811  -27.3228   20.6763 H   0  0  0  0  0  0
  -17.4260  -26.6880   21.3846 H   0  0  0  0  0  0
  -18.0220  -26.0132   22.8896 H   0  0  0  0  0  0
  -19.7937  -30.7334   24.2240 H   0  0  0  0  0  0
  -17.4981  -31.6240   24.5221 H   0  0  0  0  0  0
  -15.5360  -30.2947   23.7659 H   0  0  0  0  0  0
  -15.8686  -28.0825   22.7056 H   0  0  0  0  0  0
  -24.5894  -30.7085   25.7727 H   0  0  0  0  0  0
  -24.8937  -32.2879   26.4867 H   0  0  0  0  0  0
  -25.8038  -30.8868   27.0185 H   0  0  0  0  0  0
  -26.2972  -29.6700   24.1265 H   0  0  0  0  0  0
  -27.4033  -29.7273   25.4807 H   0  0  0  0  0  0
  -27.8895  -30.4239   23.9549 H   0  0  0  0  0  0
  -27.2594  -33.3650   26.2053 H   0  0  0  0  0  0
  -28.3845  -32.6925   25.0327 H   0  0  0  0  0  0
  -28.0732  -31.8524   26.5410 H   0  0  0  0  0  0
  -28.2590  -38.0077   24.7517 H   0  0  0  0  0  0
  -28.1075  -36.2606   24.6328 H   0  0  0  0  0  0
  -27.2309  -37.1478   25.8876 H   0  0  0  0  0  0
  -20.9482  -29.8785   21.6764 H   0  0  0  0  0  0
  -26.0174  -38.2832   24.1406 H   0  0  0  0  0  0
  -27.9764  -21.2663   21.8196 H   0  0  0  0  0  0
  -28.8719  -17.8416   22.3194 H   0  0  0  0  0  0
  -27.4299  -17.9907   21.3122 H   0  0  0  0  0  0
  -27.6852  -19.0814   22.6801 H   0  0  0  0  0  0
  -30.1827  -23.9803   20.2253 H   0  0  0  0  0  0
  -29.2862  -23.6859   21.6251 H   0  0  0  0  0  0
  -31.3783  -17.3967   19.7861 H   0  0  0  0  0  0
  -30.0792  -17.2449   18.6556 H   0  0  0  0  0  0
  -27.1735  -24.4522   20.5309 H   0  0  0  0  0  0
  -27.9492  -24.5513   18.9854 H   0  0  0  0  0  0
  -28.8568  -15.9039   20.4441 H   0  0  0  0  0  0
  1 25  1  0  0  0
  1 30  2  0  0  0
  1 81  1  0  0  0
  2  3  1  0  0  0
  2 25  1  0  0  0
  2 84  1  0  0  0
  2 85  1  0  0  0
  3  4  1  0  0  0
  3 86  1  0  0  0
  3 87  1  0  0  0
  4  5  1  0  0  0
  4 88  1  0  0  0
  4 89  1  0  0  0
  5  6  1  0  0  0
  5 26  1  0  0  0
  5 90  1  0  0  0
  6 25  1  0  0  0
  6 91  1  0  0  0
  6 92  1  0  0  0
  7  8  2  0  0  0
  7 26  1  0  0  0
  7 29  1  0  0  0
  8  9  1  0  0  0
  8 22  1  0  0  0
  9 10  1  0  0  0
  9 27  2  0  0  0
 10 11  2  0  0  0
 10 15  1  0  0  0
 11 12  1  0  0  0
 11 93  1  0  0  0
 12 13  2  0  0  0
 12 94  1  0  0  0
 13 14  1  0  0  0
 13 31  1  0  0  0
 14 15  2  0  0  0
 14 95  1  0  0  0
 15 96  1  0  0  0
 16 17  2  0  0  0
 16 21  1  0  0  0
 16 31  1  0  0  0
 17 18  1  0  0  0
 17 97  1  0  0  0
 18 19  2  0  0  0
 18 98  1  0  0  0
 19 20  1  0  0  0
 19 24  1  0  0  0
 20 21  2  0  0  0
 20 99  1  0  0  0
 21 23  1  0  0  0
 22 28  1  0  0  0
 22 32  2  0  0  0
 26 27  1  0  0  0
 28100  1  0  0  0
 28101  1  0  0  0
 29102  1  0  0  0
 29103  1  0  0  0
 33 34  1  0  0  0
 33 66  1  0  0  0
 33 70  2  0  0  0
 34 36  1  0  0  0
 34 59  1  0  0  0
 34104  1  0  0  0
 35 44  2  0  0  0
 35 45  1  0  0  0
 35 68  1  0  0  0
 36 56  1  0  0  0
 36105  1  0  0  0
 37 39  1  0  0  0
 37 47  1  0  0  0
 37 66  1  0  0  0
 37106  1  0  0  0
 38 43  2  0  0  0
 38 46  1  0  0  0
 38 47  1  0  0  0
 39 64  1  0  0  0
 39 67  2  0  0  0
 40 52  1  0  0  0
 40 53  2  0  0  0
 40 58  1  0  0  0
 41107  1  0  0  0
 41108  1  0  0  0
 41109  1  0  0  0
 41 48  1  0  0  0
 42 43  1  0  0  0
 42 66  1  0  0  0
 42110  1  0  0  0
 42111  1  0  0  0
 43 44  1  0  0  0
 44112  1  0  0  0
 45 46  2  0  0  0
 45113  1  0  0  0
 46114  1  0  0  0
 47115  1  0  0  0
 47116  1  0  0  0
 48 56  1  0  0  0
 48 65  1  0  0  0
 48117  1  0  0  0
 49 50  1  0  0  0
 49 53  1  0  0  0
 49 64  1  0  0  0
 49118  1  0  0  0
 50 51  1  0  0  0
 50119  1  0  0  0
 50120  1  0  0  0
 51 52  1  0  0  0
 51121  1  0  0  0
 51122  1  0  0  0
 52123  1  0  0  0
 52124  1  0  0  0
 53 54  1  0  0  0
 54 55  2  0  0  0
 54125  1  0  0  0
 55 57  1  0  0  0
 55126  1  0  0  0
 56 69  2  0  0  0
 57 58  2  0  0  0
 57127  1  0  0  0
 58128  1  0  0  0
 59 60  1  0  0  0
 59 61  1  0  0  0
 59 62  1  0  0  0
 60129  1  0  0  0
 60130  1  0  0  0
 60131  1  0  0  0
 61132  1  0  0  0
 61133  1  0  0  0
 61134  1  0  0  0
 62135  1  0  0  0
 62136  1  0  0  0
 62137  1  0  0  0
 63 65  1  0  0  0
 63138  1  0  0  0
 63139  1  0  0  0
 63140  1  0  0  0
 64141  1  0  0  0
 65142  1  0  0  0
 68 80  1  0  0  0
 71 72  2  0  0  0
 71 73  1  0  0  0
 71143  1  0  0  0
 72 74  1  0  0  0
 72 77  1  0  0  0
 73 75  2  0  0  0
 73 78  1  0  0  0
 74 76  2  0  0  0
 74 79  1  0  0  0
 75 76  1  0  0  0
 75 82  1  0  0  0
 76 83  1  0  0  0
 77144  1  0  0  0
 77145  1  0  0  0
 77146  1  0  0  0
 78 80  1  0  0  0
 78147  1  0  0  0
 78148  1  0  0  0
 79 81  1  0  0  0
 79149  1  0  0  0
 79150  1  0  0  0
 80151  1  0  0  0
 80152  1  0  0  0
 81153  1  0  0  0
M  ISO  4   1 100  68 101  80 101  81 100
M  END
> <chiral flag>
0

> <version>
0

> <s_m_source_file>
/data/baiqing/PycharmProjects/Reinvent-master-3.2/result/LINK_invent/BTK/process_docking_weight1_custom_sum_contain_oxygen_bond_distance_aromatic_linkinvent_7_9_3/rearranged_h_0019.sdf

> <i_m_source_file_index>
56

> <r_mmod_Potential_Energy-OPLS-2005>
375.406951904297

> <r_mmod_Stretch_Energy-OPLS-2005>
198.591598510742

> <r_mmod_Bend_Energy-OPLS-2005>
248.508666992188

> <r_mmod_Torsional_Energy-OPLS-2005>
210.4423828125

> <r_mmod_Improper_Torsional_Energy-OPLS-2005>
9.48953247070312

> <r_mmod_Van_der_Waal_Energy-OPLS-2005>
139.637268066406

> <r_mmod_Electrostatic_Energy-OPLS-2005>
-359.718414306641

> <r_mmod_Solvation_Energy-OPLS-2005>
-212.455902099609

> <b_mmod_Minimization_Converged-OPLS-2005>
0

> <r_mmod_RMS_Derivative-OPLS-2005>
8.23044872283936

$$$$
56
                    3D
 Structure written by MMmdl.
170178  0  0  1  0            999 V2000
  -30.7643  -14.5615   20.4044 C   0  0  0  0  0  0
  -30.4003  -12.3303   19.4526 C   0  0  0  0  0  0
  -29.4859  -12.4125   18.2148 C   0  0  0  0  0  0
  -28.0038  -12.3214   18.6253 C   0  0  0  0  0  0
  -27.6374  -13.2296   19.8314 C   0  0  2  0  0  0
  -28.6912  -13.1644   20.9547 C   0  0  0  0  0  0
  -25.2533  -13.8227   20.5729 C   0  0  0  0  0  0
  -24.1805  -13.0484   20.9187 C   0  0  0  0  0  0
  -24.6389  -11.6945   20.8753 C   0  0  0  0  0  0
  -23.9076  -10.4314   21.0399 C   0  0  0  0  0  0
  -24.3604   -9.4221   21.9188 C   0  0  0  0  0  0
  -23.6276   -8.2269   22.0781 C   0  0  0  0  0  0
  -22.4269   -8.0291   21.3563 C   0  0  0  0  0  0
  -21.9901   -9.0269   20.4676 C   0  0  0  0  0  0
  -22.7236  -10.2145   20.3067 C   0  0  0  0  0  0
  -21.6850   -6.0734   22.5269 C   0  0  0  0  0  0
  -21.4023   -6.5642   23.8200 C   0  0  0  0  0  0
  -21.3663   -5.6798   24.9170 C   0  0  0  0  0  0
  -21.6033   -4.3057   24.7216 C   0  0  0  0  0  0
  -21.8799   -3.8150   23.4341 C   0  0  0  0  0  0
  -21.9181   -4.6966   22.3395 C   0  0  0  0  0  0
  -22.7816  -13.5254   21.1839 C   0  0  0  0  0  0
  -22.1656   -4.2147   21.0981 F   0  0  0  0  0  0
  -21.5630   -3.4547   25.7736 F   0  0  0  0  0  0
  -30.0056  -13.4234   20.3613 N   0  0  0  0  0  0
  -26.2946  -12.9431   20.3285 N   0  0  0  0  0  0
  -25.9333  -11.6582   20.5804 N   0  0  0  0  0  0
  -22.0473  -12.8240   22.0385 N   0  0  0  0  0  0
  -25.4317  -15.1954   20.4272 N   0  0  0  0  0  0
  -31.9871  -14.4407   20.3687 O   0  0  0  0  0  0
  -21.6638   -6.8884   21.4238 O   0  0  0  0  0  0
  -22.3487  -14.5571   20.6704 O   0  0  0  0  0  0
  -24.6148  -31.8681   23.2079 C   0  0  0  0  0  0
  -25.9049  -32.4832   23.8365 C   0  0  1  0  0  0
  -27.2230  -27.4145   20.1010 C   0  0  0  0  0  0
  -25.5901  -33.8622   24.2313 N   0  0  0  0  0  0
  -23.4043  -30.4909   21.5510 C   0  0  2  0  0  0
  -24.8493  -28.9467   20.1227 C   0  0  0  0  0  0
  -22.7422  -29.4672   22.5014 C   0  0  0  0  0  0
  -18.0287  -28.1355   22.8489 C   0  0  0  0  0  0
  -24.1478  -36.7314   23.2639 C   0  0  0  0  0  0
  -25.9339  -30.8247   21.3628 C   0  0  0  0  0  0
  -26.0103  -29.4524   20.7208 C   0  0  0  0  0  0
  -27.2037  -28.6906   20.7132 C   0  0  0  0  0  0
  -26.0491  -26.9221   19.5012 C   0  0  0  0  0  0
  -24.8615  -27.6783   19.5146 C   0  0  0  0  0  0
  -23.6150  -29.8211   20.1674 C   0  0  0  0  0  0
  -25.4109  -36.3119   24.0336 C   0  0  1  0  0  0
  -20.5876  -28.3680   23.1312 C   0  0  2  0  0  0
  -20.6804  -26.9408   22.5430 C   0  0  0  0  0  0
  -19.5790  -26.6379   21.5219 C   0  0  0  0  0  0
  -18.1961  -26.7906   22.1616 C   0  0  0  0  0  0
  -19.1525  -28.8833   23.2899 C   0  0  0  0  0  0
  -18.9438  -30.1441   23.8901 C   0  0  0  0  0  0
  -17.6443  -30.6575   24.0533 C   0  0  0  0  0  0
  -25.9045  -34.9488   23.5122 C   0  0  0  0  0  0
  -16.5347  -29.9073   23.6296 C   0  0  0  0  0  0
  -16.7269  -28.6475   23.0352 C   0  0  0  0  0  0
  -26.4475  -31.6605   25.0687 C   0  0  0  0  0  0
  -25.3729  -31.3727   26.1428 C   0  0  0  0  0  0
  -27.0304  -30.3055   24.6044 C   0  0  0  0  0  0
  -27.6054  -32.4311   25.7456 C   0  0  0  0  0  0
  -27.5582  -37.1818   24.8479 C   0  0  0  0  0  0
  -21.4146  -29.3060   22.3733 N   0  0  0  0  0  0
  -26.4303  -37.3805   23.9416 N   0  0  0  0  0  0
  -24.6705  -31.0766   22.0990 N   0  0  0  0  0  0
  -23.4181  -28.8211   23.3057 O   0  0  0  0  0  0
  -28.3641  -26.6513   20.0218 O   0  0  0  0  0  0
  -26.5612  -34.8943   22.4679 O   0  0  0  0  0  0
  -23.5343  -32.1443   23.7470 O   0  0  0  0  0  0
  -29.0956  -16.6745   20.6457 C   0  0  0  0  0  0
  -28.7550  -21.2313   21.5115 C   0  0  0  0  0  0
  -27.7026  -21.4295   19.2647 C   0  0  0  0  0  0
  -28.5561  -19.6952   21.6254 C   0  0  0  0  0  0
  -28.1060  -19.9376   19.1014 C   0  0  0  0  0  0
  -27.5973  -21.8848   20.7292 C   0  0  2  0  0  0
  -27.9702  -19.0126   20.3479 C   0  0  1  0  0  0
  -26.6151  -23.6963   22.2158 C   0  0  0  0  0  0
  -30.1035  -15.9557   18.3848 C   0  0  0  0  0  0
  -31.4749  -17.0180   20.1789 C   0  0  0  0  0  0
  -28.7112  -24.2782   20.8429 C   0  0  0  0  0  0
  -28.6317  -25.8080   21.1494 C   0  0  0  0  0  0
  -27.4012  -23.4338   20.9131 C   0  0  1  0  0  0
  -30.3074  -16.0073   19.9237 C   0  0  0  0  0  0
  -28.6391  -17.7538   19.9710 N   0  0  0  0  0  0
  -28.7226  -16.3755   21.7788 O   0  0  0  0  0  0
  -31.4449  -12.3858   19.1387 H   0  0  0  0  0  0
  -30.2864  -11.3671   19.9535 H   0  0  0  0  0  0
  -29.7236  -11.5957   17.5344 H   0  0  0  0  0  0
  -29.6702  -13.3269   17.6566 H   0  0  0  0  0  0
  -27.8137  -11.2786   18.8840 H   0  0  0  0  0  0
  -27.3585  -12.5423   17.7734 H   0  0  0  0  0  0
  -27.6279  -14.2481   19.4486 H   0  0  0  0  0  0
  -28.6827  -12.1857   21.4359 H   0  0  0  0  0  0
  -28.4646  -13.8821   21.7424 H   0  0  0  0  0  0
  -25.2751   -9.5697   22.4751 H   0  0  0  0  0  0
  -23.9968   -7.4675   22.7524 H   0  0  0  0  0  0
  -21.0822   -8.8785   19.8995 H   0  0  0  0  0  0
  -22.3693  -10.9671   19.6163 H   0  0  0  0  0  0
  -21.2040   -7.6154   23.9699 H   0  0  0  0  0  0
  -21.1512   -6.0550   25.9068 H   0  0  0  0  0  0
  -22.0577   -2.7612   23.2851 H   0  0  0  0  0  0
  -22.4049  -11.9887   22.4768 H   0  0  0  0  0  0
  -21.1121  -13.1324   22.2621 H   0  0  0  0  0  0
  -24.6950  -15.8578   20.6394 H   0  0  0  0  0  0
  -26.3272  -15.6380   20.2612 H   0  0  0  0  0  0
  -26.7111  -32.5555   23.1121 H   0  0  0  0  0  0
  -25.0047  -33.9772   25.0461 H   0  0  0  0  0  0
  -22.6918  -31.3060   21.4105 H   0  0  0  0  0  0
  -23.3747  -35.9646   23.3339 H   0  0  0  0  0  0
  -24.3570  -36.8890   22.2050 H   0  0  0  0  0  0
  -23.7224  -37.6526   23.6621 H   0  0  0  0  0  0
  -26.0386  -31.5821   20.5849 H   0  0  0  0  0  0
  -26.8248  -30.8867   21.9766 H   0  0  0  0  0  0
  -28.1055  -29.0773   21.1646 H   0  0  0  0  0  0
  -26.0582  -25.9538   19.0208 H   0  0  0  0  0  0
  -23.9670  -27.2824   19.0558 H   0  0  0  0  0  0
  -23.7292  -30.5941   19.4059 H   0  0  0  0  0  0
  -22.7358  -29.2475   19.8692 H   0  0  0  0  0  0
  -25.1280  -36.1988   25.0832 H   0  0  0  0  0  0
  -20.9954  -28.3252   24.1445 H   0  0  0  0  0  0
  -20.5720  -26.2277   23.3625 H   0  0  0  0  0  0
  -21.6668  -26.7499   22.1192 H   0  0  0  0  0  0
  -19.6989  -25.6298   21.1268 H   0  0  0  0  0  0
  -19.6738  -27.3168   20.6743 H   0  0  0  0  0  0
  -17.4254  -26.6644   21.3994 H   0  0  0  0  0  0
  -18.0371  -26.0032   22.8987 H   0  0  0  0  0  0
  -19.7915  -30.7237   24.2282 H   0  0  0  0  0  0
  -17.4988  -31.6265   24.5096 H   0  0  0  0  0  0
  -15.5338  -30.2956   23.7601 H   0  0  0  0  0  0
  -15.8671  -28.0776   22.7104 H   0  0  0  0  0  0
  -24.5878  -30.7112   25.7746 H   0  0  0  0  0  0
  -24.8953  -32.2899   26.4876 H   0  0  0  0  0  0
  -25.8052  -30.8867   27.0182 H   0  0  0  0  0  0
  -26.2831  -29.6821   24.1115 H   0  0  0  0  0  0
  -27.4122  -29.7276   25.4471 H   0  0  0  0  0  0
  -27.8643  -30.4411   23.9154 H   0  0  0  0  0  0
  -27.2676  -33.3595   26.2077 H   0  0  0  0  0  0
  -28.3837  -32.6902   25.0263 H   0  0  0  0  0  0
  -28.0749  -31.8403   26.5337 H   0  0  0  0  0  0
  -28.2625  -38.0088   24.7500 H   0  0  0  0  0  0
  -28.1033  -36.2620   24.6319 H   0  0  0  0  0  0
  -27.2295  -37.1490   25.8880 H   0  0  0  0  0  0
  -20.9306  -29.8762   21.6930 H   0  0  0  0  0  0
  -26.0193  -38.2885   24.1411 H   0  0  0  0  0  0
  -29.6983  -21.4434   21.0017 H   0  0  0  0  0  0
  -28.8467  -21.6636   22.5070 H   0  0  0  0  0  0
  -26.7555  -21.6194   18.7586 H   0  0  0  0  0  0
  -28.4391  -22.0408   18.7394 H   0  0  0  0  0  0
  -27.8725  -19.4984   22.4522 H   0  0  0  0  0  0
  -29.5015  -19.2447   21.9272 H   0  0  0  0  0  0
  -29.1516  -19.9283   18.7865 H   0  0  0  0  0  0
  -27.5583  -19.5053   18.2633 H   0  0  0  0  0  0
  -26.6839  -21.4158   21.0995 H   0  0  0  0  0  0
  -26.9111  -18.8119   20.5118 H   0  0  0  0  0  0
  -26.2316  -24.7141   22.2598 H   0  0  0  0  0  0
  -27.2378  -23.5332   23.0961 H   0  0  0  0  0  0
  -25.7443  -23.0466   22.3067 H   0  0  0  0  0  0
  -30.1734  -16.9404   17.9203 H   0  0  0  0  0  0
  -29.1373  -15.5329   18.1158 H   0  0  0  0  0  0
  -30.8693  -15.3480   17.8992 H   0  0  0  0  0  0
  -32.3682  -16.7684   19.6051 H   0  0  0  0  0  0
  -31.2215  -18.0396   19.8887 H   0  0  0  0  0  0
  -31.7565  -17.0544   21.2327 H   0  0  0  0  0  0
  -29.3941  -23.8648   21.5830 H   0  0  0  0  0  0
  -29.2102  -24.1245   19.8868 H   0  0  0  0  0  0
  -29.6146  -26.1153   21.5098 H   0  0  0  0  0  0
  -27.9574  -26.0147   21.9799 H   0  0  0  0  0  0
  -26.7572  -23.7731   20.0997 H   0  0  0  0  0  0
  -28.9991  -17.7814   19.0277 H   0  0  0  0  0  0
  1 25  1  0  0  0
  1 30  2  0  0  0
  1 84  1  0  0  0
  2  3  1  0  0  0
  2 25  1  0  0  0
  2 87  1  0  0  0
  2 88  1  0  0  0
  3  4  1  0  0  0
  3 89  1  0  0  0
  3 90  1  0  0  0
  4  5  1  0  0  0
  4 91  1  0  0  0
  4 92  1  0  0  0
  5  6  1  0  0  0
  5 26  1  0  0  0
  5 93  1  0  0  0
  6 25  1  0  0  0
  6 94  1  0  0  0
  6 95  1  0  0  0
  7  8  2  0  0  0
  7 26  1  0  0  0
  7 29  1  0  0  0
  8  9  1  0  0  0
  8 22  1  0  0  0
  9 10  1  0  0  0
  9 27  2  0  0  0
 10 11  2  0  0  0
 10 15  1  0  0  0
 11 12  1  0  0  0
 11 96  1  0  0  0
 12 13  2  0  0  0
 12 97  1  0  0  0
 13 14  1  0  0  0
 13 31  1  0  0  0
 14 15  2  0  0  0
 14 98  1  0  0  0
 15 99  1  0  0  0
 16 17  2  0  0  0
 16 21  1  0  0  0
 16 31  1  0  0  0
 17 18  1  0  0  0
 17100  1  0  0  0
 18 19  2  0  0  0
 18101  1  0  0  0
 19 20  1  0  0  0
 19 24  1  0  0  0
 20 21  2  0  0  0
 20102  1  0  0  0
 21 23  1  0  0  0
 22 28  1  0  0  0
 22 32  2  0  0  0
 26 27  1  0  0  0
 28103  1  0  0  0
 28104  1  0  0  0
 29105  1  0  0  0
 29106  1  0  0  0
 33 34  1  0  0  0
 33 66  1  0  0  0
 33 70  2  0  0  0
 34 36  1  0  0  0
 34 59  1  0  0  0
 34107  1  0  0  0
 35 44  2  0  0  0
 35 45  1  0  0  0
 35 68  1  0  0  0
 36 56  1  0  0  0
 36108  1  0  0  0
 37 39  1  0  0  0
 37 47  1  0  0  0
 37 66  1  0  0  0
 37109  1  0  0  0
 38 43  2  0  0  0
 38 46  1  0  0  0
 38 47  1  0  0  0
 39 64  1  0  0  0
 39 67  2  0  0  0
 40 52  1  0  0  0
 40 53  2  0  0  0
 40 58  1  0  0  0
 41110  1  0  0  0
 41111  1  0  0  0
 41112  1  0  0  0
 41 48  1  0  0  0
 42 43  1  0  0  0
 42 66  1  0  0  0
 42113  1  0  0  0
 42114  1  0  0  0
 43 44  1  0  0  0
 44115  1  0  0  0
 45 46  2  0  0  0
 45116  1  0  0  0
 46117  1  0  0  0
 47118  1  0  0  0
 47119  1  0  0  0
 48 56  1  0  0  0
 48 65  1  0  0  0
 48120  1  0  0  0
 49 50  1  0  0  0
 49 53  1  0  0  0
 49 64  1  0  0  0
 49121  1  0  0  0
 50 51  1  0  0  0
 50122  1  0  0  0
 50123  1  0  0  0
 51 52  1  0  0  0
 51124  1  0  0  0
 51125  1  0  0  0
 52126  1  0  0  0
 52127  1  0  0  0
 53 54  1  0  0  0
 54 55  2  0  0  0
 54128  1  0  0  0
 55 57  1  0  0  0
 55129  1  0  0  0
 56 69  2  0  0  0
 57 58  2  0  0  0
 57130  1  0  0  0
 58131  1  0  0  0
 59 60  1  0  0  0
 59 61  1  0  0  0
 59 62  1  0  0  0
 60132  1  0  0  0
 60133  1  0  0  0
 60134  1  0  0  0
 61135  1  0  0  0
 61136  1  0  0  0
 61137  1  0  0  0
 62138  1  0  0  0
 62139  1  0  0  0
 62140  1  0  0  0
 63 65  1  0  0  0
 63141  1  0  0  0
 63142  1  0  0  0
 63143  1  0  0  0
 64144  1  0  0  0
 65145  1  0  0  0
 68 82  1  0  0  0
 71 84  1  0  0  0
 71 85  1  0  0  0
 71 86  2  0  0  0
 72 74  1  0  0  0
 72146  1  0  0  0
 72147  1  0  0  0
 72 76  1  0  0  0
 73 75  1  0  0  0
 73 76  1  0  0  0
 73148  1  0  0  0
 73149  1  0  0  0
 74 77  1  0  0  0
 74150  1  0  0  0
 74151  1  0  0  0
 75 77  1  0  0  0
 75152  1  0  0  0
 75153  1  0  0  0
 76 83  1  0  0  0
 76154  1  0  0  0
 77 85  1  0  0  0
 77155  1  0  0  0
 78156  1  0  0  0
 78157  1  0  0  0
 78158  1  0  0  0
 78 83  1  0  0  0
 79159  1  0  0  0
 79160  1  0  0  0
 79161  1  0  0  0
 79 84  1  0  0  0
 80 84  1  0  0  0
 80162  1  0  0  0
 80163  1  0  0  0
 80164  1  0  0  0
 81 82  1  0  0  0
 81 83  1  0  0  0
 81165  1  0  0  0
 81166  1  0  0  0
 82167  1  0  0  0
 82168  1  0  0  0
 83169  1  0  0  0
 85170  1  0  0  0
M  ISO  4   1 100  68 101  82 101  84 100
M  END
> <chiral flag>
0

> <version>
0

> <s_m_source_file>
/data/baiqing/PycharmProjects/Reinvent-master-3.2/result/LINK_invent/BTK/process_docking_weight1_custom_sum_contain_oxygen_bond_distance_aromatic_linkinvent_7_9_3/rearranged_h_0019.sdf

> <i_m_source_file_index>
57

> <r_mmod_Potential_Energy-OPLS-2005>
232.052947998047

> <r_mmod_Stretch_Energy-OPLS-2005>
51.3254470825195

> <r_mmod_Bend_Energy-OPLS-2005>
180.112640380859

> <r_mmod_Torsional_Energy-OPLS-2005>
330.390258789062

> <r_mmod_Improper_Torsional_Energy-OPLS-2005>
20.1160221099854

> <r_mmod_Van_der_Waal_Energy-OPLS-2005>
135.850311279297

> <r_mmod_Electrostatic_Energy-OPLS-2005>
-350.356811523438

> <r_mmod_Solvation_Energy-OPLS-2005>
-188.637069702148

> <b_mmod_Minimization_Converged-OPLS-2005>
0

> <r_mmod_RMS_Derivative-OPLS-2005>
3.86055040359497

$$$$
57
                    3D
 Structure written by MMmdl.
157166  0  0  1  0            999 V2000
  -30.6865  -14.5780   20.5411 C   0  0  0  0  0  0
  -30.4278  -12.3689   19.4391 C   0  0  0  0  0  0
  -29.4989  -12.5054   18.2147 C   0  0  0  0  0  0
  -28.0233  -12.3497   18.6310 C   0  0  0  0  0  0
  -27.6543  -13.2185   19.8635 C   0  0  2  0  0  0
  -28.7009  -13.0694   20.9906 C   0  0  0  0  0  0
  -25.2557  -13.8180   20.5679 C   0  0  0  0  0  0
  -24.1827  -13.0442   20.9187 C   0  0  0  0  0  0
  -24.6398  -11.6913   20.8739 C   0  0  0  0  0  0
  -23.9066  -10.4295   21.0403 C   0  0  0  0  0  0
  -24.3617   -9.4210   21.9180 C   0  0  0  0  0  0
  -23.6293   -8.2245   22.0751 C   0  0  0  0  0  0
  -22.4276   -8.0282   21.3542 C   0  0  0  0  0  0
  -21.9910   -9.0255   20.4644 C   0  0  0  0  0  0
  -22.7237  -10.2134   20.3053 C   0  0  0  0  0  0
  -21.6855   -6.0735   22.5278 C   0  0  0  0  0  0
  -21.4014   -6.5638   23.8210 C   0  0  0  0  0  0
  -21.3660   -5.6791   24.9172 C   0  0  0  0  0  0
  -21.6045   -4.3054   24.7224 C   0  0  0  0  0  0
  -21.8820   -3.8145   23.4345 C   0  0  0  0  0  0
  -21.9193   -4.6962   22.3401 C   0  0  0  0  0  0
  -22.7848  -13.5231   21.1851 C   0  0  0  0  0  0
  -22.1660   -4.2147   21.0978 F   0  0  0  0  0  0
  -21.5631   -3.4537   25.7736 F   0  0  0  0  0  0
  -30.0190  -13.3903   20.4217 N   0  0  0  0  0  0
  -26.2996  -12.9367   20.3333 N   0  0  0  0  0  0
  -25.9330  -11.6518   20.5768 N   0  0  0  0  0  0
  -22.0493  -12.8221   22.0409 N   0  0  0  0  0  0
  -25.4265  -15.1899   20.4074 N   0  0  0  0  0  0
  -31.8431  -14.7161   20.1370 O   0  0  0  0  0  0
  -21.6641   -6.8877   21.4239 O   0  0  0  0  0  0
  -22.3531  -14.5538   20.6705 O   0  0  0  0  0  0
  -24.6263  -31.8645   23.2094 C   0  0  0  0  0  0
  -25.9125  -32.4805   23.8401 C   0  0  1  0  0  0
  -27.2109  -27.3303   20.0944 C   0  0  0  0  0  0
  -25.5959  -33.8606   24.2325 N   0  0  0  0  0  0
  -23.4176  -30.4957   21.5530 C   0  0  2  0  0  0
  -24.8595  -28.9693   20.1098 C   0  0  0  0  0  0
  -22.7478  -29.4654   22.4942 C   0  0  0  0  0  0
  -18.0291  -28.1383   22.8491 C   0  0  0  0  0  0
  -24.1490  -36.7298   23.2634 C   0  0  0  0  0  0
  -25.9631  -30.7965   21.3838 C   0  0  0  0  0  0
  -26.0335  -29.4288   20.7202 C   0  0  0  0  0  0
  -27.2108  -28.6195   20.7128 C   0  0  0  0  0  0
  -26.0075  -26.9492   19.4405 C   0  0  0  0  0  0
  -24.8482  -27.7325   19.4639 C   0  0  0  0  0  0
  -23.6301  -29.8476   20.1638 C   0  0  0  0  0  0
  -25.4114  -36.3099   24.0332 C   0  0  1  0  0  0
  -20.5893  -28.3690   23.1278 C   0  0  2  0  0  0
  -20.6782  -26.9414   22.5400 C   0  0  0  0  0  0
  -19.5752  -26.6384   21.5211 C   0  0  0  0  0  0
  -18.1934  -26.7927   22.1627 C   0  0  0  0  0  0
  -19.1544  -28.8853   23.2880 C   0  0  0  0  0  0
  -18.9465  -30.1455   23.8893 C   0  0  0  0  0  0
  -17.6465  -30.6585   24.0564 C   0  0  0  0  0  0
  -25.9052  -34.9466   23.5117 C   0  0  0  0  0  0
  -16.5356  -29.9082   23.6329 C   0  0  0  0  0  0
  -16.7278  -28.6500   23.0351 C   0  0  0  0  0  0
  -26.4506  -31.6596   25.0754 C   0  0  0  0  0  0
  -25.3741  -31.3732   26.1480 C   0  0  0  0  0  0
  -27.0339  -30.3020   24.6194 C   0  0  0  0  0  0
  -27.6072  -32.4324   25.7519 C   0  0  0  0  0  0
  -27.5580  -37.1808   24.8465 C   0  0  0  0  0  0
  -21.4192  -29.3055   22.3679 N   0  0  0  0  0  0
  -26.4293  -37.3790   23.9410 N   0  0  0  0  0  0
  -24.6880  -31.0671   22.1051 N   0  0  0  0  0  0
  -23.4213  -28.8165   23.2990 O   0  0  0  0  0  0
  -28.3036  -26.4381   20.1537 O   0  0  0  0  0  0
  -26.5596  -34.8924   22.4668 O   0  0  0  0  0  0
  -23.5427  -32.1436   23.7426 O   0  0  0  0  0  0
  -29.2185  -21.4273   19.2520 C   0  0  0  0  0  0
  -29.9428  -21.0888   20.4191 C   0  0  0  0  0  0
  -30.0932  -22.1482   21.3729 C   0  0  0  0  0  0
  -28.8326  -23.7717   19.9720 C   0  0  0  0  0  0
  -28.6847  -22.7184   19.0327 C   0  0  0  0  0  0
  -29.5436  -23.4571   21.1559 C   0  0  0  0  0  0
  -30.8161  -18.7843   19.3726 C   0  0  0  0  0  0
  -30.6043  -19.6832   20.5771 C   0  0  2  0  0  0
  -29.9580  -18.2616   20.4990 C   0  0  2  0  0  0
  -30.8543  -21.8913   22.6649 C   0  0  0  0  0  0
  -27.9780  -25.0575   19.7366 C   0  0  0  0  0  0
  -30.4745  -17.0261   21.3001 C   0  0  0  0  0  0
  -29.9760  -15.6485   20.9913 N   0  0  0  0  0  0
  -27.9714  -22.9183   17.8972 F   0  0  0  0  0  0
  -29.6742  -24.4057   22.1156 F   0  0  0  0  0  0
  -31.4703  -12.4761   19.1346 H   0  0  0  0  0  0
  -30.3458  -11.3722   19.8758 H   0  0  0  0  0  0
  -29.7552  -11.7586   17.4620 H   0  0  0  0  0  0
  -29.6476  -13.4784   17.7435 H   0  0  0  0  0  0
  -27.8555  -11.2962   18.8580 H   0  0  0  0  0  0
  -27.3673  -12.5863   17.7924 H   0  0  0  0  0  0
  -27.6763  -14.2556   19.5280 H   0  0  0  0  0  0
  -28.7027  -12.0506   21.3810 H   0  0  0  0  0  0
  -28.4548  -13.7117   21.8374 H   0  0  0  0  0  0
  -25.2764   -9.5686   22.4752 H   0  0  0  0  0  0
  -24.0005   -7.4636   22.7469 H   0  0  0  0  0  0
  -21.0844   -8.8772   19.8948 H   0  0  0  0  0  0
  -22.3698  -10.9672   19.6161 H   0  0  0  0  0  0
  -21.2005   -7.6146   23.9713 H   0  0  0  0  0  0
  -21.1482   -6.0520   25.9075 H   0  0  0  0  0  0
  -22.0599   -2.7607   23.2845 H   0  0  0  0  0  0
  -22.4112  -11.9881   22.4794 H   0  0  0  0  0  0
  -21.1109  -13.1241   22.2617 H   0  0  0  0  0  0
  -24.6590  -15.8448   20.5113 H   0  0  0  0  0  0
  -26.2759  -15.6272   20.0726 H   0  0  0  0  0  0
  -26.7189  -32.5475   23.1145 H   0  0  0  0  0  0
  -25.0159  -33.9760   25.0505 H   0  0  0  0  0  0
  -22.7109  -31.3171   21.4184 H   0  0  0  0  0  0
  -23.3749  -35.9634   23.3320 H   0  0  0  0  0  0
  -24.3582  -36.8881   22.2042 H   0  0  0  0  0  0
  -23.7240  -37.6512   23.6628 H   0  0  0  0  0  0
  -26.0975  -31.5636   20.6199 H   0  0  0  0  0  0
  -26.8438  -30.8393   22.0126 H   0  0  0  0  0  0
  -28.1051  -28.9651   21.2116 H   0  0  0  0  0  0
  -25.8938  -26.0246   18.8978 H   0  0  0  0  0  0
  -23.9527  -27.3786   18.9719 H   0  0  0  0  0  0
  -23.7510  -30.6322   19.4159 H   0  0  0  0  0  0
  -22.7489  -29.2820   19.8554 H   0  0  0  0  0  0
  -25.1282  -36.1963   25.0822 H   0  0  0  0  0  0
  -20.9989  -28.3259   24.1397 H   0  0  0  0  0  0
  -20.5694  -26.2297   23.3598 H   0  0  0  0  0  0
  -21.6648  -26.7447   22.1183 H   0  0  0  0  0  0
  -19.6913  -25.6296   21.1236 H   0  0  0  0  0  0
  -19.6685  -27.3199   20.6748 H   0  0  0  0  0  0
  -17.4201  -26.6678   21.4033 H   0  0  0  0  0  0
  -18.0334  -26.0064   22.9022 H   0  0  0  0  0  0
  -19.7942  -30.7276   24.2254 H   0  0  0  0  0  0
  -17.5018  -31.6265   24.5171 H   0  0  0  0  0  0
  -15.5355  -30.2984   23.7651 H   0  0  0  0  0  0
  -15.8681  -28.0819   22.7062 H   0  0  0  0  0  0
  -24.5936  -30.7051   25.7822 H   0  0  0  0  0  0
  -24.8908  -32.2893   26.4886 H   0  0  0  0  0  0
  -25.8073  -30.8938   27.0268 H   0  0  0  0  0  0
  -26.2910  -29.6790   24.1202 H   0  0  0  0  0  0
  -27.4020  -29.7255   25.4691 H   0  0  0  0  0  0
  -27.8794  -30.4306   23.9431 H   0  0  0  0  0  0
  -27.2690  -33.3625   26.2103 H   0  0  0  0  0  0
  -28.3883  -32.6884   25.0348 H   0  0  0  0  0  0
  -28.0743  -31.8444   26.5429 H   0  0  0  0  0  0
  -28.2601  -38.0105   24.7516 H   0  0  0  0  0  0
  -28.1070  -36.2633   24.6284 H   0  0  0  0  0  0
  -27.2298  -37.1448   25.8869 H   0  0  0  0  0  0
  -20.9358  -29.8812   21.6927 H   0  0  0  0  0  0
  -26.0177  -38.2863   24.1421 H   0  0  0  0  0  0
  -29.0457  -20.6912   18.4832 H   0  0  0  0  0  0
  -31.8058  -18.3483   19.2528 H   0  0  0  0  0  0
  -30.2942  -18.9681   18.4379 H   0  0  0  0  0  0
  -31.4746  -19.7698   21.2239 H   0  0  0  0  0  0
  -28.8808  -18.2632   20.3440 H   0  0  0  0  0  0
  -30.5619  -20.9391   23.1077 H   0  0  0  0  0  0
  -30.6652  -22.6622   23.4118 H   0  0  0  0  0  0
  -31.9275  -21.8706   22.4736 H   0  0  0  0  0  0
  -27.0386  -24.7675   20.2100 H   0  0  0  0  0  0
  -27.8103  -25.1131   18.6610 H   0  0  0  0  0  0
  -30.2264  -17.2056   22.3466 H   0  0  0  0  0  0
  -31.5656  -17.0313   21.2715 H   0  0  0  0  0  0
  -29.0165  -15.4564   21.2384 H   0  0  0  0  0  0
  1 25  1  0  0  0
  1 30  2  0  0  0
  1 83  1  0  0  0
  2  3  1  0  0  0
  2 25  1  0  0  0
  2 86  1  0  0  0
  2 87  1  0  0  0
  3  4  1  0  0  0
  3 88  1  0  0  0
  3 89  1  0  0  0
  4  5  1  0  0  0
  4 90  1  0  0  0
  4 91  1  0  0  0
  5  6  1  0  0  0
  5 26  1  0  0  0
  5 92  1  0  0  0
  6 25  1  0  0  0
  6 93  1  0  0  0
  6 94  1  0  0  0
  7  8  2  0  0  0
  7 26  1  0  0  0
  7 29  1  0  0  0
  8  9  1  0  0  0
  8 22  1  0  0  0
  9 10  1  0  0  0
  9 27  2  0  0  0
 10 11  2  0  0  0
 10 15  1  0  0  0
 11 12  1  0  0  0
 11 95  1  0  0  0
 12 13  2  0  0  0
 12 96  1  0  0  0
 13 14  1  0  0  0
 13 31  1  0  0  0
 14 15  2  0  0  0
 14 97  1  0  0  0
 15 98  1  0  0  0
 16 17  2  0  0  0
 16 21  1  0  0  0
 16 31  1  0  0  0
 17 18  1  0  0  0
 17 99  1  0  0  0
 18 19  2  0  0  0
 18100  1  0  0  0
 19 20  1  0  0  0
 19 24  1  0  0  0
 20 21  2  0  0  0
 20101  1  0  0  0
 21 23  1  0  0  0
 22 28  1  0  0  0
 22 32  2  0  0  0
 26 27  1  0  0  0
 28102  1  0  0  0
 28103  1  0  0  0
 29104  1  0  0  0
 29105  1  0  0  0
 33 34  1  0  0  0
 33 66  1  0  0  0
 33 70  2  0  0  0
 34 36  1  0  0  0
 34 59  1  0  0  0
 34106  1  0  0  0
 35 44  2  0  0  0
 35 45  1  0  0  0
 35 68  1  0  0  0
 36 56  1  0  0  0
 36107  1  0  0  0
 37 39  1  0  0  0
 37 47  1  0  0  0
 37 66  1  0  0  0
 37108  1  0  0  0
 38 43  2  0  0  0
 38 46  1  0  0  0
 38 47  1  0  0  0
 39 64  1  0  0  0
 39 67  2  0  0  0
 40 52  1  0  0  0
 40 53  2  0  0  0
 40 58  1  0  0  0
 41109  1  0  0  0
 41110  1  0  0  0
 41111  1  0  0  0
 41 48  1  0  0  0
 42 43  1  0  0  0
 42 66  1  0  0  0
 42112  1  0  0  0
 42113  1  0  0  0
 43 44  1  0  0  0
 44114  1  0  0  0
 45 46  2  0  0  0
 45115  1  0  0  0
 46116  1  0  0  0
 47117  1  0  0  0
 47118  1  0  0  0
 48 56  1  0  0  0
 48 65  1  0  0  0
 48119  1  0  0  0
 49 50  1  0  0  0
 49 53  1  0  0  0
 49 64  1  0  0  0
 49120  1  0  0  0
 50 51  1  0  0  0
 50121  1  0  0  0
 50122  1  0  0  0
 51 52  1  0  0  0
 51123  1  0  0  0
 51124  1  0  0  0
 52125  1  0  0  0
 52126  1  0  0  0
 53 54  1  0  0  0
 54 55  2  0  0  0
 54127  1  0  0  0
 55 57  1  0  0  0
 55128  1  0  0  0
 56 69  2  0  0  0
 57 58  2  0  0  0
 57129  1  0  0  0
 58130  1  0  0  0
 59 60  1  0  0  0
 59 61  1  0  0  0
 59 62  1  0  0  0
 60131  1  0  0  0
 60132  1  0  0  0
 60133  1  0  0  0
 61134  1  0  0  0
 61135  1  0  0  0
 61136  1  0  0  0
 62137  1  0  0  0
 62138  1  0  0  0
 62139  1  0  0  0
 63 65  1  0  0  0
 63140  1  0  0  0
 63141  1  0  0  0
 63142  1  0  0  0
 64143  1  0  0  0
 65144  1  0  0  0
 68 81  1  0  0  0
 71 72  2  0  0  0
 71 75  1  0  0  0
 71145  1  0  0  0
 72 73  1  0  0  0
 72 78  1  0  0  0
 73 76  2  0  0  0
 73 80  1  0  0  0
 74 75  2  0  0  0
 74 76  1  0  0  0
 74 81  1  0  0  0
 75 84  1  0  0  0
 76 85  1  0  0  0
 77 78  1  0  0  0
 77 79  1  0  0  0
 77146  1  0  0  0
 77147  1  0  0  0
 78 79  1  0  0  0
 78148  1  0  0  0
 79 82  1  0  0  0
 79149  1  0  0  0
 80150  1  0  0  0
 80151  1  0  0  0
 80152  1  0  0  0
 81153  1  0  0  0
 81154  1  0  0  0
 82 83  1  0  0  0
 82155  1  0  0  0
 82156  1  0  0  0
 83157  1  0  0  0
M  ISO  4   1 100  68 101  81 101  83 100
M  END
> <chiral flag>
0

> <version>
0

> <s_m_source_file>
/data/baiqing/PycharmProjects/Reinvent-master-3.2/result/LINK_invent/BTK/process_docking_weight1_custom_sum_contain_oxygen_bond_distance_aromatic_linkinvent_7_9_3/rearranged_h_0019.sdf

> <i_m_source_file_index>
58

> <r_mmod_Potential_Energy-OPLS-2005>
102.058547973633

> <r_mmod_Stretch_Energy-OPLS-2005>
71.9516754150391

> <r_mmod_Bend_Energy-OPLS-2005>
145.890075683594

> <r_mmod_Torsional_Energy-OPLS-2005>
245.657333374023

> <r_mmod_Improper_Torsional_Energy-OPLS-2005>
5.0788516998291

> <r_mmod_Van_der_Waal_Energy-OPLS-2005>
165.277801513672

> <r_mmod_Electrostatic_Energy-OPLS-2005>
-372.332946777344

> <r_mmod_Solvation_Energy-OPLS-2005>
-201.884628295898

> <b_mmod_Minimization_Converged-OPLS-2005>
0

> <r_mmod_RMS_Derivative-OPLS-2005>
0.696370482444763

$$$$
58
                    3D
 Structure written by MMmdl.
186194  0  0  1  0            999 V2000
  -30.3161  -15.0489   20.5278 C   0  0  0  0  0  0
  -30.4264  -12.6702   19.5394 C   0  0  0  0  0  0
  -29.5174  -12.5859   18.2840 C   0  0  0  0  0  0
  -28.0382  -12.3599   18.6613 C   0  0  0  0  0  0
  -27.6048  -13.2502   19.8500 C   0  0  2  0  0  0
  -28.6165  -13.2231   21.0089 C   0  0  0  0  0  0
  -25.2265  -13.8236   20.5667 C   0  0  0  0  0  0
  -24.1632  -13.0443   20.9238 C   0  0  0  0  0  0
  -24.6257  -11.6922   20.8759 C   0  0  0  0  0  0
  -23.8965  -10.4290   21.0409 C   0  0  0  0  0  0
  -24.3560   -9.4201   21.9159 C   0  0  0  0  0  0
  -23.6271   -8.2213   22.0717 C   0  0  0  0  0  0
  -22.4243   -8.0240   21.3515 C   0  0  0  0  0  0
  -21.9860   -9.0208   20.4612 C   0  0  0  0  0  0
  -22.7167  -10.2100   20.3035 C   0  0  0  0  0  0
  -21.6869   -6.0702   22.5276 C   0  0  0  0  0  0
  -21.4033   -6.5630   23.8201 C   0  0  0  0  0  0
  -21.3640   -5.6800   24.9182 C   0  0  0  0  0  0
  -21.6042   -4.3060   24.7241 C   0  0  0  0  0  0
  -21.8808   -3.8121   23.4372 C   0  0  0  0  0  0
  -21.9203   -4.6933   22.3417 C   0  0  0  0  0  0
  -22.7661  -13.5180   21.1942 C   0  0  0  0  0  0
  -22.1659   -4.2118   21.0993 F   0  0  0  0  0  0
  -21.5625   -3.4538   25.7742 F   0  0  0  0  0  0
  -29.8679  -13.7256   20.4513 N   0  0  0  0  0  0
  -26.2651  -12.9467   20.3179 N   0  0  0  0  0  0
  -25.9168  -11.6579   20.5649 N   0  0  0  0  0  0
  -22.0420  -12.8094   22.0534 N   0  0  0  0  0  0
  -25.3925  -15.1971   20.3996 N   0  0  0  0  0  0
  -31.4994  -15.2166   20.1807 O   0  0  0  0  0  0
  -21.6627   -6.8832   21.4217 O   0  0  0  0  0  0
  -22.3267  -14.5487   20.6836 O   0  0  0  0  0  0
  -24.6464  -31.7906   23.3663 C   0  0  0  0  0  0
  -25.9324  -32.4592   23.9204 C   0  0  1  0  0  0
  -27.5276  -27.2751   19.7978 C   0  0  0  0  0  0
  -25.5898  -33.8557   24.2396 N   0  0  0  0  0  0
  -23.2520  -30.2954   21.6649 C   0  0  2  0  0  0
  -25.0873  -28.5073   19.6663 C   0  0  0  0  0  0
  -22.4044  -29.6129   22.7189 C   0  0  0  0  0  0
  -17.9417  -28.1241   22.8413 C   0  0  0  0  0  0
  -24.1469  -36.7223   23.2532 C   0  0  0  0  0  0
  -26.3114  -30.3061   21.8555 C   0  0  0  0  0  0
  -26.4230  -29.0530   20.5466 C   0  0  0  0  0  0
  -27.4924  -28.2741   20.7233 C   0  0  0  0  0  0
  -26.4449  -26.7284   19.0714 C   0  0  0  0  0  0
  -25.2183  -27.3761   18.9348 C   0  0  0  0  0  0
  -23.3505  -29.0514   20.1874 C   0  0  0  0  0  0
  -25.4084  -36.3015   24.0253 C   0  0  1  0  0  0
  -20.4446  -28.3274   23.1705 C   0  0  2  0  0  0
  -20.5692  -26.9094   22.6048 C   0  0  0  0  0  0
  -19.5229  -26.6183   21.5315 C   0  0  0  0  0  0
  -18.1230  -26.7886   22.1322 C   0  0  0  0  0  0
  -19.0495  -28.8557   23.3179 C   0  0  0  0  0  0
  -18.8748  -30.1224   23.9157 C   0  0  0  0  0  0
  -17.5851  -30.6555   24.0628 C   0  0  0  0  0  0
  -25.9088  -34.9338   23.5121 C   0  0  0  0  0  0
  -16.4734  -29.9124   23.6250 C   0  0  0  0  0  0
  -16.6524  -28.6557   23.0166 C   0  0  0  0  0  0
  -26.5195  -31.7317   25.1918 C   0  0  0  0  0  0
  -25.4338  -31.3421   26.2209 C   0  0  0  0  0  0
  -27.3740  -30.4927   24.8797 C   0  0  0  0  0  0
  -27.5600  -32.6386   25.8761 C   0  0  0  0  0  0
  -27.5541  -37.1782   24.8456 C   0  0  0  0  0  0
  -21.1941  -29.2539   22.3631 N   0  0  0  0  0  0
  -26.4243  -37.3711   23.9405 N   0  0  0  0  0  0
  -24.7386  -30.8168   22.4314 N   0  0  0  0  0  0
  -22.8899  -29.2470   23.7843 O   0  0  0  0  0  0
  -28.6345  -27.5003   19.1004 O   0  0  0  0  0  0
  -26.5829  -34.8711   22.4816 O   0  0  0  0  0  0
  -23.5491  -32.2006   23.7655 O   0  0  0  0  0  0
  -25.2151  -28.1277   23.2785 C   0  0  0  0  0  0
  -24.7579  -28.4344   21.9691 C   0  0  0  0  0  0
  -24.6414  -26.8738   21.7604 C   0  0  0  0  0  0
  -25.5068  -25.9931   22.4512 C   0  0  0  0  0  0
  -23.8091  -31.1864   18.8892 C   0  0  0  0  0  0
  -24.9821  -32.3930   20.4129 C   0  0  0  0  0  0
  -26.2928  -27.3802   25.9728 C   0  0  0  0  0  0
  -26.9088  -25.1672   25.0929 C   0  0  0  0  0  0
  -24.4858  -25.7324   25.5036 C   0  0  0  0  0  0
  -28.0223  -20.6379   21.1238 C   0  0  0  0  0  0
  -26.9114  -21.8044   21.8077 C   0  0  0  0  0  0
  -28.1452  -18.8962   21.3062 C   0  0  0  0  0  0
  -27.6993  -30.1382   18.5051 C   0  0  0  0  0  0
  -26.2185  -30.8957   18.7737 C   0  0  0  0  0  0
  -26.7658  -23.5389   21.6094 C   0  0  0  0  0  0
  -29.3566  -17.7609   20.7375 C   0  0  0  0  0  0
  -28.4473  -28.6898   18.1619 C   0  0  0  0  0  0
  -24.9282  -30.7895   20.0345 C   0  0  0  0  0  0
  -25.8349  -26.2781   24.9935 C   0  0  0  0  0  0
  -25.6113  -26.7812   23.6017 N   0  0  0  0  0  0
  -25.7049  -24.4700   22.3501 N   0  0  0  0  0  0
  -29.3940  -16.1345   20.8295 N   0  0  0  0  0  0
  -23.5179  -25.9678   20.7715 Cl  0  0  0  0  0  0
  -31.4535  -12.8918   19.2397 H   0  0  0  0  0  0
  -30.4707  -11.7060   20.0545 H   0  0  0  0  0  0
  -29.8604  -11.8038   17.6055 H   0  0  0  0  0  0
  -29.5882  -13.5251   17.7364 H   0  0  0  0  0  0
  -27.8928  -11.3102   18.9142 H   0  0  0  0  0  0
  -27.4002  -12.5655   17.7969 H   0  0  0  0  0  0
  -27.5821  -14.2638   19.4461 H   0  0  0  0  0  0
  -28.7281  -12.2171   21.4178 H   0  0  0  0  0  0
  -28.2813  -13.8591   21.8328 H   0  0  0  0  0  0
  -25.2735   -9.5733   22.4664 H   0  0  0  0  0  0
  -24.0035   -7.4633   22.7415 H   0  0  0  0  0  0
  -21.0802   -8.8729   19.8900 H   0  0  0  0  0  0
  -22.3653  -10.9619   19.6120 H   0  0  0  0  0  0
  -21.2022   -7.6141   23.9702 H   0  0  0  0  0  0
  -21.1479   -6.0535   25.9089 H   0  0  0  0  0  0
  -22.0594   -2.7576   23.2905 H   0  0  0  0  0  0
  -22.4143  -11.9757   22.4846 H   0  0  0  0  0  0
  -21.1010  -13.0967   22.2824 H   0  0  0  0  0  0
  -24.6057  -15.8307   20.4581 H   0  0  0  0  0  0
  -26.1848  -15.6092   19.9241 H   0  0  0  0  0  0
  -26.7103  -32.4846   23.1622 H   0  0  0  0  0  0
  -24.9814  -33.9883   25.0338 H   0  0  0  0  0  0
  -22.6589  -31.1727   21.4036 H   0  0  0  0  0  0
  -23.3730  -35.9554   23.3184 H   0  0  0  0  0  0
  -24.3566  -36.8857   22.1943 H   0  0  0  0  0  0
  -23.7222  -37.6423   23.6550 H   0  0  0  0  0  0
  -26.9747  -31.1156   21.5666 H   0  0  0  0  0  0
  -26.8923  -29.8445   22.6261 H   0  0  0  0  0  0
  -28.3675  -28.6425   21.2428 H   0  0  0  0  0  0
  -26.6436  -25.9140   18.3925 H   0  0  0  0  0  0
  -24.4078  -26.9542   18.3595 H   0  0  0  0  0  0
  -22.7493  -28.2163   20.5056 H   0  0  0  0  0  0
  -22.6486  -29.2118   19.3695 H   0  0  0  0  0  0
  -25.1223  -36.1900   25.0749 H   0  0  0  0  0  0
  -20.8097  -28.2781   24.2022 H   0  0  0  0  0  0
  -20.4093  -26.2063   23.4201 H   0  0  0  0  0  0
  -21.5763  -26.7185   22.2586 H   0  0  0  0  0  0
  -19.6446  -25.6081   21.1436 H   0  0  0  0  0  0
  -19.6582  -27.3004   20.6909 H   0  0  0  0  0  0
  -17.3744  -26.6910   21.3454 H   0  0  0  0  0  0
  -17.9270  -25.9895   22.8495 H   0  0  0  0  0  0
  -19.7308  -30.6849   24.2614 H   0  0  0  0  0  0
  -17.4462  -31.6249   24.5204 H   0  0  0  0  0  0
  -15.4754  -30.3153   23.7385 H   0  0  0  0  0  0
  -15.7916  -28.1048   22.6631 H   0  0  0  0  0  0
  -24.7107  -30.6307   25.8205 H   0  0  0  0  0  0
  -24.8844  -32.2168   26.5686 H   0  0  0  0  0  0
  -25.8785  -30.8721   27.1021 H   0  0  0  0  0  0
  -26.8461  -29.6110   24.6276 H   0  0  0  0  0  0
  -27.9318  -30.1758   25.7643 H   0  0  0  0  0  0
  -28.1355  -30.7009   24.1288 H   0  0  0  0  0  0
  -27.1134  -33.5496   26.2767 H   0  0  0  0  0  0
  -28.3477  -32.9403   25.1820 H   0  0  0  0  0  0
  -28.0389  -32.1529   26.7288 H   0  0  0  0  0  0
  -28.2551  -38.0080   24.7479 H   0  0  0  0  0  0
  -28.1016  -36.2602   24.6283 H   0  0  0  0  0  0
  -27.2249  -37.1469   25.8850 H   0  0  0  0  0  0
  -20.8125  -29.5327   21.4696 H   0  0  0  0  0  0
  -26.0101  -38.2798   24.1349 H   0  0  0  0  0  0
  -25.2141  -28.8247   24.0847 H   0  0  0  0  0  0
  -22.8144  -31.4131   19.2739 H   0  0  0  0  0  0
  -23.7071  -30.4197   18.1191 H   0  0  0  0  0  0
  -24.0246  -32.0455   18.2533 H   0  0  0  0  0  0
  -24.0881  -32.7627   20.9160 H   0  0  0  0  0  0
  -25.0709  -33.0957   19.5833 H   0  0  0  0  0  0
  -25.8440  -32.7069   20.9932 H   0  0  0  0  0  0
  -26.4178  -26.9818   26.9812 H   0  0  0  0  0  0
  -25.5758  -28.1937   26.0731 H   0  0  0  0  0  0
  -27.2645  -27.7852   25.6877 H   0  0  0  0  0  0
  -27.2117  -25.0018   26.1265 H   0  0  0  0  0  0
  -27.8124  -25.4176   24.5308 H   0  0  0  0  0  0
  -26.5546  -24.1980   24.7507 H   0  0  0  0  0  0
  -24.5535  -25.3716   26.5313 H   0  0  0  0  0  0
  -24.1330  -24.9009   24.8900 H   0  0  0  0  0  0
  -23.7117  -26.5024   25.4753 H   0  0  0  0  0  0
  -29.0102  -21.0314   21.3681 H   0  0  0  0  0  0
  -27.9486  -20.7885   20.0448 H   0  0  0  0  0  0
  -26.9982  -21.6579   22.8827 H   0  0  0  0  0  0
  -25.9240  -21.4165   21.5581 H   0  0  0  0  0  0
  -27.2010  -18.5131   20.9162 H   0  0  0  0  0  0
  -28.0734  -18.7241   22.3812 H   0  0  0  0  0  0
  -26.9557  -29.3849   18.3178 H   0  0  0  0  0  0
  -28.1957  -30.3453   19.4541 H   0  0  0  0  0  0
  -25.7736  -30.8487   17.7787 H   0  0  0  0  0  0
  -26.5727  -31.9237   18.7774 H   0  0  0  0  0  0
  -26.6145  -23.7347   20.5446 H   0  0  0  0  0  0
  -27.7435  -23.9724   21.8293 H   0  0  0  0  0  0
  -30.3161  -18.0872   21.1440 H   0  0  0  0  0  0
  -29.4460  -17.9569   19.6694 H   0  0  0  0  0  0
  -29.4775  -28.9676   17.9322 H   0  0  0  0  0  0
  -28.1077  -28.2899   17.1973 H   0  0  0  0  0  0
  -25.5091  -24.0943   23.2722 H   0  0  0  0  0  0
  -28.4981  -15.7548   21.0949 H   0  0  0  0  0  0
  1 25  1  0  0  0
  1 30  2  0  0  0
  1 92  1  0  0  0
  2  3  1  0  0  0
  2 25  1  0  0  0
  2 94  1  0  0  0
  2 95  1  0  0  0
  3  4  1  0  0  0
  3 96  1  0  0  0
  3 97  1  0  0  0
  4  5  1  0  0  0
  4 98  1  0  0  0
  4 99  1  0  0  0
  5  6  1  0  0  0
  5 26  1  0  0  0
  5100  1  0  0  0
  6 25  1  0  0  0
  6101  1  0  0  0
  6102  1  0  0  0
  7  8  2  0  0  0
  7 26  1  0  0  0
  7 29  1  0  0  0
  8  9  1  0  0  0
  8 22  1  0  0  0
  9 10  1  0  0  0
  9 27  2  0  0  0
 10 11  2  0  0  0
 10 15  1  0  0  0
 11 12  1  0  0  0
 11103  1  0  0  0
 12 13  2  0  0  0
 12104  1  0  0  0
 13 14  1  0  0  0
 13 31  1  0  0  0
 14 15  2  0  0  0
 14105  1  0  0  0
 15106  1  0  0  0
 16 17  2  0  0  0
 16 21  1  0  0  0
 16 31  1  0  0  0
 17 18  1  0  0  0
 17107  1  0  0  0
 18 19  2  0  0  0
 18108  1  0  0  0
 19 20  1  0  0  0
 19 24  1  0  0  0
 20 21  2  0  0  0
 20109  1  0  0  0
 21 23  1  0  0  0
 22 28  1  0  0  0
 22 32  2  0  0  0
 26 27  1  0  0  0
 28110  1  0  0  0
 28111  1  0  0  0
 29112  1  0  0  0
 29113  1  0  0  0
 33 34  1  0  0  0
 33 66  1  0  0  0
 33 70  2  0  0  0
 34 36  1  0  0  0
 34 59  1  0  0  0
 34114  1  0  0  0
 35 44  2  0  0  0
 35 45  1  0  0  0
 35 68  1  0  0  0
 36 56  1  0  0  0
 36115  1  0  0  0
 37 39  1  0  0  0
 37 47  1  0  0  0
 37 66  1  0  0  0
 37116  1  0  0  0
 38 43  2  0  0  0
 38 46  1  0  0  0
 38 47  1  0  0  0
 39 64  1  0  0  0
 39 67  2  0  0  0
 40 52  1  0  0  0
 40 53  2  0  0  0
 40 58  1  0  0  0
 41117  1  0  0  0
 41118  1  0  0  0
 41119  1  0  0  0
 41 48  1  0  0  0
 42 43  1  0  0  0
 42 66  1  0  0  0
 42120  1  0  0  0
 42121  1  0  0  0
 43 44  1  0  0  0
 44122  1  0  0  0
 45 46  2  0  0  0
 45123  1  0  0  0
 46124  1  0  0  0
 47125  1  0  0  0
 47126  1  0  0  0
 48 56  1  0  0  0
 48 65  1  0  0  0
 48127  1  0  0  0
 49 50  1  0  0  0
 49 53  1  0  0  0
 49 64  1  0  0  0
 49128  1  0  0  0
 50 51  1  0  0  0
 50129  1  0  0  0
 50130  1  0  0  0
 51 52  1  0  0  0
 51131  1  0  0  0
 51132  1  0  0  0
 52133  1  0  0  0
 52134  1  0  0  0
 53 54  1  0  0  0
 54 55  2  0  0  0
 54135  1  0  0  0
 55 57  1  0  0  0
 55136  1  0  0  0
 56 69  2  0  0  0
 57 58  2  0  0  0
 57137  1  0  0  0
 58138  1  0  0  0
 59 60  1  0  0  0
 59 61  1  0  0  0
 59 62  1  0  0  0
 60139  1  0  0  0
 60140  1  0  0  0
 60141  1  0  0  0
 61142  1  0  0  0
 61143  1  0  0  0
 61144  1  0  0  0
 62145  1  0  0  0
 62146  1  0  0  0
 62147  1  0  0  0
 63 65  1  0  0  0
 63148  1  0  0  0
 63149  1  0  0  0
 63150  1  0  0  0
 64151  1  0  0  0
 65152  1  0  0  0
 68 87  1  0  0  0
 71 72  2  0  0  0
 71 90  1  0  0  0
 71153  1  0  0  0
 72 73  1  0  0  0
 72 88  1  0  0  0
 73 74  2  0  0  0
 73 93  1  0  0  0
 74 90  1  0  0  0
 74 91  1  0  0  0
 75154  1  0  0  0
 75155  1  0  0  0
 75156  1  0  0  0
 75 88  1  0  0  0
 76 88  1  0  0  0
 76157  1  0  0  0
 76158  1  0  0  0
 76159  1  0  0  0
 77160  1  0  0  0
 77161  1  0  0  0
 77162  1  0  0  0
 77 89  1  0  0  0
 78 89  1  0  0  0
 78163  1  0  0  0
 78164  1  0  0  0
 78165  1  0  0  0
 79 89  1  0  0  0
 79166  1  0  0  0
 79167  1  0  0  0
 79168  1  0  0  0
 80 81  1  0  0  0
 80 82  1  0  0  0
 80169  1  0  0  0
 80170  1  0  0  0
 81 85  1  0  0  0
 81171  1  0  0  0
 81172  1  0  0  0
 82 86  1  0  0  0
 82173  1  0  0  0
 82174  1  0  0  0
 83 84  1  0  0  0
 83 87  1  0  0  0
 83175  1  0  0  0
 83176  1  0  0  0
 84 88  1  0  0  0
 84177  1  0  0  0
 84178  1  0  0  0
 85 91  1  0  0  0
 85179  1  0  0  0
 85180  1  0  0  0
 86 92  1  0  0  0
 86181  1  0  0  0
 86182  1  0  0  0
 87183  1  0  0  0
 87184  1  0  0  0
 89 90  1  0  0  0
 91185  1  0  0  0
 92186  1  0  0  0
M  ISO  4   1 100  68 101  87 101  92 100
M  END
> <chiral flag>
0

> <version>
0

> <s_m_source_file>
/data/baiqing/PycharmProjects/Reinvent-master-3.2/result/LINK_invent/BTK/process_docking_weight1_custom_sum_contain_oxygen_bond_distance_aromatic_linkinvent_7_9_3/rearranged_h_0019.sdf

> <i_m_source_file_index>
59

> <r_mmod_Potential_Energy-OPLS-2005>
8560.642578125

> <r_mmod_Stretch_Energy-OPLS-2005>
4475.814453125

> <r_mmod_Bend_Energy-OPLS-2005>
1056.8544921875

> <r_mmod_Torsional_Energy-OPLS-2005>
554.575134277344

> <r_mmod_Improper_Torsional_Energy-OPLS-2005>
54.6447563171387

> <r_mmod_Van_der_Waal_Energy-OPLS-2005>
2139.884765625

> <r_mmod_Electrostatic_Energy-OPLS-2005>
-397.178039550781

> <r_mmod_Solvation_Energy-OPLS-2005>
-183.265029907227

> <b_mmod_Minimization_Converged-OPLS-2005>
0

> <r_mmod_RMS_Derivative-OPLS-2005>
9.70291614532471

$$$$
59
                    3D
 Structure written by MMmdl.
150158  0  0  1  0            999 V2000
  -30.3030  -15.5965   20.3294 C   0  0  0  0  0  0
  -30.4331  -13.0498   19.5374 C   0  0  0  0  0  0
  -29.5548  -12.6524   18.3171 C   0  0  0  0  0  0
  -28.1210  -12.3079   18.7528 C   0  0  0  0  0  0
  -27.5999  -13.3061   19.8128 C   0  0  2  0  0  0
  -28.6206  -13.6106   20.9343 C   0  0  0  0  0  0
  -25.2337  -13.8285   20.5783 C   0  0  0  0  0  0
  -24.1727  -13.0435   20.9286 C   0  0  0  0  0  0
  -24.6426  -11.6947   20.8764 C   0  0  0  0  0  0
  -23.9123  -10.4297   21.0407 C   0  0  0  0  0  0
  -24.3650   -9.4208   21.9193 C   0  0  0  0  0  0
  -23.6308   -8.2250   22.0763 C   0  0  0  0  0  0
  -22.4288   -8.0295   21.3550 C   0  0  0  0  0  0
  -21.9936   -9.0275   20.4652 C   0  0  0  0  0  0
  -22.7283  -10.2145   20.3059 C   0  0  0  0  0  0
  -21.6858   -6.0746   22.5279 C   0  0  0  0  0  0
  -21.4020   -6.5647   23.8215 C   0  0  0  0  0  0
  -21.3661   -5.6794   24.9175 C   0  0  0  0  0  0
  -21.6041   -4.3055   24.7225 C   0  0  0  0  0  0
  -21.8816   -3.8151   23.4343 C   0  0  0  0  0  0
  -21.9193   -4.6971   22.3401 C   0  0  0  0  0  0
  -22.7737  -13.5177   21.1907 C   0  0  0  0  0  0
  -22.1661   -4.2160   21.0975 F   0  0  0  0  0  0
  -21.5627   -3.4533   25.7736 F   0  0  0  0  0  0
  -29.8019  -14.2255   20.2852 N   0  0  0  0  0  0
  -26.2789  -12.9615   20.3212 N   0  0  0  0  0  0
  -25.9371  -11.6688   20.5687 N   0  0  0  0  0  0
  -22.0375  -12.8180   22.0457 N   0  0  0  0  0  0
  -25.3909  -15.2028   20.4214 N   0  0  0  0  0  0
  -31.5376  -15.5666   20.1621 O   0  0  0  0  0  0
  -21.6642   -6.8893   21.4243 O   0  0  0  0  0  0
  -22.3426  -14.5471   20.6726 O   0  0  0  0  0  0
  -24.6838  -31.8014   23.1524 C   0  0  0  0  0  0
  -25.9417  -32.4480   23.8077 C   0  0  1  0  0  0
  -27.2289  -26.7112   20.2108 C   0  0  0  0  0  0
  -25.5993  -33.8305   24.1958 N   0  0  0  0  0  0
  -23.5095  -30.4033   21.5071 C   0  0  2  0  0  0
  -24.9676  -28.7466   20.1193 C   0  0  0  0  0  0
  -22.7770  -29.4327   22.4725 C   0  0  0  0  0  0
  -18.0338  -28.1421   22.8454 C   0  0  0  0  0  0
  -24.1494  -36.7164   23.2651 C   0  0  0  0  0  0
  -26.0906  -30.5371   21.4160 C   0  0  0  0  0  0
  -26.1577  -29.1027   20.7651 C   0  0  0  0  0  0
  -27.2747  -28.1136   20.7774 C   0  0  0  0  0  0
  -26.0042  -26.5640   19.5098 C   0  0  0  0  0  0
  -24.9298  -27.5024   19.4678 C   0  0  0  0  0  0
  -23.7631  -29.7004   20.1427 C   0  0  0  0  0  0
  -25.4144  -36.2907   24.0281 C   0  0  1  0  0  0
  -20.5974  -28.3785   23.1142 C   0  0  2  0  0  0
  -20.6807  -26.9445   22.5404 C   0  0  0  0  0  0
  -19.5780  -26.6369   21.5219 C   0  0  0  0  0  0
  -18.1961  -26.7948   22.1619 C   0  0  0  0  0  0
  -19.1604  -28.8928   23.2777 C   0  0  0  0  0  0
  -18.9509  -30.1510   23.8824 C   0  0  0  0  0  0
  -17.6499  -30.6605   24.0547 C   0  0  0  0  0  0
  -25.9126  -34.9295   23.4959 C   0  0  0  0  0  0
  -16.5389  -29.9087   23.6349 C   0  0  0  0  0  0
  -16.7318  -28.6507   23.0371 C   0  0  0  0  0  0
  -26.4590  -31.6516   25.0701 C   0  0  0  0  0  0
  -25.3651  -31.3845   26.1317 C   0  0  0  0  0  0
  -27.0515  -30.2852   24.6603 C   0  0  0  0  0  0
  -27.6038  -32.4375   25.7522 C   0  0  0  0  0  0
  -27.5566  -37.1743   24.8462 C   0  0  0  0  0  0
  -21.4417  -29.3032   22.3468 N   0  0  0  0  0  0
  -26.4274  -37.3664   23.9402 N   0  0  0  0  0  0
  -24.7848  -30.9466   22.0775 N   0  0  0  0  0  0
  -23.4220  -28.7931   23.3068 O   0  0  0  0  0  0
  -28.1879  -25.4899   20.2657 O   0  0  0  0  0  0
  -26.5762  -34.8869   22.4574 O   0  0  0  0  0  0
  -23.5856  -32.1087   23.6473 O   0  0  0  0  0  0
  -29.5100  -19.6971   21.3327 C   0  0  0  0  0  0
  -29.1708  -21.1965   21.3109 C   0  0  0  0  0  0
  -28.6323  -22.0596   20.2152 C   0  0  0  0  0  0
  -28.5479  -20.9976   19.1598 C   0  0  0  0  0  0
  -29.4054  -18.6290   20.2966 C   0  0  0  0  0  0
  -28.8669  -19.4893   19.2069 C   0  0  0  0  0  0
  -29.3606  -21.9182   22.6319 C   0  0  0  0  0  0
  -28.0094  -21.5011   17.8254 C   0  0  0  0  0  0
  -27.8594  -23.7718   20.2179 C   0  0  0  0  0  0
  -29.4780  -16.9094   20.3836 N   0  0  0  0  0  0
  -28.4945  -18.5708   17.7864 Cl  0  0  0  0  0  0
  -31.4286  -13.3130   19.1787 H   0  0  0  0  0  0
  -30.5849  -12.1961   20.2006 H   0  0  0  0  0  0
  -30.0006  -11.8137   17.7812 H   0  0  0  0  0  0
  -29.5288  -13.4853   17.6121 H   0  0  0  0  0  0
  -28.1319  -11.3022   19.1748 H   0  0  0  0  0  0
  -27.4546  -12.2730   17.8901 H   0  0  0  0  0  0
  -27.4698  -14.2377   19.2603 H   0  0  0  0  0  0
  -28.8701  -12.7170   21.5086 H   0  0  0  0  0  0
  -28.1974  -14.3230   21.6440 H   0  0  0  0  0  0
  -25.2794   -9.5685   22.4769 H   0  0  0  0  0  0
  -24.0013   -7.4646   22.7490 H   0  0  0  0  0  0
  -21.0866   -8.8805   19.8960 H   0  0  0  0  0  0
  -22.3750  -10.9686   19.6166 H   0  0  0  0  0  0
  -21.2016   -7.6155   23.9723 H   0  0  0  0  0  0
  -21.1484   -6.0522   25.9079 H   0  0  0  0  0  0
  -22.0591   -2.7613   23.2833 H   0  0  0  0  0  0
  -22.3991  -11.9871   22.4900 H   0  0  0  0  0  0
  -21.0981  -13.1211   22.2606 H   0  0  0  0  0  0
  -24.6120  -15.8434   20.5278 H   0  0  0  0  0  0
  -26.2173  -15.6437   20.0415 H   0  0  0  0  0  0
  -26.7509  -32.4956   23.0800 H   0  0  0  0  0  0
  -25.0049  -33.9356   25.0048 H   0  0  0  0  0  0
  -22.8344  -31.2404   21.3173 H   0  0  0  0  0  0
  -23.3776  -35.9476   23.3272 H   0  0  0  0  0  0
  -24.3558  -36.8870   22.2074 H   0  0  0  0  0  0
  -23.7242  -37.6327   23.6756 H   0  0  0  0  0  0
  -26.2925  -31.2639   20.6282 H   0  0  0  0  0  0
  -26.9408  -30.6045   22.0822 H   0  0  0  0  0  0
  -28.1709  -28.3931   21.3132 H   0  0  0  0  0  0
  -25.8356  -25.6241   19.0045 H   0  0  0  0  0  0
  -24.0320  -27.2206   18.9347 H   0  0  0  0  0  0
  -23.9382  -30.4601   19.3801 H   0  0  0  0  0  0
  -22.8681  -29.1667   19.8181 H   0  0  0  0  0  0
  -25.1357  -36.1675   25.0774 H   0  0  0  0  0  0
  -21.0050  -28.3409   24.1270 H   0  0  0  0  0  0
  -20.5674  -26.2412   23.3669 H   0  0  0  0  0  0
  -21.6668  -26.7394   22.1220 H   0  0  0  0  0  0
  -19.6940  -25.6258   21.1300 H   0  0  0  0  0  0
  -19.6718  -27.3135   20.6714 H   0  0  0  0  0  0
  -17.4235  -26.6693   21.4018 H   0  0  0  0  0  0
  -18.0345  -26.0109   22.9030 H   0  0  0  0  0  0
  -19.7987  -30.7337   24.2170 H   0  0  0  0  0  0
  -17.5053  -31.6279   24.5160 H   0  0  0  0  0  0
  -15.5386  -30.2963   23.7716 H   0  0  0  0  0  0
  -15.8720  -28.0794   22.7137 H   0  0  0  0  0  0
  -24.5849  -30.7182   25.7622 H   0  0  0  0  0  0
  -24.8823  -32.3070   26.4546 H   0  0  0  0  0  0
  -25.7819  -30.9136   27.0229 H   0  0  0  0  0  0
  -26.3232  -29.6473   24.1586 H   0  0  0  0  0  0
  -27.3927  -29.7295   25.5348 H   0  0  0  0  0  0
  -27.9220  -30.3976   24.0139 H   0  0  0  0  0  0
  -27.2578  -33.3741   26.1908 H   0  0  0  0  0  0
  -28.3948  -32.6839   25.0427 H   0  0  0  0  0  0
  -28.0601  -31.8638   26.5599 H   0  0  0  0  0  0
  -28.2556  -38.0064   24.7507 H   0  0  0  0  0  0
  -28.1091  -36.2586   24.6294 H   0  0  0  0  0  0
  -27.2281  -37.1388   25.8865 H   0  0  0  0  0  0
  -20.9735  -29.8686   21.6524 H   0  0  0  0  0  0
  -26.0106  -38.2720   24.1396 H   0  0  0  0  0  0
  -29.8387  -19.3206   22.2904 H   0  0  0  0  0  0
  -29.9530  -21.3324   23.3357 H   0  0  0  0  0  0
  -28.3948  -22.1256   23.0932 H   0  0  0  0  0  0
  -29.8761  -22.8671   22.4788 H   0  0  0  0  0  0
  -28.0609  -22.5843   17.7361 H   0  0  0  0  0  0
  -26.9723  -21.1938   17.6909 H   0  0  0  0  0  0
  -28.5942  -21.1147   16.9910 H   0  0  0  0  0  0
  -27.1982  -23.6787   21.0796 H   0  0  0  0  0  0
  -27.1639  -23.7141   19.3830 H   0  0  0  0  0  0
  -28.5254  -16.5807   20.4337 H   0  0  0  0  0  0
  1 25  1  0  0  0
  1 30  2  0  0  0
  1 80  1  0  0  0
  2  3  1  0  0  0
  2 25  1  0  0  0
  2 82  1  0  0  0
  2 83  1  0  0  0
  3  4  1  0  0  0
  3 84  1  0  0  0
  3 85  1  0  0  0
  4  5  1  0  0  0
  4 86  1  0  0  0
  4 87  1  0  0  0
  5  6  1  0  0  0
  5 26  1  0  0  0
  5 88  1  0  0  0
  6 25  1  0  0  0
  6 89  1  0  0  0
  6 90  1  0  0  0
  7  8  2  0  0  0
  7 26  1  0  0  0
  7 29  1  0  0  0
  8  9  1  0  0  0
  8 22  1  0  0  0
  9 10  1  0  0  0
  9 27  2  0  0  0
 10 11  2  0  0  0
 10 15  1  0  0  0
 11 12  1  0  0  0
 11 91  1  0  0  0
 12 13  2  0  0  0
 12 92  1  0  0  0
 13 14  1  0  0  0
 13 31  1  0  0  0
 14 15  2  0  0  0
 14 93  1  0  0  0
 15 94  1  0  0  0
 16 17  2  0  0  0
 16 21  1  0  0  0
 16 31  1  0  0  0
 17 18  1  0  0  0
 17 95  1  0  0  0
 18 19  2  0  0  0
 18 96  1  0  0  0
 19 20  1  0  0  0
 19 24  1  0  0  0
 20 21  2  0  0  0
 20 97  1  0  0  0
 21 23  1  0  0  0
 22 28  1  0  0  0
 22 32  2  0  0  0
 26 27  1  0  0  0
 28 98  1  0  0  0
 28 99  1  0  0  0
 29100  1  0  0  0
 29101  1  0  0  0
 33 34  1  0  0  0
 33 66  1  0  0  0
 33 70  2  0  0  0
 34 36  1  0  0  0
 34 59  1  0  0  0
 34102  1  0  0  0
 35 44  2  0  0  0
 35 45  1  0  0  0
 35 68  1  0  0  0
 36 56  1  0  0  0
 36103  1  0  0  0
 37 39  1  0  0  0
 37 47  1  0  0  0
 37 66  1  0  0  0
 37104  1  0  0  0
 38 43  2  0  0  0
 38 46  1  0  0  0
 38 47  1  0  0  0
 39 64  1  0  0  0
 39 67  2  0  0  0
 40 52  1  0  0  0
 40 53  2  0  0  0
 40 58  1  0  0  0
 41105  1  0  0  0
 41106  1  0  0  0
 41107  1  0  0  0
 41 48  1  0  0  0
 42 43  1  0  0  0
 42 66  1  0  0  0
 42108  1  0  0  0
 42109  1  0  0  0
 43 44  1  0  0  0
 44110  1  0  0  0
 45 46  2  0  0  0
 45111  1  0  0  0
 46112  1  0  0  0
 47113  1  0  0  0
 47114  1  0  0  0
 48 56  1  0  0  0
 48 65  1  0  0  0
 48115  1  0  0  0
 49 50  1  0  0  0
 49 53  1  0  0  0
 49 64  1  0  0  0
 49116  1  0  0  0
 50 51  1  0  0  0
 50117  1  0  0  0
 50118  1  0  0  0
 51 52  1  0  0  0
 51119  1  0  0  0
 51120  1  0  0  0
 52121  1  0  0  0
 52122  1  0  0  0
 53 54  1  0  0  0
 54 55  2  0  0  0
 54123  1  0  0  0
 55 57  1  0  0  0
 55124  1  0  0  0
 56 69  2  0  0  0
 57 58  2  0  0  0
 57125  1  0  0  0
 58126  1  0  0  0
 59 60  1  0  0  0
 59 61  1  0  0  0
 59 62  1  0  0  0
 60127  1  0  0  0
 60128  1  0  0  0
 60129  1  0  0  0
 61130  1  0  0  0
 61131  1  0  0  0
 61132  1  0  0  0
 62133  1  0  0  0
 62134  1  0  0  0
 62135  1  0  0  0
 63 65  1  0  0  0
 63136  1  0  0  0
 63137  1  0  0  0
 63138  1  0  0  0
 64139  1  0  0  0
 65140  1  0  0  0
 68 79  1  0  0  0
 71 72  2  0  0  0
 71 75  1  0  0  0
 71141  1  0  0  0
 72 73  1  0  0  0
 72 77  1  0  0  0
 73 74  2  0  0  0
 73 79  1  0  0  0
 74 76  1  0  0  0
 74 78  1  0  0  0
 75 76  2  0  0  0
 75 80  1  0  0  0
 76 81  1  0  0  0
 77142  1  0  0  0
 77143  1  0  0  0
 77144  1  0  0  0
 78145  1  0  0  0
 78146  1  0  0  0
 78147  1  0  0  0
 79148  1  0  0  0
 79149  1  0  0  0
 80150  1  0  0  0
M  ISO  4   1 100  68 101  79 101  80 100
M  END
> <chiral flag>
0

> <version>
0

> <s_m_source_file>
/data/baiqing/PycharmProjects/Reinvent-master-3.2/result/LINK_invent/BTK/process_docking_weight1_custom_sum_contain_oxygen_bond_distance_aromatic_linkinvent_7_9_3/rearranged_h_0019.sdf

> <i_m_source_file_index>
60

> <r_mmod_Potential_Energy-OPLS-2005>
2270.41796875

> <r_mmod_Stretch_Energy-OPLS-2005>
928.454040527344

> <r_mmod_Bend_Energy-OPLS-2005>
647.606750488281

> <r_mmod_Torsional_Energy-OPLS-2005>
265.037506103516

> <r_mmod_Improper_Torsional_Energy-OPLS-2005>
10.5070247650146

> <r_mmod_Van_der_Waal_Energy-OPLS-2005>
134.255126953125

> <r_mmod_Electrostatic_Energy-OPLS-2005>
-369.675018310547

> <r_mmod_Solvation_Energy-OPLS-2005>
-208.952545166016

> <b_mmod_Minimization_Converged-OPLS-2005>
0

> <r_mmod_RMS_Derivative-OPLS-2005>
1.01162612438202

$$$$
60
                    3D
 Structure written by MMmdl.
157165  0  0  1  0            999 V2000
  -30.4790  -15.0485   20.3964 C   0  0  0  0  0  0
  -30.4566  -12.6521   19.5005 C   0  0  0  0  0  0
  -29.5329  -12.5265   18.2645 C   0  0  0  0  0  0
  -28.0709  -12.2886   18.6922 C   0  0  0  0  0  0
  -27.6270  -13.2456   19.8288 C   0  0  2  0  0  0
  -28.6702  -13.3130   20.9628 C   0  0  0  0  0  0
  -25.2468  -13.8195   20.5712 C   0  0  0  0  0  0
  -24.1778  -13.0430   20.9228 C   0  0  0  0  0  0
  -24.6387  -11.6920   20.8758 C   0  0  0  0  0  0
  -23.9054  -10.4304   21.0403 C   0  0  0  0  0  0
  -24.3612   -9.4214   21.9169 C   0  0  0  0  0  0
  -23.6288   -8.2245   22.0741 C   0  0  0  0  0  0
  -22.4266   -8.0284   21.3541 C   0  0  0  0  0  0
  -21.9903   -9.0256   20.4650 C   0  0  0  0  0  0
  -22.7228  -10.2137   20.3058 C   0  0  0  0  0  0
  -21.6858   -6.0733   22.5276 C   0  0  0  0  0  0
  -21.4018   -6.5629   23.8215 C   0  0  0  0  0  0
  -21.3667   -5.6778   24.9171 C   0  0  0  0  0  0
  -21.6041   -4.3040   24.7223 C   0  0  0  0  0  0
  -21.8818   -3.8136   23.4338 C   0  0  0  0  0  0
  -21.9193   -4.6954   22.3398 C   0  0  0  0  0  0
  -22.7801  -13.5218   21.1871 C   0  0  0  0  0  0
  -22.1656   -4.2148   21.0975 F   0  0  0  0  0  0
  -21.5636   -3.4520   25.7731 F   0  0  0  0  0  0
  -29.9296  -13.7597   20.3509 N   0  0  0  0  0  0
  -26.2885  -12.9427   20.3217 N   0  0  0  0  0  0
  -25.9319  -11.6562   20.5716 N   0  0  0  0  0  0
  -22.0432  -12.8255   22.0451 N   0  0  0  0  0  0
  -25.4092  -15.1926   20.4163 N   0  0  0  0  0  0
  -31.6980  -15.1311   20.2019 O   0  0  0  0  0  0
  -21.6635   -6.8872   21.4244 O   0  0  0  0  0  0
  -22.3493  -14.5509   20.6684 O   0  0  0  0  0  0
  -24.6496  -31.8364   23.1816 C   0  0  0  0  0  0
  -25.9239  -32.4656   23.8227 C   0  0  1  0  0  0
  -27.2183  -27.0697   20.1738 C   0  0  0  0  0  0
  -25.5970  -33.8464   24.2154 N   0  0  0  0  0  0
  -23.4562  -30.4534   21.5274 C   0  0  2  0  0  0
  -24.9067  -28.8583   20.1202 C   0  0  0  0  0  0
  -22.7589  -29.4511   22.4822 C   0  0  0  0  0  0
  -18.0301  -28.1401   22.8455 C   0  0  0  0  0  0
  -24.1492  -36.7237   23.2643 C   0  0  0  0  0  0
  -26.0163  -30.6904   21.3885 C   0  0  0  0  0  0
  -26.0870  -29.2922   20.7371 C   0  0  0  0  0  0
  -27.2463  -28.4175   20.7364 C   0  0  0  0  0  0
  -26.0081  -26.7413   19.5304 C   0  0  0  0  0  0
  -24.8816  -27.5976   19.5018 C   0  0  0  0  0  0
  -23.6880  -29.7721   20.1521 C   0  0  0  0  0  0
  -25.4133  -36.3006   24.0305 C   0  0  1  0  0  0
  -20.5917  -28.3739   23.1213 C   0  0  2  0  0  0
  -20.6791  -26.9431   22.5411 C   0  0  0  0  0  0
  -19.5778  -26.6377   21.5210 C   0  0  0  0  0  0
  -18.1951  -26.7938   22.1604 C   0  0  0  0  0  0
  -19.1560  -28.8888   23.2826 C   0  0  0  0  0  0
  -18.9480  -30.1479   23.8860 C   0  0  0  0  0  0
  -17.6480  -30.6597   24.0558 C   0  0  0  0  0  0
  -25.9092  -34.9387   23.5046 C   0  0  0  0  0  0
  -16.5368  -29.9091   23.6336 C   0  0  0  0  0  0
  -16.7288  -28.6512   23.0351 C   0  0  0  0  0  0
  -26.4538  -31.6538   25.0690 C   0  0  0  0  0  0
  -25.3710  -31.3772   26.1388 C   0  0  0  0  0  0
  -27.0394  -30.2913   24.6331 C   0  0  0  0  0  0
  -27.6047  -32.4319   25.7497 C   0  0  0  0  0  0
  -27.5579  -37.1778   24.8460 C   0  0  0  0  0  0
  -21.4276  -29.3048   22.3575 N   0  0  0  0  0  0
  -26.4291  -37.3729   23.9406 N   0  0  0  0  0  0
  -24.7275  -31.0161   22.0876 N   0  0  0  0  0  0
  -23.4191  -28.8069   23.3012 O   0  0  0  0  0  0
  -28.2815  -26.0780   20.1381 O   0  0  0  0  0  0
  -26.5681  -34.8893   22.4626 O   0  0  0  0  0  0
  -23.5604  -32.1266   23.7009 O   0  0  0  0  0  0
  -28.9892  -18.2139   21.8750 C   0  0  0  0  0  0
  -29.5579  -17.7198   20.6557 C   0  0  0  0  0  0
  -28.8374  -19.5986   21.8140 C   0  0  0  0  0  0
  -29.6917  -18.9171   19.8822 C   0  0  0  0  0  0
  -28.6028  -17.3559   23.0560 C   0  0  0  0  0  0
  -28.3212  -20.5137   22.8822 C   0  0  0  0  0  0
  -30.1993  -19.0399   18.4842 C   0  0  0  0  0  0
  -28.2739  -22.9900   20.0818 C   0  0  0  0  0  0
  -29.4291  -21.7338   20.3092 C   0  0  0  0  0  0
  -28.2038  -24.6030   20.7112 C   0  0  0  0  0  0
  -29.2686  -20.1401   20.5943 N   0  0  0  0  0  0
  -29.6018  -16.1901   20.3506 N   0  0  0  0  0  0
  -31.4818  -12.8480   19.1802 H   0  0  0  0  0  0
  -30.4896  -11.7145   20.0596 H   0  0  0  0  0  0
  -29.8730  -11.7125   17.6234 H   0  0  0  0  0  0
  -29.5953  -13.4366   17.6659 H   0  0  0  0  0  0
  -27.9961  -11.2563   19.0386 H   0  0  0  0  0  0
  -27.4058  -12.3686   17.8324 H   0  0  0  0  0  0
  -27.5755  -14.2333   19.3708 H   0  0  0  0  0  0
  -28.7862  -12.3443   21.4510 H   0  0  0  0  0  0
  -28.3532  -14.0185   21.7335 H   0  0  0  0  0  0
  -25.2752   -9.5702   22.4758 H   0  0  0  0  0  0
  -24.0002   -7.4632   22.7460 H   0  0  0  0  0  0
  -21.0831   -8.8770   19.8967 H   0  0  0  0  0  0
  -22.3659  -10.9672   19.6186 H   0  0  0  0  0  0
  -21.2006   -7.6130   23.9721 H   0  0  0  0  0  0
  -21.1496   -6.0500   25.9076 H   0  0  0  0  0  0
  -22.0591   -2.7594   23.2833 H   0  0  0  0  0  0
  -22.4016  -11.9963   22.4939 H   0  0  0  0  0  0
  -21.1046  -13.1324   22.2597 H   0  0  0  0  0  0
  -24.6345  -15.8354   20.5417 H   0  0  0  0  0  0
  -26.2472  -15.6486   20.0820 H   0  0  0  0  0  0
  -26.7299  -32.5235   23.0945 H   0  0  0  0  0  0
  -25.0084  -33.9559   25.0280 H   0  0  0  0  0  0
  -22.7622  -31.2813   21.3655 H   0  0  0  0  0  0
  -23.3758  -35.9558   23.3284 H   0  0  0  0  0  0
  -24.3569  -36.8900   22.2057 H   0  0  0  0  0  0
  -23.7244  -37.6425   23.6704 H   0  0  0  0  0  0
  -26.1796  -31.4383   20.6115 H   0  0  0  0  0  0
  -26.8834  -30.7429   22.0354 H   0  0  0  0  0  0
  -28.1548  -28.7523   21.2175 H   0  0  0  0  0  0
  -25.9245  -25.7759   19.0506 H   0  0  0  0  0  0
  -23.9804  -27.2587   19.0097 H   0  0  0  0  0  0
  -23.8339  -30.5407   19.3921 H   0  0  0  0  0  0
  -22.8004  -29.2193   19.8391 H   0  0  0  0  0  0
  -25.1327  -36.1813   25.0796 H   0  0  0  0  0  0
  -21.0008  -28.3350   24.1335 H   0  0  0  0  0  0
  -20.5673  -26.2360   23.3642 H   0  0  0  0  0  0
  -21.6665  -26.7422   22.1228 H   0  0  0  0  0  0
  -19.6948  -25.6276   21.1275 H   0  0  0  0  0  0
  -19.6742  -27.3156   20.6717 H   0  0  0  0  0  0
  -17.4234  -26.6671   21.3996 H   0  0  0  0  0  0
  -18.0347  -26.0090   22.9008 H   0  0  0  0  0  0
  -19.7963  -30.7297   24.2217 H   0  0  0  0  0  0
  -17.5040  -31.6269   24.5174 H   0  0  0  0  0  0
  -15.5373  -30.2992   23.7690 H   0  0  0  0  0  0
  -15.8679  -28.0833   22.7084 H   0  0  0  0  0  0
  -24.5867  -30.7150   25.7711 H   0  0  0  0  0  0
  -24.8942  -32.2977   26.4758 H   0  0  0  0  0  0
  -25.7978  -30.8964   27.0201 H   0  0  0  0  0  0
  -26.3014  -29.6642   24.1317 H   0  0  0  0  0  0
  -27.3934  -29.7214   25.4935 H   0  0  0  0  0  0
  -27.8959  -30.4105   23.9687 H   0  0  0  0  0  0
  -27.2604  -33.3603   26.2064 H   0  0  0  0  0  0
  -28.3873  -32.6919   25.0352 H   0  0  0  0  0  0
  -28.0711  -31.8467   26.5438 H   0  0  0  0  0  0
  -28.2588  -38.0082   24.7498 H   0  0  0  0  0  0
  -28.1085  -36.2613   24.6290 H   0  0  0  0  0  0
  -27.2298  -37.1411   25.8864 H   0  0  0  0  0  0
  -20.9507  -29.8732   21.6719 H   0  0  0  0  0  0
  -26.0144  -38.2789   24.1425 H   0  0  0  0  0  0
  -28.9204  -16.3220   22.9242 H   0  0  0  0  0  0
  -27.5205  -17.3595   23.1933 H   0  0  0  0  0  0
  -29.0737  -17.7304   23.9666 H   0  0  0  0  0  0
  -27.8118  -19.9617   23.6729 H   0  0  0  0  0  0
  -27.6048  -21.2302   22.4785 H   0  0  0  0  0  0
  -29.1399  -21.0704   23.3389 H   0  0  0  0  0  0
  -30.2639  -18.0627   18.0043 H   0  0  0  0  0  0
  -31.1932  -19.4884   18.4677 H   0  0  0  0  0  0
  -29.5391  -19.6607   17.8798 H   0  0  0  0  0  0
  -27.3471  -22.5395   20.4351 H   0  0  0  0  0  0
  -28.1005  -23.0698   19.0086 H   0  0  0  0  0  0
  -30.0452  -22.0891   21.1352 H   0  0  0  0  0  0
  -30.1074  -21.8089   19.4590 H   0  0  0  0  0  0
  -28.9492  -24.6116   21.5058 H   0  0  0  0  0  0
  -27.2668  -24.6182   21.2687 H   0  0  0  0  0  0
  -28.6650  -15.8208   20.3398 H   0  0  0  0  0  0
  1 25  1  0  0  0
  1 30  2  0  0  0
  1 82  1  0  0  0
  2  3  1  0  0  0
  2 25  1  0  0  0
  2 83  1  0  0  0
  2 84  1  0  0  0
  3  4  1  0  0  0
  3 85  1  0  0  0
  3 86  1  0  0  0
  4  5  1  0  0  0
  4 87  1  0  0  0
  4 88  1  0  0  0
  5  6  1  0  0  0
  5 26  1  0  0  0
  5 89  1  0  0  0
  6 25  1  0  0  0
  6 90  1  0  0  0
  6 91  1  0  0  0
  7  8  2  0  0  0
  7 26  1  0  0  0
  7 29  1  0  0  0
  8  9  1  0  0  0
  8 22  1  0  0  0
  9 10  1  0  0  0
  9 27  2  0  0  0
 10 11  2  0  0  0
 10 15  1  0  0  0
 11 12  1  0  0  0
 11 92  1  0  0  0
 12 13  2  0  0  0
 12 93  1  0  0  0
 13 14  1  0  0  0
 13 31  1  0  0  0
 14 15  2  0  0  0
 14 94  1  0  0  0
 15 95  1  0  0  0
 16 17  2  0  0  0
 16 21  1  0  0  0
 16 31  1  0  0  0
 17 18  1  0  0  0
 17 96  1  0  0  0
 18 19  2  0  0  0
 18 97  1  0  0  0
 19 20  1  0  0  0
 19 24  1  0  0  0
 20 21  2  0  0  0
 20 98  1  0  0  0
 21 23  1  0  0  0
 22 28  1  0  0  0
 22 32  2  0  0  0
 26 27  1  0  0  0
 28 99  1  0  0  0
 28100  1  0  0  0
 29101  1  0  0  0
 29102  1  0  0  0
 33 34  1  0  0  0
 33 66  1  0  0  0
 33 70  2  0  0  0
 34 36  1  0  0  0
 34 59  1  0  0  0
 34103  1  0  0  0
 35 44  2  0  0  0
 35 45  1  0  0  0
 35 68  1  0  0  0
 36 56  1  0  0  0
 36104  1  0  0  0
 37 39  1  0  0  0
 37 47  1  0  0  0
 37 66  1  0  0  0
 37105  1  0  0  0
 38 43  2  0  0  0
 38 46  1  0  0  0
 38 47  1  0  0  0
 39 64  1  0  0  0
 39 67  2  0  0  0
 40 52  1  0  0  0
 40 53  2  0  0  0
 40 58  1  0  0  0
 41106  1  0  0  0
 41107  1  0  0  0
 41108  1  0  0  0
 41 48  1  0  0  0
 42 43  1  0  0  0
 42 66  1  0  0  0
 42109  1  0  0  0
 42110  1  0  0  0
 43 44  1  0  0  0
 44111  1  0  0  0
 45 46  2  0  0  0
 45112  1  0  0  0
 46113  1  0  0  0
 47114  1  0  0  0
 47115  1  0  0  0
 48 56  1  0  0  0
 48 65  1  0  0  0
 48116  1  0  0  0
 49 50  1  0  0  0
 49 53  1  0  0  0
 49 64  1  0  0  0
 49117  1  0  0  0
 50 51  1  0  0  0
 50118  1  0  0  0
 50119  1  0  0  0
 51 52  1  0  0  0
 51120  1  0  0  0
 51121  1  0  0  0
 52122  1  0  0  0
 52123  1  0  0  0
 53 54  1  0  0  0
 54 55  2  0  0  0
 54124  1  0  0  0
 55 57  1  0  0  0
 55125  1  0  0  0
 56 69  2  0  0  0
 57 58  2  0  0  0
 57126  1  0  0  0
 58127  1  0  0  0
 59 60  1  0  0  0
 59 61  1  0  0  0
 59 62  1  0  0  0
 60128  1  0  0  0
 60129  1  0  0  0
 60130  1  0  0  0
 61131  1  0  0  0
 61132  1  0  0  0
 61133  1  0  0  0
 62134  1  0  0  0
 62135  1  0  0  0
 62136  1  0  0  0
 63 65  1  0  0  0
 63137  1  0  0  0
 63138  1  0  0  0
 63139  1  0  0  0
 64140  1  0  0  0
 65141  1  0  0  0
 68 80  1  0  0  0
 71 72  1  0  0  0
 71 73  2  0  0  0
 71 75  1  0  0  0
 72 74  2  0  0  0
 72 82  1  0  0  0
 73 76  1  0  0  0
 73 81  1  0  0  0
 74 77  1  0  0  0
 74 81  1  0  0  0
 75142  1  0  0  0
 75143  1  0  0  0
 75144  1  0  0  0
 76145  1  0  0  0
 76146  1  0  0  0
 76147  1  0  0  0
 77148  1  0  0  0
 77149  1  0  0  0
 77150  1  0  0  0
 78 79  1  0  0  0
 78 80  1  0  0  0
 78151  1  0  0  0
 78152  1  0  0  0
 79 81  1  0  0  0
 79153  1  0  0  0
 79154  1  0  0  0
 80155  1  0  0  0
 80156  1  0  0  0
 82157  1  0  0  0
M  ISO  4   1 100  68 101  80 101  82 100
M  END
> <chiral flag>
0

> <version>
0

> <s_m_source_file>
/data/baiqing/PycharmProjects/Reinvent-master-3.2/result/LINK_invent/BTK/process_docking_weight1_custom_sum_contain_oxygen_bond_distance_aromatic_linkinvent_7_9_3/rearranged_h_0019.sdf

> <i_m_source_file_index>
61

> <r_mmod_Potential_Energy-OPLS-2005>
739.335266113281

> <r_mmod_Stretch_Energy-OPLS-2005>
334.772583007812

> <r_mmod_Bend_Energy-OPLS-2005>
371.046325683594

> <r_mmod_Torsional_Energy-OPLS-2005>
299.033111572266

> <r_mmod_Improper_Torsional_Energy-OPLS-2005>
13.0732278823853

> <r_mmod_Van_der_Waal_Energy-OPLS-2005>
98.0794906616211

> <r_mmod_Electrostatic_Energy-OPLS-2005>
-424.738586425781

> <r_mmod_Solvation_Energy-OPLS-2005>
-213.034103393555

> <b_mmod_Minimization_Converged-OPLS-2005>
0

> <r_mmod_RMS_Derivative-OPLS-2005>
2.02272200584412

$$$$
61
                    3D
 Structure written by MMmdl.
165173  0  0  1  0            999 V2000
  -30.4527  -15.1811   20.4642 C   0  0  0  0  0  0
  -30.4404  -12.7585   19.5314 C   0  0  0  0  0  0
  -29.5320  -12.5970   18.2843 C   0  0  0  0  0  0
  -28.0704  -12.3345   18.6892 C   0  0  0  0  0  0
  -27.6203  -13.2664   19.8395 C   0  0  2  0  0  0
  -28.6529  -13.3344   20.9797 C   0  0  0  0  0  0
  -25.2409  -13.8241   20.5717 C   0  0  0  0  0  0
  -24.1753  -13.0442   20.9222 C   0  0  0  0  0  0
  -24.6395  -11.6929   20.8748 C   0  0  0  0  0  0
  -23.9093  -10.4295   21.0401 C   0  0  0  0  0  0
  -24.3642   -9.4207   21.9175 C   0  0  0  0  0  0
  -23.6318   -8.2239   22.0748 C   0  0  0  0  0  0
  -22.4292   -8.0283   21.3546 C   0  0  0  0  0  0
  -21.9935   -9.0249   20.4637 C   0  0  0  0  0  0
  -22.7267  -10.2127   20.3048 C   0  0  0  0  0  0
  -21.6859   -6.0747   22.5286 C   0  0  0  0  0  0
  -21.4014   -6.5647   23.8223 C   0  0  0  0  0  0
  -21.3664   -5.6795   24.9179 C   0  0  0  0  0  0
  -21.6052   -4.3060   24.7225 C   0  0  0  0  0  0
  -21.8821   -3.8154   23.4343 C   0  0  0  0  0  0
  -21.9190   -4.6971   22.3403 C   0  0  0  0  0  0
  -22.7773  -13.5191   21.1901 C   0  0  0  0  0  0
  -22.1664   -4.2165   21.0978 F   0  0  0  0  0  0
  -21.5623   -3.4541   25.7733 F   0  0  0  0  0  0
  -29.9009  -13.8680   20.4028 N   0  0  0  0  0  0
  -26.2840  -12.9495   20.3244 N   0  0  0  0  0  0
  -25.9328  -11.6607   20.5716 N   0  0  0  0  0  0
  -22.0450  -12.8161   22.0457 N   0  0  0  0  0  0
  -25.4073  -15.1970   20.4121 N   0  0  0  0  0  0
  -31.6195  -15.2270   20.0472 O   0  0  0  0  0  0
  -21.6646   -6.8885   21.4247 O   0  0  0  0  0  0
  -22.3431  -14.5489   20.6743 O   0  0  0  0  0  0
  -24.6579  -31.8268   23.1759 C   0  0  0  0  0  0
  -25.9279  -32.4607   23.8210 C   0  0  1  0  0  0
  -27.2134  -26.9712   20.1832 C   0  0  0  0  0  0
  -25.5961  -33.8420   24.2107 N   0  0  0  0  0  0
  -23.4706  -30.4399   21.5228 C   0  0  2  0  0  0
  -24.9228  -28.8343   20.1106 C   0  0  0  0  0  0
  -22.7638  -29.4461   22.4801 C   0  0  0  0  0  0
  -18.0314  -28.1415   22.8456 C   0  0  0  0  0  0
  -24.1502  -36.7228   23.2649 C   0  0  0  0  0  0
  -26.0364  -30.6456   21.4002 C   0  0  0  0  0  0
  -26.1039  -29.2406   20.7442 C   0  0  0  0  0  0
  -27.2448  -28.3273   20.7600 C   0  0  0  0  0  0
  -26.0077  -26.7045   19.4979 C   0  0  0  0  0  0
  -24.8970  -27.5853   19.4681 C   0  0  0  0  0  0
  -23.7083  -29.7576   20.1469 C   0  0  0  0  0  0
  -25.4135  -36.2977   24.0305 C   0  0  1  0  0  0
  -20.5930  -28.3759   23.1192 C   0  0  2  0  0  0
  -20.6806  -26.9445   22.5401 C   0  0  0  0  0  0
  -19.5786  -26.6389   21.5210 C   0  0  0  0  0  0
  -18.1958  -26.7948   22.1605 C   0  0  0  0  0  0
  -19.1570  -28.8901   23.2813 C   0  0  0  0  0  0
  -18.9490  -30.1493   23.8857 C   0  0  0  0  0  0
  -17.6484  -30.6609   24.0545 C   0  0  0  0  0  0
  -25.9094  -34.9353   23.5031 C   0  0  0  0  0  0
  -16.5374  -29.9100   23.6336 C   0  0  0  0  0  0
  -16.7294  -28.6515   23.0360 C   0  0  0  0  0  0
  -26.4554  -31.6541   25.0715 C   0  0  0  0  0  0
  -25.3707  -31.3752   26.1387 C   0  0  0  0  0  0
  -27.0457  -30.2912   24.6417 C   0  0  0  0  0  0
  -27.6063  -32.4342   25.7510 C   0  0  0  0  0  0
  -27.5580  -37.1767   24.8459 C   0  0  0  0  0  0
  -21.4311  -29.3052   22.3551 N   0  0  0  0  0  0
  -26.4286  -37.3706   23.9404 N   0  0  0  0  0  0
  -24.7425  -30.9968   22.0875 N   0  0  0  0  0  0
  -23.4191  -28.8025   23.3029 O   0  0  0  0  0  0
  -28.2267  -25.8968   20.2786 O   0  0  0  0  0  0
  -26.5700  -34.8877   22.4623 O   0  0  0  0  0  0
  -23.5665  -32.1227   23.6884 O   0  0  0  0  0  0
  -30.3125  -20.4362   20.2404 C   0  0  0  0  0  0
  -28.3009  -18.6849   20.6837 C   0  0  0  0  0  0
  -29.0691  -21.1792   20.4063 C   0  0  0  0  0  0
  -30.5613  -18.9737   20.3176 C   0  0  0  0  0  0
  -28.0575  -20.1526   20.6105 C   0  0  0  0  0  0
  -29.5613  -17.9438   20.5794 C   0  0  0  0  0  0
  -26.6298  -20.6202   20.8171 C   0  0  0  0  0  0
  -32.3926  -18.3390   18.6919 C   0  0  0  0  0  0
  -30.5354  -17.1076   23.2683 C   0  0  0  0  0  0
  -28.1188  -16.4313   22.9460 C   0  0  0  0  0  0
  -29.0162  -22.9130   20.5691 C   0  0  0  0  0  0
  -32.0112  -18.5496   20.1615 C   0  0  0  0  0  0
  -28.0147  -24.2901   20.0752 C   0  0  0  0  0  0
  -29.5677  -16.2175   22.4599 C   0  0  0  0  0  0
  -29.7556  -16.3868   20.9848 N   0  0  0  0  0  0
  -31.4611  -12.9588   19.2044 H   0  0  0  0  0  0
  -30.5003  -11.8221   20.0873 H   0  0  0  0  0  0
  -29.8971  -11.7887   17.6487 H   0  0  0  0  0  0
  -29.5837  -13.5069   17.6848 H   0  0  0  0  0  0
  -27.9928  -11.2922   19.0016 H   0  0  0  0  0  0
  -27.4106  -12.4494   17.8290 H   0  0  0  0  0  0
  -27.5658  -14.2647   19.4029 H   0  0  0  0  0  0
  -28.8015  -12.3518   21.4303 H   0  0  0  0  0  0
  -28.2740  -13.9653   21.7762 H   0  0  0  0  0  0
  -25.2788   -9.5680   22.4749 H   0  0  0  0  0  0
  -24.0041   -7.4620   22.7458 H   0  0  0  0  0  0
  -21.0879   -8.8752   19.8931 H   0  0  0  0  0  0
  -22.3730  -10.9655   19.6154 H   0  0  0  0  0  0
  -21.2015   -7.6156   23.9737 H   0  0  0  0  0  0
  -21.1490   -6.0519   25.9091 H   0  0  0  0  0  0
  -22.0599   -2.7618   23.2834 H   0  0  0  0  0  0
  -22.4106  -11.9840   22.4849 H   0  0  0  0  0  0
  -21.1052  -13.1131   22.2671 H   0  0  0  0  0  0
  -24.6443  -15.8539   20.5296 H   0  0  0  0  0  0
  -26.2631  -15.6343   20.0963 H   0  0  0  0  0  0
  -26.7344  -32.5144   23.0928 H   0  0  0  0  0  0
  -25.0052  -33.9516   25.0220 H   0  0  0  0  0  0
  -22.7824  -31.2706   21.3541 H   0  0  0  0  0  0
  -23.3773  -35.9554   23.3274 H   0  0  0  0  0  0
  -24.3580  -36.8911   22.2069 H   0  0  0  0  0  0
  -23.7256  -37.6408   23.6736 H   0  0  0  0  0  0
  -26.2066  -31.3875   20.6189 H   0  0  0  0  0  0
  -26.9016  -30.7027   22.0488 H   0  0  0  0  0  0
  -28.1368  -28.6287   21.2921 H   0  0  0  0  0  0
  -25.8915  -25.7479   19.0088 H   0  0  0  0  0  0
  -23.9992  -27.2693   18.9546 H   0  0  0  0  0  0
  -23.8613  -30.5267   19.3889 H   0  0  0  0  0  0
  -22.8187  -29.2102   19.8312 H   0  0  0  0  0  0
  -25.1337  -36.1793   25.0800 H   0  0  0  0  0  0
  -20.9996  -28.3381   24.1322 H   0  0  0  0  0  0
  -20.5703  -26.2377   23.3640 H   0  0  0  0  0  0
  -21.6673  -26.7456   22.1193 H   0  0  0  0  0  0
  -19.6957  -25.6291   21.1266 H   0  0  0  0  0  0
  -19.6730  -27.3174   20.6719 H   0  0  0  0  0  0
  -17.4227  -26.6673   21.4011 H   0  0  0  0  0  0
  -18.0359  -26.0116   22.9022 H   0  0  0  0  0  0
  -19.7972  -30.7305   24.2221 H   0  0  0  0  0  0
  -17.5048  -31.6280   24.5172 H   0  0  0  0  0  0
  -15.5377  -30.2984   23.7722 H   0  0  0  0  0  0
  -15.8684  -28.0827   22.7114 H   0  0  0  0  0  0
  -24.5910  -30.7075   25.7704 H   0  0  0  0  0  0
  -24.8865  -32.2924   26.4746 H   0  0  0  0  0  0
  -25.7963  -30.8970   27.0214 H   0  0  0  0  0  0
  -26.3113  -29.6573   24.1419 H   0  0  0  0  0  0
  -27.4003  -29.7283   25.5069 H   0  0  0  0  0  0
  -27.9054  -30.4118   23.9816 H   0  0  0  0  0  0
  -27.2658  -33.3692   26.1984 H   0  0  0  0  0  0
  -28.3935  -32.6819   25.0373 H   0  0  0  0  0  0
  -28.0668  -31.8520   26.5507 H   0  0  0  0  0  0
  -28.2563  -38.0099   24.7524 H   0  0  0  0  0  0
  -28.1113  -36.2614   24.6276 H   0  0  0  0  0  0
  -27.2281  -37.1396   25.8858 H   0  0  0  0  0  0
  -20.9583  -29.8720   21.6652 H   0  0  0  0  0  0
  -26.0139  -38.2771   24.1408 H   0  0  0  0  0  0
  -31.1897  -21.0494   20.0885 H   0  0  0  0  0  0
  -27.4282  -18.0792   20.8874 H   0  0  0  0  0  0
  -26.4054  -20.7090   21.8803 H   0  0  0  0  0  0
  -25.9227  -19.9147   20.3781 H   0  0  0  0  0  0
  -26.4626  -21.5881   20.3471 H   0  0  0  0  0  0
  -33.4400  -18.0500   18.6011 H   0  0  0  0  0  0
  -32.2512  -19.2520   18.1136 H   0  0  0  0  0  0
  -31.7863  -17.5561   18.2346 H   0  0  0  0  0  0
  -30.5050  -16.8538   24.3292 H   0  0  0  0  0  0
  -30.2899  -18.1672   23.1859 H   0  0  0  0  0  0
  -31.5666  -16.9780   22.9399 H   0  0  0  0  0  0
  -27.9880  -16.0061   23.9421 H   0  0  0  0  0  0
  -27.3796  -15.9619   22.2981 H   0  0  0  0  0  0
  -27.8650  -17.4872   23.0318 H   0  0  0  0  0  0
  -30.0083  -23.1993   20.2190 H   0  0  0  0  0  0
  -29.0838  -23.0292   21.6503 H   0  0  0  0  0  0
  -32.2015  -17.6453   20.7357 H   0  0  0  0  0  0
  -32.6582  -19.3100   20.6023 H   0  0  0  0  0  0
  -27.8954  -24.1779   18.9976 H   0  0  0  0  0  0
  -27.0237  -24.0902   20.4830 H   0  0  0  0  0  0
  -29.8235  -15.2021   22.7741 H   0  0  0  0  0  0
  1 25  1  0  0  0
  1 30  2  0  0  0
  1 85  1  0  0  0
  2  3  1  0  0  0
  2 25  1  0  0  0
  2 86  1  0  0  0
  2 87  1  0  0  0
  3  4  1  0  0  0
  3 88  1  0  0  0
  3 89  1  0  0  0
  4  5  1  0  0  0
  4 90  1  0  0  0
  4 91  1  0  0  0
  5  6  1  0  0  0
  5 26  1  0  0  0
  5 92  1  0  0  0
  6 25  1  0  0  0
  6 93  1  0  0  0
  6 94  1  0  0  0
  7  8  2  0  0  0
  7 26  1  0  0  0
  7 29  1  0  0  0
  8  9  1  0  0  0
  8 22  1  0  0  0
  9 10  1  0  0  0
  9 27  2  0  0  0
 10 11  2  0  0  0
 10 15  1  0  0  0
 11 12  1  0  0  0
 11 95  1  0  0  0
 12 13  2  0  0  0
 12 96  1  0  0  0
 13 14  1  0  0  0
 13 31  1  0  0  0
 14 15  2  0  0  0
 14 97  1  0  0  0
 15 98  1  0  0  0
 16 17  2  0  0  0
 16 21  1  0  0  0
 16 31  1  0  0  0
 17 18  1  0  0  0
 17 99  1  0  0  0
 18 19  2  0  0  0
 18100  1  0  0  0
 19 20  1  0  0  0
 19 24  1  0  0  0
 20 21  2  0  0  0
 20101  1  0  0  0
 21 23  1  0  0  0
 22 28  1  0  0  0
 22 32  2  0  0  0
 26 27  1  0  0  0
 28102  1  0  0  0
 28103  1  0  0  0
 29104  1  0  0  0
 29105  1  0  0  0
 33 34  1  0  0  0
 33 66  1  0  0  0
 33 70  2  0  0  0
 34 36  1  0  0  0
 34 59  1  0  0  0
 34106  1  0  0  0
 35 44  2  0  0  0
 35 45  1  0  0  0
 35 68  1  0  0  0
 36 56  1  0  0  0
 36107  1  0  0  0
 37 39  1  0  0  0
 37 47  1  0  0  0
 37 66  1  0  0  0
 37108  1  0  0  0
 38 43  2  0  0  0
 38 46  1  0  0  0
 38 47  1  0  0  0
 39 64  1  0  0  0
 39 67  2  0  0  0
 40 52  1  0  0  0
 40 53  2  0  0  0
 40 58  1  0  0  0
 41109  1  0  0  0
 41110  1  0  0  0
 41111  1  0  0  0
 41 48  1  0  0  0
 42 43  1  0  0  0
 42 66  1  0  0  0
 42112  1  0  0  0
 42113  1  0  0  0
 43 44  1  0  0  0
 44114  1  0  0  0
 45 46  2  0  0  0
 45115  1  0  0  0
 46116  1  0  0  0
 47117  1  0  0  0
 47118  1  0  0  0
 48 56  1  0  0  0
 48 65  1  0  0  0
 48119  1  0  0  0
 49 50  1  0  0  0
 49 53  1  0  0  0
 49 64  1  0  0  0
 49120  1  0  0  0
 50 51  1  0  0  0
 50121  1  0  0  0
 50122  1  0  0  0
 51 52  1  0  0  0
 51123  1  0  0  0
 51124  1  0  0  0
 52125  1  0  0  0
 52126  1  0  0  0
 53 54  1  0  0  0
 54 55  2  0  0  0
 54127  1  0  0  0
 55 57  1  0  0  0
 55128  1  0  0  0
 56 69  2  0  0  0
 57 58  2  0  0  0
 57129  1  0  0  0
 58130  1  0  0  0
 59 60  1  0  0  0
 59 61  1  0  0  0
 59 62  1  0  0  0
 60131  1  0  0  0
 60132  1  0  0  0
 60133  1  0  0  0
 61134  1  0  0  0
 61135  1  0  0  0
 61136  1  0  0  0
 62137  1  0  0  0
 62138  1  0  0  0
 62139  1  0  0  0
 63 65  1  0  0  0
 63140  1  0  0  0
 63141  1  0  0  0
 63142  1  0  0  0
 64143  1  0  0  0
 65144  1  0  0  0
 68 83  1  0  0  0
 71 73  2  0  0  0
 71 74  1  0  0  0
 71145  1  0  0  0
 72 75  2  0  0  0
 72 76  1  0  0  0
 72146  1  0  0  0
 73 75  1  0  0  0
 73 81  1  0  0  0
 74 76  2  0  0  0
 74 82  1  0  0  0
 75 77  1  0  0  0
 76 85  1  0  0  0
 77147  1  0  0  0
 77148  1  0  0  0
 77149  1  0  0  0
 78 82  1  0  0  0
 78150  1  0  0  0
 78151  1  0  0  0
 78152  1  0  0  0
 79153  1  0  0  0
 79154  1  0  0  0
 79155  1  0  0  0
 79 84  1  0  0  0
 80 84  1  0  0  0
 80156  1  0  0  0
 80157  1  0  0  0
 80158  1  0  0  0
 81 83  1  0  0  0
 81159  1  0  0  0
 81160  1  0  0  0
 82161  1  0  0  0
 82162  1  0  0  0
 83163  1  0  0  0
 83164  1  0  0  0
 84 85  1  0  0  0
 84165  1  0  0  0
M  ISO  4   1 100  68 101  83 101  85 100
M  END
> <chiral flag>
0

> <version>
0

> <s_m_source_file>
/data/baiqing/PycharmProjects/Reinvent-master-3.2/result/LINK_invent/BTK/process_docking_weight1_custom_sum_contain_oxygen_bond_distance_aromatic_linkinvent_7_9_3/rearranged_h_0019.sdf

> <i_m_source_file_index>
62

> <r_mmod_Potential_Energy-OPLS-2005>
1301.98461914062

> <r_mmod_Stretch_Energy-OPLS-2005>
485.698852539062

> <r_mmod_Bend_Energy-OPLS-2005>
430.425933837891

> <r_mmod_Torsional_Energy-OPLS-2005>
314.815093994141

> <r_mmod_Improper_Torsional_Energy-OPLS-2005>
6.47416257858276

> <r_mmod_Van_der_Waal_Energy-OPLS-2005>
129.164276123047

> <r_mmod_Electrostatic_Energy-OPLS-2005>
-260.506072998047

> <r_mmod_Solvation_Energy-OPLS-2005>
-180.096206665039

> <b_mmod_Minimization_Converged-OPLS-2005>
0

> <r_mmod_RMS_Derivative-OPLS-2005>
2.24147462844849

$$$$
62
                    3D
 Structure written by MMmdl.
157165  0  0  1  0            999 V2000
  -30.3848  -15.4144   20.3099 C   0  0  0  0  0  0
  -30.4383  -12.9128   19.5033 C   0  0  0  0  0  0
  -29.5393  -12.5655   18.2887 C   0  0  0  0  0  0
  -28.0942  -12.2683   18.7339 C   0  0  0  0  0  0
  -27.5959  -13.2574   19.8167 C   0  0  2  0  0  0
  -28.6410  -13.5235   20.9211 C   0  0  0  0  0  0
  -25.2379  -13.8157   20.5848 C   0  0  0  0  0  0
  -24.1701  -13.0374   20.9304 C   0  0  0  0  0  0
  -24.6338  -11.6862   20.8807 C   0  0  0  0  0  0
  -23.9041  -10.4238   21.0424 C   0  0  0  0  0  0
  -24.3591   -9.4153   21.9188 C   0  0  0  0  0  0
  -23.6264   -8.2192   22.0748 C   0  0  0  0  0  0
  -22.4242   -8.0243   21.3544 C   0  0  0  0  0  0
  -21.9888   -9.0220   20.4644 C   0  0  0  0  0  0
  -22.7225  -10.2094   20.3058 C   0  0  0  0  0  0
  -21.6832   -6.0706   22.5274 C   0  0  0  0  0  0
  -21.4016   -6.5613   23.8214 C   0  0  0  0  0  0
  -21.3661   -5.6778   24.9176 C   0  0  0  0  0  0
  -21.6040   -4.3037   24.7237 C   0  0  0  0  0  0
  -21.8813   -3.8118   23.4357 C   0  0  0  0  0  0
  -21.9189   -4.6935   22.3407 C   0  0  0  0  0  0
  -22.7723  -13.5162   21.1924 C   0  0  0  0  0  0
  -22.1648   -4.2119   21.0990 F   0  0  0  0  0  0
  -21.5643   -3.4533   25.7756 F   0  0  0  0  0  0
  -29.8334  -14.0832   20.2477 N   0  0  0  0  0  0
  -26.2763  -12.9367   20.3327 N   0  0  0  0  0  0
  -25.9271  -11.6490   20.5784 N   0  0  0  0  0  0
  -22.0359  -12.8165   22.0466 N   0  0  0  0  0  0
  -25.4076  -15.1899   20.4328 N   0  0  0  0  0  0
  -31.6275  -15.3643   20.3074 O   0  0  0  0  0  0
  -21.6611   -6.8836   21.4231 O   0  0  0  0  0  0
  -22.3428  -14.5472   20.6760 O   0  0  0  0  0  0
  -24.6683  -31.8163   23.1650 C   0  0  0  0  0  0
  -25.9345  -32.4546   23.8120 C   0  0  1  0  0  0
  -27.2210  -26.8636   20.1875 C   0  0  0  0  0  0
  -25.5998  -33.8361   24.2041 N   0  0  0  0  0  0
  -23.4841  -30.4262   21.5161 C   0  0  2  0  0  0
  -24.9377  -28.7963   20.1190 C   0  0  0  0  0  0
  -22.7687  -29.4398   22.4774 C   0  0  0  0  0  0
  -18.0344  -28.1400   22.8484 C   0  0  0  0  0  0
  -24.1496  -36.7181   23.2643 C   0  0  0  0  0  0
  -26.0561  -30.6025   21.4037 C   0  0  0  0  0  0
  -26.1254  -29.1833   20.7517 C   0  0  0  0  0  0
  -27.2603  -28.2434   20.7527 C   0  0  0  0  0  0
  -25.9974  -26.6407   19.5129 C   0  0  0  0  0  0
  -24.9022  -27.5468   19.4796 C   0  0  0  0  0  0
  -23.7280  -29.7343   20.1462 C   0  0  0  0  0  0
  -25.4139  -36.2935   24.0292 C   0  0  1  0  0  0
  -20.5966  -28.3749   23.1187 C   0  0  2  0  0  0
  -20.6807  -26.9427   22.5405 C   0  0  0  0  0  0
  -19.5779  -26.6375   21.5216 C   0  0  0  0  0  0
  -18.1970  -26.7941   22.1635 C   0  0  0  0  0  0
  -19.1600  -28.8904   23.2821 C   0  0  0  0  0  0
  -18.9501  -30.1503   23.8843 C   0  0  0  0  0  0
  -17.6483  -30.6589   24.0563 C   0  0  0  0  0  0
  -25.9106  -34.9322   23.4991 C   0  0  0  0  0  0
  -16.5383  -29.9069   23.6346 C   0  0  0  0  0  0
  -16.7320  -28.6493   23.0360 C   0  0  0  0  0  0
  -26.4584  -31.6508   25.0667 C   0  0  0  0  0  0
  -25.3693  -31.3773   26.1312 C   0  0  0  0  0  0
  -27.0482  -30.2864   24.6431 C   0  0  0  0  0  0
  -27.6063  -32.4329   25.7475 C   0  0  0  0  0  0
  -27.5577  -37.1737   24.8459 C   0  0  0  0  0  0
  -21.4355  -29.3027   22.3513 N   0  0  0  0  0  0
  -26.4270  -37.3687   23.9418 N   0  0  0  0  0  0
  -24.7575  -30.9753   22.0827 N   0  0  0  0  0  0
  -23.4205  -28.7993   23.3050 O   0  0  0  0  0  0
  -28.2344  -25.7461   20.2013 O   0  0  0  0  0  0
  -26.5708  -34.8873   22.4582 O   0  0  0  0  0  0
  -23.5740  -32.1178   23.6708 O   0  0  0  0  0  0
  -29.6552  -18.9495   21.5910 C   0  0  0  0  0  0
  -29.5382  -18.3315   20.2940 C   0  0  0  0  0  0
  -29.4021  -20.3425   21.6008 C   0  0  0  0  0  0
  -29.1907  -19.5820   19.5666 C   0  0  0  0  0  0
  -29.4667  -21.2678   22.7732 C   0  0  0  0  0  0
  -28.9214  -19.8008   18.1066 C   0  0  0  0  0  0
  -30.1627  -16.7393   17.4645 C   0  0  0  0  0  0
  -28.9879  -22.5621   19.9055 C   0  0  0  0  0  0
  -29.1165  -16.4878   18.5698 C   0  0  0  0  0  0
  -28.0390  -24.0773   20.3636 C   0  0  0  0  0  0
  -29.0996  -20.8897   20.3358 N   0  0  0  0  0  0
  -29.6606  -16.7024   19.9192 N   0  0  0  0  0  0
  -31.4376  -13.1560   19.1423 H   0  0  0  0  0  0
  -30.5675  -12.0491   20.1580 H   0  0  0  0  0  0
  -29.9480  -11.7081   17.7532 H   0  0  0  0  0  0
  -29.5452  -13.3916   17.5762 H   0  0  0  0  0  0
  -28.0811  -11.2566   19.1390 H   0  0  0  0  0  0
  -27.4213  -12.2629   17.8763 H   0  0  0  0  0  0
  -27.4436  -14.1848   19.2804 H   0  0  0  0  0  0
  -28.8641  -12.6140   21.4820 H   0  0  0  0  0  0
  -28.2546  -14.2479   21.6403 H   0  0  0  0  0  0
  -25.2732   -9.5632   22.4758 H   0  0  0  0  0  0
  -23.9981   -7.4573   22.7452 H   0  0  0  0  0  0
  -21.0825   -8.8737   19.8934 H   0  0  0  0  0  0
  -22.3692  -10.9632   19.6159 H   0  0  0  0  0  0
  -21.2009   -7.6124   23.9710 H   0  0  0  0  0  0
  -21.1496   -6.0511   25.9087 H   0  0  0  0  0  0
  -22.0595   -2.7581   23.2872 H   0  0  0  0  0  0
  -22.4010  -11.9877   22.4914 H   0  0  0  0  0  0
  -21.0953  -13.1159   22.2644 H   0  0  0  0  0  0
  -24.6497  -15.8509   20.5665 H   0  0  0  0  0  0
  -26.2740  -15.6310   20.1509 H   0  0  0  0  0  0
  -26.7404  -32.5079   23.0811 H   0  0  0  0  0  0
  -25.0102  -33.9423   25.0167 H   0  0  0  0  0  0
  -22.7987  -31.2586   21.3393 H   0  0  0  0  0  0
  -23.3776  -35.9489   23.3241 H   0  0  0  0  0  0
  -24.3575  -36.8893   22.2070 H   0  0  0  0  0  0
  -23.7231  -37.6340   23.6742 H   0  0  0  0  0  0
  -26.2413  -31.3379   20.6195 H   0  0  0  0  0  0
  -26.9117  -30.6641   22.0633 H   0  0  0  0  0  0
  -28.1665  -28.5452   21.2601 H   0  0  0  0  0  0
  -25.8604  -25.6938   19.0120 H   0  0  0  0  0  0
  -24.0038  -27.2473   18.9570 H   0  0  0  0  0  0
  -23.8907  -30.4957   19.3830 H   0  0  0  0  0  0
  -22.8366  -29.1917   19.8297 H   0  0  0  0  0  0
  -25.1337  -36.1706   25.0778 H   0  0  0  0  0  0
  -21.0078  -28.3357   24.1301 H   0  0  0  0  0  0
  -20.5689  -26.2358   23.3637 H   0  0  0  0  0  0
  -21.6666  -26.7392   22.1206 H   0  0  0  0  0  0
  -19.6914  -25.6271   21.1275 H   0  0  0  0  0  0
  -19.6708  -27.3156   20.6718 H   0  0  0  0  0  0
  -17.4233  -26.6716   21.4036 H   0  0  0  0  0  0
  -18.0358  -26.0076   22.9026 H   0  0  0  0  0  0
  -19.7968  -30.7360   24.2161 H   0  0  0  0  0  0
  -17.5024  -31.6266   24.5174 H   0  0  0  0  0  0
  -15.5378  -30.2938   23.7690 H   0  0  0  0  0  0
  -15.8738  -28.0788   22.7081 H   0  0  0  0  0  0
  -24.5904  -30.7093   25.7608 H   0  0  0  0  0  0
  -24.8860  -32.2978   26.4596 H   0  0  0  0  0  0
  -25.7922  -30.9034   27.0180 H   0  0  0  0  0  0
  -26.3151  -29.6522   24.1431 H   0  0  0  0  0  0
  -27.3980  -29.7251   25.5104 H   0  0  0  0  0  0
  -27.9110  -30.4019   23.9866 H   0  0  0  0  0  0
  -27.2625  -33.3685   26.1899 H   0  0  0  0  0  0
  -28.3949  -32.6806   25.0356 H   0  0  0  0  0  0
  -28.0635  -31.8555   26.5519 H   0  0  0  0  0  0
  -28.2537  -38.0091   24.7553 H   0  0  0  0  0  0
  -28.1136  -36.2616   24.6228 H   0  0  0  0  0  0
  -27.2293  -37.1295   25.8858 H   0  0  0  0  0  0
  -20.9610  -29.8700   21.6630 H   0  0  0  0  0  0
  -26.0109  -38.2729   24.1467 H   0  0  0  0  0  0
  -29.9046  -18.4068   22.4928 H   0  0  0  0  0  0
  -30.4505  -21.7323   22.8461 H   0  0  0  0  0  0
  -29.2755  -20.7333   23.7030 H   0  0  0  0  0  0
  -28.7237  -22.0629   22.7016 H   0  0  0  0  0  0
  -29.7124  -20.3988   17.6551 H   0  0  0  0  0  0
  -27.9783  -20.3300   17.9688 H   0  0  0  0  0  0
  -28.8358  -18.8971   17.5222 H   0  0  0  0  0  0
  -30.8327  -15.8873   17.3500 H   0  0  0  0  0  0
  -30.7804  -17.6132   17.6723 H   0  0  0  0  0  0
  -29.6738  -16.8986   16.5012 H   0  0  0  0  0  0
  -30.0115  -22.8967   20.0728 H   0  0  0  0  0  0
  -28.9169  -22.5455   18.8193 H   0  0  0  0  0  0
  -28.7333  -15.4894   18.4072 H   0  0  0  0  0  0
  -28.2300  -17.1076   18.4529 H   0  0  0  0  0  0
  -27.8995  -23.9795   21.4395 H   0  0  0  0  0  0
  -27.0412  -23.8988   19.9633 H   0  0  0  0  0  0
  1 25  1  0  0  0
  1 30  2  0  0  0
  1 82  1  0  0  0
  2  3  1  0  0  0
  2 25  1  0  0  0
  2 83  1  0  0  0
  2 84  1  0  0  0
  3  4  1  0  0  0
  3 85  1  0  0  0
  3 86  1  0  0  0
  4  5  1  0  0  0
  4 87  1  0  0  0
  4 88  1  0  0  0
  5  6  1  0  0  0
  5 26  1  0  0  0
  5 89  1  0  0  0
  6 25  1  0  0  0
  6 90  1  0  0  0
  6 91  1  0  0  0
  7  8  2  0  0  0
  7 26  1  0  0  0
  7 29  1  0  0  0
  8  9  1  0  0  0
  8 22  1  0  0  0
  9 10  1  0  0  0
  9 27  2  0  0  0
 10 11  2  0  0  0
 10 15  1  0  0  0
 11 12  1  0  0  0
 11 92  1  0  0  0
 12 13  2  0  0  0
 12 93  1  0  0  0
 13 14  1  0  0  0
 13 31  1  0  0  0
 14 15  2  0  0  0
 14 94  1  0  0  0
 15 95  1  0  0  0
 16 17  2  0  0  0
 16 21  1  0  0  0
 16 31  1  0  0  0
 17 18  1  0  0  0
 17 96  1  0  0  0
 18 19  2  0  0  0
 18 97  1  0  0  0
 19 20  1  0  0  0
 19 24  1  0  0  0
 20 21  2  0  0  0
 20 98  1  0  0  0
 21 23  1  0  0  0
 22 28  1  0  0  0
 22 32  2  0  0  0
 26 27  1  0  0  0
 28 99  1  0  0  0
 28100  1  0  0  0
 29101  1  0  0  0
 29102  1  0  0  0
 33 34  1  0  0  0
 33 66  1  0  0  0
 33 70  2  0  0  0
 34 36  1  0  0  0
 34 59  1  0  0  0
 34103  1  0  0  0
 35 44  2  0  0  0
 35 45  1  0  0  0
 35 68  1  0  0  0
 36 56  1  0  0  0
 36104  1  0  0  0
 37 39  1  0  0  0
 37 47  1  0  0  0
 37 66  1  0  0  0
 37105  1  0  0  0
 38 43  2  0  0  0
 38 46  1  0  0  0
 38 47  1  0  0  0
 39 64  1  0  0  0
 39 67  2  0  0  0
 40 52  1  0  0  0
 40 53  2  0  0  0
 40 58  1  0  0  0
 41106  1  0  0  0
 41107  1  0  0  0
 41108  1  0  0  0
 41 48  1  0  0  0
 42 43  1  0  0  0
 42 66  1  0  0  0
 42109  1  0  0  0
 42110  1  0  0  0
 43 44  1  0  0  0
 44111  1  0  0  0
 45 46  2  0  0  0
 45112  1  0  0  0
 46113  1  0  0  0
 47114  1  0  0  0
 47115  1  0  0  0
 48 56  1  0  0  0
 48 65  1  0  0  0
 48116  1  0  0  0
 49 50  1  0  0  0
 49 53  1  0  0  0
 49 64  1  0  0  0
 49117  1  0  0  0
 50 51  1  0  0  0
 50118  1  0  0  0
 50119  1  0  0  0
 51 52  1  0  0  0
 51120  1  0  0  0
 51121  1  0  0  0
 52122  1  0  0  0
 52123  1  0  0  0
 53 54  1  0  0  0
 54 55  2  0  0  0
 54124  1  0  0  0
 55 57  1  0  0  0
 55125  1  0  0  0
 56 69  2  0  0  0
 57 58  2  0  0  0
 57126  1  0  0  0
 58127  1  0  0  0
 59 60  1  0  0  0
 59 61  1  0  0  0
 59 62  1  0  0  0
 60128  1  0  0  0
 60129  1  0  0  0
 60130  1  0  0  0
 61131  1  0  0  0
 61132  1  0  0  0
 61133  1  0  0  0
 62134  1  0  0  0
 62135  1  0  0  0
 62136  1  0  0  0
 63 65  1  0  0  0
 63137  1  0  0  0
 63138  1  0  0  0
 63139  1  0  0  0
 64140  1  0  0  0
 65141  1  0  0  0
 68 80  1  0  0  0
 71 72  1  0  0  0
 71 73  2  0  0  0
 71142  1  0  0  0
 72 74  2  0  0  0
 72 82  1  0  0  0
 73 75  1  0  0  0
 73 81  1  0  0  0
 74 76  1  0  0  0
 74 81  1  0  0  0
 75143  1  0  0  0
 75144  1  0  0  0
 75145  1  0  0  0
 76146  1  0  0  0
 76147  1  0  0  0
 76148  1  0  0  0
 77 79  1  0  0  0
 77149  1  0  0  0
 77150  1  0  0  0
 77151  1  0  0  0
 78 80  1  0  0  0
 78 81  1  0  0  0
 78152  1  0  0  0
 78153  1  0  0  0
 79 82  1  0  0  0
 79154  1  0  0  0
 79155  1  0  0  0
 80156  1  0  0  0
 80157  1  0  0  0
M  ISO  4   1 100  68 101  80 101  82 100
M  END
> <chiral flag>
0

> <version>
0

> <s_m_source_file>
/data/baiqing/PycharmProjects/Reinvent-master-3.2/result/LINK_invent/BTK/process_docking_weight1_custom_sum_contain_oxygen_bond_distance_aromatic_linkinvent_7_9_3/rearranged_h_0019.sdf

> <i_m_source_file_index>
63

> <r_mmod_Potential_Energy-OPLS-2005>
1830.63122558594

> <r_mmod_Stretch_Energy-OPLS-2005>
726.716369628906

> <r_mmod_Bend_Energy-OPLS-2005>
524.964416503906

> <r_mmod_Torsional_Energy-OPLS-2005>
320.579193115234

> <r_mmod_Improper_Torsional_Energy-OPLS-2005>
18.2718620300293

> <r_mmod_Van_der_Waal_Energy-OPLS-2005>
114.296607971191

> <r_mmod_Electrostatic_Energy-OPLS-2005>
-269.864013671875

> <r_mmod_Solvation_Energy-OPLS-2005>
-200.222549438477

> <b_mmod_Minimization_Converged-OPLS-2005>
0

> <r_mmod_RMS_Derivative-OPLS-2005>
2.81160283088684

$$$$
63
                    3D
 Structure written by MMmdl.
171179  0  0  1  0            999 V2000
  -30.7274  -14.4387   20.6226 C   0  0  0  0  0  0
  -30.4179  -12.3001   19.4228 C   0  0  0  0  0  0
  -29.4989  -12.5062   18.2024 C   0  0  0  0  0  0
  -28.0154  -12.3687   18.6006 C   0  0  0  0  0  0
  -27.6546  -13.2063   19.8549 C   0  0  2  0  0  0
  -28.6885  -12.9859   20.9773 C   0  0  0  0  0  0
  -25.2556  -13.8184   20.5635 C   0  0  0  0  0  0
  -24.1818  -13.0453   20.9166 C   0  0  0  0  0  0
  -24.6362  -11.6918   20.8713 C   0  0  0  0  0  0
  -23.9034  -10.4310   21.0396 C   0  0  0  0  0  0
  -24.3615   -9.4233   21.9162 C   0  0  0  0  0  0
  -23.6308   -8.2255   22.0739 C   0  0  0  0  0  0
  -22.4277   -8.0290   21.3535 C   0  0  0  0  0  0
  -21.9899   -9.0259   20.4638 C   0  0  0  0  0  0
  -22.7214  -10.2140   20.3048 C   0  0  0  0  0  0
  -21.6862   -6.0750   22.5277 C   0  0  0  0  0  0
  -21.4020   -6.5642   23.8215 C   0  0  0  0  0  0
  -21.3660   -5.6785   24.9168 C   0  0  0  0  0  0
  -21.6045   -4.3052   24.7211 C   0  0  0  0  0  0
  -21.8817   -3.8153   23.4330 C   0  0  0  0  0  0
  -21.9188   -4.6978   22.3394 C   0  0  0  0  0  0
  -22.7843  -13.5264   21.1830 C   0  0  0  0  0  0
  -22.1662   -4.2177   21.0966 F   0  0  0  0  0  0
  -21.5633   -3.4528   25.7718 F   0  0  0  0  0  0
  -30.0270  -13.2828   20.4428 N   0  0  0  0  0  0
  -26.2965  -12.9342   20.3217 N   0  0  0  0  0  0
  -25.9275  -11.6509   20.5679 N   0  0  0  0  0  0
  -22.0464  -12.8310   22.0416 N   0  0  0  0  0  0
  -25.4258  -15.1922   20.4060 N   0  0  0  0  0  0
  -31.8352  -14.6272   20.1096 O   0  0  0  0  0  0
  -21.6649   -6.8887   21.4231 O   0  0  0  0  0  0
  -22.3536  -14.5550   20.6641 O   0  0  0  0  0  0
  -24.6149  -31.8688   23.2108 C   0  0  0  0  0  0
  -25.9056  -32.4823   23.8395 C   0  0  1  0  0  0
  -27.2494  -27.4540   20.0715 C   0  0  0  0  0  0
  -25.5920  -33.8620   24.2334 N   0  0  0  0  0  0
  -23.4026  -30.4925   21.5516 C   0  0  2  0  0  0
  -24.8482  -28.9552   20.1206 C   0  0  0  0  0  0
  -22.7405  -29.4672   22.5012 C   0  0  0  0  0  0
  -18.0271  -28.1391   22.8480 C   0  0  0  0  0  0
  -24.1484  -36.7304   23.2641 C   0  0  0  0  0  0
  -25.9307  -30.8333   21.3655 C   0  0  0  0  0  0
  -26.0067  -29.4674   20.7158 C   0  0  0  0  0  0
  -27.2043  -28.7176   20.7005 C   0  0  0  0  0  0
  -26.0597  -26.9428   19.4953 C   0  0  0  0  0  0
  -24.8663  -27.6861   19.5186 C   0  0  0  0  0  0
  -23.6110  -29.8224   20.1665 C   0  0  0  0  0  0
  -25.4105  -36.3119   24.0340 C   0  0  1  0  0  0
  -20.5854  -28.3678   23.1320 C   0  0  2  0  0  0
  -20.6771  -26.9420   22.5407 C   0  0  0  0  0  0
  -19.5752  -26.6397   21.5203 C   0  0  0  0  0  0
  -18.1926  -26.7929   22.1613 C   0  0  0  0  0  0
  -19.1510  -28.8846   23.2904 C   0  0  0  0  0  0
  -18.9451  -30.1451   23.8920 C   0  0  0  0  0  0
  -17.6462  -30.6599   24.0552 C   0  0  0  0  0  0
  -25.9038  -34.9475   23.5128 C   0  0  0  0  0  0
  -16.5356  -29.9100   23.6327 C   0  0  0  0  0  0
  -16.7259  -28.6510   23.0355 C   0  0  0  0  0  0
  -26.4494  -31.6617   25.0723 C   0  0  0  0  0  0
  -25.3771  -31.3718   26.1479 C   0  0  0  0  0  0
  -27.0338  -30.3071   24.6094 C   0  0  0  0  0  0
  -27.6074  -32.4346   25.7467 C   0  0  0  0  0  0
  -27.5581  -37.1810   24.8467 C   0  0  0  0  0  0
  -21.4137  -29.3052   22.3727 N   0  0  0  0  0  0
  -26.4296  -37.3812   23.9404 N   0  0  0  0  0  0
  -24.6681  -31.0782   22.1021 N   0  0  0  0  0  0
  -23.4167  -28.8219   23.3049 O   0  0  0  0  0  0
  -28.4487  -26.7678   20.0379 O   0  0  0  0  0  0
  -26.5586  -34.8936   22.4686 O   0  0  0  0  0  0
  -23.5346  -32.1437   23.7521 O   0  0  0  0  0  0
  -29.3690  -18.8073   21.4768 C   0  0  0  0  0  0
  -29.9155  -17.9029   20.5441 C   0  0  0  0  0  0
  -31.2870  -19.7456   19.6325 C   0  0  0  0  0  0
  -30.7368  -20.6414   20.5957 C   0  0  0  0  0  0
  -29.7677  -20.1548   21.5076 C   0  0  0  0  0  0
  -30.8740  -18.3830   19.6150 C   0  0  0  0  0  0
  -32.3317  -20.2281   18.6214 C   0  0  0  0  0  0
  -30.1646  -14.5899   23.6788 C   0  0  0  0  0  0
  -31.8562  -16.2922   22.8668 C   0  0  0  0  0  0
  -29.3802  -16.4593   20.5107 C   0  0  0  0  0  0
  -31.1867  -22.1080   20.6828 C   0  0  0  0  0  0
  -30.0676  -25.3361   18.8833 C   0  0  0  0  0  0
  -30.6684  -24.4449   19.9939 C   0  0  0  0  0  0
  -28.5889  -25.7201   19.0739 C   0  0  0  0  0  0
  -30.4149  -15.7647   22.7081 C   0  0  0  0  0  0
  -30.0903  -15.4264   21.3007 N   0  0  0  0  0  0
  -30.4094  -22.9980   19.7894 N   0  3  0  0  0  0
  -29.0273  -21.1920   22.6754 Cl  0  0  0  0  0  0
  -31.5203  -17.3028   18.4268 Cl  0  0  0  0  0  0
  -31.4663  -12.3943   19.1325 H   0  0  0  0  0  0
  -30.3122  -11.2912   19.8223 H   0  0  0  0  0  0
  -29.7493  -11.7828   17.4248 H   0  0  0  0  0  0
  -29.6745  -13.4943   17.7721 H   0  0  0  0  0  0
  -27.8184  -11.3141   18.7924 H   0  0  0  0  0  0
  -27.3753  -12.6461   17.7611 H   0  0  0  0  0  0
  -27.6983  -14.2536   19.5563 H   0  0  0  0  0  0
  -28.6578  -11.9576   21.3403 H   0  0  0  0  0  0
  -28.4126  -13.6041   21.8279 H   0  0  0  0  0  0
  -25.2768   -9.5757   22.4707 H   0  0  0  0  0  0
  -24.0045   -7.4675   22.7477 H   0  0  0  0  0  0
  -21.0824   -8.8773   19.8971 H   0  0  0  0  0  0
  -22.3668  -10.9665   19.6168 H   0  0  0  0  0  0
  -21.2016   -7.6154   23.9735 H   0  0  0  0  0  0
  -21.1483   -6.0502   25.9078 H   0  0  0  0  0  0
  -22.0593   -2.7618   23.2797 H   0  0  0  0  0  0
  -22.4068  -12.0020   22.4907 H   0  0  0  0  0  0
  -21.1070  -13.1361   22.2555 H   0  0  0  0  0  0
  -24.6568  -15.8430   20.5189 H   0  0  0  0  0  0
  -26.2692  -15.6298   20.0594 H   0  0  0  0  0  0
  -26.7134  -32.5540   23.1163 H   0  0  0  0  0  0
  -25.0117  -33.9784   25.0511 H   0  0  0  0  0  0
  -22.6935  -31.3097   21.4118 H   0  0  0  0  0  0
  -23.3753  -35.9636   23.3316 H   0  0  0  0  0  0
  -24.3581  -36.8893   22.2058 H   0  0  0  0  0  0
  -23.7226  -37.6506   23.6638 H   0  0  0  0  0  0
  -26.0438  -31.6014   20.5980 H   0  0  0  0  0  0
  -26.8193  -30.8868   21.9821 H   0  0  0  0  0  0
  -28.1013  -29.1187   21.1526 H   0  0  0  0  0  0
  -26.0312  -25.9722   19.0217 H   0  0  0  0  0  0
  -23.9707  -27.2773   19.0714 H   0  0  0  0  0  0
  -23.7297  -30.5973   19.4085 H   0  0  0  0  0  0
  -22.7330  -29.2475   19.8676 H   0  0  0  0  0  0
  -25.1290  -36.1991   25.0834 H   0  0  0  0  0  0
  -20.9951  -28.3249   24.1430 H   0  0  0  0  0  0
  -20.5695  -26.2288   23.3595 H   0  0  0  0  0  0
  -21.6650  -26.7490   22.1189 H   0  0  0  0  0  0
  -19.6923  -25.6314   21.1219 H   0  0  0  0  0  0
  -19.6690  -27.3218   20.6738 H   0  0  0  0  0  0
  -17.4204  -26.6683   21.3998 H   0  0  0  0  0  0
  -18.0326  -26.0072   22.9010 H   0  0  0  0  0  0
  -19.7944  -30.7242   24.2294 H   0  0  0  0  0  0
  -17.5038  -31.6273   24.5168 H   0  0  0  0  0  0
  -15.5363  -30.3020   23.7645 H   0  0  0  0  0  0
  -15.8653  -28.0840   22.7073 H   0  0  0  0  0  0
  -24.5914  -30.7099   25.7810 H   0  0  0  0  0  0
  -24.9000  -32.2888   26.4967 H   0  0  0  0  0  0
  -25.8139  -30.8847   27.0214 H   0  0  0  0  0  0
  -26.2876  -29.6792   24.1211 H   0  0  0  0  0  0
  -27.4198  -29.7342   25.4543 H   0  0  0  0  0  0
  -27.8673  -30.4385   23.9183 H   0  0  0  0  0  0
  -27.2685  -33.3627   26.2081 H   0  0  0  0  0  0
  -28.3858  -32.6943   25.0277 H   0  0  0  0  0  0
  -28.0787  -31.8461   26.5354 H   0  0  0  0  0  0
  -28.2626  -38.0090   24.7529 H   0  0  0  0  0  0
  -28.1063  -36.2628   24.6291 H   0  0  0  0  0  0
  -27.2301  -37.1453   25.8876 H   0  0  0  0  0  0
  -20.9311  -29.8756   21.6935 H   0  0  0  0  0  0
  -26.0186  -38.2884   24.1426 H   0  0  0  0  0  0
  -28.6157  -18.4750   22.1776 H   0  0  0  0  0  0
  -32.1868  -21.2674   18.3319 H   0  0  0  0  0  0
  -32.3074  -19.6677   17.6882 H   0  0  0  0  0  0
  -33.3334  -20.1352   19.0412 H   0  0  0  0  0  0
  -30.4880  -14.8402   24.6905 H   0  0  0  0  0  0
  -30.6883  -13.6796   23.3838 H   0  0  0  0  0  0
  -29.1038  -14.3520   23.7537 H   0  0  0  0  0  0
  -32.0542  -16.5717   23.9023 H   0  0  0  0  0  0
  -32.0305  -17.1793   22.2571 H   0  0  0  0  0  0
  -32.5982  -15.5456   22.5887 H   0  0  0  0  0  0
  -29.2963  -16.1569   19.4640 H   0  0  0  0  0  0
  -28.3483  -16.4720   20.8640 H   0  0  0  0  0  0
  -32.2505  -22.1873   20.4518 H   0  0  0  0  0  0
  -31.1135  -22.4714   21.7082 H   0  0  0  0  0  0
  -30.1902  -24.8452   17.9170 H   0  0  0  0  0  0
  -30.6498  -26.2555   18.8039 H   0  0  0  0  0  0
  -30.3069  -24.7601   20.9732 H   0  0  0  0  0  0
  -31.7492  -24.5931   20.0012 H   0  0  0  0  0  0
  -27.9982  -24.8478   19.3581 H   0  0  0  0  0  0
  -28.2143  -26.0715   18.1105 H   0  0  0  0  0  0
  -29.7437  -16.5580   23.0377 H   0  0  0  0  0  0
  -29.4275  -22.8108   19.9198 H   0  0  0  0  0  0
  -30.6459  -22.7630   18.8408 H   0  0  0  0  0  0
  1 25  1  0  0  0
  1 30  2  0  0  0
  1 86  1  0  0  0
  2  3  1  0  0  0
  2 25  1  0  0  0
  2 90  1  0  0  0
  2 91  1  0  0  0
  3  4  1  0  0  0
  3 92  1  0  0  0
  3 93  1  0  0  0
  4  5  1  0  0  0
  4 94  1  0  0  0
  4 95  1  0  0  0
  5  6  1  0  0  0
  5 26  1  0  0  0
  5 96  1  0  0  0
  6 25  1  0  0  0
  6 97  1  0  0  0
  6 98  1  0  0  0
  7  8  2  0  0  0
  7 26  1  0  0  0
  7 29  1  0  0  0
  8  9  1  0  0  0
  8 22  1  0  0  0
  9 10  1  0  0  0
  9 27  2  0  0  0
 10 11  2  0  0  0
 10 15  1  0  0  0
 11 12  1  0  0  0
 11 99  1  0  0  0
 12 13  2  0  0  0
 12100  1  0  0  0
 13 14  1  0  0  0
 13 31  1  0  0  0
 14 15  2  0  0  0
 14101  1  0  0  0
 15102  1  0  0  0
 16 17  2  0  0  0
 16 21  1  0  0  0
 16 31  1  0  0  0
 17 18  1  0  0  0
 17103  1  0  0  0
 18 19  2  0  0  0
 18104  1  0  0  0
 19 20  1  0  0  0
 19 24  1  0  0  0
 20 21  2  0  0  0
 20105  1  0  0  0
 21 23  1  0  0  0
 22 28  1  0  0  0
 22 32  2  0  0  0
 26 27  1  0  0  0
 28106  1  0  0  0
 28107  1  0  0  0
 29108  1  0  0  0
 29109  1  0  0  0
 33 34  1  0  0  0
 33 66  1  0  0  0
 33 70  2  0  0  0
 34 36  1  0  0  0
 34 59  1  0  0  0
 34110  1  0  0  0
 35 44  2  0  0  0
 35 45  1  0  0  0
 35 68  1  0  0  0
 36 56  1  0  0  0
 36111  1  0  0  0
 37 39  1  0  0  0
 37 47  1  0  0  0
 37 66  1  0  0  0
 37112  1  0  0  0
 38 43  2  0  0  0
 38 46  1  0  0  0
 38 47  1  0  0  0
 39 64  1  0  0  0
 39 67  2  0  0  0
 40 52  1  0  0  0
 40 53  2  0  0  0
 40 58  1  0  0  0
 41113  1  0  0  0
 41114  1  0  0  0
 41115  1  0  0  0
 41 48  1  0  0  0
 42 43  1  0  0  0
 42 66  1  0  0  0
 42116  1  0  0  0
 42117  1  0  0  0
 43 44  1  0  0  0
 44118  1  0  0  0
 45 46  2  0  0  0
 45119  1  0  0  0
 46120  1  0  0  0
 47121  1  0  0  0
 47122  1  0  0  0
 48 56  1  0  0  0
 48 65  1  0  0  0
 48123  1  0  0  0
 49 50  1  0  0  0
 49 53  1  0  0  0
 49 64  1  0  0  0
 49124  1  0  0  0
 50 51  1  0  0  0
 50125  1  0  0  0
 50126  1  0  0  0
 51 52  1  0  0  0
 51127  1  0  0  0
 51128  1  0  0  0
 52129  1  0  0  0
 52130  1  0  0  0
 53 54  1  0  0  0
 54 55  2  0  0  0
 54131  1  0  0  0
 55 57  1  0  0  0
 55132  1  0  0  0
 56 69  2  0  0  0
 57 58  2  0  0  0
 57133  1  0  0  0
 58134  1  0  0  0
 59 60  1  0  0  0
 59 61  1  0  0  0
 59 62  1  0  0  0
 60135  1  0  0  0
 60136  1  0  0  0
 60137  1  0  0  0
 61138  1  0  0  0
 61139  1  0  0  0
 61140  1  0  0  0
 62141  1  0  0  0
 62142  1  0  0  0
 62143  1  0  0  0
 63 65  1  0  0  0
 63144  1  0  0  0
 63145  1  0  0  0
 63146  1  0  0  0
 64147  1  0  0  0
 65148  1  0  0  0
 68 84  1  0  0  0
 71 72  2  0  0  0
 71 75  1  0  0  0
 71149  1  0  0  0
 72 76  1  0  0  0
 72 80  1  0  0  0
 73 74  1  0  0  0
 73 76  2  0  0  0
 73 77  1  0  0  0
 74 75  2  0  0  0
 74 81  1  0  0  0
 75 88  1  0  0  0
 76 89  1  0  0  0
 77150  1  0  0  0
 77151  1  0  0  0
 77152  1  0  0  0
 78153  1  0  0  0
 78154  1  0  0  0
 78155  1  0  0  0
 78 85  1  0  0  0
 79 85  1  0  0  0
 79156  1  0  0  0
 79157  1  0  0  0
 79158  1  0  0  0
 80 86  1  0  0  0
 80159  1  0  0  0
 80160  1  0  0  0
 81 87  1  0  0  0
 81161  1  0  0  0
 81162  1  0  0  0
 82 83  1  0  0  0
 82 84  1  0  0  0
 82163  1  0  0  0
 82164  1  0  0  0
 83 87  1  0  0  0
 83165  1  0  0  0
 83166  1  0  0  0
 84167  1  0  0  0
 84168  1  0  0  0
 85 86  1  0  0  0
 85169  1  0  0  0
 87170  1  0  0  0
 87171  1  0  0  0
M  CHG  1  87   1
M  ISO  4   1 100  68 101  84 101  86 100
M  END
> <chiral flag>
0

> <version>
0

> <s_m_source_file>
/data/baiqing/PycharmProjects/Reinvent-master-3.2/result/LINK_invent/BTK/process_docking_weight1_custom_sum_contain_oxygen_bond_distance_aromatic_linkinvent_7_9_3/rearranged_h_0019.sdf

> <i_m_source_file_index>
64

> <r_mmod_Potential_Energy-OPLS-2005>
-50.377140045166

> <r_mmod_Stretch_Energy-OPLS-2005>
42.6757659912109

> <r_mmod_Bend_Energy-OPLS-2005>
100.898849487305

> <r_mmod_Torsional_Energy-OPLS-2005>
292.883850097656

> <r_mmod_Improper_Torsional_Energy-OPLS-2005>
3.81604194641113

> <r_mmod_Van_der_Waal_Energy-OPLS-2005>
151.669204711914

> <r_mmod_Electrostatic_Energy-OPLS-2005>
-205.653350830078

> <r_mmod_Solvation_Energy-OPLS-2005>
-447.101348876953

> <b_mmod_Minimization_Converged-OPLS-2005>
0

> <r_mmod_RMS_Derivative-OPLS-2005>
3.95607805252075

$$$$
64
                    3D
 Structure written by MMmdl.
161169  0  0  1  0            999 V2000
  -30.4309  -15.2849   20.3729 C   0  0  0  0  0  0
  -30.4454  -12.8357   19.5059 C   0  0  0  0  0  0
  -29.5361  -12.5797   18.2776 C   0  0  0  0  0  0
  -28.0824  -12.3104   18.7034 C   0  0  0  0  0  0
  -27.6103  -13.2789   19.8165 C   0  0  2  0  0  0
  -28.6499  -13.4556   20.9439 C   0  0  0  0  0  0
  -25.2392  -13.8247   20.5771 C   0  0  0  0  0  0
  -24.1755  -13.0430   20.9293 C   0  0  0  0  0  0
  -24.6408  -11.6936   20.8771 C   0  0  0  0  0  0
  -23.9097  -10.4293   21.0393 C   0  0  0  0  0  0
  -24.3640   -9.4210   21.9173 C   0  0  0  0  0  0
  -23.6316   -8.2241   22.0734 C   0  0  0  0  0  0
  -22.4299   -8.0279   21.3533 C   0  0  0  0  0  0
  -21.9941   -9.0256   20.4631 C   0  0  0  0  0  0
  -22.7265  -10.2136   20.3037 C   0  0  0  0  0  0
  -21.6857   -6.0741   22.5283 C   0  0  0  0  0  0
  -21.4010   -6.5630   23.8221 C   0  0  0  0  0  0
  -21.3660   -5.6782   24.9181 C   0  0  0  0  0  0
  -21.6055   -4.3048   24.7223 C   0  0  0  0  0  0
  -21.8817   -3.8137   23.4340 C   0  0  0  0  0  0
  -21.9201   -4.6966   22.3402 C   0  0  0  0  0  0
  -22.7760  -13.5189   21.1945 C   0  0  0  0  0  0
  -22.1671   -4.2148   21.0983 F   0  0  0  0  0  0
  -21.5636   -3.4529   25.7730 F   0  0  0  0  0  0
  -29.8722  -13.9771   20.3078 N   0  0  0  0  0  0
  -26.2822  -12.9528   20.3204 N   0  0  0  0  0  0
  -25.9346  -11.6630   20.5692 N   0  0  0  0  0  0
  -22.0403  -12.8169   22.0478 N   0  0  0  0  0  0
  -25.3992  -15.1975   20.4204 N   0  0  0  0  0  0
  -31.6591  -15.2876   20.2155 O   0  0  0  0  0  0
  -21.6656   -6.8884   21.4239 O   0  0  0  0  0  0
  -22.3444  -14.5507   20.6793 O   0  0  0  0  0  0
  -24.6647  -31.8229   23.1687 C   0  0  0  0  0  0
  -25.9320  -32.4594   23.8158 C   0  0  1  0  0  0
  -27.2107  -26.9070   20.2070 C   0  0  0  0  0  0
  -25.5962  -33.8406   24.2064 N   0  0  0  0  0  0
  -23.4786  -30.4359   21.5188 C   0  0  2  0  0  0
  -24.9267  -28.8087   20.1297 C   0  0  0  0  0  0
  -22.7676  -29.4451   22.4785 C   0  0  0  0  0  0
  -18.0324  -28.1408   22.8474 C   0  0  0  0  0  0
  -24.1483  -36.7207   23.2652 C   0  0  0  0  0  0
  -26.0497  -30.6239   21.3995 C   0  0  0  0  0  0
  -26.1130  -29.2066   20.7593 C   0  0  0  0  0  0
  -27.2545  -28.2817   20.7626 C   0  0  0  0  0  0
  -25.9904  -26.6595   19.5387 C   0  0  0  0  0  0
  -24.8891  -27.5549   19.5011 C   0  0  0  0  0  0
  -23.7194  -29.7467   20.1491 C   0  0  0  0  0  0
  -25.4125  -36.2974   24.0295 C   0  0  1  0  0  0
  -20.5949  -28.3749   23.1190 C   0  0  2  0  0  0
  -20.6793  -26.9427   22.5406 C   0  0  0  0  0  0
  -19.5763  -26.6362   21.5228 C   0  0  0  0  0  0
  -18.1941  -26.7937   22.1633 C   0  0  0  0  0  0
  -19.1587  -28.8910   23.2815 C   0  0  0  0  0  0
  -18.9503  -30.1506   23.8846 C   0  0  0  0  0  0
  -17.6489  -30.6591   24.0565 C   0  0  0  0  0  0
  -25.9091  -34.9363   23.5007 C   0  0  0  0  0  0
  -16.5379  -29.9085   23.6348 C   0  0  0  0  0  0
  -16.7308  -28.6510   23.0367 C   0  0  0  0  0  0
  -26.4546  -31.6556   25.0708 C   0  0  0  0  0  0
  -25.3656  -31.3842   26.1351 C   0  0  0  0  0  0
  -27.0450  -30.2927   24.6468 C   0  0  0  0  0  0
  -27.6018  -32.4387   25.7520 C   0  0  0  0  0  0
  -27.5557  -37.1768   24.8465 C   0  0  0  0  0  0
  -21.4344  -29.3052   22.3553 N   0  0  0  0  0  0
  -26.4258  -37.3720   23.9424 N   0  0  0  0  0  0
  -24.7532  -30.9901   22.0817 N   0  0  0  0  0  0
  -23.4232  -28.8002   23.3001 O   0  0  0  0  0  0
  -28.2520  -25.8421   20.1096 O   0  0  0  0  0  0
  -26.5696  -34.8899   22.4600 O   0  0  0  0  0  0
  -23.5712  -32.1185   23.6773 O   0  0  0  0  0  0
  -26.8993  -22.3691   20.3431 C   0  0  0  0  0  0
  -28.2777  -22.6591   20.2595 C   0  0  0  0  0  0
  -29.0096  -21.3532   20.7363 C   0  0  0  0  0  0
  -26.4968  -21.7183   21.5371 C   0  0  0  0  0  0
  -28.6958  -21.2523   22.0991 C   0  0  0  0  0  0
  -24.6727  -22.8467   22.8559 C   0  0  0  0  0  0
  -29.8014  -19.9333   24.0070 C   0  0  0  0  0  0
  -29.0281  -19.7049   20.1243 C   0  0  0  0  0  0
  -28.4284  -24.3329   20.7703 C   0  0  0  0  0  0
  -25.0421  -21.6611   21.9596 C   0  0  0  0  0  0
  -29.7411  -21.2380   23.2035 C   0  0  0  0  0  0
  -29.8860  -18.1982   20.6513 C   0  0  0  0  0  0
  -27.3978  -21.3137   22.4713 N   0  0  0  0  0  0
  -29.6541  -16.5540   20.4103 N   0  0  0  0  0  0
  -31.4500  -13.0680   19.1486 H   0  0  0  0  0  0
  -30.5507  -11.9381   20.1179 H   0  0  0  0  0  0
  -29.9183  -11.7414   17.6957 H   0  0  0  0  0  0
  -29.5696  -13.4454   17.6155 H   0  0  0  0  0  0
  -28.0345  -11.2848   19.0685 H   0  0  0  0  0  0
  -27.4138  -12.3624   17.8417 H   0  0  0  0  0  0
  -27.5231  -14.2477   19.3241 H   0  0  0  0  0  0
  -28.8285  -12.5226   21.4766 H   0  0  0  0  0  0
  -28.2882  -14.1740   21.6814 H   0  0  0  0  0  0
  -25.2763   -9.5702   22.4784 H   0  0  0  0  0  0
  -24.0030   -7.4620   22.7437 H   0  0  0  0  0  0
  -21.0876   -8.8773   19.8929 H   0  0  0  0  0  0
  -22.3701  -10.9691   19.6167 H   0  0  0  0  0  0
  -21.1987   -7.6134   23.9730 H   0  0  0  0  0  0
  -21.1492   -6.0504   25.9095 H   0  0  0  0  0  0
  -22.0598   -2.7598   23.2840 H   0  0  0  0  0  0
  -22.4019  -11.9853   22.4909 H   0  0  0  0  0  0
  -21.0987  -13.1145   22.2629 H   0  0  0  0  0  0
  -24.6241  -15.8421   20.5374 H   0  0  0  0  0  0
  -26.2296  -15.6426   20.0553 H   0  0  0  0  0  0
  -26.7385  -32.5130   23.0867 H   0  0  0  0  0  0
  -25.0066  -33.9494   25.0193 H   0  0  0  0  0  0
  -22.7918  -31.2669   21.3463 H   0  0  0  0  0  0
  -23.3743  -35.9540   23.3287 H   0  0  0  0  0  0
  -24.3561  -36.8885   22.2075 H   0  0  0  0  0  0
  -23.7233  -37.6379   23.6732 H   0  0  0  0  0  0
  -26.2298  -31.3572   20.6118 H   0  0  0  0  0  0
  -26.9117  -30.6844   22.0536 H   0  0  0  0  0  0
  -28.1672  -28.6085   21.2422 H   0  0  0  0  0  0
  -25.8684  -25.7087   19.0401 H   0  0  0  0  0  0
  -23.9881  -27.2480   18.9888 H   0  0  0  0  0  0
  -23.8883  -30.5118   19.3888 H   0  0  0  0  0  0
  -22.8282  -29.2057   19.8236 H   0  0  0  0  0  0
  -25.1337  -36.1737   25.0779 H   0  0  0  0  0  0
  -21.0053  -28.3336   24.1305 H   0  0  0  0  0  0
  -20.5704  -26.2364   23.3639 H   0  0  0  0  0  0
  -21.6650  -26.7392   22.1219 H   0  0  0  0  0  0
  -19.6919  -25.6258   21.1286 H   0  0  0  0  0  0
  -19.6708  -27.3158   20.6746 H   0  0  0  0  0  0
  -17.4228  -26.6712   21.4008 H   0  0  0  0  0  0
  -18.0322  -26.0091   22.9039 H   0  0  0  0  0  0
  -19.7976  -30.7360   24.2161 H   0  0  0  0  0  0
  -17.5036  -31.6265   24.5175 H   0  0  0  0  0  0
  -15.5378  -30.2981   23.7706 H   0  0  0  0  0  0
  -15.8697  -28.0820   22.7105 H   0  0  0  0  0  0
  -24.5825  -30.7203   25.7661 H   0  0  0  0  0  0
  -24.8845  -32.3068   26.4626 H   0  0  0  0  0  0
  -25.7852  -30.9091   27.0224 H   0  0  0  0  0  0
  -26.3118  -29.6592   24.1467 H   0  0  0  0  0  0
  -27.3959  -29.7318   25.5136 H   0  0  0  0  0  0
  -27.9065  -30.4114   23.9900 H   0  0  0  0  0  0
  -27.2556  -33.3729   26.1956 H   0  0  0  0  0  0
  -28.3906  -32.6882   25.0416 H   0  0  0  0  0  0
  -28.0593  -31.8600   26.5560 H   0  0  0  0  0  0
  -28.2564  -38.0077   24.7513 H   0  0  0  0  0  0
  -28.1045  -36.2597   24.6269 H   0  0  0  0  0  0
  -27.2270  -37.1398   25.8865 H   0  0  0  0  0  0
  -20.9600  -29.8727   21.6672 H   0  0  0  0  0  0
  -26.0075  -38.2760   24.1437 H   0  0  0  0  0  0
  -26.1589  -22.9996   19.8668 H   0  0  0  0  0  0
  -25.3046  -22.8661   23.7447 H   0  0  0  0  0  0
  -23.6358  -22.7834   23.1853 H   0  0  0  0  0  0
  -24.8117  -23.7906   22.3268 H   0  0  0  0  0  0
  -30.2974  -20.0935   24.9626 H   0  0  0  0  0  0
  -30.3772  -19.1742   23.4887 H   0  0  0  0  0  0
  -28.8030  -19.5438   24.2099 H   0  0  0  0  0  0
  -27.9748  -19.4259   20.1505 H   0  0  0  0  0  0
  -29.2436  -19.8079   19.0600 H   0  0  0  0  0  0
  -29.4636  -24.3624   21.1055 H   0  0  0  0  0  0
  -27.8645  -24.3899   21.7030 H   0  0  0  0  0  0
  -24.8599  -20.7256   22.4898 H   0  0  0  0  0  0
  -24.3992  -21.6450   21.0804 H   0  0  0  0  0  0
  -29.5165  -22.0614   23.8825 H   0  0  0  0  0  0
  -30.7218  -21.4658   22.7816 H   0  0  0  0  0  0
  -29.7810  -18.2220   21.7296 H   0  0  0  0  0  0
  -30.9471  -18.3717   20.4759 H   0  0  0  0  0  0
  -28.6678  -16.3393   20.3847 H   0  0  0  0  0  0
  1 25  1  0  0  0
  1 30  2  0  0  0
  1 84  1  0  0  0
  2  3  1  0  0  0
  2 25  1  0  0  0
  2 85  1  0  0  0
  2 86  1  0  0  0
  3  4  1  0  0  0
  3 87  1  0  0  0
  3 88  1  0  0  0
  4  5  1  0  0  0
  4 89  1  0  0  0
  4 90  1  0  0  0
  5  6  1  0  0  0
  5 26  1  0  0  0
  5 91  1  0  0  0
  6 25  1  0  0  0
  6 92  1  0  0  0
  6 93  1  0  0  0
  7  8  2  0  0  0
  7 26  1  0  0  0
  7 29  1  0  0  0
  8  9  1  0  0  0
  8 22  1  0  0  0
  9 10  1  0  0  0
  9 27  2  0  0  0
 10 11  2  0  0  0
 10 15  1  0  0  0
 11 12  1  0  0  0
 11 94  1  0  0  0
 12 13  2  0  0  0
 12 95  1  0  0  0
 13 14  1  0  0  0
 13 31  1  0  0  0
 14 15  2  0  0  0
 14 96  1  0  0  0
 15 97  1  0  0  0
 16 17  2  0  0  0
 16 21  1  0  0  0
 16 31  1  0  0  0
 17 18  1  0  0  0
 17 98  1  0  0  0
 18 19  2  0  0  0
 18 99  1  0  0  0
 19 20  1  0  0  0
 19 24  1  0  0  0
 20 21  2  0  0  0
 20100  1  0  0  0
 21 23  1  0  0  0
 22 28  1  0  0  0
 22 32  2  0  0  0
 26 27  1  0  0  0
 28101  1  0  0  0
 28102  1  0  0  0
 29103  1  0  0  0
 29104  1  0  0  0
 33 34  1  0  0  0
 33 66  1  0  0  0
 33 70  2  0  0  0
 34 36  1  0  0  0
 34 59  1  0  0  0
 34105  1  0  0  0
 35 44  2  0  0  0
 35 45  1  0  0  0
 35 68  1  0  0  0
 36 56  1  0  0  0
 36106  1  0  0  0
 37 39  1  0  0  0
 37 47  1  0  0  0
 37 66  1  0  0  0
 37107  1  0  0  0
 38 43  2  0  0  0
 38 46  1  0  0  0
 38 47  1  0  0  0
 39 64  1  0  0  0
 39 67  2  0  0  0
 40 52  1  0  0  0
 40 53  2  0  0  0
 40 58  1  0  0  0
 41108  1  0  0  0
 41109  1  0  0  0
 41110  1  0  0  0
 41 48  1  0  0  0
 42 43  1  0  0  0
 42 66  1  0  0  0
 42111  1  0  0  0
 42112  1  0  0  0
 43 44  1  0  0  0
 44113  1  0  0  0
 45 46  2  0  0  0
 45114  1  0  0  0
 46115  1  0  0  0
 47116  1  0  0  0
 47117  1  0  0  0
 48 56  1  0  0  0
 48 65  1  0  0  0
 48118  1  0  0  0
 49 50  1  0  0  0
 49 53  1  0  0  0
 49 64  1  0  0  0
 49119  1  0  0  0
 50 51  1  0  0  0
 50120  1  0  0  0
 50121  1  0  0  0
 51 52  1  0  0  0
 51122  1  0  0  0
 51123  1  0  0  0
 52124  1  0  0  0
 52125  1  0  0  0
 53 54  1  0  0  0
 54 55  2  0  0  0
 54126  1  0  0  0
 55 57  1  0  0  0
 55127  1  0  0  0
 56 69  2  0  0  0
 57 58  2  0  0  0
 57128  1  0  0  0
 58129  1  0  0  0
 59 60  1  0  0  0
 59 61  1  0  0  0
 59 62  1  0  0  0
 60130  1  0  0  0
 60131  1  0  0  0
 60132  1  0  0  0
 61133  1  0  0  0
 61134  1  0  0  0
 61135  1  0  0  0
 62136  1  0  0  0
 62137  1  0  0  0
 62138  1  0  0  0
 63 65  1  0  0  0
 63139  1  0  0  0
 63140  1  0  0  0
 63141  1  0  0  0
 64142  1  0  0  0
 65143  1  0  0  0
 68 79  1  0  0  0
 71 72  2  0  0  0
 71 74  1  0  0  0
 71144  1  0  0  0
 72 73  1  0  0  0
 72 79  1  0  0  0
 73 75  2  0  0  0
 73 78  1  0  0  0
 74 80  1  0  0  0
 74 83  2  0  0  0
 75 81  1  0  0  0
 75 83  1  0  0  0
 76 80  1  0  0  0
 76145  1  0  0  0
 76146  1  0  0  0
 76147  1  0  0  0
 77 81  1  0  0  0
 77148  1  0  0  0
 77149  1  0  0  0
 77150  1  0  0  0
 78 82  1  0  0  0
 78151  1  0  0  0
 78152  1  0  0  0
 79153  1  0  0  0
 79154  1  0  0  0
 80155  1  0  0  0
 80156  1  0  0  0
 81157  1  0  0  0
 81158  1  0  0  0
 82 84  1  0  0  0
 82159  1  0  0  0
 82160  1  0  0  0
 84161  1  0  0  0
M  ISO  4   1 100  68 101  79 101  84 100
M  END
> <chiral flag>
0

> <version>
0

> <s_m_source_file>
/data/baiqing/PycharmProjects/Reinvent-master-3.2/result/LINK_invent/BTK/process_docking_weight1_custom_sum_contain_oxygen_bond_distance_aromatic_linkinvent_7_9_3/rearranged_h_0019.sdf

> <i_m_source_file_index>
65

> <r_mmod_Potential_Energy-OPLS-2005>
1494.29943847656

> <r_mmod_Stretch_Energy-OPLS-2005>
627.849182128906

> <r_mmod_Bend_Energy-OPLS-2005>
529.796875

> <r_mmod_Torsional_Energy-OPLS-2005>
487.079071044922

> <r_mmod_Improper_Torsional_Energy-OPLS-2005>
50.6605606079102

> <r_mmod_Van_der_Waal_Energy-OPLS-2005>
129.806045532227

> <r_mmod_Electrostatic_Energy-OPLS-2005>
-582.528930664062

> <r_mmod_Solvation_Energy-OPLS-2005>
-219.47314453125

> <b_mmod_Minimization_Converged-OPLS-2005>
0

> <r_mmod_RMS_Derivative-OPLS-2005>
3.51236081123352

$$$$
65
                    3D
 Structure written by MMmdl.
147155  0  0  1  0            999 V2000
  -30.2739  -15.7614   20.3146 C   0  0  0  0  0  0
  -30.4177  -13.1761   19.5366 C   0  0  0  0  0  0
  -29.5625  -12.6846   18.3298 C   0  0  0  0  0  0
  -28.1338  -12.3185   18.7604 C   0  0  0  0  0  0
  -27.5940  -13.3231   19.8040 C   0  0  2  0  0  0
  -28.6070  -13.7042   20.9150 C   0  0  0  0  0  0
  -25.2319  -13.8310   20.5805 C   0  0  0  0  0  0
  -24.1730  -13.0440   20.9306 C   0  0  0  0  0  0
  -24.6450  -11.6959   20.8755 C   0  0  0  0  0  0
  -23.9132  -10.4303   21.0381 C   0  0  0  0  0  0
  -24.3655   -9.4212   21.9164 C   0  0  0  0  0  0
  -23.6298   -8.2258   22.0767 C   0  0  0  0  0  0
  -22.4276   -8.0295   21.3557 C   0  0  0  0  0  0
  -21.9922   -9.0283   20.4667 C   0  0  0  0  0  0
  -22.7287  -10.2137   20.3053 C   0  0  0  0  0  0
  -21.6853   -6.0737   22.5283 C   0  0  0  0  0  0
  -21.4025   -6.5643   23.8217 C   0  0  0  0  0  0
  -21.3654   -5.6786   24.9165 C   0  0  0  0  0  0
  -21.6047   -4.3051   24.7217 C   0  0  0  0  0  0
  -21.8823   -3.8151   23.4332 C   0  0  0  0  0  0
  -21.9198   -4.6970   22.3392 C   0  0  0  0  0  0
  -22.7717  -13.5171   21.1874 C   0  0  0  0  0  0
  -22.1667   -4.2166   21.0964 F   0  0  0  0  0  0
  -21.5608   -3.4526   25.7724 F   0  0  0  0  0  0
  -29.7560  -14.3762   20.2480 N   0  0  0  0  0  0
  -26.2786  -12.9675   20.3204 N   0  0  0  0  0  0
  -25.9403  -11.6734   20.5661 N   0  0  0  0  0  0
  -22.0351  -12.8200   22.0430 N   0  0  0  0  0  0
  -25.3835  -15.2060   20.4284 N   0  0  0  0  0  0
  -31.5107  -15.6370   20.1945 O   0  0  0  0  0  0
  -21.6644   -6.8880   21.4243 O   0  0  0  0  0  0
  -22.3404  -14.5444   20.6664 O   0  0  0  0  0  0
  -24.6960  -31.7876   23.1437 C   0  0  0  0  0  0
  -25.9498  -32.4391   23.8035 C   0  0  1  0  0  0
  -27.2291  -26.5944   20.2299 C   0  0  0  0  0  0
  -25.6032  -33.8217   24.1913 N   0  0  0  0  0  0
  -23.5281  -30.3849   21.5011 C   0  0  2  0  0  0
  -24.9847  -28.7024   20.1249 C   0  0  0  0  0  0
  -22.7832  -29.4254   22.4702 C   0  0  0  0  0  0
  -18.0340  -28.1442   22.8421 C   0  0  0  0  0  0
  -24.1500  -36.7087   23.2663 C   0  0  0  0  0  0
  -26.1129  -30.4834   21.4259 C   0  0  0  0  0  0
  -26.1766  -29.0371   20.7776 C   0  0  0  0  0  0
  -27.2801  -28.0151   20.7915 C   0  0  0  0  0  0
  -26.0029  -26.4964   19.5167 C   0  0  0  0  0  0
  -24.9434  -27.4597   19.4694 C   0  0  0  0  0  0
  -23.7892  -29.6735   20.1413 C   0  0  0  0  0  0
  -25.4145  -36.2832   24.0300 C   0  0  1  0  0  0
  -20.5974  -28.3808   23.1114 C   0  0  2  0  0  0
  -20.6805  -26.9457   22.5400 C   0  0  0  0  0  0
  -19.5788  -26.6375   21.5209 C   0  0  0  0  0  0
  -18.1966  -26.7961   22.1606 C   0  0  0  0  0  0
  -19.1605  -28.8948   23.2743 C   0  0  0  0  0  0
  -18.9518  -30.1510   23.8825 C   0  0  0  0  0  0
  -17.6506  -30.6618   24.0531 C   0  0  0  0  0  0
  -25.9145  -34.9232   23.4937 C   0  0  0  0  0  0
  -16.5389  -29.9089   23.6351 C   0  0  0  0  0  0
  -16.7316  -28.6510   23.0365 C   0  0  0  0  0  0
  -26.4639  -31.6463   25.0703 C   0  0  0  0  0  0
  -25.3702  -31.3776   26.1312 C   0  0  0  0  0  0
  -27.0595  -30.2802   24.6665 C   0  0  0  0  0  0
  -27.6096  -32.4337   25.7501 C   0  0  0  0  0  0
  -27.5551  -37.1706   24.8475 C   0  0  0  0  0  0
  -21.4472  -29.3020   22.3431 N   0  0  0  0  0  0
  -26.4262  -37.3616   23.9409 N   0  0  0  0  0  0
  -24.8037  -30.9206   22.0752 N   0  0  0  0  0  0
  -23.4204  -28.7869   23.3111 O   0  0  0  0  0  0
  -28.1818  -25.3285   20.2812 O   0  0  0  0  0  0
  -26.5771  -34.8840   22.4551 O   0  0  0  0  0  0
  -23.5955  -32.1019   23.6306 O   0  0  0  0  0  0
  -28.9361  -21.8808   20.2378 C   0  0  0  0  0  0
  -31.2487  -20.9135   19.9048 C   0  0  0  0  0  0
  -29.6583  -18.9401   20.2555 C   0  0  0  0  0  0
  -30.3206  -22.0088   20.0066 C   0  0  0  0  0  0
  -28.6950  -20.2602   20.3512 C   0  0  0  0  0  0
  -30.9503  -19.4995   19.9991 C   0  0  0  0  0  0
  -32.7030  -21.3101   19.6501 C   0  0  0  0  0  0
  -27.9559  -23.5279   20.2734 C   0  0  0  0  0  0
  -29.5252  -17.1728   20.3429 N   0  0  0  0  0  0
  -30.7956  -23.2708   19.8581 F   0  0  0  0  0  0
  -27.3974  -19.9328   20.5698 F   0  0  0  0  0  0
  -32.2744  -18.4189   19.7309 Cl  0  0  0  0  0  0
  -31.4027  -13.4467   19.1556 H   0  0  0  0  0  0
  -30.6089  -12.3588   20.2331 H   0  0  0  0  0  0
  -30.0440  -11.8348   17.8440 H   0  0  0  0  0  0
  -29.5187  -13.4758   17.5808 H   0  0  0  0  0  0
  -28.1593  -11.3174   19.1925 H   0  0  0  0  0  0
  -27.4754  -12.2669   17.8914 H   0  0  0  0  0  0
  -27.4403  -14.2331   19.2224 H   0  0  0  0  0  0
  -28.9011  -12.8343   21.5069 H   0  0  0  0  0  0
  -28.1510  -14.4051   21.6146 H   0  0  0  0  0  0
  -25.2803   -9.5689   22.4720 H   0  0  0  0  0  0
  -24.0028   -7.4655   22.7488 H   0  0  0  0  0  0
  -21.0854   -8.8815   19.8965 H   0  0  0  0  0  0
  -22.3763  -10.9672   19.6156 H   0  0  0  0  0  0
  -21.2035   -7.6157   23.9727 H   0  0  0  0  0  0
  -21.1457   -6.0505   25.9070 H   0  0  0  0  0  0
  -22.0604   -2.7620   23.2820 H   0  0  0  0  0  0
  -22.3980  -11.9944   22.4963 H   0  0  0  0  0  0
  -21.0936  -13.1209   22.2506 H   0  0  0  0  0  0
  -24.6032  -15.8390   20.5618 H   0  0  0  0  0  0
  -26.2038  -15.6611   20.0531 H   0  0  0  0  0  0
  -26.7589  -32.4847   23.0752 H   0  0  0  0  0  0
  -25.0080  -33.9231   25.0000 H   0  0  0  0  0  0
  -22.8611  -31.2269   21.3026 H   0  0  0  0  0  0
  -23.3793  -35.9388   23.3293 H   0  0  0  0  0  0
  -24.3574  -36.8762   22.2082 H   0  0  0  0  0  0
  -23.7233  -37.6248   23.6756 H   0  0  0  0  0  0
  -26.3331  -31.2014   20.6352 H   0  0  0  0  0  0
  -26.9548  -30.5480   22.1011 H   0  0  0  0  0  0
  -28.1759  -28.2879   21.3312 H   0  0  0  0  0  0
  -25.8203  -25.5629   19.0021 H   0  0  0  0  0  0
  -24.0474  -27.1941   18.9257 H   0  0  0  0  0  0
  -23.9888  -30.4288   19.3811 H   0  0  0  0  0  0
  -22.8891  -29.1548   19.8077 H   0  0  0  0  0  0
  -25.1364  -36.1577   25.0792 H   0  0  0  0  0  0
  -21.0040  -28.3442   24.1247 H   0  0  0  0  0  0
  -20.5652  -26.2449   23.3676 H   0  0  0  0  0  0
  -21.6676  -26.7389   22.1237 H   0  0  0  0  0  0
  -19.6955  -25.6263   21.1298 H   0  0  0  0  0  0
  -19.6725  -27.3135   20.6694 H   0  0  0  0  0  0
  -17.4231  -26.6663   21.4011 H   0  0  0  0  0  0
  -18.0362  -26.0153   22.9052 H   0  0  0  0  0  0
  -19.7990  -30.7314   24.2213 H   0  0  0  0  0  0
  -17.5062  -31.6310   24.5122 H   0  0  0  0  0  0
  -15.5386  -30.2956   23.7751 H   0  0  0  0  0  0
  -15.8718  -28.0793   22.7152 H   0  0  0  0  0  0
  -24.5909  -30.7101   25.7595 H   0  0  0  0  0  0
  -24.8881  -32.2987   26.4595 H   0  0  0  0  0  0
  -25.7906  -30.9017   27.0183 H   0  0  0  0  0  0
  -26.3342  -29.6390   24.1644 H   0  0  0  0  0  0
  -27.3961  -29.7267   25.5437 H   0  0  0  0  0  0
  -27.9345  -30.3901   24.0265 H   0  0  0  0  0  0
  -27.2656  -33.3710   26.1877 H   0  0  0  0  0  0
  -28.4007  -32.6767   25.0399 H   0  0  0  0  0  0
  -28.0670  -31.8602   26.5565 H   0  0  0  0  0  0
  -28.2559  -38.0009   24.7509 H   0  0  0  0  0  0
  -28.1065  -36.2538   24.6334 H   0  0  0  0  0  0
  -27.2282  -37.1379   25.8885 H   0  0  0  0  0  0
  -20.9842  -29.8637   21.6417 H   0  0  0  0  0  0
  -26.0081  -38.2663   24.1400 H   0  0  0  0  0  0
  -32.9074  -22.3496   19.9014 H   0  0  0  0  0  0
  -32.9547  -21.1689   18.5985 H   0  0  0  0  0  0
  -33.3945  -20.7270   20.2579 H   0  0  0  0  0  0
  -27.3447  -23.3873   21.1646 H   0  0  0  0  0  0
  -27.2473  -23.3857   19.4573 H   0  0  0  0  0  0
  -28.5444  -16.9478   20.4279 H   0  0  0  0  0  0
  1 25  1  0  0  0
  1 30  2  0  0  0
  1 79  1  0  0  0
  2  3  1  0  0  0
  2 25  1  0  0  0
  2 83  1  0  0  0
  2 84  1  0  0  0
  3  4  1  0  0  0
  3 85  1  0  0  0
  3 86  1  0  0  0
  4  5  1  0  0  0
  4 87  1  0  0  0
  4 88  1  0  0  0
  5  6  1  0  0  0
  5 26  1  0  0  0
  5 89  1  0  0  0
  6 25  1  0  0  0
  6 90  1  0  0  0
  6 91  1  0  0  0
  7  8  2  0  0  0
  7 26  1  0  0  0
  7 29  1  0  0  0
  8  9  1  0  0  0
  8 22  1  0  0  0
  9 10  1  0  0  0
  9 27  2  0  0  0
 10 11  2  0  0  0
 10 15  1  0  0  0
 11 12  1  0  0  0
 11 92  1  0  0  0
 12 13  2  0  0  0
 12 93  1  0  0  0
 13 14  1  0  0  0
 13 31  1  0  0  0
 14 15  2  0  0  0
 14 94  1  0  0  0
 15 95  1  0  0  0
 16 17  2  0  0  0
 16 21  1  0  0  0
 16 31  1  0  0  0
 17 18  1  0  0  0
 17 96  1  0  0  0
 18 19  2  0  0  0
 18 97  1  0  0  0
 19 20  1  0  0  0
 19 24  1  0  0  0
 20 21  2  0  0  0
 20 98  1  0  0  0
 21 23  1  0  0  0
 22 28  1  0  0  0
 22 32  2  0  0  0
 26 27  1  0  0  0
 28 99  1  0  0  0
 28100  1  0  0  0
 29101  1  0  0  0
 29102  1  0  0  0
 33 34  1  0  0  0
 33 66  1  0  0  0
 33 70  2  0  0  0
 34 36  1  0  0  0
 34 59  1  0  0  0
 34103  1  0  0  0
 35 44  2  0  0  0
 35 45  1  0  0  0
 35 68  1  0  0  0
 36 56  1  0  0  0
 36104  1  0  0  0
 37 39  1  0  0  0
 37 47  1  0  0  0
 37 66  1  0  0  0
 37105  1  0  0  0
 38 43  2  0  0  0
 38 46  1  0  0  0
 38 47  1  0  0  0
 39 64  1  0  0  0
 39 67  2  0  0  0
 40 52  1  0  0  0
 40 53  2  0  0  0
 40 58  1  0  0  0
 41106  1  0  0  0
 41107  1  0  0  0
 41108  1  0  0  0
 41 48  1  0  0  0
 42 43  1  0  0  0
 42 66  1  0  0  0
 42109  1  0  0  0
 42110  1  0  0  0
 43 44  1  0  0  0
 44111  1  0  0  0
 45 46  2  0  0  0
 45112  1  0  0  0
 46113  1  0  0  0
 47114  1  0  0  0
 47115  1  0  0  0
 48 56  1  0  0  0
 48 65  1  0  0  0
 48116  1  0  0  0
 49 50  1  0  0  0
 49 53  1  0  0  0
 49 64  1  0  0  0
 49117  1  0  0  0
 50 51  1  0  0  0
 50118  1  0  0  0
 50119  1  0  0  0
 51 52  1  0  0  0
 51120  1  0  0  0
 51121  1  0  0  0
 52122  1  0  0  0
 52123  1  0  0  0
 53 54  1  0  0  0
 54 55  2  0  0  0
 54124  1  0  0  0
 55 57  1  0  0  0
 55125  1  0  0  0
 56 69  2  0  0  0
 57 58  2  0  0  0
 57126  1  0  0  0
 58127  1  0  0  0
 59 60  1  0  0  0
 59 61  1  0  0  0
 59 62  1  0  0  0
 60128  1  0  0  0
 60129  1  0  0  0
 60130  1  0  0  0
 61131  1  0  0  0
 61132  1  0  0  0
 61133  1  0  0  0
 62134  1  0  0  0
 62135  1  0  0  0
 62136  1  0  0  0
 63 65  1  0  0  0
 63137  1  0  0  0
 63138  1  0  0  0
 63139  1  0  0  0
 64140  1  0  0  0
 65141  1  0  0  0
 68 78  1  0  0  0
 71 74  1  0  0  0
 71 75  2  0  0  0
 71 78  1  0  0  0
 72 74  2  0  0  0
 72 76  1  0  0  0
 72 77  1  0  0  0
 73 75  1  0  0  0
 73 76  2  0  0  0
 73 79  1  0  0  0
 74 80  1  0  0  0
 75 81  1  0  0  0
 76 82  1  0  0  0
 77142  1  0  0  0
 77143  1  0  0  0
 77144  1  0  0  0
 78145  1  0  0  0
 78146  1  0  0  0
 79147  1  0  0  0
M  ISO  4   1 100  68 101  78 101  79 100
M  END
> <chiral flag>
0

> <version>
0

> <s_m_source_file>
/data/baiqing/PycharmProjects/Reinvent-master-3.2/result/LINK_invent/BTK/process_docking_weight1_custom_sum_contain_oxygen_bond_distance_aromatic_linkinvent_7_9_3/rearranged_h_0019.sdf

> <i_m_source_file_index>
66

> <r_mmod_Potential_Energy-OPLS-2005>
2780.54931640625

> <r_mmod_Stretch_Energy-OPLS-2005>
1277.96911621094

> <r_mmod_Bend_Energy-OPLS-2005>
652.787292480469

> <r_mmod_Torsional_Energy-OPLS-2005>
227.118087768555

> <r_mmod_Improper_Torsional_Energy-OPLS-2005>
3.77797555923462

> <r_mmod_Van_der_Waal_Energy-OPLS-2005>
142.752822875977

> <r_mmod_Electrostatic_Energy-OPLS-2005>
-414.152618408203

> <r_mmod_Solvation_Energy-OPLS-2005>
-216.2265625

> <b_mmod_Minimization_Converged-OPLS-2005>
0

> <r_mmod_RMS_Derivative-OPLS-2005>
3.41129446029663

$$$$
66
                    3D
 Structure written by MMmdl.
156164  0  0  1  0            999 V2000
  -30.4281  -15.1718   20.3961 C   0  0  0  0  0  0
  -30.4471  -12.7395   19.5228 C   0  0  0  0  0  0
  -29.5351  -12.5632   18.2814 C   0  0  0  0  0  0
  -28.0753  -12.3085   18.7004 C   0  0  0  0  0  0
  -27.6195  -13.2633   19.8317 C   0  0  2  0  0  0
  -28.6545  -13.3692   20.9712 C   0  0  0  0  0  0
  -25.2410  -13.8236   20.5718 C   0  0  0  0  0  0
  -24.1755  -13.0438   20.9254 C   0  0  0  0  0  0
  -24.6395  -11.6929   20.8771 C   0  0  0  0  0  0
  -23.9090  -10.4290   21.0419 C   0  0  0  0  0  0
  -24.3638   -9.4202   21.9192 C   0  0  0  0  0  0
  -23.6305   -8.2243   22.0756 C   0  0  0  0  0  0
  -22.4288   -8.0287   21.3544 C   0  0  0  0  0  0
  -21.9930   -9.0263   20.4646 C   0  0  0  0  0  0
  -22.7267  -10.2135   20.3059 C   0  0  0  0  0  0
  -21.6852   -6.0743   22.5281 C   0  0  0  0  0  0
  -21.4010   -6.5644   23.8215 C   0  0  0  0  0  0
  -21.3660   -5.6796   24.9177 C   0  0  0  0  0  0
  -21.6040   -4.3058   24.7223 C   0  0  0  0  0  0
  -21.8823   -3.8151   23.4344 C   0  0  0  0  0  0
  -21.9190   -4.6971   22.3401 C   0  0  0  0  0  0
  -22.7773  -13.5194   21.1908 C   0  0  0  0  0  0
  -22.1662   -4.2158   21.0979 F   0  0  0  0  0  0
  -21.5631   -3.4541   25.7734 F   0  0  0  0  0  0
  -29.9005  -13.8592   20.3634 N   0  0  0  0  0  0
  -26.2835  -12.9488   20.3213 N   0  0  0  0  0  0
  -25.9327  -11.6608   20.5734 N   0  0  0  0  0  0
  -22.0433  -12.8166   22.0457 N   0  0  0  0  0  0
  -25.4040  -15.1967   20.4110 N   0  0  0  0  0  0
  -31.6411  -15.2380   20.1492 O   0  0  0  0  0  0
  -21.6644   -6.8889   21.4245 O   0  0  0  0  0  0
  -22.3452  -14.5499   20.6755 O   0  0  0  0  0  0
  -24.6581  -31.8278   23.1746 C   0  0  0  0  0  0
  -25.9290  -32.4605   23.8179 C   0  0  1  0  0  0
  -27.2115  -26.9729   20.1809 C   0  0  0  0  0  0
  -25.5984  -33.8414   24.2094 N   0  0  0  0  0  0
  -23.4696  -30.4430   21.5226 C   0  0  2  0  0  0
  -24.9205  -28.8385   20.1143 C   0  0  0  0  0  0
  -22.7640  -29.4455   22.4781 C   0  0  0  0  0  0
  -18.0310  -28.1421   22.8458 C   0  0  0  0  0  0
  -24.1484  -36.7199   23.2644 C   0  0  0  0  0  0
  -26.0360  -30.6519   21.3962 C   0  0  0  0  0  0
  -26.1047  -29.2454   20.7418 C   0  0  0  0  0  0
  -27.2485  -28.3338   20.7486 C   0  0  0  0  0  0
  -25.9978  -26.7062   19.5096 C   0  0  0  0  0  0
  -24.8897  -27.5885   19.4776 C   0  0  0  0  0  0
  -23.7075  -29.7640   20.1472 C   0  0  0  0  0  0
  -25.4127  -36.2970   24.0304 C   0  0  1  0  0  0
  -20.5938  -28.3744   23.1201 C   0  0  2  0  0  0
  -20.6789  -26.9432   22.5405 C   0  0  0  0  0  0
  -19.5765  -26.6394   21.5211 C   0  0  0  0  0  0
  -18.1944  -26.7952   22.1617 C   0  0  0  0  0  0
  -19.1576  -28.8903   23.2813 C   0  0  0  0  0  0
  -18.9494  -30.1489   23.8850 C   0  0  0  0  0  0
  -17.6495  -30.6608   24.0561 C   0  0  0  0  0  0
  -25.9098  -34.9357   23.5015 C   0  0  0  0  0  0
  -16.5380  -29.9104   23.6353 C   0  0  0  0  0  0
  -16.7295  -28.6532   23.0353 C   0  0  0  0  0  0
  -26.4565  -31.6528   25.0682 C   0  0  0  0  0  0
  -25.3701  -31.3775   26.1344 C   0  0  0  0  0  0
  -27.0453  -30.2902   24.6365 C   0  0  0  0  0  0
  -27.6070  -32.4320   25.7489 C   0  0  0  0  0  0
  -27.5554  -37.1754   24.8471 C   0  0  0  0  0  0
  -21.4315  -29.3042   22.3547 N   0  0  0  0  0  0
  -26.4266  -37.3709   23.9417 N   0  0  0  0  0  0
  -24.7420  -30.9990   22.0857 N   0  0  0  0  0  0
  -23.4222  -28.8012   23.2984 O   0  0  0  0  0  0
  -28.2365  -25.9034   20.2218 O   0  0  0  0  0  0
  -26.5696  -34.8886   22.4599 O   0  0  0  0  0  0
  -23.5670  -32.1232   23.6886 O   0  0  0  0  0  0
  -28.7376  -20.1789   19.2879 C   0  0  0  0  0  0
  -29.0533  -21.1714   20.3033 C   0  0  0  0  0  0
  -28.9413  -18.7095   19.3435 C   0  0  0  0  0  0
  -29.6226  -20.4071   21.4148 C   0  0  0  0  0  0
  -29.8476  -18.9251   21.4756 C   0  0  0  0  0  0
  -29.5546  -17.9525   20.4248 C   0  0  0  0  0  0
  -28.4503  -17.8942   18.1602 C   0  0  0  0  0  0
  -30.0419  -21.2426   22.6198 C   0  0  0  0  0  0
  -30.4125  -18.3417   22.7653 C   0  0  0  0  0  0
  -29.0795  -22.9045   20.0972 C   0  0  0  0  0  0
  -27.9894  -24.2893   20.3123 C   0  0  0  0  0  0
  -29.5670  -16.3514   20.5273 N   0  0  0  0  0  0
  -31.4683  -12.9456   19.1992 H   0  0  0  0  0  0
  -30.5014  -11.8152   20.0990 H   0  0  0  0  0  0
  -29.8956  -11.7427   17.6587 H   0  0  0  0  0  0
  -29.5846  -13.4617   17.6645 H   0  0  0  0  0  0
  -28.0060  -11.2759   19.0450 H   0  0  0  0  0  0
  -27.4102  -12.3902   17.8402 H   0  0  0  0  0  0
  -27.5559  -14.2471   19.3655 H   0  0  0  0  0  0
  -28.7966  -12.4090   21.4690 H   0  0  0  0  0  0
  -28.3109  -14.0665   21.7370 H   0  0  0  0  0  0
  -25.2783   -9.5676   22.4769 H   0  0  0  0  0  0
  -24.0014   -7.4629   22.7470 H   0  0  0  0  0  0
  -21.0864   -8.8786   19.8942 H   0  0  0  0  0  0
  -22.3736  -10.9680   19.6168 H   0  0  0  0  0  0
  -21.2005   -7.6150   23.9720 H   0  0  0  0  0  0
  -21.1476   -6.0524   25.9079 H   0  0  0  0  0  0
  -22.0599   -2.7613   23.2841 H   0  0  0  0  0  0
  -22.4062  -11.9823   22.4827 H   0  0  0  0  0  0
  -21.1046  -13.1164   22.2672 H   0  0  0  0  0  0
  -24.6277  -15.8412   20.5164 H   0  0  0  0  0  0
  -26.2280  -15.6339   20.0222 H   0  0  0  0  0  0
  -26.7344  -32.5171   23.0883 H   0  0  0  0  0  0
  -25.0114  -33.9497   25.0237 H   0  0  0  0  0  0
  -22.7800  -31.2733   21.3553 H   0  0  0  0  0  0
  -23.3756  -35.9521   23.3300 H   0  0  0  0  0  0
  -24.3554  -36.8855   22.2057 H   0  0  0  0  0  0
  -23.7241  -37.6388   23.6707 H   0  0  0  0  0  0
  -26.2070  -31.3971   20.6182 H   0  0  0  0  0  0
  -26.8996  -30.7099   22.0452 H   0  0  0  0  0  0
  -28.1478  -28.6452   21.2610 H   0  0  0  0  0  0
  -25.8746  -25.7567   19.0114 H   0  0  0  0  0  0
  -23.9905  -27.2752   18.9645 H   0  0  0  0  0  0
  -23.8646  -30.5338   19.3917 H   0  0  0  0  0  0
  -22.8180  -29.2200   19.8257 H   0  0  0  0  0  0
  -25.1321  -36.1761   25.0797 H   0  0  0  0  0  0
  -21.0016  -28.3348   24.1331 H   0  0  0  0  0  0
  -20.5672  -26.2357   23.3634 H   0  0  0  0  0  0
  -21.6653  -26.7422   22.1205 H   0  0  0  0  0  0
  -19.6930  -25.6303   21.1253 H   0  0  0  0  0  0
  -19.6714  -27.3187   20.6726 H   0  0  0  0  0  0
  -17.4215  -26.6686   21.4018 H   0  0  0  0  0  0
  -18.0332  -26.0112   22.9028 H   0  0  0  0  0  0
  -19.7975  -30.7306   24.2201 H   0  0  0  0  0  0
  -17.5061  -31.6285   24.5169 H   0  0  0  0  0  0
  -15.5383  -30.3001   23.7714 H   0  0  0  0  0  0
  -15.8684  -28.0850   22.7087 H   0  0  0  0  0  0
  -24.5934  -30.7052   25.7672 H   0  0  0  0  0  0
  -24.8820  -32.2968   26.4586 H   0  0  0  0  0  0
  -25.7950  -30.9092   27.0228 H   0  0  0  0  0  0
  -26.3111  -29.6589   24.1347 H   0  0  0  0  0  0
  -27.3988  -29.7245   25.4995 H   0  0  0  0  0  0
  -27.9050  -30.4097   23.9769 H   0  0  0  0  0  0
  -27.2663  -33.3692   26.1900 H   0  0  0  0  0  0
  -28.3979  -32.6756   25.0380 H   0  0  0  0  0  0
  -28.0613  -31.8536   26.5537 H   0  0  0  0  0  0
  -28.2565  -38.0054   24.7517 H   0  0  0  0  0  0
  -28.1060  -36.2587   24.6314 H   0  0  0  0  0  0
  -27.2269  -37.1412   25.8872 H   0  0  0  0  0  0
  -20.9553  -29.8765   21.6714 H   0  0  0  0  0  0
  -26.0111  -38.2761   24.1453 H   0  0  0  0  0  0
  -28.3173  -20.5708   18.3721 H   0  0  0  0  0  0
  -28.1495  -18.5239   17.3230 H   0  0  0  0  0  0
  -27.5922  -17.2880   18.4520 H   0  0  0  0  0  0
  -29.2329  -17.2213   17.8087 H   0  0  0  0  0  0
  -29.5100  -22.1929   22.6578 H   0  0  0  0  0  0
  -31.1107  -21.4543   22.5804 H   0  0  0  0  0  0
  -29.8211  -20.7477   23.5638 H   0  0  0  0  0  0
  -31.3197  -18.8637   23.0697 H   0  0  0  0  0  0
  -30.6734  -17.2893   22.6690 H   0  0  0  0  0  0
  -29.6792  -18.4211   23.5686 H   0  0  0  0  0  0
  -29.3858  -22.9989   19.0553 H   0  0  0  0  0  0
  -29.9789  -23.2015   20.6353 H   0  0  0  0  0  0
  -27.5780  -24.1645   21.3144 H   0  0  0  0  0  0
  -27.1469  -24.0842   19.6535 H   0  0  0  0  0  0
  -28.6293  -16.0111   20.6726 H   0  0  0  0  0  0
  1 25  1  0  0  0
  1 30  2  0  0  0
  1 82  1  0  0  0
  2  3  1  0  0  0
  2 25  1  0  0  0
  2 83  1  0  0  0
  2 84  1  0  0  0
  3  4  1  0  0  0
  3 85  1  0  0  0
  3 86  1  0  0  0
  4  5  1  0  0  0
  4 87  1  0  0  0
  4 88  1  0  0  0
  5  6  1  0  0  0
  5 26  1  0  0  0
  5 89  1  0  0  0
  6 25  1  0  0  0
  6 90  1  0  0  0
  6 91  1  0  0  0
  7  8  2  0  0  0
  7 26  1  0  0  0
  7 29  1  0  0  0
  8  9  1  0  0  0
  8 22  1  0  0  0
  9 10  1  0  0  0
  9 27  2  0  0  0
 10 11  2  0  0  0
 10 15  1  0  0  0
 11 12  1  0  0  0
 11 92  1  0  0  0
 12 13  2  0  0  0
 12 93  1  0  0  0
 13 14  1  0  0  0
 13 31  1  0  0  0
 14 15  2  0  0  0
 14 94  1  0  0  0
 15 95  1  0  0  0
 16 17  2  0  0  0
 16 21  1  0  0  0
 16 31  1  0  0  0
 17 18  1  0  0  0
 17 96  1  0  0  0
 18 19  2  0  0  0
 18 97  1  0  0  0
 19 20  1  0  0  0
 19 24  1  0  0  0
 20 21  2  0  0  0
 20 98  1  0  0  0
 21 23  1  0  0  0
 22 28  1  0  0  0
 22 32  2  0  0  0
 26 27  1  0  0  0
 28 99  1  0  0  0
 28100  1  0  0  0
 29101  1  0  0  0
 29102  1  0  0  0
 33 34  1  0  0  0
 33 66  1  0  0  0
 33 70  2  0  0  0
 34 36  1  0  0  0
 34 59  1  0  0  0
 34103  1  0  0  0
 35 44  2  0  0  0
 35 45  1  0  0  0
 35 68  1  0  0  0
 36 56  1  0  0  0
 36104  1  0  0  0
 37 39  1  0  0  0
 37 47  1  0  0  0
 37 66  1  0  0  0
 37105  1  0  0  0
 38 43  2  0  0  0
 38 46  1  0  0  0
 38 47  1  0  0  0
 39 64  1  0  0  0
 39 67  2  0  0  0
 40 52  1  0  0  0
 40 53  2  0  0  0
 40 58  1  0  0  0
 41106  1  0  0  0
 41107  1  0  0  0
 41108  1  0  0  0
 41 48  1  0  0  0
 42 43  1  0  0  0
 42 66  1  0  0  0
 42109  1  0  0  0
 42110  1  0  0  0
 43 44  1  0  0  0
 44111  1  0  0  0
 45 46  2  0  0  0
 45112  1  0  0  0
 46113  1  0  0  0
 47114  1  0  0  0
 47115  1  0  0  0
 48 56  1  0  0  0
 48 65  1  0  0  0
 48116  1  0  0  0
 49 50  1  0  0  0
 49 53  1  0  0  0
 49 64  1  0  0  0
 49117  1  0  0  0
 50 51  1  0  0  0
 50118  1  0  0  0
 50119  1  0  0  0
 51 52  1  0  0  0
 51120  1  0  0  0
 51121  1  0  0  0
 52122  1  0  0  0
 52123  1  0  0  0
 53 54  1  0  0  0
 54 55  2  0  0  0
 54124  1  0  0  0
 55 57  1  0  0  0
 55125  1  0  0  0
 56 69  2  0  0  0
 57 58  2  0  0  0
 57126  1  0  0  0
 58127  1  0  0  0
 59 60  1  0  0  0
 59 61  1  0  0  0
 59 62  1  0  0  0
 60128  1  0  0  0
 60129  1  0  0  0
 60130  1  0  0  0
 61131  1  0  0  0
 61132  1  0  0  0
 61133  1  0  0  0
 62134  1  0  0  0
 62135  1  0  0  0
 62136  1  0  0  0
 63 65  1  0  0  0
 63137  1  0  0  0
 63138  1  0  0  0
 63139  1  0  0  0
 64140  1  0  0  0
 65141  1  0  0  0
 68 81  1  0  0  0
 71 72  2  0  0  0
 71 73  1  0  0  0
 71142  1  0  0  0
 72 74  1  0  0  0
 72 80  1  0  0  0
 73 76  2  0  0  0
 73 77  1  0  0  0
 74 75  2  0  0  0
 74 78  1  0  0  0
 75 76  1  0  0  0
 75 79  1  0  0  0
 76 82  1  0  0  0
 77143  1  0  0  0
 77144  1  0  0  0
 77145  1  0  0  0
 78146  1  0  0  0
 78147  1  0  0  0
 78148  1  0  0  0
 79149  1  0  0  0
 79150  1  0  0  0
 79151  1  0  0  0
 80 81  1  0  0  0
 80152  1  0  0  0
 80153  1  0  0  0
 81154  1  0  0  0
 81155  1  0  0  0
 82156  1  0  0  0
M  ISO  4   1 100  68 101  81 101  82 100
M  END
> <chiral flag>
0

> <version>
0

> <s_m_source_file>
/data/baiqing/PycharmProjects/Reinvent-master-3.2/result/LINK_invent/BTK/process_docking_weight1_custom_sum_contain_oxygen_bond_distance_aromatic_linkinvent_7_9_3/rearranged_h_0019.sdf

> <i_m_source_file_index>
67

> <r_mmod_Potential_Energy-OPLS-2005>
1009.92761230469

> <r_mmod_Stretch_Energy-OPLS-2005>
464.266937255859

> <r_mmod_Bend_Energy-OPLS-2005>
392.917633056641

> <r_mmod_Torsional_Energy-OPLS-2005>
252.857391357422

> <r_mmod_Improper_Torsional_Energy-OPLS-2005>
8.40439987182617

> <r_mmod_Van_der_Waal_Energy-OPLS-2005>
131.86799621582

> <r_mmod_Electrostatic_Energy-OPLS-2005>
-406.583984375

> <r_mmod_Solvation_Energy-OPLS-2005>
-209.162887573242

> <b_mmod_Minimization_Converged-OPLS-2005>
0

> <r_mmod_RMS_Derivative-OPLS-2005>
1.49847292900085

$$$$
67
                    3D
 Structure written by MMmdl.
179187  0  0  1  0            999 V2000
  -30.6709  -14.3804   20.5595 C   0  0  0  0  0  0
  -30.4157  -12.2265   19.4012 C   0  0  0  0  0  0
  -29.5035  -12.4946   18.1819 C   0  0  0  0  0  0
  -28.0178  -12.3486   18.5882 C   0  0  0  0  0  0
  -27.6785  -13.1451   19.8845 C   0  0  2  0  0  0
  -28.7156  -12.8368   20.9958 C   0  0  0  0  0  0
  -25.2815  -13.7691   20.5611 C   0  0  0  0  0  0
  -24.1953  -13.0150   20.9249 C   0  0  0  0  0  0
  -24.6436  -11.6617   20.8722 C   0  0  0  0  0  0
  -23.9044  -10.4094   21.0443 C   0  0  0  0  0  0
  -24.3582   -9.4046   21.9246 C   0  0  0  0  0  0
  -23.6264   -8.2094   22.0789 C   0  0  0  0  0  0
  -22.4213   -8.0196   21.3571 C   0  0  0  0  0  0
  -21.9875   -9.0159   20.4643 C   0  0  0  0  0  0
  -22.7244  -10.2019   20.3088 C   0  0  0  0  0  0
  -21.6778   -6.0700   22.5303 C   0  0  0  0  0  0
  -21.3997   -6.5625   23.8230 C   0  0  0  0  0  0
  -21.3690   -5.6798   24.9209 C   0  0  0  0  0  0
  -21.6043   -4.3056   24.7257 C   0  0  0  0  0  0
  -21.8797   -3.8130   23.4364 C   0  0  0  0  0  0
  -21.9161   -4.6938   22.3422 C   0  0  0  0  0  0
  -22.8038  -13.5149   21.1861 C   0  0  0  0  0  0
  -22.1634   -4.2128   21.1003 F   0  0  0  0  0  0
  -21.5652   -3.4518   25.7770 F   0  0  0  0  0  0
  -30.0528  -13.1671   20.4657 N   0  0  0  0  0  0
  -26.3149  -12.8805   20.3353 N   0  0  0  0  0  0
  -25.9331  -11.6037   20.5674 N   0  0  0  0  0  0
  -22.0598  -12.8138   22.0418 N   0  0  0  0  0  0
  -25.4873  -15.1240   20.3927 N   0  0  0  0  0  0
  -31.7331  -14.6699   20.0069 O   0  0  0  0  0  0
  -21.6537   -6.8812   21.4266 O   0  0  0  0  0  0
  -22.3679  -14.5365   20.6647 O   0  0  0  0  0  0
  -24.6014  -31.8691   23.2345 C   0  0  0  0  0  0
  -25.8782  -32.4844   23.8818 C   0  0  1  0  0  0
  -27.1455  -27.3921   20.0487 C   0  0  0  0  0  0
  -25.5779  -33.8704   24.2692 N   0  0  0  0  0  0
  -23.4111  -30.4835   21.5729 C   0  0  2  0  0  0
  -24.8650  -29.0238   20.0656 C   0  0  0  0  0  0
  -22.7740  -29.4411   22.5120 C   0  0  0  0  0  0
  -18.0224  -28.1084   22.8991 C   0  0  0  0  0  0
  -24.1466  -36.7269   23.2664 C   0  0  0  0  0  0
  -25.9441  -30.8132   21.4205 C   0  0  0  0  0  0
  -26.0133  -29.4522   20.7442 C   0  0  0  0  0  0
  -27.1599  -28.6140   20.7867 C   0  0  0  0  0  0
  -26.0943  -27.1638   19.1644 C   0  0  0  0  0  0
  -24.9058  -27.8916   19.2615 C   0  0  0  0  0  0
  -23.6034  -29.8398   20.1659 C   0  0  0  0  0  0
  -25.4086  -36.3131   24.0417 C   0  0  1  0  0  0
  -20.5774  -28.3407   23.1615 C   0  0  2  0  0  0
  -20.6611  -26.9054   22.5869 C   0  0  0  0  0  0
  -19.5311  -26.5433   21.6261 C   0  0  0  0  0  0
  -18.1719  -26.7185   22.3054 C   0  0  0  0  0  0
  -19.1500  -28.8617   23.3009 C   0  0  0  0  0  0
  -18.9415  -30.1416   23.8554 C   0  0  0  0  0  0
  -17.6458  -30.6732   24.0152 C   0  0  0  0  0  0
  -25.8990  -34.9483   23.5361 C   0  0  0  0  0  0
  -16.5332  -29.9272   23.6245 C   0  0  0  0  0  0
  -16.7252  -28.6397   23.0656 C   0  0  0  0  0  0
  -26.4373  -31.6573   25.1054 C   0  0  0  0  0  0
  -25.3805  -31.3452   26.1867 C   0  0  0  0  0  0
  -27.0251  -30.3083   24.6332 C   0  0  0  0  0  0
  -27.6044  -32.4244   25.7633 C   0  0  0  0  0  0
  -27.5629  -37.1810   24.8515 C   0  0  0  0  0  0
  -21.4387  -29.2867   22.4258 N   0  0  0  0  0  0
  -26.4366  -37.3703   23.9381 N   0  0  0  0  0  0
  -24.6703  -31.0734   22.1273 N   0  0  0  0  0  0
  -23.4689  -28.7617   23.2722 O   0  0  0  0  0  0
  -28.0793  -26.3743   20.1822 O   0  0  0  0  0  0
  -26.5414  -34.8840   22.4863 O   0  0  0  0  0  0
  -23.5138  -32.1448   23.7589 O   0  0  0  0  0  0
  -24.2588  -21.4424   19.6699 C   0  0  0  0  0  0
  -23.5323  -20.2252   19.5179 C   0  0  0  0  0  0
  -25.2810  -21.5745   20.6572 C   0  0  0  0  0  0
  -24.0914  -19.0387   20.0729 C   0  0  0  0  0  0
  -25.5022  -20.4327   21.4604 C   0  0  0  0  0  0
  -25.2043  -19.1589   20.9545 C   0  0  0  0  0  0
  -22.2034  -20.2009   18.7738 C   0  0  0  0  0  0
  -23.4572  -17.6803   19.8240 C   0  0  0  0  0  0
  -25.6473  -20.6443   22.9674 C   0  0  0  0  0  0
  -26.7955  -23.2410   18.5785 C   0  0  0  0  0  0
  -24.9466  -24.6141   19.7343 C   0  0  0  0  0  0
  -25.7461  -17.4684   22.6076 C   0  0  0  0  0  0
  -26.1237  -22.8513   20.9903 C   0  0  0  0  0  0
  -28.2800  -17.0100   21.2835 C   0  0  0  0  0  0
  -29.5795  -16.6027   20.5760 C   0  0  0  0  0  0
  -27.3373  -18.0860   20.6727 C   0  0  0  0  0  0
  -27.5695  -24.9734   20.3666 C   0  0  0  0  0  0
  -26.3591  -23.9620   19.8954 C   0  0  0  0  0  0
  -29.9335  -15.3062   21.1654 N   0  0  0  0  0  0
  -25.9971  -18.0556   21.2887 N   0  0  0  0  0  0
  -31.4750  -12.2874   19.1384 H   0  0  0  0  0  0
  -30.2545  -11.1998   19.7498 H   0  0  0  0  0  0
  -29.7366  -11.7842   17.3877 H   0  0  0  0  0  0
  -29.6934  -13.4870   17.7723 H   0  0  0  0  0  0
  -27.8338  -11.2774   18.7525 H   0  0  0  0  0  0
  -27.3517  -12.6293   17.7705 H   0  0  0  0  0  0
  -27.7476  -14.2071   19.6490 H   0  0  0  0  0  0
  -28.6709  -11.7683   21.2172 H   0  0  0  0  0  0
  -28.4899  -13.3208   21.9513 H   0  0  0  0  0  0
  -25.2712   -9.5395   22.4873 H   0  0  0  0  0  0
  -23.9876   -7.4410   22.7459 H   0  0  0  0  0  0
  -21.0826   -8.8756   19.8892 H   0  0  0  0  0  0
  -22.3821  -10.9602   19.6197 H   0  0  0  0  0  0
  -21.2003   -7.6117   23.9765 H   0  0  0  0  0  0
  -21.1567   -6.0498   25.9112 H   0  0  0  0  0  0
  -22.0548   -2.7591   23.2872 H   0  0  0  0  0  0
  -22.4133  -11.9792   22.4813 H   0  0  0  0  0  0
  -21.1264  -13.1287   22.2588 H   0  0  0  0  0  0
  -24.8367  -15.8373   20.6900 H   0  0  0  0  0  0
  -26.3890  -15.5285   20.1799 H   0  0  0  0  0  0
  -26.6900  -32.5389   23.1655 H   0  0  0  0  0  0
  -25.0282  -34.0037   25.1049 H   0  0  0  0  0  0
  -22.6821  -31.2879   21.4555 H   0  0  0  0  0  0
  -23.3691  -35.9621   23.3308 H   0  0  0  0  0  0
  -24.3771  -36.8809   22.2112 H   0  0  0  0  0  0
  -23.7097  -37.6482   23.6603 H   0  0  0  0  0  0
  -26.0672  -31.6104   20.6772 H   0  0  0  0  0  0
  -26.8185  -30.8402   22.0780 H   0  0  0  0  0  0
  -28.0078  -28.8756   21.4035 H   0  0  0  0  0  0
  -26.1646  -26.3904   18.4156 H   0  0  0  0  0  0
  -24.0641  -27.6389   18.6315 H   0  0  0  0  0  0
  -23.6399  -30.5980   19.3797 H   0  0  0  0  0  0
  -22.7529  -29.2084   19.8945 H   0  0  0  0  0  0
  -25.1197  -36.2306   25.0915 H   0  0  0  0  0  0
  -20.9428  -28.2491   24.1893 H   0  0  0  0  0  0
  -20.5524  -26.2074   23.4185 H   0  0  0  0  0  0
  -21.6438  -26.6820   22.1833 H   0  0  0  0  0  0
  -19.5862  -25.4891   21.3474 H   0  0  0  0  0  0
  -19.6119  -27.1219   20.7084 H   0  0  0  0  0  0
  -17.3809  -26.5327   21.5685 H   0  0  0  0  0  0
  -18.0785  -26.0018   23.1334 H   0  0  0  0  0  0
  -19.7990  -30.7343   24.1320 H   0  0  0  0  0  0
  -17.5379  -31.6525   24.4482 H   0  0  0  0  0  0
  -15.5328  -30.3393   23.7435 H   0  0  0  0  0  0
  -15.8596  -28.0579   22.7700 H   0  0  0  0  0  0
  -24.6164  -30.6528   25.8268 H   0  0  0  0  0  0
  -24.8831  -32.2431   26.5592 H   0  0  0  0  0  0
  -25.8490  -30.8672   27.0485 H   0  0  0  0  0  0
  -26.2956  -29.6929   24.1071 H   0  0  0  0  0  0
  -27.3616  -29.7191   25.4877 H   0  0  0  0  0  0
  -27.8902  -30.4413   23.9792 H   0  0  0  0  0  0
  -27.2864  -33.3568   26.2278 H   0  0  0  0  0  0
  -28.3786  -32.6651   25.0328 H   0  0  0  0  0  0
  -28.0687  -31.8302   26.5527 H   0  0  0  0  0  0
  -28.2583  -38.0146   24.7491 H   0  0  0  0  0  0
  -28.1155  -36.2669   24.6405 H   0  0  0  0  0  0
  -27.2377  -37.1476   25.8924 H   0  0  0  0  0  0
  -20.9443  -29.9339   21.8302 H   0  0  0  0  0  0
  -26.0329  -38.2806   24.1355 H   0  0  0  0  0  0
  -23.9755  -22.2724   19.0378 H   0  0  0  0  0  0
  -21.8396  -21.1989   18.5224 H   0  0  0  0  0  0
  -21.4568  -19.7448   19.4370 H   0  0  0  0  0  0
  -22.2417  -19.5845   17.8775 H   0  0  0  0  0  0
  -22.5965  -17.7219   19.1493 H   0  0  0  0  0  0
  -23.1161  -17.2454   20.7635 H   0  0  0  0  0  0
  -24.1689  -16.9926   19.3576 H   0  0  0  0  0  0
  -24.9924  -21.4613   23.3140 H   0  0  0  0  0  0
  -26.6551  -20.8046   23.3318 H   0  0  0  0  0  0
  -25.2249  -19.7893   23.5001 H   0  0  0  0  0  0
  -26.0985  -22.4858   18.2195 H   0  0  0  0  0  0
  -27.7540  -22.7270   18.6848 H   0  0  0  0  0  0
  -26.9266  -23.9283   17.7355 H   0  0  0  0  0  0
  -24.1260  -24.0088   20.1022 H   0  0  0  0  0  0
  -24.7054  -24.8802   18.6876 H   0  0  0  0  0  0
  -24.8547  -25.4705   20.3868 H   0  0  0  0  0  0
  -24.6966  -17.5667   22.8607 H   0  0  0  0  0  0
  -26.3544  -17.9591   23.3686 H   0  0  0  0  0  0
  -25.9853  -16.4014   22.6769 H   0  0  0  0  0  0
  -27.1041  -22.4887   21.2887 H   0  0  0  0  0  0
  -25.7134  -23.3134   21.8947 H   0  0  0  0  0  0
  -28.5329  -17.2877   22.3058 H   0  0  0  0  0  0
  -27.6983  -16.1029   21.3457 H   0  0  0  0  0  0
  -30.3959  -17.3131   20.6899 H   0  0  0  0  0  0
  -29.4149  -16.4553   19.5066 H   0  0  0  0  0  0
  -27.2177  -17.9023   19.6037 H   0  0  0  0  0  0
  -27.7967  -19.0756   20.7297 H   0  0  0  0  0  0
  -26.9445  -25.3896   21.1421 H   0  0  0  0  0  0
  -27.7141  -25.2046   19.3105 H   0  0  0  0  0  0
  -29.2161  -14.9565   21.7852 H   0  0  0  0  0  0
  1 25  1  0  0  0
  1 30  2  0  0  0
  1 89  1  0  0  0
  2  3  1  0  0  0
  2 25  1  0  0  0
  2 91  1  0  0  0
  2 92  1  0  0  0
  3  4  1  0  0  0
  3 93  1  0  0  0
  3 94  1  0  0  0
  4  5  1  0  0  0
  4 95  1  0  0  0
  4 96  1  0  0  0
  5  6  1  0  0  0
  5 26  1  0  0  0
  5 97  1  0  0  0
  6 25  1  0  0  0
  6 98  1  0  0  0
  6 99  1  0  0  0
  7  8  2  0  0  0
  7 26  1  0  0  0
  7 29  1  0  0  0
  8  9  1  0  0  0
  8 22  1  0  0  0
  9 10  1  0  0  0
  9 27  2  0  0  0
 10 11  2  0  0  0
 10 15  1  0  0  0
 11 12  1  0  0  0
 11100  1  0  0  0
 12 13  2  0  0  0
 12101  1  0  0  0
 13 14  1  0  0  0
 13 31  1  0  0  0
 14 15  2  0  0  0
 14102  1  0  0  0
 15103  1  0  0  0
 16 17  2  0  0  0
 16 21  1  0  0  0
 16 31  1  0  0  0
 17 18  1  0  0  0
 17104  1  0  0  0
 18 19  2  0  0  0
 18105  1  0  0  0
 19 20  1  0  0  0
 19 24  1  0  0  0
 20 21  2  0  0  0
 20106  1  0  0  0
 21 23  1  0  0  0
 22 28  1  0  0  0
 22 32  2  0  0  0
 26 27  1  0  0  0
 28107  1  0  0  0
 28108  1  0  0  0
 29109  1  0  0  0
 29110  1  0  0  0
 33 34  1  0  0  0
 33 66  1  0  0  0
 33 70  2  0  0  0
 34 36  1  0  0  0
 34 59  1  0  0  0
 34111  1  0  0  0
 35 44  2  0  0  0
 35 45  1  0  0  0
 35 68  1  0  0  0
 36 56  1  0  0  0
 36112  1  0  0  0
 37 39  1  0  0  0
 37 47  1  0  0  0
 37 66  1  0  0  0
 37113  1  0  0  0
 38 43  2  0  0  0
 38 46  1  0  0  0
 38 47  1  0  0  0
 39 64  1  0  0  0
 39 67  2  0  0  0
 40 52  1  0  0  0
 40 53  2  0  0  0
 40 58  1  0  0  0
 41114  1  0  0  0
 41115  1  0  0  0
 41116  1  0  0  0
 41 48  1  0  0  0
 42 43  1  0  0  0
 42 66  1  0  0  0
 42117  1  0  0  0
 42118  1  0  0  0
 43 44  1  0  0  0
 44119  1  0  0  0
 45 46  2  0  0  0
 45120  1  0  0  0
 46121  1  0  0  0
 47122  1  0  0  0
 47123  1  0  0  0
 48 56  1  0  0  0
 48 65  1  0  0  0
 48124  1  0  0  0
 49 50  1  0  0  0
 49 53  1  0  0  0
 49 64  1  0  0  0
 49125  1  0  0  0
 50 51  1  0  0  0
 50126  1  0  0  0
 50127  1  0  0  0
 51 52  1  0  0  0
 51128  1  0  0  0
 51129  1  0  0  0
 52130  1  0  0  0
 52131  1  0  0  0
 53 54  1  0  0  0
 54 55  2  0  0  0
 54132  1  0  0  0
 55 57  1  0  0  0
 55133  1  0  0  0
 56 69  2  0  0  0
 57 58  2  0  0  0
 57134  1  0  0  0
 58135  1  0  0  0
 59 60  1  0  0  0
 59 61  1  0  0  0
 59 62  1  0  0  0
 60136  1  0  0  0
 60137  1  0  0  0
 60138  1  0  0  0
 61139  1  0  0  0
 61140  1  0  0  0
 61141  1  0  0  0
 62142  1  0  0  0
 62143  1  0  0  0
 62144  1  0  0  0
 63 65  1  0  0  0
 63145  1  0  0  0
 63146  1  0  0  0
 63147  1  0  0  0
 64148  1  0  0  0
 65149  1  0  0  0
 68 87  1  0  0  0
 71 72  2  0  0  0
 71 73  1  0  0  0
 71150  1  0  0  0
 72 74  1  0  0  0
 72 77  1  0  0  0
 73 75  2  0  0  0
 73 83  1  0  0  0
 74 76  2  0  0  0
 74 78  1  0  0  0
 75 76  1  0  0  0
 75 79  1  0  0  0
 76 90  1  0  0  0
 77151  1  0  0  0
 77152  1  0  0  0
 77153  1  0  0  0
 78154  1  0  0  0
 78155  1  0  0  0
 78156  1  0  0  0
 79157  1  0  0  0
 79158  1  0  0  0
 79159  1  0  0  0
 80160  1  0  0  0
 80161  1  0  0  0
 80162  1  0  0  0
 80 88  1  0  0  0
 81 88  1  0  0  0
 81163  1  0  0  0
 81164  1  0  0  0
 81165  1  0  0  0
 82 90  1  0  0  0
 82166  1  0  0  0
 82167  1  0  0  0
 82168  1  0  0  0
 83 88  1  0  0  0
 83169  1  0  0  0
 83170  1  0  0  0
 84 85  1  0  0  0
 84 86  1  0  0  0
 84171  1  0  0  0
 84172  1  0  0  0
 85 89  1  0  0  0
 85173  1  0  0  0
 85174  1  0  0  0
 86 90  1  0  0  0
 86175  1  0  0  0
 86176  1  0  0  0
 87 88  1  0  0  0
 87177  1  0  0  0
 87178  1  0  0  0
 89179  1  0  0  0
M  ISO  4   1 100  68 101  87 101  89 100
M  END
> <chiral flag>
0

> <version>
0

> <s_m_source_file>
/data/baiqing/PycharmProjects/Reinvent-master-3.2/result/LINK_invent/BTK/process_docking_weight1_custom_sum_contain_oxygen_bond_distance_aromatic_linkinvent_7_9_3/rearranged_h_0019.sdf

> <i_m_source_file_index>
68

> <r_mmod_Potential_Energy-OPLS-2005>
611.156494140625

> <r_mmod_Stretch_Energy-OPLS-2005>
80.4336853027344

> <r_mmod_Bend_Energy-OPLS-2005>
401.205078125

> <r_mmod_Torsional_Energy-OPLS-2005>
432.969390869141

> <r_mmod_Improper_Torsional_Energy-OPLS-2005>
13.5665607452393

> <r_mmod_Van_der_Waal_Energy-OPLS-2005>
217.207077026367

> <r_mmod_Electrostatic_Energy-OPLS-2005>
-422.685333251953

> <r_mmod_Solvation_Energy-OPLS-2005>
-191.707550048828

> <b_mmod_Minimization_Converged-OPLS-2005>
0

> <r_mmod_RMS_Derivative-OPLS-2005>
23.8040752410889

$$$$
68
                    3D
 Structure written by MMmdl.
147155  0  0  1  0            999 V2000
  -30.4080  -15.3273   20.3530 C   0  0  0  0  0  0
  -30.4363  -12.8461   19.5455 C   0  0  0  0  0  0
  -29.5417  -12.5909   18.3040 C   0  0  0  0  0  0
  -28.0912  -12.3043   18.7271 C   0  0  0  0  0  0
  -27.6101  -13.2822   19.8270 C   0  0  2  0  0  0
  -28.6376  -13.4780   20.9644 C   0  0  0  0  0  0
  -25.2370  -13.8261   20.5749 C   0  0  0  0  0  0
  -24.1733  -13.0440   20.9263 C   0  0  0  0  0  0
  -24.6399  -11.6940   20.8768 C   0  0  0  0  0  0
  -23.9096  -10.4295   21.0408 C   0  0  0  0  0  0
  -24.3639   -9.4209   21.9186 C   0  0  0  0  0  0
  -23.6305   -8.2248   22.0754 C   0  0  0  0  0  0
  -22.4286   -8.0285   21.3545 C   0  0  0  0  0  0
  -21.9933   -9.0260   20.4647 C   0  0  0  0  0  0
  -22.7269  -10.2135   20.3056 C   0  0  0  0  0  0
  -21.6855   -6.0739   22.5277 C   0  0  0  0  0  0
  -21.4017   -6.5643   23.8211 C   0  0  0  0  0  0
  -21.3660   -5.6795   24.9173 C   0  0  0  0  0  0
  -21.6041   -4.3057   24.7224 C   0  0  0  0  0  0
  -21.8819   -3.8149   23.4346 C   0  0  0  0  0  0
  -21.9194   -4.6966   22.3402 C   0  0  0  0  0  0
  -22.7749  -13.5186   21.1905 C   0  0  0  0  0  0
  -22.1662   -4.2153   21.0979 F   0  0  0  0  0  0
  -21.5629   -3.4539   25.7736 F   0  0  0  0  0  0
  -29.8670  -14.0013   20.3440 N   0  0  0  0  0  0
  -26.2804  -12.9548   20.3234 N   0  0  0  0  0  0
  -25.9338  -11.6646   20.5731 N   0  0  0  0  0  0
  -22.0411  -12.8162   22.0458 N   0  0  0  0  0  0
  -25.3996  -15.1997   20.4168 N   0  0  0  0  0  0
  -31.6182  -15.3280   20.0803 O   0  0  0  0  0  0
  -21.6646   -6.8884   21.4240 O   0  0  0  0  0  0
  -22.3428  -14.5487   20.6745 O   0  0  0  0  0  0
  -24.6665  -31.8185   23.1663 C   0  0  0  0  0  0
  -25.9328  -32.4561   23.8141 C   0  0  1  0  0  0
  -27.2193  -26.8837   20.1865 C   0  0  0  0  0  0
  -25.5982  -33.8379   24.2047 N   0  0  0  0  0  0
  -23.4836  -30.4284   21.5153 C   0  0  2  0  0  0
  -24.9395  -28.8087   20.1070 C   0  0  0  0  0  0
  -22.7687  -29.4411   22.4752 C   0  0  0  0  0  0
  -18.0327  -28.1418   22.8462 C   0  0  0  0  0  0
  -24.1489  -36.7189   23.2649 C   0  0  0  0  0  0
  -26.0548  -30.6095   21.4050 C   0  0  0  0  0  0
  -26.1218  -29.1951   20.7499 C   0  0  0  0  0  0
  -27.2512  -28.2519   20.7694 C   0  0  0  0  0  0
  -26.0143  -26.6680   19.4783 C   0  0  0  0  0  0
  -24.9144  -27.5672   19.4505 C   0  0  0  0  0  0
  -23.7265  -29.7407   20.1423 C   0  0  0  0  0  0
  -25.4131  -36.2950   24.0299 C   0  0  1  0  0  0
  -20.5953  -28.3762   23.1180 C   0  0  2  0  0  0
  -20.6797  -26.9436   22.5407 C   0  0  0  0  0  0
  -19.5773  -26.6382   21.5218 C   0  0  0  0  0  0
  -18.1954  -26.7950   22.1622 C   0  0  0  0  0  0
  -19.1590  -28.8910   23.2807 C   0  0  0  0  0  0
  -18.9504  -30.1497   23.8846 C   0  0  0  0  0  0
  -17.6498  -30.6604   24.0557 C   0  0  0  0  0  0
  -25.9107  -34.9336   23.4997 C   0  0  0  0  0  0
  -16.5385  -29.9094   23.6347 C   0  0  0  0  0  0
  -16.7311  -28.6516   23.0364 C   0  0  0  0  0  0
  -26.4568  -31.6524   25.0689 C   0  0  0  0  0  0
  -25.3680  -31.3793   26.1335 C   0  0  0  0  0  0
  -27.0471  -30.2881   24.6462 C   0  0  0  0  0  0
  -27.6052  -32.4343   25.7492 C   0  0  0  0  0  0
  -27.5561  -37.1749   24.8470 C   0  0  0  0  0  0
  -21.4350  -29.3038   22.3509 N   0  0  0  0  0  0
  -26.4270  -37.3694   23.9414 N   0  0  0  0  0  0
  -24.7566  -30.9806   22.0821 N   0  0  0  0  0  0
  -23.4210  -28.7991   23.3020 O   0  0  0  0  0  0
  -28.1974  -25.7467   20.3175 O   0  0  0  0  0  0
  -26.5723  -34.8880   22.4596 O   0  0  0  0  0  0
  -23.5725  -32.1184   23.6728 O   0  0  0  0  0  0
  -28.9129  -21.2351   22.6157 C   0  0  0  0  0  0
  -29.2333  -19.8241   20.5895 C   0  0  0  0  0  0
  -28.6003  -22.5862   20.5400 C   0  0  0  0  0  0
  -29.1920  -19.9887   21.9901 C   0  0  0  0  0  0
  -28.6330  -22.4630   21.9508 C   0  0  0  0  0  0
  -28.9157  -21.1934   19.9110 C   0  0  0  0  0  0
  -29.7416  -18.2323   19.9926 C   0  0  0  0  0  0
  -28.0524  -24.1390   19.8777 C   0  0  0  0  0  0
  -29.6353  -16.6063   20.4680 N   0  0  0  0  0  0
  -29.4526  -18.9189   22.7795 F   0  0  0  0  0  0
  -28.2822  -23.8383   22.9379 Cl  0  0  0  0  0  0
  -28.9038  -21.1584   18.1850 Cl  0  0  0  0  0  0
  -31.4554  -13.0504   19.2150 H   0  0  0  0  0  0
  -30.5091  -11.9476   20.1609 H   0  0  0  0  0  0
  -29.9329  -11.7605   17.7149 H   0  0  0  0  0  0
  -29.5656  -13.4674   17.6550 H   0  0  0  0  0  0
  -28.0539  -11.2822   19.1057 H   0  0  0  0  0  0
  -27.4248  -12.3354   17.8642 H   0  0  0  0  0  0
  -27.5201  -14.2443   19.3208 H   0  0  0  0  0  0
  -28.8147  -12.5495   21.5095 H   0  0  0  0  0  0
  -28.2633  -14.1991   21.6928 H   0  0  0  0  0  0
  -25.2780   -9.5684   22.4769 H   0  0  0  0  0  0
  -24.0007   -7.4641   22.7480 H   0  0  0  0  0  0
  -21.0862   -8.8786   19.8954 H   0  0  0  0  0  0
  -22.3726  -10.9676   19.6170 H   0  0  0  0  0  0
  -21.2009   -7.6151   23.9715 H   0  0  0  0  0  0
  -21.1481   -6.0524   25.9075 H   0  0  0  0  0  0
  -22.0598   -2.7611   23.2844 H   0  0  0  0  0  0
  -22.4043  -11.9826   22.4839 H   0  0  0  0  0  0
  -21.1025  -13.1171   22.2674 H   0  0  0  0  0  0
  -24.6248  -15.8458   20.5202 H   0  0  0  0  0  0
  -26.2323  -15.6381   20.0460 H   0  0  0  0  0  0
  -26.7392  -32.5083   23.0846 H   0  0  0  0  0  0
  -25.0081  -33.9450   25.0166 H   0  0  0  0  0  0
  -22.7993  -31.2614   21.3401 H   0  0  0  0  0  0
  -23.3766  -35.9504   23.3288 H   0  0  0  0  0  0
  -24.3561  -36.8862   22.2067 H   0  0  0  0  0  0
  -23.7231  -37.6364   23.6723 H   0  0  0  0  0  0
  -26.2406  -31.3474   20.6234 H   0  0  0  0  0  0
  -26.9129  -30.6673   22.0623 H   0  0  0  0  0  0
  -28.1377  -28.5409   21.3161 H   0  0  0  0  0  0
  -25.8770  -25.7247   18.9718 H   0  0  0  0  0  0
  -24.0184  -27.2668   18.9248 H   0  0  0  0  0  0
  -23.8848  -30.5085   19.3841 H   0  0  0  0  0  0
  -22.8353  -29.1977   19.8228 H   0  0  0  0  0  0
  -25.1328  -36.1739   25.0790 H   0  0  0  0  0  0
  -21.0044  -28.3377   24.1305 H   0  0  0  0  0  0
  -20.5673  -26.2380   23.3654 H   0  0  0  0  0  0
  -21.6659  -26.7405   22.1214 H   0  0  0  0  0  0
  -19.6933  -25.6283   21.1277 H   0  0  0  0  0  0
  -19.6717  -27.3166   20.6726 H   0  0  0  0  0  0
  -17.4223  -26.6699   21.4026 H   0  0  0  0  0  0
  -18.0340  -26.0109   22.9034 H   0  0  0  0  0  0
  -19.7982  -30.7324   24.2193 H   0  0  0  0  0  0
  -17.5055  -31.6279   24.5168 H   0  0  0  0  0  0
  -15.5384  -30.2982   23.7704 H   0  0  0  0  0  0
  -15.8710  -28.0820   22.7108 H   0  0  0  0  0  0
  -24.5904  -30.7092   25.7652 H   0  0  0  0  0  0
  -24.8821  -32.2998   26.4583 H   0  0  0  0  0  0
  -25.7905  -30.9094   27.0224 H   0  0  0  0  0  0
  -26.3152  -29.6542   24.1447 H   0  0  0  0  0  0
  -27.3959  -29.7266   25.5139 H   0  0  0  0  0  0
  -27.9109  -30.4049   23.9914 H   0  0  0  0  0  0
  -27.2628  -33.3718   26.1886 H   0  0  0  0  0  0
  -28.3957  -32.6779   25.0382 H   0  0  0  0  0  0
  -28.0607  -31.8585   26.5559 H   0  0  0  0  0  0
  -28.2558  -38.0061   24.7511 H   0  0  0  0  0  0
  -28.1074  -36.2585   24.6305 H   0  0  0  0  0  0
  -27.2276  -37.1397   25.8872 H   0  0  0  0  0  0
  -20.9613  -29.8731   21.6633 H   0  0  0  0  0  0
  -26.0115  -38.2750   24.1432 H   0  0  0  0  0  0
  -28.9098  -21.2458   23.6953 H   0  0  0  0  0  0
  -30.8102  -18.3697   19.8279 H   0  0  0  0  0  0
  -29.3293  -18.2132   18.9837 H   0  0  0  0  0  0
  -26.9772  -23.9809   19.8087 H   0  0  0  0  0  0
  -28.3884  -24.1197   18.8407 H   0  0  0  0  0  0
  -28.6957  -16.3967   20.7717 H   0  0  0  0  0  0
  1 25  1  0  0  0
  1 30  2  0  0  0
  1 79  1  0  0  0
  2  3  1  0  0  0
  2 25  1  0  0  0
  2 83  1  0  0  0
  2 84  1  0  0  0
  3  4  1  0  0  0
  3 85  1  0  0  0
  3 86  1  0  0  0
  4  5  1  0  0  0
  4 87  1  0  0  0
  4 88  1  0  0  0
  5  6  1  0  0  0
  5 26  1  0  0  0
  5 89  1  0  0  0
  6 25  1  0  0  0
  6 90  1  0  0  0
  6 91  1  0  0  0
  7  8  2  0  0  0
  7 26  1  0  0  0
  7 29  1  0  0  0
  8  9  1  0  0  0
  8 22  1  0  0  0
  9 10  1  0  0  0
  9 27  2  0  0  0
 10 11  2  0  0  0
 10 15  1  0  0  0
 11 12  1  0  0  0
 11 92  1  0  0  0
 12 13  2  0  0  0
 12 93  1  0  0  0
 13 14  1  0  0  0
 13 31  1  0  0  0
 14 15  2  0  0  0
 14 94  1  0  0  0
 15 95  1  0  0  0
 16 17  2  0  0  0
 16 21  1  0  0  0
 16 31  1  0  0  0
 17 18  1  0  0  0
 17 96  1  0  0  0
 18 19  2  0  0  0
 18 97  1  0  0  0
 19 20  1  0  0  0
 19 24  1  0  0  0
 20 21  2  0  0  0
 20 98  1  0  0  0
 21 23  1  0  0  0
 22 28  1  0  0  0
 22 32  2  0  0  0
 26 27  1  0  0  0
 28 99  1  0  0  0
 28100  1  0  0  0
 29101  1  0  0  0
 29102  1  0  0  0
 33 34  1  0  0  0
 33 66  1  0  0  0
 33 70  2  0  0  0
 34 36  1  0  0  0
 34 59  1  0  0  0
 34103  1  0  0  0
 35 44  2  0  0  0
 35 45  1  0  0  0
 35 68  1  0  0  0
 36 56  1  0  0  0
 36104  1  0  0  0
 37 39  1  0  0  0
 37 47  1  0  0  0
 37 66  1  0  0  0
 37105  1  0  0  0
 38 43  2  0  0  0
 38 46  1  0  0  0
 38 47  1  0  0  0
 39 64  1  0  0  0
 39 67  2  0  0  0
 40 52  1  0  0  0
 40 53  2  0  0  0
 40 58  1  0  0  0
 41106  1  0  0  0
 41107  1  0  0  0
 41108  1  0  0  0
 41 48  1  0  0  0
 42 43  1  0  0  0
 42 66  1  0  0  0
 42109  1  0  0  0
 42110  1  0  0  0
 43 44  1  0  0  0
 44111  1  0  0  0
 45 46  2  0  0  0
 45112  1  0  0  0
 46113  1  0  0  0
 47114  1  0  0  0
 47115  1  0  0  0
 48 56  1  0  0  0
 48 65  1  0  0  0
 48116  1  0  0  0
 49 50  1  0  0  0
 49 53  1  0  0  0
 49 64  1  0  0  0
 49117  1  0  0  0
 50 51  1  0  0  0
 50118  1  0  0  0
 50119  1  0  0  0
 51 52  1  0  0  0
 51120  1  0  0  0
 51121  1  0  0  0
 52122  1  0  0  0
 52123  1  0  0  0
 53 54  1  0  0  0
 54 55  2  0  0  0
 54124  1  0  0  0
 55 57  1  0  0  0
 55125  1  0  0  0
 56 69  2  0  0  0
 57 58  2  0  0  0
 57126  1  0  0  0
 58127  1  0  0  0
 59 60  1  0  0  0
 59 61  1  0  0  0
 59 62  1  0  0  0
 60128  1  0  0  0
 60129  1  0  0  0
 60130  1  0  0  0
 61131  1  0  0  0
 61132  1  0  0  0
 61133  1  0  0  0
 62134  1  0  0  0
 62135  1  0  0  0
 62136  1  0  0  0
 63 65  1  0  0  0
 63137  1  0  0  0
 63138  1  0  0  0
 63139  1  0  0  0
 64140  1  0  0  0
 65141  1  0  0  0
 68 78  1  0  0  0
 71 74  2  0  0  0
 71 75  1  0  0  0
 71142  1  0  0  0
 72 74  1  0  0  0
 72 76  2  0  0  0
 72 77  1  0  0  0
 73 75  2  0  0  0
 73 76  1  0  0  0
 73 78  1  0  0  0
 74 80  1  0  0  0
 75 81  1  0  0  0
 76 82  1  0  0  0
 77 79  1  0  0  0
 77143  1  0  0  0
 77144  1  0  0  0
 78145  1  0  0  0
 78146  1  0  0  0
 79147  1  0  0  0
M  ISO  4   1 100  68 101  78 101  79 100
M  END
> <chiral flag>
0

> <version>
0

> <s_m_source_file>
/data/baiqing/PycharmProjects/Reinvent-master-3.2/result/LINK_invent/BTK/process_docking_weight1_custom_sum_contain_oxygen_bond_distance_aromatic_linkinvent_7_9_3/rearranged_h_0019.sdf

> <i_m_source_file_index>
69

> <r_mmod_Potential_Energy-OPLS-2005>
1381.15246582031

> <r_mmod_Stretch_Energy-OPLS-2005>
650.860168457031

> <r_mmod_Bend_Energy-OPLS-2005>
441.346527099609

> <r_mmod_Torsional_Energy-OPLS-2005>
217.343856811523

> <r_mmod_Improper_Torsional_Energy-OPLS-2005>
5.9295711517334

> <r_mmod_Van_der_Waal_Energy-OPLS-2005>
120.460235595703

> <r_mmod_Electrostatic_Energy-OPLS-2005>
-368.5146484375

> <r_mmod_Solvation_Energy-OPLS-2005>
-216.983642578125

> <b_mmod_Minimization_Converged-OPLS-2005>
0

> <r_mmod_RMS_Derivative-OPLS-2005>
0.722080111503601

$$$$
69
                    3D
 Structure written by MMmdl.
181189  0  0  1  0            999 V2000
  -30.7273  -14.5572   20.4250 C   0  0  0  0  0  0
  -30.4190  -12.3321   19.4294 C   0  0  0  0  0  0
  -29.4795  -12.3831   18.2058 C   0  0  0  0  0  0
  -28.0065  -12.2981   18.6376 C   0  0  0  0  0  0
  -27.6478  -13.2106   19.8413 C   0  0  2  0  0  0
  -28.7054  -13.1356   20.9616 C   0  0  0  0  0  0
  -25.2627  -13.8208   20.5698 C   0  0  0  0  0  0
  -24.1860  -13.0487   20.9175 C   0  0  0  0  0  0
  -24.6400  -11.6953   20.8740 C   0  0  0  0  0  0
  -23.9059  -10.4343   21.0399 C   0  0  0  0  0  0
  -24.3625   -9.4269   21.9182 C   0  0  0  0  0  0
  -23.6330   -8.2289   22.0757 C   0  0  0  0  0  0
  -22.4306   -8.0302   21.3538 C   0  0  0  0  0  0
  -21.9916   -9.0268   20.4629 C   0  0  0  0  0  0
  -22.7227  -10.2167   20.3057 C   0  0  0  0  0  0
  -21.6883   -6.0746   22.5267 C   0  0  0  0  0  0
  -21.4012   -6.5634   23.8200 C   0  0  0  0  0  0
  -21.3683   -5.6794   24.9168 C   0  0  0  0  0  0
  -21.6061   -4.3049   24.7203 C   0  0  0  0  0  0
  -21.8832   -3.8147   23.4317 C   0  0  0  0  0  0
  -21.9212   -4.6972   22.3383 C   0  0  0  0  0  0
  -22.7899  -13.5280   21.1843 C   0  0  0  0  0  0
  -22.1695   -4.2166   21.0958 F   0  0  0  0  0  0
  -21.5648   -3.4520   25.7704 F   0  0  0  0  0  0
  -30.0104  -13.4027   20.3492 N   0  0  0  0  0  0
  -26.3008  -12.9360   20.3319 N   0  0  0  0  0  0
  -25.9328  -11.6529   20.5789 N   0  0  0  0  0  0
  -22.0578  -12.8213   22.0352 N   0  0  0  0  0  0
  -25.4449  -15.1898   20.4065 N   0  0  0  0  0  0
  -31.9579  -14.5294   20.3995 O   0  0  0  0  0  0
  -21.6690   -6.8890   21.4229 O   0  0  0  0  0  0
  -22.3582  -14.5623   20.6755 O   0  0  0  0  0  0
  -24.6167  -31.8653   23.2050 C   0  0  0  0  0  0
  -25.9054  -32.4804   23.8373 C   0  0  1  0  0  0
  -27.2353  -27.3842   20.1297 C   0  0  0  0  0  0
  -25.5892  -33.8602   24.2300 N   0  0  0  0  0  0
  -23.4062  -30.4865   21.5457 C   0  0  2  0  0  0
  -24.8559  -28.9422   20.1143 C   0  0  0  0  0  0
  -22.7410  -29.4657   22.4974 C   0  0  0  0  0  0
  -18.0272  -28.1382   22.8498 C   0  0  0  0  0  0
  -24.1487  -36.7294   23.2639 C   0  0  0  0  0  0
  -25.9375  -30.8163   21.3666 C   0  0  0  0  0  0
  -26.0136  -29.4461   20.7181 C   0  0  0  0  0  0
  -27.1997  -28.6729   20.7234 C   0  0  0  0  0  0
  -26.0567  -26.9066   19.5101 C   0  0  0  0  0  0
  -24.8745  -27.6746   19.5090 C   0  0  0  0  0  0
  -23.6185  -29.8118   20.1627 C   0  0  0  0  0  0
  -25.4106  -36.3101   24.0340 C   0  0  1  0  0  0
  -20.5865  -28.3672   23.1313 C   0  0  2  0  0  0
  -20.6773  -26.9406   22.5418 C   0  0  0  0  0  0
  -19.5751  -26.6387   21.5218 C   0  0  0  0  0  0
  -18.1923  -26.7927   22.1623 C   0  0  0  0  0  0
  -19.1523  -28.8835   23.2901 C   0  0  0  0  0  0
  -18.9456  -30.1452   23.8908 C   0  0  0  0  0  0
  -17.6459  -30.6586   24.0572 C   0  0  0  0  0  0
  -25.9041  -34.9462   23.5111 C   0  0  0  0  0  0
  -16.5347  -29.9094   23.6338 C   0  0  0  0  0  0
  -16.7259  -28.6511   23.0346 C   0  0  0  0  0  0
  -26.4478  -31.6587   25.0708 C   0  0  0  0  0  0
  -25.3732  -31.3711   26.1450 C   0  0  0  0  0  0
  -27.0325  -30.3022   24.6120 C   0  0  0  0  0  0
  -27.6040  -32.4320   25.7475 C   0  0  0  0  0  0
  -27.5579  -37.1803   24.8467 C   0  0  0  0  0  0
  -21.4130  -29.3042   22.3700 N   0  0  0  0  0  0
  -26.4292  -37.3786   23.9411 N   0  0  0  0  0  0
  -24.6714  -31.0734   22.0971 N   0  0  0  0  0  0
  -23.4172  -28.8218   23.3039 O   0  0  0  0  0  0
  -28.4045  -26.6416   20.2070 O   0  0  0  0  0  0
  -26.5600  -34.8926   22.4688 O   0  0  0  0  0  0
  -23.5353  -32.1423   23.7424 O   0  0  0  0  0  0
  -31.3060  -20.9666   20.6775 C   0  0  0  0  0  0
  -29.9815  -20.7449   20.5779 C   0  0  0  0  0  0
  -31.4566  -16.6653   15.6721 C   0  0  0  0  0  0
  -32.4975  -16.3614   16.7648 C   0  0  0  0  0  0
  -30.1158  -15.9347   15.9092 C   0  0  0  0  0  0
  -31.9325  -16.6499   18.1666 C   0  0  0  0  0  0
  -29.5567  -16.1819   17.3279 C   0  0  0  0  0  0
  -30.6342  -15.8340   18.3707 C   0  0  0  0  0  0
  -28.2984  -22.1836   17.6746 C   0  0  0  0  0  0
  -29.6547  -23.3614   22.0167 C   0  0  0  0  0  0
  -29.2967  -19.3998   20.9561 C   0  0  0  0  0  0
  -29.9719  -18.1652   20.2558 C   0  0  0  0  0  0
  -27.7690  -24.1406   20.4637 C   0  0  0  0  0  0
  -29.3886  -16.7168   20.4469 C   0  0  0  0  0  0
  -28.1151  -21.4338   19.0014 C   0  0  0  0  0  0
  -28.5035  -25.2904   19.6860 C   0  0  0  0  0  0
  -28.5739  -22.8900   21.0205 C   0  0  1  0  0  0
  -30.1510  -15.6163   19.7674 N   0  0  0  0  0  0
  -29.0995  -21.8721   20.0273 N   0  3  2  0  0  0
  -31.4564  -12.4394   19.1085 H   0  0  0  0  0  0
  -30.3544  -11.3681   19.9323 H   0  0  0  0  0  0
  -29.7112  -11.5540   17.5354 H   0  0  0  0  0  0
  -29.6250  -13.2818   17.6151 H   0  0  0  0  0  0
  -27.8135  -11.2562   18.8949 H   0  0  0  0  0  0
  -27.3629  -12.5320   17.7902 H   0  0  0  0  0  0
  -27.6496  -14.2296   19.4562 H   0  0  0  0  0  0
  -28.7080  -12.1583   21.4471 H   0  0  0  0  0  0
  -28.4845  -13.8734   21.7357 H   0  0  0  0  0  0
  -25.2804   -9.5761   22.4706 H   0  0  0  0  0  0
  -24.0088   -7.4688   22.7449 H   0  0  0  0  0  0
  -21.0877   -8.8759   19.8901 H   0  0  0  0  0  0
  -22.3721  -10.9693   19.6134 H   0  0  0  0  0  0
  -21.1989   -7.6152   23.9659 H   0  0  0  0  0  0
  -21.1505   -6.0553   25.9066 H   0  0  0  0  0  0
  -22.0583   -2.7604   23.2796 H   0  0  0  0  0  0
  -22.4262  -11.9867   22.4678 H   0  0  0  0  0  0
  -21.1190  -13.1161   22.2598 H   0  0  0  0  0  0
  -24.6883  -15.8569   20.5082 H   0  0  0  0  0  0
  -26.3147  -15.6127   20.1095 H   0  0  0  0  0  0
  -26.7112  -32.5521   23.1126 H   0  0  0  0  0  0
  -25.0068  -33.9773   25.0464 H   0  0  0  0  0  0
  -22.6970  -31.3034   21.4000 H   0  0  0  0  0  0
  -23.3754  -35.9624   23.3312 H   0  0  0  0  0  0
  -24.3582  -36.8898   22.2052 H   0  0  0  0  0  0
  -23.7237  -37.6499   23.6653 H   0  0  0  0  0  0
  -26.0560  -31.5790   20.5958 H   0  0  0  0  0  0
  -26.8223  -30.8719   21.9887 H   0  0  0  0  0  0
  -28.0848  -29.0570   21.2119 H   0  0  0  0  0  0
  -26.0287  -25.9332   19.0455 H   0  0  0  0  0  0
  -23.9813  -27.2765   19.0475 H   0  0  0  0  0  0
  -23.7310  -30.5833   19.4008 H   0  0  0  0  0  0
  -22.7428  -29.2307   19.8670 H   0  0  0  0  0  0
  -25.1293  -36.1955   25.0833 H   0  0  0  0  0  0
  -20.9957  -28.3248   24.1436 H   0  0  0  0  0  0
  -20.5687  -26.2283   23.3609 H   0  0  0  0  0  0
  -21.6645  -26.7460   22.1203 H   0  0  0  0  0  0
  -19.6925  -25.6303   21.1240 H   0  0  0  0  0  0
  -19.6698  -27.3211   20.6757 H   0  0  0  0  0  0
  -17.4202  -26.6674   21.4014 H   0  0  0  0  0  0
  -18.0316  -26.0060   22.9006 H   0  0  0  0  0  0
  -19.7934  -30.7260   24.2270 H   0  0  0  0  0  0
  -17.5021  -31.6273   24.5164 H   0  0  0  0  0  0
  -15.5351  -30.3000   23.7660 H   0  0  0  0  0  0
  -15.8657  -28.0841   22.7049 H   0  0  0  0  0  0
  -24.5910  -30.7052   25.7789 H   0  0  0  0  0  0
  -24.8926  -32.2876   26.4879 H   0  0  0  0  0  0
  -25.8080  -30.8896   27.0215 H   0  0  0  0  0  0
  -26.2895  -29.6755   24.1171 H   0  0  0  0  0  0
  -27.4076  -29.7287   25.4606 H   0  0  0  0  0  0
  -27.8733  -30.4324   23.9300 H   0  0  0  0  0  0
  -27.2649  -33.3614   26.2057 H   0  0  0  0  0  0
  -28.3849  -32.6876   25.0304 H   0  0  0  0  0  0
  -28.0702  -31.8439   26.5388 H   0  0  0  0  0  0
  -28.2597  -38.0096   24.7516 H   0  0  0  0  0  0
  -28.1071  -36.2631   24.6293 H   0  0  0  0  0  0
  -27.2298  -37.1445   25.8868 H   0  0  0  0  0  0
  -20.9280  -29.8747   21.6913 H   0  0  0  0  0  0
  -26.0175  -38.2865   24.1410 H   0  0  0  0  0  0
  -31.9763  -20.2081   21.0540 H   0  0  0  0  0  0
  -31.7501  -21.9086   20.3885 H   0  0  0  0  0  0
  -31.8673  -16.3857   14.6996 H   0  0  0  0  0  0
  -31.2853  -17.7406   15.6321 H   0  0  0  0  0  0
  -33.4007  -16.9508   16.6029 H   0  0  0  0  0  0
  -32.8045  -15.3161   16.6950 H   0  0  0  0  0  0
  -30.2549  -14.8630   15.7527 H   0  0  0  0  0  0
  -29.3826  -16.2463   15.1641 H   0  0  0  0  0  0
  -31.7621  -17.7191   18.2621 H   0  0  0  0  0  0
  -32.6895  -16.3907   18.9061 H   0  0  0  0  0  0
  -28.6702  -15.5662   17.4790 H   0  0  0  0  0  0
  -29.2367  -17.2173   17.4214 H   0  0  0  0  0  0
  -30.9588  -14.8475   18.0467 H   0  0  0  0  0  0
  -27.6144  -21.7950   16.9194 H   0  0  0  0  0  0
  -29.3155  -22.0631   17.2968 H   0  0  0  0  0  0
  -28.0956  -23.2467   17.7680 H   0  0  0  0  0  0
  -29.2420  -24.0687   22.7362 H   0  0  0  0  0  0
  -30.4855  -23.8531   21.5087 H   0  0  0  0  0  0
  -30.0586  -22.5310   22.5985 H   0  0  0  0  0  0
  -28.2278  -19.4175   20.7559 H   0  0  0  0  0  0
  -29.3787  -19.2892   22.0382 H   0  0  0  0  0  0
  -31.0218  -18.1352   20.5514 H   0  0  0  0  0  0
  -29.9528  -18.3987   19.1945 H   0  0  0  0  0  0
  -26.9252  -23.7998   19.8633 H   0  0  0  0  0  0
  -27.2879  -24.6022   21.3269 H   0  0  0  0  0  0
  -29.3261  -16.4974   21.5138 H   0  0  0  0  0  0
  -28.3623  -16.6907   20.0795 H   0  0  0  0  0  0
  -28.2515  -20.3794   18.7642 H   0  0  0  0  0  0
  -27.0965  -21.5183   19.3803 H   0  0  0  0  0  0
  -28.1870  -25.3069   18.6446 H   0  0  0  0  0  0
  -29.5687  -25.0628   19.6418 H   0  0  0  0  0  0
  -27.8525  -22.3232   21.6093 H   0  0  0  0  0  0
  -29.7326  -22.4236   19.4693 H   0  0  0  0  0  0
  1 25  1  0  0  0
  1 30  2  0  0  0
  1 88  1  0  0  0
  2  3  1  0  0  0
  2 25  1  0  0  0
  2 90  1  0  0  0
  2 91  1  0  0  0
  3  4  1  0  0  0
  3 92  1  0  0  0
  3 93  1  0  0  0
  4  5  1  0  0  0
  4 94  1  0  0  0
  4 95  1  0  0  0
  5  6  1  0  0  0
  5 26  1  0  0  0
  5 96  1  0  0  0
  6 25  1  0  0  0
  6 97  1  0  0  0
  6 98  1  0  0  0
  7  8  2  0  0  0
  7 26  1  0  0  0
  7 29  1  0  0  0
  8  9  1  0  0  0
  8 22  1  0  0  0
  9 10  1  0  0  0
  9 27  2  0  0  0
 10 11  2  0  0  0
 10 15  1  0  0  0
 11 12  1  0  0  0
 11 99  1  0  0  0
 12 13  2  0  0  0
 12100  1  0  0  0
 13 14  1  0  0  0
 13 31  1  0  0  0
 14 15  2  0  0  0
 14101  1  0  0  0
 15102  1  0  0  0
 16 17  2  0  0  0
 16 21  1  0  0  0
 16 31  1  0  0  0
 17 18  1  0  0  0
 17103  1  0  0  0
 18 19  2  0  0  0
 18104  1  0  0  0
 19 20  1  0  0  0
 19 24  1  0  0  0
 20 21  2  0  0  0
 20105  1  0  0  0
 21 23  1  0  0  0
 22 28  1  0  0  0
 22 32  2  0  0  0
 26 27  1  0  0  0
 28106  1  0  0  0
 28107  1  0  0  0
 29108  1  0  0  0
 29109  1  0  0  0
 33 34  1  0  0  0
 33 66  1  0  0  0
 33 70  2  0  0  0
 34 36  1  0  0  0
 34 59  1  0  0  0
 34110  1  0  0  0
 35 44  2  0  0  0
 35 45  1  0  0  0
 35 68  1  0  0  0
 36 56  1  0  0  0
 36111  1  0  0  0
 37 39  1  0  0  0
 37 47  1  0  0  0
 37 66  1  0  0  0
 37112  1  0  0  0
 38 43  2  0  0  0
 38 46  1  0  0  0
 38 47  1  0  0  0
 39 64  1  0  0  0
 39 67  2  0  0  0
 40 52  1  0  0  0
 40 53  2  0  0  0
 40 58  1  0  0  0
 41113  1  0  0  0
 41114  1  0  0  0
 41115  1  0  0  0
 41 48  1  0  0  0
 42 43  1  0  0  0
 42 66  1  0  0  0
 42116  1  0  0  0
 42117  1  0  0  0
 43 44  1  0  0  0
 44118  1  0  0  0
 45 46  2  0  0  0
 45119  1  0  0  0
 46120  1  0  0  0
 47121  1  0  0  0
 47122  1  0  0  0
 48 56  1  0  0  0
 48 65  1  0  0  0
 48123  1  0  0  0
 49 50  1  0  0  0
 49 53  1  0  0  0
 49 64  1  0  0  0
 49124  1  0  0  0
 50 51  1  0  0  0
 50125  1  0  0  0
 50126  1  0  0  0
 51 52  1  0  0  0
 51127  1  0  0  0
 51128  1  0  0  0
 52129  1  0  0  0
 52130  1  0  0  0
 53 54  1  0  0  0
 54 55  2  0  0  0
 54131  1  0  0  0
 55 57  1  0  0  0
 55132  1  0  0  0
 56 69  2  0  0  0
 57 58  2  0  0  0
 57133  1  0  0  0
 58134  1  0  0  0
 59 60  1  0  0  0
 59 61  1  0  0  0
 59 62  1  0  0  0
 60135  1  0  0  0
 60136  1  0  0  0
 60137  1  0  0  0
 61138  1  0  0  0
 61139  1  0  0  0
 61140  1  0  0  0
 62141  1  0  0  0
 62142  1  0  0  0
 62143  1  0  0  0
 63 65  1  0  0  0
 63144  1  0  0  0
 63145  1  0  0  0
 63146  1  0  0  0
 64147  1  0  0  0
 65148  1  0  0  0
 68 86  1  0  0  0
 71 72  2  0  0  0
 71149  1  0  0  0
 71150  1  0  0  0
 72 81  1  0  0  0
 72 89  1  0  0  0
 73 74  1  0  0  0
 73 75  1  0  0  0
 73151  1  0  0  0
 73152  1  0  0  0
 74 76  1  0  0  0
 74153  1  0  0  0
 74154  1  0  0  0
 75 77  1  0  0  0
 75155  1  0  0  0
 75156  1  0  0  0
 76 78  1  0  0  0
 76157  1  0  0  0
 76158  1  0  0  0
 77 78  1  0  0  0
 77159  1  0  0  0
 77160  1  0  0  0
 78 88  1  0  0  0
 78161  1  0  0  0
 79 85  1  0  0  0
 79162  1  0  0  0
 79163  1  0  0  0
 79164  1  0  0  0
 80165  1  0  0  0
 80166  1  0  0  0
 80167  1  0  0  0
 80 87  1  0  0  0
 81 82  1  0  0  0
 81168  1  0  0  0
 81169  1  0  0  0
 82 84  1  0  0  0
 82170  1  0  0  0
 82171  1  0  0  0
 83 86  1  0  0  0
 83 87  1  0  0  0
 83172  1  0  0  0
 83173  1  0  0  0
 84 88  1  0  0  0
 84174  1  0  0  0
 84175  1  0  0  0
 85176  1  0  0  0
 85177  1  0  0  0
 85 89  1  0  0  0
 86178  1  0  0  0
 86179  1  0  0  0
 87 89  1  0  0  0
 87180  1  0  0  0
 89181  1  0  0  0
M  CHG  1  89   1
M  ISO  4   1 100  68 101  86 101  88 100
M  END
> <chiral flag>
0

> <version>
0

> <s_m_source_file>
/data/baiqing/PycharmProjects/Reinvent-master-3.2/result/LINK_invent/BTK/process_docking_weight1_custom_sum_contain_oxygen_bond_distance_aromatic_linkinvent_7_9_3/rearranged_h_0019.sdf

> <i_m_source_file_index>
70

> <r_mmod_Potential_Energy-OPLS-2005>
314.713409423828

> <r_mmod_Stretch_Energy-OPLS-2005>
65.2358779907227

> <r_mmod_Bend_Energy-OPLS-2005>
176.331085205078

> <r_mmod_Torsional_Energy-OPLS-2005>
378.591033935547

> <r_mmod_Improper_Torsional_Energy-OPLS-2005>
30.5901012420654

> <r_mmod_Van_der_Waal_Energy-OPLS-2005>
132.020034790039

> <r_mmod_Electrostatic_Energy-OPLS-2005>
-109.721260070801

> <r_mmod_Solvation_Energy-OPLS-2005>
-412.073150634766

> <b_mmod_Minimization_Converged-OPLS-2005>
0

> <r_mmod_RMS_Derivative-OPLS-2005>
3.88953328132629

$$$$
70
                    3D
 Structure written by MMmdl.
156164  0  0  1  0            999 V2000
  -30.4234  -15.1966   20.4588 C   0  0  0  0  0  0
  -30.4594  -12.7778   19.5106 C   0  0  0  0  0  0
  -29.5371  -12.6033   18.2730 C   0  0  0  0  0  0
  -28.0743  -12.3368   18.6810 C   0  0  0  0  0  0
  -27.6277  -13.2557   19.8443 C   0  0  2  0  0  0
  -28.6755  -13.2593   20.9726 C   0  0  0  0  0  0
  -25.2427  -13.8201   20.5682 C   0  0  0  0  0  0
  -24.1759  -13.0416   20.9209 C   0  0  0  0  0  0
  -24.6393  -11.6906   20.8735 C   0  0  0  0  0  0
  -23.9080  -10.4277   21.0400 C   0  0  0  0  0  0
  -24.3628   -9.4197   21.9184 C   0  0  0  0  0  0
  -23.6299   -8.2235   22.0756 C   0  0  0  0  0  0
  -22.4278   -8.0279   21.3551 C   0  0  0  0  0  0
  -21.9918   -9.0247   20.4652 C   0  0  0  0  0  0
  -22.7252  -10.2120   20.3055 C   0  0  0  0  0  0
  -21.6853   -6.0735   22.5281 C   0  0  0  0  0  0
  -21.4012   -6.5634   23.8216 C   0  0  0  0  0  0
  -21.3658   -5.6787   24.9175 C   0  0  0  0  0  0
  -21.6046   -4.3049   24.7225 C   0  0  0  0  0  0
  -21.8817   -3.8143   23.4344 C   0  0  0  0  0  0
  -21.9192   -4.6961   22.3403 C   0  0  0  0  0  0
  -22.7781  -13.5188   21.1873 C   0  0  0  0  0  0
  -22.1662   -4.2147   21.0979 F   0  0  0  0  0  0
  -21.5629   -3.4535   25.7737 F   0  0  0  0  0  0
  -29.9012  -13.8644   20.4000 N   0  0  0  0  0  0
  -26.2871  -12.9447   20.3249 N   0  0  0  0  0  0
  -25.9331  -11.6564   20.5710 N   0  0  0  0  0  0
  -22.0440  -12.8184   22.0442 N   0  0  0  0  0  0
  -25.4037  -15.1934   20.4069 N   0  0  0  0  0  0
  -31.6049  -15.2601   20.0831 O   0  0  0  0  0  0
  -21.6637   -6.8881   21.4249 O   0  0  0  0  0  0
  -22.3455  -14.5490   20.6715 O   0  0  0  0  0  0
  -24.6578  -31.8288   23.1746 C   0  0  0  0  0  0
  -25.9284  -32.4616   23.8190 C   0  0  1  0  0  0
  -27.2253  -26.9833   20.1804 C   0  0  0  0  0  0
  -25.5968  -33.8428   24.2102 N   0  0  0  0  0  0
  -23.4699  -30.4417   21.5228 C   0  0  2  0  0  0
  -24.9236  -28.8357   20.1158 C   0  0  0  0  0  0
  -22.7639  -29.4473   22.4807 C   0  0  0  0  0  0
  -18.0313  -28.1408   22.8469 C   0  0  0  0  0  0
  -24.1496  -36.7218   23.2648 C   0  0  0  0  0  0
  -26.0359  -30.6547   21.3948 C   0  0  0  0  0  0
  -26.1066  -29.2489   20.7411 C   0  0  0  0  0  0
  -27.2543  -28.3443   20.7457 C   0  0  0  0  0  0
  -26.0110  -26.7059   19.5136 C   0  0  0  0  0  0
  -24.8973  -27.5826   19.4830 C   0  0  0  0  0  0
  -23.7070  -29.7569   20.1492 C   0  0  0  0  0  0
  -25.4134  -36.2981   24.0305 C   0  0  1  0  0  0
  -20.5937  -28.3746   23.1202 C   0  0  2  0  0  0
  -20.6796  -26.9434   22.5403 C   0  0  0  0  0  0
  -19.5772  -26.6379   21.5212 C   0  0  0  0  0  0
  -18.1951  -26.7941   22.1620 C   0  0  0  0  0  0
  -19.1574  -28.8896   23.2822 C   0  0  0  0  0  0
  -18.9487  -30.1485   23.8859 C   0  0  0  0  0  0
  -17.6481  -30.6600   24.0552 C   0  0  0  0  0  0
  -25.9095  -34.9363   23.5021 C   0  0  0  0  0  0
  -16.5370  -29.9087   23.6340 C   0  0  0  0  0  0
  -16.7296  -28.6504   23.0365 C   0  0  0  0  0  0
  -26.4551  -31.6542   25.0699 C   0  0  0  0  0  0
  -25.3693  -31.3775   26.1365 C   0  0  0  0  0  0
  -27.0438  -30.2916   24.6393 C   0  0  0  0  0  0
  -27.6051  -32.4342   25.7500 C   0  0  0  0  0  0
  -27.5568  -37.1770   24.8468 C   0  0  0  0  0  0
  -21.4314  -29.3043   22.3555 N   0  0  0  0  0  0
  -26.4284  -37.3709   23.9401 N   0  0  0  0  0  0
  -24.7422  -31.0005   22.0849 N   0  0  0  0  0  0
  -23.4210  -28.8042   23.3031 O   0  0  0  0  0  0
  -28.2611  -25.9271   20.2265 O   0  0  0  0  0  0
  -26.5695  -34.8889   22.4612 O   0  0  0  0  0  0
  -23.5660  -32.1231   23.6874 O   0  0  0  0  0  0
  -28.9777  -20.2224   19.2892 C   0  0  0  0  0  0
  -29.8553  -19.0210   21.5671 C   0  0  0  0  0  0
  -29.1579  -21.2300   20.3326 C   0  0  0  0  0  0
  -29.1893  -18.7468   19.3744 C   0  0  0  0  0  0
  -29.6295  -20.4835   21.4897 C   0  0  0  0  0  0
  -29.6670  -18.0060   20.5370 C   0  0  0  0  0  0
  -28.8391  -17.9212   18.1509 C   0  0  0  0  0  0
  -29.9442  -21.2813   22.7424 C   0  0  0  0  0  0
  -28.7624  -16.1880   21.9637 C   0  0  0  0  0  0
  -29.1712  -22.9615   20.1567 C   0  0  0  0  0  0
  -28.0335  -24.3124   20.2801 C   0  0  0  0  0  0
  -29.6492  -16.4189   20.8156 N   0  0  0  0  0  0
  -31.4679  -13.0141   19.1695 H   0  0  0  0  0  0
  -30.5662  -11.8365   20.0525 H   0  0  0  0  0  0
  -29.9045  -11.7980   17.6356 H   0  0  0  0  0  0
  -29.5789  -13.5111   17.6692 H   0  0  0  0  0  0
  -27.9981  -11.2934   18.9898 H   0  0  0  0  0  0
  -27.4109  -12.4516   17.8225 H   0  0  0  0  0  0
  -27.5863  -14.2636   19.4297 H   0  0  0  0  0  0
  -28.8538  -12.2390   21.3148 H   0  0  0  0  0  0
  -28.3045  -13.7481   21.8647 H   0  0  0  0  0  0
  -25.2774   -9.5669   22.4756 H   0  0  0  0  0  0
  -24.0007   -7.4622   22.7468 H   0  0  0  0  0  0
  -21.0849   -8.8767   19.8962 H   0  0  0  0  0  0
  -22.3718  -10.9652   19.6156 H   0  0  0  0  0  0
  -21.2005   -7.6142   23.9719 H   0  0  0  0  0  0
  -21.1485   -6.0516   25.9082 H   0  0  0  0  0  0
  -22.0601   -2.7607   23.2840 H   0  0  0  0  0  0
  -22.4066  -11.9860   22.4842 H   0  0  0  0  0  0
  -21.1059  -13.1212   22.2648 H   0  0  0  0  0  0
  -24.6354  -15.8442   20.5272 H   0  0  0  0  0  0
  -26.2529  -15.6394   20.0857 H   0  0  0  0  0  0
  -26.7353  -32.5178   23.0907 H   0  0  0  0  0  0
  -25.0069  -33.9512   25.0221 H   0  0  0  0  0  0
  -22.7798  -31.2714   21.3544 H   0  0  0  0  0  0
  -23.3757  -35.9550   23.3305 H   0  0  0  0  0  0
  -24.3571  -36.8863   22.2063 H   0  0  0  0  0  0
  -23.7261  -37.6413   23.6701 H   0  0  0  0  0  0
  -26.2079  -31.3994   20.6163 H   0  0  0  0  0  0
  -26.8987  -30.7120   22.0467 H   0  0  0  0  0  0
  -28.1553  -28.6623   21.2510 H   0  0  0  0  0  0
  -25.8931  -25.7520   19.0219 H   0  0  0  0  0  0
  -23.9971  -27.2609   18.9774 H   0  0  0  0  0  0
  -23.8578  -30.5243   19.3893 H   0  0  0  0  0  0
  -22.8180  -29.2075   19.8347 H   0  0  0  0  0  0
  -25.1334  -36.1783   25.0798 H   0  0  0  0  0  0
  -21.0021  -28.3353   24.1328 H   0  0  0  0  0  0
  -20.5680  -26.2366   23.3640 H   0  0  0  0  0  0
  -21.6662  -26.7424   22.1211 H   0  0  0  0  0  0
  -19.6935  -25.6277   21.1276 H   0  0  0  0  0  0
  -19.6712  -27.3161   20.6719 H   0  0  0  0  0  0
  -17.4222  -26.6674   21.4023 H   0  0  0  0  0  0
  -18.0349  -26.0096   22.9030 H   0  0  0  0  0  0
  -19.7961  -30.7303   24.2225 H   0  0  0  0  0  0
  -17.5035  -31.6279   24.5151 H   0  0  0  0  0  0
  -15.5370  -30.2976   23.7692 H   0  0  0  0  0  0
  -15.8693  -28.0806   22.7113 H   0  0  0  0  0  0
  -24.5887  -30.7111   25.7675 H   0  0  0  0  0  0
  -24.8866  -32.2971   26.4686 H   0  0  0  0  0  0
  -25.7940  -30.9013   27.0212 H   0  0  0  0  0  0
  -26.3090  -29.6605   24.1382 H   0  0  0  0  0  0
  -27.3967  -29.7265   25.5030 H   0  0  0  0  0  0
  -27.9033  -30.4106   23.9795 H   0  0  0  0  0  0
  -27.2621  -33.3675   26.1975 H   0  0  0  0  0  0
  -28.3916  -32.6851   25.0371 H   0  0  0  0  0  0
  -28.0660  -31.8539   26.5502 H   0  0  0  0  0  0
  -28.2585  -38.0065   24.7485 H   0  0  0  0  0  0
  -28.1064  -36.2588   24.6331 H   0  0  0  0  0  0
  -27.2278  -37.1459   25.8870 H   0  0  0  0  0  0
  -20.9564  -29.8724   21.6678 H   0  0  0  0  0  0
  -26.0136  -38.2775   24.1386 H   0  0  0  0  0  0
  -28.6631  -20.6080   18.3294 H   0  0  0  0  0  0
  -30.1828  -18.6452   22.5265 H   0  0  0  0  0  0
  -28.5800  -18.5486   17.2977 H   0  0  0  0  0  0
  -27.9881  -17.2738   18.3646 H   0  0  0  0  0  0
  -29.6813  -17.2921   17.8609 H   0  0  0  0  0  0
  -29.9692  -20.6467   23.6291 H   0  0  0  0  0  0
  -29.1892  -22.0494   22.9133 H   0  0  0  0  0  0
  -30.9156  -21.7679   22.6493 H   0  0  0  0  0  0
  -28.5012  -17.0907   22.5127 H   0  0  0  0  0  0
  -29.2093  -15.5252   22.7073 H   0  0  0  0  0  0
  -27.8076  -15.7907   21.6257 H   0  0  0  0  0  0
  -29.6048  -23.0873   19.1650 H   0  0  0  0  0  0
  -29.9847  -23.2620   20.8163 H   0  0  0  0  0  0
  -27.5274  -24.1656   21.2343 H   0  0  0  0  0  0
  -27.2686  -24.1001   19.5349 H   0  0  0  0  0  0
  1 25  1  0  0  0
  1 30  2  0  0  0
  1 82  1  0  0  0
  2  3  1  0  0  0
  2 25  1  0  0  0
  2 83  1  0  0  0
  2 84  1  0  0  0
  3  4  1  0  0  0
  3 85  1  0  0  0
  3 86  1  0  0  0
  4  5  1  0  0  0
  4 87  1  0  0  0
  4 88  1  0  0  0
  5  6  1  0  0  0
  5 26  1  0  0  0
  5 89  1  0  0  0
  6 25  1  0  0  0
  6 90  1  0  0  0
  6 91  1  0  0  0
  7  8  2  0  0  0
  7 26  1  0  0  0
  7 29  1  0  0  0
  8  9  1  0  0  0
  8 22  1  0  0  0
  9 10  1  0  0  0
  9 27  2  0  0  0
 10 11  2  0  0  0
 10 15  1  0  0  0
 11 12  1  0  0  0
 11 92  1  0  0  0
 12 13  2  0  0  0
 12 93  1  0  0  0
 13 14  1  0  0  0
 13 31  1  0  0  0
 14 15  2  0  0  0
 14 94  1  0  0  0
 15 95  1  0  0  0
 16 17  2  0  0  0
 16 21  1  0  0  0
 16 31  1  0  0  0
 17 18  1  0  0  0
 17 96  1  0  0  0
 18 19  2  0  0  0
 18 97  1  0  0  0
 19 20  1  0  0  0
 19 24  1  0  0  0
 20 21  2  0  0  0
 20 98  1  0  0  0
 21 23  1  0  0  0
 22 28  1  0  0  0
 22 32  2  0  0  0
 26 27  1  0  0  0
 28 99  1  0  0  0
 28100  1  0  0  0
 29101  1  0  0  0
 29102  1  0  0  0
 33 34  1  0  0  0
 33 66  1  0  0  0
 33 70  2  0  0  0
 34 36  1  0  0  0
 34 59  1  0  0  0
 34103  1  0  0  0
 35 44  2  0  0  0
 35 45  1  0  0  0
 35 68  1  0  0  0
 36 56  1  0  0  0
 36104  1  0  0  0
 37 39  1  0  0  0
 37 47  1  0  0  0
 37 66  1  0  0  0
 37105  1  0  0  0
 38 43  2  0  0  0
 38 46  1  0  0  0
 38 47  1  0  0  0
 39 64  1  0  0  0
 39 67  2  0  0  0
 40 52  1  0  0  0
 40 53  2  0  0  0
 40 58  1  0  0  0
 41106  1  0  0  0
 41107  1  0  0  0
 41108  1  0  0  0
 41 48  1  0  0  0
 42 43  1  0  0  0
 42 66  1  0  0  0
 42109  1  0  0  0
 42110  1  0  0  0
 43 44  1  0  0  0
 44111  1  0  0  0
 45 46  2  0  0  0
 45112  1  0  0  0
 46113  1  0  0  0
 47114  1  0  0  0
 47115  1  0  0  0
 48 56  1  0  0  0
 48 65  1  0  0  0
 48116  1  0  0  0
 49 50  1  0  0  0
 49 53  1  0  0  0
 49 64  1  0  0  0
 49117  1  0  0  0
 50 51  1  0  0  0
 50118  1  0  0  0
 50119  1  0  0  0
 51 52  1  0  0  0
 51120  1  0  0  0
 51121  1  0  0  0
 52122  1  0  0  0
 52123  1  0  0  0
 53 54  1  0  0  0
 54 55  2  0  0  0
 54124  1  0  0  0
 55 57  1  0  0  0
 55125  1  0  0  0
 56 69  2  0  0  0
 57 58  2  0  0  0
 57126  1  0  0  0
 58127  1  0  0  0
 59 60  1  0  0  0
 59 61  1  0  0  0
 59 62  1  0  0  0
 60128  1  0  0  0
 60129  1  0  0  0
 60130  1  0  0  0
 61131  1  0  0  0
 61132  1  0  0  0
 61133  1  0  0  0
 62134  1  0  0  0
 62135  1  0  0  0
 62136  1  0  0  0
 63 65  1  0  0  0
 63137  1  0  0  0
 63138  1  0  0  0
 63139  1  0  0  0
 64140  1  0  0  0
 65141  1  0  0  0
 68 81  1  0  0  0
 71 73  2  0  0  0
 71 74  1  0  0  0
 71142  1  0  0  0
 72 75  2  0  0  0
 72 76  1  0  0  0
 72143  1  0  0  0
 73 75  1  0  0  0
 73 80  1  0  0  0
 74 76  2  0  0  0
 74 77  1  0  0  0
 75 78  1  0  0  0
 76 82  1  0  0  0
 77144  1  0  0  0
 77145  1  0  0  0
 77146  1  0  0  0
 78147  1  0  0  0
 78148  1  0  0  0
 78149  1  0  0  0
 79 82  1  0  0  0
 79150  1  0  0  0
 79151  1  0  0  0
 79152  1  0  0  0
 80 81  1  0  0  0
 80153  1  0  0  0
 80154  1  0  0  0
 81155  1  0  0  0
 81156  1  0  0  0
M  ISO  4   1 100  68 101  81 101  82 100
M  END
> <chiral flag>
0

> <version>
0

> <s_m_source_file>
/data/baiqing/PycharmProjects/Reinvent-master-3.2/result/LINK_invent/BTK/process_docking_weight1_custom_sum_contain_oxygen_bond_distance_aromatic_linkinvent_7_9_3/rearranged_h_0019.sdf

> <i_m_source_file_index>
71

> <r_mmod_Potential_Energy-OPLS-2005>
1229.43432617188

> <r_mmod_Stretch_Energy-OPLS-2005>
477.860778808594

> <r_mmod_Bend_Energy-OPLS-2005>
420.760437011719

> <r_mmod_Torsional_Energy-OPLS-2005>
303.916473388672

> <r_mmod_Improper_Torsional_Energy-OPLS-2005>
8.06504535675049

> <r_mmod_Van_der_Waal_Energy-OPLS-2005>
143.788452148438

> <r_mmod_Electrostatic_Energy-OPLS-2005>
-300.625610351562

> <r_mmod_Solvation_Energy-OPLS-2005>
-192.250595092773

> <b_mmod_Minimization_Converged-OPLS-2005>
0

> <r_mmod_RMS_Derivative-OPLS-2005>
0.877905964851379

$$$$
71
                    3D
 Structure written by MMmdl.
168176  0  0  1  0            999 V2000
  -30.1287  -14.9178   20.6822 C   0  0  0  0  0  0
  -30.4610  -12.6364   19.5363 C   0  0  0  0  0  0
  -29.5418  -12.5604   18.2840 C   0  0  0  0  0  0
  -28.0620  -12.2824   18.6460 C   0  0  0  0  0  0
  -27.6101  -13.1447   19.8407 C   0  0  2  0  0  0
  -28.6044  -12.9886   20.9983 C   0  0  0  0  0  0
  -25.2423  -13.7939   20.5503 C   0  0  0  0  0  0
  -24.1690  -13.0315   20.9166 C   0  0  0  0  0  0
  -24.6169  -11.6757   20.8717 C   0  0  0  0  0  0
  -23.8881  -10.4203   21.0449 C   0  0  0  0  0  0
  -24.3512   -9.4150   21.9195 C   0  0  0  0  0  0
  -23.6232   -8.2169   22.0735 C   0  0  0  0  0  0
  -22.4208   -8.0207   21.3525 C   0  0  0  0  0  0
  -21.9818   -9.0169   20.4624 C   0  0  0  0  0  0
  -22.7105  -10.2059   20.3063 C   0  0  0  0  0  0
  -21.6822   -6.0712   22.5290 C   0  0  0  0  0  0
  -21.3995   -6.5627   23.8227 C   0  0  0  0  0  0
  -21.3665   -5.6781   24.9192 C   0  0  0  0  0  0
  -21.6056   -4.3043   24.7236 C   0  0  0  0  0  0
  -21.8828   -3.8133   23.4354 C   0  0  0  0  0  0
  -21.9184   -4.6951   22.3412 C   0  0  0  0  0  0
  -22.7777  -13.5198   21.1905 C   0  0  0  0  0  0
  -22.1651   -4.2144   21.0984 F   0  0  0  0  0  0
  -21.5639   -3.4517   25.7743 F   0  0  0  0  0  0
  -29.8482  -13.5688   20.5267 N   0  0  0  0  0  0
  -26.2623  -12.8907   20.2934 N   0  0  0  0  0  0
  -25.9000  -11.6165   20.5556 N   0  0  0  0  0  0
  -22.0435  -12.8209   22.0487 N   0  0  0  0  0  0
  -25.4256  -15.1648   20.3891 N   0  0  0  0  0  0
  -31.2793  -15.2652   20.3446 O   0  0  0  0  0  0
  -21.6588   -6.8807   21.4225 O   0  0  0  0  0  0
  -22.3509  -14.5544   20.6798 O   0  0  0  0  0  0
  -24.6845  -31.9723   23.2176 C   0  0  0  0  0  0
  -25.9756  -32.5169   23.8613 C   0  0  1  0  0  0
  -25.5778  -27.2055   20.6428 C   0  0  0  0  0  0
  -25.6601  -33.8893   24.2605 N   0  0  0  0  0  0
  -23.4610  -30.6854   21.5688 C   0  0  2  0  0  0
  -24.7562  -29.3608   19.7754 C   0  0  0  0  0  0
  -23.0594  -29.6230   22.6124 C   0  0  0  0  0  0
  -18.7591  -27.9901   22.2962 C   0  0  0  0  0  0
  -24.1521  -36.7364   23.2590 C   0  0  0  0  0  0
  -25.9793  -30.8389   21.3942 C   0  0  0  0  0  0
  -25.8323  -29.5220   20.6593 C   0  0  0  0  0  0
  -26.4304  -28.3101   21.0357 C   0  0  0  0  0  0
  -25.5330  -27.1148   19.2759 C   0  0  0  0  0  0
  -24.6995  -28.1930   18.9538 C   0  0  0  0  0  0
  -23.5737  -30.2317   20.0594 C   0  0  0  0  0  0
  -25.4156  -36.3246   24.0318 C   0  0  1  0  0  0
  -21.3637  -28.1813   23.4331 C   0  0  2  0  0  0
  -22.3044  -26.3688   23.1028 C   0  0  0  0  0  0
  -20.8246  -25.5911   21.2949 C   0  0  0  0  0  0
  -19.2864  -26.7603   21.1767 C   0  0  0  0  0  0
  -19.7260  -28.6414   23.2030 C   0  0  0  0  0  0
  -19.2441  -29.8101   23.9238 C   0  0  0  0  0  0
  -17.9033  -30.2701   23.9585 C   0  0  0  0  0  0
  -25.9214  -34.9669   23.5124 C   0  0  0  0  0  0
  -16.9303  -29.5029   23.3061 C   0  0  0  0  0  0
  -17.3570  -28.3969   22.5014 C   0  0  0  0  0  0
  -26.4678  -31.6672   25.0917 C   0  0  0  0  0  0
  -25.3701  -31.3848   26.1436 C   0  0  0  0  0  0
  -27.0403  -30.3069   24.6314 C   0  0  0  0  0  0
  -27.6246  -32.4190   25.7862 C   0  0  0  0  0  0
  -27.5606  -37.1908   24.8453 C   0  0  0  0  0  0
  -21.7934  -29.4075   22.7942 N   0  0  0  0  0  0
  -26.4303  -37.3953   23.9428 N   0  0  0  0  0  0
  -24.7325  -31.2399   22.0740 N   0  0  0  0  0  0
  -23.8628  -28.9719   23.2781 O   0  0  0  0  0  0
  -24.1682  -27.0676   21.2235 O   0  0  0  0  0  0
  -26.5530  -34.9078   22.4532 O   0  0  0  0  0  0
  -23.6057  -32.2475   23.7657 O   0  0  0  0  0  0
  -24.2303  -22.5602   23.8694 C   0  0  0  0  0  0
  -22.8488  -21.8030   22.1372 C   0  0  0  0  0  0
  -25.2223  -20.7402   22.3729 C   0  0  0  0  0  0
  -22.9186  -22.6978   23.2824 C   0  0  0  0  0  0
  -25.2877  -21.6521   23.4758 C   0  0  0  0  0  0
  -23.9430  -20.8951   21.7113 C   0  0  0  0  0  0
  -21.5614  -21.7950   21.3331 C   0  0  0  0  0  0
  -21.8665  -23.2171   25.3848 C   0  0  0  0  0  0
  -26.5796  -19.9233   21.8092 C   0  0  0  0  0  0
  -28.8487  -15.9632   21.1259 C   0  0  0  0  0  0
  -27.0504  -18.2914   21.8472 C   0  0  0  0  0  0
  -28.5742  -17.6165   21.4116 C   0  0  0  0  0  0
  -20.1821  -26.0872   23.3267 C   0  0  0  0  0  0
  -20.5112  -24.3599   23.6530 C   0  0  0  0  0  0
  -22.1782  -27.3715   21.1823 C   0  0  0  0  0  0
  -21.8706  -23.5703   23.9523 N   0  0  0  0  0  0
  -26.4347  -21.6932   24.1935 F   0  0  0  0  0  0
  -23.7256  -19.9368   20.2861 Cl  0  0  0  0  0  0
  -31.4552  -12.9774   19.2455 H   0  0  0  0  0  0
  -30.6061  -11.6509   19.9863 H   0  0  0  0  0  0
  -29.9199  -11.8056   17.5919 H   0  0  0  0  0  0
  -29.6020  -13.5172   17.7628 H   0  0  0  0  0  0
  -27.9623  -11.2282   18.9025 H   0  0  0  0  0  0
  -27.4177  -12.4595   17.7845 H   0  0  0  0  0  0
  -27.6047  -14.1476   19.4396 H   0  0  0  0  0  0
  -28.7393  -11.9327   21.2365 H   0  0  0  0  0  0
  -28.2423  -13.4229   21.9272 H   0  0  0  0  0  0
  -25.2665   -9.5689   22.4737 H   0  0  0  0  0  0
  -24.0007   -7.4558   22.7423 H   0  0  0  0  0  0
  -21.0774   -8.8687   19.8877 H   0  0  0  0  0  0
  -22.3588  -10.9620   19.6181 H   0  0  0  0  0  0
  -21.1965   -7.6126   23.9756 H   0  0  0  0  0  0
  -21.1485   -6.0479   25.9109 H   0  0  0  0  0  0
  -22.0599   -2.7588   23.2854 H   0  0  0  0  0  0
  -22.4016  -11.9838   22.4850 H   0  0  0  0  0  0
  -21.1071  -13.1264   22.2707 H   0  0  0  0  0  0
  -24.6651  -15.8250   20.5090 H   0  0  0  0  0  0
  -26.2748  -15.5975   20.0503 H   0  0  0  0  0  0
  -26.7857  -32.5592   23.1376 H   0  0  0  0  0  0
  -25.0908  -34.0016   25.0862 H   0  0  0  0  0  0
  -22.6981  -31.4693   21.5850 H   0  0  0  0  0  0
  -23.3846  -35.9621   23.3225 H   0  0  0  0  0  0
  -24.3635  -36.9006   22.2006 H   0  0  0  0  0  0
  -23.7191  -37.6525   23.6612 H   0  0  0  0  0  0
  -26.2489  -31.6181   20.6767 H   0  0  0  0  0  0
  -26.8338  -30.7320   22.0547 H   0  0  0  0  0  0
  -26.9936  -28.2922   21.9585 H   0  0  0  0  0  0
  -25.2722  -26.1866   18.7841 H   0  0  0  0  0  0
  -23.9379  -28.0828   18.1983 H   0  0  0  0  0  0
  -23.7092  -31.1306   19.4570 H   0  0  0  0  0  0
  -22.6528  -29.8020   19.6744 H   0  0  0  0  0  0
  -25.1309  -36.2091   25.0805 H   0  0  0  0  0  0
  -21.5531  -28.3620   24.4948 H   0  0  0  0  0  0
  -22.3361  -25.9024   24.0878 H   0  0  0  0  0  0
  -23.3834  -26.3122   23.0323 H   0  0  0  0  0  0
  -20.4750  -24.5692   21.3368 H   0  0  0  0  0  0
  -21.2589  -25.3535   20.3166 H   0  0  0  0  0  0
  -19.4088  -27.3003   20.2360 H   0  0  0  0  0  0
  -18.4171  -26.1267   20.9906 H   0  0  0  0  0  0
  -19.9569  -30.3567   24.5251 H   0  0  0  0  0  0
  -17.6293  -31.1368   24.5442 H   0  0  0  0  0  0
  -15.8867  -29.7758   23.3651 H   0  0  0  0  0  0
  -16.5928  -27.8755   21.9409 H   0  0  0  0  0  0
  -24.5854  -30.7334   25.7549 H   0  0  0  0  0  0
  -24.8967  -32.3055   26.4865 H   0  0  0  0  0  0
  -25.7844  -30.8882   27.0217 H   0  0  0  0  0  0
  -26.2967  -29.6966   24.1199 H   0  0  0  0  0  0
  -27.3895  -29.7193   25.4804 H   0  0  0  0  0  0
  -27.8971  -30.4293   23.9695 H   0  0  0  0  0  0
  -27.2934  -33.3477   26.2538 H   0  0  0  0  0  0
  -28.4183  -32.6731   25.0807 H   0  0  0  0  0  0
  -28.0755  -31.8147   26.5740 H   0  0  0  0  0  0
  -28.2584  -38.0259   24.7621 H   0  0  0  0  0  0
  -28.1173  -36.2801   24.6148 H   0  0  0  0  0  0
  -27.2346  -37.1385   25.8864 H   0  0  0  0  0  0
  -21.0973  -29.9669   22.3202 H   0  0  0  0  0  0
  -26.0186  -38.3002   24.1520 H   0  0  0  0  0  0
  -24.4619  -23.1939   24.7130 H   0  0  0  0  0  0
  -20.7156  -22.1453   21.9157 H   0  0  0  0  0  0
  -21.2917  -20.7899   21.0104 H   0  0  0  0  0  0
  -21.6622  -22.4242   20.4463 H   0  0  0  0  0  0
  -22.6093  -22.4826   25.6945 H   0  0  0  0  0  0
  -20.9147  -22.7553   25.6585 H   0  0  0  0  0  0
  -22.0054  -24.0989   26.0110 H   0  0  0  0  0  0
  -27.4110  -20.4645   22.2607 H   0  0  0  0  0  0
  -26.6424  -20.2260   20.7616 H   0  0  0  0  0  0
  -28.1908  -15.8514   20.2741 H   0  0  0  0  0  0
  -28.3494  -15.4952   21.9710 H   0  0  0  0  0  0
  -26.3002  -17.7588   21.2637 H   0  0  0  0  0  0
  -26.8790  -17.9622   22.8729 H   0  0  0  0  0  0
  -28.9406  -18.1612   20.5391 H   0  0  0  0  0  0
  -29.2656  -17.9104   22.2050 H   0  0  0  0  0  0
  -20.1954  -26.4528   24.3629 H   0  0  0  0  0  0
  -19.1009  -25.9395   23.2518 H   0  0  0  0  0  0
  -19.9017  -23.7353   23.0045 H   0  0  0  0  0  0
  -19.9242  -24.2341   24.5624 H   0  0  0  0  0  0
  -21.8172  -28.3158   20.8046 H   0  0  0  0  0  0
  -22.1036  -27.0664   20.1355 H   0  0  0  0  0  0
  1 25  1  0  0  0
  1 30  2  0  0  0
  1 80  1  0  0  0
  2  3  1  0  0  0
  2 25  1  0  0  0
  2 89  1  0  0  0
  2 90  1  0  0  0
  3  4  1  0  0  0
  3 91  1  0  0  0
  3 92  1  0  0  0
  4  5  1  0  0  0
  4 93  1  0  0  0
  4 94  1  0  0  0
  5  6  1  0  0  0
  5 26  1  0  0  0
  5 95  1  0  0  0
  6 25  1  0  0  0
  6 96  1  0  0  0
  6 97  1  0  0  0
  7  8  2  0  0  0
  7 26  1  0  0  0
  7 29  1  0  0  0
  8  9  1  0  0  0
  8 22  1  0  0  0
  9 10  1  0  0  0
  9 27  2  0  0  0
 10 11  2  0  0  0
 10 15  1  0  0  0
 11 12  1  0  0  0
 11 98  1  0  0  0
 12 13  2  0  0  0
 12 99  1  0  0  0
 13 14  1  0  0  0
 13 31  1  0  0  0
 14 15  2  0  0  0
 14100  1  0  0  0
 15101  1  0  0  0
 16 17  2  0  0  0
 16 21  1  0  0  0
 16 31  1  0  0  0
 17 18  1  0  0  0
 17102  1  0  0  0
 18 19  2  0  0  0
 18103  1  0  0  0
 19 20  1  0  0  0
 19 24  1  0  0  0
 20 21  2  0  0  0
 20104  1  0  0  0
 21 23  1  0  0  0
 22 28  1  0  0  0
 22 32  2  0  0  0
 26 27  1  0  0  0
 28105  1  0  0  0
 28106  1  0  0  0
 29107  1  0  0  0
 29108  1  0  0  0
 33 34  1  0  0  0
 33 66  1  0  0  0
 33 70  2  0  0  0
 34 36  1  0  0  0
 34 59  1  0  0  0
 34109  1  0  0  0
 35 44  2  0  0  0
 35 45  1  0  0  0
 35 68  1  0  0  0
 36 56  1  0  0  0
 36110  1  0  0  0
 37 39  1  0  0  0
 37 47  1  0  0  0
 37 66  1  0  0  0
 37111  1  0  0  0
 38 43  2  0  0  0
 38 46  1  0  0  0
 38 47  1  0  0  0
 39 64  1  0  0  0
 39 67  2  0  0  0
 40 52  1  0  0  0
 40 53  2  0  0  0
 40 58  1  0  0  0
 41112  1  0  0  0
 41113  1  0  0  0
 41114  1  0  0  0
 41 48  1  0  0  0
 42 43  1  0  0  0
 42 66  1  0  0  0
 42115  1  0  0  0
 42116  1  0  0  0
 43 44  1  0  0  0
 44117  1  0  0  0
 45 46  2  0  0  0
 45118  1  0  0  0
 46119  1  0  0  0
 47120  1  0  0  0
 47121  1  0  0  0
 48 56  1  0  0  0
 48 65  1  0  0  0
 48122  1  0  0  0
 49 50  1  0  0  0
 49 53  1  0  0  0
 49 64  1  0  0  0
 49123  1  0  0  0
 50 51  1  0  0  0
 50124  1  0  0  0
 50125  1  0  0  0
 51 52  1  0  0  0
 51126  1  0  0  0
 51127  1  0  0  0
 52128  1  0  0  0
 52129  1  0  0  0
 53 54  1  0  0  0
 54 55  2  0  0  0
 54130  1  0  0  0
 55 57  1  0  0  0
 55131  1  0  0  0
 56 69  2  0  0  0
 57 58  2  0  0  0
 57132  1  0  0  0
 58133  1  0  0  0
 59 60  1  0  0  0
 59 61  1  0  0  0
 59 62  1  0  0  0
 60134  1  0  0  0
 60135  1  0  0  0
 60136  1  0  0  0
 61137  1  0  0  0
 61138  1  0  0  0
 61139  1  0  0  0
 62140  1  0  0  0
 62141  1  0  0  0
 62142  1  0  0  0
 63 65  1  0  0  0
 63143  1  0  0  0
 63144  1  0  0  0
 63145  1  0  0  0
 64146  1  0  0  0
 65147  1  0  0  0
 68 85  1  0  0  0
 71 74  2  0  0  0
 71 75  1  0  0  0
 71148  1  0  0  0
 72 74  1  0  0  0
 72 76  2  0  0  0
 72 77  1  0  0  0
 73 75  2  0  0  0
 73 76  1  0  0  0
 73 79  1  0  0  0
 74 86  1  0  0  0
 75 87  1  0  0  0
 76 88  1  0  0  0
 77149  1  0  0  0
 77150  1  0  0  0
 77151  1  0  0  0
 78 86  1  0  0  0
 78152  1  0  0  0
 78153  1  0  0  0
 78154  1  0  0  0
 79 81  1  0  0  0
 79155  1  0  0  0
 79156  1  0  0  0
 80 82  1  0  0  0
 80157  1  0  0  0
 80158  1  0  0  0
 81 82  1  0  0  0
 81159  1  0  0  0
 81160  1  0  0  0
 82161  1  0  0  0
 82162  1  0  0  0
 83 84  1  0  0  0
 83 85  1  0  0  0
 83163  1  0  0  0
 83164  1  0  0  0
 84 86  1  0  0  0
 84165  1  0  0  0
 84166  1  0  0  0
 85167  1  0  0  0
 85168  1  0  0  0
M  ISO  4   1 100  68 101  80 100  85 101
M  END
> <chiral flag>
0

> <version>
0

> <s_m_source_file>
/data/baiqing/PycharmProjects/Reinvent-master-3.2/result/LINK_invent/BTK/process_docking_weight1_custom_sum_contain_oxygen_bond_distance_aromatic_linkinvent_7_9_3/rearranged_h_0019.sdf

> <i_m_source_file_index>
72

> <r_mmod_Potential_Energy-OPLS-2005>
12697.4775390625

> <r_mmod_Stretch_Energy-OPLS-2005>
5729.181640625

> <r_mmod_Bend_Energy-OPLS-2005>
989.186889648438

> <r_mmod_Torsional_Energy-OPLS-2005>
510.803436279297

> <r_mmod_Improper_Torsional_Energy-OPLS-2005>
46.6407165527344

> <r_mmod_Van_der_Waal_Energy-OPLS-2005>
1961.15209960938

> <r_mmod_Electrostatic_Energy-OPLS-2005>
-322.614196777344

> <r_mmod_Solvation_Energy-OPLS-2005>
-187.613952636719

> <b_mmod_Minimization_Converged-OPLS-2005>
0

> <r_mmod_RMS_Derivative-OPLS-2005>
10.0702219009399

$$$$
72
                    3D
 Structure written by MMmdl.
156164  0  0  1  0            999 V2000
  -30.2980  -15.6117   20.3712 C   0  0  0  0  0  0
  -30.4398  -13.0666   19.5415 C   0  0  0  0  0  0
  -29.5518  -12.6702   18.3234 C   0  0  0  0  0  0
  -28.1167  -12.3221   18.7501 C   0  0  0  0  0  0
  -27.6074  -13.3008   19.8313 C   0  0  2  0  0  0
  -28.6398  -13.5394   20.9569 C   0  0  0  0  0  0
  -25.2300  -13.8249   20.5712 C   0  0  0  0  0  0
  -24.1705  -13.0407   20.9265 C   0  0  0  0  0  0
  -24.6430  -11.6928   20.8783 C   0  0  0  0  0  0
  -23.9126  -10.4282   21.0413 C   0  0  0  0  0  0
  -24.3661   -9.4194   21.9189 C   0  0  0  0  0  0
  -23.6315   -8.2238   22.0762 C   0  0  0  0  0  0
  -22.4295   -8.0288   21.3548 C   0  0  0  0  0  0
  -21.9954   -9.0260   20.4637 C   0  0  0  0  0  0
  -22.7302  -10.2132   20.3048 C   0  0  0  0  0  0
  -21.6861   -6.0752   22.5283 C   0  0  0  0  0  0
  -21.4015   -6.5650   23.8216 C   0  0  0  0  0  0
  -21.3661   -5.6803   24.9180 C   0  0  0  0  0  0
  -21.6043   -4.3063   24.7224 C   0  0  0  0  0  0
  -21.8820   -3.8160   23.4343 C   0  0  0  0  0  0
  -21.9191   -4.6978   22.3404 C   0  0  0  0  0  0
  -22.7712  -13.5137   21.1902 C   0  0  0  0  0  0
  -22.1656   -4.2166   21.0980 F   0  0  0  0  0  0
  -21.5637   -3.4542   25.7732 F   0  0  0  0  0  0
  -29.8073  -14.2233   20.3305 N   0  0  0  0  0  0
  -26.2806  -12.9598   20.3279 N   0  0  0  0  0  0
  -25.9390  -11.6674   20.5762 N   0  0  0  0  0  0
  -22.0385  -12.8116   22.0468 N   0  0  0  0  0  0
  -25.3753  -15.1975   20.4005 N   0  0  0  0  0  0
  -31.5101  -15.5841   20.0799 O   0  0  0  0  0  0
  -21.6642   -6.8898   21.4247 O   0  0  0  0  0  0
  -22.3370  -14.5427   20.6738 O   0  0  0  0  0  0
  -24.6833  -31.8015   23.1523 C   0  0  0  0  0  0
  -25.9416  -32.4484   23.8072 C   0  0  1  0  0  0
  -27.2344  -26.7172   20.2102 C   0  0  0  0  0  0
  -25.5996  -33.8310   24.1965 N   0  0  0  0  0  0
  -23.5096  -30.4024   21.5069 C   0  0  2  0  0  0
  -24.9692  -28.7462   20.1187 C   0  0  0  0  0  0
  -22.7770  -29.4323   22.4725 C   0  0  0  0  0  0
  -18.0339  -28.1424   22.8459 C   0  0  0  0  0  0
  -24.1484  -36.7156   23.2652 C   0  0  0  0  0  0
  -26.0903  -30.5378   21.4155 C   0  0  0  0  0  0
  -26.1582  -29.1042   20.7653 C   0  0  0  0  0  0
  -27.2767  -28.1175   20.7783 C   0  0  0  0  0  0
  -26.0109  -26.5664   19.5078 C   0  0  0  0  0  0
  -24.9335  -27.5019   19.4666 C   0  0  0  0  0  0
  -23.7634  -29.6984   20.1431 C   0  0  0  0  0  0
  -25.4135  -36.2906   24.0285 C   0  0  1  0  0  0
  -20.5974  -28.3785   23.1144 C   0  0  2  0  0  0
  -20.6806  -26.9447   22.5401 C   0  0  0  0  0  0
  -19.5780  -26.6369   21.5218 C   0  0  0  0  0  0
  -18.1961  -26.7953   22.1616 C   0  0  0  0  0  0
  -19.1605  -28.8930   23.2779 C   0  0  0  0  0  0
  -18.9512  -30.1513   23.8822 C   0  0  0  0  0  0
  -17.6505  -30.6611   24.0548 C   0  0  0  0  0  0
  -25.9122  -34.9298   23.4958 C   0  0  0  0  0  0
  -16.5393  -29.9094   23.6357 C   0  0  0  0  0  0
  -16.7320  -28.6514   23.0378 C   0  0  0  0  0  0
  -26.4593  -31.6514   25.0691 C   0  0  0  0  0  0
  -25.3649  -31.3817   26.1296 C   0  0  0  0  0  0
  -27.0535  -30.2863   24.6575 C   0  0  0  0  0  0
  -27.6037  -32.4380   25.7505 C   0  0  0  0  0  0
  -27.5566  -37.1725   24.8464 C   0  0  0  0  0  0
  -21.4419  -29.3033   22.3471 N   0  0  0  0  0  0
  -26.4259  -37.3673   23.9428 N   0  0  0  0  0  0
  -24.7843  -30.9462   22.0777 N   0  0  0  0  0  0
  -23.4211  -28.7921   23.3068 O   0  0  0  0  0  0
  -28.1947  -25.4990   20.2804 O   0  0  0  0  0  0
  -26.5757  -34.8870   22.4574 O   0  0  0  0  0  0
  -23.5851  -32.1097   23.6466 O   0  0  0  0  0  0
  -27.9974  -20.8659   19.5903 C   0  0  0  0  0  0
  -28.6121  -22.0659   20.2123 C   0  0  0  0  0  0
  -28.3224  -19.3797   19.6359 C   0  0  0  0  0  0
  -29.7199  -21.3501   20.9234 C   0  0  0  0  0  0
  -30.0716  -19.8361   20.9757 C   0  0  0  0  0  0
  -29.4138  -18.6488   20.3289 C   0  0  0  0  0  0
  -27.3406  -18.4939   18.8890 C   0  0  0  0  0  0
  -30.5976  -22.2846   21.7434 C   0  0  0  0  0  0
  -31.2544  -19.4512   21.8549 C   0  0  0  0  0  0
  -28.4891  -16.6900   21.6223 C   0  0  0  0  0  0
  -27.8752  -23.7868   20.1427 C   0  0  0  0  0  0
  -29.5076  -16.9487   20.6078 N   0  0  0  0  0  0
  -31.4245  -13.3445   19.1649 H   0  0  0  0  0  0
  -30.6298  -12.2037   20.1813 H   0  0  0  0  0  0
  -29.9966  -11.8349   17.7801 H   0  0  0  0  0  0
  -29.5217  -13.5084   17.6260 H   0  0  0  0  0  0
  -28.1210  -11.3076   19.1494 H   0  0  0  0  0  0
  -27.4491  -12.3132   17.8875 H   0  0  0  0  0  0
  -27.4940  -14.2511   19.3084 H   0  0  0  0  0  0
  -28.9123  -12.5998   21.4402 H   0  0  0  0  0  0
  -28.2067  -14.1300   21.7576 H   0  0  0  0  0  0
  -25.2808   -9.5668   22.4772 H   0  0  0  0  0  0
  -24.0027   -7.4630   22.7483 H   0  0  0  0  0  0
  -21.0901   -8.8782   19.8921 H   0  0  0  0  0  0
  -22.3771  -10.9677   19.6157 H   0  0  0  0  0  0
  -21.2000   -7.6155   23.9720 H   0  0  0  0  0  0
  -21.1487   -6.0533   25.9085 H   0  0  0  0  0  0
  -22.0596   -2.7621   23.2834 H   0  0  0  0  0  0
  -22.4044  -11.9805   22.4873 H   0  0  0  0  0  0
  -21.0982  -13.1094   22.2651 H   0  0  0  0  0  0
  -24.5957  -15.8372   20.5033 H   0  0  0  0  0  0
  -26.2120  -15.6433   20.0509 H   0  0  0  0  0  0
  -26.7504  -32.4962   23.0790 H   0  0  0  0  0  0
  -25.0086  -33.9355   25.0082 H   0  0  0  0  0  0
  -22.8335  -31.2391   21.3163 H   0  0  0  0  0  0
  -23.3783  -35.9445   23.3230 H   0  0  0  0  0  0
  -24.3556  -36.8914   22.2086 H   0  0  0  0  0  0
  -23.7193  -37.6287   23.6788 H   0  0  0  0  0  0
  -26.2905  -31.2618   20.6247 H   0  0  0  0  0  0
  -26.9425  -30.6078   22.0791 H   0  0  0  0  0  0
  -28.1709  -28.3968   21.3169 H   0  0  0  0  0  0
  -25.8456  -25.6250   19.0038 H   0  0  0  0  0  0
  -24.0364  -27.2188   18.9330 H   0  0  0  0  0  0
  -23.9367  -30.4585   19.3804 H   0  0  0  0  0  0
  -22.8692  -29.1634   19.8195 H   0  0  0  0  0  0
  -25.1334  -36.1671   25.0773 H   0  0  0  0  0  0
  -21.0049  -28.3407   24.1274 H   0  0  0  0  0  0
  -20.5687  -26.2406   23.3660 H   0  0  0  0  0  0
  -21.6664  -26.7402   22.1206 H   0  0  0  0  0  0
  -19.6933  -25.6255   21.1306 H   0  0  0  0  0  0
  -19.6719  -27.3125   20.6704 H   0  0  0  0  0  0
  -17.4234  -26.6715   21.4011 H   0  0  0  0  0  0
  -18.0327  -26.0106   22.9014 H   0  0  0  0  0  0
  -19.7991  -30.7344   24.2151 H   0  0  0  0  0  0
  -17.5064  -31.6286   24.5156 H   0  0  0  0  0  0
  -15.5390  -30.2976   23.7723 H   0  0  0  0  0  0
  -15.8717  -28.0803   22.7147 H   0  0  0  0  0  0
  -24.5848  -30.7165   25.7576 H   0  0  0  0  0  0
  -24.8811  -32.3033   26.4545 H   0  0  0  0  0  0
  -25.7807  -30.9081   27.0199 H   0  0  0  0  0  0
  -26.3255  -29.6467   24.1576 H   0  0  0  0  0  0
  -27.3998  -29.7318   25.5307 H   0  0  0  0  0  0
  -27.9217  -30.4016   24.0084 H   0  0  0  0  0  0
  -27.2590  -33.3775   26.1844 H   0  0  0  0  0  0
  -28.3959  -32.6805   25.0407 H   0  0  0  0  0  0
  -28.0582  -31.8673   26.5615 H   0  0  0  0  0  0
  -28.2516  -38.0087   24.7572 H   0  0  0  0  0  0
  -28.1130  -36.2611   24.6215 H   0  0  0  0  0  0
  -27.2288  -37.1269   25.8865 H   0  0  0  0  0  0
  -20.9722  -29.8712   21.6556 H   0  0  0  0  0  0
  -26.0086  -38.2713   24.1482 H   0  0  0  0  0  0
  -27.1113  -21.1082   19.0211 H   0  0  0  0  0  0
  -26.8748  -19.0233   18.0574 H   0  0  0  0  0  0
  -26.5502  -18.1562   19.5601 H   0  0  0  0  0  0
  -27.8358  -17.6139   18.4774 H   0  0  0  0  0  0
  -30.3010  -23.3267   21.6230 H   0  0  0  0  0  0
  -31.6408  -22.2096   21.4351 H   0  0  0  0  0  0
  -30.5290  -22.0502   22.8057 H   0  0  0  0  0  0
  -32.1737  -19.9024   21.4808 H   0  0  0  0  0  0
  -31.4156  -18.3735   21.8775 H   0  0  0  0  0  0
  -31.1006  -19.7734   22.8844 H   0  0  0  0  0  0
  -28.0882  -17.6088   22.0524 H   0  0  0  0  0  0
  -28.8892  -16.1225   22.4646 H   0  0  0  0  0  0
  -27.6471  -16.1629   21.1875 H   0  0  0  0  0  0
  -27.0394  -23.6780   20.8347 H   0  0  0  0  0  0
  -27.3999  -23.7530   19.1625 H   0  0  0  0  0  0
  1 25  1  0  0  0
  1 30  2  0  0  0
  1 82  1  0  0  0
  2  3  1  0  0  0
  2 25  1  0  0  0
  2 83  1  0  0  0
  2 84  1  0  0  0
  3  4  1  0  0  0
  3 85  1  0  0  0
  3 86  1  0  0  0
  4  5  1  0  0  0
  4 87  1  0  0  0
  4 88  1  0  0  0
  5  6  1  0  0  0
  5 26  1  0  0  0
  5 89  1  0  0  0
  6 25  1  0  0  0
  6 90  1  0  0  0
  6 91  1  0  0  0
  7  8  2  0  0  0
  7 26  1  0  0  0
  7 29  1  0  0  0
  8  9  1  0  0  0
  8 22  1  0  0  0
  9 10  1  0  0  0
  9 27  2  0  0  0
 10 11  2  0  0  0
 10 15  1  0  0  0
 11 12  1  0  0  0
 11 92  1  0  0  0
 12 13  2  0  0  0
 12 93  1  0  0  0
 13 14  1  0  0  0
 13 31  1  0  0  0
 14 15  2  0  0  0
 14 94  1  0  0  0
 15 95  1  0  0  0
 16 17  2  0  0  0
 16 21  1  0  0  0
 16 31  1  0  0  0
 17 18  1  0  0  0
 17 96  1  0  0  0
 18 19  2  0  0  0
 18 97  1  0  0  0
 19 20  1  0  0  0
 19 24  1  0  0  0
 20 21  2  0  0  0
 20 98  1  0  0  0
 21 23  1  0  0  0
 22 28  1  0  0  0
 22 32  2  0  0  0
 26 27  1  0  0  0
 28 99  1  0  0  0
 28100  1  0  0  0
 29101  1  0  0  0
 29102  1  0  0  0
 33 34  1  0  0  0
 33 66  1  0  0  0
 33 70  2  0  0  0
 34 36  1  0  0  0
 34 59  1  0  0  0
 34103  1  0  0  0
 35 44  2  0  0  0
 35 45  1  0  0  0
 35 68  1  0  0  0
 36 56  1  0  0  0
 36104  1  0  0  0
 37 39  1  0  0  0
 37 47  1  0  0  0
 37 66  1  0  0  0
 37105  1  0  0  0
 38 43  2  0  0  0
 38 46  1  0  0  0
 38 47  1  0  0  0
 39 64  1  0  0  0
 39 67  2  0  0  0
 40 52  1  0  0  0
 40 53  2  0  0  0
 40 58  1  0  0  0
 41106  1  0  0  0
 41107  1  0  0  0
 41108  1  0  0  0
 41 48  1  0  0  0
 42 43  1  0  0  0
 42 66  1  0  0  0
 42109  1  0  0  0
 42110  1  0  0  0
 43 44  1  0  0  0
 44111  1  0  0  0
 45 46  2  0  0  0
 45112  1  0  0  0
 46113  1  0  0  0
 47114  1  0  0  0
 47115  1  0  0  0
 48 56  1  0  0  0
 48 65  1  0  0  0
 48116  1  0  0  0
 49 50  1  0  0  0
 49 53  1  0  0  0
 49 64  1  0  0  0
 49117  1  0  0  0
 50 51  1  0  0  0
 50118  1  0  0  0
 50119  1  0  0  0
 51 52  1  0  0  0
 51120  1  0  0  0
 51121  1  0  0  0
 52122  1  0  0  0
 52123  1  0  0  0
 53 54  1  0  0  0
 54 55  2  0  0  0
 54124  1  0  0  0
 55 57  1  0  0  0
 55125  1  0  0  0
 56 69  2  0  0  0
 57 58  2  0  0  0
 57126  1  0  0  0
 58127  1  0  0  0
 59 60  1  0  0  0
 59 61  1  0  0  0
 59 62  1  0  0  0
 60128  1  0  0  0
 60129  1  0  0  0
 60130  1  0  0  0
 61131  1  0  0  0
 61132  1  0  0  0
 61133  1  0  0  0
 62134  1  0  0  0
 62135  1  0  0  0
 62136  1  0  0  0
 63 65  1  0  0  0
 63137  1  0  0  0
 63138  1  0  0  0
 63139  1  0  0  0
 64140  1  0  0  0
 65141  1  0  0  0
 68 81  1  0  0  0
 71 72  2  0  0  0
 71 73  1  0  0  0
 71142  1  0  0  0
 72 74  1  0  0  0
 72 81  1  0  0  0
 73 76  2  0  0  0
 73 77  1  0  0  0
 74 75  2  0  0  0
 74 78  1  0  0  0
 75 76  1  0  0  0
 75 79  1  0  0  0
 76 82  1  0  0  0
 77143  1  0  0  0
 77144  1  0  0  0
 77145  1  0  0  0
 78146  1  0  0  0
 78147  1  0  0  0
 78148  1  0  0  0
 79149  1  0  0  0
 79150  1  0  0  0
 79151  1  0  0  0
 80 82  1  0  0  0
 80152  1  0  0  0
 80153  1  0  0  0
 80154  1  0  0  0
 81155  1  0  0  0
 81156  1  0  0  0
M  ISO  4   1 100  68 101  81 101  82 100
M  END
> <chiral flag>
0

> <version>
0

> <s_m_source_file>
/data/baiqing/PycharmProjects/Reinvent-master-3.2/result/LINK_invent/BTK/process_docking_weight1_custom_sum_contain_oxygen_bond_distance_aromatic_linkinvent_7_9_3/rearranged_h_0019.sdf

> <i_m_source_file_index>
73

> <r_mmod_Potential_Energy-OPLS-2005>
2457.05078125

> <r_mmod_Stretch_Energy-OPLS-2005>
948.04638671875

> <r_mmod_Bend_Energy-OPLS-2005>
683.892822265625

> <r_mmod_Torsional_Energy-OPLS-2005>
315.674224853516

> <r_mmod_Improper_Torsional_Energy-OPLS-2005>
7.93306970596313

> <r_mmod_Van_der_Waal_Energy-OPLS-2005>
140.471710205078

> <r_mmod_Electrostatic_Energy-OPLS-2005>
-303.058197021484

> <r_mmod_Solvation_Energy-OPLS-2005>
-192.032608032227

> <b_mmod_Minimization_Converged-OPLS-2005>
0

> <r_mmod_RMS_Derivative-OPLS-2005>
1.07345747947693

$$$$
73
                    3D
 Structure written by MMmdl.
156164  0  0  1  0            999 V2000
  -30.3648  -15.4287   20.3188 C   0  0  0  0  0  0
  -30.4368  -12.9219   19.5497 C   0  0  0  0  0  0
  -29.5491  -12.6257   18.3112 C   0  0  0  0  0  0
  -28.1139  -12.2937   18.7458 C   0  0  0  0  0  0
  -27.6081  -13.2839   19.8170 C   0  0  2  0  0  0
  -28.6265  -13.5411   20.9545 C   0  0  0  0  0  0
  -25.2468  -13.8324   20.5922 C   0  0  0  0  0  0
  -24.1780  -13.0505   20.9335 C   0  0  0  0  0  0
  -24.6438  -11.6978   20.8803 C   0  0  0  0  0  0
  -23.9120  -10.4337   21.0462 C   0  0  0  0  0  0
  -24.3647   -9.4234   21.9247 C   0  0  0  0  0  0
  -23.6296   -8.2273   22.0789 C   0  0  0  0  0  0
  -22.4279   -8.0333   21.3569 C   0  0  0  0  0  0
  -21.9940   -9.0329   20.4669 C   0  0  0  0  0  0
  -22.7288  -10.2191   20.3106 C   0  0  0  0  0  0
  -21.6842   -6.0767   22.5291 C   0  0  0  0  0  0
  -21.4017   -6.5664   23.8226 C   0  0  0  0  0  0
  -21.3664   -5.6805   24.9189 C   0  0  0  0  0  0
  -21.6030   -4.3079   24.7226 C   0  0  0  0  0  0
  -21.8804   -3.8168   23.4365 C   0  0  0  0  0  0
  -21.9187   -4.6994   22.3412 C   0  0  0  0  0  0
  -22.7774  -13.5256   21.1923 C   0  0  0  0  0  0
  -22.1660   -4.2207   21.0975 F   0  0  0  0  0  0
  -21.5623   -3.4533   25.7716 F   0  0  0  0  0  0
  -29.8500  -14.0844   20.3343 N   0  0  0  0  0  0
  -26.2801  -12.9556   20.3161 N   0  0  0  0  0  0
  -25.9349  -11.6673   20.5626 N   0  0  0  0  0  0
  -22.0349  -12.8244   22.0421 N   0  0  0  0  0  0
  -25.4300  -15.2065   20.4586 N   0  0  0  0  0  0
  -31.5702  -15.4332   20.0201 O   0  0  0  0  0  0
  -21.6622   -6.8944   21.4264 O   0  0  0  0  0  0
  -22.3483  -14.5558   20.6740 O   0  0  0  0  0  0
  -24.6721  -31.8192   23.1653 C   0  0  0  0  0  0
  -25.9420  -32.4505   23.8134 C   0  0  1  0  0  0
  -27.2342  -26.8556   20.2033 C   0  0  0  0  0  0
  -25.6118  -33.8299   24.2079 N   0  0  0  0  0  0
  -23.4913  -30.4283   21.5144 C   0  0  2  0  0  0
  -24.9506  -28.7985   20.1059 C   0  0  0  0  0  0
  -22.7757  -29.4451   22.4783 C   0  0  0  0  0  0
  -18.0348  -28.1328   22.8461 C   0  0  0  0  0  0
  -24.1508  -36.7130   23.2634 C   0  0  0  0  0  0
  -26.0608  -30.5920   21.4158 C   0  0  0  0  0  0
  -26.1273  -29.1760   20.7615 C   0  0  0  0  0  0
  -27.2531  -28.2244   20.7900 C   0  0  0  0  0  0
  -26.0372  -26.6541   19.4704 C   0  0  0  0  0  0
  -24.9392  -27.5652   19.4288 C   0  0  0  0  0  0
  -23.7432  -29.7427   20.1375 C   0  0  0  0  0  0
  -25.4139  -36.2882   24.0284 C   0  0  1  0  0  0
  -20.5979  -28.3772   23.1110 C   0  0  2  0  0  0
  -20.6973  -26.9576   22.5037 C   0  0  0  0  0  0
  -19.5723  -26.6331   21.5154 C   0  0  0  0  0  0
  -18.2045  -26.7770   22.1816 C   0  0  0  0  0  0
  -19.1613  -28.8828   23.2820 C   0  0  0  0  0  0
  -18.9498  -30.1360   23.8982 C   0  0  0  0  0  0
  -17.6483  -30.6438   24.0691 C   0  0  0  0  0  0
  -25.9109  -34.9272   23.4982 C   0  0  0  0  0  0
  -16.5398  -29.8992   23.6345 C   0  0  0  0  0  0
  -16.7349  -28.6430   23.0302 C   0  0  0  0  0  0
  -26.4674  -31.6403   25.0646 C   0  0  0  0  0  0
  -25.3863  -31.3617   26.1358 C   0  0  0  0  0  0
  -27.0600  -30.2785   24.6379 C   0  0  0  0  0  0
  -27.6164  -32.4193   25.7440 C   0  0  0  0  0  0
  -27.5581  -37.1729   24.8485 C   0  0  0  0  0  0
  -21.4392  -29.3215   22.3654 N   0  0  0  0  0  0
  -26.4281  -37.3662   23.9427 N   0  0  0  0  0  0
  -24.7617  -30.9750   22.0855 N   0  0  0  0  0  0
  -23.4296  -28.7960   23.2999 O   0  0  0  0  0  0
  -28.2394  -25.7297   20.3181 O   0  0  0  0  0  0
  -26.5669  -34.8850   22.4539 O   0  0  0  0  0  0
  -23.5782  -32.1236   23.6709 O   0  0  0  0  0  0
  -29.3668  -19.4286   21.0472 C   0  0  0  0  0  0
  -29.0886  -20.7743   20.3171 C   0  0  0  0  0  0
  -29.5187  -18.2061   20.2469 C   0  0  0  0  0  0
  -27.6443  -18.0001   17.3462 C   0  0  0  0  0  0
  -30.5457  -22.9626   20.4188 C   0  0  0  0  0  0
  -28.7736  -22.6936   22.1914 C   0  0  0  0  0  0
  -29.1278  -18.2415   17.6878 C   0  0  0  0  0  0
  -28.1202  -24.0580   20.0776 C   0  0  0  0  0  0
  -29.0626  -22.5679   20.6650 C   0  0  0  0  0  0
  -29.1115  -20.2682   19.0564 N   0  0  0  0  0  0
  -29.2922  -18.8562   19.0061 N   0  0  0  0  0  0
  -29.5893  -16.7067   20.5567 N   0  0  0  0  0  0
  -29.5444  -19.3138   22.7648 Cl  0  0  0  0  0  0
  -31.4498  -13.1351   19.2117 H   0  0  0  0  0  0
  -30.5198  -12.0411   20.1824 H   0  0  0  0  0  0
  -29.9655  -11.8099   17.7186 H   0  0  0  0  0  0
  -29.5326  -13.5061   17.6627 H   0  0  0  0  0  0
  -28.1194  -11.2838   19.1614 H   0  0  0  0  0  0
  -27.4488  -12.2767   17.8803 H   0  0  0  0  0  0
  -27.5037  -14.2240   19.2740 H   0  0  0  0  0  0
  -28.8342  -12.6598   21.5598 H   0  0  0  0  0  0
  -28.2209  -14.2942   21.6317 H   0  0  0  0  0  0
  -25.2827   -9.5683   22.4816 H   0  0  0  0  0  0
  -23.9970   -7.4701   22.7568 H   0  0  0  0  0  0
  -21.0832   -8.8924   19.9035 H   0  0  0  0  0  0
  -22.3808  -10.9764   19.6223 H   0  0  0  0  0  0
  -21.2035   -7.6190   23.9739 H   0  0  0  0  0  0
  -21.1468   -6.0546   25.9071 H   0  0  0  0  0  0
  -22.0570   -2.7639   23.2833 H   0  0  0  0  0  0
  -22.3809  -11.9804   22.4795 H   0  0  0  0  0  0
  -21.1013  -13.1406   22.2618 H   0  0  0  0  0  0
  -24.7373  -15.8848   20.7529 H   0  0  0  0  0  0
  -26.2520  -15.6430   20.0620 H   0  0  0  0  0  0
  -26.7443  -32.5037   23.0791 H   0  0  0  0  0  0
  -25.0418  -33.9286   25.0349 H   0  0  0  0  0  0
  -22.8147  -31.2672   21.3403 H   0  0  0  0  0  0
  -23.3785  -35.9446   23.3225 H   0  0  0  0  0  0
  -24.3623  -36.8868   22.2087 H   0  0  0  0  0  0
  -23.7280  -37.6298   23.6712 H   0  0  0  0  0  0
  -26.2491  -31.3218   20.6288 H   0  0  0  0  0  0
  -26.9109  -30.6519   22.0796 H   0  0  0  0  0  0
  -28.1365  -28.5096   21.3441 H   0  0  0  0  0  0
  -25.9214  -25.7200   18.9349 H   0  0  0  0  0  0
  -24.0596  -27.2801   18.8643 H   0  0  0  0  0  0
  -23.9218  -30.5122   19.3914 H   0  0  0  0  0  0
  -22.8540  -29.2156   19.7951 H   0  0  0  0  0  0
  -25.1334  -36.1651   25.0775 H   0  0  0  0  0  0
  -20.9991  -28.3116   24.1254 H   0  0  0  0  0  0
  -20.6410  -26.2305   23.3139 H   0  0  0  0  0  0
  -21.6702  -26.7937   22.0373 H   0  0  0  0  0  0
  -19.6934  -25.6211   21.1292 H   0  0  0  0  0  0
  -19.6295  -27.3060   20.6601 H   0  0  0  0  0  0
  -17.4171  -26.6185   21.4455 H   0  0  0  0  0  0
  -18.0839  -26.0020   22.9419 H   0  0  0  0  0  0
  -19.7992  -30.7048   24.2550 H   0  0  0  0  0  0
  -17.5023  -31.6007   24.5519 H   0  0  0  0  0  0
  -15.5385  -30.2826   23.7663 H   0  0  0  0  0  0
  -15.8781  -28.0720   22.6971 H   0  0  0  0  0  0
  -24.6091  -30.6868   25.7762 H   0  0  0  0  0  0
  -24.9002  -32.2776   26.4707 H   0  0  0  0  0  0
  -25.8196  -30.8959   27.0227 H   0  0  0  0  0  0
  -26.3288  -29.6435   24.1365 H   0  0  0  0  0  0
  -27.4182  -29.7129   25.4997 H   0  0  0  0  0  0
  -27.9218  -30.4009   23.9804 H   0  0  0  0  0  0
  -27.2752  -33.3573   26.1825 H   0  0  0  0  0  0
  -28.4051  -32.6610   25.0286 H   0  0  0  0  0  0
  -28.0714  -31.8461   26.5542 H   0  0  0  0  0  0
  -28.2536  -38.0086   24.7519 H   0  0  0  0  0  0
  -28.1126  -36.2594   24.6260 H   0  0  0  0  0  0
  -27.2289  -37.1325   25.8896 H   0  0  0  0  0  0
  -20.9616  -29.9191   21.7059 H   0  0  0  0  0  0
  -26.0093  -38.2700   24.1473 H   0  0  0  0  0  0
  -27.5290  -17.4712   16.3937 H   0  0  0  0  0  0
  -27.1053  -18.9429   17.2682 H   0  0  0  0  0  0
  -27.1546  -17.3911   18.1077 H   0  0  0  0  0  0
  -31.2249  -22.4783   21.1232 H   0  0  0  0  0  0
  -30.7293  -24.0335   20.5075 H   0  0  0  0  0  0
  -30.8674  -22.6629   19.4182 H   0  0  0  0  0  0
  -29.4067  -22.0561   22.8080 H   0  0  0  0  0  0
  -27.7369  -22.4419   22.4241 H   0  0  0  0  0  0
  -28.9424  -23.7129   22.5482 H   0  0  0  0  0  0
  -29.5722  -18.8936   16.9281 H   0  0  0  0  0  0
  -29.6747  -17.3001   17.6443 H   0  0  0  0  0  0
  -28.1174  -23.9742   18.9896 H   0  0  0  0  0  0
  -27.0839  -23.8500   20.3480 H   0  0  0  0  0  0
  -28.7859  -16.4550   21.1130 H   0  0  0  0  0  0
  1 25  1  0  0  0
  1 30  2  0  0  0
  1 82  1  0  0  0
  2  3  1  0  0  0
  2 25  1  0  0  0
  2 84  1  0  0  0
  2 85  1  0  0  0
  3  4  1  0  0  0
  3 86  1  0  0  0
  3 87  1  0  0  0
  4  5  1  0  0  0
  4 88  1  0  0  0
  4 89  1  0  0  0
  5  6  1  0  0  0
  5 26  1  0  0  0
  5 90  1  0  0  0
  6 25  1  0  0  0
  6 91  1  0  0  0
  6 92  1  0  0  0
  7  8  2  0  0  0
  7 26  1  0  0  0
  7 29  1  0  0  0
  8  9  1  0  0  0
  8 22  1  0  0  0
  9 10  1  0  0  0
  9 27  2  0  0  0
 10 11  2  0  0  0
 10 15  1  0  0  0
 11 12  1  0  0  0
 11 93  1  0  0  0
 12 13  2  0  0  0
 12 94  1  0  0  0
 13 14  1  0  0  0
 13 31  1  0  0  0
 14 15  2  0  0  0
 14 95  1  0  0  0
 15 96  1  0  0  0
 16 17  2  0  0  0
 16 21  1  0  0  0
 16 31  1  0  0  0
 17 18  1  0  0  0
 17 97  1  0  0  0
 18 19  2  0  0  0
 18 98  1  0  0  0
 19 20  1  0  0  0
 19 24  1  0  0  0
 20 21  2  0  0  0
 20 99  1  0  0  0
 21 23  1  0  0  0
 22 28  1  0  0  0
 22 32  2  0  0  0
 26 27  1  0  0  0
 28100  1  0  0  0
 28101  1  0  0  0
 29102  1  0  0  0
 29103  1  0  0  0
 33 34  1  0  0  0
 33 66  1  0  0  0
 33 70  2  0  0  0
 34 36  1  0  0  0
 34 59  1  0  0  0
 34104  1  0  0  0
 35 44  2  0  0  0
 35 45  1  0  0  0
 35 68  1  0  0  0
 36 56  1  0  0  0
 36105  1  0  0  0
 37 39  1  0  0  0
 37 47  1  0  0  0
 37 66  1  0  0  0
 37106  1  0  0  0
 38 43  2  0  0  0
 38 46  1  0  0  0
 38 47  1  0  0  0
 39 64  1  0  0  0
 39 67  2  0  0  0
 40 52  1  0  0  0
 40 53  2  0  0  0
 40 58  1  0  0  0
 41107  1  0  0  0
 41108  1  0  0  0
 41109  1  0  0  0
 41 48  1  0  0  0
 42 43  1  0  0  0
 42 66  1  0  0  0
 42110  1  0  0  0
 42111  1  0  0  0
 43 44  1  0  0  0
 44112  1  0  0  0
 45 46  2  0  0  0
 45113  1  0  0  0
 46114  1  0  0  0
 47115  1  0  0  0
 47116  1  0  0  0
 48 56  1  0  0  0
 48 65  1  0  0  0
 48117  1  0  0  0
 49 50  1  0  0  0
 49 53  1  0  0  0
 49 64  1  0  0  0
 49118  1  0  0  0
 50 51  1  0  0  0
 50119  1  0  0  0
 50120  1  0  0  0
 51 52  1  0  0  0
 51121  1  0  0  0
 51122  1  0  0  0
 52123  1  0  0  0
 52124  1  0  0  0
 53 54  1  0  0  0
 54 55  2  0  0  0
 54125  1  0  0  0
 55 57  1  0  0  0
 55126  1  0  0  0
 56 69  2  0  0  0
 57 58  2  0  0  0
 57127  1  0  0  0
 58128  1  0  0  0
 59 60  1  0  0  0
 59 61  1  0  0  0
 59 62  1  0  0  0
 60129  1  0  0  0
 60130  1  0  0  0
 60131  1  0  0  0
 61132  1  0  0  0
 61133  1  0  0  0
 61134  1  0  0  0
 62135  1  0  0  0
 62136  1  0  0  0
 62137  1  0  0  0
 63 65  1  0  0  0
 63138  1  0  0  0
 63139  1  0  0  0
 63140  1  0  0  0
 64141  1  0  0  0
 65142  1  0  0  0
 68 78  1  0  0  0
 71 72  1  0  0  0
 71 73  2  0  0  0
 71 83  1  0  0  0
 72 79  1  0  0  0
 72 80  2  0  0  0
 73 81  1  0  0  0
 73 82  1  0  0  0
 74 77  1  0  0  0
 74143  1  0  0  0
 74144  1  0  0  0
 74145  1  0  0  0
 75146  1  0  0  0
 75147  1  0  0  0
 75148  1  0  0  0
 75 79  1  0  0  0
 76 79  1  0  0  0
 76149  1  0  0  0
 76150  1  0  0  0
 76151  1  0  0  0
 77 81  1  0  0  0
 77152  1  0  0  0
 77153  1  0  0  0
 78 79  1  0  0  0
 78154  1  0  0  0
 78155  1  0  0  0
 80 81  1  0  0  0
 82156  1  0  0  0
M  ISO  4   1 100  68 101  78 101  82 100
M  END
> <chiral flag>
0

> <version>
0

> <s_m_source_file>
/data/baiqing/PycharmProjects/Reinvent-master-3.2/result/LINK_invent/BTK/process_docking_weight1_custom_sum_contain_oxygen_bond_distance_aromatic_linkinvent_7_9_3/rearranged_h_0019.sdf

> <i_m_source_file_index>
74

> <r_mmod_Potential_Energy-OPLS-2005>
1585.65966796875

> <r_mmod_Stretch_Energy-OPLS-2005>
714.856201171875

> <r_mmod_Bend_Energy-OPLS-2005>
526.039794921875

> <r_mmod_Torsional_Energy-OPLS-2005>
253.04768371582

> <r_mmod_Improper_Torsional_Energy-OPLS-2005>
5.18401002883911

> <r_mmod_Van_der_Waal_Energy-OPLS-2005>
93.7863006591797

> <r_mmod_Electrostatic_Energy-OPLS-2005>
-413.60888671875

> <r_mmod_Solvation_Energy-OPLS-2005>
-216.378158569336

> <b_mmod_Minimization_Converged-OPLS-2005>
0

> <r_mmod_RMS_Derivative-OPLS-2005>
9.37361717224121

$$$$
74
                    3D
 Structure written by MMmdl.
174182  0  0  1  0            999 V2000
  -30.7199  -14.7951   20.4639 C   0  0  0  0  0  0
  -30.4150  -12.5068   19.4787 C   0  0  0  0  0  0
  -29.4990  -12.5248   18.2376 C   0  0  0  0  0  0
  -28.0297  -12.3579   18.6592 C   0  0  0  0  0  0
  -27.6391  -13.2602   19.8571 C   0  0  2  0  0  0
  -28.6955  -13.2564   20.9855 C   0  0  0  0  0  0
  -25.2380  -13.8197   20.5648 C   0  0  0  0  0  0
  -24.1781  -13.0330   20.9209 C   0  0  0  0  0  0
  -24.6539  -11.6877   20.8794 C   0  0  0  0  0  0
  -23.9248  -10.4247   21.0431 C   0  0  0  0  0  0
  -24.3752   -9.4154   21.9239 C   0  0  0  0  0  0
  -23.6366   -8.2226   22.0771 C   0  0  0  0  0  0
  -22.4363   -8.0301   21.3550 C   0  0  0  0  0  0
  -22.0028   -9.0310   20.4668 C   0  0  0  0  0  0
  -22.7394  -10.2150   20.3101 C   0  0  0  0  0  0
  -21.6885   -6.0811   22.5308 C   0  0  0  0  0  0
  -21.4051   -6.5690   23.8240 C   0  0  0  0  0  0
  -21.3614   -5.6806   24.9176 C   0  0  0  0  0  0
  -21.6002   -4.3071   24.7204 C   0  0  0  0  0  0
  -21.8810   -3.8216   23.4325 C   0  0  0  0  0  0
  -21.9209   -4.7051   22.3381 C   0  0  0  0  0  0
  -22.7775  -13.4995   21.1733 C   0  0  0  0  0  0
  -22.1716   -4.2266   21.0963 F   0  0  0  0  0  0
  -21.5579   -3.4503   25.7687 F   0  0  0  0  0  0
  -29.9956  -13.6123   20.3823 N   0  0  0  0  0  0
  -26.2974  -12.9555   20.3429 N   0  0  0  0  0  0
  -25.9492  -11.6652   20.5910 N   0  0  0  0  0  0
  -22.0520  -12.8057   22.0410 N   0  0  0  0  0  0
  -25.3534  -15.1915   20.3771 N   0  0  0  0  0  0
  -31.8912  -14.7757   20.0768 O   0  0  0  0  0  0
  -21.6666   -6.8961   21.4265 O   0  0  0  0  0  0
  -22.3355  -14.5176   20.6400 O   0  0  0  0  0  0
  -24.6285  -31.8593   23.2013 C   0  0  0  0  0  0
  -25.9147  -32.4769   23.8333 C   0  0  1  0  0  0
  -27.2409  -27.3328   20.1140 C   0  0  0  0  0  0
  -25.5948  -33.8571   24.2254 N   0  0  0  0  0  0
  -23.4174  -30.4835   21.5448 C   0  0  2  0  0  0
  -24.8627  -28.9347   20.1103 C   0  0  0  0  0  0
  -22.7432  -29.4670   22.4957 C   0  0  0  0  0  0
  -18.0288  -28.1394   22.8486 C   0  0  0  0  0  0
  -24.1478  -36.7298   23.2615 C   0  0  0  0  0  0
  -25.9564  -30.7928   21.3685 C   0  0  0  0  0  0
  -26.0310  -29.4217   20.7108 C   0  0  0  0  0  0
  -27.2184  -28.6342   20.7007 C   0  0  0  0  0  0
  -26.0507  -26.8997   19.4770 C   0  0  0  0  0  0
  -24.8745  -27.6774   19.4850 C   0  0  0  0  0  0
  -23.6248  -29.8079   20.1619 C   0  0  0  0  0  0
  -25.4103  -36.3084   24.0309 C   0  0  1  0  0  0
  -20.5874  -28.3733   23.1262 C   0  0  2  0  0  0
  -20.6769  -26.9457   22.5395 C   0  0  0  0  0  0
  -19.5760  -26.6398   21.5188 C   0  0  0  0  0  0
  -18.1929  -26.7953   22.1589 C   0  0  0  0  0  0
  -19.1534  -28.8883   23.2865 C   0  0  0  0  0  0
  -18.9460  -30.1470   23.8899 C   0  0  0  0  0  0
  -17.6462  -30.6586   24.0580 C   0  0  0  0  0  0
  -25.9066  -34.9458   23.5091 C   0  0  0  0  0  0
  -16.5350  -29.9084   23.6336 C   0  0  0  0  0  0
  -16.7282  -28.6497   23.0369 C   0  0  0  0  0  0
  -26.4497  -31.6589   25.0727 C   0  0  0  0  0  0
  -25.3718  -31.3733   26.1449 C   0  0  0  0  0  0
  -27.0346  -30.3003   24.6222 C   0  0  0  0  0  0
  -27.6054  -32.4338   25.7488 C   0  0  0  0  0  0
  -27.5632  -37.1723   24.8398 C   0  0  0  0  0  0
  -21.4160  -29.3081   22.3643 N   0  0  0  0  0  0
  -26.4248  -37.3823   23.9496 N   0  0  0  0  0  0
  -24.6860  -31.0603   22.0966 N   0  0  0  0  0  0
  -23.4145  -28.8260   23.3085 O   0  0  0  0  0  0
  -28.3793  -26.5086   20.1922 O   0  0  0  0  0  0
  -26.5629  -34.8930   22.4657 O   0  0  0  0  0  0
  -23.5448  -32.1413   23.7339 O   0  0  0  0  0  0
  -31.6044  -18.7684   18.1054 C   0  0  0  0  0  0
  -31.4610  -17.4272   18.8850 C   0  0  0  0  0  0
  -30.2570  -18.7853   20.6905 C   0  0  0  0  0  0
  -31.6666  -20.0262   19.0164 C   0  0  2  0  0  0
  -30.2887  -17.3780   19.9117 C   0  0  2  0  0  0
  -30.3185  -20.1028   19.7931 C   0  0  2  0  0  0
  -33.5078  -21.3182   17.7358 C   0  0  0  0  0  0
  -27.9873  -16.5460   21.9444 C   0  0  0  0  0  0
  -27.8072  -22.0520   19.5982 C   0  0  0  0  0  0
  -32.0567  -21.3136   18.2381 C   0  0  0  0  0  0
  -29.2684  -23.9905   20.4929 C   0  0  0  0  0  0
  -29.5041  -16.2751   22.0277 C   0  0  0  0  0  0
  -28.2437  -25.0660   19.9060 C   0  0  0  0  0  0
  -29.2576  -22.5254   19.8286 C   0  0  1  0  0  0
  -30.1046  -16.0425   20.6949 N   0  0  0  0  0  0
  -30.0852  -21.4354   20.5194 N   0  3  0  0  0  0
  -31.4573  -12.5897   19.1634 H   0  0  0  0  0  0
  -30.3425  -11.5508   19.9943 H   0  0  0  0  0  0
  -29.7825  -11.7263   17.5491 H   0  0  0  0  0  0
  -29.6203  -13.4649   17.6954 H   0  0  0  0  0  0
  -27.8845  -11.3062   18.9121 H   0  0  0  0  0  0
  -27.3676  -12.5667   17.8184 H   0  0  0  0  0  0
  -27.6066  -14.2783   19.4659 H   0  0  0  0  0  0
  -28.7515  -12.2934   21.4946 H   0  0  0  0  0  0
  -28.3929  -13.9664   21.7483 H   0  0  0  0  0  0
  -25.2890   -9.5578   22.4855 H   0  0  0  0  0  0
  -24.0051   -7.4562   22.7455 H   0  0  0  0  0  0
  -21.0997   -8.8835   19.8944 H   0  0  0  0  0  0
  -22.3890  -10.9730   19.6246 H   0  0  0  0  0  0
  -21.2130   -7.6212   23.9773 H   0  0  0  0  0  0
  -21.1408   -6.0553   25.9059 H   0  0  0  0  0  0
  -22.0648   -2.7707   23.2756 H   0  0  0  0  0  0
  -22.4274  -11.9819   22.4877 H   0  0  0  0  0  0
  -21.1144  -13.1036   22.2663 H   0  0  0  0  0  0
  -24.5334  -15.7850   20.4451 H   0  0  0  0  0  0
  -26.1389  -15.6626   19.9499 H   0  0  0  0  0  0
  -26.7217  -32.5406   23.1072 H   0  0  0  0  0  0
  -25.0083  -33.9700   25.0390 H   0  0  0  0  0  0
  -22.7149  -31.3073   21.3970 H   0  0  0  0  0  0
  -23.3809  -35.9541   23.3057 H   0  0  0  0  0  0
  -24.3630  -36.9170   22.2082 H   0  0  0  0  0  0
  -23.7081  -37.6359   23.6790 H   0  0  0  0  0  0
  -26.0861  -31.5576   20.6006 H   0  0  0  0  0  0
  -26.8372  -30.8383   21.9975 H   0  0  0  0  0  0
  -28.1166  -29.0090   21.1718 H   0  0  0  0  0  0
  -26.0018  -25.9432   18.9753 H   0  0  0  0  0  0
  -23.9806  -27.2965   19.0099 H   0  0  0  0  0  0
  -23.7249  -30.5768   19.3964 H   0  0  0  0  0  0
  -22.7457  -29.2248   19.8762 H   0  0  0  0  0  0
  -25.1242  -36.1892   25.0777 H   0  0  0  0  0  0
  -20.9971  -28.3333   24.1390 H   0  0  0  0  0  0
  -20.5661  -26.2368   23.3612 H   0  0  0  0  0  0
  -21.6651  -26.7477   22.1233 H   0  0  0  0  0  0
  -19.6946  -25.6293   21.1258 H   0  0  0  0  0  0
  -19.6711  -27.3176   20.6698 H   0  0  0  0  0  0
  -17.4216  -26.6734   21.3967 H   0  0  0  0  0  0
  -18.0331  -26.0056   22.8950 H   0  0  0  0  0  0
  -19.7924  -30.7294   24.2271 H   0  0  0  0  0  0
  -17.5003  -31.6276   24.5187 H   0  0  0  0  0  0
  -15.5354  -30.3005   23.7650 H   0  0  0  0  0  0
  -15.8671  -28.0807   22.7125 H   0  0  0  0  0  0
  -24.5893  -30.7099   25.7750 H   0  0  0  0  0  0
  -24.8913  -32.2904   26.4872 H   0  0  0  0  0  0
  -25.8039  -30.8889   27.0219 H   0  0  0  0  0  0
  -26.2933  -29.6739   24.1256 H   0  0  0  0  0  0
  -27.4010  -29.7293   25.4765 H   0  0  0  0  0  0
  -27.8816  -30.4258   23.9478 H   0  0  0  0  0  0
  -27.2661  -33.3621   26.2094 H   0  0  0  0  0  0
  -28.3842  -32.6947   25.0312 H   0  0  0  0  0  0
  -28.0765  -31.8462   26.5375 H   0  0  0  0  0  0
  -28.2402  -38.0256   24.7840 H   0  0  0  0  0  0
  -28.1371  -36.2838   24.5713 H   0  0  0  0  0  0
  -27.2433  -37.0752   25.8784 H   0  0  0  0  0  0
  -20.9358  -29.8747   21.6780 H   0  0  0  0  0  0
  -26.0104  -38.2839   24.1710 H   0  0  0  0  0  0
  -30.7731  -18.8711   17.4039 H   0  0  0  0  0  0
  -32.5021  -18.7151   17.4879 H   0  0  0  0  0  0
  -32.4046  -17.2435   19.3979 H   0  0  0  0  0  0
  -31.3373  -16.6256   18.1513 H   0  0  0  0  0  0
  -31.0927  -18.7926   21.3970 H   0  0  0  0  0  0
  -29.3501  -18.8676   21.2829 H   0  0  0  0  0  0
  -32.4700  -19.8678   19.7407 H   0  0  0  0  0  0
  -29.3857  -17.4118   19.3003 H   0  0  0  0  0  0
  -29.5267  -20.0048   19.0555 H   0  0  0  0  0  0
  -33.8473  -22.3366   17.5292 H   0  0  0  0  0  0
  -33.6213  -20.7401   16.8204 H   0  0  0  0  0  0
  -34.1836  -20.9025   18.4851 H   0  0  0  0  0  0
  -27.4347  -16.0138   22.7225 H   0  0  0  0  0  0
  -27.6035  -16.2116   20.9836 H   0  0  0  0  0  0
  -27.7281  -17.6016   22.0274 H   0  0  0  0  0  0
  -27.2354  -22.7677   19.0088 H   0  0  0  0  0  0
  -27.2857  -21.9100   20.5414 H   0  0  0  0  0  0
  -27.7396  -21.1200   19.0435 H   0  0  0  0  0  0
  -31.9806  -22.1769   18.8983 H   0  0  0  0  0  0
  -31.3649  -21.5109   17.4183 H   0  0  0  0  0  0
  -29.0735  -23.8995   21.5619 H   0  0  0  0  0  0
  -30.2757  -24.3968   20.4186 H   0  0  0  0  0  0
  -29.6824  -15.4176   22.6778 H   0  0  0  0  0  0
  -30.0135  -17.0777   22.5645 H   0  0  0  0  0  0
  -27.2691  -24.7427   20.2737 H   0  0  0  0  0  0
  -28.2212  -24.9616   18.8220 H   0  0  0  0  0  0
  -29.6986  -22.6663   18.8422 H   0  0  0  0  0  0
  -30.9907  -21.8214   20.7411 H   0  0  0  0  0  0
  -29.6431  -21.2409   21.4060 H   0  0  0  0  0  0
  1 25  1  0  0  0
  1 30  2  0  0  0
  1 85  1  0  0  0
  2  3  1  0  0  0
  2 25  1  0  0  0
  2 87  1  0  0  0
  2 88  1  0  0  0
  3  4  1  0  0  0
  3 89  1  0  0  0
  3 90  1  0  0  0
  4  5  1  0  0  0
  4 91  1  0  0  0
  4 92  1  0  0  0
  5  6  1  0  0  0
  5 26  1  0  0  0
  5 93  1  0  0  0
  6 25  1  0  0  0
  6 94  1  0  0  0
  6 95  1  0  0  0
  7  8  2  0  0  0
  7 26  1  0  0  0
  7 29  1  0  0  0
  8  9  1  0  0  0
  8 22  1  0  0  0
  9 10  1  0  0  0
  9 27  2  0  0  0
 10 11  2  0  0  0
 10 15  1  0  0  0
 11 12  1  0  0  0
 11 96  1  0  0  0
 12 13  2  0  0  0
 12 97  1  0  0  0
 13 14  1  0  0  0
 13 31  1  0  0  0
 14 15  2  0  0  0
 14 98  1  0  0  0
 15 99  1  0  0  0
 16 17  2  0  0  0
 16 21  1  0  0  0
 16 31  1  0  0  0
 17 18  1  0  0  0
 17100  1  0  0  0
 18 19  2  0  0  0
 18101  1  0  0  0
 19 20  1  0  0  0
 19 24  1  0  0  0
 20 21  2  0  0  0
 20102  1  0  0  0
 21 23  1  0  0  0
 22 28  1  0  0  0
 22 32  2  0  0  0
 26 27  1  0  0  0
 28103  1  0  0  0
 28104  1  0  0  0
 29105  1  0  0  0
 29106  1  0  0  0
 33 34  1  0  0  0
 33 66  1  0  0  0
 33 70  2  0  0  0
 34 36  1  0  0  0
 34 59  1  0  0  0
 34107  1  0  0  0
 35 44  2  0  0  0
 35 45  1  0  0  0
 35 68  1  0  0  0
 36 56  1  0  0  0
 36108  1  0  0  0
 37 39  1  0  0  0
 37 47  1  0  0  0
 37 66  1  0  0  0
 37109  1  0  0  0
 38 43  2  0  0  0
 38 46  1  0  0  0
 38 47  1  0  0  0
 39 64  1  0  0  0
 39 67  2  0  0  0
 40 52  1  0  0  0
 40 53  2  0  0  0
 40 58  1  0  0  0
 41110  1  0  0  0
 41111  1  0  0  0
 41112  1  0  0  0
 41 48  1  0  0  0
 42 43  1  0  0  0
 42 66  1  0  0  0
 42113  1  0  0  0
 42114  1  0  0  0
 43 44  1  0  0  0
 44115  1  0  0  0
 45 46  2  0  0  0
 45116  1  0  0  0
 46117  1  0  0  0
 47118  1  0  0  0
 47119  1  0  0  0
 48 56  1  0  0  0
 48 65  1  0  0  0
 48120  1  0  0  0
 49 50  1  0  0  0
 49 53  1  0  0  0
 49 64  1  0  0  0
 49121  1  0  0  0
 50 51  1  0  0  0
 50122  1  0  0  0
 50123  1  0  0  0
 51 52  1  0  0  0
 51124  1  0  0  0
 51125  1  0  0  0
 52126  1  0  0  0
 52127  1  0  0  0
 53 54  1  0  0  0
 54 55  2  0  0  0
 54128  1  0  0  0
 55 57  1  0  0  0
 55129  1  0  0  0
 56 69  2  0  0  0
 57 58  2  0  0  0
 57130  1  0  0  0
 58131  1  0  0  0
 59 60  1  0  0  0
 59 61  1  0  0  0
 59 62  1  0  0  0
 60132  1  0  0  0
 60133  1  0  0  0
 60134  1  0  0  0
 61135  1  0  0  0
 61136  1  0  0  0
 61137  1  0  0  0
 62138  1  0  0  0
 62139  1  0  0  0
 62140  1  0  0  0
 63 65  1  0  0  0
 63141  1  0  0  0
 63142  1  0  0  0
 63143  1  0  0  0
 64144  1  0  0  0
 65145  1  0  0  0
 68 83  1  0  0  0
 71 72  1  0  0  0
 71 74  1  0  0  0
 71146  1  0  0  0
 71147  1  0  0  0
 72 75  1  0  0  0
 72148  1  0  0  0
 72149  1  0  0  0
 73 75  1  0  0  0
 73 76  1  0  0  0
 73150  1  0  0  0
 73151  1  0  0  0
 74 76  1  0  0  0
 74 80  1  0  0  0
 74152  1  0  0  0
 75 85  1  0  0  0
 75153  1  0  0  0
 76 86  1  0  0  0
 76154  1  0  0  0
 77 80  1  0  0  0
 77155  1  0  0  0
 77156  1  0  0  0
 77157  1  0  0  0
 78 82  1  0  0  0
 78158  1  0  0  0
 78159  1  0  0  0
 78160  1  0  0  0
 79161  1  0  0  0
 79162  1  0  0  0
 79163  1  0  0  0
 79 84  1  0  0  0
 80164  1  0  0  0
 80165  1  0  0  0
 81 83  1  0  0  0
 81 84  1  0  0  0
 81166  1  0  0  0
 81167  1  0  0  0
 82 85  1  0  0  0
 82168  1  0  0  0
 82169  1  0  0  0
 83170  1  0  0  0
 83171  1  0  0  0
 84 86  1  0  0  0
 84172  1  0  0  0
 86173  1  0  0  0
 86174  1  0  0  0
M  CHG  1  86   1
M  ISO  4   1 100  68 101  83 101  85 100
M  END
> <chiral flag>
0

> <version>
0

> <s_m_source_file>
/data/baiqing/PycharmProjects/Reinvent-master-3.2/result/LINK_invent/BTK/process_docking_weight1_custom_sum_contain_oxygen_bond_distance_aromatic_linkinvent_7_9_3/rearranged_h_0019.sdf

> <i_m_source_file_index>
75

> <r_mmod_Potential_Energy-OPLS-2005>
329.58447265625

> <r_mmod_Stretch_Energy-OPLS-2005>
119.785621643066

> <r_mmod_Bend_Energy-OPLS-2005>
184.831558227539

> <r_mmod_Torsional_Energy-OPLS-2005>
351.228668212891

> <r_mmod_Improper_Torsional_Energy-OPLS-2005>
7.98622941970825

> <r_mmod_Van_der_Waal_Energy-OPLS-2005>
146.292205810547

> <r_mmod_Electrostatic_Energy-OPLS-2005>
-132.979202270508

> <r_mmod_Solvation_Energy-OPLS-2005>
-431.681091308594

> <b_mmod_Minimization_Converged-OPLS-2005>
0

> <r_mmod_RMS_Derivative-OPLS-2005>
6.51480722427368

$$$$
75
                    3D
 Structure written by MMmdl.
161169  0  0  1  0            999 V2000
  -30.7128  -14.3921   20.6309 C   0  0  0  0  0  0
  -30.4123  -12.2869   19.3872 C   0  0  0  0  0  0
  -29.4758  -12.5215   18.1832 C   0  0  0  0  0  0
  -27.9935  -12.3908   18.5894 C   0  0  0  0  0  0
  -27.6568  -13.1974   19.8723 C   0  0  2  0  0  0
  -28.6973  -12.9242   20.9789 C   0  0  0  0  0  0
  -25.2561  -13.8165   20.5657 C   0  0  0  0  0  0
  -24.1797  -13.0458   20.9187 C   0  0  0  0  0  0
  -24.6310  -11.6917   20.8725 C   0  0  0  0  0  0
  -23.8975  -10.4313   21.0386 C   0  0  0  0  0  0
  -24.3549   -9.4231   21.9151 C   0  0  0  0  0  0
  -23.6259   -8.2255   22.0723 C   0  0  0  0  0  0
  -22.4245   -8.0269   21.3517 C   0  0  0  0  0  0
  -21.9857   -9.0231   20.4615 C   0  0  0  0  0  0
  -22.7161  -10.2124   20.3031 C   0  0  0  0  0  0
  -21.6846   -6.0717   22.5279 C   0  0  0  0  0  0
  -21.4024   -6.5621   23.8218 C   0  0  0  0  0  0
  -21.3666   -5.6771   24.9183 C   0  0  0  0  0  0
  -21.6049   -4.3028   24.7218 C   0  0  0  0  0  0
  -21.8821   -3.8125   23.4338 C   0  0  0  0  0  0
  -21.9192   -4.6950   22.3401 C   0  0  0  0  0  0
  -22.7816  -13.5270   21.1856 C   0  0  0  0  0  0
  -22.1655   -4.2125   21.0983 F   0  0  0  0  0  0
  -21.5621   -3.4517   25.7741 F   0  0  0  0  0  0
  -30.0320  -13.2352   20.4417 N   0  0  0  0  0  0
  -26.2965  -12.9301   20.3330 N   0  0  0  0  0  0
  -25.9230  -11.6474   20.5726 N   0  0  0  0  0  0
  -22.0417  -12.8295   22.0411 N   0  0  0  0  0  0
  -25.4378  -15.1874   20.4002 N   0  0  0  0  0  0
  -31.8218  -14.6169   20.1434 O   0  0  0  0  0  0
  -21.6630   -6.8848   21.4244 O   0  0  0  0  0  0
  -22.3512  -14.5561   20.6671 O   0  0  0  0  0  0
  -24.6152  -31.8691   23.2110 C   0  0  0  0  0  0
  -25.9077  -32.4825   23.8394 C   0  0  1  0  0  0
  -27.2290  -27.4497   20.0909 C   0  0  0  0  0  0
  -25.5981  -33.8619   24.2374 N   0  0  0  0  0  0
  -23.4030  -30.4932   21.5491 C   0  0  2  0  0  0
  -24.8493  -28.9614   20.1131 C   0  0  0  0  0  0
  -22.7407  -29.4668   22.4971 C   0  0  0  0  0  0
  -18.0276  -28.1358   22.8489 C   0  0  0  0  0  0
  -24.1495  -36.7304   23.2630 C   0  0  0  0  0  0
  -25.9329  -30.8373   21.3655 C   0  0  0  0  0  0
  -26.0090  -29.4731   20.7113 C   0  0  0  0  0  0
  -27.2055  -28.7248   20.6996 C   0  0  0  0  0  0
  -26.0608  -26.9535   19.4814 C   0  0  0  0  0  0
  -24.8690  -27.7004   19.4916 C   0  0  0  0  0  0
  -23.6111  -29.8269   20.1623 C   0  0  0  0  0  0
  -25.4118  -36.3116   24.0346 C   0  0  1  0  0  0
  -20.5857  -28.3651   23.1313 C   0  0  2  0  0  0
  -20.6775  -26.9394   22.5401 C   0  0  0  0  0  0
  -19.5745  -26.6373   21.5207 C   0  0  0  0  0  0
  -18.1924  -26.7906   22.1613 C   0  0  0  0  0  0
  -19.1517  -28.8823   23.2899 C   0  0  0  0  0  0
  -18.9449  -30.1432   23.8902 C   0  0  0  0  0  0
  -17.6448  -30.6568   24.0556 C   0  0  0  0  0  0
  -25.9045  -34.9470   23.5136 C   0  0  0  0  0  0
  -16.5345  -29.9063   23.6313 C   0  0  0  0  0  0
  -16.7263  -28.6477   23.0350 C   0  0  0  0  0  0
  -26.4509  -31.6579   25.0700 C   0  0  0  0  0  0
  -25.3802  -31.3660   26.1468 C   0  0  0  0  0  0
  -27.0360  -30.3033   24.6073 C   0  0  0  0  0  0
  -27.6117  -32.4252   25.7456 C   0  0  0  0  0  0
  -27.5584  -37.1811   24.8467 C   0  0  0  0  0  0
  -21.4137  -29.3031   22.3727 N   0  0  0  0  0  0
  -26.4303  -37.3803   23.9403 N   0  0  0  0  0  0
  -24.6679  -31.0815   22.0989 N   0  0  0  0  0  0
  -23.4200  -28.8206   23.2999 O   0  0  0  0  0  0
  -28.3657  -26.6801   20.0910 O   0  0  0  0  0  0
  -26.5535  -34.8918   22.4656 O   0  0  0  0  0  0
  -23.5349  -32.1427   23.7512 O   0  0  0  0  0  0
  -29.1275  -20.2511   21.0170 C   0  0  0  0  0  0
  -28.7178  -18.9983   18.9996 C   0  0  0  0  0  0
  -29.7878  -17.8744   20.9087 C   0  0  0  0  0  0
  -28.6318  -20.2214   19.6958 C   0  0  0  0  0  0
  -29.7016  -19.1081   21.6123 C   0  0  0  0  0  0
  -29.2842  -17.8445   19.5754 C   0  0  0  0  0  0
  -27.8869  -21.3640   17.6433 C   0  0  0  0  0  0
  -30.4962  -16.6882   21.5951 C   0  0  0  0  0  0
  -27.2598  -23.6606   19.7849 C   0  0  0  0  0  0
  -28.5070  -24.2144   20.4989 C   0  0  0  0  0  0
  -27.0978  -22.1290   19.8836 C   0  0  0  0  0  0
  -28.3550  -25.6386   21.0764 C   0  0  0  0  0  0
  -30.0322  -15.3321   21.3014 N   0  0  0  0  0  0
  -28.0816  -21.3805   19.0956 N   0  0  0  0  0  0
  -30.3272  -19.2858   23.2172 Cl  0  0  0  0  0  0
  -29.3532  -16.4653   18.5350 Cl  0  0  0  0  0  0
  -31.4540  -12.4057   19.0827 H   0  0  0  0  0  0
  -30.3162  -11.2650   19.7571 H   0  0  0  0  0  0
  -29.7023  -11.8148   17.3843 H   0  0  0  0  0  0
  -29.6490  -13.5179   17.7714 H   0  0  0  0  0  0
  -27.7803  -11.3332   18.7464 H   0  0  0  0  0  0
  -27.3508  -12.7115   17.7671 H   0  0  0  0  0  0
  -27.7144  -14.2524   19.6072 H   0  0  0  0  0  0
  -28.6600  -11.8722   21.2691 H   0  0  0  0  0  0
  -28.4544  -13.4745   21.8877 H   0  0  0  0  0  0
  -25.2683   -9.5736   22.4733 H   0  0  0  0  0  0
  -23.9976   -7.4645   22.7432 H   0  0  0  0  0  0
  -21.0794   -8.8724   19.8917 H   0  0  0  0  0  0
  -22.3589  -10.9644   19.6144 H   0  0  0  0  0  0
  -21.2023   -7.6122   23.9728 H   0  0  0  0  0  0
  -21.1487   -6.0489   25.9087 H   0  0  0  0  0  0
  -22.0591   -2.7587   23.2856 H   0  0  0  0  0  0
  -22.3993  -11.9979   22.4874 H   0  0  0  0  0  0
  -21.1016  -13.1337   22.2525 H   0  0  0  0  0  0
  -24.6853  -15.8613   20.4939 H   0  0  0  0  0  0
  -26.2948  -15.5949   20.0460 H   0  0  0  0  0  0
  -26.7142  -32.5528   23.1153 H   0  0  0  0  0  0
  -25.0336  -33.9795   25.0656 H   0  0  0  0  0  0
  -22.6912  -31.3094   21.4093 H   0  0  0  0  0  0
  -23.3764  -35.9628   23.3303 H   0  0  0  0  0  0
  -24.3597  -36.8888   22.2039 H   0  0  0  0  0  0
  -23.7230  -37.6515   23.6611 H   0  0  0  0  0  0
  -26.0559  -31.6070   20.6013 H   0  0  0  0  0  0
  -26.8154  -30.8792   21.9910 H   0  0  0  0  0  0
  -28.0995  -29.1127   21.1668 H   0  0  0  0  0  0
  -26.0702  -25.9936   18.9921 H   0  0  0  0  0  0
  -23.9836  -27.3024   19.0177 H   0  0  0  0  0  0
  -23.7213  -30.6010   19.4013 H   0  0  0  0  0  0
  -22.7373  -29.2455   19.8623 H   0  0  0  0  0  0
  -25.1287  -36.1995   25.0838 H   0  0  0  0  0  0
  -20.9960  -28.3204   24.1428 H   0  0  0  0  0  0
  -20.5696  -26.2253   23.3582 H   0  0  0  0  0  0
  -21.6644  -26.7446   22.1176 H   0  0  0  0  0  0
  -19.6912  -25.6292   21.1219 H   0  0  0  0  0  0
  -19.6684  -27.3195   20.6747 H   0  0  0  0  0  0
  -17.4206  -26.6671   21.4004 H   0  0  0  0  0  0
  -18.0309  -26.0038   22.8989 H   0  0  0  0  0  0
  -19.7931  -30.7249   24.2269 H   0  0  0  0  0  0
  -17.5006  -31.6249   24.5162 H   0  0  0  0  0  0
  -15.5337  -30.2976   23.7638 H   0  0  0  0  0  0
  -15.8664  -28.0806   22.7057 H   0  0  0  0  0  0
  -24.5991  -30.6999   25.7798 H   0  0  0  0  0  0
  -24.8997  -32.2800   26.4942 H   0  0  0  0  0  0
  -25.8189  -30.8807   27.0199 H   0  0  0  0  0  0
  -26.2907  -29.6759   24.1187 H   0  0  0  0  0  0
  -27.4220  -29.7294   25.4507 H   0  0  0  0  0  0
  -27.8689  -30.4366   23.9175 H   0  0  0  0  0  0
  -27.2806  -33.3559   26.2060 H   0  0  0  0  0  0
  -28.3925  -32.6776   25.0273 H   0  0  0  0  0  0
  -28.0794  -31.8347   26.5344 H   0  0  0  0  0  0
  -28.2618  -38.0094   24.7512 H   0  0  0  0  0  0
  -28.1063  -36.2624   24.6300 H   0  0  0  0  0  0
  -27.2292  -37.1470   25.8869 H   0  0  0  0  0  0
  -20.9301  -29.8783   21.6987 H   0  0  0  0  0  0
  -26.0198  -38.2888   24.1387 H   0  0  0  0  0  0
  -29.1058  -21.1676   21.5886 H   0  0  0  0  0  0
  -28.3544  -18.9058   17.9891 H   0  0  0  0  0  0
  -28.8002  -21.0807   17.1194 H   0  0  0  0  0  0
  -27.5889  -22.3415   17.2643 H   0  0  0  0  0  0
  -27.1032  -20.6592   17.3603 H   0  0  0  0  0  0
  -30.4020  -16.7738   22.6770 H   0  0  0  0  0  0
  -31.5653  -16.7860   21.3992 H   0  0  0  0  0  0
  -27.2549  -23.9949   18.7475 H   0  0  0  0  0  0
  -26.3713  -24.0948   20.2448 H   0  0  0  0  0  0
  -29.3696  -24.1655   19.8338 H   0  0  0  0  0  0
  -28.7384  -23.5554   21.3358 H   0  0  0  0  0  0
  -26.1097  -21.8608   19.5069 H   0  0  0  0  0  0
  -27.0868  -21.8257   20.9324 H   0  0  0  0  0  0
  -29.1900  -25.8280   21.7515 H   0  0  0  0  0  0
  -27.4646  -25.6750   21.7094 H   0  0  0  0  0  0
  -29.1168  -15.0734   21.6327 H   0  0  0  0  0  0
  1 25  1  0  0  0
  1 30  2  0  0  0
  1 83  1  0  0  0
  2  3  1  0  0  0
  2 25  1  0  0  0
  2 87  1  0  0  0
  2 88  1  0  0  0
  3  4  1  0  0  0
  3 89  1  0  0  0
  3 90  1  0  0  0
  4  5  1  0  0  0
  4 91  1  0  0  0
  4 92  1  0  0  0
  5  6  1  0  0  0
  5 26  1  0  0  0
  5 93  1  0  0  0
  6 25  1  0  0  0
  6 94  1  0  0  0
  6 95  1  0  0  0
  7  8  2  0  0  0
  7 26  1  0  0  0
  7 29  1  0  0  0
  8  9  1  0  0  0
  8 22  1  0  0  0
  9 10  1  0  0  0
  9 27  2  0  0  0
 10 11  2  0  0  0
 10 15  1  0  0  0
 11 12  1  0  0  0
 11 96  1  0  0  0
 12 13  2  0  0  0
 12 97  1  0  0  0
 13 14  1  0  0  0
 13 31  1  0  0  0
 14 15  2  0  0  0
 14 98  1  0  0  0
 15 99  1  0  0  0
 16 17  2  0  0  0
 16 21  1  0  0  0
 16 31  1  0  0  0
 17 18  1  0  0  0
 17100  1  0  0  0
 18 19  2  0  0  0
 18101  1  0  0  0
 19 20  1  0  0  0
 19 24  1  0  0  0
 20 21  2  0  0  0
 20102  1  0  0  0
 21 23  1  0  0  0
 22 28  1  0  0  0
 22 32  2  0  0  0
 26 27  1  0  0  0
 28103  1  0  0  0
 28104  1  0  0  0
 29105  1  0  0  0
 29106  1  0  0  0
 33 34  1  0  0  0
 33 66  1  0  0  0
 33 70  2  0  0  0
 34 36  1  0  0  0
 34 59  1  0  0  0
 34107  1  0  0  0
 35 44  2  0  0  0
 35 45  1  0  0  0
 35 68  1  0  0  0
 36 56  1  0  0  0
 36108  1  0  0  0
 37 39  1  0  0  0
 37 47  1  0  0  0
 37 66  1  0  0  0
 37109  1  0  0  0
 38 43  2  0  0  0
 38 46  1  0  0  0
 38 47  1  0  0  0
 39 64  1  0  0  0
 39 67  2  0  0  0
 40 52  1  0  0  0
 40 53  2  0  0  0
 40 58  1  0  0  0
 41110  1  0  0  0
 41111  1  0  0  0
 41112  1  0  0  0
 41 48  1  0  0  0
 42 43  1  0  0  0
 42 66  1  0  0  0
 42113  1  0  0  0
 42114  1  0  0  0
 43 44  1  0  0  0
 44115  1  0  0  0
 45 46  2  0  0  0
 45116  1  0  0  0
 46117  1  0  0  0
 47118  1  0  0  0
 47119  1  0  0  0
 48 56  1  0  0  0
 48 65  1  0  0  0
 48120  1  0  0  0
 49 50  1  0  0  0
 49 53  1  0  0  0
 49 64  1  0  0  0
 49121  1  0  0  0
 50 51  1  0  0  0
 50122  1  0  0  0
 50123  1  0  0  0
 51 52  1  0  0  0
 51124  1  0  0  0
 51125  1  0  0  0
 52126  1  0  0  0
 52127  1  0  0  0
 53 54  1  0  0  0
 54 55  2  0  0  0
 54128  1  0  0  0
 55 57  1  0  0  0
 55129  1  0  0  0
 56 69  2  0  0  0
 57 58  2  0  0  0
 57130  1  0  0  0
 58131  1  0  0  0
 59 60  1  0  0  0
 59 61  1  0  0  0
 59 62  1  0  0  0
 60132  1  0  0  0
 60133  1  0  0  0
 60134  1  0  0  0
 61135  1  0  0  0
 61136  1  0  0  0
 61137  1  0  0  0
 62138  1  0  0  0
 62139  1  0  0  0
 62140  1  0  0  0
 63 65  1  0  0  0
 63141  1  0  0  0
 63142  1  0  0  0
 63143  1  0  0  0
 64144  1  0  0  0
 65145  1  0  0  0
 68 82  1  0  0  0
 71 74  2  0  0  0
 71 75  1  0  0  0
 71146  1  0  0  0
 72 74  1  0  0  0
 72 76  2  0  0  0
 72147  1  0  0  0
 73 75  2  0  0  0
 73 76  1  0  0  0
 73 78  1  0  0  0
 74 84  1  0  0  0
 75 85  1  0  0  0
 76 86  1  0  0  0
 77 84  1  0  0  0
 77148  1  0  0  0
 77149  1  0  0  0
 77150  1  0  0  0
 78 83  1  0  0  0
 78151  1  0  0  0
 78152  1  0  0  0
 79 80  1  0  0  0
 79 81  1  0  0  0
 79153  1  0  0  0
 79154  1  0  0  0
 80 82  1  0  0  0
 80155  1  0  0  0
 80156  1  0  0  0
 81 84  1  0  0  0
 81157  1  0  0  0
 81158  1  0  0  0
 82159  1  0  0  0
 82160  1  0  0  0
 83161  1  0  0  0
M  ISO  4   1 100  68 101  82 101  83 100
M  END
> <chiral flag>
0

> <version>
0

> <s_m_source_file>
/data/baiqing/PycharmProjects/Reinvent-master-3.2/result/LINK_invent/BTK/process_docking_weight1_custom_sum_contain_oxygen_bond_distance_aromatic_linkinvent_7_9_3/rearranged_h_0019.sdf

> <i_m_source_file_index>
76

> <r_mmod_Potential_Energy-OPLS-2005>
-50.6562881469727

> <r_mmod_Stretch_Energy-OPLS-2005>
36.8962821960449

> <r_mmod_Bend_Energy-OPLS-2005>
108.325309753418

> <r_mmod_Torsional_Energy-OPLS-2005>
230.807998657227

> <r_mmod_Improper_Torsional_Energy-OPLS-2005>
5.5304217338562

> <r_mmod_Van_der_Waal_Energy-OPLS-2005>
161.35612487793

> <r_mmod_Electrostatic_Energy-OPLS-2005>
-385.671478271484

> <r_mmod_Solvation_Energy-OPLS-2005>
-218.011596679688

> <b_mmod_Minimization_Converged-OPLS-2005>
0

> <r_mmod_RMS_Derivative-OPLS-2005>
4.36090755462646

$$$$
76
                    3D
 Structure written by MMmdl.
182190  0  0  1  0            999 V2000
  -30.7049  -14.4822   20.3156 C   0  0  0  0  0  0
  -30.4107  -12.2362   19.4508 C   0  0  0  0  0  0
  -29.4874  -12.3703   18.2206 C   0  0  0  0  0  0
  -28.0044  -12.3042   18.6328 C   0  0  0  0  0  0
  -27.6505  -13.2034   19.8487 C   0  0  2  0  0  0
  -28.7108  -13.0918   20.9722 C   0  0  0  0  0  0
  -25.2558  -13.8159   20.5707 C   0  0  0  0  0  0
  -24.1809  -13.0441   20.9212 C   0  0  0  0  0  0
  -24.6375  -11.6914   20.8789 C   0  0  0  0  0  0
  -23.9050  -10.4294   21.0431 C   0  0  0  0  0  0
  -24.3600   -9.4207   21.9203 C   0  0  0  0  0  0
  -23.6288   -8.2242   22.0755 C   0  0  0  0  0  0
  -22.4275   -8.0279   21.3549 C   0  0  0  0  0  0
  -21.9910   -9.0248   20.4653 C   0  0  0  0  0  0
  -22.7225  -10.2139   20.3070 C   0  0  0  0  0  0
  -21.6848   -6.0748   22.5284 C   0  0  0  0  0  0
  -21.4002   -6.5648   23.8222 C   0  0  0  0  0  0
  -21.3659   -5.6789   24.9181 C   0  0  0  0  0  0
  -21.6049   -4.3056   24.7231 C   0  0  0  0  0  0
  -21.8818   -3.8152   23.4351 C   0  0  0  0  0  0
  -21.9184   -4.6973   22.3405 C   0  0  0  0  0  0
  -22.7831  -13.5250   21.1878 C   0  0  0  0  0  0
  -22.1649   -4.2162   21.0989 F   0  0  0  0  0  0
  -21.5635   -3.4532   25.7738 F   0  0  0  0  0  0
  -30.0393  -13.3040   20.3803 N   0  0  0  0  0  0
  -26.2994  -12.9323   20.3351 N   0  0  0  0  0  0
  -25.9299  -11.6504   20.5849 N   0  0  0  0  0  0
  -22.0457  -12.8235   22.0426 N   0  0  0  0  0  0
  -25.4238  -15.1884   20.4093 N   0  0  0  0  0  0
  -31.9281  -14.5723   20.3221 O   0  0  0  0  0  0
  -21.6638   -6.8880   21.4247 O   0  0  0  0  0  0
  -22.3530  -14.5562   20.6730 O   0  0  0  0  0  0
  -24.6132  -31.8700   23.2099 C   0  0  0  0  0  0
  -25.9029  -32.4832   23.8386 C   0  0  1  0  0  0
  -27.2342  -27.4610   20.0998 C   0  0  0  0  0  0
  -25.5901  -33.8629   24.2334 N   0  0  0  0  0  0
  -23.3980  -30.4933   21.5487 C   0  0  2  0  0  0
  -24.8439  -28.9627   20.1108 C   0  0  0  0  0  0
  -22.7393  -29.4673   22.4989 C   0  0  0  0  0  0
  -18.0276  -28.1385   22.8497 C   0  0  0  0  0  0
  -24.1477  -36.7293   23.2635 C   0  0  0  0  0  0
  -25.9231  -30.8470   21.3545 C   0  0  0  0  0  0
  -26.0036  -29.4835   20.7016 C   0  0  0  0  0  0
  -27.2047  -28.7420   20.6879 C   0  0  0  0  0  0
  -26.0632  -26.9491   19.5009 C   0  0  0  0  0  0
  -24.8691  -27.6954   19.5031 C   0  0  0  0  0  0
  -23.6020  -29.8221   20.1634 C   0  0  0  0  0  0
  -25.4099  -36.3105   24.0345 C   0  0  1  0  0  0
  -20.5861  -28.3658   23.1319 C   0  0  2  0  0  0
  -20.6765  -26.9396   22.5411 C   0  0  0  0  0  0
  -19.5745  -26.6381   21.5212 C   0  0  0  0  0  0
  -18.1919  -26.7944   22.1615 C   0  0  0  0  0  0
  -19.1525  -28.8832   23.2910 C   0  0  0  0  0  0
  -18.9459  -30.1441   23.8914 C   0  0  0  0  0  0
  -17.6466  -30.6597   24.0563 C   0  0  0  0  0  0
  -25.9031  -34.9477   23.5130 C   0  0  0  0  0  0
  -16.5353  -29.9096   23.6344 C   0  0  0  0  0  0
  -16.7263  -28.6510   23.0364 C   0  0  0  0  0  0
  -26.4469  -31.6613   25.0702 C   0  0  0  0  0  0
  -25.3740  -31.3721   26.1453 C   0  0  0  0  0  0
  -27.0301  -30.3070   24.6030 C   0  0  0  0  0  0
  -27.6035  -32.4332   25.7483 C   0  0  0  0  0  0
  -27.5585  -37.1786   24.8467 C   0  0  0  0  0  0
  -21.4119  -29.3039   22.3733 N   0  0  0  0  0  0
  -26.4283  -37.3806   23.9431 N   0  0  0  0  0  0
  -24.6628  -31.0828   22.0972 N   0  0  0  0  0  0
  -23.4185  -28.8227   23.3022 O   0  0  0  0  0  0
  -28.3810  -26.7043   20.1452 O   0  0  0  0  0  0
  -26.5576  -34.8933   22.4681 O   0  0  0  0  0  0
  -23.5330  -32.1419   23.7530 O   0  0  0  0  0  0
  -30.6872  -20.8462   21.1655 C   0  0  0  0  0  0
  -30.8502  -17.8486   19.7395 C   0  0  0  0  0  0
  -30.7211  -21.3208   18.6728 C   0  0  0  0  0  0
  -29.3037  -19.3999   18.4824 C   0  0  0  0  0  0
  -31.1271  -20.3277   19.7792 C   0  0  2  0  0  0
  -29.3163  -20.9162   18.2159 C   0  0  0  0  0  0
  -28.2057  -21.6395   19.0071 C   0  0  0  0  0  0
  -29.1489  -21.2239   16.7172 C   0  0  0  0  0  0
  -31.8077  -17.5088   16.9326 C   0  0  0  0  0  0
  -32.0584  -15.1761   17.4912 C   0  0  0  0  0  0
  -29.9070  -15.9794   16.4902 C   0  0  0  0  0  0
  -29.3178  -23.6618   22.2456 C   0  0  0  0  0  0
  -29.5317  -24.8132   21.2376 C   0  0  0  0  0  0
  -30.5864  -22.8675   22.6214 C   0  0  0  0  0  0
  -28.1983  -25.4813   20.8639 C   0  0  0  0  0  0
  -30.3253  -16.6232   18.9427 C   0  0  1  0  0  0
  -31.0104  -16.3112   17.5219 C   0  0  0  0  0  0
  -30.4298  -19.0929   19.3848 N   0  0  0  0  0  0
  -31.0781  -22.0874   21.4900 N   0  0  0  0  0  0
  -29.9533  -15.4695   19.8032 N   0  0  0  0  0  0
  -29.9737  -20.1649   21.9058 O   0  0  0  0  0  0
  -31.6973  -17.6725   20.6196 O   0  0  0  0  0  0
  -31.4606  -12.2907   19.1573 H   0  0  0  0  0  0
  -30.2831  -11.2626   19.9256 H   0  0  0  0  0  0
  -29.7049  -11.5745   17.5072 H   0  0  0  0  0  0
  -29.6769  -13.2969   17.6941 H   0  0  0  0  0  0
  -27.7942  -11.2615   18.8712 H   0  0  0  0  0  0
  -27.3672  -12.5524   17.7836 H   0  0  0  0  0  0
  -27.6516  -14.2269   19.4773 H   0  0  0  0  0  0
  -28.6727  -12.1124   21.4490 H   0  0  0  0  0  0
  -28.5164  -13.8247   21.7579 H   0  0  0  0  0  0
  -25.2746   -9.5688   22.4790 H   0  0  0  0  0  0
  -24.0004   -7.4634   22.7467 H   0  0  0  0  0  0
  -21.0843   -8.8755   19.8960 H   0  0  0  0  0  0
  -22.3677  -10.9671   19.6180 H   0  0  0  0  0  0
  -21.1991   -7.6153   23.9731 H   0  0  0  0  0  0
  -21.1472   -6.0520   25.9085 H   0  0  0  0  0  0
  -22.0597   -2.7617   23.2837 H   0  0  0  0  0  0
  -22.4021  -11.9888   22.4806 H   0  0  0  0  0  0
  -21.1083  -13.1290   22.2637 H   0  0  0  0  0  0
  -24.6507  -15.8347   20.5293 H   0  0  0  0  0  0
  -26.2776  -15.6455   20.1196 H   0  0  0  0  0  0
  -26.7094  -32.5548   23.1149 H   0  0  0  0  0  0
  -25.0122  -33.9800   25.0524 H   0  0  0  0  0  0
  -22.6858  -31.3092   21.4109 H   0  0  0  0  0  0
  -23.3762  -35.9603   23.3302 H   0  0  0  0  0  0
  -24.3583  -36.8894   22.2049 H   0  0  0  0  0  0
  -23.7197  -37.6484   23.6644 H   0  0  0  0  0  0
  -26.0273  -31.6148   20.5864 H   0  0  0  0  0  0
  -26.8149  -30.9032   21.9663 H   0  0  0  0  0  0
  -28.0989  -29.1383   21.1486 H   0  0  0  0  0  0
  -26.0694  -25.9721   19.0372 H   0  0  0  0  0  0
  -23.9782  -27.2890   19.0438 H   0  0  0  0  0  0
  -23.6969  -30.5946   19.4002 H   0  0  0  0  0  0
  -22.7301  -29.2328   19.8741 H   0  0  0  0  0  0
  -25.1278  -36.1958   25.0839 H   0  0  0  0  0  0
  -20.9954  -28.3202   24.1440 H   0  0  0  0  0  0
  -20.5669  -26.2257   23.3594 H   0  0  0  0  0  0
  -21.6633  -26.7443   22.1190 H   0  0  0  0  0  0
  -19.6899  -25.6288   21.1238 H   0  0  0  0  0  0
  -19.6698  -27.3192   20.6754 H   0  0  0  0  0  0
  -17.4190  -26.6701   21.4004 H   0  0  0  0  0  0
  -18.0308  -26.0073   22.9002 H   0  0  0  0  0  0
  -19.7943  -30.7257   24.2275 H   0  0  0  0  0  0
  -17.5033  -31.6285   24.5157 H   0  0  0  0  0  0
  -15.5358  -30.3008   23.7682 H   0  0  0  0  0  0
  -15.8653  -28.0843   22.7084 H   0  0  0  0  0  0
  -24.5919  -30.7055   25.7805 H   0  0  0  0  0  0
  -24.8924  -32.2883   26.4876 H   0  0  0  0  0  0
  -25.8095  -30.8915   27.0220 H   0  0  0  0  0  0
  -26.2824  -29.6828   24.1117 H   0  0  0  0  0  0
  -27.4158  -29.7300   25.4444 H   0  0  0  0  0  0
  -27.8616  -30.4441   23.9113 H   0  0  0  0  0  0
  -27.2651  -33.3648   26.2031 H   0  0  0  0  0  0
  -28.3868  -32.6860   25.0327 H   0  0  0  0  0  0
  -28.0659  -31.8463   26.5423 H   0  0  0  0  0  0
  -28.2572  -38.0117   24.7574 H   0  0  0  0  0  0
  -28.1117  -36.2652   24.6223 H   0  0  0  0  0  0
  -27.2319  -37.1332   25.8872 H   0  0  0  0  0  0
  -20.9267  -29.8755   21.6957 H   0  0  0  0  0  0
  -26.0171  -38.2871   24.1485 H   0  0  0  0  0  0
  -31.4247  -21.1944   17.8487 H   0  0  0  0  0  0
  -30.7859  -22.3730   18.9480 H   0  0  0  0  0  0
  -29.3421  -18.8427   17.5502 H   0  0  0  0  0  0
  -28.3712  -19.1026   18.9661 H   0  0  0  0  0  0
  -32.2090  -20.1836   19.7811 H   0  0  0  0  0  0
  -28.2388  -21.4242   20.0736 H   0  0  0  0  0  0
  -27.2167  -21.3335   18.6620 H   0  0  0  0  0  0
  -28.2703  -22.7221   18.8897 H   0  0  0  0  0  0
  -29.8967  -20.7058   16.1158 H   0  0  0  0  0  0
  -29.2600  -22.2904   16.5194 H   0  0  0  0  0  0
  -28.1694  -20.9167   16.3492 H   0  0  0  0  0  0
  -32.1693  -17.2839   15.9286 H   0  0  0  0  0  0
  -32.6889  -17.7400   17.5330 H   0  0  0  0  0  0
  -31.2417  -18.4280   16.8233 H   0  0  0  0  0  0
  -32.4953  -15.0625   16.4978 H   0  0  0  0  0  0
  -31.6436  -14.2042   17.7343 H   0  0  0  0  0  0
  -32.8903  -15.3762   18.1671 H   0  0  0  0  0  0
  -30.3300  -15.6631   15.5356 H   0  0  0  0  0  0
  -29.2777  -16.8451   16.2803 H   0  0  0  0  0  0
  -29.2423  -15.1883   16.8291 H   0  0  0  0  0  0
  -28.5632  -22.9744   21.8606 H   0  0  0  0  0  0
  -28.8890  -24.0789   23.1586 H   0  0  0  0  0  0
  -30.0218  -24.4531   20.3327 H   0  0  0  0  0  0
  -30.1965  -25.5562   21.6797 H   0  0  0  0  0  0
  -30.3723  -22.2091   23.4655 H   0  0  0  0  0  0
  -31.3724  -23.5429   22.9608 H   0  0  0  0  0  0
  -27.6418  -25.6846   21.7809 H   0  0  0  0  0  0
  -27.5965  -24.7834   20.2818 H   0  0  0  0  0  0
  -29.3103  -16.9190   18.6897 H   0  0  0  0  0  0
  -31.6920  -22.5622   20.8407 H   0  0  0  0  0  0
  -28.9671  -15.2705   19.8145 H   0  0  0  0  0  0
  1 25  1  0  0  0
  1 30  2  0  0  0
  1 90  1  0  0  0
  2  3  1  0  0  0
  2 25  1  0  0  0
  2 93  1  0  0  0
  2 94  1  0  0  0
  3  4  1  0  0  0
  3 95  1  0  0  0
  3 96  1  0  0  0
  4  5  1  0  0  0
  4 97  1  0  0  0
  4 98  1  0  0  0
  5  6  1  0  0  0
  5 26  1  0  0  0
  5 99  1  0  0  0
  6 25  1  0  0  0
  6100  1  0  0  0
  6101  1  0  0  0
  7  8  2  0  0  0
  7 26  1  0  0  0
  7 29  1  0  0  0
  8  9  1  0  0  0
  8 22  1  0  0  0
  9 10  1  0  0  0
  9 27  2  0  0  0
 10 11  2  0  0  0
 10 15  1  0  0  0
 11 12  1  0  0  0
 11102  1  0  0  0
 12 13  2  0  0  0
 12103  1  0  0  0
 13 14  1  0  0  0
 13 31  1  0  0  0
 14 15  2  0  0  0
 14104  1  0  0  0
 15105  1  0  0  0
 16 17  2  0  0  0
 16 21  1  0  0  0
 16 31  1  0  0  0
 17 18  1  0  0  0
 17106  1  0  0  0
 18 19  2  0  0  0
 18107  1  0  0  0
 19 20  1  0  0  0
 19 24  1  0  0  0
 20 21  2  0  0  0
 20108  1  0  0  0
 21 23  1  0  0  0
 22 28  1  0  0  0
 22 32  2  0  0  0
 26 27  1  0  0  0
 28109  1  0  0  0
 28110  1  0  0  0
 29111  1  0  0  0
 29112  1  0  0  0
 33 34  1  0  0  0
 33 66  1  0  0  0
 33 70  2  0  0  0
 34 36  1  0  0  0
 34 59  1  0  0  0
 34113  1  0  0  0
 35 44  2  0  0  0
 35 45  1  0  0  0
 35 68  1  0  0  0
 36 56  1  0  0  0
 36114  1  0  0  0
 37 39  1  0  0  0
 37 47  1  0  0  0
 37 66  1  0  0  0
 37115  1  0  0  0
 38 43  2  0  0  0
 38 46  1  0  0  0
 38 47  1  0  0  0
 39 64  1  0  0  0
 39 67  2  0  0  0
 40 52  1  0  0  0
 40 53  2  0  0  0
 40 58  1  0  0  0
 41116  1  0  0  0
 41117  1  0  0  0
 41118  1  0  0  0
 41 48  1  0  0  0
 42 43  1  0  0  0
 42 66  1  0  0  0
 42119  1  0  0  0
 42120  1  0  0  0
 43 44  1  0  0  0
 44121  1  0  0  0
 45 46  2  0  0  0
 45122  1  0  0  0
 46123  1  0  0  0
 47124  1  0  0  0
 47125  1  0  0  0
 48 56  1  0  0  0
 48 65  1  0  0  0
 48126  1  0  0  0
 49 50  1  0  0  0
 49 53  1  0  0  0
 49 64  1  0  0  0
 49127  1  0  0  0
 50 51  1  0  0  0
 50128  1  0  0  0
 50129  1  0  0  0
 51 52  1  0  0  0
 51130  1  0  0  0
 51131  1  0  0  0
 52132  1  0  0  0
 52133  1  0  0  0
 53 54  1  0  0  0
 54 55  2  0  0  0
 54134  1  0  0  0
 55 57  1  0  0  0
 55135  1  0  0  0
 56 69  2  0  0  0
 57 58  2  0  0  0
 57136  1  0  0  0
 58137  1  0  0  0
 59 60  1  0  0  0
 59 61  1  0  0  0
 59 62  1  0  0  0
 60138  1  0  0  0
 60139  1  0  0  0
 60140  1  0  0  0
 61141  1  0  0  0
 61142  1  0  0  0
 61143  1  0  0  0
 62144  1  0  0  0
 62145  1  0  0  0
 62146  1  0  0  0
 63 65  1  0  0  0
 63147  1  0  0  0
 63148  1  0  0  0
 63149  1  0  0  0
 64150  1  0  0  0
 65151  1  0  0  0
 68 85  1  0  0  0
 71 89  1  0  0  0
 71 91  2  0  0  0
 71 75  1  0  0  0
 72 86  1  0  0  0
 72 88  1  0  0  0
 72 92  2  0  0  0
 73 75  1  0  0  0
 73 76  1  0  0  0
 73152  1  0  0  0
 73153  1  0  0  0
 74 76  1  0  0  0
 74 88  1  0  0  0
 74154  1  0  0  0
 74155  1  0  0  0
 75 88  1  0  0  0
 75156  1  0  0  0
 76 77  1  0  0  0
 76 78  1  0  0  0
 77157  1  0  0  0
 77158  1  0  0  0
 77159  1  0  0  0
 78160  1  0  0  0
 78161  1  0  0  0
 78162  1  0  0  0
 79163  1  0  0  0
 79164  1  0  0  0
 79165  1  0  0  0
 79 87  1  0  0  0
 80 87  1  0  0  0
 80166  1  0  0  0
 80167  1  0  0  0
 80168  1  0  0  0
 81 87  1  0  0  0
 81169  1  0  0  0
 81170  1  0  0  0
 81171  1  0  0  0
 82 83  1  0  0  0
 82 84  1  0  0  0
 82172  1  0  0  0
 82173  1  0  0  0
 83 85  1  0  0  0
 83174  1  0  0  0
 83175  1  0  0  0
 84 89  1  0  0  0
 84176  1  0  0  0
 84177  1  0  0  0
 85178  1  0  0  0
 85179  1  0  0  0
 86 87  1  0  0  0
 86 90  1  0  0  0
 86180  1  0  0  0
 89181  1  0  0  0
 90182  1  0  0  0
M  ISO  4   1 100  68 101  85 101  90 100
M  END
> <chiral flag>
0

> <version>
0

> <s_m_source_file>
/data/baiqing/PycharmProjects/Reinvent-master-3.2/result/LINK_invent/BTK/process_docking_weight1_custom_sum_contain_oxygen_bond_distance_aromatic_linkinvent_7_9_3/rearranged_h_0019.sdf

> <i_m_source_file_index>
77

> <r_mmod_Potential_Energy-OPLS-2005>
-82.2353515625

> <r_mmod_Stretch_Energy-OPLS-2005>
45.6857261657715

> <r_mmod_Bend_Energy-OPLS-2005>
155.364135742188

> <r_mmod_Torsional_Energy-OPLS-2005>
282.987243652344

> <r_mmod_Improper_Torsional_Energy-OPLS-2005>
14.3724908828735

> <r_mmod_Van_der_Waal_Energy-OPLS-2005>
143.163009643555

> <r_mmod_Electrostatic_Energy-OPLS-2005>
-505.590179443359

> <r_mmod_Solvation_Energy-OPLS-2005>
-258.381011962891

> <b_mmod_Minimization_Converged-OPLS-2005>
0

> <r_mmod_RMS_Derivative-OPLS-2005>
2.62336015701294

$$$$
77
                    3D
 Structure written by MMmdl.
203212  0  0  1  0            999 V2000
  -31.4513  -15.0592   20.8014 C   0  0  0  0  0  0
  -30.8885  -13.4172   19.1187 C   0  0  0  0  0  0
  -29.5096  -13.0213   17.8205 C   0  0  0  0  0  0
  -27.6823  -13.1486   18.2481 C   0  0  0  0  0  0
  -27.1766  -13.8870   19.9539 C   0  0  2  0  0  0
  -28.6249  -14.4494   21.2708 C   0  0  0  0  0  0
  -24.9599  -14.0044   20.8102 C   0  0  0  0  0  0
  -23.9799  -13.1070   21.0322 C   0  0  0  0  0  0
  -24.5206  -11.8052   20.8756 C   0  0  0  0  0  0
  -23.8910  -10.4802   21.0138 C   0  0  0  0  0  0
  -24.3629   -9.4810   21.8980 C   0  0  0  0  0  0
  -23.6475   -8.2724   22.0661 C   0  0  0  0  0  0
  -22.4461   -8.0496   21.3512 C   0  0  0  0  0  0
  -22.0027   -9.0344   20.4504 C   0  0  0  0  0  0
  -22.7219  -10.2273   20.2746 C   0  0  0  0  0  0
  -21.7058   -6.0853   22.5259 C   0  0  0  0  0  0
  -21.4163   -6.5744   23.8191 C   0  0  0  0  0  0
  -21.3654   -5.6842   24.9149 C   0  0  0  0  0  0
  -21.6053   -4.3101   24.7158 C   0  0  0  0  0  0
  -21.8841   -3.8233   23.4286 C   0  0  0  0  0  0
  -21.9287   -4.7066   22.3385 C   0  0  0  0  0  0
  -22.5798  -13.5064   21.2583 C   0  0  0  0  0  0
  -22.1734   -4.2265   21.0930 F   0  0  0  0  0  0
  -21.5565   -3.4550   25.7664 F   0  0  0  0  0  0
  -30.4301  -14.2645   20.6593 N   0  0  0  0  0  0
  -26.0205  -13.2686   20.4566 N   0  0  0  0  0  0
  -25.7333  -11.9553   20.3916 N   0  0  0  0  0  0
  -21.8714  -12.7778   22.1011 N   0  0  0  0  0  0
  -25.0058  -15.3975   20.8245 N   0  0  0  0  0  0
  -32.5636  -14.6118   20.7359 O   0  0  0  0  0  0
  -21.6918   -6.9022   21.4228 O   0  0  0  0  0  0
  -22.1388  -14.5170   20.7149 O   0  0  0  0  0  0
  -24.7155  -31.7568   23.1288 C   0  0  0  0  0  0
  -25.9567  -32.4239   23.7917 C   0  0  1  0  0  0
  -27.0607  -26.2903   20.1666 C   0  0  0  0  0  0
  -25.6031  -33.8106   24.1746 N   0  0  0  0  0  0
  -23.5427  -30.3625   21.4953 C   0  0  2  0  0  0
  -24.9668  -28.6348   20.1067 C   0  0  0  0  0  0
  -22.7861  -29.4132   22.4628 C   0  0  0  0  0  0
  -18.0342  -28.1418   22.8443 C   0  0  0  0  0  0
  -24.1500  -36.7042   23.2660 C   0  0  0  0  0  0
  -26.1388  -30.3412   21.4502 C   0  0  0  0  0  0
  -26.1654  -28.8719   20.7796 C   0  0  0  0  0  0
  -27.1919  -27.7329   20.7763 C   0  0  0  0  0  0
  -25.8540  -26.3756   19.4212 C   0  0  0  0  0  0
  -24.8719  -27.4235   19.4031 C   0  0  0  0  0  0
  -23.7986  -29.6476   20.1359 C   0  0  0  0  0  0
  -25.4169  -36.2768   24.0249 C   0  0  1  0  0  0
  -20.5996  -28.3771   23.1097 C   0  0  2  0  0  0
  -20.6794  -26.9386   22.5432 C   0  0  0  0  0  0
  -19.5779  -26.6344   21.5224 C   0  0  0  0  0  0
  -18.1959  -26.7945   22.1614 C   0  0  0  0  0  0
  -19.1620  -28.8916   23.2751 C   0  0  0  0  0  0
  -18.9527  -30.1500   23.8789 C   0  0  0  0  0  0
  -17.6516  -30.6595   24.0523 C   0  0  0  0  0  0
  -25.9173  -34.9166   23.4849 C   0  0  0  0  0  0
  -16.5395  -29.9068   23.6362 C   0  0  0  0  0  0
  -16.7323  -28.6498   23.0368 C   0  0  0  0  0  0
  -26.4658  -31.6440   25.0678 C   0  0  0  0  0  0
  -25.3654  -31.3879   26.1245 C   0  0  0  0  0  0
  -27.0622  -30.2727   24.6849 C   0  0  0  0  0  0
  -27.6036  -32.4383   25.7513 C   0  0  0  0  0  0
  -27.5555  -37.1690   24.8471 C   0  0  0  0  0  0
  -21.4485  -29.2996   22.3408 N   0  0  0  0  0  0
  -26.4264  -37.3564   23.9408 N   0  0  0  0  0  0
  -24.8310  -30.8622   22.0761 N   0  0  0  0  0  0
  -23.4197  -28.7709   23.3037 O   0  0  0  0  0  0
  -27.8312  -24.8300   20.1869 O   0  0  0  0  0  0
  -26.5850  -34.8817   22.4498 O   0  0  0  0  0  0
  -23.6136  -32.0866   23.6037 O   0  0  0  0  0  0
  -27.3405  -18.1039   19.3361 C   0  0  0  0  0  0
  -29.1892  -18.3707   20.2524 C   0  0  0  0  0  0
  -28.4726  -17.0837   19.6571 C   0  0  0  0  0  0
  -27.0695  -19.6871   19.4936 C   0  0  0  0  0  0
  -29.0214  -19.9653   20.2652 C   0  0  0  0  0  0
  -27.8911  -20.9431   19.9046 C   0  0  0  0  0  0
  -28.7949  -10.1609   18.6110 C   0  0  0  0  0  0
  -28.4611  -10.9821   19.6760 C   0  0  0  0  0  0
  -31.4202  -15.2805   17.1462 C   0  0  0  0  0  0
  -32.5445  -15.8927   18.0391 C   0  0  0  0  0  0
  -30.6357  -17.1313   18.0079 C   0  0  0  0  0  0
  -30.0163  -15.7214   17.7846 C   0  0  2  0  0  0
  -31.8048  -16.8537   18.9897 C   0  0  1  0  0  0
  -25.6230  -20.0817   19.2325 C   0  0  0  0  0  0
  -30.2965  -20.7069   20.6381 C   0  0  0  0  0  0
  -30.2215  -10.0668   18.0337 C   0  0  0  0  0  0
  -28.3873   -9.0366   21.5426 C   0  0  0  0  0  0
  -30.3503  -12.6700   22.7875 C   0  0  0  0  0  0
  -30.8051  -10.8553   21.3373 C   0  0  0  0  0  0
  -28.2701   -8.8533   16.4648 C   0  0  0  0  0  0
  -26.3395   -9.4716   17.8232 C   0  0  0  0  0  0
  -27.9264   -7.7079   18.6320 C   0  0  0  0  0  0
  -27.4224  -22.9569   19.8929 C   0  0  0  0  0  0
  -27.6691  -10.1979   20.8135 C   0  0  0  0  0  0
  -28.9874  -15.0896   19.0584 C   0  0  1  0  0  0
  -29.6993  -11.9585   21.5016 C   0  0  0  0  0  0
  -27.8489   -9.0832   17.9427 C   0  0  0  0  0  0
  -31.2257  -16.2359   20.2218 N   0  0  0  0  0  0
  -29.0231  -12.5424   20.0853 N   0  3  2  0  0  0
  -31.8528  -13.6406   18.7164 H   0  0  0  0  0  0
  -31.3306  -12.4798   19.4296 H   0  0  0  0  0  0
  -29.7286  -12.1610   17.2313 H   0  0  0  0  0  0
  -29.5985  -13.5882   16.9008 H   0  0  0  0  0  0
  -27.1502  -12.2249   18.0330 H   0  0  0  0  0  0
  -27.2205  -13.7481   17.4610 H   0  0  0  0  0  0
  -26.7721  -14.8237   19.5942 H   0  0  0  0  0  0
  -28.3207  -13.9951   22.2041 H   0  0  0  0  0  0
  -28.5010  -15.4924   21.5598 H   0  0  0  0  0  0
  -25.2644   -9.6571   22.4653 H   0  0  0  0  0  0
  -24.0286   -7.5299   22.7508 H   0  0  0  0  0  0
  -21.1004   -8.8761   19.8846 H   0  0  0  0  0  0
  -22.3567  -10.9722   19.5816 H   0  0  0  0  0  0
  -21.2220   -7.6252   23.9705 H   0  0  0  0  0  0
  -21.1374   -6.0573   25.9017 H   0  0  0  0  0  0
  -22.0581   -2.7675   23.2732 H   0  0  0  0  0  0
  -22.2674  -11.9586   22.5370 H   0  0  0  0  0  0
  -20.9124  -13.0310   22.2967 H   0  0  0  0  0  0
  -24.1747  -15.9063   21.0945 H   0  0  0  0  0  0
  -25.8097  -16.0012   20.7098 H   0  0  0  0  0  0
  -26.7609  -32.4582   23.0585 H   0  0  0  0  0  0
  -25.0054  -33.9063   24.9824 H   0  0  0  0  0  0
  -22.8849  -31.2149   21.2934 H   0  0  0  0  0  0
  -23.3803  -35.9330   23.3247 H   0  0  0  0  0  0
  -24.3550  -36.8808   22.2093 H   0  0  0  0  0  0
  -23.7228  -37.6171   23.6819 H   0  0  0  0  0  0
  -26.3928  -31.0377   20.6501 H   0  0  0  0  0  0
  -26.9778  -30.3995   22.1334 H   0  0  0  0  0  0
  -28.0833  -27.9095   21.3625 H   0  0  0  0  0  0
  -25.5803  -25.4925   18.8642 H   0  0  0  0  0  0
  -23.9662  -27.2411   18.8420 H   0  0  0  0  0  0
  -24.0205  -30.3996   19.3803 H   0  0  0  0  0  0
  -22.8849  -29.1596   19.7911 H   0  0  0  0  0  0
  -25.1412  -36.1484   25.0740 H   0  0  0  0  0  0
  -21.0066  -28.3409   24.1219 H   0  0  0  0  0  0
  -20.5620  -26.2372   23.3709 H   0  0  0  0  0  0
  -21.6651  -26.7282   22.1255 H   0  0  0  0  0  0
  -19.6927  -25.6236   21.1284 H   0  0  0  0  0  0
  -19.6745  -27.3117   20.6723 H   0  0  0  0  0  0
  -17.4235  -26.6679   21.4002 H   0  0  0  0  0  0
  -18.0327  -26.0103   22.9024 H   0  0  0  0  0  0
  -19.7997  -30.7348   24.2116 H   0  0  0  0  0  0
  -17.5053  -31.6259   24.5145 H   0  0  0  0  0  0
  -15.5384  -30.2929   23.7754 H   0  0  0  0  0  0
  -15.8725  -28.0773   22.7158 H   0  0  0  0  0  0
  -24.5890  -30.7144   25.7592 H   0  0  0  0  0  0
  -24.8796  -32.3137   26.4338 H   0  0  0  0  0  0
  -25.7790  -30.9304   27.0239 H   0  0  0  0  0  0
  -26.3374  -29.6217   24.1939 H   0  0  0  0  0  0
  -27.3967  -29.7336   25.5726 H   0  0  0  0  0  0
  -27.9406  -30.3745   24.0468 H   0  0  0  0  0  0
  -27.2516  -33.3803   26.1738 H   0  0  0  0  0  0
  -28.4034  -32.6738   25.0472 H   0  0  0  0  0  0
  -28.0472  -31.8742   26.5730 H   0  0  0  0  0  0
  -28.2547  -38.0011   24.7491 H   0  0  0  0  0  0
  -28.1073  -36.2519   24.6343 H   0  0  0  0  0  0
  -27.2237  -37.1371   25.8864 H   0  0  0  0  0  0
  -20.9837  -29.8593   21.6388 H   0  0  0  0  0  0
  -26.0057  -38.2594   24.1437 H   0  0  0  0  0  0
  -26.5075  -17.5885   18.8698 H   0  0  0  0  0  0
  -30.1346  -18.1930   20.7242 H   0  0  0  0  0  0
  -31.5876  -14.2590   16.8252 H   0  0  0  0  0  0
  -31.5203  -15.7411   16.1592 H   0  0  0  0  0  0
  -33.2564  -16.4532   17.4389 H   0  0  0  0  0  0
  -33.1923  -15.1869   18.5387 H   0  0  0  0  0  0
  -31.0384  -17.5554   17.0846 H   0  0  0  0  0  0
  -29.9652  -17.9534   18.1254 H   0  0  0  0  0  0
  -29.3775  -15.8190   16.9062 H   0  0  0  0  0  0
  -32.4098  -17.7290   19.2495 H   0  0  0  0  0  0
  -25.0264  -19.2715   18.8071 H   0  0  0  0  0  0
  -25.5638  -20.9524   18.5784 H   0  0  0  0  0  0
  -25.1508  -20.3706   20.1757 H   0  0  0  0  0  0
  -31.1850  -20.1814   20.2736 H   0  0  0  0  0  0
  -30.3913  -20.8573   21.7151 H   0  0  0  0  0  0
  -30.3048  -21.6795   20.1351 H   0  0  0  0  0  0
  -30.9475  -10.7068   18.5075 H   0  0  0  0  0  0
  -30.3014  -10.2426   16.9601 H   0  0  0  0  0  0
  -30.5821   -9.0550   18.1943 H   0  0  0  0  0  0
  -27.6498   -8.2945   21.8534 H   0  0  0  0  0  0
  -28.8724   -9.3736   22.4576 H   0  0  0  0  0  0
  -29.1262   -8.5258   20.9267 H   0  0  0  0  0  0
  -30.4239  -11.9512   23.6072 H   0  0  0  0  0  0
  -29.8464  -13.4893   23.2885 H   0  0  0  0  0  0
  -31.3810  -12.9749   22.6308 H   0  0  0  0  0  0
  -30.9384  -10.2881   22.2641 H   0  0  0  0  0  0
  -31.7847  -11.2842   21.1356 H   0  0  0  0  0  0
  -30.6511  -10.0912   20.5897 H   0  0  0  0  0  0
  -28.3060   -9.7934   15.9145 H   0  0  0  0  0  0
  -27.5922   -8.1954   15.9237 H   0  0  0  0  0  0
  -29.2486   -8.3818   16.3850 H   0  0  0  0  0  0
  -26.1774  -10.4146   17.3123 H   0  0  0  0  0  0
  -25.7701   -9.5097   18.7462 H   0  0  0  0  0  0
  -25.8025   -8.7247   17.2349 H   0  0  0  0  0  0
  -28.9531   -7.4309   18.8679 H   0  0  0  0  0  0
  -27.5162   -6.9226   17.9946 H   0  0  0  0  0  0
  -27.3381   -7.6719   19.5505 H   0  0  0  0  0  0
  -26.4950  -22.9115   20.4622 H   0  0  0  0  0  0
  -27.0953  -23.0239   18.8528 H   0  0  0  0  0  0
  -26.7993   -9.7235   20.4032 H   0  0  0  0  0  0
  -27.2416  -10.7766   21.6299 H   0  0  0  0  0  0
  -28.1866  -15.2858   18.3537 H   0  0  0  0  0  0
  -28.8899  -11.6477   22.1401 H   0  0  0  0  0  0
  -30.2480  -16.4735   20.3077 H   0  0  0  0  0  0
  -29.8933  -12.4959   19.5649 H   0  0  0  0  0  0
  1 25  1  0  0  0
  1 30  2  0  0  0
  1 98  1  0  0  0
  2  3  1  0  0  0
  2 25  1  0  0  0
  2100  1  0  0  0
  2101  1  0  0  0
  3  4  1  0  0  0
  3102  1  0  0  0
  3103  1  0  0  0
  4  5  1  0  0  0
  4104  1  0  0  0
  4105  1  0  0  0
  5  6  1  0  0  0
  5 26  1  0  0  0
  5106  1  0  0  0
  6 25  1  0  0  0
  6107  1  0  0  0
  6108  1  0  0  0
  7  8  2  0  0  0
  7 26  1  0  0  0
  7 29  1  0  0  0
  8  9  1  0  0  0
  8 22  1  0  0  0
  9 10  1  0  0  0
  9 27  2  0  0  0
 10 11  2  0  0  0
 10 15  1  0  0  0
 11 12  1  0  0  0
 11109  1  0  0  0
 12 13  2  0  0  0
 12110  1  0  0  0
 13 14  1  0  0  0
 13 31  1  0  0  0
 14 15  2  0  0  0
 14111  1  0  0  0
 15112  1  0  0  0
 16 17  2  0  0  0
 16 21  1  0  0  0
 16 31  1  0  0  0
 17 18  1  0  0  0
 17113  1  0  0  0
 18 19  2  0  0  0
 18114  1  0  0  0
 19 20  1  0  0  0
 19 24  1  0  0  0
 20 21  2  0  0  0
 20115  1  0  0  0
 21 23  1  0  0  0
 22 28  1  0  0  0
 22 32  2  0  0  0
 26 27  1  0  0  0
 28116  1  0  0  0
 28117  1  0  0  0
 29118  1  0  0  0
 29119  1  0  0  0
 33 34  1  0  0  0
 33 66  1  0  0  0
 33 70  2  0  0  0
 34 36  1  0  0  0
 34 59  1  0  0  0
 34120  1  0  0  0
 35 44  2  0  0  0
 35 45  1  0  0  0
 35 68  1  0  0  0
 36 56  1  0  0  0
 36121  1  0  0  0
 37 39  1  0  0  0
 37 47  1  0  0  0
 37 66  1  0  0  0
 37122  1  0  0  0
 38 43  2  0  0  0
 38 46  1  0  0  0
 38 47  1  0  0  0
 39 64  1  0  0  0
 39 67  2  0  0  0
 40 52  1  0  0  0
 40 53  2  0  0  0
 40 58  1  0  0  0
 41123  1  0  0  0
 41124  1  0  0  0
 41125  1  0  0  0
 41 48  1  0  0  0
 42 43  1  0  0  0
 42 66  1  0  0  0
 42126  1  0  0  0
 42127  1  0  0  0
 43 44  1  0  0  0
 44128  1  0  0  0
 45 46  2  0  0  0
 45129  1  0  0  0
 46130  1  0  0  0
 47131  1  0  0  0
 47132  1  0  0  0
 48 56  1  0  0  0
 48 65  1  0  0  0
 48133  1  0  0  0
 49 50  1  0  0  0
 49 53  1  0  0  0
 49 64  1  0  0  0
 49134  1  0  0  0
 50 51  1  0  0  0
 50135  1  0  0  0
 50136  1  0  0  0
 51 52  1  0  0  0
 51137  1  0  0  0
 51138  1  0  0  0
 52139  1  0  0  0
 52140  1  0  0  0
 53 54  1  0  0  0
 54 55  2  0  0  0
 54141  1  0  0  0
 55 57  1  0  0  0
 55142  1  0  0  0
 56 69  2  0  0  0
 57 58  2  0  0  0
 57143  1  0  0  0
 58144  1  0  0  0
 59 60  1  0  0  0
 59 61  1  0  0  0
 59 62  1  0  0  0
 60145  1  0  0  0
 60146  1  0  0  0
 60147  1  0  0  0
 61148  1  0  0  0
 61149  1  0  0  0
 61150  1  0  0  0
 62151  1  0  0  0
 62152  1  0  0  0
 62153  1  0  0  0
 63 65  1  0  0  0
 63154  1  0  0  0
 63155  1  0  0  0
 63156  1  0  0  0
 64157  1  0  0  0
 65158  1  0  0  0
 68 93  1  0  0  0
 71 73  2  0  0  0
 71 74  1  0  0  0
 71159  1  0  0  0
 72 73  1  0  0  0
 72 75  2  0  0  0
 72160  1  0  0  0
 73 95  1  0  0  0
 74 76  2  0  0  0
 74 84  1  0  0  0
 75 76  1  0  0  0
 75 85  1  0  0  0
 76 93  1  0  0  0
 77 78  2  0  0  0
 77 86  1  0  0  0
 77 97  1  0  0  0
 78 94  1  0  0  0
 78 99  1  0  0  0
 79 80  1  0  0  0
 79161  1  0  0  0
 79162  1  0  0  0
 79 82  1  0  0  0
 80 83  1  0  0  0
 80163  1  0  0  0
 80164  1  0  0  0
 81 82  1  0  0  0
 81 83  1  0  0  0
 81165  1  0  0  0
 81166  1  0  0  0
 82 95  1  0  0  0
 82167  1  0  0  0
 83 98  1  0  0  0
 83168  1  0  0  0
 84169  1  0  0  0
 84170  1  0  0  0
 84171  1  0  0  0
 85172  1  0  0  0
 85173  1  0  0  0
 85174  1  0  0  0
 86175  1  0  0  0
 86176  1  0  0  0
 86177  1  0  0  0
 87 94  1  0  0  0
 87178  1  0  0  0
 87179  1  0  0  0
 87180  1  0  0  0
 88181  1  0  0  0
 88182  1  0  0  0
 88183  1  0  0  0
 88 96  1  0  0  0
 89 96  1  0  0  0
 89184  1  0  0  0
 89185  1  0  0  0
 89186  1  0  0  0
 90187  1  0  0  0
 90188  1  0  0  0
 90189  1  0  0  0
 90 97  1  0  0  0
 91 97  1  0  0  0
 91190  1  0  0  0
 91191  1  0  0  0
 91192  1  0  0  0
 92 97  1  0  0  0
 92193  1  0  0  0
 92194  1  0  0  0
 92195  1  0  0  0
 93196  1  0  0  0
 93197  1  0  0  0
 94198  1  0  0  0
 94199  1  0  0  0
 95 99  1  0  0  0
 95200  1  0  0  0
 96 99  1  0  0  0
 96201  1  0  0  0
 98202  1  0  0  0
 99203  1  0  0  0
M  CHG  1  99   1
M  ISO  4   1 100  68 101  93 101  98 100
M  END
> <chiral flag>
0

> <version>
0

> <s_m_source_file>
/data/baiqing/PycharmProjects/Reinvent-master-3.2/result/LINK_invent/BTK/process_docking_weight1_custom_sum_contain_oxygen_bond_distance_aromatic_linkinvent_7_9_3/rearranged_h_0019.sdf

> <i_m_source_file_index>
78

> <r_mmod_Potential_Energy-OPLS-2005>
11848.5732421875

> <r_mmod_Stretch_Energy-OPLS-2005>
6037.75830078125

> <r_mmod_Bend_Energy-OPLS-2005>
1849.73425292969

> <r_mmod_Torsional_Energy-OPLS-2005>
530.820922851562

> <r_mmod_Improper_Torsional_Energy-OPLS-2005>
56.1220779418945

> <r_mmod_Van_der_Waal_Energy-OPLS-2005>
2171.70727539062

> <r_mmod_Electrostatic_Energy-OPLS-2005>
-330.142364501953

> <r_mmod_Solvation_Energy-OPLS-2005>
-335.65771484375

> <b_mmod_Minimization_Converged-OPLS-2005>
0

> <r_mmod_RMS_Derivative-OPLS-2005>
13.1729545593262

$$$$
78
                    3D
 Structure written by MMmdl.
150158  0  0  1  0            999 V2000
  -30.2960  -15.6067   20.3189 C   0  0  0  0  0  0
  -30.4335  -13.0540   19.5485 C   0  0  0  0  0  0
  -29.5572  -12.6533   18.3264 C   0  0  0  0  0  0
  -28.1277  -12.2981   18.7630 C   0  0  0  0  0  0
  -27.6002  -13.3024   19.8130 C   0  0  2  0  0  0
  -28.6147  -13.6185   20.9390 C   0  0  0  0  0  0
  -25.2339  -13.8276   20.5764 C   0  0  0  0  0  0
  -24.1719  -13.0433   20.9269 C   0  0  0  0  0  0
  -24.6411  -11.6947   20.8751 C   0  0  0  0  0  0
  -23.9089  -10.4307   21.0395 C   0  0  0  0  0  0
  -24.3631   -9.4216   21.9159 C   0  0  0  0  0  0
  -23.6307   -8.2255   22.0744 C   0  0  0  0  0  0
  -22.4285   -8.0291   21.3548 C   0  0  0  0  0  0
  -21.9920   -9.0257   20.4641 C   0  0  0  0  0  0
  -22.7259  -10.2129   20.3043 C   0  0  0  0  0  0
  -21.6858   -6.0735   22.5278 C   0  0  0  0  0  0
  -21.4008   -6.5637   23.8213 C   0  0  0  0  0  0
  -21.3661   -5.6786   24.9174 C   0  0  0  0  0  0
  -21.6049   -4.3052   24.7223 C   0  0  0  0  0  0
  -21.8820   -3.8138   23.4344 C   0  0  0  0  0  0
  -21.9184   -4.6957   22.3399 C   0  0  0  0  0  0
  -22.7735  -13.5175   21.1901 C   0  0  0  0  0  0
  -22.1668   -4.2140   21.0976 F   0  0  0  0  0  0
  -21.5615   -3.4529   25.7735 F   0  0  0  0  0  0
  -29.8017  -14.2303   20.2983 N   0  0  0  0  0  0
  -26.2783  -12.9593   20.3196 N   0  0  0  0  0  0
  -25.9355  -11.6672   20.5671 N   0  0  0  0  0  0
  -22.0385  -12.8180   22.0459 N   0  0  0  0  0  0
  -25.3947  -15.2022   20.4215 N   0  0  0  0  0  0
  -31.5229  -15.5795   20.1015 O   0  0  0  0  0  0
  -21.6654   -6.8890   21.4254 O   0  0  0  0  0  0
  -22.3425  -14.5467   20.6719 O   0  0  0  0  0  0
  -24.6831  -31.8021   23.1532 C   0  0  0  0  0  0
  -25.9432  -32.4467   23.8061 C   0  0  1  0  0  0
  -27.2272  -26.7211   20.1960 C   0  0  0  0  0  0
  -25.6031  -33.8288   24.1959 N   0  0  0  0  0  0
  -23.5071  -30.4054   21.5059 C   0  0  2  0  0  0
  -24.9619  -28.7510   20.1137 C   0  0  0  0  0  0
  -22.7768  -29.4327   22.4726 C   0  0  0  0  0  0
  -18.0343  -28.1437   22.8461 C   0  0  0  0  0  0
  -24.1480  -36.7132   23.2644 C   0  0  0  0  0  0
  -26.0868  -30.5424   21.4104 C   0  0  0  0  0  0
  -26.1526  -29.1085   20.7576 C   0  0  0  0  0  0
  -27.2690  -28.1199   20.7699 C   0  0  0  0  0  0
  -26.0040  -26.5718   19.4930 C   0  0  0  0  0  0
  -24.9264  -27.5078   19.4585 C   0  0  0  0  0  0
  -23.7574  -29.7061   20.1402 C   0  0  0  0  0  0
  -25.4128  -36.2891   24.0285 C   0  0  1  0  0  0
  -20.5976  -28.3782   23.1158 C   0  0  2  0  0  0
  -20.6799  -26.9440   22.5418 C   0  0  0  0  0  0
  -19.5784  -26.6388   21.5220 C   0  0  0  0  0  0
  -18.1964  -26.7969   22.1618 C   0  0  0  0  0  0
  -19.1609  -28.8931   23.2791 C   0  0  0  0  0  0
  -18.9515  -30.1524   23.8825 C   0  0  0  0  0  0
  -17.6492  -30.6607   24.0559 C   0  0  0  0  0  0
  -25.9123  -34.9290   23.4945 C   0  0  0  0  0  0
  -16.5390  -29.9084   23.6359 C   0  0  0  0  0  0
  -16.7326  -28.6522   23.0354 C   0  0  0  0  0  0
  -26.4629  -31.6481   25.0652 C   0  0  0  0  0  0
  -25.3727  -31.3822   26.1294 C   0  0  0  0  0  0
  -27.0505  -30.2801   24.6504 C   0  0  0  0  0  0
  -27.6105  -32.4316   25.7457 C   0  0  0  0  0  0
  -27.5555  -37.1723   24.8463 C   0  0  0  0  0  0
  -21.4418  -29.3019   22.3471 N   0  0  0  0  0  0
  -26.4244  -37.3659   23.9427 N   0  0  0  0  0  0
  -24.7820  -30.9490   22.0764 N   0  0  0  0  0  0
  -23.4228  -28.7933   23.3061 O   0  0  0  0  0  0
  -28.1776  -25.4986   20.2860 O   0  0  0  0  0  0
  -26.5737  -34.8879   22.4552 O   0  0  0  0  0  0
  -23.5864  -32.1083   23.6521 O   0  0  0  0  0  0
  -29.4556  -21.1978   19.3571 C   0  0  0  0  0  0
  -29.7884  -19.6958   19.4065 C   0  0  0  0  0  0
  -28.6227  -22.0808   20.2300 C   0  0  0  0  0  0
  -28.5196  -19.5226   21.2595 C   0  0  0  0  0  0
  -29.3516  -18.6445   20.3748 C   0  0  0  0  0  0
  -28.1965  -21.0261   21.1895 C   0  0  0  0  0  0
  -30.6459  -19.2048   18.2527 C   0  0  0  0  0  0
  -27.8715  -18.7856   22.4264 C   0  0  0  0  0  0
  -27.9149  -23.7978   19.9834 C   0  0  0  0  0  0
  -29.4737  -16.9202   20.4495 N   0  0  0  0  0  0
  -27.0988  -21.6335   22.3840 Cl  0  0  0  0  0  0
  -31.4306  -13.3117   19.1889 H   0  0  0  0  0  0
  -30.5853  -12.2018   20.2118 H   0  0  0  0  0  0
  -30.0099  -11.8200   17.7870 H   0  0  0  0  0  0
  -29.5204  -13.4888   17.6269 H   0  0  0  0  0  0
  -28.1513  -11.2978   19.1991 H   0  0  0  0  0  0
  -27.4605  -12.2453   17.9018 H   0  0  0  0  0  0
  -27.4698  -14.2289   19.2503 H   0  0  0  0  0  0
  -28.8626  -12.7324   21.5243 H   0  0  0  0  0  0
  -28.1831  -14.3349   21.6395 H   0  0  0  0  0  0
  -25.2777   -9.5687   22.4729 H   0  0  0  0  0  0
  -24.0009   -7.4644   22.7467 H   0  0  0  0  0  0
  -21.0837   -8.8782   19.8956 H   0  0  0  0  0  0
  -22.3718  -10.9658   19.6145 H   0  0  0  0  0  0
  -21.2030   -7.6151   23.9717 H   0  0  0  0  0  0
  -21.1473   -6.0516   25.9077 H   0  0  0  0  0  0
  -22.0599   -2.7598   23.2836 H   0  0  0  0  0  0
  -22.4013  -11.9866   22.4893 H   0  0  0  0  0  0
  -21.0979  -13.1177   22.2611 H   0  0  0  0  0  0
  -24.6153  -15.8440   20.5253 H   0  0  0  0  0  0
  -26.2254  -15.6444   20.0528 H   0  0  0  0  0  0
  -26.7500  -32.4955   23.0772 H   0  0  0  0  0  0
  -25.0161  -33.9305   25.0099 H   0  0  0  0  0  0
  -22.8320  -31.2429   21.3199 H   0  0  0  0  0  0
  -23.3767  -35.9430   23.3270 H   0  0  0  0  0  0
  -24.3576  -36.8822   22.2068 H   0  0  0  0  0  0
  -23.7211  -37.6297   23.6728 H   0  0  0  0  0  0
  -26.2822  -31.2693   20.6212 H   0  0  0  0  0  0
  -26.9430  -30.6126   22.0697 H   0  0  0  0  0  0
  -28.1624  -28.3969   21.3114 H   0  0  0  0  0  0
  -25.8366  -25.6292   18.9917 H   0  0  0  0  0  0
  -24.0271  -27.2268   18.9271 H   0  0  0  0  0  0
  -23.9313  -30.4677   19.3789 H   0  0  0  0  0  0
  -22.8622  -29.1719   19.8163 H   0  0  0  0  0  0
  -25.1342  -36.1649   25.0769 H   0  0  0  0  0  0
  -21.0057  -28.3398   24.1290 H   0  0  0  0  0  0
  -20.5650  -26.2400   23.3677 H   0  0  0  0  0  0
  -21.6664  -26.7377   22.1248 H   0  0  0  0  0  0
  -19.6926  -25.6286   21.1283 H   0  0  0  0  0  0
  -19.6731  -27.3183   20.6737 H   0  0  0  0  0  0
  -17.4238  -26.6733   21.4015 H   0  0  0  0  0  0
  -18.0329  -26.0134   22.9027 H   0  0  0  0  0  0
  -19.7982  -30.7374   24.2140 H   0  0  0  0  0  0
  -17.5045  -31.6271   24.5193 H   0  0  0  0  0  0
  -15.5383  -30.2962   23.7736 H   0  0  0  0  0  0
  -15.8734  -28.0841   22.7070 H   0  0  0  0  0  0
  -24.5940  -30.7110   25.7671 H   0  0  0  0  0  0
  -24.8877  -32.3035   26.4511 H   0  0  0  0  0  0
  -25.7944  -30.9181   27.0211 H   0  0  0  0  0  0
  -26.3191  -29.6465   24.1453 H   0  0  0  0  0  0
  -27.3900  -29.7201   25.5235 H   0  0  0  0  0  0
  -27.9223  -30.3926   24.0045 H   0  0  0  0  0  0
  -27.2676  -33.3709   26.1813 H   0  0  0  0  0  0
  -28.4026  -32.6703   25.0346 H   0  0  0  0  0  0
  -28.0622  -31.8555   26.5540 H   0  0  0  0  0  0
  -28.2545  -38.0041   24.7521 H   0  0  0  0  0  0
  -28.1070  -36.2574   24.6260 H   0  0  0  0  0  0
  -27.2298  -37.1352   25.8870 H   0  0  0  0  0  0
  -20.9706  -29.8668   21.6547 H   0  0  0  0  0  0
  -26.0071  -38.2702   24.1463 H   0  0  0  0  0  0
  -29.8585  -21.7109   18.4933 H   0  0  0  0  0  0
  -31.5689  -19.7808   18.1769 H   0  0  0  0  0  0
  -30.1113  -19.3061   17.3063 H   0  0  0  0  0  0
  -30.9233  -18.1572   18.3677 H   0  0  0  0  0  0
  -28.2428  -17.7700   22.5484 H   0  0  0  0  0  0
  -26.7896  -18.7314   22.2971 H   0  0  0  0  0  0
  -28.0784  -19.2988   23.3657 H   0  0  0  0  0  0
  -26.9061  -23.6722   20.3752 H   0  0  0  0  0  0
  -27.7601  -23.8014   18.9032 H   0  0  0  0  0  0
  -28.5745  -16.5768   20.7509 H   0  0  0  0  0  0
  1 25  1  0  0  0
  1 30  2  0  0  0
  1 80  1  0  0  0
  2  3  1  0  0  0
  2 25  1  0  0  0
  2 82  1  0  0  0
  2 83  1  0  0  0
  3  4  1  0  0  0
  3 84  1  0  0  0
  3 85  1  0  0  0
  4  5  1  0  0  0
  4 86  1  0  0  0
  4 87  1  0  0  0
  5  6  1  0  0  0
  5 26  1  0  0  0
  5 88  1  0  0  0
  6 25  1  0  0  0
  6 89  1  0  0  0
  6 90  1  0  0  0
  7  8  2  0  0  0
  7 26  1  0  0  0
  7 29  1  0  0  0
  8  9  1  0  0  0
  8 22  1  0  0  0
  9 10  1  0  0  0
  9 27  2  0  0  0
 10 11  2  0  0  0
 10 15  1  0  0  0
 11 12  1  0  0  0
 11 91  1  0  0  0
 12 13  2  0  0  0
 12 92  1  0  0  0
 13 14  1  0  0  0
 13 31  1  0  0  0
 14 15  2  0  0  0
 14 93  1  0  0  0
 15 94  1  0  0  0
 16 17  2  0  0  0
 16 21  1  0  0  0
 16 31  1  0  0  0
 17 18  1  0  0  0
 17 95  1  0  0  0
 18 19  2  0  0  0
 18 96  1  0  0  0
 19 20  1  0  0  0
 19 24  1  0  0  0
 20 21  2  0  0  0
 20 97  1  0  0  0
 21 23  1  0  0  0
 22 28  1  0  0  0
 22 32  2  0  0  0
 26 27  1  0  0  0
 28 98  1  0  0  0
 28 99  1  0  0  0
 29100  1  0  0  0
 29101  1  0  0  0
 33 34  1  0  0  0
 33 66  1  0  0  0
 33 70  2  0  0  0
 34 36  1  0  0  0
 34 59  1  0  0  0
 34102  1  0  0  0
 35 44  2  0  0  0
 35 45  1  0  0  0
 35 68  1  0  0  0
 36 56  1  0  0  0
 36103  1  0  0  0
 37 39  1  0  0  0
 37 47  1  0  0  0
 37 66  1  0  0  0
 37104  1  0  0  0
 38 43  2  0  0  0
 38 46  1  0  0  0
 38 47  1  0  0  0
 39 64  1  0  0  0
 39 67  2  0  0  0
 40 52  1  0  0  0
 40 53  2  0  0  0
 40 58  1  0  0  0
 41105  1  0  0  0
 41106  1  0  0  0
 41107  1  0  0  0
 41 48  1  0  0  0
 42 43  1  0  0  0
 42 66  1  0  0  0
 42108  1  0  0  0
 42109  1  0  0  0
 43 44  1  0  0  0
 44110  1  0  0  0
 45 46  2  0  0  0
 45111  1  0  0  0
 46112  1  0  0  0
 47113  1  0  0  0
 47114  1  0  0  0
 48 56  1  0  0  0
 48 65  1  0  0  0
 48115  1  0  0  0
 49 50  1  0  0  0
 49 53  1  0  0  0
 49 64  1  0  0  0
 49116  1  0  0  0
 50 51  1  0  0  0
 50117  1  0  0  0
 50118  1  0  0  0
 51 52  1  0  0  0
 51119  1  0  0  0
 51120  1  0  0  0
 52121  1  0  0  0
 52122  1  0  0  0
 53 54  1  0  0  0
 54 55  2  0  0  0
 54123  1  0  0  0
 55 57  1  0  0  0
 55124  1  0  0  0
 56 69  2  0  0  0
 57 58  2  0  0  0
 57125  1  0  0  0
 58126  1  0  0  0
 59 60  1  0  0  0
 59 61  1  0  0  0
 59 62  1  0  0  0
 60127  1  0  0  0
 60128  1  0  0  0
 60129  1  0  0  0
 61130  1  0  0  0
 61131  1  0  0  0
 61132  1  0  0  0
 62133  1  0  0  0
 62134  1  0  0  0
 62135  1  0  0  0
 63 65  1  0  0  0
 63136  1  0  0  0
 63137  1  0  0  0
 63138  1  0  0  0
 64139  1  0  0  0
 65140  1  0  0  0
 68 79  1  0  0  0
 71 72  2  0  0  0
 71 73  1  0  0  0
 71141  1  0  0  0
 72 75  1  0  0  0
 72 77  1  0  0  0
 73 76  2  0  0  0
 73 79  1  0  0  0
 74 75  2  0  0  0
 74 76  1  0  0  0
 74 78  1  0  0  0
 75 80  1  0  0  0
 76 81  1  0  0  0
 77142  1  0  0  0
 77143  1  0  0  0
 77144  1  0  0  0
 78145  1  0  0  0
 78146  1  0  0  0
 78147  1  0  0  0
 79148  1  0  0  0
 79149  1  0  0  0
 80150  1  0  0  0
M  ISO  4   1 100  68 101  79 101  80 100
M  END
> <chiral flag>
0

> <version>
0

> <s_m_source_file>
/data/baiqing/PycharmProjects/Reinvent-master-3.2/result/LINK_invent/BTK/process_docking_weight1_custom_sum_contain_oxygen_bond_distance_aromatic_linkinvent_7_9_3/rearranged_h_0019.sdf

> <i_m_source_file_index>
79

> <r_mmod_Potential_Energy-OPLS-2005>
2254.947265625

> <r_mmod_Stretch_Energy-OPLS-2005>
929.951477050781

> <r_mmod_Bend_Energy-OPLS-2005>
655.883422851562

> <r_mmod_Torsional_Energy-OPLS-2005>
242.382766723633

> <r_mmod_Improper_Torsional_Energy-OPLS-2005>
7.99102592468262

> <r_mmod_Van_der_Waal_Energy-OPLS-2005>
132.885360717773

> <r_mmod_Electrostatic_Energy-OPLS-2005>
-369.899749755859

> <r_mmod_Solvation_Energy-OPLS-2005>
-210.711547851562

> <b_mmod_Minimization_Converged-OPLS-2005>
0

> <r_mmod_RMS_Derivative-OPLS-2005>
2.95511555671692

$$$$
79
                    3D
 Structure written by MMmdl.
174182  0  0  1  0            999 V2000
  -30.5962  -14.8877   20.2766 C   0  0  0  0  0  0
  -30.4300  -12.5179   19.4459 C   0  0  0  0  0  0
  -29.4743  -12.3428   18.2369 C   0  0  0  0  0  0
  -28.0091  -12.2516   18.6875 C   0  0  0  0  0  0
  -27.6244  -13.2309   19.8299 C   0  0  2  0  0  0
  -28.6958  -13.3000   20.9351 C   0  0  0  0  0  0
  -25.2476  -13.8242   20.5786 C   0  0  0  0  0  0
  -24.1766  -13.0465   20.9290 C   0  0  0  0  0  0
  -24.6389  -11.6958   20.8899 C   0  0  0  0  0  0
  -23.9092  -10.4311   21.0499 C   0  0  0  0  0  0
  -24.3651   -9.4197   21.9244 C   0  0  0  0  0  0
  -23.6328   -8.2221   22.0780 C   0  0  0  0  0  0
  -22.4305   -8.0288   21.3557 C   0  0  0  0  0  0
  -21.9947   -9.0269   20.4657 C   0  0  0  0  0  0
  -22.7285  -10.2157   20.3109 C   0  0  0  0  0  0
  -21.6852   -6.0763   22.5290 C   0  0  0  0  0  0
  -21.4013   -6.5663   23.8224 C   0  0  0  0  0  0
  -21.3658   -5.6814   24.9185 C   0  0  0  0  0  0
  -21.6051   -4.3074   24.7228 C   0  0  0  0  0  0
  -21.8821   -3.8169   23.4346 C   0  0  0  0  0  0
  -21.9182   -4.6990   22.3407 C   0  0  0  0  0  0
  -22.7780  -13.5231   21.1911 C   0  0  0  0  0  0
  -22.1638   -4.2182   21.0980 F   0  0  0  0  0  0
  -21.5632   -3.4550   25.7734 F   0  0  0  0  0  0
  -29.9510  -13.6584   20.2632 N   0  0  0  0  0  0
  -26.2901  -12.9437   20.3438 N   0  0  0  0  0  0
  -25.9318  -11.6591   20.5985 N   0  0  0  0  0  0
  -22.0427  -12.8187   22.0471 N   0  0  0  0  0  0
  -25.4196  -15.1949   20.4138 N   0  0  0  0  0  0
  -31.8284  -14.8769   20.3366 O   0  0  0  0  0  0
  -21.6638   -6.8906   21.4257 O   0  0  0  0  0  0
  -22.3435  -14.5514   20.6761 O   0  0  0  0  0  0
  -24.6382  -31.8527   23.1948 C   0  0  0  0  0  0
  -25.9179  -32.4743   23.8324 C   0  0  1  0  0  0
  -27.2147  -27.2027   20.1311 C   0  0  0  0  0  0
  -25.5939  -33.8539   24.2252 N   0  0  0  0  0  0
  -23.4372  -30.4781   21.5411 C   0  0  2  0  0  0
  -24.8829  -28.9200   20.1110 C   0  0  0  0  0  0
  -22.7519  -29.4608   22.4875 C   0  0  0  0  0  0
  -18.0303  -28.1400   22.8511 C   0  0  0  0  0  0
  -24.1472  -36.7278   23.2638 C   0  0  0  0  0  0
  -25.9907  -30.7483   21.3824 C   0  0  0  0  0  0
  -26.0617  -29.3684   20.7203 C   0  0  0  0  0  0
  -27.2301  -28.5252   20.7170 C   0  0  0  0  0  0
  -26.0081  -26.8470   19.4828 C   0  0  0  0  0  0
  -24.8652  -27.6687   19.4796 C   0  0  0  0  0  0
  -23.6579  -29.8158   20.1591 C   0  0  0  0  0  0
  -25.4086  -36.3054   24.0333 C   0  0  1  0  0  0
  -20.5903  -28.3740   23.1234 C   0  0  2  0  0  0
  -20.6776  -26.9440   22.5403 C   0  0  0  0  0  0
  -19.5744  -26.6387   21.5221 C   0  0  0  0  0  0
  -18.1926  -26.7948   22.1631 C   0  0  0  0  0  0
  -19.1554  -28.8885   23.2877 C   0  0  0  0  0  0
  -18.9469  -30.1488   23.8904 C   0  0  0  0  0  0
  -17.6457  -30.6601   24.0575 C   0  0  0  0  0  0
  -25.9035  -34.9427   23.5081 C   0  0  0  0  0  0
  -16.5351  -29.9105   23.6340 C   0  0  0  0  0  0
  -16.7283  -28.6514   23.0384 C   0  0  0  0  0  0
  -26.4514  -31.6593   25.0744 C   0  0  0  0  0  0
  -25.3722  -31.3771   26.1466 C   0  0  0  0  0  0
  -27.0390  -30.3000   24.6267 C   0  0  0  0  0  0
  -27.6038  -32.4382   25.7537 C   0  0  0  0  0  0
  -27.5573  -37.1767   24.8442 C   0  0  0  0  0  0
  -21.4210  -29.3093   22.3625 N   0  0  0  0  0  0
  -26.4247  -37.3778   23.9442 N   0  0  0  0  0  0
  -24.7085  -31.0447   22.0947 N   0  0  0  0  0  0
  -23.4183  -28.8135   23.2986 O   0  0  0  0  0  0
  -28.2781  -26.2436   20.1838 O   0  0  0  0  0  0
  -26.5611  -34.8914   22.4655 O   0  0  0  0  0  0
  -23.5519  -32.1388   23.7201 O   0  0  0  0  0  0
  -28.2927  -18.0707   19.5914 C   0  0  0  0  0  0
  -28.2224  -19.6267   19.2942 C   0  0  0  0  0  0
  -30.0862  -20.0125   20.8408 C   0  0  0  0  0  0
  -29.7415  -17.5233   19.8402 C   0  0  1  0  0  0
  -30.2541  -18.3951   21.0709 C   0  0  0  0  0  0
  -29.5386  -17.9625   22.3717 C   0  0  0  0  0  0
  -31.7557  -18.1280   21.2712 C   0  0  0  0  0  0
  -28.9648  -15.8903   17.2076 C   0  0  0  0  0  0
  -31.4308  -16.5412   17.4551 C   0  0  0  0  0  0
  -27.4406  -21.9953   21.9192 C   0  0  0  0  0  0
  -28.8899  -23.4080   20.3083 C   0  0  0  0  0  0
  -27.9364  -24.7521   20.0832 C   0  0  0  0  0  0
  -30.2272  -15.7950   18.0865 C   0  0  0  0  0  0
  -28.1399  -21.9514   20.5476 C   0  0  1  0  0  0
  -29.9877  -15.9714   19.5747 N   0  0  0  0  0  0
  -28.7155  -20.4870   20.4198 N   0  3  1  0  0  0
  -31.4502  -12.6744   19.0886 H   0  0  0  0  0  0
  -30.4542  -11.6094   20.0488 H   0  0  0  0  0  0
  -29.7342  -11.4270   17.7039 H   0  0  0  0  0  0
  -29.5605  -13.1169   17.4837 H   0  0  0  0  0  0
  -27.8685  -11.2272   19.0322 H   0  0  0  0  0  0
  -27.3396  -12.3786   17.8356 H   0  0  0  0  0  0
  -27.5683  -14.2216   19.3867 H   0  0  0  0  0  0
  -28.7828  -12.3543   21.4702 H   0  0  0  0  0  0
  -28.4330  -14.0574   21.6761 H   0  0  0  0  0  0
  -25.2803   -9.5642   22.4820 H   0  0  0  0  0  0
  -24.0038   -7.4594   22.7488 H   0  0  0  0  0  0
  -21.0882   -8.8827   19.8931 H   0  0  0  0  0  0
  -22.3790  -10.9728   19.6221 H   0  0  0  0  0  0
  -21.2013   -7.6169   23.9731 H   0  0  0  0  0  0
  -21.1470   -6.0548   25.9093 H   0  0  0  0  0  0
  -22.0601   -2.7634   23.2843 H   0  0  0  0  0  0
  -22.4049  -11.9841   22.4822 H   0  0  0  0  0  0
  -21.1051  -13.1204   22.2717 H   0  0  0  0  0  0
  -24.6624  -15.8617   20.5204 H   0  0  0  0  0  0
  -26.2848  -15.6244   20.1156 H   0  0  0  0  0  0
  -26.7245  -32.5375   23.1063 H   0  0  0  0  0  0
  -25.0104  -33.9679   25.0408 H   0  0  0  0  0  0
  -22.7378  -31.3037   21.3918 H   0  0  0  0  0  0
  -23.3762  -35.9577   23.3206 H   0  0  0  0  0  0
  -24.3579  -36.9016   22.2073 H   0  0  0  0  0  0
  -23.7178  -37.6416   23.6748 H   0  0  0  0  0  0
  -26.1269  -31.5019   20.6077 H   0  0  0  0  0  0
  -26.8694  -30.8027   22.0140 H   0  0  0  0  0  0
  -28.1300  -28.8631   21.2142 H   0  0  0  0  0  0
  -25.9005  -25.8990   18.9825 H   0  0  0  0  0  0
  -23.9627  -27.3205   18.9957 H   0  0  0  0  0  0
  -23.7858  -30.5976   19.4103 H   0  0  0  0  0  0
  -22.7730  -29.2583   19.8510 H   0  0  0  0  0  0
  -25.1242  -36.1886   25.0824 H   0  0  0  0  0  0
  -21.0024  -28.3357   24.1340 H   0  0  0  0  0  0
  -20.5677  -26.2362   23.3635 H   0  0  0  0  0  0
  -21.6639  -26.7439   22.1196 H   0  0  0  0  0  0
  -19.6884  -25.6287   21.1283 H   0  0  0  0  0  0
  -19.6667  -27.3182   20.6737 H   0  0  0  0  0  0
  -17.4187  -26.6747   21.4038 H   0  0  0  0  0  0
  -18.0286  -26.0083   22.9009 H   0  0  0  0  0  0
  -19.7929  -30.7326   24.2273 H   0  0  0  0  0  0
  -17.5000  -31.6281   24.5177 H   0  0  0  0  0  0
  -15.5353  -30.3009   23.7650 H   0  0  0  0  0  0
  -15.8684  -28.0830   22.7109 H   0  0  0  0  0  0
  -24.5906  -30.7092   25.7836 H   0  0  0  0  0  0
  -24.8887  -32.2947   26.4821 H   0  0  0  0  0  0
  -25.8030  -30.9032   27.0296 H   0  0  0  0  0  0
  -26.3010  -29.6725   24.1248 H   0  0  0  0  0  0
  -27.4012  -29.7280   25.4818 H   0  0  0  0  0  0
  -27.8909  -30.4248   23.9579 H   0  0  0  0  0  0
  -27.2601  -33.3715   26.2014 H   0  0  0  0  0  0
  -28.3903  -32.6904   25.0417 H   0  0  0  0  0  0
  -28.0640  -31.8578   26.5541 H   0  0  0  0  0  0
  -28.2493  -38.0159   24.7610 H   0  0  0  0  0  0
  -28.1179  -36.2688   24.6112 H   0  0  0  0  0  0
  -27.2328  -37.1234   25.8855 H   0  0  0  0  0  0
  -20.9379  -29.8868   21.6883 H   0  0  0  0  0  0
  -26.0111  -38.2827   24.1552 H   0  0  0  0  0  0
  -27.8200  -17.5680   18.7568 H   0  0  0  0  0  0
  -27.6375  -17.8161   20.4223 H   0  0  0  0  0  0
  -27.1872  -19.8799   19.0698 H   0  0  0  0  0  0
  -28.7957  -19.8555   18.3957 H   0  0  0  0  0  0
  -30.7897  -20.3424   20.0733 H   0  0  0  0  0  0
  -30.3696  -20.5530   21.7437 H   0  0  0  0  0  0
  -30.2964  -18.0130   19.0531 H   0  0  0  0  0  0
  -28.4823  -18.2316   22.3893 H   0  0  0  0  0  0
  -29.9834  -18.4247   23.2538 H   0  0  0  0  0  0
  -29.5973  -16.8812   22.5061 H   0  0  0  0  0  0
  -32.3113  -18.2656   20.3434 H   0  0  0  0  0  0
  -31.9438  -17.1168   21.6292 H   0  0  0  0  0  0
  -32.1820  -18.8077   22.0108 H   0  0  0  0  0  0
  -29.1237  -15.3923   16.2502 H   0  0  0  0  0  0
  -28.7070  -16.9201   16.9633 H   0  0  0  0  0  0
  -28.0991  -15.4196   17.6671 H   0  0  0  0  0  0
  -31.6430  -16.1250   16.4671 H   0  0  0  0  0  0
  -32.3361  -16.4188   18.0501 H   0  0  0  0  0  0
  -31.2637  -17.6039   17.2849 H   0  0  0  0  0  0
  -26.8520  -22.9012   22.0587 H   0  0  0  0  0  0
  -28.1674  -21.9550   22.7321 H   0  0  0  0  0  0
  -26.7516  -21.1585   22.0441 H   0  0  0  0  0  0
  -29.5429  -23.5890   21.1627 H   0  0  0  0  0  0
  -29.5588  -23.3266   19.4504 H   0  0  0  0  0  0
  -27.0798  -24.6314   20.7430 H   0  0  0  0  0  0
  -27.5416  -24.6046   19.0774 H   0  0  0  0  0  0
  -30.5808  -14.7865   17.9152 H   0  0  0  0  0  0
  -27.3367  -21.9709   19.8110 H   0  0  0  0  0  0
  -28.1733  -20.0878   21.1692 H   0  0  0  0  0  0
  1 25  1  0  0  0
  1 30  2  0  0  0
  1 85  1  0  0  0
  2  3  1  0  0  0
  2 25  1  0  0  0
  2 87  1  0  0  0
  2 88  1  0  0  0
  3  4  1  0  0  0
  3 89  1  0  0  0
  3 90  1  0  0  0
  4  5  1  0  0  0
  4 91  1  0  0  0
  4 92  1  0  0  0
  5  6  1  0  0  0
  5 26  1  0  0  0
  5 93  1  0  0  0
  6 25  1  0  0  0
  6 94  1  0  0  0
  6 95  1  0  0  0
  7  8  2  0  0  0
  7 26  1  0  0  0
  7 29  1  0  0  0
  8  9  1  0  0  0
  8 22  1  0  0  0
  9 10  1  0  0  0
  9 27  2  0  0  0
 10 11  2  0  0  0
 10 15  1  0  0  0
 11 12  1  0  0  0
 11 96  1  0  0  0
 12 13  2  0  0  0
 12 97  1  0  0  0
 13 14  1  0  0  0
 13 31  1  0  0  0
 14 15  2  0  0  0
 14 98  1  0  0  0
 15 99  1  0  0  0
 16 17  2  0  0  0
 16 21  1  0  0  0
 16 31  1  0  0  0
 17 18  1  0  0  0
 17100  1  0  0  0
 18 19  2  0  0  0
 18101  1  0  0  0
 19 20  1  0  0  0
 19 24  1  0  0  0
 20 21  2  0  0  0
 20102  1  0  0  0
 21 23  1  0  0  0
 22 28  1  0  0  0
 22 32  2  0  0  0
 26 27  1  0  0  0
 28103  1  0  0  0
 28104  1  0  0  0
 29105  1  0  0  0
 29106  1  0  0  0
 33 34  1  0  0  0
 33 66  1  0  0  0
 33 70  2  0  0  0
 34 36  1  0  0  0
 34 59  1  0  0  0
 34107  1  0  0  0
 35 44  2  0  0  0
 35 45  1  0  0  0
 35 68  1  0  0  0
 36 56  1  0  0  0
 36108  1  0  0  0
 37 39  1  0  0  0
 37 47  1  0  0  0
 37 66  1  0  0  0
 37109  1  0  0  0
 38 43  2  0  0  0
 38 46  1  0  0  0
 38 47  1  0  0  0
 39 64  1  0  0  0
 39 67  2  0  0  0
 40 52  1  0  0  0
 40 53  2  0  0  0
 40 58  1  0  0  0
 41110  1  0  0  0
 41111  1  0  0  0
 41112  1  0  0  0
 41 48  1  0  0  0
 42 43  1  0  0  0
 42 66  1  0  0  0
 42113  1  0  0  0
 42114  1  0  0  0
 43 44  1  0  0  0
 44115  1  0  0  0
 45 46  2  0  0  0
 45116  1  0  0  0
 46117  1  0  0  0
 47118  1  0  0  0
 47119  1  0  0  0
 48 56  1  0  0  0
 48 65  1  0  0  0
 48120  1  0  0  0
 49 50  1  0  0  0
 49 53  1  0  0  0
 49 64  1  0  0  0
 49121  1  0  0  0
 50 51  1  0  0  0
 50122  1  0  0  0
 50123  1  0  0  0
 51 52  1  0  0  0
 51124  1  0  0  0
 51125  1  0  0  0
 52126  1  0  0  0
 52127  1  0  0  0
 53 54  1  0  0  0
 54 55  2  0  0  0
 54128  1  0  0  0
 55 57  1  0  0  0
 55129  1  0  0  0
 56 69  2  0  0  0
 57 58  2  0  0  0
 57130  1  0  0  0
 58131  1  0  0  0
 59 60  1  0  0  0
 59 61  1  0  0  0
 59 62  1  0  0  0
 60132  1  0  0  0
 60133  1  0  0  0
 60134  1  0  0  0
 61135  1  0  0  0
 61136  1  0  0  0
 61137  1  0  0  0
 62138  1  0  0  0
 62139  1  0  0  0
 62140  1  0  0  0
 63 65  1  0  0  0
 63141  1  0  0  0
 63142  1  0  0  0
 63143  1  0  0  0
 64144  1  0  0  0
 65145  1  0  0  0
 68 82  1  0  0  0
 71 72  1  0  0  0
 71 74  1  0  0  0
 71146  1  0  0  0
 71147  1  0  0  0
 72148  1  0  0  0
 72149  1  0  0  0
 72 86  1  0  0  0
 73 75  1  0  0  0
 73 86  1  0  0  0
 73150  1  0  0  0
 73151  1  0  0  0
 74 75  1  0  0  0
 74 85  1  0  0  0
 74152  1  0  0  0
 75 76  1  0  0  0
 75 77  1  0  0  0
 76153  1  0  0  0
 76154  1  0  0  0
 76155  1  0  0  0
 77156  1  0  0  0
 77157  1  0  0  0
 77158  1  0  0  0
 78159  1  0  0  0
 78160  1  0  0  0
 78161  1  0  0  0
 78 83  1  0  0  0
 79 83  1  0  0  0
 79162  1  0  0  0
 79163  1  0  0  0
 79164  1  0  0  0
 80165  1  0  0  0
 80166  1  0  0  0
 80167  1  0  0  0
 80 84  1  0  0  0
 81 82  1  0  0  0
 81 84  1  0  0  0
 81168  1  0  0  0
 81169  1  0  0  0
 82170  1  0  0  0
 82171  1  0  0  0
 83 85  1  0  0  0
 83172  1  0  0  0
 84 86  1  0  0  0
 84173  1  0  0  0
 86174  1  0  0  0
M  CHG  1  86   1
M  ISO  4   1 100  68 101  82 101  85 100
M  END
> <chiral flag>
0

> <version>
0

> <s_m_source_file>
/data/baiqing/PycharmProjects/Reinvent-master-3.2/result/LINK_invent/BTK/process_docking_weight1_custom_sum_contain_oxygen_bond_distance_aromatic_linkinvent_7_9_3/rearranged_h_0019.sdf

> <i_m_source_file_index>
80

> <r_mmod_Potential_Energy-OPLS-2005>
751.829833984375

> <r_mmod_Stretch_Energy-OPLS-2005>
212.792343139648

> <r_mmod_Bend_Energy-OPLS-2005>
342.393310546875

> <r_mmod_Torsional_Energy-OPLS-2005>
412.641784667969

> <r_mmod_Improper_Torsional_Energy-OPLS-2005>
27.7558174133301

> <r_mmod_Van_der_Waal_Energy-OPLS-2005>
137.652359008789

> <r_mmod_Electrostatic_Energy-OPLS-2005>
-134.560211181641

> <r_mmod_Solvation_Energy-OPLS-2005>
-416.469207763672

> <b_mmod_Minimization_Converged-OPLS-2005>
0

> <r_mmod_RMS_Derivative-OPLS-2005>
4.05928945541382

$$$$
80
                    3D
 Structure written by MMmdl.
156164  0  0  1  0            999 V2000
  -30.2958  -15.6029   20.3284 C   0  0  0  0  0  0
  -30.4274  -13.0502   19.5489 C   0  0  0  0  0  0
  -29.5514  -12.6589   18.3245 C   0  0  0  0  0  0
  -28.1211  -12.3068   18.7602 C   0  0  0  0  0  0
  -27.5975  -13.3065   19.8163 C   0  0  2  0  0  0
  -28.6139  -13.6148   20.9407 C   0  0  0  0  0  0
  -25.2323  -13.8287   20.5787 C   0  0  0  0  0  0
  -24.1710  -13.0433   20.9290 C   0  0  0  0  0  0
  -24.6414  -11.6944   20.8772 C   0  0  0  0  0  0
  -23.9121  -10.4291   21.0405 C   0  0  0  0  0  0
  -24.3654   -9.4203   21.9187 C   0  0  0  0  0  0
  -23.6317   -8.2243   22.0757 C   0  0  0  0  0  0
  -22.4298   -8.0287   21.3547 C   0  0  0  0  0  0
  -21.9951   -9.0258   20.4641 C   0  0  0  0  0  0
  -22.7292  -10.2133   20.3049 C   0  0  0  0  0  0
  -21.6857   -6.0744   22.5282 C   0  0  0  0  0  0
  -21.4017   -6.5643   23.8216 C   0  0  0  0  0  0
  -21.3663   -5.6796   24.9176 C   0  0  0  0  0  0
  -21.6051   -4.3059   24.7225 C   0  0  0  0  0  0
  -21.8819   -3.8148   23.4345 C   0  0  0  0  0  0
  -21.9194   -4.6972   22.3404 C   0  0  0  0  0  0
  -22.7721  -13.5165   21.1923 C   0  0  0  0  0  0
  -22.1659   -4.2160   21.0981 F   0  0  0  0  0  0
  -21.5630   -3.4537   25.7731 F   0  0  0  0  0  0
  -29.7991  -14.2282   20.2984 N   0  0  0  0  0  0
  -26.2766  -12.9611   20.3224 N   0  0  0  0  0  0
  -25.9358  -11.6682   20.5703 N   0  0  0  0  0  0
  -22.0381  -12.8134   22.0468 N   0  0  0  0  0  0
  -25.3918  -15.2030   20.4208 N   0  0  0  0  0  0
  -31.5256  -15.5740   20.1259 O   0  0  0  0  0  0
  -21.6649   -6.8893   21.4248 O   0  0  0  0  0  0
  -22.3394  -14.5461   20.6764 O   0  0  0  0  0  0
  -24.6833  -31.8008   23.1535 C   0  0  0  0  0  0
  -25.9420  -32.4481   23.8070 C   0  0  1  0  0  0
  -27.2265  -26.7129   20.2138 C   0  0  0  0  0  0
  -25.6000  -33.8301   24.1958 N   0  0  0  0  0  0
  -23.5096  -30.4035   21.5063 C   0  0  2  0  0  0
  -24.9681  -28.7479   20.1182 C   0  0  0  0  0  0
  -22.7766  -29.4317   22.4711 C   0  0  0  0  0  0
  -18.0333  -28.1425   22.8464 C   0  0  0  0  0  0
  -24.1474  -36.7143   23.2656 C   0  0  0  0  0  0
  -26.0893  -30.5383   21.4163 C   0  0  0  0  0  0
  -26.1563  -29.1034   20.7672 C   0  0  0  0  0  0
  -27.2717  -28.1136   20.7832 C   0  0  0  0  0  0
  -26.0062  -26.5663   19.5064 C   0  0  0  0  0  0
  -24.9316  -27.5048   19.4645 C   0  0  0  0  0  0
  -23.7642  -29.7023   20.1409 C   0  0  0  0  0  0
  -25.4129  -36.2894   24.0283 C   0  0  1  0  0  0
  -20.5972  -28.3782   23.1144 C   0  0  2  0  0  0
  -20.6798  -26.9443   22.5404 C   0  0  0  0  0  0
  -19.5776  -26.6375   21.5214 C   0  0  0  0  0  0
  -18.1952  -26.7961   22.1608 C   0  0  0  0  0  0
  -19.1602  -28.8929   23.2782 C   0  0  0  0  0  0
  -18.9509  -30.1514   23.8825 C   0  0  0  0  0  0
  -17.6504  -30.6616   24.0552 C   0  0  0  0  0  0
  -25.9117  -34.9291   23.4952 C   0  0  0  0  0  0
  -16.5391  -29.9099   23.6362 C   0  0  0  0  0  0
  -16.7317  -28.6519   23.0381 C   0  0  0  0  0  0
  -26.4594  -31.6526   25.0696 C   0  0  0  0  0  0
  -25.3649  -31.3828   26.1300 C   0  0  0  0  0  0
  -27.0549  -30.2882   24.6589 C   0  0  0  0  0  0
  -27.6033  -32.4393   25.7524 C   0  0  0  0  0  0
  -27.5549  -37.1719   24.8466 C   0  0  0  0  0  0
  -21.4413  -29.3033   22.3467 N   0  0  0  0  0  0
  -26.4246  -37.3669   23.9429 N   0  0  0  0  0  0
  -24.7838  -30.9462   22.0784 N   0  0  0  0  0  0
  -23.4212  -28.7908   23.3049 O   0  0  0  0  0  0
  -28.1789  -25.4890   20.2912 O   0  0  0  0  0  0
  -26.5747  -34.8867   22.4562 O   0  0  0  0  0  0
  -23.5854  -32.1070   23.6497 O   0  0  0  0  0  0
  -28.6256  -21.0988   21.3969 C   0  0  0  0  0  0
  -29.0721  -21.1204   19.1880 C   0  0  0  0  0  0
  -28.6284  -22.0658   20.2608 C   0  0  0  0  0  0
  -28.9485  -19.5907   21.4427 C   0  0  0  0  0  0
  -29.3963  -19.6091   19.2331 C   0  0  0  0  0  0
  -29.3826  -18.6416   20.3714 C   0  0  0  0  0  0
  -28.1793  -21.7384   22.7075 C   0  0  0  0  0  0
  -29.1564  -21.7905   17.8200 C   0  0  0  0  0  0
  -28.7738  -18.9168   22.7998 C   0  0  0  0  0  0
  -29.7286  -18.9527   17.9000 C   0  0  0  0  0  0
  -27.8670  -23.7765   20.1245 C   0  0  0  0  0  0
  -29.4709  -16.9166   20.4307 N   0  0  0  0  0  0
  -31.4278  -13.3041   19.1971 H   0  0  0  0  0  0
  -30.5687  -12.1938   20.2109 H   0  0  0  0  0  0
  -29.9976  -11.8242   17.7829 H   0  0  0  0  0  0
  -29.5194  -13.4977   17.6276 H   0  0  0  0  0  0
  -28.1404  -11.3029   19.1864 H   0  0  0  0  0  0
  -27.4538  -12.2668   17.8987 H   0  0  0  0  0  0
  -27.4675  -14.2358   19.2599 H   0  0  0  0  0  0
  -28.8595  -12.7226   21.5187 H   0  0  0  0  0  0
  -28.1860  -14.3289   21.6458 H   0  0  0  0  0  0
  -25.2791   -9.5678   22.4777 H   0  0  0  0  0  0
  -24.0020   -7.4639   22.7484 H   0  0  0  0  0  0
  -21.0889   -8.8778   19.8941 H   0  0  0  0  0  0
  -22.3752  -10.9671   19.6159 H   0  0  0  0  0  0
  -21.2006   -7.6149   23.9723 H   0  0  0  0  0  0
  -21.1490   -6.0520   25.9084 H   0  0  0  0  0  0
  -22.0596   -2.7610   23.2837 H   0  0  0  0  0  0
  -22.4013  -11.9802   22.4854 H   0  0  0  0  0  0
  -21.0986  -13.1131   22.2665 H   0  0  0  0  0  0
  -24.6152  -15.8487   20.5184 H   0  0  0  0  0  0
  -26.2209  -15.6396   20.0402 H   0  0  0  0  0  0
  -26.7509  -32.4963   23.0786 H   0  0  0  0  0  0
  -25.0101  -33.9336   25.0086 H   0  0  0  0  0  0
  -22.8354  -31.2412   21.3177 H   0  0  0  0  0  0
  -23.3766  -35.9437   23.3247 H   0  0  0  0  0  0
  -24.3542  -36.8889   22.2086 H   0  0  0  0  0  0
  -23.7200  -37.6283   23.6788 H   0  0  0  0  0  0
  -26.2879  -31.2643   20.6265 H   0  0  0  0  0  0
  -26.9417  -30.6091   22.0796 H   0  0  0  0  0  0
  -28.1638  -28.3905   21.3268 H   0  0  0  0  0  0
  -25.8383  -25.6254   19.0019 H   0  0  0  0  0  0
  -24.0355  -27.2261   18.9277 H   0  0  0  0  0  0
  -23.9400  -30.4622   19.3785 H   0  0  0  0  0  0
  -22.8701  -29.1678   19.8164 H   0  0  0  0  0  0
  -25.1335  -36.1641   25.0771 H   0  0  0  0  0  0
  -21.0042  -28.3403   24.1274 H   0  0  0  0  0  0
  -20.5663  -26.2403   23.3660 H   0  0  0  0  0  0
  -21.6662  -26.7391   22.1220 H   0  0  0  0  0  0
  -19.6917  -25.6262   21.1304 H   0  0  0  0  0  0
  -19.6723  -27.3135   20.6704 H   0  0  0  0  0  0
  -17.4230  -26.6734   21.3996 H   0  0  0  0  0  0
  -18.0312  -26.0108   22.8998 H   0  0  0  0  0  0
  -19.7989  -30.7348   24.2153 H   0  0  0  0  0  0
  -17.5065  -31.6290   24.5166 H   0  0  0  0  0  0
  -15.5390  -30.2983   23.7738 H   0  0  0  0  0  0
  -15.8712  -28.0819   22.7144 H   0  0  0  0  0  0
  -24.5887  -30.7120   25.7603 H   0  0  0  0  0  0
  -24.8764  -32.3037   26.4494 H   0  0  0  0  0  0
  -25.7821  -30.9162   27.0234 H   0  0  0  0  0  0
  -26.3276  -29.6485   24.1584 H   0  0  0  0  0  0
  -27.4010  -29.7344   25.5327 H   0  0  0  0  0  0
  -27.9238  -30.4050   24.0110 H   0  0  0  0  0  0
  -27.2581  -33.3789   26.1851 H   0  0  0  0  0  0
  -28.3975  -32.6805   25.0446 H   0  0  0  0  0  0
  -28.0549  -31.8685   26.5645 H   0  0  0  0  0  0
  -28.2516  -38.0059   24.7547 H   0  0  0  0  0  0
  -28.1087  -36.2585   24.6248 H   0  0  0  0  0  0
  -27.2261  -37.1309   25.8862 H   0  0  0  0  0  0
  -20.9707  -29.8722   21.6565 H   0  0  0  0  0  0
  -26.0056  -38.2698   24.1495 H   0  0  0  0  0  0
  -28.1422  -22.8253   22.6424 H   0  0  0  0  0  0
  -28.8724  -21.5141   23.5174 H   0  0  0  0  0  0
  -27.1842  -21.3931   22.9892 H   0  0  0  0  0  0
  -29.1861  -22.8765   17.9027 H   0  0  0  0  0  0
  -28.2929  -21.5277   17.2076 H   0  0  0  0  0  0
  -30.0613  -21.5122   17.2811 H   0  0  0  0  0  0
  -29.4813  -19.3244   23.5214 H   0  0  0  0  0  0
  -28.9498  -17.8429   22.7669 H   0  0  0  0  0  0
  -27.7629  -19.0604   23.1819 H   0  0  0  0  0  0
  -30.6780  -19.3253   17.5159 H   0  0  0  0  0  0
  -28.9497  -19.1523   17.1633 H   0  0  0  0  0  0
  -29.8177  -17.8700   17.9820 H   0  0  0  0  0  0
  -26.9974  -23.6673   20.7722 H   0  0  0  0  0  0
  -27.4241  -23.7361   19.1302 H   0  0  0  0  0  0
  -28.5439  -16.5814   20.6484 H   0  0  0  0  0  0
  1 25  1  0  0  0
  1 30  2  0  0  0
  1 82  1  0  0  0
  2  3  1  0  0  0
  2 25  1  0  0  0
  2 83  1  0  0  0
  2 84  1  0  0  0
  3  4  1  0  0  0
  3 85  1  0  0  0
  3 86  1  0  0  0
  4  5  1  0  0  0
  4 87  1  0  0  0
  4 88  1  0  0  0
  5  6  1  0  0  0
  5 26  1  0  0  0
  5 89  1  0  0  0
  6 25  1  0  0  0
  6 90  1  0  0  0
  6 91  1  0  0  0
  7  8  2  0  0  0
  7 26  1  0  0  0
  7 29  1  0  0  0
  8  9  1  0  0  0
  8 22  1  0  0  0
  9 10  1  0  0  0
  9 27  2  0  0  0
 10 11  2  0  0  0
 10 15  1  0  0  0
 11 12  1  0  0  0
 11 92  1  0  0  0
 12 13  2  0  0  0
 12 93  1  0  0  0
 13 14  1  0  0  0
 13 31  1  0  0  0
 14 15  2  0  0  0
 14 94  1  0  0  0
 15 95  1  0  0  0
 16 17  2  0  0  0
 16 21  1  0  0  0
 16 31  1  0  0  0
 17 18  1  0  0  0
 17 96  1  0  0  0
 18 19  2  0  0  0
 18 97  1  0  0  0
 19 20  1  0  0  0
 19 24  1  0  0  0
 20 21  2  0  0  0
 20 98  1  0  0  0
 21 23  1  0  0  0
 22 28  1  0  0  0
 22 32  2  0  0  0
 26 27  1  0  0  0
 28 99  1  0  0  0
 28100  1  0  0  0
 29101  1  0  0  0
 29102  1  0  0  0
 33 34  1  0  0  0
 33 66  1  0  0  0
 33 70  2  0  0  0
 34 36  1  0  0  0
 34 59  1  0  0  0
 34103  1  0  0  0
 35 44  2  0  0  0
 35 45  1  0  0  0
 35 68  1  0  0  0
 36 56  1  0  0  0
 36104  1  0  0  0
 37 39  1  0  0  0
 37 47  1  0  0  0
 37 66  1  0  0  0
 37105  1  0  0  0
 38 43  2  0  0  0
 38 46  1  0  0  0
 38 47  1  0  0  0
 39 64  1  0  0  0
 39 67  2  0  0  0
 40 52  1  0  0  0
 40 53  2  0  0  0
 40 58  1  0  0  0
 41106  1  0  0  0
 41107  1  0  0  0
 41108  1  0  0  0
 41 48  1  0  0  0
 42 43  1  0  0  0
 42 66  1  0  0  0
 42109  1  0  0  0
 42110  1  0  0  0
 43 44  1  0  0  0
 44111  1  0  0  0
 45 46  2  0  0  0
 45112  1  0  0  0
 46113  1  0  0  0
 47114  1  0  0  0
 47115  1  0  0  0
 48 56  1  0  0  0
 48 65  1  0  0  0
 48116  1  0  0  0
 49 50  1  0  0  0
 49 53  1  0  0  0
 49 64  1  0  0  0
 49117  1  0  0  0
 50 51  1  0  0  0
 50118  1  0  0  0
 50119  1  0  0  0
 51 52  1  0  0  0
 51120  1  0  0  0
 51121  1  0  0  0
 52122  1  0  0  0
 52123  1  0  0  0
 53 54  1  0  0  0
 54 55  2  0  0  0
 54124  1  0  0  0
 55 57  1  0  0  0
 55125  1  0  0  0
 56 69  2  0  0  0
 57 58  2  0  0  0
 57126  1  0  0  0
 58127  1  0  0  0
 59 60  1  0  0  0
 59 61  1  0  0  0
 59 62  1  0  0  0
 60128  1  0  0  0
 60129  1  0  0  0
 60130  1  0  0  0
 61131  1  0  0  0
 61132  1  0  0  0
 61133  1  0  0  0
 62134  1  0  0  0
 62135  1  0  0  0
 62136  1  0  0  0
 63 65  1  0  0  0
 63137  1  0  0  0
 63138  1  0  0  0
 63139  1  0  0  0
 64140  1  0  0  0
 65141  1  0  0  0
 68 81  1  0  0  0
 71 73  2  0  0  0
 71 74  1  0  0  0
 71 77  1  0  0  0
 72 73  1  0  0  0
 72 75  2  0  0  0
 72 78  1  0  0  0
 73 81  1  0  0  0
 74 76  2  0  0  0
 74 79  1  0  0  0
 75 76  1  0  0  0
 75 80  1  0  0  0
 76 82  1  0  0  0
 77142  1  0  0  0
 77143  1  0  0  0
 77144  1  0  0  0
 78145  1  0  0  0
 78146  1  0  0  0
 78147  1  0  0  0
 79148  1  0  0  0
 79149  1  0  0  0
 79150  1  0  0  0
 80151  1  0  0  0
 80152  1  0  0  0
 80153  1  0  0  0
 81154  1  0  0  0
 81155  1  0  0  0
 82156  1  0  0  0
M  ISO  4   1 100  68 101  81 101  82 100
M  END
> <chiral flag>
0

> <version>
0

> <s_m_source_file>
/data/baiqing/PycharmProjects/Reinvent-master-3.2/result/LINK_invent/BTK/process_docking_weight1_custom_sum_contain_oxygen_bond_distance_aromatic_linkinvent_7_9_3/rearranged_h_0019.sdf

> <i_m_source_file_index>
81

> <r_mmod_Potential_Energy-OPLS-2005>
2259.22241210938

> <r_mmod_Stretch_Energy-OPLS-2005>
940.248229980469

> <r_mmod_Bend_Energy-OPLS-2005>
638.989868164062

> <r_mmod_Torsional_Energy-OPLS-2005>
258.704620361328

> <r_mmod_Improper_Torsional_Energy-OPLS-2005>
9.39475345611572

> <r_mmod_Van_der_Waal_Energy-OPLS-2005>
142.759948730469

> <r_mmod_Electrostatic_Energy-OPLS-2005>
-390.464752197266

> <r_mmod_Solvation_Energy-OPLS-2005>
-210.310836791992

> <b_mmod_Minimization_Converged-OPLS-2005>
0

> <r_mmod_RMS_Derivative-OPLS-2005>
1.11194562911987

$$$$
81
                    3D
 Structure written by MMmdl.
164172  0  0  1  0            999 V2000
  -29.9166  -16.5884   20.2484 C   0  0  0  0  0  0
  -30.3018  -13.8215   19.4831 C   0  0  0  0  0  0
  -29.5497  -12.9548   18.3861 C   0  0  0  0  0  0
  -28.2348  -12.3702   18.9032 C   0  0  0  0  0  0
  -27.5682  -13.4219   19.7964 C   0  0  2  0  0  0
  -28.5088  -14.1444   20.8307 C   0  0  0  0  0  0
  -25.2165  -13.8401   20.5845 C   0  0  0  0  0  0
  -24.1704  -13.0402   20.9309 C   0  0  0  0  0  0
  -24.6582  -11.6971   20.8687 C   0  0  0  0  0  0
  -23.9236  -10.4272   21.0265 C   0  0  0  0  0  0
  -24.3684   -9.4182   21.9099 C   0  0  0  0  0  0
  -23.6300   -8.2276   22.0764 C   0  0  0  0  0  0
  -22.4286   -8.0304   21.3553 C   0  0  0  0  0  0
  -21.9966   -9.0293   20.4673 C   0  0  0  0  0  0
  -22.7358  -10.2144   20.2999 C   0  0  0  0  0  0
  -21.6864   -6.0721   22.5248 C   0  0  0  0  0  0
  -21.4055   -6.5628   23.8195 C   0  0  0  0  0  0
  -21.3668   -5.6822   24.9171 C   0  0  0  0  0  0
  -21.6008   -4.3074   24.7216 C   0  0  0  0  0  0
  -21.8800   -3.8150   23.4373 C   0  0  0  0  0  0
  -21.9213   -4.6960   22.3413 C   0  0  0  0  0  0
  -22.7673  -13.5034   21.1913 C   0  0  0  0  0  0
  -22.1626   -4.2113   21.0996 F   0  0  0  0  0  0
  -21.5624   -3.4588   25.7746 F   0  0  0  0  0  0
  -29.4965  -15.0607   20.1062 N   0  0  0  0  0  0
  -26.2789  -12.9987   20.3343 N   0  0  0  0  0  0
  -25.9560  -11.6928   20.5572 N   0  0  0  0  0  0
  -22.0395  -12.8040   22.0523 N   0  0  0  0  0  0
  -25.3505  -15.2150   20.4150 N   0  0  0  0  0  0
  -31.1610  -16.3601   20.2900 O   0  0  0  0  0  0
  -21.6671   -6.8877   21.4215 O   0  0  0  0  0  0
  -22.3296  -14.5299   20.6732 O   0  0  0  0  0  0
  -24.7480  -31.7162   23.1049 C   0  0  0  0  0  0
  -25.9731  -32.4079   23.7826 C   0  0  1  0  0  0
  -27.2727  -26.0379   20.2667 C   0  0  0  0  0  0
  -25.6055  -33.7938   24.1652 N   0  0  0  0  0  0
  -23.6077  -30.2844   21.4757 C   0  0  2  0  0  0
  -25.0711  -28.4866   20.1447 C   0  0  0  0  0  0
  -22.8081  -29.3828   22.4598 C   0  0  0  0  0  0
  -18.0343  -28.1413   22.8392 C   0  0  0  0  0  0
  -24.1528  -36.6939   23.2652 C   0  0  0  0  0  0
  -26.2098  -30.2340   21.4657 C   0  0  0  0  0  0
  -26.2715  -28.7205   20.8258 C   0  0  0  0  0  0
  -27.3185  -27.5504   20.8334 C   0  0  0  0  0  0
  -26.0315  -26.1820   19.5281 C   0  0  0  0  0  0
  -25.0280  -27.2457   19.4718 C   0  0  0  0  0  0
  -23.8990  -29.5217   20.1401 C   0  0  0  0  0  0
  -25.4194  -36.2674   24.0254 C   0  0  1  0  0  0
  -20.6016  -28.3785   23.1023 C   0  0  2  0  0  0
  -20.6758  -26.9384   22.5430 C   0  0  0  0  0  0
  -19.5771  -26.6326   21.5204 C   0  0  0  0  0  0
  -18.1944  -26.7910   22.1598 C   0  0  0  0  0  0
  -19.1633  -28.8937   23.2645 C   0  0  0  0  0  0
  -18.9530  -30.1474   23.8744 C   0  0  0  0  0  0
  -17.6514  -30.6569   24.0490 C   0  0  0  0  0  0
  -25.9219  -34.9058   23.4849 C   0  0  0  0  0  0
  -16.5382  -29.9056   23.6308 C   0  0  0  0  0  0
  -16.7317  -28.6483   23.0354 C   0  0  0  0  0  0
  -26.4756  -31.6364   25.0674 C   0  0  0  0  0  0
  -25.3707  -31.3833   26.1249 C   0  0  0  0  0  0
  -27.0709  -30.2628   24.6914 C   0  0  0  0  0  0
  -27.6142  -32.4260   25.7525 C   0  0  0  0  0  0
  -27.5561  -37.1650   24.8466 C   0  0  0  0  0  0
  -21.4671  -29.2873   22.3282 N   0  0  0  0  0  0
  -26.4254  -37.3515   23.9416 N   0  0  0  0  0  0
  -24.8881  -30.7947   22.0696 N   0  0  0  0  0  0
  -23.4146  -28.7550   23.3279 O   0  0  0  0  0  0
  -28.1844  -24.5390   20.2928 O   0  0  0  0  0  0
  -26.5971  -34.8733   22.4545 O   0  0  0  0  0  0
  -23.6343  -32.0501   23.5600 O   0  0  0  0  0  0
  -30.6865  -22.0028   19.3933 C   0  0  0  0  0  0
  -29.2466  -21.5162   19.4668 C   0  0  1  0  0  0
  -29.1026  -20.3019   20.4478 C   0  0  1  0  0  0
  -28.2215  -22.4207   20.2935 C   0  0  1  0  0  0
  -34.0160  -21.6366   12.3918 C   0  0  0  0  0  0
  -31.5756  -21.5200   12.5832 C   0  0  0  0  0  0
  -30.9962  -23.4538   18.9968 C   0  0  0  0  0  0
  -30.9058  -23.7447   17.4792 C   0  0  0  0  0  0
  -32.1548  -23.3122   16.6876 C   0  0  0  0  0  0
  -31.9237  -23.2844   15.1619 C   0  0  0  0  0  0
  -32.9709  -22.3977   14.4531 C   0  0  0  0  0  0
  -29.1656  -18.2172   20.1708 N   0  0  0  0  0  0
  -32.8045  -22.2513   12.9824 N   0  3  0  0  0  0
  -31.6309  -21.2368   19.6172 O   0  0  0  0  0  0
  -31.1895  -14.2343   19.0057 H   0  0  0  0  0  0
  -30.7068  -13.1675   20.2558 H   0  0  0  0  0  0
  -30.1987  -12.1604   18.0165 H   0  0  0  0  0  0
  -29.3197  -13.5941   17.5283 H   0  0  0  0  0  0
  -28.4490  -11.4688   19.4801 H   0  0  0  0  0  0
  -27.5847  -12.0644   18.0840 H   0  0  0  0  0  0
  -27.3018  -14.2028   19.0781 H   0  0  0  0  0  0
  -28.9712  -13.4285   21.5146 H   0  0  0  0  0  0
  -27.9098  -14.7918   21.4731 H   0  0  0  0  0  0
  -25.2773   -9.5676   22.4740 H   0  0  0  0  0  0
  -23.9923   -7.4690   22.7584 H   0  0  0  0  0  0
  -21.0870   -8.8831   19.9039 H   0  0  0  0  0  0
  -22.3703  -10.9674   19.6168 H   0  0  0  0  0  0
  -21.2026   -7.6132   23.9682 H   0  0  0  0  0  0
  -21.1501   -6.0560   25.9073 H   0  0  0  0  0  0
  -22.0569   -2.7613   23.2897 H   0  0  0  0  0  0
  -22.4052  -11.9700   22.4847 H   0  0  0  0  0  0
  -21.1008  -13.1038   22.2751 H   0  0  0  0  0  0
  -24.5632  -15.8381   20.5356 H   0  0  0  0  0  0
  -26.1924  -15.6854   20.1024 H   0  0  0  0  0  0
  -26.7878  -32.4422   23.0572 H   0  0  0  0  0  0
  -24.9986  -33.8912   24.9663 H   0  0  0  0  0  0
  -22.9712  -31.1325   21.2230 H   0  0  0  0  0  0
  -23.3857  -35.9203   23.3225 H   0  0  0  0  0  0
  -24.3555  -36.8717   22.2078 H   0  0  0  0  0  0
  -23.7181  -37.6027   23.6804 H   0  0  0  0  0  0
  -26.4566  -30.9142   20.6487 H   0  0  0  0  0  0
  -27.0547  -30.3442   22.1348 H   0  0  0  0  0  0
  -28.2098  -27.7701   21.4096 H   0  0  0  0  0  0
  -25.7561  -25.2933   18.9753 H   0  0  0  0  0  0
  -24.1427  -27.0331   18.8857 H   0  0  0  0  0  0
  -24.1333  -30.2562   19.3667 H   0  0  0  0  0  0
  -22.9941  -29.0172   19.7937 H   0  0  0  0  0  0
  -25.1429  -36.1402   25.0738 H   0  0  0  0  0  0
  -20.9988  -28.3427   24.1195 H   0  0  0  0  0  0
  -20.5456  -26.2459   23.3772 H   0  0  0  0  0  0
  -21.6636  -26.7170   22.1336 H   0  0  0  0  0  0
  -19.6924  -25.6226   21.1284 H   0  0  0  0  0  0
  -19.6726  -27.3110   20.6725 H   0  0  0  0  0  0
  -17.4197  -26.6571   21.4017 H   0  0  0  0  0  0
  -18.0332  -26.0111   22.9071 H   0  0  0  0  0  0
  -19.8014  -30.7266   24.2123 H   0  0  0  0  0  0
  -17.5071  -31.6238   24.5134 H   0  0  0  0  0  0
  -15.5383  -30.2911   23.7714 H   0  0  0  0  0  0
  -15.8723  -28.0731   22.7184 H   0  0  0  0  0  0
  -24.5985  -30.7085   25.7578 H   0  0  0  0  0  0
  -24.8847  -32.3098   26.4330 H   0  0  0  0  0  0
  -25.7852  -30.9250   27.0263 H   0  0  0  0  0  0
  -26.3536  -29.6118   24.1957 H   0  0  0  0  0  0
  -27.3961  -29.7234   25.5824 H   0  0  0  0  0  0
  -27.9567  -30.3616   24.0627 H   0  0  0  0  0  0
  -27.2728  -33.3707   26.1777 H   0  0  0  0  0  0
  -28.4205  -32.6611   25.0546 H   0  0  0  0  0  0
  -28.0573  -31.8574   26.5748 H   0  0  0  0  0  0
  -28.2549  -37.9985   24.7557 H   0  0  0  0  0  0
  -28.1098  -36.2513   24.6286 H   0  0  0  0  0  0
  -27.2267  -37.1207   25.8859 H   0  0  0  0  0  0
  -21.0160  -29.8424   21.6147 H   0  0  0  0  0  0
  -26.0051  -38.2534   24.1453 H   0  0  0  0  0  0
  -28.8778  -21.2983   18.4658 H   0  0  0  0  0  0
  -29.6233  -20.3986   21.3971 H   0  0  0  0  0  0
  -27.6929  -22.2703   21.2307 H   0  0  0  0  0  0
  -33.9047  -21.4674   11.3209 H   0  0  0  0  0  0
  -34.2252  -20.6777   12.8697 H   0  0  0  0  0  0
  -34.8808  -22.2874   12.5341 H   0  0  0  0  0  0
  -31.5247  -21.4104   11.4973 H   0  0  0  0  0  0
  -30.6771  -22.0557   12.8902 H   0  0  0  0  0  0
  -31.5420  -20.5187   13.0195 H   0  0  0  0  0  0
  -31.9849  -23.7195   19.3791 H   0  0  0  0  0  0
  -30.3068  -24.1055   19.5274 H   0  0  0  0  0  0
  -30.7630  -24.8182   17.3333 H   0  0  0  0  0  0
  -30.0150  -23.2646   17.0644 H   0  0  0  0  0  0
  -32.4758  -22.3254   17.0273 H   0  0  0  0  0  0
  -32.9822  -23.9867   16.9185 H   0  0  0  0  0  0
  -31.9435  -24.3109   14.7824 H   0  0  0  0  0  0
  -30.9235  -22.9016   14.9604 H   0  0  0  0  0  0
  -32.9675  -21.3995   14.8979 H   0  0  0  0  0  0
  -33.9576  -22.8199   14.6474 H   0  0  0  0  0  0
  -28.2199  -17.9773   19.8931 H   0  0  0  0  0  0
  -32.7424  -23.1760   12.5820 H   0  0  0  0  0  0
  1 25  1  0  0  0
  1 30  2  0  0  0
  1 82  1  0  0  0
  2  3  1  0  0  0
  2 25  1  0  0  0
  2 85  1  0  0  0
  2 86  1  0  0  0
  3  4  1  0  0  0
  3 87  1  0  0  0
  3 88  1  0  0  0
  4  5  1  0  0  0
  4 89  1  0  0  0
  4 90  1  0  0  0
  5  6  1  0  0  0
  5 26  1  0  0  0
  5 91  1  0  0  0
  6 25  1  0  0  0
  6 92  1  0  0  0
  6 93  1  0  0  0
  7  8  2  0  0  0
  7 26  1  0  0  0
  7 29  1  0  0  0
  8  9  1  0  0  0
  8 22  1  0  0  0
  9 10  1  0  0  0
  9 27  2  0  0  0
 10 11  2  0  0  0
 10 15  1  0  0  0
 11 12  1  0  0  0
 11 94  1  0  0  0
 12 13  2  0  0  0
 12 95  1  0  0  0
 13 14  1  0  0  0
 13 31  1  0  0  0
 14 15  2  0  0  0
 14 96  1  0  0  0
 15 97  1  0  0  0
 16 17  2  0  0  0
 16 21  1  0  0  0
 16 31  1  0  0  0
 17 18  1  0  0  0
 17 98  1  0  0  0
 18 19  2  0  0  0
 18 99  1  0  0  0
 19 20  1  0  0  0
 19 24  1  0  0  0
 20 21  2  0  0  0
 20100  1  0  0  0
 21 23  1  0  0  0
 22 28  1  0  0  0
 22 32  2  0  0  0
 26 27  1  0  0  0
 28101  1  0  0  0
 28102  1  0  0  0
 29103  1  0  0  0
 29104  1  0  0  0
 33 34  1  0  0  0
 33 66  1  0  0  0
 33 70  2  0  0  0
 34 36  1  0  0  0
 34 59  1  0  0  0
 34105  1  0  0  0
 35 44  2  0  0  0
 35 45  1  0  0  0
 35 68  1  0  0  0
 36 56  1  0  0  0
 36106  1  0  0  0
 37 39  1  0  0  0
 37 47  1  0  0  0
 37 66  1  0  0  0
 37107  1  0  0  0
 38 43  2  0  0  0
 38 46  1  0  0  0
 38 47  1  0  0  0
 39 64  1  0  0  0
 39 67  2  0  0  0
 40 52  1  0  0  0
 40 53  2  0  0  0
 40 58  1  0  0  0
 41108  1  0  0  0
 41109  1  0  0  0
 41110  1  0  0  0
 41 48  1  0  0  0
 42 43  1  0  0  0
 42 66  1  0  0  0
 42111  1  0  0  0
 42112  1  0  0  0
 43 44  1  0  0  0
 44113  1  0  0  0
 45 46  2  0  0  0
 45114  1  0  0  0
 46115  1  0  0  0
 47116  1  0  0  0
 47117  1  0  0  0
 48 56  1  0  0  0
 48 65  1  0  0  0
 48118  1  0  0  0
 49 50  1  0  0  0
 49 53  1  0  0  0
 49 64  1  0  0  0
 49119  1  0  0  0
 50 51  1  0  0  0
 50120  1  0  0  0
 50121  1  0  0  0
 51 52  1  0  0  0
 51122  1  0  0  0
 51123  1  0  0  0
 52124  1  0  0  0
 52125  1  0  0  0
 53 54  1  0  0  0
 54 55  2  0  0  0
 54126  1  0  0  0
 55 57  1  0  0  0
 55127  1  0  0  0
 56 69  2  0  0  0
 57 58  2  0  0  0
 57128  1  0  0  0
 58129  1  0  0  0
 59 60  1  0  0  0
 59 61  1  0  0  0
 59 62  1  0  0  0
 60130  1  0  0  0
 60131  1  0  0  0
 60132  1  0  0  0
 61133  1  0  0  0
 61134  1  0  0  0
 61135  1  0  0  0
 62136  1  0  0  0
 62137  1  0  0  0
 62138  1  0  0  0
 63 65  1  0  0  0
 63139  1  0  0  0
 63140  1  0  0  0
 63141  1  0  0  0
 64142  1  0  0  0
 65143  1  0  0  0
 68 74  1  0  0  0
 71 77  1  0  0  0
 71 84  2  0  0  0
 71 72  1  0  0  0
 72 73  1  0  0  0
 72 74  1  0  0  0
 72144  1  0  0  0
 73 74  1  0  0  0
 73 82  1  0  0  0
 73145  1  0  0  0
 74146  1  0  0  0
 75147  1  0  0  0
 75148  1  0  0  0
 75149  1  0  0  0
 75 83  1  0  0  0
 76 83  1  0  0  0
 76150  1  0  0  0
 76151  1  0  0  0
 76152  1  0  0  0
 77 78  1  0  0  0
 77153  1  0  0  0
 77154  1  0  0  0
 78 79  1  0  0  0
 78155  1  0  0  0
 78156  1  0  0  0
 79 80  1  0  0  0
 79157  1  0  0  0
 79158  1  0  0  0
 80 81  1  0  0  0
 80159  1  0  0  0
 80160  1  0  0  0
 81 83  1  0  0  0
 81161  1  0  0  0
 81162  1  0  0  0
 82163  1  0  0  0
 83164  1  0  0  0
M  CHG  1  83   1
M  ISO  4   1 100  68 101  74 101  82 100
M  END
> <chiral flag>
0

> <version>
0

> <s_m_source_file>
/data/baiqing/PycharmProjects/Reinvent-master-3.2/result/LINK_invent/BTK/process_docking_weight1_custom_sum_contain_oxygen_bond_distance_aromatic_linkinvent_7_9_3/rearranged_h_0019.sdf

> <i_m_source_file_index>
82

> <r_mmod_Potential_Energy-OPLS-2005>
6955.30712890625

> <r_mmod_Stretch_Energy-OPLS-2005>
3164.62622070312

> <r_mmod_Bend_Energy-OPLS-2005>
1178.42114257812

> <r_mmod_Torsional_Energy-OPLS-2005>
277.691436767578

> <r_mmod_Improper_Torsional_Energy-OPLS-2005>
6.0792350769043

> <r_mmod_Van_der_Waal_Energy-OPLS-2005>
122.547172546387

> <r_mmod_Electrostatic_Energy-OPLS-2005>
-218.071304321289

> <r_mmod_Solvation_Energy-OPLS-2005>
-483.607757568359

> <b_mmod_Minimization_Converged-OPLS-2005>
0

> <r_mmod_RMS_Derivative-OPLS-2005>
8.84841918945312

$$$$
82
                    3D
 Structure written by MMmdl.
146153  0  0  1  0            999 V2000
  -30.2618  -16.0400   20.3150 C   0  0  0  0  0  0
  -30.4238  -13.3813   19.5578 C   0  0  0  0  0  0
  -29.6007  -12.8046   18.3601 C   0  0  0  0  0  0
  -28.1757  -12.3970   18.7652 C   0  0  0  0  0  0
  -27.6067  -13.3845   19.8088 C   0  0  2  0  0  0
  -28.6135  -13.8912   20.8904 C   0  0  0  0  0  0
  -25.2348  -13.8433   20.5771 C   0  0  0  0  0  0
  -24.1819  -13.0482   20.9296 C   0  0  0  0  0  0
  -24.6610  -11.7036   20.8742 C   0  0  0  0  0  0
  -23.9267  -10.4351   21.0349 C   0  0  0  0  0  0
  -24.3751   -9.4264   21.9154 C   0  0  0  0  0  0
  -23.6375   -8.2327   22.0750 C   0  0  0  0  0  0
  -22.4350   -8.0342   21.3538 C   0  0  0  0  0  0
  -22.0012   -9.0353   20.4659 C   0  0  0  0  0  0
  -22.7410  -10.2200   20.3045 C   0  0  0  0  0  0
  -21.6904   -6.0760   22.5253 C   0  0  0  0  0  0
  -21.4052   -6.5648   23.8203 C   0  0  0  0  0  0
  -21.3666   -5.6803   24.9171 C   0  0  0  0  0  0
  -21.6049   -4.3065   24.7213 C   0  0  0  0  0  0
  -21.8846   -3.8147   23.4335 C   0  0  0  0  0  0
  -21.9218   -4.6969   22.3390 C   0  0  0  0  0  0
  -22.7810  -13.5145   21.1895 C   0  0  0  0  0  0
  -22.1657   -4.2134   21.0972 F   0  0  0  0  0  0
  -21.5634   -3.4548   25.7722 F   0  0  0  0  0  0
  -29.7341  -14.6208   20.2018 N   0  0  0  0  0  0
  -26.2947  -12.9933   20.3316 N   0  0  0  0  0  0
  -25.9629  -11.6897   20.5689 N   0  0  0  0  0  0
  -22.0421  -12.8165   22.0394 N   0  0  0  0  0  0
  -25.3723  -15.2162   20.3986 N   0  0  0  0  0  0
  -31.5046  -15.8553   20.3022 O   0  0  0  0  0  0
  -21.6710   -6.8930   21.4232 O   0  0  0  0  0  0
  -22.3457  -14.5437   20.6742 O   0  0  0  0  0  0
  -24.7101  -31.7661   23.1322 C   0  0  0  0  0  0
  -25.9550  -32.4277   23.7986 C   0  0  1  0  0  0
  -27.3042  -26.4676   20.2601 C   0  0  0  0  0  0
  -25.6036  -33.8125   24.1848 N   0  0  0  0  0  0
  -23.5535  -30.3537   21.4866 C   0  0  2  0  0  0
  -25.0288  -28.6327   20.1413 C   0  0  0  0  0  0
  -22.7885  -29.4148   22.4642 C   0  0  0  0  0  0
  -18.0361  -28.1407   22.8402 C   0  0  0  0  0  0
  -24.1522  -36.7074   23.2666 C   0  0  0  0  0  0
  -26.1490  -30.4217   21.4371 C   0  0  0  0  0  0
  -26.2216  -28.9603   20.7969 C   0  0  0  0  0  0
  -27.3300  -27.9201   20.8079 C   0  0  0  0  0  0
  -26.0625  -26.4112   19.5515 C   0  0  0  0  0  0
  -25.0011  -27.3832   19.4931 C   0  0  0  0  0  0
  -23.8291  -29.6123   20.1423 C   0  0  0  0  0  0
  -25.4157  -36.2771   24.0281 C   0  0  1  0  0  0
  -20.6003  -28.3797   23.1050 C   0  0  2  0  0  0
  -20.6818  -26.9434   22.5373 C   0  0  0  0  0  0
  -19.5807  -26.6336   21.5180 C   0  0  0  0  0  0
  -18.1987  -26.7922   22.1585 C   0  0  0  0  0  0
  -19.1626  -28.8941   23.2689 C   0  0  0  0  0  0
  -18.9528  -30.1526   23.8748 C   0  0  0  0  0  0
  -17.6508  -30.6588   24.0523 C   0  0  0  0  0  0
  -25.9152  -34.9176   23.4889 C   0  0  0  0  0  0
  -16.5393  -29.9048   23.6367 C   0  0  0  0  0  0
  -16.7331  -28.6472   23.0357 C   0  0  0  0  0  0
  -26.4641  -31.6439   25.0733 C   0  0  0  0  0  0
  -25.3675  -31.3828   26.1341 C   0  0  0  0  0  0
  -27.0596  -30.2722   24.6898 C   0  0  0  0  0  0
  -27.6028  -32.4410   25.7520 C   0  0  0  0  0  0
  -27.5565  -37.1673   24.8450 C   0  0  0  0  0  0
  -21.4519  -29.2981   22.3366 N   0  0  0  0  0  0
  -26.4245  -37.3566   23.9422 N   0  0  0  0  0  0
  -24.8295  -30.8890   22.0689 N   0  0  0  0  0  0
  -23.4182  -28.7827   23.3139 O   0  0  0  0  0  0
  -28.2979  -25.1774   20.2253 O   0  0  0  0  0  0
  -26.5823  -34.8803   22.4545 O   0  0  0  0  0  0
  -23.6055  -32.0850   23.6103 O   0  0  0  0  0  0
  -31.1765  -19.6575   20.8898 C   0  0  0  0  0  0
  -28.2016  -17.4264   19.7809 C   0  0  0  0  0  0
  -28.9510  -21.3398   20.0408 C   0  0  0  0  0  0
  -28.3805  -23.3093   20.5499 C   0  0  0  0  0  0
  -29.6694  -19.4309   20.5913 C   0  0  1  0  0  0
  -29.5653  -17.5471   20.2737 N   0  0  0  0  0  0
  -31.4115  -13.6698   19.1921 H   0  0  0  0  0  0
  -30.6351  -12.6008   20.2952 H   0  0  0  0  0  0
  -30.1339  -11.9661   17.9109 H   0  0  0  0  0  0
  -29.5420  -13.5778   17.5924 H   0  0  0  0  0  0
  -28.2021  -11.3854   19.1708 H   0  0  0  0  0  0
  -27.5356  -12.3750   17.8831 H   0  0  0  0  0  0
  -27.4088  -14.2689   19.2010 H   0  0  0  0  0  0
  -28.9594  -13.0974   21.5540 H   0  0  0  0  0  0
  -28.1286  -14.6194   21.5386 H   0  0  0  0  0  0
  -25.2882   -9.5760   22.4744 H   0  0  0  0  0  0
  -24.0071   -7.4751   22.7518 H   0  0  0  0  0  0
  -21.0916   -8.8970   19.8979 H   0  0  0  0  0  0
  -22.3884  -10.9781   19.6181 H   0  0  0  0  0  0
  -21.2049   -7.6154   23.9703 H   0  0  0  0  0  0
  -21.1440   -6.0516   25.9070 H   0  0  0  0  0  0
  -22.0608   -2.7595   23.2845 H   0  0  0  0  0  0
  -22.3947  -11.9849   22.4862 H   0  0  0  0  0  0
  -21.1020  -13.1242   22.2521 H   0  0  0  0  0  0
  -24.5868  -15.8543   20.4542 H   0  0  0  0  0  0
  -26.1859  -15.6304   19.9600 H   0  0  0  0  0  0
  -26.7696  -32.4672   23.0740 H   0  0  0  0  0  0
  -25.0071  -33.9124   24.9932 H   0  0  0  0  0  0
  -22.8953  -31.1978   21.2668 H   0  0  0  0  0  0
  -23.3799  -35.9382   23.3185 H   0  0  0  0  0  0
  -24.3636  -36.8883   22.2118 H   0  0  0  0  0  0
  -23.7256  -37.6200   23.6837 H   0  0  0  0  0  0
  -26.3910  -31.1234   20.6391 H   0  0  0  0  0  0
  -26.9842  -30.4945   22.1199 H   0  0  0  0  0  0
  -28.2297  -28.2105   21.3359 H   0  0  0  0  0  0
  -25.8927  -25.4828   19.0263 H   0  0  0  0  0  0
  -24.1187  -27.1110   18.9291 H   0  0  0  0  0  0
  -24.0208  -30.3573   19.3682 H   0  0  0  0  0  0
  -22.9360  -29.0811   19.8119 H   0  0  0  0  0  0
  -25.1381  -36.1474   25.0762 H   0  0  0  0  0  0
  -21.0035  -28.3434   24.1194 H   0  0  0  0  0  0
  -20.5636  -26.2436   23.3658 H   0  0  0  0  0  0
  -21.6683  -26.7334   22.1216 H   0  0  0  0  0  0
  -19.6972  -25.6218   21.1308 H   0  0  0  0  0  0
  -19.6762  -27.3077   20.6662 H   0  0  0  0  0  0
  -17.4237  -26.6610   21.4002 H   0  0  0  0  0  0
  -18.0401  -26.0106   22.9029 H   0  0  0  0  0  0
  -19.8013  -30.7363   24.2031 H   0  0  0  0  0  0
  -17.5070  -31.6267   24.5150 H   0  0  0  0  0  0
  -15.5390  -30.2911   23.7787 H   0  0  0  0  0  0
  -15.8713  -28.0767   22.7141 H   0  0  0  0  0  0
  -24.5821  -30.7227   25.7648 H   0  0  0  0  0  0
  -24.8935  -32.3076   26.4639 H   0  0  0  0  0  0
  -25.7840  -30.9047   27.0219 H   0  0  0  0  0  0
  -26.3376  -29.6254   24.1899 H   0  0  0  0  0  0
  -27.3844  -29.7298   25.5796 H   0  0  0  0  0  0
  -27.9448  -30.3741   24.0615 H   0  0  0  0  0  0
  -27.2505  -33.3809   26.1788 H   0  0  0  0  0  0
  -28.3939  -32.6835   25.0409 H   0  0  0  0  0  0
  -28.0597  -31.8782   26.5667 H   0  0  0  0  0  0
  -28.2448  -38.0092   24.7575 H   0  0  0  0  0  0
  -28.1191  -36.2607   24.6150 H   0  0  0  0  0  0
  -27.2319  -37.1151   25.8861 H   0  0  0  0  0  0
  -20.9911  -29.8565   21.6332 H   0  0  0  0  0  0
  -26.0034  -38.2595   24.1436 H   0  0  0  0  0  0
  -31.5828  -20.5226   20.3612 H   0  0  0  0  0  0
  -31.7906  -18.7984   20.5997 H   0  0  0  0  0  0
  -31.3631  -19.8228   21.9543 H   0  0  0  0  0  0
  -27.7463  -18.3964   19.5780 H   0  0  0  0  0  0
  -27.5914  -16.9151   20.5244 H   0  0  0  0  0  0
  -28.1812  -16.8729   18.8420 H   0  0  0  0  0  0
  -28.0462  -21.0390   19.5154 H   0  0  0  0  0  0
  -29.6471  -21.5672   19.2340 H   0  0  0  0  0  0
  -28.8310  -23.3877   21.5436 H   0  0  0  0  0  0
  -27.3236  -23.1484   20.7563 H   0  0  0  0  0  0
  -29.2135  -19.3708   21.5806 H   0  0  0  0  0  0
  1 25  1  0  0  0
  1 30  2  0  0  0
  1 76  1  0  0  0
  2  3  1  0  0  0
  2 25  1  0  0  0
  2 77  1  0  0  0
  2 78  1  0  0  0
  3  4  1  0  0  0
  3 79  1  0  0  0
  3 80  1  0  0  0
  4  5  1  0  0  0
  4 81  1  0  0  0
  4 82  1  0  0  0
  5  6  1  0  0  0
  5 26  1  0  0  0
  5 83  1  0  0  0
  6 25  1  0  0  0
  6 84  1  0  0  0
  6 85  1  0  0  0
  7  8  2  0  0  0
  7 26  1  0  0  0
  7 29  1  0  0  0
  8  9  1  0  0  0
  8 22  1  0  0  0
  9 10  1  0  0  0
  9 27  2  0  0  0
 10 11  2  0  0  0
 10 15  1  0  0  0
 11 12  1  0  0  0
 11 86  1  0  0  0
 12 13  2  0  0  0
 12 87  1  0  0  0
 13 14  1  0  0  0
 13 31  1  0  0  0
 14 15  2  0  0  0
 14 88  1  0  0  0
 15 89  1  0  0  0
 16 17  2  0  0  0
 16 21  1  0  0  0
 16 31  1  0  0  0
 17 18  1  0  0  0
 17 90  1  0  0  0
 18 19  2  0  0  0
 18 91  1  0  0  0
 19 20  1  0  0  0
 19 24  1  0  0  0
 20 21  2  0  0  0
 20 92  1  0  0  0
 21 23  1  0  0  0
 22 28  1  0  0  0
 22 32  2  0  0  0
 26 27  1  0  0  0
 28 93  1  0  0  0
 28 94  1  0  0  0
 29 95  1  0  0  0
 29 96  1  0  0  0
 33 34  1  0  0  0
 33 66  1  0  0  0
 33 70  2  0  0  0
 34 36  1  0  0  0
 34 59  1  0  0  0
 34 97  1  0  0  0
 35 44  2  0  0  0
 35 45  1  0  0  0
 35 68  1  0  0  0
 36 56  1  0  0  0
 36 98  1  0  0  0
 37 39  1  0  0  0
 37 47  1  0  0  0
 37 66  1  0  0  0
 37 99  1  0  0  0
 38 43  2  0  0  0
 38 46  1  0  0  0
 38 47  1  0  0  0
 39 64  1  0  0  0
 39 67  2  0  0  0
 40 52  1  0  0  0
 40 53  2  0  0  0
 40 58  1  0  0  0
 41100  1  0  0  0
 41101  1  0  0  0
 41102  1  0  0  0
 41 48  1  0  0  0
 42 43  1  0  0  0
 42 66  1  0  0  0
 42103  1  0  0  0
 42104  1  0  0  0
 43 44  1  0  0  0
 44105  1  0  0  0
 45 46  2  0  0  0
 45106  1  0  0  0
 46107  1  0  0  0
 47108  1  0  0  0
 47109  1  0  0  0
 48 56  1  0  0  0
 48 65  1  0  0  0
 48110  1  0  0  0
 49 50  1  0  0  0
 49 53  1  0  0  0
 49 64  1  0  0  0
 49111  1  0  0  0
 50 51  1  0  0  0
 50112  1  0  0  0
 50113  1  0  0  0
 51 52  1  0  0  0
 51114  1  0  0  0
 51115  1  0  0  0
 52116  1  0  0  0
 52117  1  0  0  0
 53 54  1  0  0  0
 54 55  2  0  0  0
 54118  1  0  0  0
 55 57  1  0  0  0
 55119  1  0  0  0
 56 69  2  0  0  0
 57 58  2  0  0  0
 57120  1  0  0  0
 58121  1  0  0  0
 59 60  1  0  0  0
 59 61  1  0  0  0
 59 62  1  0  0  0
 60122  1  0  0  0
 60123  1  0  0  0
 60124  1  0  0  0
 61125  1  0  0  0
 61126  1  0  0  0
 61127  1  0  0  0
 62128  1  0  0  0
 62129  1  0  0  0
 62130  1  0  0  0
 63 65  1  0  0  0
 63131  1  0  0  0
 63132  1  0  0  0
 63133  1  0  0  0
 64134  1  0  0  0
 65135  1  0  0  0
 68 74  1  0  0  0
 71136  1  0  0  0
 71137  1  0  0  0
 71138  1  0  0  0
 71 75  1  0  0  0
 72 76  1  0  0  0
 72139  1  0  0  0
 72140  1  0  0  0
 72141  1  0  0  0
 73 74  1  0  0  0
 73 75  1  0  0  0
 73142  1  0  0  0
 73143  1  0  0  0
 74144  1  0  0  0
 74145  1  0  0  0
 75 76  1  0  0  0
 75146  1  0  0  0
M  ISO  4   1 100  68 101  74 101  76 100
M  END
> <chiral flag>
0

> <version>
0

> <s_m_source_file>
/data/baiqing/PycharmProjects/Reinvent-master-3.2/result/LINK_invent/BTK/process_docking_weight1_custom_sum_contain_oxygen_bond_distance_aromatic_linkinvent_7_9_3/rearranged_h_0019.sdf

> <i_m_source_file_index>
83

> <r_mmod_Potential_Energy-OPLS-2005>
4366.07080078125

> <r_mmod_Stretch_Energy-OPLS-2005>
1964.45227050781

> <r_mmod_Bend_Energy-OPLS-2005>
914.028137207031

> <r_mmod_Torsional_Energy-OPLS-2005>
315.469818115234

> <r_mmod_Improper_Torsional_Energy-OPLS-2005>
5.25239229202271

> <r_mmod_Van_der_Waal_Energy-OPLS-2005>
109.665176391602

> <r_mmod_Electrostatic_Energy-OPLS-2005>
-258.343414306641

> <r_mmod_Solvation_Energy-OPLS-2005>
-207.653869628906

> <b_mmod_Minimization_Converged-OPLS-2005>
0

> <r_mmod_RMS_Derivative-OPLS-2005>
7.37323141098022

$$$$
83
                    3D
 Structure written by MMmdl.
170178  0  0  1  0            999 V2000
  -30.5193  -14.9646   20.4135 C   0  0  0  0  0  0
  -30.4482  -12.6009   19.4781 C   0  0  0  0  0  0
  -29.5214  -12.5276   18.2426 C   0  0  0  0  0  0
  -28.0563  -12.3066   18.6711 C   0  0  0  0  0  0
  -27.6291  -13.2472   19.8302 C   0  0  2  0  0  0
  -28.6775  -13.2736   20.9616 C   0  0  0  0  0  0
  -25.2489  -13.8240   20.5700 C   0  0  0  0  0  0
  -24.1807  -13.0450   20.9253 C   0  0  0  0  0  0
  -24.6438  -11.6935   20.8797 C   0  0  0  0  0  0
  -23.9128  -10.4309   21.0466 C   0  0  0  0  0  0
  -24.3662   -9.4195   21.9222 C   0  0  0  0  0  0
  -23.6312   -8.2242   22.0769 C   0  0  0  0  0  0
  -22.4291   -8.0314   21.3560 C   0  0  0  0  0  0
  -21.9960   -9.0302   20.4658 C   0  0  0  0  0  0
  -22.7321  -10.2171   20.3087 C   0  0  0  0  0  0
  -21.6843   -6.0765   22.5296 C   0  0  0  0  0  0
  -21.4010   -6.5657   23.8237 C   0  0  0  0  0  0
  -21.3650   -5.6801   24.9192 C   0  0  0  0  0  0
  -21.6047   -4.3065   24.7233 C   0  0  0  0  0  0
  -21.8809   -3.8167   23.4351 C   0  0  0  0  0  0
  -21.9195   -4.6996   22.3415 C   0  0  0  0  0  0
  -22.7823  -13.5231   21.1902 C   0  0  0  0  0  0
  -22.1654   -4.2184   21.0989 F   0  0  0  0  0  0
  -21.5637   -3.4540   25.7739 F   0  0  0  0  0  0
  -29.9424  -13.6974   20.3492 N   0  0  0  0  0  0
  -26.2904  -12.9460   20.3222 N   0  0  0  0  0  0
  -25.9362  -11.6590   20.5755 N   0  0  0  0  0  0
  -22.0456  -12.8218   22.0441 N   0  0  0  0  0  0
  -25.4151  -15.1957   20.4076 N   0  0  0  0  0  0
  -31.7383  -15.0409   20.2278 O   0  0  0  0  0  0
  -21.6635   -6.8928   21.4260 O   0  0  0  0  0  0
  -22.3509  -14.5533   20.6762 O   0  0  0  0  0  0
  -24.6507  -31.8357   23.1864 C   0  0  0  0  0  0
  -25.9244  -32.4642   23.8251 C   0  0  1  0  0  0
  -27.2187  -27.1039   20.1443 C   0  0  0  0  0  0
  -25.5965  -33.8457   24.2161 N   0  0  0  0  0  0
  -23.4571  -30.4561   21.5281 C   0  0  2  0  0  0
  -24.9038  -28.8775   20.1018 C   0  0  0  0  0  0
  -22.7604  -29.4499   22.4792 C   0  0  0  0  0  0
  -18.0312  -28.1395   22.8438 C   0  0  0  0  0  0
  -24.1484  -36.7267   23.2643 C   0  0  0  0  0  0
  -26.0126  -30.6945   21.3900 C   0  0  0  0  0  0
  -26.0785  -29.3049   20.7329 C   0  0  0  0  0  0
  -27.2341  -28.4316   20.7418 C   0  0  0  0  0  0
  -26.0227  -26.7906   19.4621 C   0  0  0  0  0  0
  -24.8882  -27.6331   19.4526 C   0  0  0  0  0  0
  -23.6832  -29.7871   20.1458 C   0  0  0  0  0  0
  -25.4118  -36.3031   24.0315 C   0  0  1  0  0  0
  -20.5928  -28.3747   23.1167 C   0  0  2  0  0  0
  -20.6786  -26.9428   22.5382 C   0  0  0  0  0  0
  -19.5776  -26.6368   21.5179 C   0  0  0  0  0  0
  -18.1951  -26.7923   22.1583 C   0  0  0  0  0  0
  -19.1563  -28.8886   23.2798 C   0  0  0  0  0  0
  -18.9482  -30.1451   23.8866 C   0  0  0  0  0  0
  -17.6480  -30.6587   24.0545 C   0  0  0  0  0  0
  -25.9074  -34.9392   23.5057 C   0  0  0  0  0  0
  -16.5368  -29.9085   23.6309 C   0  0  0  0  0  0
  -16.7294  -28.6500   23.0332 C   0  0  0  0  0  0
  -26.4558  -31.6533   25.0721 C   0  0  0  0  0  0
  -25.3734  -31.3712   26.1413 C   0  0  0  0  0  0
  -27.0421  -30.2931   24.6329 C   0  0  0  0  0  0
  -27.6104  -32.4296   25.7508 C   0  0  0  0  0  0
  -27.5575  -37.1791   24.8469 C   0  0  0  0  0  0
  -21.4298  -29.3069   22.3545 N   0  0  0  0  0  0
  -26.4286  -37.3751   23.9417 N   0  0  0  0  0  0
  -24.7263  -31.0185   22.0909 N   0  0  0  0  0  0
  -23.4220  -28.8012   23.2935 O   0  0  0  0  0  0
  -28.2646  -26.1068   20.2415 O   0  0  0  0  0  0
  -26.5658  -34.8907   22.4640 O   0  0  0  0  0  0
  -23.5604  -32.1226   23.7052 O   0  0  0  0  0  0
  -29.1260  -20.3940   20.6057 C   0  0  0  0  0  0
  -29.2769  -21.7421   19.9633 C   0  0  0  0  0  0
  -29.7124  -19.0974   20.1145 C   0  0  0  0  0  0
  -30.0889  -21.7225   18.7925 C   0  0  0  0  0  0
  -30.4099  -19.2245   18.8889 C   0  0  0  0  0  0
  -30.6642  -20.5048   18.3019 C   0  0  0  0  0  0
  -28.3019  -20.3761   21.8858 C   0  0  0  0  0  0
  -30.3941  -23.0468   18.0748 C   0  0  0  0  0  0
  -30.9463  -17.9561   18.2225 C   0  0  0  0  0  0
  -33.5630  -21.6453   18.3521 C   0  0  0  0  0  0
  -33.8748  -19.8546   16.5848 C   0  0  0  0  0  0
  -28.8543  -23.2410   20.5932 C   0  0  0  0  0  0
  -29.8881  -17.6423   20.9248 C   0  0  0  0  0  0
  -28.1033  -24.5885   19.8687 C   0  0  0  0  0  0
  -32.9841  -20.3710   17.7253 C   0  0  0  0  0  0
  -31.6084  -20.5810   17.2639 N   0  0  0  0  0  0
  -29.6989  -16.1286   20.4818 N   0  0  0  0  0  0
  -31.4814  -12.7747   19.1697 H   0  0  0  0  0  0
  -30.4513  -11.6511   20.0127 H   0  0  0  0  0  0
  -29.8400  -11.7309   17.5683 H   0  0  0  0  0  0
  -29.5962  -13.4538   17.6717 H   0  0  0  0  0  0
  -27.9594  -11.2662   18.9861 H   0  0  0  0  0  0
  -27.3873  -12.4281   17.8178 H   0  0  0  0  0  0
  -27.5891  -14.2463   19.3942 H   0  0  0  0  0  0
  -28.7752  -12.2925   21.4293 H   0  0  0  0  0  0
  -28.3886  -13.9714   21.7500 H   0  0  0  0  0  0
  -25.2823   -9.5649   22.4777 H   0  0  0  0  0  0
  -24.0015   -7.4633   22.7472 H   0  0  0  0  0  0
  -21.0898   -8.8869   19.8943 H   0  0  0  0  0  0
  -22.3838  -10.9719   19.6180 H   0  0  0  0  0  0
  -21.1984   -7.6158   23.9763 H   0  0  0  0  0  0
  -21.1473   -6.0517   25.9105 H   0  0  0  0  0  0
  -22.0593   -2.7624   23.2845 H   0  0  0  0  0  0
  -22.4021  -11.9850   22.4796 H   0  0  0  0  0  0
  -21.1072  -13.1253   22.2649 H   0  0  0  0  0  0
  -24.6430  -15.8465   20.5149 H   0  0  0  0  0  0
  -26.2459  -15.6320   20.0320 H   0  0  0  0  0  0
  -26.7304  -32.5215   23.0967 H   0  0  0  0  0  0
  -25.0101  -33.9496   25.0300 H   0  0  0  0  0  0
  -22.7661  -31.2852   21.3711 H   0  0  0  0  0  0
  -23.3750  -35.9593   23.3297 H   0  0  0  0  0  0
  -24.3577  -36.8916   22.2062 H   0  0  0  0  0  0
  -23.7212  -37.6457   23.6681 H   0  0  0  0  0  0
  -26.1679  -31.4393   20.6081 H   0  0  0  0  0  0
  -26.8877  -30.7497   22.0278 H   0  0  0  0  0  0
  -28.1264  -28.7438   21.2647 H   0  0  0  0  0  0
  -25.9290  -25.8465   18.9470 H   0  0  0  0  0  0
  -23.9947  -27.3032   18.9410 H   0  0  0  0  0  0
  -23.8257  -30.5629   19.3917 H   0  0  0  0  0  0
  -22.7979  -29.2314   19.8313 H   0  0  0  0  0  0
  -25.1290  -36.1888   25.0801 H   0  0  0  0  0  0
  -21.0006  -28.3365   24.1291 H   0  0  0  0  0  0
  -20.5635  -26.2377   23.3621 H   0  0  0  0  0  0
  -21.6652  -26.7383   22.1202 H   0  0  0  0  0  0
  -19.6955  -25.6275   21.1221 H   0  0  0  0  0  0
  -19.6717  -27.3156   20.6689 H   0  0  0  0  0  0
  -17.4202  -26.6610   21.4005 H   0  0  0  0  0  0
  -18.0386  -26.0086   22.9009 H   0  0  0  0  0  0
  -19.7972  -30.7234   24.2274 H   0  0  0  0  0  0
  -17.5058  -31.6274   24.5139 H   0  0  0  0  0  0
  -15.5378  -30.2984   23.7681 H   0  0  0  0  0  0
  -15.8679  -28.0824   22.7074 H   0  0  0  0  0  0
  -24.5974  -30.6983   25.7759 H   0  0  0  0  0  0
  -24.8827  -32.2855   26.4757 H   0  0  0  0  0  0
  -25.8008  -30.8972   27.0258 H   0  0  0  0  0  0
  -26.3026  -29.6657   24.1350 H   0  0  0  0  0  0
  -27.4040  -29.7249   25.4907 H   0  0  0  0  0  0
  -27.8941  -30.4169   23.9647 H   0  0  0  0  0  0
  -27.2750  -33.3665   26.1976 H   0  0  0  0  0  0
  -28.3991  -32.6733   25.0377 H   0  0  0  0  0  0
  -28.0703  -31.8475   26.5507 H   0  0  0  0  0  0
  -28.2587  -38.0096   24.7527 H   0  0  0  0  0  0
  -28.1065  -36.2621   24.6279 H   0  0  0  0  0  0
  -27.2291  -37.1436   25.8871 H   0  0  0  0  0  0
  -20.9543  -29.8851   21.6757 H   0  0  0  0  0  0
  -26.0166  -38.2830   24.1423 H   0  0  0  0  0  0
  -28.7738  -20.9867   22.6570 H   0  0  0  0  0  0
  -28.1296  -19.3853   22.3028 H   0  0  0  0  0  0
  -27.3146  -20.7886   21.6769 H   0  0  0  0  0  0
  -30.5835  -23.8619   18.7741 H   0  0  0  0  0  0
  -29.5618  -23.3187   17.4267 H   0  0  0  0  0  0
  -31.2751  -23.0318   17.4365 H   0  0  0  0  0  0
  -30.1625  -17.2015   18.1597 H   0  0  0  0  0  0
  -31.7887  -17.5482   18.7822 H   0  0  0  0  0  0
  -31.2661  -18.1131   17.1932 H   0  0  0  0  0  0
  -34.5399  -21.4512   18.7942 H   0  0  0  0  0  0
  -32.9320  -22.0307   19.1540 H   0  0  0  0  0  0
  -33.6872  -22.4354   17.6095 H   0  0  0  0  0  0
  -34.9110  -19.7451   16.9121 H   0  0  0  0  0  0
  -33.8721  -20.5279   15.7261 H   0  0  0  0  0  0
  -33.5446  -18.8757   16.2391 H   0  0  0  0  0  0
  -29.8003  -23.6254   20.9700 H   0  0  0  0  0  0
  -28.2928  -23.0521   21.5058 H   0  0  0  0  0  0
  -29.2908  -17.7048   21.8299 H   0  0  0  0  0  0
  -30.9151  -17.6806   21.2926 H   0  0  0  0  0  0
  -27.0427  -24.3497   19.9314 H   0  0  0  0  0  0
  -28.3077  -24.5652   18.8010 H   0  0  0  0  0  0
  -32.9919  -19.6116   18.5098 H   0  0  0  0  0  0
  -31.5155  -21.4296   16.7170 H   0  0  0  0  0  0
  -28.7207  -15.8838   20.4453 H   0  0  0  0  0  0
  1 25  1  0  0  0
  1 30  2  0  0  0
  1 87  1  0  0  0
  2  3  1  0  0  0
  2 25  1  0  0  0
  2 88  1  0  0  0
  2 89  1  0  0  0
  3  4  1  0  0  0
  3 90  1  0  0  0
  3 91  1  0  0  0
  4  5  1  0  0  0
  4 92  1  0  0  0
  4 93  1  0  0  0
  5  6  1  0  0  0
  5 26  1  0  0  0
  5 94  1  0  0  0
  6 25  1  0  0  0
  6 95  1  0  0  0
  6 96  1  0  0  0
  7  8  2  0  0  0
  7 26  1  0  0  0
  7 29  1  0  0  0
  8  9  1  0  0  0
  8 22  1  0  0  0
  9 10  1  0  0  0
  9 27  2  0  0  0
 10 11  2  0  0  0
 10 15  1  0  0  0
 11 12  1  0  0  0
 11 97  1  0  0  0
 12 13  2  0  0  0
 12 98  1  0  0  0
 13 14  1  0  0  0
 13 31  1  0  0  0
 14 15  2  0  0  0
 14 99  1  0  0  0
 15100  1  0  0  0
 16 17  2  0  0  0
 16 21  1  0  0  0
 16 31  1  0  0  0
 17 18  1  0  0  0
 17101  1  0  0  0
 18 19  2  0  0  0
 18102  1  0  0  0
 19 20  1  0  0  0
 19 24  1  0  0  0
 20 21  2  0  0  0
 20103  1  0  0  0
 21 23  1  0  0  0
 22 28  1  0  0  0
 22 32  2  0  0  0
 26 27  1  0  0  0
 28104  1  0  0  0
 28105  1  0  0  0
 29106  1  0  0  0
 29107  1  0  0  0
 33 34  1  0  0  0
 33 66  1  0  0  0
 33 70  2  0  0  0
 34 36  1  0  0  0
 34 59  1  0  0  0
 34108  1  0  0  0
 35 44  2  0  0  0
 35 45  1  0  0  0
 35 68  1  0  0  0
 36 56  1  0  0  0
 36109  1  0  0  0
 37 39  1  0  0  0
 37 47  1  0  0  0
 37 66  1  0  0  0
 37110  1  0  0  0
 38 43  2  0  0  0
 38 46  1  0  0  0
 38 47  1  0  0  0
 39 64  1  0  0  0
 39 67  2  0  0  0
 40 52  1  0  0  0
 40 53  2  0  0  0
 40 58  1  0  0  0
 41111  1  0  0  0
 41112  1  0  0  0
 41113  1  0  0  0
 41 48  1  0  0  0
 42 43  1  0  0  0
 42 66  1  0  0  0
 42114  1  0  0  0
 42115  1  0  0  0
 43 44  1  0  0  0
 44116  1  0  0  0
 45 46  2  0  0  0
 45117  1  0  0  0
 46118  1  0  0  0
 47119  1  0  0  0
 47120  1  0  0  0
 48 56  1  0  0  0
 48 65  1  0  0  0
 48121  1  0  0  0
 49 50  1  0  0  0
 49 53  1  0  0  0
 49 64  1  0  0  0
 49122  1  0  0  0
 50 51  1  0  0  0
 50123  1  0  0  0
 50124  1  0  0  0
 51 52  1  0  0  0
 51125  1  0  0  0
 51126  1  0  0  0
 52127  1  0  0  0
 52128  1  0  0  0
 53 54  1  0  0  0
 54 55  2  0  0  0
 54129  1  0  0  0
 55 57  1  0  0  0
 55130  1  0  0  0
 56 69  2  0  0  0
 57 58  2  0  0  0
 57131  1  0  0  0
 58132  1  0  0  0
 59 60  1  0  0  0
 59 61  1  0  0  0
 59 62  1  0  0  0
 60133  1  0  0  0
 60134  1  0  0  0
 60135  1  0  0  0
 61136  1  0  0  0
 61137  1  0  0  0
 61138  1  0  0  0
 62139  1  0  0  0
 62140  1  0  0  0
 62141  1  0  0  0
 63 65  1  0  0  0
 63142  1  0  0  0
 63143  1  0  0  0
 63144  1  0  0  0
 64145  1  0  0  0
 65146  1  0  0  0
 68 84  1  0  0  0
 71 72  2  0  0  0
 71 73  1  0  0  0
 71 77  1  0  0  0
 72 74  1  0  0  0
 72 82  1  0  0  0
 73 75  2  0  0  0
 73 83  1  0  0  0
 74 76  2  0  0  0
 74 78  1  0  0  0
 75 76  1  0  0  0
 75 79  1  0  0  0
 76 86  1  0  0  0
 77147  1  0  0  0
 77148  1  0  0  0
 77149  1  0  0  0
 78150  1  0  0  0
 78151  1  0  0  0
 78152  1  0  0  0
 79153  1  0  0  0
 79154  1  0  0  0
 79155  1  0  0  0
 80156  1  0  0  0
 80157  1  0  0  0
 80158  1  0  0  0
 80 85  1  0  0  0
 81 85  1  0  0  0
 81159  1  0  0  0
 81160  1  0  0  0
 81161  1  0  0  0
 82 84  1  0  0  0
 82162  1  0  0  0
 82163  1  0  0  0
 83 87  1  0  0  0
 83164  1  0  0  0
 83165  1  0  0  0
 84166  1  0  0  0
 84167  1  0  0  0
 85 86  1  0  0  0
 85168  1  0  0  0
 86169  1  0  0  0
 87170  1  0  0  0
M  ISO  4   1 100  68 101  84 101  87 100
M  END
> <chiral flag>
0

> <version>
0

> <s_m_source_file>
/data/baiqing/PycharmProjects/Reinvent-master-3.2/result/LINK_invent/BTK/process_docking_weight1_custom_sum_contain_oxygen_bond_distance_aromatic_linkinvent_7_9_3/rearranged_h_0019.sdf

> <i_m_source_file_index>
84

> <r_mmod_Potential_Energy-OPLS-2005>
507.178375244141

> <r_mmod_Stretch_Energy-OPLS-2005>
303.06298828125

> <r_mmod_Bend_Energy-OPLS-2005>
291.294555664062

> <r_mmod_Torsional_Energy-OPLS-2005>
246.965301513672

> <r_mmod_Improper_Torsional_Energy-OPLS-2005>
13.7221727371216

> <r_mmod_Van_der_Waal_Energy-OPLS-2005>
152.224502563477

> <r_mmod_Electrostatic_Energy-OPLS-2005>
-501.81982421875

> <r_mmod_Solvation_Energy-OPLS-2005>
-215.637481689453

> <b_mmod_Minimization_Converged-OPLS-2005>
0

> <r_mmod_RMS_Derivative-OPLS-2005>
4.13200902938843

$$$$
84
                    3D
 Structure written by MMmdl.
159167  0  0  1  0            999 V2000
  -30.4481  -15.3171   20.3632 C   0  0  0  0  0  0
  -30.4272  -12.8415   19.5369 C   0  0  0  0  0  0
  -29.5355  -12.5883   18.2958 C   0  0  0  0  0  0
  -28.0869  -12.3029   18.7228 C   0  0  0  0  0  0
  -27.6065  -13.2851   19.8201 C   0  0  2  0  0  0
  -28.6354  -13.4957   20.9534 C   0  0  0  0  0  0
  -25.2359  -13.8264   20.5748 C   0  0  0  0  0  0
  -24.1723  -13.0441   20.9262 C   0  0  0  0  0  0
  -24.6393  -11.6945   20.8761 C   0  0  0  0  0  0
  -23.9095  -10.4298   21.0400 C   0  0  0  0  0  0
  -24.3638   -9.4210   21.9175 C   0  0  0  0  0  0
  -23.6308   -8.2249   22.0748 C   0  0  0  0  0  0
  -22.4288   -8.0286   21.3542 C   0  0  0  0  0  0
  -21.9928   -9.0258   20.4642 C   0  0  0  0  0  0
  -22.7266  -10.2135   20.3051 C   0  0  0  0  0  0
  -21.6855   -6.0736   22.5277 C   0  0  0  0  0  0
  -21.4019   -6.5639   23.8212 C   0  0  0  0  0  0
  -21.3662   -5.6790   24.9172 C   0  0  0  0  0  0
  -21.6047   -4.3054   24.7222 C   0  0  0  0  0  0
  -21.8819   -3.8145   23.4344 C   0  0  0  0  0  0
  -21.9193   -4.6963   22.3401 C   0  0  0  0  0  0
  -22.7737  -13.5186   21.1903 C   0  0  0  0  0  0
  -22.1657   -4.2149   21.0977 F   0  0  0  0  0  0
  -21.5632   -3.4536   25.7734 F   0  0  0  0  0  0
  -29.8635  -14.0104   20.3225 N   0  0  0  0  0  0
  -26.2792  -12.9558   20.3216 N   0  0  0  0  0  0
  -25.9333  -11.6653   20.5712 N   0  0  0  0  0  0
  -22.0393  -12.8174   22.0461 N   0  0  0  0  0  0
  -25.3981  -15.2000   20.4189 N   0  0  0  0  0  0
  -31.6607  -15.2370   20.1275 O   0  0  0  0  0  0
  -21.6649   -6.8883   21.4242 O   0  0  0  0  0  0
  -22.3414  -14.5480   20.6734 O   0  0  0  0  0  0
  -24.6646  -31.8198   23.1664 C   0  0  0  0  0  0
  -25.9318  -32.4564   23.8144 C   0  0  1  0  0  0
  -27.2225  -26.8990   20.1859 C   0  0  0  0  0  0
  -25.5973  -33.8382   24.2048 N   0  0  0  0  0  0
  -23.4810  -30.4277   21.5156 C   0  0  2  0  0  0
  -24.9356  -28.8073   20.1060 C   0  0  0  0  0  0
  -22.7680  -29.4412   22.4772 C   0  0  0  0  0  0
  -18.0321  -28.1407   22.8462 C   0  0  0  0  0  0
  -24.1495  -36.7201   23.2649 C   0  0  0  0  0  0
  -26.0497  -30.6150   21.4018 C   0  0  0  0  0  0
  -26.1158  -29.2015   20.7465 C   0  0  0  0  0  0
  -27.2478  -28.2664   20.7652 C   0  0  0  0  0  0
  -26.0181  -26.6642   19.4854 C   0  0  0  0  0  0
  -24.9139  -27.5607   19.4552 C   0  0  0  0  0  0
  -23.7218  -29.7380   20.1423 C   0  0  0  0  0  0
  -25.4138  -36.2955   24.0297 C   0  0  1  0  0  0
  -20.5946  -28.3752   23.1185 C   0  0  2  0  0  0
  -20.6795  -26.9431   22.5405 C   0  0  0  0  0  0
  -19.5770  -26.6371   21.5216 C   0  0  0  0  0  0
  -18.1952  -26.7938   22.1621 C   0  0  0  0  0  0
  -19.1583  -28.8902   23.2806 C   0  0  0  0  0  0
  -18.9495  -30.1492   23.8839 C   0  0  0  0  0  0
  -17.6488  -30.6595   24.0552 C   0  0  0  0  0  0
  -25.9104  -34.9339   23.4999 C   0  0  0  0  0  0
  -16.5377  -29.9082   23.6342 C   0  0  0  0  0  0
  -16.7304  -28.6504   23.0358 C   0  0  0  0  0  0
  -26.4560  -31.6522   25.0691 C   0  0  0  0  0  0
  -25.3682  -31.3788   26.1347 C   0  0  0  0  0  0
  -27.0464  -30.2882   24.6455 C   0  0  0  0  0  0
  -27.6039  -32.4346   25.7497 C   0  0  0  0  0  0
  -27.5569  -37.1757   24.8464 C   0  0  0  0  0  0
  -21.4347  -29.3033   22.3529 N   0  0  0  0  0  0
  -26.4278  -37.3696   23.9407 N   0  0  0  0  0  0
  -24.7530  -30.9830   22.0810 N   0  0  0  0  0  0
  -23.4216  -28.8000   23.3038 O   0  0  0  0  0  0
  -28.2280  -25.7964   20.3327 O   0  0  0  0  0  0
  -26.5726  -34.8882   22.4604 O   0  0  0  0  0  0
  -23.5712  -32.1185   23.6740 O   0  0  0  0  0  0
  -31.6432  -20.1598   20.3704 C   0  0  0  0  0  0
  -30.7265  -21.2356   20.2933 C   0  0  0  0  0  0
  -31.3380  -18.7764   20.5168 C   0  0  0  0  0  0
  -29.3282  -21.0381   20.3493 C   0  0  0  0  0  0
  -29.9947  -18.2741   20.4351 C   0  0  0  0  0  0
  -29.0267  -19.5028   20.3940 C   0  0  0  0  0  0
  -31.3135  -22.6379   20.2334 C   0  0  0  0  0  0
  -34.6714  -17.3687   22.1146 C   0  0  0  0  0  0
  -32.5217  -17.8565   20.8298 C   0  0  0  0  0  0
  -28.3762  -22.5189   20.5628 C   0  0  0  0  0  0
  -28.3062  -24.2015   19.8450 C   0  0  0  0  0  0
  -33.7771  -18.4608   21.5092 C   0  0  0  0  0  0
  -29.7284  -16.6391   20.4646 N   0  0  0  0  0  0
  -34.5212  -19.1290   20.6270 F   0  0  0  0  0  0
  -33.4295  -19.2774   22.5055 F   0  0  0  0  0  0
  -27.3517  -19.0936   20.4396 Cl  0  0  0  0  0  0
  -31.4497  -13.0255   19.2048 H   0  0  0  0  0  0
  -30.4861  -11.9461   20.1588 H   0  0  0  0  0  0
  -29.9274  -11.7585   17.7067 H   0  0  0  0  0  0
  -29.5598  -13.4655   17.6471 H   0  0  0  0  0  0
  -28.0508  -11.2820   19.1047 H   0  0  0  0  0  0
  -27.4201  -12.3299   17.8601 H   0  0  0  0  0  0
  -27.5113  -14.2436   19.3081 H   0  0  0  0  0  0
  -28.8117  -12.5756   21.5124 H   0  0  0  0  0  0
  -28.2614  -14.2286   21.6702 H   0  0  0  0  0  0
  -25.2778   -9.5693   22.4753 H   0  0  0  0  0  0
  -24.0016   -7.4643   22.7475 H   0  0  0  0  0  0
  -21.0855   -8.8783   19.8952 H   0  0  0  0  0  0
  -22.3716  -10.9672   19.6163 H   0  0  0  0  0  0
  -21.2012   -7.6144   23.9717 H   0  0  0  0  0  0
  -21.1485   -6.0516   25.9077 H   0  0  0  0  0  0
  -22.0595   -2.7608   23.2840 H   0  0  0  0  0  0
  -22.4016  -11.9858   22.4885 H   0  0  0  0  0  0
  -21.0998  -13.1179   22.2641 H   0  0  0  0  0  0
  -24.6280  -15.8490   20.5388 H   0  0  0  0  0  0
  -26.2383  -15.6461   20.0762 H   0  0  0  0  0  0
  -26.7392  -32.5086   23.0859 H   0  0  0  0  0  0
  -25.0049  -33.9451   25.0150 H   0  0  0  0  0  0
  -22.7953  -31.2596   21.3419 H   0  0  0  0  0  0
  -23.3767  -35.9519   23.3277 H   0  0  0  0  0  0
  -24.3569  -36.8886   22.2068 H   0  0  0  0  0  0
  -23.7244  -37.6375   23.6732 H   0  0  0  0  0  0
  -26.2346  -31.3540   20.6208 H   0  0  0  0  0  0
  -26.9083  -30.6716   22.0590 H   0  0  0  0  0  0
  -28.1355  -28.5626   21.3062 H   0  0  0  0  0  0
  -25.8880  -25.7095   18.9975 H   0  0  0  0  0  0
  -24.0175  -27.2533   18.9341 H   0  0  0  0  0  0
  -23.8771  -30.5050   19.3828 H   0  0  0  0  0  0
  -22.8309  -29.1927   19.8263 H   0  0  0  0  0  0
  -25.1337  -36.1744   25.0788 H   0  0  0  0  0  0
  -21.0027  -28.3361   24.1312 H   0  0  0  0  0  0
  -20.5669  -26.2375   23.3651 H   0  0  0  0  0  0
  -21.6660  -26.7400   22.1219 H   0  0  0  0  0  0
  -19.6933  -25.6269   21.1279 H   0  0  0  0  0  0
  -19.6709  -27.3153   20.6725 H   0  0  0  0  0  0
  -17.4224  -26.6678   21.4022 H   0  0  0  0  0  0
  -18.0344  -26.0090   22.9028 H   0  0  0  0  0  0
  -19.7972  -30.7321   24.2181 H   0  0  0  0  0  0
  -17.5040  -31.6269   24.5169 H   0  0  0  0  0  0
  -15.5374  -30.2968   23.7697 H   0  0  0  0  0  0
  -15.8705  -28.0808   22.7101 H   0  0  0  0  0  0
  -24.5859  -30.7145   25.7659 H   0  0  0  0  0  0
  -24.8879  -32.2998   26.4663 H   0  0  0  0  0  0
  -25.7905  -30.9019   27.0201 H   0  0  0  0  0  0
  -26.3140  -29.6542   24.1445 H   0  0  0  0  0  0
  -27.3963  -29.7266   25.5128 H   0  0  0  0  0  0
  -27.9094  -30.4054   23.9898 H   0  0  0  0  0  0
  -27.2588  -33.3683   26.1954 H   0  0  0  0  0  0
  -28.3910  -32.6854   25.0374 H   0  0  0  0  0  0
  -28.0644  -31.8559   26.5516 H   0  0  0  0  0  0
  -28.2566  -38.0071   24.7510 H   0  0  0  0  0  0
  -28.1084  -36.2597   24.6290 H   0  0  0  0  0  0
  -27.2286  -37.1398   25.8867 H   0  0  0  0  0  0
  -20.9614  -29.8711   21.6639 H   0  0  0  0  0  0
  -26.0122  -38.2754   24.1408 H   0  0  0  0  0  0
  -32.6820  -20.4456   20.3787 H   0  0  0  0  0  0
  -32.3912  -22.6346   20.4006 H   0  0  0  0  0  0
  -30.8849  -23.2877   20.9964 H   0  0  0  0  0  0
  -31.1439  -23.0779   19.2513 H   0  0  0  0  0  0
  -34.9999  -16.6594   21.3547 H   0  0  0  0  0  0
  -34.1452  -16.8063   22.8867 H   0  0  0  0  0  0
  -35.5621  -17.7989   22.5727 H   0  0  0  0  0  0
  -32.8254  -17.3474   19.9158 H   0  0  0  0  0  0
  -32.1495  -17.1262   21.5441 H   0  0  0  0  0  0
  -28.5257  -22.7135   21.6244 H   0  0  0  0  0  0
  -27.3460  -22.1647   20.5280 H   0  0  0  0  0  0
  -27.5430  -24.1257   19.0715 H   0  0  0  0  0  0
  -29.2161  -24.2442   19.2508 H   0  0  0  0  0  0
  -28.7418  -16.4499   20.5600 H   0  0  0  0  0  0
  1 25  1  0  0  0
  1 30  2  0  0  0
  1 83  1  0  0  0
  2  3  1  0  0  0
  2 25  1  0  0  0
  2 87  1  0  0  0
  2 88  1  0  0  0
  3  4  1  0  0  0
  3 89  1  0  0  0
  3 90  1  0  0  0
  4  5  1  0  0  0
  4 91  1  0  0  0
  4 92  1  0  0  0
  5  6  1  0  0  0
  5 26  1  0  0  0
  5 93  1  0  0  0
  6 25  1  0  0  0
  6 94  1  0  0  0
  6 95  1  0  0  0
  7  8  2  0  0  0
  7 26  1  0  0  0
  7 29  1  0  0  0
  8  9  1  0  0  0
  8 22  1  0  0  0
  9 10  1  0  0  0
  9 27  2  0  0  0
 10 11  2  0  0  0
 10 15  1  0  0  0
 11 12  1  0  0  0
 11 96  1  0  0  0
 12 13  2  0  0  0
 12 97  1  0  0  0
 13 14  1  0  0  0
 13 31  1  0  0  0
 14 15  2  0  0  0
 14 98  1  0  0  0
 15 99  1  0  0  0
 16 17  2  0  0  0
 16 21  1  0  0  0
 16 31  1  0  0  0
 17 18  1  0  0  0
 17100  1  0  0  0
 18 19  2  0  0  0
 18101  1  0  0  0
 19 20  1  0  0  0
 19 24  1  0  0  0
 20 21  2  0  0  0
 20102  1  0  0  0
 21 23  1  0  0  0
 22 28  1  0  0  0
 22 32  2  0  0  0
 26 27  1  0  0  0
 28103  1  0  0  0
 28104  1  0  0  0
 29105  1  0  0  0
 29106  1  0  0  0
 33 34  1  0  0  0
 33 66  1  0  0  0
 33 70  2  0  0  0
 34 36  1  0  0  0
 34 59  1  0  0  0
 34107  1  0  0  0
 35 44  2  0  0  0
 35 45  1  0  0  0
 35 68  1  0  0  0
 36 56  1  0  0  0
 36108  1  0  0  0
 37 39  1  0  0  0
 37 47  1  0  0  0
 37 66  1  0  0  0
 37109  1  0  0  0
 38 43  2  0  0  0
 38 46  1  0  0  0
 38 47  1  0  0  0
 39 64  1  0  0  0
 39 67  2  0  0  0
 40 52  1  0  0  0
 40 53  2  0  0  0
 40 58  1  0  0  0
 41110  1  0  0  0
 41111  1  0  0  0
 41112  1  0  0  0
 41 48  1  0  0  0
 42 43  1  0  0  0
 42 66  1  0  0  0
 42113  1  0  0  0
 42114  1  0  0  0
 43 44  1  0  0  0
 44115  1  0  0  0
 45 46  2  0  0  0
 45116  1  0  0  0
 46117  1  0  0  0
 47118  1  0  0  0
 47119  1  0  0  0
 48 56  1  0  0  0
 48 65  1  0  0  0
 48120  1  0  0  0
 49 50  1  0  0  0
 49 53  1  0  0  0
 49 64  1  0  0  0
 49121  1  0  0  0
 50 51  1  0  0  0
 50122  1  0  0  0
 50123  1  0  0  0
 51 52  1  0  0  0
 51124  1  0  0  0
 51125  1  0  0  0
 52126  1  0  0  0
 52127  1  0  0  0
 53 54  1  0  0  0
 54 55  2  0  0  0
 54128  1  0  0  0
 55 57  1  0  0  0
 55129  1  0  0  0
 56 69  2  0  0  0
 57 58  2  0  0  0
 57130  1  0  0  0
 58131  1  0  0  0
 59 60  1  0  0  0
 59 61  1  0  0  0
 59 62  1  0  0  0
 60132  1  0  0  0
 60133  1  0  0  0
 60134  1  0  0  0
 61135  1  0  0  0
 61136  1  0  0  0
 61137  1  0  0  0
 62138  1  0  0  0
 62139  1  0  0  0
 62140  1  0  0  0
 63 65  1  0  0  0
 63141  1  0  0  0
 63142  1  0  0  0
 63143  1  0  0  0
 64144  1  0  0  0
 65145  1  0  0  0
 68 81  1  0  0  0
 71 72  2  0  0  0
 71 73  1  0  0  0
 71146  1  0  0  0
 72 74  1  0  0  0
 72 77  1  0  0  0
 73 75  2  0  0  0
 73 79  1  0  0  0
 74 76  2  0  0  0
 74 80  1  0  0  0
 75 76  1  0  0  0
 75 83  1  0  0  0
 76 86  1  0  0  0
 77147  1  0  0  0
 77148  1  0  0  0
 77149  1  0  0  0
 78150  1  0  0  0
 78151  1  0  0  0
 78152  1  0  0  0
 78 82  1  0  0  0
 79 82  1  0  0  0
 79153  1  0  0  0
 79154  1  0  0  0
 80 81  1  0  0  0
 80155  1  0  0  0
 80156  1  0  0  0
 81157  1  0  0  0
 81158  1  0  0  0
 82 84  1  0  0  0
 82 85  1  0  0  0
 83159  1  0  0  0
M  ISO  4   1 100  68 101  81 101  83 100
M  END
> <chiral flag>
0

> <version>
0

> <s_m_source_file>
/data/baiqing/PycharmProjects/Reinvent-master-3.2/result/LINK_invent/BTK/process_docking_weight1_custom_sum_contain_oxygen_bond_distance_aromatic_linkinvent_7_9_3/rearranged_h_0019.sdf

> <i_m_source_file_index>
85

> <r_mmod_Potential_Energy-OPLS-2005>
1466.36010742188

> <r_mmod_Stretch_Energy-OPLS-2005>
676.45654296875

> <r_mmod_Bend_Energy-OPLS-2005>
490.706573486328

> <r_mmod_Torsional_Energy-OPLS-2005>
236.81315612793

> <r_mmod_Improper_Torsional_Energy-OPLS-2005>
5.48609304428101

> <r_mmod_Van_der_Waal_Energy-OPLS-2005>
145.7099609375

> <r_mmod_Electrostatic_Energy-OPLS-2005>
-399.967803955078

> <r_mmod_Solvation_Energy-OPLS-2005>
-191.085205078125

> <b_mmod_Minimization_Converged-OPLS-2005>
0

> <r_mmod_RMS_Derivative-OPLS-2005>
0.813170790672302

$$$$
85
                    3D
 Structure written by MMmdl.
180188  0  0  1  0            999 V2000
  -29.7833  -15.4701   20.4230 C   0  0  0  0  0  0
  -30.3613  -12.9990   19.6050 C   0  0  0  0  0  0
  -29.5277  -12.6362   18.3423 C   0  0  0  0  0  0
  -28.0781  -12.2750   18.7213 C   0  0  0  0  0  0
  -27.5407  -13.2299   19.8125 C   0  0  2  0  0  0
  -28.4875  -13.3590   21.0023 C   0  0  0  0  0  0
  -25.2068  -13.8118   20.5636 C   0  0  0  0  0  0
  -24.1476  -13.0370   20.9295 C   0  0  0  0  0  0
  -24.6091  -11.6845   20.8766 C   0  0  0  0  0  0
  -23.8878  -10.4236   21.0453 C   0  0  0  0  0  0
  -24.3512   -9.4174   21.9215 C   0  0  0  0  0  0
  -23.6238   -8.2184   22.0751 C   0  0  0  0  0  0
  -22.4218   -8.0217   21.3545 C   0  0  0  0  0  0
  -21.9815   -9.0168   20.4646 C   0  0  0  0  0  0
  -22.7082  -10.2072   20.3082 C   0  0  0  0  0  0
  -21.6828   -6.0696   22.5284 C   0  0  0  0  0  0
  -21.3992   -6.5617   23.8213 C   0  0  0  0  0  0
  -21.3647   -5.6776   24.9182 C   0  0  0  0  0  0
  -21.6052   -4.3044   24.7234 C   0  0  0  0  0  0
  -21.8820   -3.8122   23.4361 C   0  0  0  0  0  0
  -21.9190   -4.6929   22.3411 C   0  0  0  0  0  0
  -22.7559  -13.5183   21.2002 C   0  0  0  0  0  0
  -22.1657   -4.2112   21.0985 F   0  0  0  0  0  0
  -21.5630   -3.4536   25.7750 F   0  0  0  0  0  0
  -29.6164  -14.0467   20.4285 N   0  0  0  0  0  0
  -26.2221  -12.9214   20.2827 N   0  0  0  0  0  0
  -25.8902  -11.6400   20.5498 N   0  0  0  0  0  0
  -22.0237  -12.8175   22.0565 N   0  0  0  0  0  0
  -25.3857  -15.1855   20.4082 N   0  0  0  0  0  0
  -30.9863  -15.6968   20.1324 O   0  0  0  0  0  0
  -21.6606   -6.8814   21.4236 O   0  0  0  0  0  0
  -22.3299  -14.5526   20.6862 O   0  0  0  0  0  0
  -24.6493  -31.9306   23.2110 C   0  0  0  0  0  0
  -25.9393  -32.5059   23.8523 C   0  0  1  0  0  0
  -26.8593  -27.3465   20.1639 C   0  0  0  0  0  0
  -25.6240  -33.8812   24.2525 N   0  0  0  0  0  0
  -23.4465  -30.5716   21.5718 C   0  0  2  0  0  0
  -24.8089  -29.1200   19.9950 C   0  0  0  0  0  0
  -22.9959  -29.4923   22.5583 C   0  0  0  0  0  0
  -18.4031  -28.0132   22.1625 C   0  0  0  0  0  0
  -24.1509  -36.7364   23.2613 C   0  0  0  0  0  0
  -25.9668  -30.8573   21.3763 C   0  0  0  0  0  0
  -25.9704  -29.5109   20.6790 C   0  0  0  0  0  0
  -27.0476  -28.6055   20.7742 C   0  0  0  0  0  0
  -25.8993  -27.1280   19.1876 C   0  0  0  0  0  0
  -24.7938  -27.9667   19.1967 C   0  0  0  0  0  0
  -23.5909  -29.9885   20.1412 C   0  0  0  0  0  0
  -25.4123  -36.3218   24.0351 C   0  0  1  0  0  0
  -21.1590  -28.1444   23.4183 C   0  0  2  0  0  0
  -21.4975  -25.9448   23.6752 C   0  0  0  0  0  0
  -19.7869  -24.8601   22.5814 C   0  0  0  0  0  0
  -18.4696  -26.2304   21.7033 C   0  0  0  0  0  0
  -19.5609  -28.8152   22.8677 C   0  0  0  0  0  0
  -19.1865  -30.0223   23.5689 C   0  0  0  0  0  0
  -17.8601  -30.4645   23.7765 C   0  0  0  0  0  0
  -25.9110  -34.9595   23.5164 C   0  0  0  0  0  0
  -16.8044  -29.7166   23.2372 C   0  0  0  0  0  0
  -17.0834  -28.5637   22.4427 C   0  0  0  0  0  0
  -26.4555  -31.6656   25.0822 C   0  0  0  0  0  0
  -25.3693  -31.3721   26.1438 C   0  0  0  0  0  0
  -27.0349  -30.3097   24.6178 C   0  0  0  0  0  0
  -27.6133  -32.4241   25.7687 C   0  0  0  0  0  0
  -27.5606  -37.1882   24.8464 C   0  0  0  0  0  0
  -21.7752  -29.0469   22.4542 N   0  0  0  0  0  0
  -26.4308  -37.3891   23.9423 N   0  0  0  0  0  0
  -24.7054  -31.1683   22.0833 N   0  0  0  0  0  0
  -23.7390  -28.9926   23.3994 O   0  0  0  0  0  0
  -27.0365  -26.2297   20.8930 O   0  0  0  0  0  0
  -26.5522  -34.9016   22.4641 O   0  0  0  0  0  0
  -23.5668  -32.1958   23.7577 O   0  0  0  0  0  0
  -22.6451  -26.5294   21.4225 C   0  0  0  0  0  0
  -21.1075  -25.4422   20.4640 C   0  0  0  0  0  0
  -24.0164  -25.2143   21.3476 C   0  0  1  0  0  0
  -23.8120  -23.7133   20.6058 C   0  0  2  0  0  0
  -22.1303  -23.9295   20.4242 C   0  0  0  0  0  0
  -21.9368  -23.5782   18.9234 C   0  0  0  0  0  0
  -21.5803  -22.6610   21.1373 C   0  0  0  0  0  0
  -17.8413  -26.1236   24.2029 C   0  0  0  0  0  0
  -19.6096  -27.3774   25.3296 C   0  0  0  0  0  0
  -25.0808  -20.6603   18.9921 C   0  0  0  0  0  0
  -25.7661  -25.3249   21.1468 C   0  0  0  0  0  0
  -26.6326  -19.3936   20.8752 C   0  0  0  0  0  0
  -28.0173  -18.1540   20.2916 C   0  0  0  0  0  0
  -19.3844  -26.6573   23.8577 C   0  0  0  0  0  0
  -25.7540  -21.0383   20.3192 C   0  0  2  0  0  0
  -28.6209  -16.5044   20.5969 N   0  0  0  0  0  0
  -20.8603  -26.6089   21.6559 N   0  3  2  0  0  0
  -24.6543  -22.2083   21.0480 N   0  3  0  0  0  0
  -31.3405  -13.3756   19.3053 H   0  0  0  0  0  0
  -30.5662  -12.1099   20.2025 H   0  0  0  0  0  0
  -29.9935  -11.8192   17.7887 H   0  0  0  0  0  0
  -29.5119  -13.4946   17.6723 H   0  0  0  0  0  0
  -28.0737  -11.2519   19.0987 H   0  0  0  0  0  0
  -27.4321  -12.2756   17.8422 H   0  0  0  0  0  0
  -27.4588  -14.1954   19.3109 H   0  0  0  0  0  0
  -28.7404  -12.3899   21.4373 H   0  0  0  0  0  0
  -28.0455  -13.9580   21.8020 H   0  0  0  0  0  0
  -25.2671   -9.5665   22.4774 H   0  0  0  0  0  0
  -23.9973   -7.4568   22.7447 H   0  0  0  0  0  0
  -21.0755   -8.8660   19.8941 H   0  0  0  0  0  0
  -22.3551  -10.9612   19.6188 H   0  0  0  0  0  0
  -21.1973   -7.6124   23.9718 H   0  0  0  0  0  0
  -21.1476   -6.0503   25.9093 H   0  0  0  0  0  0
  -22.0618   -2.7585   23.2869 H   0  0  0  0  0  0
  -22.3852  -11.9823   22.4907 H   0  0  0  0  0  0
  -21.0870  -13.1190   22.2837 H   0  0  0  0  0  0
  -24.5907  -15.8097   20.5000 H   0  0  0  0  0  0
  -26.1208  -15.5750   19.8323 H   0  0  0  0  0  0
  -26.7505  -32.5712   23.1308 H   0  0  0  0  0  0
  -25.0507  -33.9931   25.0760 H   0  0  0  0  0  0
  -22.6682  -31.3384   21.5302 H   0  0  0  0  0  0
  -23.3796  -35.9674   23.3282 H   0  0  0  0  0  0
  -24.3604  -36.8975   22.2025 H   0  0  0  0  0  0
  -23.7230  -37.6570   23.6591 H   0  0  0  0  0  0
  -26.1453  -31.6364   20.6336 H   0  0  0  0  0  0
  -26.8410  -30.8546   22.0156 H   0  0  0  0  0  0
  -27.8288  -28.7704   21.5042 H   0  0  0  0  0  0
  -25.8186  -26.1849   18.6691 H   0  0  0  0  0  0
  -23.9280  -27.7201   18.5972 H   0  0  0  0  0  0
  -23.6870  -30.8126   19.4325 H   0  0  0  0  0  0
  -22.6923  -29.4470   19.8420 H   0  0  0  0  0  0
  -25.1283  -36.2097   25.0845 H   0  0  0  0  0  0
  -21.4533  -28.6278   24.3515 H   0  0  0  0  0  0
  -21.5080  -25.6805   24.7348 H   0  0  0  0  0  0
  -22.4926  -25.5441   23.5545 H   0  0  0  0  0  0
  -19.9344  -24.0316   21.9433 H   0  0  0  0  0  0
  -19.2843  -24.2140   23.3027 H   0  0  0  0  0  0
  -18.5874  -26.2672   20.6248 H   0  0  0  0  0  0
  -17.4539  -25.8287   21.7077 H   0  0  0  0  0  0
  -19.9645  -30.5655   24.0919 H   0  0  0  0  0  0
  -17.6655  -31.3468   24.3704 H   0  0  0  0  0  0
  -15.7849  -30.0366   23.4036 H   0  0  0  0  0  0
  -16.2251  -28.0128   22.0769 H   0  0  0  0  0  0
  -24.5862  -30.7151   25.7622 H   0  0  0  0  0  0
  -24.8882  -32.2855   26.4941 H   0  0  0  0  0  0
  -25.7931  -30.8752   27.0180 H   0  0  0  0  0  0
  -26.2937  -29.6970   24.1037 H   0  0  0  0  0  0
  -27.3900  -29.7213   25.4659 H   0  0  0  0  0  0
  -27.8880  -30.4415   23.9519 H   0  0  0  0  0  0
  -27.2806  -33.3520   26.2345 H   0  0  0  0  0  0
  -28.3979  -32.6837   25.0562 H   0  0  0  0  0  0
  -28.0737  -31.8260   26.5557 H   0  0  0  0  0  0
  -28.2623  -38.0187   24.7555 H   0  0  0  0  0  0
  -28.1120  -36.2734   24.6243 H   0  0  0  0  0  0
  -27.2318  -37.1467   25.8864 H   0  0  0  0  0  0
  -21.1637  -29.4555   21.7613 H   0  0  0  0  0  0
  -26.0216  -38.2981   24.1435 H   0  0  0  0  0  0
  -22.8162  -27.1792   20.5725 H   0  0  0  0  0  0
  -23.1411  -27.0492   22.2172 H   0  0  0  0  0  0
  -21.3547  -26.0172   19.5630 H   0  0  0  0  0  0
  -20.1440  -25.0847   20.1069 H   0  0  0  0  0  0
  -24.0079  -24.9076   22.3902 H   0  0  0  0  0  0
  -24.2062  -23.8614   19.6004 H   0  0  0  0  0  0
  -22.3621  -24.3394   18.2679 H   0  0  0  0  0  0
  -20.8827  -23.4821   18.6579 H   0  0  0  0  0  0
  -22.4083  -22.6314   18.6531 H   0  0  0  0  0  0
  -21.6673  -22.7323   22.2242 H   0  0  0  0  0  0
  -22.1198  -21.7626   20.8469 H   0  0  0  0  0  0
  -20.5491  -22.4267   20.8636 H   0  0  0  0  0  0
  -17.0600  -26.8653   24.1228 H   0  0  0  0  0  0
  -17.6943  -25.7943   25.2353 H   0  0  0  0  0  0
  -17.4874  -25.2262   23.6998 H   0  0  0  0  0  0
  -19.0726  -26.9110   26.1594 H   0  0  0  0  0  0
  -19.2532  -28.3975   25.4002 H   0  0  0  0  0  0
  -20.6176  -27.3396   25.7412 H   0  0  0  0  0  0
  -25.7467  -20.0761   18.3596 H   0  0  0  0  0  0
  -24.7740  -21.5411   18.4272 H   0  0  0  0  0  0
  -24.1864  -20.0602   19.1720 H   0  0  0  0  0  0
  -25.9964  -24.6357   20.3344 H   0  0  0  0  0  0
  -26.1259  -24.7612   22.0097 H   0  0  0  0  0  0
  -26.9718  -19.6486   21.8795 H   0  0  0  0  0  0
  -25.7856  -18.7321   21.0581 H   0  0  0  0  0  0
  -28.9295  -18.7488   20.3213 H   0  0  0  0  0  0
  -27.8047  -18.0767   19.2240 H   0  0  0  0  0  0
  -19.5209  -25.7956   24.5360 H   0  0  0  0  0  0
  -26.5971  -21.6817   20.0612 H   0  0  0  0  0  0
  -27.8416  -15.9672   20.9520 H   0  0  0  0  0  0
  -20.9250  -25.7751   22.2352 H   0  0  0  0  0  0
  -23.9013  -21.6279   21.3818 H   0  0  0  0  0  0
  -25.1477  -22.4525   21.8942 H   0  0  0  0  0  0
  1 25  1  0  0  0
  1 30  2  0  0  0
  1 86  1  0  0  0
  2  3  1  0  0  0
  2 25  1  0  0  0
  2 89  1  0  0  0
  2 90  1  0  0  0
  3  4  1  0  0  0
  3 91  1  0  0  0
  3 92  1  0  0  0
  4  5  1  0  0  0
  4 93  1  0  0  0
  4 94  1  0  0  0
  5  6  1  0  0  0
  5 26  1  0  0  0
  5 95  1  0  0  0
  6 25  1  0  0  0
  6 96  1  0  0  0
  6 97  1  0  0  0
  7  8  2  0  0  0
  7 26  1  0  0  0
  7 29  1  0  0  0
  8  9  1  0  0  0
  8 22  1  0  0  0
  9 10  1  0  0  0
  9 27  2  0  0  0
 10 11  2  0  0  0
 10 15  1  0  0  0
 11 12  1  0  0  0
 11 98  1  0  0  0
 12 13  2  0  0  0
 12 99  1  0  0  0
 13 14  1  0  0  0
 13 31  1  0  0  0
 14 15  2  0  0  0
 14100  1  0  0  0
 15101  1  0  0  0
 16 17  2  0  0  0
 16 21  1  0  0  0
 16 31  1  0  0  0
 17 18  1  0  0  0
 17102  1  0  0  0
 18 19  2  0  0  0
 18103  1  0  0  0
 19 20  1  0  0  0
 19 24  1  0  0  0
 20 21  2  0  0  0
 20104  1  0  0  0
 21 23  1  0  0  0
 22 28  1  0  0  0
 22 32  2  0  0  0
 26 27  1  0  0  0
 28105  1  0  0  0
 28106  1  0  0  0
 29107  1  0  0  0
 29108  1  0  0  0
 33 34  1  0  0  0
 33 66  1  0  0  0
 33 70  2  0  0  0
 34 36  1  0  0  0
 34 59  1  0  0  0
 34109  1  0  0  0
 35 44  2  0  0  0
 35 45  1  0  0  0
 35 68  1  0  0  0
 36 56  1  0  0  0
 36110  1  0  0  0
 37 39  1  0  0  0
 37 47  1  0  0  0
 37 66  1  0  0  0
 37111  1  0  0  0
 38 43  2  0  0  0
 38 46  1  0  0  0
 38 47  1  0  0  0
 39 64  1  0  0  0
 39 67  2  0  0  0
 40 52  1  0  0  0
 40 53  2  0  0  0
 40 58  1  0  0  0
 41112  1  0  0  0
 41113  1  0  0  0
 41114  1  0  0  0
 41 48  1  0  0  0
 42 43  1  0  0  0
 42 66  1  0  0  0
 42115  1  0  0  0
 42116  1  0  0  0
 43 44  1  0  0  0
 44117  1  0  0  0
 45 46  2  0  0  0
 45118  1  0  0  0
 46119  1  0  0  0
 47120  1  0  0  0
 47121  1  0  0  0
 48 56  1  0  0  0
 48 65  1  0  0  0
 48122  1  0  0  0
 49 50  1  0  0  0
 49 53  1  0  0  0
 49 64  1  0  0  0
 49123  1  0  0  0
 50 51  1  0  0  0
 50124  1  0  0  0
 50125  1  0  0  0
 51 52  1  0  0  0
 51126  1  0  0  0
 51127  1  0  0  0
 52128  1  0  0  0
 52129  1  0  0  0
 53 54  1  0  0  0
 54 55  2  0  0  0
 54130  1  0  0  0
 55 57  1  0  0  0
 55131  1  0  0  0
 56 69  2  0  0  0
 57 58  2  0  0  0
 57132  1  0  0  0
 58133  1  0  0  0
 59 60  1  0  0  0
 59 61  1  0  0  0
 59 62  1  0  0  0
 60134  1  0  0  0
 60135  1  0  0  0
 60136  1  0  0  0
 61137  1  0  0  0
 61138  1  0  0  0
 61139  1  0  0  0
 62140  1  0  0  0
 62141  1  0  0  0
 62142  1  0  0  0
 63 65  1  0  0  0
 63143  1  0  0  0
 63144  1  0  0  0
 63145  1  0  0  0
 64146  1  0  0  0
 65147  1  0  0  0
 68 81  1  0  0  0
 71 73  1  0  0  0
 71148  1  0  0  0
 71149  1  0  0  0
 71 87  1  0  0  0
 72 75  1  0  0  0
 72 87  1  0  0  0
 72150  1  0  0  0
 72151  1  0  0  0
 73 74  1  0  0  0
 73 81  1  0  0  0
 73152  1  0  0  0
 74 75  1  0  0  0
 74 88  1  0  0  0
 74153  1  0  0  0
 75 76  1  0  0  0
 75 77  1  0  0  0
 76154  1  0  0  0
 76155  1  0  0  0
 76156  1  0  0  0
 77157  1  0  0  0
 77158  1  0  0  0
 77159  1  0  0  0
 78160  1  0  0  0
 78161  1  0  0  0
 78162  1  0  0  0
 78 84  1  0  0  0
 79 84  1  0  0  0
 79163  1  0  0  0
 79164  1  0  0  0
 79165  1  0  0  0
 80166  1  0  0  0
 80167  1  0  0  0
 80168  1  0  0  0
 80 85  1  0  0  0
 81169  1  0  0  0
 81170  1  0  0  0
 82 83  1  0  0  0
 82 85  1  0  0  0
 82171  1  0  0  0
 82172  1  0  0  0
 83 86  1  0  0  0
 83173  1  0  0  0
 83174  1  0  0  0
 84 87  1  0  0  0
 84175  1  0  0  0
 85 88  1  0  0  0
 85176  1  0  0  0
 86177  1  0  0  0
 87178  1  0  0  0
 88179  1  0  0  0
 88180  1  0  0  0
M  CHG  2  87   1  88   1
M  ISO  4   1 100  68 101  81 101  86 100
M  END
> <chiral flag>
0

> <version>
0

> <s_m_source_file>
/data/baiqing/PycharmProjects/Reinvent-master-3.2/result/LINK_invent/BTK/process_docking_weight1_custom_sum_contain_oxygen_bond_distance_aromatic_linkinvent_7_9_3/rearranged_h_0019.sdf

> <i_m_source_file_index>
86

> <r_mmod_Potential_Energy-OPLS-2005>
11422.912109375

> <r_mmod_Stretch_Energy-OPLS-2005>
5767.9072265625

> <r_mmod_Bend_Energy-OPLS-2005>
1833.55859375

> <r_mmod_Torsional_Energy-OPLS-2005>
507.774291992188

> <r_mmod_Improper_Torsional_Energy-OPLS-2005>
26.9904918670654

> <r_mmod_Van_der_Waal_Energy-OPLS-2005>
2123.00732421875

> <r_mmod_Electrostatic_Energy-OPLS-2005>
29.3515148162842

> <r_mmod_Solvation_Energy-OPLS-2005>
-907.718200683594

> <b_mmod_Minimization_Converged-OPLS-2005>
0

> <r_mmod_RMS_Derivative-OPLS-2005>
7.32241296768188

$$$$
86
                    3D
 Structure written by MMmdl.
156164  0  0  1  0            999 V2000
  -30.4357  -15.1860   20.3701 C   0  0  0  0  0  0
  -30.4534  -12.7491   19.5140 C   0  0  0  0  0  0
  -29.5414  -12.5687   18.2750 C   0  0  0  0  0  0
  -28.0835  -12.3057   18.6994 C   0  0  0  0  0  0
  -27.6222  -13.2637   19.8270 C   0  0  2  0  0  0
  -28.6613  -13.3844   20.9623 C   0  0  0  0  0  0
  -25.2428  -13.8180   20.5753 C   0  0  0  0  0  0
  -24.1773  -13.0396   20.9270 C   0  0  0  0  0  0
  -24.6428  -11.6907   20.8768 C   0  0  0  0  0  0
  -23.9117  -10.4284   21.0420 C   0  0  0  0  0  0
  -24.3658   -9.4194   21.9199 C   0  0  0  0  0  0
  -23.6312   -8.2239   22.0764 C   0  0  0  0  0  0
  -22.4286   -8.0299   21.3557 C   0  0  0  0  0  0
  -21.9941   -9.0280   20.4655 C   0  0  0  0  0  0
  -22.7294  -10.2143   20.3062 C   0  0  0  0  0  0
  -21.6870   -6.0750   22.5275 C   0  0  0  0  0  0
  -21.4032   -6.5645   23.8209 C   0  0  0  0  0  0
  -21.3649   -5.6787   24.9162 C   0  0  0  0  0  0
  -21.6046   -4.3052   24.7213 C   0  0  0  0  0  0
  -21.8824   -3.8154   23.4329 C   0  0  0  0  0  0
  -21.9200   -4.6978   22.3391 C   0  0  0  0  0  0
  -22.7789  -13.5176   21.1887 C   0  0  0  0  0  0
  -22.1658   -4.2162   21.0966 F   0  0  0  0  0  0
  -21.5612   -3.4528   25.7720 F   0  0  0  0  0  0
  -29.9042  -13.8740   20.3454 N   0  0  0  0  0  0
  -26.2872  -12.9467   20.3213 N   0  0  0  0  0  0
  -25.9368  -11.6580   20.5727 N   0  0  0  0  0  0
  -22.0413  -12.8192   22.0436 N   0  0  0  0  0  0
  -25.3992  -15.1902   20.4217 N   0  0  0  0  0  0
  -31.6522  -15.2366   20.1455 O   0  0  0  0  0  0
  -21.6644   -6.8904   21.4246 O   0  0  0  0  0  0
  -22.3492  -14.5473   20.6696 O   0  0  0  0  0  0
  -24.6585  -31.8290   23.1736 C   0  0  0  0  0  0
  -25.9299  -32.4610   23.8182 C   0  0  1  0  0  0
  -27.2191  -26.9822   20.1716 C   0  0  0  0  0  0
  -25.5975  -33.8418   24.2088 N   0  0  0  0  0  0
  -23.4674  -30.4444   21.5221 C   0  0  2  0  0  0
  -24.9179  -28.8351   20.1110 C   0  0  0  0  0  0
  -22.7625  -29.4484   22.4793 C   0  0  0  0  0  0
  -18.0316  -28.1390   22.8467 C   0  0  0  0  0  0
  -24.1493  -36.7223   23.2642 C   0  0  0  0  0  0
  -26.0336  -30.6524   21.3937 C   0  0  0  0  0  0
  -26.1019  -29.2473   20.7362 C   0  0  0  0  0  0
  -27.2489  -28.3417   20.7404 C   0  0  0  0  0  0
  -26.0051  -26.7039   19.5069 C   0  0  0  0  0  0
  -24.8916  -27.5809   19.4780 C   0  0  0  0  0  0
  -23.7014  -29.7579   20.1475 C   0  0  0  0  0  0
  -25.4131  -36.2974   24.0299 C   0  0  1  0  0  0
  -20.5936  -28.3740   23.1174 C   0  0  2  0  0  0
  -20.6792  -26.9429   22.5378 C   0  0  0  0  0  0
  -19.5769  -26.6370   21.5186 C   0  0  0  0  0  0
  -18.1954  -26.7925   22.1606 C   0  0  0  0  0  0
  -19.1581  -28.8890   23.2813 C   0  0  0  0  0  0
  -18.9490  -30.1477   23.8849 C   0  0  0  0  0  0
  -17.6488  -30.6592   24.0546 C   0  0  0  0  0  0
  -25.9094  -34.9363   23.5020 C   0  0  0  0  0  0
  -16.5376  -29.9079   23.6329 C   0  0  0  0  0  0
  -16.7299  -28.6490   23.0366 C   0  0  0  0  0  0
  -26.4558  -31.6541   25.0701 C   0  0  0  0  0  0
  -25.3694  -31.3784   26.1366 C   0  0  0  0  0  0
  -27.0445  -30.2904   24.6425 C   0  0  0  0  0  0
  -27.6046  -32.4356   25.7513 C   0  0  0  0  0  0
  -27.5573  -37.1759   24.8456 C   0  0  0  0  0  0
  -21.4310  -29.3055   22.3539 N   0  0  0  0  0  0
  -26.4272  -37.3715   23.9417 N   0  0  0  0  0  0
  -24.7409  -31.0011   22.0828 N   0  0  0  0  0  0
  -23.4203  -28.8062   23.3018 O   0  0  0  0  0  0
  -28.2445  -25.9187   20.2380 O   0  0  0  0  0  0
  -26.5702  -34.8886   22.4607 O   0  0  0  0  0  0
  -23.5676  -32.1229   23.6881 O   0  0  0  0  0  0
  -28.1619  -20.2339   19.9716 C   0  0  0  0  0  0
  -29.1723  -21.2133   20.3367 C   0  0  0  0  0  0
  -28.3316  -18.7471   19.9633 C   0  0  0  0  0  0
  -30.3744  -20.4398   20.6822 C   0  0  0  0  0  0
  -29.5241  -17.9772   20.3460 C   0  0  0  0  0  0
  -30.5376  -18.9541   20.6894 C   0  0  0  0  0  0
  -26.8149  -20.8077   19.5500 C   0  0  0  0  0  0
  -27.1392  -17.9341   19.4666 C   0  0  0  0  0  0
  -31.6043  -21.2677   21.0563 C   0  0  0  0  0  0
  -29.1321  -22.9611   20.3878 C   0  0  0  0  0  0
  -28.0182  -24.3078   20.1097 C   0  0  0  0  0  0
  -29.5680  -16.3682   20.4251 N   0  0  0  0  0  0
  -32.0690  -18.2900   21.1489 Cl  0  0  0  0  0  0
  -31.4771  -12.9489   19.1938 H   0  0  0  0  0  0
  -30.5039  -11.8281   20.0964 H   0  0  0  0  0  0
  -29.9084  -11.7513   17.6524 H   0  0  0  0  0  0
  -29.5849  -13.4686   17.6587 H   0  0  0  0  0  0
  -28.0247  -11.2755   19.0521 H   0  0  0  0  0  0
  -27.4174  -12.3740   17.8384 H   0  0  0  0  0  0
  -27.5525  -14.2438   19.3527 H   0  0  0  0  0  0
  -28.8082  -12.4291   21.4694 H   0  0  0  0  0  0
  -28.3195  -14.0892   21.7225 H   0  0  0  0  0  0
  -25.2808   -9.5649   22.4776 H   0  0  0  0  0  0
  -24.0019   -7.4628   22.7478 H   0  0  0  0  0  0
  -21.0872   -8.8831   19.8965 H   0  0  0  0  0  0
  -22.3787  -10.9695   19.6167 H   0  0  0  0  0  0
  -21.2041   -7.6154   23.9719 H   0  0  0  0  0  0
  -21.1453   -6.0506   25.9062 H   0  0  0  0  0  0
  -22.0616   -2.7622   23.2814 H   0  0  0  0  0  0
  -22.4017  -11.9883   22.4878 H   0  0  0  0  0  0
  -21.1020  -13.1237   22.2573 H   0  0  0  0  0  0
  -24.6198  -15.8271   20.5395 H   0  0  0  0  0  0
  -26.2211  -15.6368   20.0453 H   0  0  0  0  0  0
  -26.7373  -32.5164   23.0903 H   0  0  0  0  0  0
  -25.0047  -33.9506   25.0190 H   0  0  0  0  0  0
  -22.7789  -31.2765   21.3554 H   0  0  0  0  0  0
  -23.3761  -35.9543   23.3255 H   0  0  0  0  0  0
  -24.3564  -36.8921   22.2062 H   0  0  0  0  0  0
  -23.7243  -37.6397   23.6731 H   0  0  0  0  0  0
  -26.2105  -31.3987   20.6181 H   0  0  0  0  0  0
  -26.8955  -30.7046   22.0474 H   0  0  0  0  0  0
  -28.1484  -28.6589   21.2496 H   0  0  0  0  0  0
  -25.8879  -25.7447   19.0231 H   0  0  0  0  0  0
  -23.9898  -27.2566   18.9764 H   0  0  0  0  0  0
  -23.8469  -30.5260   19.3873 H   0  0  0  0  0  0
  -22.8111  -29.2092   19.8352 H   0  0  0  0  0  0
  -25.1326  -36.1757   25.0789 H   0  0  0  0  0  0
  -21.0039  -28.3351   24.1290 H   0  0  0  0  0  0
  -20.5627  -26.2386   23.3631 H   0  0  0  0  0  0
  -21.6665  -26.7387   22.1216 H   0  0  0  0  0  0
  -19.6928  -25.6262   21.1266 H   0  0  0  0  0  0
  -19.6696  -27.3138   20.6682 H   0  0  0  0  0  0
  -17.4214  -26.6651   21.4019 H   0  0  0  0  0  0
  -18.0373  -26.0071   22.9011 H   0  0  0  0  0  0
  -19.7973  -30.7300   24.2202 H   0  0  0  0  0  0
  -17.5040  -31.6261   24.5167 H   0  0  0  0  0  0
  -15.5378  -30.2966   23.7677 H   0  0  0  0  0  0
  -15.8697  -28.0785   22.7122 H   0  0  0  0  0  0
  -24.5866  -30.7155   25.7664 H   0  0  0  0  0  0
  -24.8895  -32.2982   26.4712 H   0  0  0  0  0  0
  -25.7924  -30.8982   27.0198 H   0  0  0  0  0  0
  -26.3092  -29.6586   24.1422 H   0  0  0  0  0  0
  -27.3954  -29.7275   25.5086 H   0  0  0  0  0  0
  -27.9053  -30.4071   23.9839 H   0  0  0  0  0  0
  -27.2592  -33.3675   26.2004 H   0  0  0  0  0  0
  -28.3903  -32.6898   25.0387 H   0  0  0  0  0  0
  -28.0667  -31.8547   26.5505 H   0  0  0  0  0  0
  -28.2553  -38.0090   24.7534 H   0  0  0  0  0  0
  -28.1109  -36.2621   24.6240 H   0  0  0  0  0  0
  -27.2298  -37.1350   25.8858 H   0  0  0  0  0  0
  -20.9554  -29.8764   21.6691 H   0  0  0  0  0  0
  -26.0118  -38.2771   24.1430 H   0  0  0  0  0  0
  -26.7183  -21.8576   19.8162 H   0  0  0  0  0  0
  -25.9846  -20.2961   20.0375 H   0  0  0  0  0  0
  -26.6870  -20.7238   18.4709 H   0  0  0  0  0  0
  -26.8279  -18.2744   18.4787 H   0  0  0  0  0  0
  -26.2891  -18.0251   20.1435 H   0  0  0  0  0  0
  -27.3593  -16.8763   19.3541 H   0  0  0  0  0  0
  -32.1657  -21.5290   20.1591 H   0  0  0  0  0  0
  -32.2791  -20.7535   21.7358 H   0  0  0  0  0  0
  -31.3554  -22.1882   21.5781 H   0  0  0  0  0  0
  -29.9901  -23.2241   19.7708 H   0  0  0  0  0  0
  -29.4536  -23.1689   21.4065 H   0  0  0  0  0  0
  -27.1660  -24.1094   20.7607 H   0  0  0  0  0  0
  -27.6314  -24.1576   19.1013 H   0  0  0  0  0  0
  -28.6279  -16.0172   20.5021 H   0  0  0  0  0  0
  1 25  1  0  0  0
  1 30  2  0  0  0
  1 82  1  0  0  0
  2  3  1  0  0  0
  2 25  1  0  0  0
  2 84  1  0  0  0
  2 85  1  0  0  0
  3  4  1  0  0  0
  3 86  1  0  0  0
  3 87  1  0  0  0
  4  5  1  0  0  0
  4 88  1  0  0  0
  4 89  1  0  0  0
  5  6  1  0  0  0
  5 26  1  0  0  0
  5 90  1  0  0  0
  6 25  1  0  0  0
  6 91  1  0  0  0
  6 92  1  0  0  0
  7  8  2  0  0  0
  7 26  1  0  0  0
  7 29  1  0  0  0
  8  9  1  0  0  0
  8 22  1  0  0  0
  9 10  1  0  0  0
  9 27  2  0  0  0
 10 11  2  0  0  0
 10 15  1  0  0  0
 11 12  1  0  0  0
 11 93  1  0  0  0
 12 13  2  0  0  0
 12 94  1  0  0  0
 13 14  1  0  0  0
 13 31  1  0  0  0
 14 15  2  0  0  0
 14 95  1  0  0  0
 15 96  1  0  0  0
 16 17  2  0  0  0
 16 21  1  0  0  0
 16 31  1  0  0  0
 17 18  1  0  0  0
 17 97  1  0  0  0
 18 19  2  0  0  0
 18 98  1  0  0  0
 19 20  1  0  0  0
 19 24  1  0  0  0
 20 21  2  0  0  0
 20 99  1  0  0  0
 21 23  1  0  0  0
 22 28  1  0  0  0
 22 32  2  0  0  0
 26 27  1  0  0  0
 28100  1  0  0  0
 28101  1  0  0  0
 29102  1  0  0  0
 29103  1  0  0  0
 33 34  1  0  0  0
 33 66  1  0  0  0
 33 70  2  0  0  0
 34 36  1  0  0  0
 34 59  1  0  0  0
 34104  1  0  0  0
 35 44  2  0  0  0
 35 45  1  0  0  0
 35 68  1  0  0  0
 36 56  1  0  0  0
 36105  1  0  0  0
 37 39  1  0  0  0
 37 47  1  0  0  0
 37 66  1  0  0  0
 37106  1  0  0  0
 38 43  2  0  0  0
 38 46  1  0  0  0
 38 47  1  0  0  0
 39 64  1  0  0  0
 39 67  2  0  0  0
 40 52  1  0  0  0
 40 53  2  0  0  0
 40 58  1  0  0  0
 41107  1  0  0  0
 41108  1  0  0  0
 41109  1  0  0  0
 41 48  1  0  0  0
 42 43  1  0  0  0
 42 66  1  0  0  0
 42110  1  0  0  0
 42111  1  0  0  0
 43 44  1  0  0  0
 44112  1  0  0  0
 45 46  2  0  0  0
 45113  1  0  0  0
 46114  1  0  0  0
 47115  1  0  0  0
 47116  1  0  0  0
 48 56  1  0  0  0
 48 65  1  0  0  0
 48117  1  0  0  0
 49 50  1  0  0  0
 49 53  1  0  0  0
 49 64  1  0  0  0
 49118  1  0  0  0
 50 51  1  0  0  0
 50119  1  0  0  0
 50120  1  0  0  0
 51 52  1  0  0  0
 51121  1  0  0  0
 51122  1  0  0  0
 52123  1  0  0  0
 52124  1  0  0  0
 53 54  1  0  0  0
 54 55  2  0  0  0
 54125  1  0  0  0
 55 57  1  0  0  0
 55126  1  0  0  0
 56 69  2  0  0  0
 57 58  2  0  0  0
 57127  1  0  0  0
 58128  1  0  0  0
 59 60  1  0  0  0
 59 61  1  0  0  0
 59 62  1  0  0  0
 60129  1  0  0  0
 60130  1  0  0  0
 60131  1  0  0  0
 61132  1  0  0  0
 61133  1  0  0  0
 61134  1  0  0  0
 62135  1  0  0  0
 62136  1  0  0  0
 62137  1  0  0  0
 63 65  1  0  0  0
 63138  1  0  0  0
 63139  1  0  0  0
 63140  1  0  0  0
 64141  1  0  0  0
 65142  1  0  0  0
 68 81  1  0  0  0
 71 72  2  0  0  0
 71 73  1  0  0  0
 71 77  1  0  0  0
 72 74  1  0  0  0
 72 80  1  0  0  0
 73 75  2  0  0  0
 73 78  1  0  0  0
 74 76  2  0  0  0
 74 79  1  0  0  0
 75 76  1  0  0  0
 75 82  1  0  0  0
 76 83  1  0  0  0
 77143  1  0  0  0
 77144  1  0  0  0
 77145  1  0  0  0
 78146  1  0  0  0
 78147  1  0  0  0
 78148  1  0  0  0
 79149  1  0  0  0
 79150  1  0  0  0
 79151  1  0  0  0
 80 81  1  0  0  0
 80152  1  0  0  0
 80153  1  0  0  0
 81154  1  0  0  0
 81155  1  0  0  0
 82156  1  0  0  0
M  ISO  4   1 100  68 101  81 101  82 100
M  END
> <chiral flag>
0

> <version>
0

> <s_m_source_file>
/data/baiqing/PycharmProjects/Reinvent-master-3.2/result/LINK_invent/BTK/process_docking_weight1_custom_sum_contain_oxygen_bond_distance_aromatic_linkinvent_7_9_3/rearranged_h_0019.sdf

> <i_m_source_file_index>
87

> <r_mmod_Potential_Energy-OPLS-2005>
1020.24719238281

> <r_mmod_Stretch_Energy-OPLS-2005>
469.677459716797

> <r_mmod_Bend_Energy-OPLS-2005>
411.775573730469

> <r_mmod_Torsional_Energy-OPLS-2005>
216.845764160156

> <r_mmod_Improper_Torsional_Energy-OPLS-2005>
5.13599920272827

> <r_mmod_Van_der_Waal_Energy-OPLS-2005>
139.282638549805

> <r_mmod_Electrostatic_Energy-OPLS-2005>
-387.642883300781

> <r_mmod_Solvation_Energy-OPLS-2005>
-213.252548217773

> <b_mmod_Minimization_Converged-OPLS-2005>
0

> <r_mmod_RMS_Derivative-OPLS-2005>
2.20203137397766

$$$$
87
                    3D
 Structure written by MMmdl.
175183  0  0  1  0            999 V2000
  -31.7676  -14.9476   19.9744 C   0  0  0  0  0  0
  -31.0420  -12.6578   19.5373 C   0  0  0  0  0  0
  -29.7474  -11.5599   18.7979 C   0  0  0  0  0  0
  -27.9106  -11.8171   18.7682 C   0  0  0  0  0  0
  -26.9928  -13.2817   19.3972 C   0  0  2  0  0  0
  -27.8173  -14.7656   20.1242 C   0  0  0  0  0  0
  -24.9896  -13.8332   20.6061 C   0  0  0  0  0  0
  -24.0047  -13.0227   21.0234 C   0  0  0  0  0  0
  -24.5077  -11.6878   20.9619 C   0  0  0  0  0  0
  -23.8354  -10.4128   21.0891 C   0  0  0  0  0  0
  -24.3250   -9.4053   21.9435 C   0  0  0  0  0  0
  -23.6133   -8.1977   22.0779 C   0  0  0  0  0  0
  -22.4140   -8.0017   21.3517 C   0  0  0  0  0  0
  -21.9655   -8.9940   20.4641 C   0  0  0  0  0  0
  -22.6764  -10.1923   20.3256 C   0  0  0  0  0  0
  -21.6772   -6.0597   22.5288 C   0  0  0  0  0  0
  -21.3959   -6.5563   23.8202 C   0  0  0  0  0  0
  -21.3642   -5.6751   24.9186 C   0  0  0  0  0  0
  -21.6041   -4.3007   24.7262 C   0  0  0  0  0  0
  -21.8830   -3.8065   23.4395 C   0  0  0  0  0  0
  -21.9173   -4.6852   22.3435 C   0  0  0  0  0  0
  -22.6180  -13.4841   21.2610 C   0  0  0  0  0  0
  -22.1656   -4.2037   21.1016 F   0  0  0  0  0  0
  -21.5635   -3.4521   25.7793 F   0  0  0  0  0  0
  -30.6691  -14.2848   20.1819 N   0  0  0  0  0  0
  -25.9806  -12.9586   20.2704 N   0  0  0  0  0  0
  -25.7610  -11.6768   20.5929 N   0  0  0  0  0  0
  -21.8997  -12.7826   22.1198 N   0  0  0  0  0  0
  -25.0316  -15.2063   20.3608 N   0  0  0  0  0  0
  -32.7457  -14.6987   20.6022 O   0  0  0  0  0  0
  -21.6549   -6.8631   21.4195 O   0  0  0  0  0  0
  -22.1916  -14.5066   20.7231 O   0  0  0  0  0  0
  -24.6426  -31.8445   23.1858 C   0  0  0  0  0  0
  -25.9193  -32.4696   23.8264 C   0  0  1  0  0  0
  -27.1959  -27.1014   20.2422 C   0  0  0  0  0  0
  -25.5942  -33.8500   24.2186 N   0  0  0  0  0  0
  -23.4479  -30.4615   21.5302 C   0  0  2  0  0  0
  -24.9005  -28.8788   20.1172 C   0  0  0  0  0  0
  -22.7565  -29.4555   22.4847 C   0  0  0  0  0  0
  -18.0306  -28.1394   22.8479 C   0  0  0  0  0  0
  -24.1496  -36.7259   23.2642 C   0  0  0  0  0  0
  -26.0019  -30.7160   21.3855 C   0  0  0  0  0  0
  -26.0735  -29.3200   20.7436 C   0  0  0  0  0  0
  -27.2281  -28.4507   20.7785 C   0  0  0  0  0  0
  -26.0099  -26.7648   19.5576 C   0  0  0  0  0  0
  -24.8854  -27.6186   19.4972 C   0  0  0  0  0  0
  -23.6778  -29.7851   20.1510 C   0  0  0  0  0  0
  -25.4125  -36.3031   24.0315 C   0  0  1  0  0  0
  -20.5918  -28.3727   23.1233 C   0  0  2  0  0  0
  -20.6792  -26.9429   22.5407 C   0  0  0  0  0  0
  -19.5766  -26.6381   21.5218 C   0  0  0  0  0  0
  -18.1948  -26.7933   22.1627 C   0  0  0  0  0  0
  -19.1560  -28.8879   23.2852 C   0  0  0  0  0  0
  -18.9477  -30.1477   23.8876 C   0  0  0  0  0  0
  -17.6473  -30.6593   24.0561 C   0  0  0  0  0  0
  -25.9073  -34.9406   23.5061 C   0  0  0  0  0  0
  -16.5367  -29.9082   23.6337 C   0  0  0  0  0  0
  -16.7293  -28.6500   23.0360 C   0  0  0  0  0  0
  -26.4517  -31.6560   25.0703 C   0  0  0  0  0  0
  -25.3705  -31.3746   26.1399 C   0  0  0  0  0  0
  -27.0378  -30.2955   24.6276 C   0  0  0  0  0  0
  -27.6044  -32.4329   25.7488 C   0  0  0  0  0  0
  -27.5579  -37.1781   24.8460 C   0  0  0  0  0  0
  -21.4258  -29.3050   22.3594 N   0  0  0  0  0  0
  -26.4289  -37.3744   23.9406 N   0  0  0  0  0  0
  -24.7172  -31.0292   22.0899 N   0  0  0  0  0  0
  -23.4198  -28.8117   23.3017 O   0  0  0  0  0  0
  -28.2270  -26.0965   20.3121 O   0  0  0  0  0  0
  -26.5666  -34.8908   22.4645 O   0  0  0  0  0  0
  -23.5543  -32.1327   23.7069 O   0  0  0  0  0  0
  -29.4943  -16.4769   19.9132 C   0  0  0  0  0  0
  -29.3645  -16.0151   21.4558 C   0  0  0  0  0  0
  -29.4802  -15.5532   18.5839 C   0  0  0  0  0  0
  -29.1757  -14.3465   21.9587 C   0  0  0  0  0  0
  -28.9818  -13.0326   20.7398 C   0  0  0  0  0  0
  -29.1696  -13.9144   18.6242 C   0  0  0  0  0  0
  -29.0866  -14.0106   23.4349 C   0  0  0  0  0  0
  -28.8247  -11.6461   21.4346 C   0  0  0  0  0  0
  -29.0863  -17.2855   23.7491 C   0  0  0  0  0  0
  -28.4069  -14.1870   16.3470 C   0  0  0  0  0  0
  -30.7477  -15.8921   17.8494 C   0  0  0  0  0  0
  -28.7309  -21.7544   21.5042 C   0  0  0  0  0  0
  -28.3929  -23.1203   20.5276 C   0  0  0  0  0  0
  -28.5741  -20.0881   21.1351 C   0  0  0  0  0  0
  -28.0339  -24.7121   21.0274 C   0  0  0  0  0  0
  -28.9375  -17.4291   22.2293 C   0  0  1  0  0  0
  -31.8444  -15.6487   18.8117 N   0  0  0  0  0  0
  -29.4082  -18.9118   21.8294 N   0  3  0  0  0  0
  -29.1636  -13.4446   17.3031 O   0  0  0  0  0  0
  -31.8233  -12.7421   18.7779 H   0  0  0  0  0  0
  -31.5297  -12.1087   20.3444 H   0  0  0  0  0  0
  -29.9238  -10.5711   19.2218 H   0  0  0  0  0  0
  -30.0641  -11.3527   17.7739 H   0  0  0  0  0  0
  -27.4608  -10.8857   19.1009 H   0  0  0  0  0  0
  -27.6112  -11.7328   17.7222 H   0  0  0  0  0  0
  -26.4672  -13.6497   18.5142 H   0  0  0  0  0  0
  -27.2637  -15.0021   21.0418 H   0  0  0  0  0  0
  -27.3754  -15.5663   19.5120 H   0  0  0  0  0  0
  -25.2326   -9.5673   22.5074 H   0  0  0  0  0  0
  -23.9904   -7.4332   22.7420 H   0  0  0  0  0  0
  -21.0630   -8.8367   19.8896 H   0  0  0  0  0  0
  -22.3152  -10.9527   19.6471 H   0  0  0  0  0  0
  -21.1935   -7.6075   23.9660 H   0  0  0  0  0  0
  -21.1462   -6.0505   25.9082 H   0  0  0  0  0  0
  -22.0632   -2.7523   23.2938 H   0  0  0  0  0  0
  -22.2771  -11.9605   22.5678 H   0  0  0  0  0  0
  -20.9568  -13.0710   22.3377 H   0  0  0  0  0  0
  -24.2143  -15.7920   20.4978 H   0  0  0  0  0  0
  -25.7951  -15.6834   19.9033 H   0  0  0  0  0  0
  -26.7262  -32.5307   23.0998 H   0  0  0  0  0  0
  -25.0046  -33.9622   25.0303 H   0  0  0  0  0  0
  -22.7509  -31.2871   21.3722 H   0  0  0  0  0  0
  -23.3763  -35.9588   23.3282 H   0  0  0  0  0  0
  -24.3583  -36.8914   22.2063 H   0  0  0  0  0  0
  -23.7254  -37.6449   23.6693 H   0  0  0  0  0  0
  -26.1533  -31.4622   20.6039 H   0  0  0  0  0  0
  -26.8739  -30.7757   22.0243 H   0  0  0  0  0  0
  -28.1220  -28.7863   21.2851 H   0  0  0  0  0  0
  -25.9371  -25.7905   19.0949 H   0  0  0  0  0  0
  -23.9931  -27.2768   18.9912 H   0  0  0  0  0  0
  -23.8179  -30.5570   19.3938 H   0  0  0  0  0  0
  -22.7927  -29.2271   19.8403 H   0  0  0  0  0  0
  -25.1316  -36.1856   25.0809 H   0  0  0  0  0  0
  -21.0019  -28.3321   24.1354 H   0  0  0  0  0  0
  -20.5685  -26.2348   23.3632 H   0  0  0  0  0  0
  -21.6658  -26.7437   22.1207 H   0  0  0  0  0  0
  -19.6930  -25.6285   21.1266 H   0  0  0  0  0  0
  -19.6694  -27.3176   20.6736 H   0  0  0  0  0  0
  -17.4218  -26.6685   21.4032 H   0  0  0  0  0  0
  -18.0342  -26.0079   22.9026 H   0  0  0  0  0  0
  -19.7955  -30.7303   24.2227 H   0  0  0  0  0  0
  -17.5028  -31.6267   24.5170 H   0  0  0  0  0  0
  -15.5367  -30.2978   23.7669 H   0  0  0  0  0  0
  -15.8697  -28.0814   22.7085 H   0  0  0  0  0  0
  -24.5890  -30.7090   25.7717 H   0  0  0  0  0  0
  -24.8893  -32.2930   26.4770 H   0  0  0  0  0  0
  -25.7987  -30.8953   27.0211 H   0  0  0  0  0  0
  -26.2993  -29.6679   24.1277 H   0  0  0  0  0  0
  -27.3988  -29.7250   25.4844 H   0  0  0  0  0  0
  -27.8899  -30.4188   23.9588 H   0  0  0  0  0  0
  -27.2629  -33.3647   26.2006 H   0  0  0  0  0  0
  -28.3874  -32.6865   25.0331 H   0  0  0  0  0  0
  -28.0687  -31.8502   26.5454 H   0  0  0  0  0  0
  -28.2573  -38.0101   24.7517 H   0  0  0  0  0  0
  -28.1099  -36.2626   24.6267 H   0  0  0  0  0  0
  -27.2293  -37.1400   25.8863 H   0  0  0  0  0  0
  -20.9466  -29.8744   21.6758 H   0  0  0  0  0  0
  -26.0150  -38.2809   24.1416 H   0  0  0  0  0  0
  -29.6962  -17.5192   19.7221 H   0  0  0  0  0  0
  -29.7693  -14.6369   24.0060 H   0  0  0  0  0  0
  -29.3798  -12.9831   23.6393 H   0  0  0  0  0  0
  -28.0705  -14.1566   23.8012 H   0  0  0  0  0  0
  -28.0601  -11.7332   22.2051 H   0  0  0  0  0  0
  -29.7592  -11.3984   21.9375 H   0  0  0  0  0  0
  -28.5434  -10.7637   20.8749 H   0  0  0  0  0  0
  -28.4439  -16.4963   24.1349 H   0  0  0  0  0  0
  -28.7860  -18.1956   24.2689 H   0  0  0  0  0  0
  -30.1146  -17.0640   24.0334 H   0  0  0  0  0  0
  -29.0248  -14.9057   15.8105 H   0  0  0  0  0  0
  -27.5659  -14.7193   16.7921 H   0  0  0  0  0  0
  -27.9977  -13.4988   15.6082 H   0  0  0  0  0  0
  -30.7394  -16.9332   17.5262 H   0  0  0  0  0  0
  -30.9025  -15.2709   16.9692 H   0  0  0  0  0  0
  -28.1507  -21.8966   22.4170 H   0  0  0  0  0  0
  -29.7618  -21.8928   21.8307 H   0  0  0  0  0  0
  -27.5755  -22.8327   19.8665 H   0  0  0  0  0  0
  -29.2488  -23.2071   19.8579 H   0  0  0  0  0  0
  -28.7697  -19.9766   20.0680 H   0  0  0  0  0  0
  -27.5190  -19.8325   21.2420 H   0  0  0  0  0  0
  -28.6055  -24.8421   21.9470 H   0  0  0  0  0  0
  -26.9995  -24.6925   21.3732 H   0  0  0  0  0  0
  -27.8596  -17.4734   22.0612 H   0  0  0  0  0  0
  -32.7447  -16.0422   18.5794 H   0  0  0  0  0  0
  -29.6388  -19.3033   22.7275 H   0  0  0  0  0  0
  -30.2936  -18.8375   21.3571 H   0  0  0  0  0  0
  1 25  1  0  0  0
  1 30  2  0  0  0
  1 87  1  0  0  0
  2  3  1  0  0  0
  2 25  1  0  0  0
  2 90  1  0  0  0
  2 91  1  0  0  0
  3  4  1  0  0  0
  3 92  1  0  0  0
  3 93  1  0  0  0
  4  5  1  0  0  0
  4 94  1  0  0  0
  4 95  1  0  0  0
  5  6  1  0  0  0
  5 26  1  0  0  0
  5 96  1  0  0  0
  6 25  1  0  0  0
  6 97  1  0  0  0
  6 98  1  0  0  0
  7  8  2  0  0  0
  7 26  1  0  0  0
  7 29  1  0  0  0
  8  9  1  0  0  0
  8 22  1  0  0  0
  9 10  1  0  0  0
  9 27  2  0  0  0
 10 11  2  0  0  0
 10 15  1  0  0  0
 11 12  1  0  0  0
 11 99  1  0  0  0
 12 13  2  0  0  0
 12100  1  0  0  0
 13 14  1  0  0  0
 13 31  1  0  0  0
 14 15  2  0  0  0
 14101  1  0  0  0
 15102  1  0  0  0
 16 17  2  0  0  0
 16 21  1  0  0  0
 16 31  1  0  0  0
 17 18  1  0  0  0
 17103  1  0  0  0
 18 19  2  0  0  0
 18104  1  0  0  0
 19 20  1  0  0  0
 19 24  1  0  0  0
 20 21  2  0  0  0
 20105  1  0  0  0
 21 23  1  0  0  0
 22 28  1  0  0  0
 22 32  2  0  0  0
 26 27  1  0  0  0
 28106  1  0  0  0
 28107  1  0  0  0
 29108  1  0  0  0
 29109  1  0  0  0
 33 34  1  0  0  0
 33 66  1  0  0  0
 33 70  2  0  0  0
 34 36  1  0  0  0
 34 59  1  0  0  0
 34110  1  0  0  0
 35 44  2  0  0  0
 35 45  1  0  0  0
 35 68  1  0  0  0
 36 56  1  0  0  0
 36111  1  0  0  0
 37 39  1  0  0  0
 37 47  1  0  0  0
 37 66  1  0  0  0
 37112  1  0  0  0
 38 43  2  0  0  0
 38 46  1  0  0  0
 38 47  1  0  0  0
 39 64  1  0  0  0
 39 67  2  0  0  0
 40 52  1  0  0  0
 40 53  2  0  0  0
 40 58  1  0  0  0
 41113  1  0  0  0
 41114  1  0  0  0
 41115  1  0  0  0
 41 48  1  0  0  0
 42 43  1  0  0  0
 42 66  1  0  0  0
 42116  1  0  0  0
 42117  1  0  0  0
 43 44  1  0  0  0
 44118  1  0  0  0
 45 46  2  0  0  0
 45119  1  0  0  0
 46120  1  0  0  0
 47121  1  0  0  0
 47122  1  0  0  0
 48 56  1  0  0  0
 48 65  1  0  0  0
 48123  1  0  0  0
 49 50  1  0  0  0
 49 53  1  0  0  0
 49 64  1  0  0  0
 49124  1  0  0  0
 50 51  1  0  0  0
 50125  1  0  0  0
 50126  1  0  0  0
 51 52  1  0  0  0
 51127  1  0  0  0
 51128  1  0  0  0
 52129  1  0  0  0
 52130  1  0  0  0
 53 54  1  0  0  0
 54 55  2  0  0  0
 54131  1  0  0  0
 55 57  1  0  0  0
 55132  1  0  0  0
 56 69  2  0  0  0
 57 58  2  0  0  0
 57133  1  0  0  0
 58134  1  0  0  0
 59 60  1  0  0  0
 59 61  1  0  0  0
 59 62  1  0  0  0
 60135  1  0  0  0
 60136  1  0  0  0
 60137  1  0  0  0
 61138  1  0  0  0
 61139  1  0  0  0
 61140  1  0  0  0
 62141  1  0  0  0
 62142  1  0  0  0
 62143  1  0  0  0
 63 65  1  0  0  0
 63144  1  0  0  0
 63145  1  0  0  0
 63146  1  0  0  0
 64147  1  0  0  0
 65148  1  0  0  0
 68 85  1  0  0  0
 71 72  2  0  0  0
 71 73  1  0  0  0
 71149  1  0  0  0
 72 74  1  0  0  0
 72 86  1  0  0  0
 73 76  2  0  0  0
 73 81  1  0  0  0
 74 75  2  0  0  0
 74 77  1  0  0  0
 75 76  1  0  0  0
 75 78  1  0  0  0
 76 89  1  0  0  0
 77150  1  0  0  0
 77151  1  0  0  0
 77152  1  0  0  0
 78153  1  0  0  0
 78154  1  0  0  0
 78155  1  0  0  0
 79156  1  0  0  0
 79157  1  0  0  0
 79158  1  0  0  0
 79 86  1  0  0  0
 80 89  1  0  0  0
 80159  1  0  0  0
 80160  1  0  0  0
 80161  1  0  0  0
 81 87  1  0  0  0
 81162  1  0  0  0
 81163  1  0  0  0
 82 83  1  0  0  0
 82 84  1  0  0  0
 82164  1  0  0  0
 82165  1  0  0  0
 83 85  1  0  0  0
 83166  1  0  0  0
 83167  1  0  0  0
 84 88  1  0  0  0
 84168  1  0  0  0
 84169  1  0  0  0
 85170  1  0  0  0
 85171  1  0  0  0
 86 88  1  0  0  0
 86172  1  0  0  0
 87173  1  0  0  0
 88174  1  0  0  0
 88175  1  0  0  0
M  CHG  1  88   1
M  ISO  4   1 100  68 101  85 101  87 100
M  END
> <chiral flag>
0

> <version>
0

> <s_m_source_file>
/data/baiqing/PycharmProjects/Reinvent-master-3.2/result/LINK_invent/BTK/process_docking_weight1_custom_sum_contain_oxygen_bond_distance_aromatic_linkinvent_7_9_3/rearranged_h_0019.sdf

> <i_m_source_file_index>
88

> <r_mmod_Potential_Energy-OPLS-2005>
11333.2109375

> <r_mmod_Stretch_Energy-OPLS-2005>
6341.5537109375

> <r_mmod_Bend_Energy-OPLS-2005>
602.279846191406

> <r_mmod_Torsional_Energy-OPLS-2005>
511.639251708984

> <r_mmod_Improper_Torsional_Energy-OPLS-2005>
36.7662086486816

> <r_mmod_Van_der_Waal_Energy-OPLS-2005>
3224.78002929688

> <r_mmod_Electrostatic_Energy-OPLS-2005>
-327.084106445312

> <r_mmod_Solvation_Energy-OPLS-2005>
-469.987884521484

> <b_mmod_Minimization_Converged-OPLS-2005>
0

> <r_mmod_RMS_Derivative-OPLS-2005>
2.5043933391571

$$$$
88
                    3D
 Structure written by MMmdl.
150158  0  0  1  0            999 V2000
  -30.4124  -15.3404   20.3768 C   0  0  0  0  0  0
  -30.4410  -12.8613   19.5272 C   0  0  0  0  0  0
  -29.5363  -12.6059   18.2924 C   0  0  0  0  0  0
  -28.0876  -12.3122   18.7188 C   0  0  0  0  0  0
  -27.6138  -13.2775   19.8324 C   0  0  2  0  0  0
  -28.6536  -13.4250   20.9644 C   0  0  0  0  0  0
  -25.2329  -13.8223   20.5698 C   0  0  0  0  0  0
  -24.1713  -13.0404   20.9254 C   0  0  0  0  0  0
  -24.6397  -11.6917   20.8763 C   0  0  0  0  0  0
  -23.9093  -10.4278   21.0402 C   0  0  0  0  0  0
  -24.3633   -9.4195   21.9186 C   0  0  0  0  0  0
  -23.6299   -8.2236   22.0753 C   0  0  0  0  0  0
  -22.4283   -8.0275   21.3539 C   0  0  0  0  0  0
  -21.9926   -9.0250   20.4639 C   0  0  0  0  0  0
  -22.7263  -10.2124   20.3050 C   0  0  0  0  0  0
  -21.6854   -6.0726   22.5277 C   0  0  0  0  0  0
  -21.4009   -6.5629   23.8211 C   0  0  0  0  0  0
  -21.3665   -5.6786   24.9176 C   0  0  0  0  0  0
  -21.6045   -4.3048   24.7227 C   0  0  0  0  0  0
  -21.8820   -3.8137   23.4351 C   0  0  0  0  0  0
  -21.9192   -4.6952   22.3404 C   0  0  0  0  0  0
  -22.7727  -13.5152   21.1909 C   0  0  0  0  0  0
  -22.1661   -4.2137   21.0983 F   0  0  0  0  0  0
  -21.5637   -3.4535   25.7743 F   0  0  0  0  0  0
  -29.8683  -14.0050   20.3479 N   0  0  0  0  0  0
  -26.2810  -12.9533   20.3247 N   0  0  0  0  0  0
  -25.9344  -11.6629   20.5746 N   0  0  0  0  0  0
  -22.0387  -12.8138   22.0468 N   0  0  0  0  0  0
  -25.3810  -15.1950   20.4025 N   0  0  0  0  0  0
  -31.6101  -15.3311   20.0455 O   0  0  0  0  0  0
  -21.6640   -6.8875   21.4240 O   0  0  0  0  0  0
  -22.3408  -14.5457   20.6756 O   0  0  0  0  0  0
  -24.6660  -31.8188   23.1662 C   0  0  0  0  0  0
  -25.9319  -32.4555   23.8146 C   0  0  1  0  0  0
  -27.2236  -26.8890   20.1837 C   0  0  0  0  0  0
  -25.5981  -33.8379   24.2042 N   0  0  0  0  0  0
  -23.4832  -30.4276   21.5169 C   0  0  2  0  0  0
  -24.9391  -28.8082   20.1088 C   0  0  0  0  0  0
  -22.7683  -29.4403   22.4769 C   0  0  0  0  0  0
  -18.0317  -28.1406   22.8451 C   0  0  0  0  0  0
  -24.1493  -36.7194   23.2646 C   0  0  0  0  0  0
  -26.0543  -30.6118   21.4025 C   0  0  0  0  0  0
  -26.1221  -29.1978   20.7472 C   0  0  0  0  0  0
  -27.2552  -28.2586   20.7615 C   0  0  0  0  0  0
  -26.0127  -26.6645   19.4895 C   0  0  0  0  0  0
  -24.9118  -27.5628   19.4596 C   0  0  0  0  0  0
  -23.7255  -29.7402   20.1443 C   0  0  0  0  0  0
  -25.4132  -36.2946   24.0295 C   0  0  1  0  0  0
  -20.5947  -28.3752   23.1177 C   0  0  2  0  0  0
  -20.6797  -26.9428   22.5407 C   0  0  0  0  0  0
  -19.5778  -26.6371   21.5214 C   0  0  0  0  0  0
  -18.1950  -26.7937   22.1610 C   0  0  0  0  0  0
  -19.1579  -28.8899   23.2796 C   0  0  0  0  0  0
  -18.9499  -30.1487   23.8837 C   0  0  0  0  0  0
  -17.6499  -30.6599   24.0552 C   0  0  0  0  0  0
  -25.9108  -34.9331   23.4992 C   0  0  0  0  0  0
  -16.5384  -29.9088   23.6342 C   0  0  0  0  0  0
  -16.7300  -28.6509   23.0356 C   0  0  0  0  0  0
  -26.4566  -31.6512   25.0685 C   0  0  0  0  0  0
  -25.3684  -31.3798   26.1336 C   0  0  0  0  0  0
  -27.0456  -30.2863   24.6443 C   0  0  0  0  0  0
  -27.6052  -32.4330   25.7492 C   0  0  0  0  0  0
  -27.5560  -37.1744   24.8462 C   0  0  0  0  0  0
  -21.4347  -29.3035   22.3518 N   0  0  0  0  0  0
  -26.4265  -37.3688   23.9413 N   0  0  0  0  0  0
  -24.7562  -30.9806   22.0822 N   0  0  0  0  0  0
  -23.4207  -28.7973   23.3027 O   0  0  0  0  0  0
  -28.2105  -25.7578   20.2919 O   0  0  0  0  0  0
  -26.5730  -34.8875   22.4592 O   0  0  0  0  0  0
  -23.5718  -32.1184   23.6720 O   0  0  0  0  0  0
  -29.8381  -20.1431   21.8465 C   0  0  0  0  0  0
  -29.7875  -21.4378   22.4338 C   0  0  0  0  0  0
  -29.3946  -19.8682   20.5370 C   0  0  0  0  0  0
  -28.7441  -22.6247   20.5030 C   0  0  0  0  0  0
  -29.2766  -22.6143   21.8154 C   0  0  0  0  0  0
  -28.8409  -21.1847   19.9092 C   0  0  0  0  0  0
  -28.5835  -16.6347   21.5182 C   0  0  0  0  0  0
  -29.7299  -18.2313   19.9384 C   0  0  0  0  0  0
  -28.0037  -24.1363   19.9426 C   0  0  0  0  0  0
  -29.6630  -16.6471   20.5378 N   0  0  0  0  0  0
  -29.2958  -24.0703   22.7461 Cl  0  0  0  0  0  0
  -28.2389  -21.0175   18.3009 Cl  0  0  0  0  0  0
  -31.4522  -13.0775   19.1804 H   0  0  0  0  0  0
  -30.5415  -11.9534   20.1246 H   0  0  0  0  0  0
  -29.9267  -11.7815   17.6939 H   0  0  0  0  0  0
  -29.5549  -13.4859   17.6479 H   0  0  0  0  0  0
  -28.0536  -11.2861   19.0873 H   0  0  0  0  0  0
  -27.4179  -12.3503   17.8592 H   0  0  0  0  0  0
  -27.5327  -14.2513   19.3481 H   0  0  0  0  0  0
  -28.8514  -12.4609   21.4359 H   0  0  0  0  0  0
  -28.2705  -14.0535   21.7637 H   0  0  0  0  0  0
  -25.2776   -9.5671   22.4766 H   0  0  0  0  0  0
  -23.9998   -7.4628   22.7479 H   0  0  0  0  0  0
  -21.0857   -8.8778   19.8944 H   0  0  0  0  0  0
  -22.3728  -10.9664   19.6157 H   0  0  0  0  0  0
  -21.1992   -7.6136   23.9711 H   0  0  0  0  0  0
  -21.1489   -6.0514   25.9080 H   0  0  0  0  0  0
  -22.0591   -2.7595   23.2857 H   0  0  0  0  0  0
  -22.4016  -11.9811   22.4870 H   0  0  0  0  0  0
  -21.0989  -13.1130   22.2653 H   0  0  0  0  0  0
  -24.6015  -15.8333   20.5164 H   0  0  0  0  0  0
  -26.2163  -15.6475   20.0560 H   0  0  0  0  0  0
  -26.7386  -32.5070   23.0859 H   0  0  0  0  0  0
  -25.0079  -33.9458   25.0160 H   0  0  0  0  0  0
  -22.7971  -31.2592   21.3425 H   0  0  0  0  0  0
  -23.3766  -35.9512   23.3267 H   0  0  0  0  0  0
  -24.3578  -36.8886   22.2071 H   0  0  0  0  0  0
  -23.7238  -37.6362   23.6736 H   0  0  0  0  0  0
  -26.2356  -31.3490   20.6195 H   0  0  0  0  0  0
  -26.9147  -30.6721   22.0571 H   0  0  0  0  0  0
  -28.1457  -28.5530   21.2980 H   0  0  0  0  0  0
  -25.8780  -25.7156   18.9915 H   0  0  0  0  0  0
  -24.0144  -27.2580   18.9382 H   0  0  0  0  0  0
  -23.8798  -30.5088   19.3865 H   0  0  0  0  0  0
  -22.8348  -29.1965   19.8256 H   0  0  0  0  0  0
  -25.1325  -36.1739   25.0785 H   0  0  0  0  0  0
  -21.0025  -28.3374   24.1304 H   0  0  0  0  0  0
  -20.5669  -26.2377   23.3657 H   0  0  0  0  0  0
  -21.6661  -26.7391   22.1219 H   0  0  0  0  0  0
  -19.6951  -25.6273   21.1268 H   0  0  0  0  0  0
  -19.6726  -27.3158   20.6729 H   0  0  0  0  0  0
  -17.4225  -26.6671   21.4011 H   0  0  0  0  0  0
  -18.0337  -26.0089   22.9014 H   0  0  0  0  0  0
  -19.7984  -30.7304   24.2179 H   0  0  0  0  0  0
  -17.5060  -31.6268   24.5172 H   0  0  0  0  0  0
  -15.5384  -30.2984   23.7705 H   0  0  0  0  0  0
  -15.8693  -28.0820   22.7113 H   0  0  0  0  0  0
  -24.5929  -30.7059   25.7680 H   0  0  0  0  0  0
  -24.8800  -32.3005   26.4538 H   0  0  0  0  0  0
  -25.7916  -30.9153   27.0251 H   0  0  0  0  0  0
  -26.3125  -29.6538   24.1424 H   0  0  0  0  0  0
  -27.3941  -29.7228   25.5109 H   0  0  0  0  0  0
  -27.9085  -30.4014   23.9883 H   0  0  0  0  0  0
  -27.2643  -33.3741   26.1819 H   0  0  0  0  0  0
  -28.3998  -32.6701   25.0406 H   0  0  0  0  0  0
  -28.0549  -31.8604   26.5615 H   0  0  0  0  0  0
  -28.2535  -38.0077   24.7519 H   0  0  0  0  0  0
  -28.1096  -36.2600   24.6273 H   0  0  0  0  0  0
  -27.2280  -37.1362   25.8863 H   0  0  0  0  0  0
  -20.9616  -29.8738   21.6646 H   0  0  0  0  0  0
  -26.0109  -38.2733   24.1451 H   0  0  0  0  0  0
  -30.2702  -19.3372   22.4232 H   0  0  0  0  0  0
  -30.1699  -21.5360   23.4398 H   0  0  0  0  0  0
  -28.8803  -16.1197   22.4325 H   0  0  0  0  0  0
  -27.7114  -16.1433   21.0996 H   0  0  0  0  0  0
  -28.2702  -17.6371   21.8082 H   0  0  0  0  0  0
  -30.7557  -18.3100   19.5770 H   0  0  0  0  0  0
  -29.1420  -18.1744   19.0224 H   0  0  0  0  0  0
  -26.9500  -23.9655   20.1632 H   0  0  0  0  0  0
  -28.0621  -24.0794   18.8552 H   0  0  0  0  0  0
  1 25  1  0  0  0
  1 30  2  0  0  0
  1 80  1  0  0  0
  2  3  1  0  0  0
  2 25  1  0  0  0
  2 83  1  0  0  0
  2 84  1  0  0  0
  3  4  1  0  0  0
  3 85  1  0  0  0
  3 86  1  0  0  0
  4  5  1  0  0  0
  4 87  1  0  0  0
  4 88  1  0  0  0
  5  6  1  0  0  0
  5 26  1  0  0  0
  5 89  1  0  0  0
  6 25  1  0  0  0
  6 90  1  0  0  0
  6 91  1  0  0  0
  7  8  2  0  0  0
  7 26  1  0  0  0
  7 29  1  0  0  0
  8  9  1  0  0  0
  8 22  1  0  0  0
  9 10  1  0  0  0
  9 27  2  0  0  0
 10 11  2  0  0  0
 10 15  1  0  0  0
 11 12  1  0  0  0
 11 92  1  0  0  0
 12 13  2  0  0  0
 12 93  1  0  0  0
 13 14  1  0  0  0
 13 31  1  0  0  0
 14 15  2  0  0  0
 14 94  1  0  0  0
 15 95  1  0  0  0
 16 17  2  0  0  0
 16 21  1  0  0  0
 16 31  1  0  0  0
 17 18  1  0  0  0
 17 96  1  0  0  0
 18 19  2  0  0  0
 18 97  1  0  0  0
 19 20  1  0  0  0
 19 24  1  0  0  0
 20 21  2  0  0  0
 20 98  1  0  0  0
 21 23  1  0  0  0
 22 28  1  0  0  0
 22 32  2  0  0  0
 26 27  1  0  0  0
 28 99  1  0  0  0
 28100  1  0  0  0
 29101  1  0  0  0
 29102  1  0  0  0
 33 34  1  0  0  0
 33 66  1  0  0  0
 33 70  2  0  0  0
 34 36  1  0  0  0
 34 59  1  0  0  0
 34103  1  0  0  0
 35 44  2  0  0  0
 35 45  1  0  0  0
 35 68  1  0  0  0
 36 56  1  0  0  0
 36104  1  0  0  0
 37 39  1  0  0  0
 37 47  1  0  0  0
 37 66  1  0  0  0
 37105  1  0  0  0
 38 43  2  0  0  0
 38 46  1  0  0  0
 38 47  1  0  0  0
 39 64  1  0  0  0
 39 67  2  0  0  0
 40 52  1  0  0  0
 40 53  2  0  0  0
 40 58  1  0  0  0
 41106  1  0  0  0
 41107  1  0  0  0
 41108  1  0  0  0
 41 48  1  0  0  0
 42 43  1  0  0  0
 42 66  1  0  0  0
 42109  1  0  0  0
 42110  1  0  0  0
 43 44  1  0  0  0
 44111  1  0  0  0
 45 46  2  0  0  0
 45112  1  0  0  0
 46113  1  0  0  0
 47114  1  0  0  0
 47115  1  0  0  0
 48 56  1  0  0  0
 48 65  1  0  0  0
 48116  1  0  0  0
 49 50  1  0  0  0
 49 53  1  0  0  0
 49 64  1  0  0  0
 49117  1  0  0  0
 50 51  1  0  0  0
 50118  1  0  0  0
 50119  1  0  0  0
 51 52  1  0  0  0
 51120  1  0  0  0
 51121  1  0  0  0
 52122  1  0  0  0
 52123  1  0  0  0
 53 54  1  0  0  0
 54 55  2  0  0  0
 54124  1  0  0  0
 55 57  1  0  0  0
 55125  1  0  0  0
 56 69  2  0  0  0
 57 58  2  0  0  0
 57126  1  0  0  0
 58127  1  0  0  0
 59 60  1  0  0  0
 59 61  1  0  0  0
 59 62  1  0  0  0
 60128  1  0  0  0
 60129  1  0  0  0
 60130  1  0  0  0
 61131  1  0  0  0
 61132  1  0  0  0
 61133  1  0  0  0
 62134  1  0  0  0
 62135  1  0  0  0
 62136  1  0  0  0
 63 65  1  0  0  0
 63137  1  0  0  0
 63138  1  0  0  0
 63139  1  0  0  0
 64140  1  0  0  0
 65141  1  0  0  0
 68 79  1  0  0  0
 71 72  2  0  0  0
 71 73  1  0  0  0
 71142  1  0  0  0
 72 75  1  0  0  0
 72143  1  0  0  0
 73 76  2  0  0  0
 73 78  1  0  0  0
 74 75  2  0  0  0
 74 76  1  0  0  0
 74 79  1  0  0  0
 75 81  1  0  0  0
 76 82  1  0  0  0
 77 80  1  0  0  0
 77144  1  0  0  0
 77145  1  0  0  0
 77146  1  0  0  0
 78 80  1  0  0  0
 78147  1  0  0  0
 78148  1  0  0  0
 79149  1  0  0  0
 79150  1  0  0  0
M  ISO  4   1 100  68 101  79 101  80 100
M  END
> <chiral flag>
0

> <version>
0

> <s_m_source_file>
/data/baiqing/PycharmProjects/Reinvent-master-3.2/result/LINK_invent/BTK/process_docking_weight1_custom_sum_contain_oxygen_bond_distance_aromatic_linkinvent_7_9_3/rearranged_h_0019.sdf

> <i_m_source_file_index>
89

> <r_mmod_Potential_Energy-OPLS-2005>
1530.94848632812

> <r_mmod_Stretch_Energy-OPLS-2005>
664.497680664062

> <r_mmod_Bend_Energy-OPLS-2005>
444.759704589844

> <r_mmod_Torsional_Energy-OPLS-2005>
259.603240966797

> <r_mmod_Improper_Torsional_Energy-OPLS-2005>
6.02592754364014

> <r_mmod_Van_der_Waal_Energy-OPLS-2005>
124.532623291016

> <r_mmod_Electrostatic_Energy-OPLS-2005>
-283.562835693359

> <r_mmod_Solvation_Energy-OPLS-2005>
-207.07470703125

> <b_mmod_Minimization_Converged-OPLS-2005>
0

> <r_mmod_RMS_Derivative-OPLS-2005>
1.36948943138123

$$$$
89
                    3D
 Structure written by MMmdl.
155164  0  0  1  0            999 V2000
  -30.4088  -15.3734   20.3775 C   0  0  0  0  0  0
  -30.4421  -12.9032   19.5104 C   0  0  0  0  0  0
  -29.5362  -12.5665   18.2977 C   0  0  0  0  0  0
  -28.1084  -12.2441   18.7638 C   0  0  0  0  0  0
  -27.6062  -13.2664   19.8092 C   0  0  2  0  0  0
  -28.6355  -13.5199   20.9309 C   0  0  0  0  0  0
  -25.2395  -13.8217   20.5738 C   0  0  0  0  0  0
  -24.1744  -13.0423   20.9271 C   0  0  0  0  0  0
  -24.6390  -11.6915   20.8779 C   0  0  0  0  0  0
  -23.9085  -10.4285   21.0414 C   0  0  0  0  0  0
  -24.3642   -9.4199   21.9184 C   0  0  0  0  0  0
  -23.6311   -8.2237   22.0755 C   0  0  0  0  0  0
  -22.4285   -8.0287   21.3548 C   0  0  0  0  0  0
  -21.9923   -9.0259   20.4648 C   0  0  0  0  0  0
  -22.7258  -10.2132   20.3058 C   0  0  0  0  0  0
  -21.6854   -6.0755   22.5284 C   0  0  0  0  0  0
  -21.4006   -6.5655   23.8220 C   0  0  0  0  0  0
  -21.3648   -5.6801   24.9178 C   0  0  0  0  0  0
  -21.6041   -4.3065   24.7221 C   0  0  0  0  0  0
  -21.8818   -3.8164   23.4342 C   0  0  0  0  0  0
  -21.9187   -4.6983   22.3406 C   0  0  0  0  0  0
  -22.7763  -13.5184   21.1920 C   0  0  0  0  0  0
  -22.1658   -4.2169   21.0984 F   0  0  0  0  0  0
  -21.5624   -3.4547   25.7733 F   0  0  0  0  0  0
  -29.8435  -14.0607   20.2791 N   0  0  0  0  0  0
  -26.2800  -12.9465   20.3194 N   0  0  0  0  0  0
  -25.9320  -11.6582   20.5731 N   0  0  0  0  0  0
  -22.0438  -12.8155   22.0477 N   0  0  0  0  0  0
  -25.4043  -15.1948   20.4146 N   0  0  0  0  0  0
  -31.6450  -15.3440   20.2746 O   0  0  0  0  0  0
  -21.6639   -6.8894   21.4243 O   0  0  0  0  0  0
  -22.3431  -14.5486   20.6766 O   0  0  0  0  0  0
  -24.6706  -31.8201   23.1683 C   0  0  0  0  0  0
  -25.9370  -32.4588   23.8142 C   0  0  1  0  0  0
  -27.2126  -26.8695   20.2029 C   0  0  0  0  0  0
  -25.6029  -33.8400   24.2052 N   0  0  0  0  0  0
  -23.4859  -30.4326   21.5180 C   0  0  2  0  0  0
  -24.9381  -28.8105   20.1139 C   0  0  0  0  0  0
  -22.7701  -29.4431   22.4768 C   0  0  0  0  0  0
  -18.0336  -28.1455   22.8497 C   0  0  0  0  0  0
  -24.1456  -36.7193   23.2639 C   0  0  0  0  0  0
  -26.0573  -30.6131   21.3995 C   0  0  0  0  0  0
  -26.1244  -29.1926   20.7530 C   0  0  0  0  0  0
  -27.2537  -28.2483   20.7696 C   0  0  0  0  0  0
  -25.9976  -26.6602   19.5056 C   0  0  0  0  0  0
  -24.9057  -27.5666   19.4650 C   0  0  0  0  0  0
  -23.7293  -29.7484   20.1430 C   0  0  0  0  0  0
  -25.4095  -36.2952   24.0297 C   0  0  1  0  0  0
  -20.5971  -28.3789   23.1207 C   0  0  2  0  0  0
  -20.6811  -26.9477   22.5417 C   0  0  0  0  0  0
  -19.5767  -26.6424   21.5249 C   0  0  0  0  0  0
  -18.1944  -26.7999   22.1634 C   0  0  0  0  0  0
  -19.1600  -28.8941   23.2846 C   0  0  0  0  0  0
  -18.9503  -30.1530   23.8880 C   0  0  0  0  0  0
  -17.6499  -30.6645   24.0576 C   0  0  0  0  0  0
  -25.9098  -34.9357   23.4988 C   0  0  0  0  0  0
  -16.5387  -29.9139   23.6367 C   0  0  0  0  0  0
  -16.7318  -28.6559   23.0392 C   0  0  0  0  0  0
  -26.4586  -31.6564   25.0691 C   0  0  0  0  0  0
  -25.3716  -31.3880   26.1368 C   0  0  0  0  0  0
  -27.0440  -30.2919   24.6423 C   0  0  0  0  0  0
  -27.6058  -32.4374   25.7508 C   0  0  0  0  0  0
  -27.5545  -37.1718   24.8456 C   0  0  0  0  0  0
  -21.4363  -29.3075   22.3532 N   0  0  0  0  0  0
  -26.4201  -37.3732   23.9475 N   0  0  0  0  0  0
  -24.7610  -30.9818   22.0844 N   0  0  0  0  0  0
  -23.4226  -28.8005   23.3027 O   0  0  0  0  0  0
  -28.1897  -25.7190   20.2555 O   0  0  0  0  0  0
  -26.5671  -34.8916   22.4560 O   0  0  0  0  0  0
  -23.5770  -32.1149   23.6786 O   0  0  0  0  0  0
  -29.3952  -19.9923   20.3189 C   0  0  0  0  0  0
  -28.5807  -21.1972   20.8391 C   0  0  0  0  0  0
  -28.6539  -22.5447   20.2403 C   0  0  0  0  0  0
  -29.9782  -20.7818   19.3386 C   0  0  0  0  0  0
  -30.1528  -24.1206   16.3796 C   0  0  0  0  0  0
  -30.6781  -22.7826   16.9032 C   0  0  0  0  0  0
  -29.0915  -24.0260   17.4764 C   0  0  0  0  0  0
  -30.0668  -23.1375   18.2749 C   0  0  0  0  0  0
  -29.8516  -18.3074   20.8102 C   0  0  0  0  0  0
  -27.7833  -24.0982   20.3610 C   0  0  0  0  0  0
  -29.5686  -22.1693   19.2304 N   0  0  0  0  0  0
  -29.6495  -16.6728   20.3905 N   0  0  0  0  0  0
  -27.5513  -20.9681   22.2050 Cl  0  0  0  0  0  0
  -31.2285  -20.1475   18.3356 Cl  0  0  0  0  0  0
  -31.4388  -13.1513   19.1424 H   0  0  0  0  0  0
  -30.5755  -12.0348   20.1582 H   0  0  0  0  0  0
  -29.9495  -11.7237   17.7417 H   0  0  0  0  0  0
  -29.5129  -13.4111   17.6081 H   0  0  0  0  0  0
  -28.1369  -11.2548   19.2251 H   0  0  0  0  0  0
  -27.4240  -12.1659   17.9193 H   0  0  0  0  0  0
  -27.4991  -14.2002   19.2562 H   0  0  0  0  0  0
  -28.8440  -12.6151   21.5023 H   0  0  0  0  0  0
  -28.2447  -14.2532   21.6373 H   0  0  0  0  0  0
  -25.2797   -9.5668   22.4753 H   0  0  0  0  0  0
  -24.0022   -7.4620   22.7466 H   0  0  0  0  0  0
  -21.0856   -8.8776   19.8961 H   0  0  0  0  0  0
  -22.3719  -10.9670   19.6169 H   0  0  0  0  0  0
  -21.2003   -7.6163   23.9724 H   0  0  0  0  0  0
  -21.1458   -6.0536   25.9078 H   0  0  0  0  0  0
  -22.0604   -2.7626   23.2835 H   0  0  0  0  0  0
  -22.4083  -11.9822   22.4847 H   0  0  0  0  0  0
  -21.1050  -13.1137   22.2711 H   0  0  0  0  0  0
  -24.6372  -15.8476   20.5320 H   0  0  0  0  0  0
  -26.2489  -15.6332   20.0727 H   0  0  0  0  0  0
  -26.7446  -32.5098   23.0855 H   0  0  0  0  0  0
  -25.0220  -33.9467   25.0233 H   0  0  0  0  0  0
  -22.8029  -31.2675   21.3467 H   0  0  0  0  0  0
  -23.3744  -35.9490   23.3218 H   0  0  0  0  0  0
  -24.3565  -36.8935   22.2077 H   0  0  0  0  0  0
  -23.7160  -37.6334   23.6747 H   0  0  0  0  0  0
  -26.2279  -31.3453   20.6087 H   0  0  0  0  0  0
  -26.9237  -30.6851   22.0451 H   0  0  0  0  0  0
  -28.1493  -28.5477   21.2950 H   0  0  0  0  0  0
  -25.8506  -25.7215   18.9933 H   0  0  0  0  0  0
  -24.0125  -27.2706   18.9300 H   0  0  0  0  0  0
  -23.8969  -30.5192   19.3889 H   0  0  0  0  0  0
  -22.8347  -29.2143   19.8162 H   0  0  0  0  0  0
  -25.1285  -36.1693   25.0777 H   0  0  0  0  0  0
  -21.0056  -28.3395   24.1334 H   0  0  0  0  0  0
  -20.5708  -26.2424   23.3676 H   0  0  0  0  0  0
  -21.6670  -26.7483   22.1199 H   0  0  0  0  0  0
  -19.6915  -25.6323   21.1320 H   0  0  0  0  0  0
  -19.6693  -27.3203   20.6752 H   0  0  0  0  0  0
  -17.4232  -26.6817   21.4018 H   0  0  0  0  0  0
  -18.0267  -26.0147   22.9026 H   0  0  0  0  0  0
  -19.7979  -30.7375   24.2212 H   0  0  0  0  0  0
  -17.5063  -31.6316   24.5202 H   0  0  0  0  0  0
  -15.5391  -30.3044   23.7724 H   0  0  0  0  0  0
  -15.8719  -28.0887   22.7113 H   0  0  0  0  0  0
  -24.5911  -30.7184   25.7761 H   0  0  0  0  0  0
  -24.8875  -32.3108   26.4573 H   0  0  0  0  0  0
  -25.7972  -30.9248   27.0281 H   0  0  0  0  0  0
  -26.3088  -29.6646   24.1367 H   0  0  0  0  0  0
  -27.3911  -29.7252   25.5068 H   0  0  0  0  0  0
  -27.9084  -30.4114   23.9886 H   0  0  0  0  0  0
  -27.2609  -33.3734   26.1923 H   0  0  0  0  0  0
  -28.3978  -32.6843   25.0428 H   0  0  0  0  0  0
  -28.0603  -31.8596   26.5566 H   0  0  0  0  0  0
  -28.2504  -38.0072   24.7606 H   0  0  0  0  0  0
  -28.1086  -36.2614   24.6109 H   0  0  0  0  0  0
  -27.2330  -37.1200   25.8874 H   0  0  0  0  0  0
  -20.9614  -29.8785   21.6682 H   0  0  0  0  0  0
  -26.0019  -38.2757   24.1585 H   0  0  0  0  0  0
  -29.7654  -24.0978   15.3603 H   0  0  0  0  0  0
  -30.8493  -24.9486   16.5331 H   0  0  0  0  0  0
  -31.7651  -22.6843   16.8898 H   0  0  0  0  0  0
  -30.1940  -21.9356   16.4124 H   0  0  0  0  0  0
  -28.1968  -23.4879   17.1568 H   0  0  0  0  0  0
  -28.8395  -24.9827   17.9300 H   0  0  0  0  0  0
  -30.7651  -23.7640   18.8361 H   0  0  0  0  0  0
  -29.5266  -18.3001   21.8513 H   0  0  0  0  0  0
  -30.9367  -18.3876   20.8918 H   0  0  0  0  0  0
  -27.2425  -24.0488   21.3064 H   0  0  0  0  0  0
  -26.9901  -23.9891   19.6241 H   0  0  0  0  0  0
  -28.6675  -16.4789   20.2588 H   0  0  0  0  0  0
  1 25  1  0  0  0
  1 30  2  0  0  0
  1 82  1  0  0  0
  2  3  1  0  0  0
  2 25  1  0  0  0
  2 85  1  0  0  0
  2 86  1  0  0  0
  3  4  1  0  0  0
  3 87  1  0  0  0
  3 88  1  0  0  0
  4  5  1  0  0  0
  4 89  1  0  0  0
  4 90  1  0  0  0
  5  6  1  0  0  0
  5 26  1  0  0  0
  5 91  1  0  0  0
  6 25  1  0  0  0
  6 92  1  0  0  0
  6 93  1  0  0  0
  7  8  2  0  0  0
  7 26  1  0  0  0
  7 29  1  0  0  0
  8  9  1  0  0  0
  8 22  1  0  0  0
  9 10  1  0  0  0
  9 27  2  0  0  0
 10 11  2  0  0  0
 10 15  1  0  0  0
 11 12  1  0  0  0
 11 94  1  0  0  0
 12 13  2  0  0  0
 12 95  1  0  0  0
 13 14  1  0  0  0
 13 31  1  0  0  0
 14 15  2  0  0  0
 14 96  1  0  0  0
 15 97  1  0  0  0
 16 17  2  0  0  0
 16 21  1  0  0  0
 16 31  1  0  0  0
 17 18  1  0  0  0
 17 98  1  0  0  0
 18 19  2  0  0  0
 18 99  1  0  0  0
 19 20  1  0  0  0
 19 24  1  0  0  0
 20 21  2  0  0  0
 20100  1  0  0  0
 21 23  1  0  0  0
 22 28  1  0  0  0
 22 32  2  0  0  0
 26 27  1  0  0  0
 28101  1  0  0  0
 28102  1  0  0  0
 29103  1  0  0  0
 29104  1  0  0  0
 33 34  1  0  0  0
 33 66  1  0  0  0
 33 70  2  0  0  0
 34 36  1  0  0  0
 34 59  1  0  0  0
 34105  1  0  0  0
 35 44  2  0  0  0
 35 45  1  0  0  0
 35 68  1  0  0  0
 36 56  1  0  0  0
 36106  1  0  0  0
 37 39  1  0  0  0
 37 47  1  0  0  0
 37 66  1  0  0  0
 37107  1  0  0  0
 38 43  2  0  0  0
 38 46  1  0  0  0
 38 47  1  0  0  0
 39 64  1  0  0  0
 39 67  2  0  0  0
 40 52  1  0  0  0
 40 53  2  0  0  0
 40 58  1  0  0  0
 41108  1  0  0  0
 41109  1  0  0  0
 41110  1  0  0  0
 41 48  1  0  0  0
 42 43  1  0  0  0
 42 66  1  0  0  0
 42111  1  0  0  0
 42112  1  0  0  0
 43 44  1  0  0  0
 44113  1  0  0  0
 45 46  2  0  0  0
 45114  1  0  0  0
 46115  1  0  0  0
 47116  1  0  0  0
 47117  1  0  0  0
 48 56  1  0  0  0
 48 65  1  0  0  0
 48118  1  0  0  0
 49 50  1  0  0  0
 49 53  1  0  0  0
 49 64  1  0  0  0
 49119  1  0  0  0
 50 51  1  0  0  0
 50120  1  0  0  0
 50121  1  0  0  0
 51 52  1  0  0  0
 51122  1  0  0  0
 51123  1  0  0  0
 52124  1  0  0  0
 52125  1  0  0  0
 53 54  1  0  0  0
 54 55  2  0  0  0
 54126  1  0  0  0
 55 57  1  0  0  0
 55127  1  0  0  0
 56 69  2  0  0  0
 57 58  2  0  0  0
 57128  1  0  0  0
 58129  1  0  0  0
 59 60  1  0  0  0
 59 61  1  0  0  0
 59 62  1  0  0  0
 60130  1  0  0  0
 60131  1  0  0  0
 60132  1  0  0  0
 61133  1  0  0  0
 61134  1  0  0  0
 61135  1  0  0  0
 62136  1  0  0  0
 62137  1  0  0  0
 62138  1  0  0  0
 63 65  1  0  0  0
 63139  1  0  0  0
 63140  1  0  0  0
 63141  1  0  0  0
 64142  1  0  0  0
 65143  1  0  0  0
 68 80  1  0  0  0
 71 72  1  0  0  0
 71 74  2  0  0  0
 71 79  1  0  0  0
 72 73  2  0  0  0
 72 83  1  0  0  0
 73 80  1  0  0  0
 73 81  1  0  0  0
 74 81  1  0  0  0
 74 84  1  0  0  0
 75 76  1  0  0  0
 75 77  1  0  0  0
 75144  1  0  0  0
 75145  1  0  0  0
 76 78  1  0  0  0
 76146  1  0  0  0
 76147  1  0  0  0
 77 78  1  0  0  0
 77148  1  0  0  0
 77149  1  0  0  0
 78 81  1  0  0  0
 78150  1  0  0  0
 79 82  1  0  0  0
 79151  1  0  0  0
 79152  1  0  0  0
 80153  1  0  0  0
 80154  1  0  0  0
 82155  1  0  0  0
M  ISO  4   1 100  68 101  80 101  82 100
M  END
> <chiral flag>
0

> <version>
0

> <s_m_source_file>
/data/baiqing/PycharmProjects/Reinvent-master-3.2/result/LINK_invent/BTK/process_docking_weight1_custom_sum_contain_oxygen_bond_distance_aromatic_linkinvent_7_9_3/rearranged_h_0019.sdf

> <i_m_source_file_index>
90

> <r_mmod_Potential_Energy-OPLS-2005>
1598.08837890625

> <r_mmod_Stretch_Energy-OPLS-2005>
664.20703125

> <r_mmod_Bend_Energy-OPLS-2005>
533.272644042969

> <r_mmod_Torsional_Energy-OPLS-2005>
277.642639160156

> <r_mmod_Improper_Torsional_Energy-OPLS-2005>
8.27734184265137

> <r_mmod_Van_der_Waal_Energy-OPLS-2005>
108.08576965332

> <r_mmod_Electrostatic_Energy-OPLS-2005>
-360.064605712891

> <r_mmod_Solvation_Energy-OPLS-2005>
-209.479446411133

> <b_mmod_Minimization_Converged-OPLS-2005>
0

> <r_mmod_RMS_Derivative-OPLS-2005>
2.97427439689636

$$$$
90
                    3D
 Structure written by MMmdl.
149157  0  0  1  0            999 V2000
  -30.2444  -15.7878   20.3011 C   0  0  0  0  0  0
  -30.4155  -13.1942   19.5375 C   0  0  0  0  0  0
  -29.5586  -12.6711   18.3445 C   0  0  0  0  0  0
  -28.1505  -12.2743   18.8073 C   0  0  0  0  0  0
  -27.5892  -13.3123   19.8015 C   0  0  2  0  0  0
  -28.5921  -13.7246   20.9092 C   0  0  0  0  0  0
  -25.2307  -13.8279   20.5761 C   0  0  0  0  0  0
  -24.1700  -13.0431   20.9280 C   0  0  0  0  0  0
  -24.6391  -11.6938   20.8754 C   0  0  0  0  0  0
  -23.9081  -10.4297   21.0393 C   0  0  0  0  0  0
  -24.3633   -9.4210   21.9168 C   0  0  0  0  0  0
  -23.6294   -8.2247   22.0734 C   0  0  0  0  0  0
  -22.4276   -8.0276   21.3526 C   0  0  0  0  0  0
  -21.9915   -9.0261   20.4638 C   0  0  0  0  0  0
  -22.7249  -10.2135   20.3048 C   0  0  0  0  0  0
  -21.6846   -6.0730   22.5273 C   0  0  0  0  0  0
  -21.4026   -6.5638   23.8207 C   0  0  0  0  0  0
  -21.3662   -5.6785   24.9167 C   0  0  0  0  0  0
  -21.6050   -4.3044   24.7217 C   0  0  0  0  0  0
  -21.8823   -3.8134   23.4335 C   0  0  0  0  0  0
  -21.9190   -4.6957   22.3397 C   0  0  0  0  0  0
  -22.7711  -13.5183   21.1905 C   0  0  0  0  0  0
  -22.1651   -4.2140   21.0966 F   0  0  0  0  0  0
  -21.5623   -3.4532   25.7731 F   0  0  0  0  0  0
  -29.7430  -14.3921   20.2435 N   0  0  0  0  0  0
  -26.2749  -12.9608   20.3198 N   0  0  0  0  0  0
  -25.9339  -11.6683   20.5679 N   0  0  0  0  0  0
  -22.0356  -12.8204   22.0482 N   0  0  0  0  0  0
  -25.3910  -15.2016   20.4120 N   0  0  0  0  0  0
  -31.4838  -15.6834   20.1672 O   0  0  0  0  0  0
  -21.6624   -6.8880   21.4236 O   0  0  0  0  0  0
  -22.3403  -14.5473   20.6711 O   0  0  0  0  0  0
  -24.6939  -31.7867   23.1436 C   0  0  0  0  0  0
  -25.9470  -32.4398   23.8016 C   0  0  1  0  0  0
  -27.2382  -26.5829   20.2197 C   0  0  0  0  0  0
  -25.6004  -33.8235   24.1871 N   0  0  0  0  0  0
  -23.5265  -30.3815   21.5000 C   0  0  2  0  0  0
  -24.9865  -28.6969   20.1233 C   0  0  0  0  0  0
  -22.7821  -29.4233   22.4695 C   0  0  0  0  0  0
  -18.0346  -28.1427   22.8439 C   0  0  0  0  0  0
  -24.1516  -36.7122   23.2652 C   0  0  0  0  0  0
  -26.1137  -30.4751   21.4316 C   0  0  0  0  0  0
  -26.1785  -29.0289   20.7781 C   0  0  0  0  0  0
  -27.2825  -28.0058   20.7877 C   0  0  0  0  0  0
  -26.0092  -26.4903   19.5087 C   0  0  0  0  0  0
  -24.9472  -27.4534   19.4660 C   0  0  0  0  0  0
  -23.7884  -29.6674   20.1413 C   0  0  0  0  0  0
  -25.4174  -36.2851   24.0259 C   0  0  1  0  0  0
  -20.5983  -28.3797   23.1128 C   0  0  2  0  0  0
  -20.6812  -26.9443   22.5425 C   0  0  0  0  0  0
  -19.5796  -26.6353   21.5235 C   0  0  0  0  0  0
  -18.1973  -26.7947   22.1617 C   0  0  0  0  0  0
  -19.1612  -28.8942   23.2751 C   0  0  0  0  0  0
  -18.9514  -30.1523   23.8798 C   0  0  0  0  0  0
  -17.6498  -30.6610   24.0539 C   0  0  0  0  0  0
  -25.9152  -34.9245   23.4915 C   0  0  0  0  0  0
  -16.5384  -29.9082   23.6355 C   0  0  0  0  0  0
  -16.7318  -28.6503   23.0369 C   0  0  0  0  0  0
  -26.4601  -31.6498   25.0709 C   0  0  0  0  0  0
  -25.3609  -31.3908   26.1297 C   0  0  0  0  0  0
  -27.0527  -30.2790   24.6759 C   0  0  0  0  0  0
  -27.6032  -32.4389   25.7511 C   0  0  0  0  0  0
  -27.5579  -37.1708   24.8446 C   0  0  0  0  0  0
  -21.4461  -29.3005   22.3438 N   0  0  0  0  0  0
  -26.4289  -37.3622   23.9385 N   0  0  0  0  0  0
  -24.8022  -30.9176   22.0764 N   0  0  0  0  0  0
  -23.4207  -28.7868   23.3118 O   0  0  0  0  0  0
  -28.2055  -25.3222   20.2746 O   0  0  0  0  0  0
  -26.5817  -34.8841   22.4552 O   0  0  0  0  0  0
  -23.5932  -32.1021   23.6306 O   0  0  0  0  0  0
  -30.4329  -21.8370   19.9834 C   0  0  0  0  0  0
  -29.0234  -21.7974   20.1989 C   0  0  0  0  0  0
  -29.5883  -18.9504   20.2483 C   0  0  0  0  0  0
  -30.9085  -19.4200   20.0182 C   0  0  0  0  0  0
  -31.1551  -23.1611   19.8122 C   0  0  0  0  0  0
  -33.1975  -18.9036   19.4354 C   0  0  0  0  0  0
  -28.0868  -23.4971   20.2108 C   0  0  0  0  0  0
  -28.6972  -20.2564   20.3155 N   0  0  0  0  0  0
  -31.2719  -20.7459   19.9049 N   0  0  0  0  0  0
  -29.4694  -17.1843   20.3360 N   0  0  0  0  0  0
  -31.9141  -18.4853   19.8904 O   0  0  0  0  0  0
  -31.3885  -13.4829   19.1402 H   0  0  0  0  0  0
  -30.6321  -12.3912   20.2445 H   0  0  0  0  0  0
  -30.0518  -11.8247   17.8641 H   0  0  0  0  0  0
  -29.4838  -13.4514   17.5861 H   0  0  0  0  0  0
  -28.2258  -11.3078   19.3092 H   0  0  0  0  0  0
  -27.4832  -12.1265   17.9575 H   0  0  0  0  0  0
  -27.4321  -14.2007   19.1869 H   0  0  0  0  0  0
  -28.8855  -12.8766   21.5294 H   0  0  0  0  0  0
  -28.1223  -14.4428   21.5813 H   0  0  0  0  0  0
  -25.2782   -9.5690   22.4738 H   0  0  0  0  0  0
  -24.0002   -7.4649   22.7474 H   0  0  0  0  0  0
  -21.0821   -8.8792   19.8976 H   0  0  0  0  0  0
  -22.3689  -10.9670   19.6164 H   0  0  0  0  0  0
  -21.2034   -7.6142   23.9715 H   0  0  0  0  0  0
  -21.1472   -6.0499   25.9071 H   0  0  0  0  0  0
  -22.0604   -2.7594   23.2819 H   0  0  0  0  0  0
  -22.3950  -11.9918   22.4985 H   0  0  0  0  0  0
  -21.0972  -13.1256   22.2650 H   0  0  0  0  0  0
  -24.6189  -15.8518   20.5120 H   0  0  0  0  0  0
  -26.2227  -15.6291   20.0275 H   0  0  0  0  0  0
  -26.7564  -32.4822   23.0730 H   0  0  0  0  0  0
  -25.0002  -33.9261   24.9918 H   0  0  0  0  0  0
  -22.8570  -31.2215   21.3005 H   0  0  0  0  0  0
  -23.3785  -35.9444   23.3289 H   0  0  0  0  0  0
  -24.3560  -36.8826   22.2069 H   0  0  0  0  0  0
  -23.7290  -37.6293   23.6766 H   0  0  0  0  0  0
  -26.3464  -31.1989   20.6494 H   0  0  0  0  0  0
  -26.9510  -30.5353   22.1141 H   0  0  0  0  0  0
  -28.1771  -28.2747   21.3313 H   0  0  0  0  0  0
  -25.8225  -25.5595   18.9924 H   0  0  0  0  0  0
  -24.0497  -27.1882   18.9220 H   0  0  0  0  0  0
  -23.9740  -30.4244   19.3786 H   0  0  0  0  0  0
  -22.8900  -29.1412   19.8141 H   0  0  0  0  0  0
  -25.1401  -36.1593   25.0746 H   0  0  0  0  0  0
  -21.0036  -28.3443   24.1263 H   0  0  0  0  0  0
  -20.5686  -26.2423   23.3702 H   0  0  0  0  0  0
  -21.6679  -26.7390   22.1247 H   0  0  0  0  0  0
  -19.6968  -25.6234   21.1346 H   0  0  0  0  0  0
  -19.6761  -27.3097   20.6715 H   0  0  0  0  0  0
  -17.4252  -26.6673   21.4011 H   0  0  0  0  0  0
  -18.0355  -26.0123   22.9043 H   0  0  0  0  0  0
  -19.7986  -30.7370   24.2117 H   0  0  0  0  0  0
  -17.5045  -31.6286   24.5161 H   0  0  0  0  0  0
  -15.5374  -30.2954   23.7748 H   0  0  0  0  0  0
  -15.8717  -28.0802   22.7133 H   0  0  0  0  0  0
  -24.5779  -30.7290   25.7584 H   0  0  0  0  0  0
  -24.8832  -32.3181   26.4476 H   0  0  0  0  0  0
  -25.7724  -30.9206   27.0240 H   0  0  0  0  0  0
  -26.3269  -29.6367   24.1773 H   0  0  0  0  0  0
  -27.3857  -29.7313   25.5587 H   0  0  0  0  0  0
  -27.9309  -30.3829   24.0384 H   0  0  0  0  0  0
  -27.2541  -33.3735   26.1917 H   0  0  0  0  0  0
  -28.3919  -32.6894   25.0400 H   0  0  0  0  0  0
  -28.0638  -31.8659   26.5572 H   0  0  0  0  0  0
  -28.2554  -38.0042   24.7504 H   0  0  0  0  0  0
  -28.1123  -36.2565   24.6267 H   0  0  0  0  0  0
  -27.2293  -37.1334   25.8847 H   0  0  0  0  0  0
  -20.9797  -29.8586   21.6421 H   0  0  0  0  0  0
  -26.0111  -38.2665   24.1397 H   0  0  0  0  0  0
  -30.7617  -23.7151   18.9609 H   0  0  0  0  0  0
  -32.2215  -23.0117   19.6431 H   0  0  0  0  0  0
  -31.0499  -23.7746   20.7054 H   0  0  0  0  0  0
  -33.8391  -18.0293   19.3241 H   0  0  0  0  0  0
  -33.6837  -19.5762   20.1429 H   0  0  0  0  0  0
  -33.1322  -19.3880   18.4601 H   0  0  0  0  0  0
  -28.4515  -23.6158   19.1916 H   0  0  0  0  0  0
  -28.7147  -23.6298   21.0913 H   0  0  0  0  0  0
  -28.4955  -16.9420   20.4292 H   0  0  0  0  0  0
  1 25  1  0  0  0
  1 30  2  0  0  0
  1 80  1  0  0  0
  2  3  1  0  0  0
  2 25  1  0  0  0
  2 82  1  0  0  0
  2 83  1  0  0  0
  3  4  1  0  0  0
  3 84  1  0  0  0
  3 85  1  0  0  0
  4  5  1  0  0  0
  4 86  1  0  0  0
  4 87  1  0  0  0
  5  6  1  0  0  0
  5 26  1  0  0  0
  5 88  1  0  0  0
  6 25  1  0  0  0
  6 89  1  0  0  0
  6 90  1  0  0  0
  7  8  2  0  0  0
  7 26  1  0  0  0
  7 29  1  0  0  0
  8  9  1  0  0  0
  8 22  1  0  0  0
  9 10  1  0  0  0
  9 27  2  0  0  0
 10 11  2  0  0  0
 10 15  1  0  0  0
 11 12  1  0  0  0
 11 91  1  0  0  0
 12 13  2  0  0  0
 12 92  1  0  0  0
 13 14  1  0  0  0
 13 31  1  0  0  0
 14 15  2  0  0  0
 14 93  1  0  0  0
 15 94  1  0  0  0
 16 17  2  0  0  0
 16 21  1  0  0  0
 16 31  1  0  0  0
 17 18  1  0  0  0
 17 95  1  0  0  0
 18 19  2  0  0  0
 18 96  1  0  0  0
 19 20  1  0  0  0
 19 24  1  0  0  0
 20 21  2  0  0  0
 20 97  1  0  0  0
 21 23  1  0  0  0
 22 28  1  0  0  0
 22 32  2  0  0  0
 26 27  1  0  0  0
 28 98  1  0  0  0
 28 99  1  0  0  0
 29100  1  0  0  0
 29101  1  0  0  0
 33 34  1  0  0  0
 33 66  1  0  0  0
 33 70  2  0  0  0
 34 36  1  0  0  0
 34 59  1  0  0  0
 34102  1  0  0  0
 35 44  2  0  0  0
 35 45  1  0  0  0
 35 68  1  0  0  0
 36 56  1  0  0  0
 36103  1  0  0  0
 37 39  1  0  0  0
 37 47  1  0  0  0
 37 66  1  0  0  0
 37104  1  0  0  0
 38 43  2  0  0  0
 38 46  1  0  0  0
 38 47  1  0  0  0
 39 64  1  0  0  0
 39 67  2  0  0  0
 40 52  1  0  0  0
 40 53  2  0  0  0
 40 58  1  0  0  0
 41105  1  0  0  0
 41106  1  0  0  0
 41107  1  0  0  0
 41 48  1  0  0  0
 42 43  1  0  0  0
 42 66  1  0  0  0
 42108  1  0  0  0
 42109  1  0  0  0
 43 44  1  0  0  0
 44110  1  0  0  0
 45 46  2  0  0  0
 45111  1  0  0  0
 46112  1  0  0  0
 47113  1  0  0  0
 47114  1  0  0  0
 48 56  1  0  0  0
 48 65  1  0  0  0
 48115  1  0  0  0
 49 50  1  0  0  0
 49 53  1  0  0  0
 49 64  1  0  0  0
 49116  1  0  0  0
 50 51  1  0  0  0
 50117  1  0  0  0
 50118  1  0  0  0
 51 52  1  0  0  0
 51119  1  0  0  0
 51120  1  0  0  0
 52121  1  0  0  0
 52122  1  0  0  0
 53 54  1  0  0  0
 54 55  2  0  0  0
 54123  1  0  0  0
 55 57  1  0  0  0
 55124  1  0  0  0
 56 69  2  0  0  0
 57 58  2  0  0  0
 57125  1  0  0  0
 58126  1  0  0  0
 59 60  1  0  0  0
 59 61  1  0  0  0
 59 62  1  0  0  0
 60127  1  0  0  0
 60128  1  0  0  0
 60129  1  0  0  0
 61130  1  0  0  0
 61131  1  0  0  0
 61132  1  0  0  0
 62133  1  0  0  0
 62134  1  0  0  0
 62135  1  0  0  0
 63 65  1  0  0  0
 63136  1  0  0  0
 63137  1  0  0  0
 63138  1  0  0  0
 64139  1  0  0  0
 65140  1  0  0  0
 68 77  1  0  0  0
 71 72  2  0  0  0
 71 75  1  0  0  0
 71 79  1  0  0  0
 72 77  1  0  0  0
 72 78  1  0  0  0
 73 74  1  0  0  0
 73 78  2  0  0  0
 73 80  1  0  0  0
 74 79  2  0  0  0
 74 81  1  0  0  0
 75141  1  0  0  0
 75142  1  0  0  0
 75143  1  0  0  0
 76 81  1  0  0  0
 76144  1  0  0  0
 76145  1  0  0  0
 76146  1  0  0  0
 77147  1  0  0  0
 77148  1  0  0  0
 80149  1  0  0  0
M  ISO  4   1 100  68 101  77 101  80 100
M  END
> <chiral flag>
0

> <version>
0

> <s_m_source_file>
/data/baiqing/PycharmProjects/Reinvent-master-3.2/result/LINK_invent/BTK/process_docking_weight1_custom_sum_contain_oxygen_bond_distance_aromatic_linkinvent_7_9_3/rearranged_h_0019.sdf

> <i_m_source_file_index>
91

> <r_mmod_Potential_Energy-OPLS-2005>
3112.80883789062

> <r_mmod_Stretch_Energy-OPLS-2005>
1338.98486328125

> <r_mmod_Bend_Energy-OPLS-2005>
860.906555175781

> <r_mmod_Torsional_Energy-OPLS-2005>
214.078186035156

> <r_mmod_Improper_Torsional_Energy-OPLS-2005>
3.71461391448975

> <r_mmod_Van_der_Waal_Energy-OPLS-2005>
136.273300170898

> <r_mmod_Electrostatic_Energy-OPLS-2005>
-359.909362792969

> <r_mmod_Solvation_Energy-OPLS-2005>
-230.644149780273

> <b_mmod_Minimization_Converged-OPLS-2005>
0

> <r_mmod_RMS_Derivative-OPLS-2005>
2.63332653045654

$$$$
91
                    3D
 Structure written by MMmdl.
153161  0  0  1  0            999 V2000
  -30.4458  -15.1952   20.3796 C   0  0  0  0  0  0
  -30.4477  -12.7559   19.5187 C   0  0  0  0  0  0
  -29.5363  -12.5715   18.2791 C   0  0  0  0  0  0
  -28.0793  -12.3085   18.7016 C   0  0  0  0  0  0
  -27.6178  -13.2670   19.8286 C   0  0  2  0  0  0
  -28.6577  -13.3956   20.9635 C   0  0  0  0  0  0
  -25.2354  -13.8139   20.5702 C   0  0  0  0  0  0
  -24.1728  -13.0358   20.9279 C   0  0  0  0  0  0
  -24.6403  -11.6874   20.8776 C   0  0  0  0  0  0
  -23.9090  -10.4251   21.0412 C   0  0  0  0  0  0
  -24.3632   -9.4171   21.9190 C   0  0  0  0  0  0
  -23.6294   -8.2217   22.0757 C   0  0  0  0  0  0
  -22.4273   -8.0267   21.3548 C   0  0  0  0  0  0
  -21.9919   -9.0240   20.4646 C   0  0  0  0  0  0
  -22.7263  -10.2109   20.3054 C   0  0  0  0  0  0
  -21.6847   -6.0726   22.5280 C   0  0  0  0  0  0
  -21.4010   -6.5633   23.8212 C   0  0  0  0  0  0
  -21.3660   -5.6789   24.9175 C   0  0  0  0  0  0
  -21.6045   -4.3051   24.7227 C   0  0  0  0  0  0
  -21.8819   -3.8141   23.4349 C   0  0  0  0  0  0
  -21.9189   -4.6955   22.3403 C   0  0  0  0  0  0
  -22.7750  -13.5137   21.1918 C   0  0  0  0  0  0
  -22.1659   -4.2143   21.0980 F   0  0  0  0  0  0
  -21.5631   -3.4535   25.7740 F   0  0  0  0  0  0
  -29.9035  -13.8851   20.3494 N   0  0  0  0  0  0
  -26.2832  -12.9456   20.3221 N   0  0  0  0  0  0
  -25.9347  -11.6568   20.5740 N   0  0  0  0  0  0
  -22.0397  -12.8135   22.0475 N   0  0  0  0  0  0
  -25.3835  -15.1827   20.4013 N   0  0  0  0  0  0
  -31.6601  -15.2378   20.1426 O   0  0  0  0  0  0
  -21.6630   -6.8870   21.4244 O   0  0  0  0  0  0
  -22.3443  -14.5444   20.6756 O   0  0  0  0  0  0
  -24.6575  -31.8280   23.1742 C   0  0  0  0  0  0
  -25.9280  -32.4609   23.8190 C   0  0  1  0  0  0
  -27.2307  -26.9901   20.1791 C   0  0  0  0  0  0
  -25.5969  -33.8421   24.2101 N   0  0  0  0  0  0
  -23.4704  -30.4399   21.5210 C   0  0  2  0  0  0
  -24.9254  -28.8352   20.1112 C   0  0  0  0  0  0
  -22.7647  -29.4456   22.4791 C   0  0  0  0  0  0
  -18.0318  -28.1401   22.8465 C   0  0  0  0  0  0
  -24.1492  -36.7226   23.2647 C   0  0  0  0  0  0
  -26.0343  -30.6562   21.3930 C   0  0  0  0  0  0
  -26.1059  -29.2512   20.7388 C   0  0  0  0  0  0
  -27.2544  -28.3490   20.7470 C   0  0  0  0  0  0
  -26.0197  -26.7071   19.5091 C   0  0  0  0  0  0
  -24.9035  -27.5819   19.4763 C   0  0  0  0  0  0
  -23.7080  -29.7557   20.1457 C   0  0  0  0  0  0
  -25.4128  -36.2979   24.0303 C   0  0  1  0  0  0
  -20.5940  -28.3745   23.1192 C   0  0  2  0  0  0
  -20.6791  -26.9434   22.5399 C   0  0  0  0  0  0
  -19.5765  -26.6376   21.5207 C   0  0  0  0  0  0
  -18.1947  -26.7933   22.1621 C   0  0  0  0  0  0
  -19.1580  -28.8894   23.2815 C   0  0  0  0  0  0
  -18.9492  -30.1481   23.8854 C   0  0  0  0  0  0
  -17.6486  -30.6592   24.0552 C   0  0  0  0  0  0
  -25.9089  -34.9360   23.5019 C   0  0  0  0  0  0
  -16.5377  -29.9082   23.6335 C   0  0  0  0  0  0
  -16.7300  -28.6501   23.0355 C   0  0  0  0  0  0
  -26.4550  -31.6538   25.0701 C   0  0  0  0  0  0
  -25.3698  -31.3773   26.1374 C   0  0  0  0  0  0
  -27.0438  -30.2913   24.6394 C   0  0  0  0  0  0
  -27.6043  -32.4344   25.7504 C   0  0  0  0  0  0
  -27.5567  -37.1769   24.8465 C   0  0  0  0  0  0
  -21.4323  -29.3042   22.3546 N   0  0  0  0  0  0
  -26.4276  -37.3713   23.9408 N   0  0  0  0  0  0
  -24.7414  -31.0001   22.0840 N   0  0  0  0  0  0
  -23.4212  -28.8022   23.3015 O   0  0  0  0  0  0
  -28.2625  -25.9342   20.2596 O   0  0  0  0  0  0
  -26.5695  -34.8886   22.4611 O   0  0  0  0  0  0
  -23.5658  -32.1215   23.6878 O   0  0  0  0  0  0
  -30.4045  -20.4657   20.3326 C   0  0  0  0  0  0
  -29.1644  -21.2361   20.3620 C   0  0  0  0  0  0
  -28.1046  -20.2436   20.4177 C   0  0  0  0  0  0
  -28.2915  -18.7564   20.4065 C   0  0  0  0  0  0
  -29.5506  -17.9985   20.4072 C   0  0  0  0  0  0
  -30.6037  -18.9972   20.3606 C   0  0  0  0  0  0
  -26.6935  -20.8060   20.5297 C   0  0  0  0  0  0
  -27.0475  -17.8826   20.3864 C   0  0  0  0  0  0
  -29.1394  -22.9729   20.4761 C   0  0  0  0  0  0
  -28.0573  -24.3262   20.1040 C   0  0  0  0  0  0
  -29.5959  -16.3876   20.4851 N   0  0  0  0  0  0
  -32.2394  -18.4469   20.3599 Cl  0  0  0  0  0  0
  -31.4690  -12.9571   19.1928 H   0  0  0  0  0  0
  -30.5011  -11.8359   20.1027 H   0  0  0  0  0  0
  -29.9019  -11.7537   17.6567 H   0  0  0  0  0  0
  -29.5796  -13.4696   17.6610 H   0  0  0  0  0  0
  -28.0193  -11.2768   19.0505 H   0  0  0  0  0  0
  -27.4136  -12.3796   17.8407 H   0  0  0  0  0  0
  -27.5451  -14.2457   19.3536 H   0  0  0  0  0  0
  -28.8069  -12.4447   21.4778 H   0  0  0  0  0  0
  -28.3115  -14.1047   21.7173 H   0  0  0  0  0  0
  -25.2775   -9.5638   22.4769 H   0  0  0  0  0  0
  -23.9991   -7.4603   22.7479 H   0  0  0  0  0  0
  -21.0849   -8.8764   19.8951 H   0  0  0  0  0  0
  -22.3729  -10.9649   19.6161 H   0  0  0  0  0  0
  -21.2003   -7.6141   23.9713 H   0  0  0  0  0  0
  -21.1484   -6.0519   25.9078 H   0  0  0  0  0  0
  -22.0598   -2.7603   23.2850 H   0  0  0  0  0  0
  -22.4021  -11.9810   22.4882 H   0  0  0  0  0  0
  -21.1011  -13.1154   22.2665 H   0  0  0  0  0  0
  -24.5848  -15.8037   20.4699 H   0  0  0  0  0  0
  -26.1752  -15.6050   19.9402 H   0  0  0  0  0  0
  -26.7353  -32.5162   23.0911 H   0  0  0  0  0  0
  -25.0067  -33.9506   25.0217 H   0  0  0  0  0  0
  -22.7810  -31.2695   21.3522 H   0  0  0  0  0  0
  -23.3756  -35.9554   23.3284 H   0  0  0  0  0  0
  -24.3573  -36.8897   22.2067 H   0  0  0  0  0  0
  -23.7249  -37.6408   23.6718 H   0  0  0  0  0  0
  -26.2041  -31.4017   20.6147 H   0  0  0  0  0  0
  -26.8980  -30.7137   22.0438 H   0  0  0  0  0  0
  -28.1510  -28.6674   21.2603 H   0  0  0  0  0  0
  -25.9091  -25.7464   19.0271 H   0  0  0  0  0  0
  -24.0056  -27.2582   18.9673 H   0  0  0  0  0  0
  -23.8579  -30.5240   19.3861 H   0  0  0  0  0  0
  -22.8203  -29.2050   19.8305 H   0  0  0  0  0  0
  -25.1323  -36.1778   25.0795 H   0  0  0  0  0  0
  -21.0028  -28.3351   24.1314 H   0  0  0  0  0  0
  -20.5657  -26.2373   23.3641 H   0  0  0  0  0  0
  -21.6654  -26.7393   22.1217 H   0  0  0  0  0  0
  -19.6922  -25.6274   21.1269 H   0  0  0  0  0  0
  -19.6699  -27.3158   20.6714 H   0  0  0  0  0  0
  -17.4216  -26.6673   21.4028 H   0  0  0  0  0  0
  -18.0347  -26.0083   22.9028 H   0  0  0  0  0  0
  -19.7970  -30.7301   24.2215 H   0  0  0  0  0  0
  -17.5040  -31.6268   24.5163 H   0  0  0  0  0  0
  -15.5376  -30.2968   23.7681 H   0  0  0  0  0  0
  -15.8702  -28.0803   22.7091 H   0  0  0  0  0  0
  -24.5889  -30.7108   25.7696 H   0  0  0  0  0  0
  -24.8878  -32.2970   26.4699 H   0  0  0  0  0  0
  -25.7953  -30.9013   27.0219 H   0  0  0  0  0  0
  -26.3089  -29.6603   24.1383 H   0  0  0  0  0  0
  -27.3971  -29.7258   25.5029 H   0  0  0  0  0  0
  -27.9029  -30.4108   23.9791 H   0  0  0  0  0  0
  -27.2605  -33.3682   26.1968 H   0  0  0  0  0  0
  -28.3915  -32.6851   25.0382 H   0  0  0  0  0  0
  -28.0644  -31.8550   26.5520 H   0  0  0  0  0  0
  -28.2564  -38.0081   24.7500 H   0  0  0  0  0  0
  -28.1081  -36.2605   24.6299 H   0  0  0  0  0  0
  -27.2286  -37.1420   25.8869 H   0  0  0  0  0  0
  -20.9572  -29.8764   21.6705 H   0  0  0  0  0  0
  -26.0125  -38.2773   24.1412 H   0  0  0  0  0  0
  -31.3130  -21.0504   20.3193 H   0  0  0  0  0  0
  -26.6914  -21.8612   20.7923 H   0  0  0  0  0  0
  -26.1322  -20.2978   21.3144 H   0  0  0  0  0  0
  -26.1580  -20.6981   19.5862 H   0  0  0  0  0  0
  -26.1443  -18.3915   20.0580 H   0  0  0  0  0  0
  -26.8654  -17.4623   21.3761 H   0  0  0  0  0  0
  -27.1900  -17.0688   19.6766 H   0  0  0  0  0  0
  -30.0611  -23.2452   19.9617 H   0  0  0  0  0  0
  -29.3817  -23.1285   21.5276 H   0  0  0  0  0  0
  -27.1365  -24.1264   20.6513 H   0  0  0  0  0  0
  -27.7858  -24.1942   19.0568 H   0  0  0  0  0  0
  -28.6618  -16.0424   20.6344 H   0  0  0  0  0  0
  1 25  1  0  0  0
  1 30  2  0  0  0
  1 81  1  0  0  0
  2  3  1  0  0  0
  2 25  1  0  0  0
  2 83  1  0  0  0
  2 84  1  0  0  0
  3  4  1  0  0  0
  3 85  1  0  0  0
  3 86  1  0  0  0
  4  5  1  0  0  0
  4 87  1  0  0  0
  4 88  1  0  0  0
  5  6  1  0  0  0
  5 26  1  0  0  0
  5 89  1  0  0  0
  6 25  1  0  0  0
  6 90  1  0  0  0
  6 91  1  0  0  0
  7  8  2  0  0  0
  7 26  1  0  0  0
  7 29  1  0  0  0
  8  9  1  0  0  0
  8 22  1  0  0  0
  9 10  1  0  0  0
  9 27  2  0  0  0
 10 11  2  0  0  0
 10 15  1  0  0  0
 11 12  1  0  0  0
 11 92  1  0  0  0
 12 13  2  0  0  0
 12 93  1  0  0  0
 13 14  1  0  0  0
 13 31  1  0  0  0
 14 15  2  0  0  0
 14 94  1  0  0  0
 15 95  1  0  0  0
 16 17  2  0  0  0
 16 21  1  0  0  0
 16 31  1  0  0  0
 17 18  1  0  0  0
 17 96  1  0  0  0
 18 19  2  0  0  0
 18 97  1  0  0  0
 19 20  1  0  0  0
 19 24  1  0  0  0
 20 21  2  0  0  0
 20 98  1  0  0  0
 21 23  1  0  0  0
 22 28  1  0  0  0
 22 32  2  0  0  0
 26 27  1  0  0  0
 28 99  1  0  0  0
 28100  1  0  0  0
 29101  1  0  0  0
 29102  1  0  0  0
 33 34  1  0  0  0
 33 66  1  0  0  0
 33 70  2  0  0  0
 34 36  1  0  0  0
 34 59  1  0  0  0
 34103  1  0  0  0
 35 44  2  0  0  0
 35 45  1  0  0  0
 35 68  1  0  0  0
 36 56  1  0  0  0
 36104  1  0  0  0
 37 39  1  0  0  0
 37 47  1  0  0  0
 37 66  1  0  0  0
 37105  1  0  0  0
 38 43  2  0  0  0
 38 46  1  0  0  0
 38 47  1  0  0  0
 39 64  1  0  0  0
 39 67  2  0  0  0
 40 52  1  0  0  0
 40 53  2  0  0  0
 40 58  1  0  0  0
 41106  1  0  0  0
 41107  1  0  0  0
 41108  1  0  0  0
 41 48  1  0  0  0
 42 43  1  0  0  0
 42 66  1  0  0  0
 42109  1  0  0  0
 42110  1  0  0  0
 43 44  1  0  0  0
 44111  1  0  0  0
 45 46  2  0  0  0
 45112  1  0  0  0
 46113  1  0  0  0
 47114  1  0  0  0
 47115  1  0  0  0
 48 56  1  0  0  0
 48 65  1  0  0  0
 48116  1  0  0  0
 49 50  1  0  0  0
 49 53  1  0  0  0
 49 64  1  0  0  0
 49117  1  0  0  0
 50 51  1  0  0  0
 50118  1  0  0  0
 50119  1  0  0  0
 51 52  1  0  0  0
 51120  1  0  0  0
 51121  1  0  0  0
 52122  1  0  0  0
 52123  1  0  0  0
 53 54  1  0  0  0
 54 55  2  0  0  0
 54124  1  0  0  0
 55 57  1  0  0  0
 55125  1  0  0  0
 56 69  2  0  0  0
 57 58  2  0  0  0
 57126  1  0  0  0
 58127  1  0  0  0
 59 60  1  0  0  0
 59 61  1  0  0  0
 59 62  1  0  0  0
 60128  1  0  0  0
 60129  1  0  0  0
 60130  1  0  0  0
 61131  1  0  0  0
 61132  1  0  0  0
 61133  1  0  0  0
 62134  1  0  0  0
 62135  1  0  0  0
 62136  1  0  0  0
 63 65  1  0  0  0
 63137  1  0  0  0
 63138  1  0  0  0
 63139  1  0  0  0
 64140  1  0  0  0
 65141  1  0  0  0
 68 80  1  0  0  0
 71 72  2  0  0  0
 71 76  1  0  0  0
 71142  1  0  0  0
 72 73  1  0  0  0
 72 79  1  0  0  0
 73 74  2  0  0  0
 73 77  1  0  0  0
 74 75  1  0  0  0
 74 78  1  0  0  0
 75 76  2  0  0  0
 75 81  1  0  0  0
 76 82  1  0  0  0
 77143  1  0  0  0
 77144  1  0  0  0
 77145  1  0  0  0
 78146  1  0  0  0
 78147  1  0  0  0
 78148  1  0  0  0
 79 80  1  0  0  0
 79149  1  0  0  0
 79150  1  0  0  0
 80151  1  0  0  0
 80152  1  0  0  0
 81153  1  0  0  0
M  ISO  4   1 100  68 101  80 101  81 100
M  END
> <chiral flag>
0

> <version>
0

> <s_m_source_file>
/data/baiqing/PycharmProjects/Reinvent-master-3.2/result/LINK_invent/BTK/process_docking_weight1_custom_sum_contain_oxygen_bond_distance_aromatic_linkinvent_7_9_3/rearranged_h_0019.sdf

> <i_m_source_file_index>
92

> <r_mmod_Potential_Energy-OPLS-2005>
1004.10870361328

> <r_mmod_Stretch_Energy-OPLS-2005>
459.125793457031

> <r_mmod_Bend_Energy-OPLS-2005>
415.060150146484

> <r_mmod_Torsional_Energy-OPLS-2005>
213.304260253906

> <r_mmod_Improper_Torsional_Energy-OPLS-2005>
5.34999561309814

> <r_mmod_Van_der_Waal_Energy-OPLS-2005>
131.428482055664

> <r_mmod_Electrostatic_Energy-OPLS-2005>
-385.224243164062

> <r_mmod_Solvation_Energy-OPLS-2005>
-213.298202514648

> <b_mmod_Minimization_Converged-OPLS-2005>
0

> <r_mmod_RMS_Derivative-OPLS-2005>
0.875602960586548

$$$$
92
                    3D
 Structure written by MMmdl.
159167  0  0  1  0            999 V2000
  -30.4023  -15.3260   20.3970 C   0  0  0  0  0  0
  -30.4454  -12.8637   19.5107 C   0  0  0  0  0  0
  -29.5414  -12.5957   18.2802 C   0  0  0  0  0  0
  -28.0926  -12.3015   18.7132 C   0  0  0  0  0  0
  -27.6098  -13.2746   19.8165 C   0  0  2  0  0  0
  -28.6464  -13.4693   20.9404 C   0  0  0  0  0  0
  -25.2396  -13.8233   20.5752 C   0  0  0  0  0  0
  -24.1741  -13.0426   20.9243 C   0  0  0  0  0  0
  -24.6399  -11.6925   20.8747 C   0  0  0  0  0  0
  -23.9081  -10.4296   21.0394 C   0  0  0  0  0  0
  -24.3631   -9.4214   21.9175 C   0  0  0  0  0  0
  -23.6306   -8.2244   22.0740 C   0  0  0  0  0  0
  -22.4285   -8.0277   21.3533 C   0  0  0  0  0  0
  -21.9925   -9.0245   20.4628 C   0  0  0  0  0  0
  -22.7250  -10.2131   20.3041 C   0  0  0  0  0  0
  -21.6858   -6.0728   22.5273 C   0  0  0  0  0  0
  -21.4022   -6.5633   23.8206 C   0  0  0  0  0  0
  -21.3667   -5.6781   24.9165 C   0  0  0  0  0  0
  -21.6056   -4.3045   24.7218 C   0  0  0  0  0  0
  -21.8819   -3.8138   23.4337 C   0  0  0  0  0  0
  -21.9201   -4.6958   22.3396 C   0  0  0  0  0  0
  -22.7770  -13.5188   21.1888 C   0  0  0  0  0  0
  -22.1670   -4.2150   21.0973 F   0  0  0  0  0  0
  -21.5635   -3.4527   25.7727 F   0  0  0  0  0  0
  -29.8531  -14.0115   20.2920 N   0  0  0  0  0  0
  -26.2819  -12.9503   20.3204 N   0  0  0  0  0  0
  -25.9345  -11.6611   20.5716 N   0  0  0  0  0  0
  -22.0426  -12.8168   22.0441 N   0  0  0  0  0  0
  -25.4028  -15.1971   20.4209 N   0  0  0  0  0  0
  -31.6396  -15.3180   20.3025 O   0  0  0  0  0  0
  -21.6656   -6.8870   21.4232 O   0  0  0  0  0  0
  -22.3456  -14.5487   20.6713 O   0  0  0  0  0  0
  -24.6676  -31.8197   23.1657 C   0  0  0  0  0  0
  -25.9327  -32.4571   23.8154 C   0  0  1  0  0  0
  -27.2159  -26.8955   20.1981 C   0  0  0  0  0  0
  -25.5990  -33.8389   24.2071 N   0  0  0  0  0  0
  -23.4826  -30.4288   21.5181 C   0  0  2  0  0  0
  -24.9348  -28.8049   20.1199 C   0  0  0  0  0  0
  -22.7688  -29.4413   22.4786 C   0  0  0  0  0  0
  -18.0321  -28.1395   22.8467 C   0  0  0  0  0  0
  -24.1499  -36.7201   23.2644 C   0  0  0  0  0  0
  -26.0532  -30.6179   21.3958 C   0  0  0  0  0  0
  -26.1205  -29.2014   20.7504 C   0  0  0  0  0  0
  -27.2605  -28.2715   20.7541 C   0  0  0  0  0  0
  -25.9990  -26.6540   19.5246 C   0  0  0  0  0  0
  -24.9019  -27.5546   19.4827 C   0  0  0  0  0  0
  -23.7224  -29.7368   20.1484 C   0  0  0  0  0  0
  -25.4138  -36.2960   24.0301 C   0  0  1  0  0  0
  -20.5947  -28.3740   23.1179 C   0  0  2  0  0  0
  -20.6787  -26.9418   22.5393 C   0  0  0  0  0  0
  -19.5768  -26.6366   21.5200 C   0  0  0  0  0  0
  -18.1954  -26.7931   22.1613 C   0  0  0  0  0  0
  -19.1582  -28.8892   23.2812 C   0  0  0  0  0  0
  -18.9494  -30.1485   23.8842 C   0  0  0  0  0  0
  -17.6484  -30.6588   24.0541 C   0  0  0  0  0  0
  -25.9102  -34.9341   23.5011 C   0  0  0  0  0  0
  -16.5375  -29.9067   23.6331 C   0  0  0  0  0  0
  -16.7301  -28.6484   23.0360 C   0  0  0  0  0  0
  -26.4572  -31.6518   25.0682 C   0  0  0  0  0  0
  -25.3698  -31.3751   26.1332 C   0  0  0  0  0  0
  -27.0461  -30.2893   24.6394 C   0  0  0  0  0  0
  -27.6073  -32.4324   25.7485 C   0  0  0  0  0  0
  -27.5573  -37.1761   24.8464 C   0  0  0  0  0  0
  -21.4351  -29.3040   22.3546 N   0  0  0  0  0  0
  -26.4278  -37.3700   23.9411 N   0  0  0  0  0  0
  -24.7567  -30.9838   22.0808 N   0  0  0  0  0  0
  -23.4220  -28.7980   23.3034 O   0  0  0  0  0  0
  -28.2360  -25.7977   20.1936 O   0  0  0  0  0  0
  -26.5713  -34.8882   22.4604 O   0  0  0  0  0  0
  -23.5734  -32.1159   23.6743 O   0  0  0  0  0  0
  -29.4512  -19.6520   22.7291 C   0  0  0  0  0  0
  -29.1590  -20.8664   22.0474 C   0  0  0  0  0  0
  -29.6437  -18.3719   22.1451 C   0  0  0  0  0  0
  -29.0171  -20.9524   20.6324 C   0  0  0  0  0  0
  -29.5624  -18.1582   20.7448 C   0  0  0  0  0  0
  -29.2328  -19.5112   20.0381 C   0  0  0  0  0  0
  -29.0234  -22.0982   22.9235 C   0  0  0  0  0  0
  -29.8840  -17.2086   23.0999 C   0  0  0  0  0  0
  -27.9677  -22.4030   18.6410 C   0  0  0  0  0  0
  -30.2048  -23.0204   19.5360 C   0  0  0  0  0  0
  -28.0818  -24.1751   20.5469 C   0  0  0  0  0  0
  -28.7849  -22.5891   19.9311 C   0  0  0  0  0  0
  -29.6148  -16.5940   20.2616 N   0  0  0  0  0  0
  -29.1229  -19.3406   18.3248 Cl  0  0  0  0  0  0
  -31.4571  -13.1004   19.1778 H   0  0  0  0  0  0
  -30.5361  -11.9697   20.1317 H   0  0  0  0  0  0
  -29.9364  -11.7712   17.6850 H   0  0  0  0  0  0
  -29.5513  -13.4752   17.6345 H   0  0  0  0  0  0
  -28.0603  -11.2798   19.0907 H   0  0  0  0  0  0
  -27.4240  -12.3353   17.8519 H   0  0  0  0  0  0
  -27.5173  -14.2380   19.3147 H   0  0  0  0  0  0
  -28.8419  -12.5374   21.4714 H   0  0  0  0  0  0
  -28.2752  -14.1773   21.6825 H   0  0  0  0  0  0
  -25.2779   -9.5720   22.4744 H   0  0  0  0  0  0
  -24.0031   -7.4649   22.7470 H   0  0  0  0  0  0
  -21.0849   -8.8761   19.8938 H   0  0  0  0  0  0
  -22.3695  -10.9667   19.6152 H   0  0  0  0  0  0
  -21.2011   -7.6139   23.9706 H   0  0  0  0  0  0
  -21.1493   -6.0512   25.9070 H   0  0  0  0  0  0
  -22.0594   -2.7602   23.2837 H   0  0  0  0  0  0
  -22.4049  -11.9868   22.4896 H   0  0  0  0  0  0
  -21.1029  -13.1174   22.2578 H   0  0  0  0  0  0
  -24.6334  -15.8462   20.5445 H   0  0  0  0  0  0
  -26.2509  -15.6481   20.1062 H   0  0  0  0  0  0
  -26.7406  -32.5113   23.0875 H   0  0  0  0  0  0
  -25.0119  -33.9488   25.0211 H   0  0  0  0  0  0
  -22.7966  -31.2599   21.3416 H   0  0  0  0  0  0
  -23.3780  -35.9513   23.3257 H   0  0  0  0  0  0
  -24.3572  -36.8893   22.2069 H   0  0  0  0  0  0
  -23.7234  -37.6368   23.6726 H   0  0  0  0  0  0
  -26.2313  -31.3509   20.6067 H   0  0  0  0  0  0
  -26.9146  -30.6822   22.0480 H   0  0  0  0  0  0
  -28.1709  -28.5837   21.2469 H   0  0  0  0  0  0
  -25.8739  -25.7011   19.0306 H   0  0  0  0  0  0
  -24.0050  -27.2506   18.9622 H   0  0  0  0  0  0
  -23.8821  -30.4981   19.3852 H   0  0  0  0  0  0
  -22.8309  -29.1917   19.8342 H   0  0  0  0  0  0
  -25.1343  -36.1748   25.0792 H   0  0  0  0  0  0
  -21.0034  -28.3334   24.1298 H   0  0  0  0  0  0
  -20.5639  -26.2362   23.3639 H   0  0  0  0  0  0
  -21.6652  -26.7383   22.1210 H   0  0  0  0  0  0
  -19.6924  -25.6260   21.1275 H   0  0  0  0  0  0
  -19.6702  -27.3137   20.6705 H   0  0  0  0  0  0
  -17.4216  -26.6673   21.4022 H   0  0  0  0  0  0
  -18.0361  -26.0078   22.9017 H   0  0  0  0  0  0
  -19.7970  -30.7319   24.2185 H   0  0  0  0  0  0
  -17.5025  -31.6260   24.5157 H   0  0  0  0  0  0
  -15.5366  -30.2943   23.7682 H   0  0  0  0  0  0
  -15.8705  -28.0774   22.7107 H   0  0  0  0  0  0
  -24.5915  -30.7064   25.7631 H   0  0  0  0  0  0
  -24.8840  -32.2933   26.4649 H   0  0  0  0  0  0
  -25.7932  -30.8993   27.0183 H   0  0  0  0  0  0
  -26.3114  -29.6572   24.1387 H   0  0  0  0  0  0
  -27.3991  -29.7252   25.5032 H   0  0  0  0  0  0
  -27.9056  -30.4088   23.9796 H   0  0  0  0  0  0
  -27.2670  -33.3687   26.1923 H   0  0  0  0  0  0
  -28.3958  -32.6781   25.0358 H   0  0  0  0  0  0
  -28.0646  -31.8524   26.5511 H   0  0  0  0  0  0
  -28.2566  -38.0084   24.7529 H   0  0  0  0  0  0
  -28.1103  -36.2611   24.6276 H   0  0  0  0  0  0
  -27.2288  -37.1374   25.8866 H   0  0  0  0  0  0
  -20.9609  -29.8747   21.6688 H   0  0  0  0  0  0
  -26.0123  -38.2761   24.1410 H   0  0  0  0  0  0
  -29.5225  -19.7056   23.8073 H   0  0  0  0  0  0
  -29.2239  -21.8809   23.9739 H   0  0  0  0  0  0
  -28.0069  -22.4896   22.8732 H   0  0  0  0  0  0
  -29.7390  -22.8632   22.6247 H   0  0  0  0  0  0
  -29.8023  -17.5164   24.1432 H   0  0  0  0  0  0
  -30.8818  -16.7926   22.9636 H   0  0  0  0  0  0
  -29.1523  -16.4155   22.9409 H   0  0  0  0  0  0
  -28.4814  -21.8013   17.8958 H   0  0  0  0  0  0
  -27.7680  -23.3602   18.1590 H   0  0  0  0  0  0
  -27.0045  -21.9377   18.8513 H   0  0  0  0  0  0
  -30.7027  -22.2659   18.9271 H   0  0  0  0  0  0
  -30.8193  -23.1878   20.4204 H   0  0  0  0  0  0
  -30.1990  -23.9495   18.9635 H   0  0  0  0  0  0
  -28.3931  -24.2303   21.5831 H   0  0  0  0  0  0
  -27.0067  -24.0103   20.6232 H   0  0  0  0  0  0
  -28.7299  -16.3530   19.8418 H   0  0  0  0  0  0
  1 25  1  0  0  0
  1 30  2  0  0  0
  1 83  1  0  0  0
  2  3  1  0  0  0
  2 25  1  0  0  0
  2 85  1  0  0  0
  2 86  1  0  0  0
  3  4  1  0  0  0
  3 87  1  0  0  0
  3 88  1  0  0  0
  4  5  1  0  0  0
  4 89  1  0  0  0
  4 90  1  0  0  0
  5  6  1  0  0  0
  5 26  1  0  0  0
  5 91  1  0  0  0
  6 25  1  0  0  0
  6 92  1  0  0  0
  6 93  1  0  0  0
  7  8  2  0  0  0
  7 26  1  0  0  0
  7 29  1  0  0  0
  8  9  1  0  0  0
  8 22  1  0  0  0
  9 10  1  0  0  0
  9 27  2  0  0  0
 10 11  2  0  0  0
 10 15  1  0  0  0
 11 12  1  0  0  0
 11 94  1  0  0  0
 12 13  2  0  0  0
 12 95  1  0  0  0
 13 14  1  0  0  0
 13 31  1  0  0  0
 14 15  2  0  0  0
 14 96  1  0  0  0
 15 97  1  0  0  0
 16 17  2  0  0  0
 16 21  1  0  0  0
 16 31  1  0  0  0
 17 18  1  0  0  0
 17 98  1  0  0  0
 18 19  2  0  0  0
 18 99  1  0  0  0
 19 20  1  0  0  0
 19 24  1  0  0  0
 20 21  2  0  0  0
 20100  1  0  0  0
 21 23  1  0  0  0
 22 28  1  0  0  0
 22 32  2  0  0  0
 26 27  1  0  0  0
 28101  1  0  0  0
 28102  1  0  0  0
 29103  1  0  0  0
 29104  1  0  0  0
 33 34  1  0  0  0
 33 66  1  0  0  0
 33 70  2  0  0  0
 34 36  1  0  0  0
 34 59  1  0  0  0
 34105  1  0  0  0
 35 44  2  0  0  0
 35 45  1  0  0  0
 35 68  1  0  0  0
 36 56  1  0  0  0
 36106  1  0  0  0
 37 39  1  0  0  0
 37 47  1  0  0  0
 37 66  1  0  0  0
 37107  1  0  0  0
 38 43  2  0  0  0
 38 46  1  0  0  0
 38 47  1  0  0  0
 39 64  1  0  0  0
 39 67  2  0  0  0
 40 52  1  0  0  0
 40 53  2  0  0  0
 40 58  1  0  0  0
 41108  1  0  0  0
 41109  1  0  0  0
 41110  1  0  0  0
 41 48  1  0  0  0
 42 43  1  0  0  0
 42 66  1  0  0  0
 42111  1  0  0  0
 42112  1  0  0  0
 43 44  1  0  0  0
 44113  1  0  0  0
 45 46  2  0  0  0
 45114  1  0  0  0
 46115  1  0  0  0
 47116  1  0  0  0
 47117  1  0  0  0
 48 56  1  0  0  0
 48 65  1  0  0  0
 48118  1  0  0  0
 49 50  1  0  0  0
 49 53  1  0  0  0
 49 64  1  0  0  0
 49119  1  0  0  0
 50 51  1  0  0  0
 50120  1  0  0  0
 50121  1  0  0  0
 51 52  1  0  0  0
 51122  1  0  0  0
 51123  1  0  0  0
 52124  1  0  0  0
 52125  1  0  0  0
 53 54  1  0  0  0
 54 55  2  0  0  0
 54126  1  0  0  0
 55 57  1  0  0  0
 55127  1  0  0  0
 56 69  2  0  0  0
 57 58  2  0  0  0
 57128  1  0  0  0
 58129  1  0  0  0
 59 60  1  0  0  0
 59 61  1  0  0  0
 59 62  1  0  0  0
 60130  1  0  0  0
 60131  1  0  0  0
 60132  1  0  0  0
 61133  1  0  0  0
 61134  1  0  0  0
 61135  1  0  0  0
 62136  1  0  0  0
 62137  1  0  0  0
 62138  1  0  0  0
 63 65  1  0  0  0
 63139  1  0  0  0
 63140  1  0  0  0
 63141  1  0  0  0
 64142  1  0  0  0
 65143  1  0  0  0
 68 81  1  0  0  0
 71 72  2  0  0  0
 71 73  1  0  0  0
 71144  1  0  0  0
 72 74  1  0  0  0
 72 77  1  0  0  0
 73 75  2  0  0  0
 73 78  1  0  0  0
 74 76  2  0  0  0
 74 82  1  0  0  0
 75 76  1  0  0  0
 75 83  1  0  0  0
 76 84  1  0  0  0
 77145  1  0  0  0
 77146  1  0  0  0
 77147  1  0  0  0
 78148  1  0  0  0
 78149  1  0  0  0
 78150  1  0  0  0
 79151  1  0  0  0
 79152  1  0  0  0
 79153  1  0  0  0
 79 82  1  0  0  0
 80 82  1  0  0  0
 80154  1  0  0  0
 80155  1  0  0  0
 80156  1  0  0  0
 81 82  1  0  0  0
 81157  1  0  0  0
 81158  1  0  0  0
 83159  1  0  0  0
M  ISO  4   1 100  68 101  81 101  83 100
M  END
> <chiral flag>
0

> <version>
0

> <s_m_source_file>
/data/baiqing/PycharmProjects/Reinvent-master-3.2/result/LINK_invent/BTK/process_docking_weight1_custom_sum_contain_oxygen_bond_distance_aromatic_linkinvent_7_9_3/rearranged_h_0019.sdf

> <i_m_source_file_index>
93

> <r_mmod_Potential_Energy-OPLS-2005>
1477.06994628906

> <r_mmod_Stretch_Energy-OPLS-2005>
677.1103515625

> <r_mmod_Bend_Energy-OPLS-2005>
460.679382324219

> <r_mmod_Torsional_Energy-OPLS-2005>
272.612060546875

> <r_mmod_Improper_Torsional_Energy-OPLS-2005>
11.0545711517334

> <r_mmod_Van_der_Waal_Energy-OPLS-2005>
128.989151000977

> <r_mmod_Electrostatic_Energy-OPLS-2005>
-387.872436523438

> <r_mmod_Solvation_Energy-OPLS-2005>
-200.269515991211

> <b_mmod_Minimization_Converged-OPLS-2005>
0

> <r_mmod_RMS_Derivative-OPLS-2005>
2.3133008480072

$$$$
93
                    3D
 Structure written by MMmdl.
160168  0  0  1  0            999 V2000
  -30.4583  -15.0613   20.4399 C   0  0  0  0  0  0
  -30.4556  -12.6672   19.5131 C   0  0  0  0  0  0
  -29.5339  -12.5550   18.2706 C   0  0  0  0  0  0
  -28.0651  -12.3159   18.6788 C   0  0  0  0  0  0
  -27.6239  -13.2478   19.8343 C   0  0  2  0  0  0
  -28.6657  -13.2857   20.9750 C   0  0  0  0  0  0
  -25.2222  -13.7970   20.5350 C   0  0  0  0  0  0
  -24.1648  -13.0280   20.9236 C   0  0  0  0  0  0
  -24.6363  -11.6809   20.8800 C   0  0  0  0  0  0
  -23.9027  -10.4208   21.0405 C   0  0  0  0  0  0
  -24.3580   -9.4138   21.9197 C   0  0  0  0  0  0
  -23.6226   -8.2196   22.0771 C   0  0  0  0  0  0
  -22.4225   -8.0237   21.3552 C   0  0  0  0  0  0
  -21.9846   -9.0207   20.4672 C   0  0  0  0  0  0
  -22.7170  -10.2084   20.3082 C   0  0  0  0  0  0
  -21.6850   -6.0696   22.5289 C   0  0  0  0  0  0
  -21.3978   -6.5594   23.8223 C   0  0  0  0  0  0
  -21.3638   -5.6754   24.9186 C   0  0  0  0  0  0
  -21.6057   -4.3026   24.7232 C   0  0  0  0  0  0
  -21.8805   -3.8110   23.4354 C   0  0  0  0  0  0
  -21.9181   -4.6923   22.3401 C   0  0  0  0  0  0
  -22.7692  -13.5111   21.1929 C   0  0  0  0  0  0
  -22.1685   -4.2112   21.0994 F   0  0  0  0  0  0
  -21.5648   -3.4502   25.7747 F   0  0  0  0  0  0
  -29.9343  -13.7572   20.3942 N   0  0  0  0  0  0
  -26.2804  -12.9343   20.3154 N   0  0  0  0  0  0
  -25.9328  -11.6508   20.5841 N   0  0  0  0  0  0
  -22.0369  -12.8146   22.0521 N   0  0  0  0  0  0
  -25.3437  -15.1493   20.3053 N   0  0  0  0  0  0
  -31.6507  -15.1783   20.1275 O   0  0  0  0  0  0
  -21.6624   -6.8814   21.4244 O   0  0  0  0  0  0
  -22.3362  -14.5434   20.6820 O   0  0  0  0  0  0
  -24.6479  -31.8385   23.1794 C   0  0  0  0  0  0
  -25.9235  -32.4657   23.8214 C   0  0  1  0  0  0
  -27.2545  -27.0875   20.1803 C   0  0  0  0  0  0
  -25.5962  -33.8456   24.2147 N   0  0  0  0  0  0
  -23.4579  -30.4505   21.5203 C   0  0  2  0  0  0
  -24.9198  -28.8501   20.1209 C   0  0  0  0  0  0
  -22.7584  -29.4522   22.4784 C   0  0  0  0  0  0
  -18.0318  -28.1410   22.8418 C   0  0  0  0  0  0
  -24.1494  -36.7244   23.2636 C   0  0  0  0  0  0
  -26.0146  -30.6942   21.3869 C   0  0  0  0  0  0
  -26.0927  -29.2917   20.7473 C   0  0  0  0  0  0
  -27.2592  -28.4295   20.7530 C   0  0  0  0  0  0
  -26.0514  -26.7476   19.5271 C   0  0  0  0  0  0
  -24.9129  -27.5900   19.4975 C   0  0  0  0  0  0
  -23.6962  -29.7587   20.1483 C   0  0  0  0  0  0
  -25.4114  -36.2984   24.0311 C   0  0  1  0  0  0
  -20.5932  -28.3736   23.1163 C   0  0  2  0  0  0
  -20.6798  -26.9414   22.5378 C   0  0  0  0  0  0
  -19.5788  -26.6375   21.5167 C   0  0  0  0  0  0
  -18.1948  -26.7956   22.1544 C   0  0  0  0  0  0
  -19.1580  -28.8876   23.2811 C   0  0  0  0  0  0
  -18.9503  -30.1448   23.8872 C   0  0  0  0  0  0
  -17.6492  -30.6572   24.0555 C   0  0  0  0  0  0
  -25.9068  -34.9374   23.5039 C   0  0  0  0  0  0
  -16.5381  -29.9073   23.6317 C   0  0  0  0  0  0
  -16.7313  -28.6511   23.0305 C   0  0  0  0  0  0
  -26.4533  -31.6531   25.0671 C   0  0  0  0  0  0
  -25.3714  -31.3763   26.1366 C   0  0  0  0  0  0
  -27.0415  -30.2918   24.6291 C   0  0  0  0  0  0
  -27.6058  -32.4301   25.7481 C   0  0  0  0  0  0
  -27.5568  -37.1768   24.8463 C   0  0  0  0  0  0
  -21.4270  -29.3076   22.3536 N   0  0  0  0  0  0
  -26.4265  -37.3712   23.9405 N   0  0  0  0  0  0
  -24.7266  -31.0188   22.0850 N   0  0  0  0  0  0
  -23.4200  -28.8064   23.2958 O   0  0  0  0  0  0
  -28.3439  -26.1234   20.1475 O   0  0  0  0  0  0
  -26.5666  -34.8893   22.4624 O   0  0  0  0  0  0
  -23.5576  -32.1270   23.6973 O   0  0  0  0  0  0
  -30.0912  -18.8319   20.3986 C   0  0  0  0  0  0
  -28.0819  -19.5610   20.9028 C   0  0  0  0  0  0
  -29.2843  -20.1077   20.5595 C   0  0  0  0  0  0
  -29.3676  -17.6267   20.6792 C   0  0  0  0  0  0
  -25.5474  -16.7729   23.4726 C   0  0  0  0  0  0
  -24.9765  -18.8886   22.3103 C   0  0  0  0  0  0
  -29.5539  -21.7824   20.5597 C   0  0  0  0  0  0
  -28.6042  -23.0920   19.9721 C   0  0  0  0  0  0
  -26.9201  -17.4152   21.4313 C   0  0  0  0  0  0
  -28.3106  -24.6354   20.6812 C   0  0  0  0  0  0
  -26.1456  -17.9443   22.6683 C   0  0  0  0  0  0
  -28.1110  -18.1639   21.0377 N   0  0  0  0  0  0
  -29.5697  -16.1668   20.7091 N   0  0  0  0  0  0
  -31.4839  -12.8625   19.2054 H   0  0  0  0  0  0
  -30.4923  -11.7241   20.0604 H   0  0  0  0  0  0
  -29.8820  -11.7556   17.6144 H   0  0  0  0  0  0
  -29.5937  -13.4783   17.6923 H   0  0  0  0  0  0
  -27.9663  -11.2754   18.9915 H   0  0  0  0  0  0
  -27.4076  -12.4371   17.8157 H   0  0  0  0  0  0
  -27.5760  -14.2432   19.3935 H   0  0  0  0  0  0
  -28.7815  -12.2996   21.4242 H   0  0  0  0  0  0
  -28.3422  -13.9417   21.7838 H   0  0  0  0  0  0
  -25.2711   -9.5608   22.4789 H   0  0  0  0  0  0
  -23.9936   -7.4571   22.7471 H   0  0  0  0  0  0
  -21.0780   -8.8691   19.8956 H   0  0  0  0  0  0
  -22.3593  -10.9650   19.6230 H   0  0  0  0  0  0
  -21.1959   -7.6106   23.9688 H   0  0  0  0  0  0
  -21.1491   -6.0529   25.9090 H   0  0  0  0  0  0
  -22.0594   -2.7571   23.2897 H   0  0  0  0  0  0
  -22.3978  -11.9802   22.4909 H   0  0  0  0  0  0
  -21.1066  -13.1348   22.2813 H   0  0  0  0  0  0
  -24.5215  -15.7413   20.3573 H   0  0  0  0  0  0
  -26.0584  -15.5197   19.6950 H   0  0  0  0  0  0
  -26.7286  -32.5266   23.0923 H   0  0  0  0  0  0
  -25.0101  -33.9547   25.0291 H   0  0  0  0  0  0
  -22.7637  -31.2754   21.3491 H   0  0  0  0  0  0
  -23.3741  -35.9593   23.3274 H   0  0  0  0  0  0
  -24.3579  -36.8911   22.2056 H   0  0  0  0  0  0
  -23.7279  -37.6441   23.6706 H   0  0  0  0  0  0
  -26.1658  -31.4321   20.5970 H   0  0  0  0  0  0
  -26.8841  -30.7616   22.0290 H   0  0  0  0  0  0
  -28.1538  -28.7743   21.2499 H   0  0  0  0  0  0
  -25.9880  -25.7868   19.0342 H   0  0  0  0  0  0
  -24.0223  -27.2460   18.9889 H   0  0  0  0  0  0
  -23.8495  -30.5219   19.3850 H   0  0  0  0  0  0
  -22.8102  -29.2013   19.8326 H   0  0  0  0  0  0
  -25.1299  -36.1786   25.0802 H   0  0  0  0  0  0
  -21.0008  -28.3354   24.1281 H   0  0  0  0  0  0
  -20.5629  -26.2359   23.3622 H   0  0  0  0  0  0
  -21.6661  -26.7341   22.1210 H   0  0  0  0  0  0
  -19.6941  -25.6280   21.1213 H   0  0  0  0  0  0
  -19.6800  -27.3165   20.6685 H   0  0  0  0  0  0
  -17.4225  -26.6667   21.3943 H   0  0  0  0  0  0
  -18.0351  -26.0148   22.8984 H   0  0  0  0  0  0
  -19.7987  -30.7258   24.2247 H   0  0  0  0  0  0
  -17.5037  -31.6240   24.5185 H   0  0  0  0  0  0
  -15.5380  -30.2950   23.7652 H   0  0  0  0  0  0
  -15.8706  -28.0826   22.7000 H   0  0  0  0  0  0
  -24.5876  -30.7120   25.7697 H   0  0  0  0  0  0
  -24.8911  -32.2961   26.4714 H   0  0  0  0  0  0
  -25.7969  -30.8983   27.0196 H   0  0  0  0  0  0
  -26.3041  -29.6611   24.1284 H   0  0  0  0  0  0
  -27.4004  -29.7242   25.4888 H   0  0  0  0  0  0
  -27.8962  -30.4135   23.9629 H   0  0  0  0  0  0
  -27.2626  -33.3610   26.2003 H   0  0  0  0  0  0
  -28.3897  -32.6825   25.0335 H   0  0  0  0  0  0
  -28.0680  -31.8455   26.5441 H   0  0  0  0  0  0
  -28.2541  -38.0101   24.7489 H   0  0  0  0  0  0
  -28.1093  -36.2614   24.6283 H   0  0  0  0  0  0
  -27.2296  -37.1427   25.8873 H   0  0  0  0  0  0
  -20.9501  -29.8877   21.6777 H   0  0  0  0  0  0
  -26.0123  -38.2776   24.1409 H   0  0  0  0  0  0
  -31.1404  -18.8068   20.1354 H   0  0  0  0  0  0
  -27.1769  -20.1010   21.1239 H   0  0  0  0  0  0
  -25.0106  -17.1355   24.3500 H   0  0  0  0  0  0
  -26.3086  -16.0695   23.8159 H   0  0  0  0  0  0
  -24.8364  -16.2095   22.8638 H   0  0  0  0  0  0
  -24.5254  -19.2985   23.2135 H   0  0  0  0  0  0
  -24.1902  -18.3541   21.7781 H   0  0  0  0  0  0
  -25.2537  -19.7338   21.6870 H   0  0  0  0  0  0
  -30.5414  -21.9182   20.1160 H   0  0  0  0  0  0
  -29.7262  -22.0087   21.6133 H   0  0  0  0  0  0
  -27.6113  -22.6750   19.7970 H   0  0  0  0  0  0
  -28.9556  -23.2798   18.9577 H   0  0  0  0  0  0
  -26.2593  -17.4193   20.5666 H   0  0  0  0  0  0
  -27.2153  -16.3889   21.6323 H   0  0  0  0  0  0
  -29.0030  -24.6703   21.5239 H   0  0  0  0  0  0
  -27.3417  -24.5380   21.1700 H   0  0  0  0  0  0
  -26.8523  -18.4674   23.3156 H   0  0  0  0  0  0
  -28.7134  -15.7232   21.0039 H   0  0  0  0  0  0
  1 25  1  0  0  0
  1 30  2  0  0  0
  1 83  1  0  0  0
  2  3  1  0  0  0
  2 25  1  0  0  0
  2 84  1  0  0  0
  2 85  1  0  0  0
  3  4  1  0  0  0
  3 86  1  0  0  0
  3 87  1  0  0  0
  4  5  1  0  0  0
  4 88  1  0  0  0
  4 89  1  0  0  0
  5  6  1  0  0  0
  5 26  1  0  0  0
  5 90  1  0  0  0
  6 25  1  0  0  0
  6 91  1  0  0  0
  6 92  1  0  0  0
  7  8  2  0  0  0
  7 26  1  0  0  0
  7 29  1  0  0  0
  8  9  1  0  0  0
  8 22  1  0  0  0
  9 10  1  0  0  0
  9 27  2  0  0  0
 10 11  2  0  0  0
 10 15  1  0  0  0
 11 12  1  0  0  0
 11 93  1  0  0  0
 12 13  2  0  0  0
 12 94  1  0  0  0
 13 14  1  0  0  0
 13 31  1  0  0  0
 14 15  2  0  0  0
 14 95  1  0  0  0
 15 96  1  0  0  0
 16 17  2  0  0  0
 16 21  1  0  0  0
 16 31  1  0  0  0
 17 18  1  0  0  0
 17 97  1  0  0  0
 18 19  2  0  0  0
 18 98  1  0  0  0
 19 20  1  0  0  0
 19 24  1  0  0  0
 20 21  2  0  0  0
 20 99  1  0  0  0
 21 23  1  0  0  0
 22 28  1  0  0  0
 22 32  2  0  0  0
 26 27  1  0  0  0
 28100  1  0  0  0
 28101  1  0  0  0
 29102  1  0  0  0
 29103  1  0  0  0
 33 34  1  0  0  0
 33 66  1  0  0  0
 33 70  2  0  0  0
 34 36  1  0  0  0
 34 59  1  0  0  0
 34104  1  0  0  0
 35 44  2  0  0  0
 35 45  1  0  0  0
 35 68  1  0  0  0
 36 56  1  0  0  0
 36105  1  0  0  0
 37 39  1  0  0  0
 37 47  1  0  0  0
 37 66  1  0  0  0
 37106  1  0  0  0
 38 43  2  0  0  0
 38 46  1  0  0  0
 38 47  1  0  0  0
 39 64  1  0  0  0
 39 67  2  0  0  0
 40 52  1  0  0  0
 40 53  2  0  0  0
 40 58  1  0  0  0
 41107  1  0  0  0
 41108  1  0  0  0
 41109  1  0  0  0
 41 48  1  0  0  0
 42 43  1  0  0  0
 42 66  1  0  0  0
 42110  1  0  0  0
 42111  1  0  0  0
 43 44  1  0  0  0
 44112  1  0  0  0
 45 46  2  0  0  0
 45113  1  0  0  0
 46114  1  0  0  0
 47115  1  0  0  0
 47116  1  0  0  0
 48 56  1  0  0  0
 48 65  1  0  0  0
 48117  1  0  0  0
 49 50  1  0  0  0
 49 53  1  0  0  0
 49 64  1  0  0  0
 49118  1  0  0  0
 50 51  1  0  0  0
 50119  1  0  0  0
 50120  1  0  0  0
 51 52  1  0  0  0
 51121  1  0  0  0
 51122  1  0  0  0
 52123  1  0  0  0
 52124  1  0  0  0
 53 54  1  0  0  0
 54 55  2  0  0  0
 54125  1  0  0  0
 55 57  1  0  0  0
 55126  1  0  0  0
 56 69  2  0  0  0
 57 58  2  0  0  0
 57127  1  0  0  0
 58128  1  0  0  0
 59 60  1  0  0  0
 59 61  1  0  0  0
 59 62  1  0  0  0
 60129  1  0  0  0
 60130  1  0  0  0
 60131  1  0  0  0
 61132  1  0  0  0
 61133  1  0  0  0
 61134  1  0  0  0
 62135  1  0  0  0
 62136  1  0  0  0
 62137  1  0  0  0
 63 65  1  0  0  0
 63138  1  0  0  0
 63139  1  0  0  0
 63140  1  0  0  0
 64141  1  0  0  0
 65142  1  0  0  0
 68 80  1  0  0  0
 71 73  1  0  0  0
 71 74  2  0  0  0
 71143  1  0  0  0
 72 73  2  0  0  0
 72 82  1  0  0  0
 72144  1  0  0  0
 73 77  1  0  0  0
 74 82  1  0  0  0
 74 83  1  0  0  0
 75145  1  0  0  0
 75146  1  0  0  0
 75147  1  0  0  0
 75 81  1  0  0  0
 76 81  1  0  0  0
 76148  1  0  0  0
 76149  1  0  0  0
 76150  1  0  0  0
 77 78  1  0  0  0
 77151  1  0  0  0
 77152  1  0  0  0
 78 80  1  0  0  0
 78153  1  0  0  0
 78154  1  0  0  0
 79 81  1  0  0  0
 79 82  1  0  0  0
 79155  1  0  0  0
 79156  1  0  0  0
 80157  1  0  0  0
 80158  1  0  0  0
 81159  1  0  0  0
 83160  1  0  0  0
M  ISO  4   1 100  68 101  80 101  83 100
M  END
> <chiral flag>
0

> <version>
0

> <s_m_source_file>
/data/baiqing/PycharmProjects/Reinvent-master-3.2/result/LINK_invent/BTK/process_docking_weight1_custom_sum_contain_oxygen_bond_distance_aromatic_linkinvent_7_9_3/rearranged_h_0019.sdf

> <i_m_source_file_index>
94

> <r_mmod_Potential_Energy-OPLS-2005>
808.843017578125

> <r_mmod_Stretch_Energy-OPLS-2005>
331.728881835938

> <r_mmod_Bend_Energy-OPLS-2005>
393.405670166016

> <r_mmod_Torsional_Energy-OPLS-2005>
272.474212646484

> <r_mmod_Improper_Torsional_Energy-OPLS-2005>
6.05211448669434

> <r_mmod_Van_der_Waal_Energy-OPLS-2005>
111.496444702148

> <r_mmod_Electrostatic_Energy-OPLS-2005>
-361.499694824219

> <r_mmod_Solvation_Energy-OPLS-2005>
-202.287689208984

> <b_mmod_Minimization_Converged-OPLS-2005>
0

> <r_mmod_RMS_Derivative-OPLS-2005>
4.94154167175293

$$$$
94
                    3D
 Structure written by MMmdl.
153161  0  0  1  0            999 V2000
  -30.4168  -15.3345   20.3665 C   0  0  0  0  0  0
  -30.4433  -12.8711   19.4931 C   0  0  0  0  0  0
  -29.5320  -12.5691   18.2766 C   0  0  0  0  0  0
  -28.0905  -12.2756   18.7275 C   0  0  0  0  0  0
  -27.6072  -13.2716   19.8090 C   0  0  2  0  0  0
  -28.6471  -13.4946   20.9263 C   0  0  0  0  0  0
  -25.2400  -13.8235   20.5755 C   0  0  0  0  0  0
  -24.1758  -13.0434   20.9263 C   0  0  0  0  0  0
  -24.6407  -11.6924   20.8761 C   0  0  0  0  0  0
  -23.9088  -10.4285   21.0404 C   0  0  0  0  0  0
  -24.3632   -9.4200   21.9184 C   0  0  0  0  0  0
  -23.6299   -8.2239   22.0754 C   0  0  0  0  0  0
  -22.4280   -8.0279   21.3543 C   0  0  0  0  0  0
  -21.9921   -9.0250   20.4642 C   0  0  0  0  0  0
  -22.7255  -10.2128   20.3051 C   0  0  0  0  0  0
  -21.6851   -6.0732   22.5276 C   0  0  0  0  0  0
  -21.4014   -6.5634   23.8208 C   0  0  0  0  0  0
  -21.3660   -5.6792   24.9170 C   0  0  0  0  0  0
  -21.6046   -4.3053   24.7225 C   0  0  0  0  0  0
  -21.8821   -3.8140   23.4343 C   0  0  0  0  0  0
  -21.9198   -4.6959   22.3399 C   0  0  0  0  0  0
  -22.7775  -13.5180   21.1907 C   0  0  0  0  0  0
  -22.1665   -4.2141   21.0976 F   0  0  0  0  0  0
  -21.5631   -3.4538   25.7737 F   0  0  0  0  0  0
  -29.8538  -14.0254   20.2675 N   0  0  0  0  0  0
  -26.2819  -12.9501   20.3201 N   0  0  0  0  0  0
  -25.9343  -11.6611   20.5720 N   0  0  0  0  0  0
  -22.0433  -12.8163   22.0458 N   0  0  0  0  0  0
  -25.4022  -15.1973   20.4197 N   0  0  0  0  0  0
  -31.6532  -15.3119   20.2682 O   0  0  0  0  0  0
  -21.6648   -6.8875   21.4234 O   0  0  0  0  0  0
  -22.3446  -14.5487   20.6752 O   0  0  0  0  0  0
  -24.6650  -31.8219   23.1666 C   0  0  0  0  0  0
  -25.9331  -32.4579   23.8138 C   0  0  1  0  0  0
  -27.2227  -26.9013   20.2004 C   0  0  0  0  0  0
  -25.5993  -33.8391   24.2051 N   0  0  0  0  0  0
  -23.4814  -30.4296   21.5174 C   0  0  2  0  0  0
  -24.9353  -28.8054   20.1208 C   0  0  0  0  0  0
  -22.7689  -29.4415   22.4784 C   0  0  0  0  0  0
  -18.0327  -28.1412   22.8466 C   0  0  0  0  0  0
  -24.1498  -36.7207   23.2650 C   0  0  0  0  0  0
  -26.0507  -30.6210   21.4009 C   0  0  0  0  0  0
  -26.1202  -29.2049   20.7519 C   0  0  0  0  0  0
  -27.2595  -28.2767   20.7611 C   0  0  0  0  0  0
  -26.0056  -26.6567   19.5264 C   0  0  0  0  0  0
  -24.9030  -27.5512   19.4895 C   0  0  0  0  0  0
  -23.7237  -29.7385   20.1467 C   0  0  0  0  0  0
  -25.4140  -36.2962   24.0298 C   0  0  1  0  0  0
  -20.5953  -28.3758   23.1188 C   0  0  2  0  0  0
  -20.6811  -26.9444   22.5404 C   0  0  0  0  0  0
  -19.5782  -26.6380   21.5220 C   0  0  0  0  0  0
  -18.1955  -26.7950   22.1616 C   0  0  0  0  0  0
  -19.1586  -28.8909   23.2807 C   0  0  0  0  0  0
  -18.9498  -30.1498   23.8847 C   0  0  0  0  0  0
  -17.6492  -30.6603   24.0560 C   0  0  0  0  0  0
  -25.9101  -34.9349   23.4995 C   0  0  0  0  0  0
  -16.5384  -29.9086   23.6345 C   0  0  0  0  0  0
  -16.7309  -28.6505   23.0357 C   0  0  0  0  0  0
  -26.4572  -31.6521   25.0668 C   0  0  0  0  0  0
  -25.3682  -31.3768   26.1310 C   0  0  0  0  0  0
  -27.0482  -30.2891   24.6410 C   0  0  0  0  0  0
  -27.6059  -32.4342   25.7476 C   0  0  0  0  0  0
  -27.5575  -37.1753   24.8466 C   0  0  0  0  0  0
  -21.4358  -29.3041   22.3545 N   0  0  0  0  0  0
  -26.4288  -37.3698   23.9404 N   0  0  0  0  0  0
  -24.7537  -30.9851   22.0822 N   0  0  0  0  0  0
  -23.4222  -28.7995   23.3047 O   0  0  0  0  0  0
  -28.2459  -25.8071   20.1989 O   0  0  0  0  0  0
  -26.5718  -34.8902   22.4593 O   0  0  0  0  0  0
  -23.5713  -32.1206   23.6749 O   0  0  0  0  0  0
  -30.1266  -19.7737   22.5357 C   0  0  0  0  0  0
  -29.6376  -20.9567   21.9137 C   0  0  0  0  0  0
  -29.1429  -20.9836   20.5821 C   0  0  0  0  0  0
  -29.6951  -18.1946   20.6642 C   0  0  0  0  0  0
  -30.1781  -18.4760   21.9658 C   0  0  0  0  0  0
  -29.1792  -19.5188   20.0157 C   0  0  0  0  0  0
  -29.6734  -22.2264   22.7465 C   0  0  0  0  0  0
  -28.3123  -22.4872   18.4764 C   0  0  0  0  0  0
  -28.0842  -24.1787   20.5189 C   0  0  0  0  0  0
  -28.8236  -22.6129   19.9142 C   0  0  1  0  0  0
  -29.6466  -16.6125   20.2374 N   0  0  0  0  0  0
  -30.7856  -17.2188   22.9882 Cl  0  0  0  0  0  0
  -28.5613  -19.2903   18.4205 Cl  0  0  0  0  0  0
  -31.4444  -13.1129   19.1322 H   0  0  0  0  0  0
  -30.5596  -11.9912   20.1277 H   0  0  0  0  0  0
  -29.9256  -11.7258   17.7076 H   0  0  0  0  0  0
  -29.5339  -13.4231   17.5978 H   0  0  0  0  0  0
  -28.0762  -11.2644   19.1358 H   0  0  0  0  0  0
  -27.4115  -12.2690   17.8738 H   0  0  0  0  0  0
  -27.5035  -14.2209   19.2822 H   0  0  0  0  0  0
  -28.8486  -12.5799   21.4860 H   0  0  0  0  0  0
  -28.2751  -14.2260   21.6461 H   0  0  0  0  0  0
  -25.2772   -9.5685   22.4767 H   0  0  0  0  0  0
  -24.0005   -7.4636   22.7485 H   0  0  0  0  0  0
  -21.0851   -8.8772   19.8949 H   0  0  0  0  0  0
  -22.3706  -10.9673   19.6166 H   0  0  0  0  0  0
  -21.1998   -7.6142   23.9703 H   0  0  0  0  0  0
  -21.1480   -6.0523   25.9074 H   0  0  0  0  0  0
  -22.0601   -2.7602   23.2848 H   0  0  0  0  0  0
  -22.4068  -11.9833   22.4856 H   0  0  0  0  0  0
  -21.1041  -13.1168   22.2655 H   0  0  0  0  0  0
  -24.6296  -15.8434   20.5388 H   0  0  0  0  0  0
  -26.2474  -15.6474   20.0959 H   0  0  0  0  0  0
  -26.7403  -32.5120   23.0850 H   0  0  0  0  0  0
  -25.0068  -33.9435   25.0154 H   0  0  0  0  0  0
  -22.7965  -31.2614   21.3440 H   0  0  0  0  0  0
  -23.3776  -35.9516   23.3276 H   0  0  0  0  0  0
  -24.3576  -36.8895   22.2072 H   0  0  0  0  0  0
  -23.7238  -37.6377   23.6733 H   0  0  0  0  0  0
  -26.2272  -31.3603   20.6197 H   0  0  0  0  0  0
  -26.9105  -30.6840   22.0549 H   0  0  0  0  0  0
  -28.1618  -28.5870   21.2713 H   0  0  0  0  0  0
  -25.8869  -25.7013   19.0359 H   0  0  0  0  0  0
  -24.0025  -27.2362   18.9806 H   0  0  0  0  0  0
  -23.8882  -30.5040   19.3878 H   0  0  0  0  0  0
  -22.8329  -29.1942   19.8291 H   0  0  0  0  0  0
  -25.1338  -36.1755   25.0787 H   0  0  0  0  0  0
  -21.0021  -28.3375   24.1315 H   0  0  0  0  0  0
  -20.5715  -26.2378   23.3647 H   0  0  0  0  0  0
  -21.6671  -26.7440   22.1195 H   0  0  0  0  0  0
  -19.6949  -25.6276   21.1280 H   0  0  0  0  0  0
  -19.6719  -27.3179   20.6740 H   0  0  0  0  0  0
  -17.4237  -26.6707   21.4008 H   0  0  0  0  0  0
  -18.0327  -26.0101   22.9016 H   0  0  0  0  0  0
  -19.7978  -30.7318   24.2199 H   0  0  0  0  0  0
  -17.5048  -31.6281   24.5170 H   0  0  0  0  0  0
  -15.5376  -30.2965   23.7716 H   0  0  0  0  0  0
  -15.8708  -28.0816   22.7081 H   0  0  0  0  0  0
  -24.5897  -30.7093   25.7597 H   0  0  0  0  0  0
  -24.8835  -32.2967   26.4594 H   0  0  0  0  0  0
  -25.7902  -30.9019   27.0177 H   0  0  0  0  0  0
  -26.3146  -29.6546   24.1425 H   0  0  0  0  0  0
  -27.4028  -29.7279   25.5065 H   0  0  0  0  0  0
  -27.9081  -30.4078   23.9817 H   0  0  0  0  0  0
  -27.2627  -33.3712   26.1880 H   0  0  0  0  0  0
  -28.3949  -32.6795   25.0350 H   0  0  0  0  0  0
  -28.0632  -31.8577   26.5525 H   0  0  0  0  0  0
  -28.2564  -38.0084   24.7528 H   0  0  0  0  0  0
  -28.1104  -36.2604   24.6275 H   0  0  0  0  0  0
  -27.2288  -37.1370   25.8872 H   0  0  0  0  0  0
  -20.9635  -29.8706   21.6641 H   0  0  0  0  0  0
  -26.0142  -38.2753   24.1433 H   0  0  0  0  0  0
  -30.4898  -19.8546   23.5492 H   0  0  0  0  0  0
  -28.6581  -22.5186   23.0171 H   0  0  0  0  0  0
  -30.1543  -23.0436   22.2121 H   0  0  0  0  0  0
  -30.2289  -22.0918   23.6748 H   0  0  0  0  0  0
  -29.0222  -21.9562   17.8444 H   0  0  0  0  0  0
  -28.1728  -23.4715   18.0282 H   0  0  0  0  0  0
  -27.3569  -21.9658   18.4399 H   0  0  0  0  0  0
  -28.3275  -24.2017   21.5764 H   0  0  0  0  0  0
  -27.0084  -24.0010   20.5282 H   0  0  0  0  0  0
  -29.8598  -22.9319   19.7946 H   0  0  0  0  0  0
  -28.7501  -16.3958   19.8323 H   0  0  0  0  0  0
  1 25  1  0  0  0
  1 30  2  0  0  0
  1 81  1  0  0  0
  2  3  1  0  0  0
  2 25  1  0  0  0
  2 84  1  0  0  0
  2 85  1  0  0  0
  3  4  1  0  0  0
  3 86  1  0  0  0
  3 87  1  0  0  0
  4  5  1  0  0  0
  4 88  1  0  0  0
  4 89  1  0  0  0
  5  6  1  0  0  0
  5 26  1  0  0  0
  5 90  1  0  0  0
  6 25  1  0  0  0
  6 91  1  0  0  0
  6 92  1  0  0  0
  7  8  2  0  0  0
  7 26  1  0  0  0
  7 29  1  0  0  0
  8  9  1  0  0  0
  8 22  1  0  0  0
  9 10  1  0  0  0
  9 27  2  0  0  0
 10 11  2  0  0  0
 10 15  1  0  0  0
 11 12  1  0  0  0
 11 93  1  0  0  0
 12 13  2  0  0  0
 12 94  1  0  0  0
 13 14  1  0  0  0
 13 31  1  0  0  0
 14 15  2  0  0  0
 14 95  1  0  0  0
 15 96  1  0  0  0
 16 17  2  0  0  0
 16 21  1  0  0  0
 16 31  1  0  0  0
 17 18  1  0  0  0
 17 97  1  0  0  0
 18 19  2  0  0  0
 18 98  1  0  0  0
 19 20  1  0  0  0
 19 24  1  0  0  0
 20 21  2  0  0  0
 20 99  1  0  0  0
 21 23  1  0  0  0
 22 28  1  0  0  0
 22 32  2  0  0  0
 26 27  1  0  0  0
 28100  1  0  0  0
 28101  1  0  0  0
 29102  1  0  0  0
 29103  1  0  0  0
 33 34  1  0  0  0
 33 66  1  0  0  0
 33 70  2  0  0  0
 34 36  1  0  0  0
 34 59  1  0  0  0
 34104  1  0  0  0
 35 44  2  0  0  0
 35 45  1  0  0  0
 35 68  1  0  0  0
 36 56  1  0  0  0
 36105  1  0  0  0
 37 39  1  0  0  0
 37 47  1  0  0  0
 37 66  1  0  0  0
 37106  1  0  0  0
 38 43  2  0  0  0
 38 46  1  0  0  0
 38 47  1  0  0  0
 39 64  1  0  0  0
 39 67  2  0  0  0
 40 52  1  0  0  0
 40 53  2  0  0  0
 40 58  1  0  0  0
 41107  1  0  0  0
 41108  1  0  0  0
 41109  1  0  0  0
 41 48  1  0  0  0
 42 43  1  0  0  0
 42 66  1  0  0  0
 42110  1  0  0  0
 42111  1  0  0  0
 43 44  1  0  0  0
 44112  1  0  0  0
 45 46  2  0  0  0
 45113  1  0  0  0
 46114  1  0  0  0
 47115  1  0  0  0
 47116  1  0  0  0
 48 56  1  0  0  0
 48 65  1  0  0  0
 48117  1  0  0  0
 49 50  1  0  0  0
 49 53  1  0  0  0
 49 64  1  0  0  0
 49118  1  0  0  0
 50 51  1  0  0  0
 50119  1  0  0  0
 50120  1  0  0  0
 51 52  1  0  0  0
 51121  1  0  0  0
 51122  1  0  0  0
 52123  1  0  0  0
 52124  1  0  0  0
 53 54  1  0  0  0
 54 55  2  0  0  0
 54125  1  0  0  0
 55 57  1  0  0  0
 55126  1  0  0  0
 56 69  2  0  0  0
 57 58  2  0  0  0
 57127  1  0  0  0
 58128  1  0  0  0
 59 60  1  0  0  0
 59 61  1  0  0  0
 59 62  1  0  0  0
 60129  1  0  0  0
 60130  1  0  0  0
 60131  1  0  0  0
 61132  1  0  0  0
 61133  1  0  0  0
 61134  1  0  0  0
 62135  1  0  0  0
 62136  1  0  0  0
 62137  1  0  0  0
 63 65  1  0  0  0
 63138  1  0  0  0
 63139  1  0  0  0
 63140  1  0  0  0
 64141  1  0  0  0
 65142  1  0  0  0
 68 79  1  0  0  0
 71 72  2  0  0  0
 71 75  1  0  0  0
 71143  1  0  0  0
 72 73  1  0  0  0
 72 77  1  0  0  0
 73 76  2  0  0  0
 73 80  1  0  0  0
 74 75  2  0  0  0
 74 76  1  0  0  0
 74 81  1  0  0  0
 75 82  1  0  0  0
 76 83  1  0  0  0
 77144  1  0  0  0
 77145  1  0  0  0
 77146  1  0  0  0
 78147  1  0  0  0
 78148  1  0  0  0
 78149  1  0  0  0
 78 80  1  0  0  0
 79 80  1  0  0  0
 79150  1  0  0  0
 79151  1  0  0  0
 80152  1  0  0  0
 81153  1  0  0  0
M  ISO  4   1 100  68 101  79 101  81 100
M  END
> <chiral flag>
0

> <version>
0

> <s_m_source_file>
/data/baiqing/PycharmProjects/Reinvent-master-3.2/result/LINK_invent/BTK/process_docking_weight1_custom_sum_contain_oxygen_bond_distance_aromatic_linkinvent_7_9_3/rearranged_h_0019.sdf

> <i_m_source_file_index>
95

> <r_mmod_Potential_Energy-OPLS-2005>
1430.447265625

> <r_mmod_Stretch_Energy-OPLS-2005>
664.8896484375

> <r_mmod_Bend_Energy-OPLS-2005>
450.345306396484

> <r_mmod_Torsional_Energy-OPLS-2005>
260.658020019531

> <r_mmod_Improper_Torsional_Energy-OPLS-2005>
10.4935836791992

> <r_mmod_Van_der_Waal_Energy-OPLS-2005>
129.382904052734

> <r_mmod_Electrostatic_Energy-OPLS-2005>
-397.169647216797

> <r_mmod_Solvation_Energy-OPLS-2005>
-205.754318237305

> <b_mmod_Minimization_Converged-OPLS-2005>
0

> <r_mmod_RMS_Derivative-OPLS-2005>
2.23295402526855

$$$$
95
                    3D
 Structure written by MMmdl.
193201  0  0  1  0            999 V2000
  -30.6326  -14.5689   20.5009 C   0  0  0  0  0  0
  -30.4397  -12.3408   19.4504 C   0  0  0  0  0  0
  -29.5058  -12.4690   18.2223 C   0  0  0  0  0  0
  -28.0221  -12.2857   18.6196 C   0  0  0  0  0  0
  -27.6343  -13.1624   19.8355 C   0  0  2  0  0  0
  -28.6808  -13.0304   20.9751 C   0  0  0  0  0  0
  -25.2500  -13.8005   20.5639 C   0  0  0  0  0  0
  -24.1724  -13.0356   20.9184 C   0  0  0  0  0  0
  -24.6247  -11.6819   20.8748 C   0  0  0  0  0  0
  -23.8889  -10.4253   21.0411 C   0  0  0  0  0  0
  -24.3501   -9.4197   21.9191 C   0  0  0  0  0  0
  -23.6233   -8.2214   22.0746 C   0  0  0  0  0  0
  -22.4216   -8.0241   21.3531 C   0  0  0  0  0  0
  -21.9799   -9.0199   20.4620 C   0  0  0  0  0  0
  -22.7076  -10.2100   20.3053 C   0  0  0  0  0  0
  -21.6850   -6.0716   22.5277 C   0  0  0  0  0  0
  -21.4018   -6.5623   23.8206 C   0  0  0  0  0  0
  -21.3647   -5.6771   24.9170 C   0  0  0  0  0  0
  -21.6022   -4.3035   24.7210 C   0  0  0  0  0  0
  -21.8833   -3.8137   23.4335 C   0  0  0  0  0  0
  -21.9186   -4.6953   22.3395 C   0  0  0  0  0  0
  -22.7782  -13.5232   21.1871 C   0  0  0  0  0  0
  -22.1660   -4.2139   21.0973 F   0  0  0  0  0  0
  -21.5605   -3.4518   25.7730 F   0  0  0  0  0  0
  -30.0184  -13.3488   20.4389 N   0  0  0  0  0  0
  -26.2822  -12.9087   20.3152 N   0  0  0  0  0  0
  -25.9121  -11.6293   20.5682 N   0  0  0  0  0  0
  -22.0367  -12.8322   22.0444 N   0  0  0  0  0  0
  -25.4160  -15.1726   20.4151 N   0  0  0  0  0  0
  -31.8306  -14.6979   20.2260 O   0  0  0  0  0  0
  -21.6601   -6.8846   21.4239 O   0  0  0  0  0  0
  -22.3507  -14.5574   20.6720 O   0  0  0  0  0  0
  -24.6186  -31.8621   23.2075 C   0  0  0  0  0  0
  -25.9073  -32.4765   23.8379 C   0  0  1  0  0  0
  -27.2528  -27.4170   20.1065 C   0  0  0  0  0  0
  -25.5943  -33.8592   24.2294 N   0  0  0  0  0  0
  -23.4032  -30.4831   21.5492 C   0  0  2  0  0  0
  -24.8539  -28.9339   20.1196 C   0  0  0  0  0  0
  -22.7411  -29.4669   22.5031 C   0  0  0  0  0  0
  -18.0246  -28.1406   22.8479 C   0  0  0  0  0  0
  -24.1445  -36.7360   23.2612 C   0  0  0  0  0  0
  -25.9333  -30.8201   21.3571 C   0  0  0  0  0  0
  -26.0117  -29.4521   20.7063 C   0  0  0  0  0  0
  -27.2138  -28.7072   20.6861 C   0  0  0  0  0  0
  -26.0735  -26.9069   19.5196 C   0  0  0  0  0  0
  -24.8790  -27.6580   19.5250 C   0  0  0  0  0  0
  -23.6117  -29.7973   20.1702 C   0  0  0  0  0  0
  -25.4071  -36.3079   24.0269 C   0  0  1  0  0  0
  -20.5837  -28.3699   23.1339 C   0  0  2  0  0  0
  -20.6730  -26.9435   22.5429 C   0  0  0  0  0  0
  -19.5704  -26.6397   21.5225 C   0  0  0  0  0  0
  -18.1883  -26.7929   22.1631 C   0  0  0  0  0  0
  -19.1498  -28.8873   23.2884 C   0  0  0  0  0  0
  -18.9424  -30.1470   23.8897 C   0  0  0  0  0  0
  -17.6434  -30.6601   24.0591 C   0  0  0  0  0  0
  -25.9055  -34.9435   23.5071 C   0  0  0  0  0  0
  -16.5333  -29.9108   23.6345 C   0  0  0  0  0  0
  -16.7239  -28.6537   23.0328 C   0  0  0  0  0  0
  -26.4476  -31.6583   25.0764 C   0  0  0  0  0  0
  -25.3750  -31.3664   26.1546 C   0  0  0  0  0  0
  -27.0294  -30.2986   24.6249 C   0  0  0  0  0  0
  -27.6074  -32.4295   25.7539 C   0  0  0  0  0  0
  -27.5525  -37.1817   24.8425 C   0  0  0  0  0  0
  -21.4145  -29.3055   22.3766 N   0  0  0  0  0  0
  -26.4226  -37.3808   23.9411 N   0  0  0  0  0  0
  -24.6701  -31.0695   22.0981 N   0  0  0  0  0  0
  -23.4182  -28.8293   23.3141 O   0  0  0  0  0  0
  -28.4370  -26.6991   20.1237 O   0  0  0  0  0  0
  -26.5600  -34.8896   22.4635 O   0  0  0  0  0  0
  -23.5397  -32.1420   23.7466 O   0  0  0  0  0  0
  -29.6763  -15.6916   20.5418 C   0  0  0  0  0  0
  -29.8156  -17.0450   20.5666 C   0  0  0  0  0  0
  -32.2741  -18.7761   17.2577 C   0  0  0  0  0  0
  -31.3431  -18.8336   18.4669 C   0  0  0  0  0  0
  -33.6706  -19.2567   17.6641 C   0  0  0  0  0  0
  -31.8954  -17.9347   19.5968 C   0  0  1  0  0  0
  -33.3758  -18.3006   19.9564 C   0  0  1  0  0  0
  -33.9761  -17.2874   20.9612 C   0  0  0  0  0  0
  -27.5257  -17.9069   21.4075 C   0  0  0  0  0  0
  -27.8699  -17.4462   18.9515 C   0  0  0  0  0  0
  -32.2870  -21.1688   23.3554 C   0  0  0  0  0  0
  -30.5432  -18.1263   23.2135 C   0  0  0  0  0  0
  -35.6313  -18.8731   19.0498 C   0  0  0  0  0  0
  -29.5364  -23.1910   21.3441 C   0  0  0  0  0  0
  -29.6151  -24.6877   20.9067 C   0  0  0  0  0  0
  -30.8284  -22.7459   22.0777 C   0  0  0  0  0  0
  -30.6088  -20.1999   21.6471 C   0  0  0  0  0  0
  -28.3596  -25.2617   20.2009 C   0  0  0  0  0  0
  -28.5525  -17.8798   20.2635 C   0  0  0  0  0  0
  -30.9034  -21.3144   22.6887 C   0  0  1  0  0  0
  -31.1096  -18.7414   21.9149 C   0  0  2  0  0  0
  -30.9707  -17.8206   20.7484 N   0  0  0  0  0  0
  -34.2517  -18.4155   18.7430 N   0  3  2  0  0  0
  -31.4805  -12.4727   19.1483 H   0  0  0  0  0  0
  -30.3795  -11.3458   19.8915 H   0  0  0  0  0  0
  -29.7755  -11.7254   17.4701 H   0  0  0  0  0  0
  -29.6427  -13.4426   17.7524 H   0  0  0  0  0  0
  -27.8563  -11.2334   18.8500 H   0  0  0  0  0  0
  -27.3752  -12.5112   17.7707 H   0  0  0  0  0  0
  -27.6067  -14.1603   19.4133 H   0  0  0  0  0  0
  -28.6749  -12.0186   21.3880 H   0  0  0  0  0  0
  -28.4277  -13.6747   21.8193 H   0  0  0  0  0  0
  -25.2638   -9.5723   22.4764 H   0  0  0  0  0  0
  -23.9957   -7.4604   22.7464 H   0  0  0  0  0  0
  -21.0726   -8.8687   19.8932 H   0  0  0  0  0  0
  -22.3499  -10.9651   19.6186 H   0  0  0  0  0  0
  -21.2028   -7.6134   23.9735 H   0  0  0  0  0  0
  -21.1441   -6.0471   25.9072 H   0  0  0  0  0  0
  -22.0620   -2.7596   23.2819 H   0  0  0  0  0  0
  -22.3933  -12.0003   22.4944 H   0  0  0  0  0  0
  -21.0998  -13.1461   22.2593 H   0  0  0  0  0  0
  -24.6441  -15.8227   20.5097 H   0  0  0  0  0  0
  -26.2606  -15.6235   20.0951 H   0  0  0  0  0  0
  -26.7160  -32.5408   23.1142 H   0  0  0  0  0  0
  -24.9983  -33.9742   25.0360 H   0  0  0  0  0  0
  -22.6925  -31.2986   21.4024 H   0  0  0  0  0  0
  -23.3619  -35.9774   23.3279 H   0  0  0  0  0  0
  -24.3489  -36.9050   22.2030 H   0  0  0  0  0  0
  -23.7311  -37.6584   23.6710 H   0  0  0  0  0  0
  -26.0418  -31.5794   20.5809 H   0  0  0  0  0  0
  -26.8238  -30.8769   21.9748 H   0  0  0  0  0  0
  -28.1132  -29.1191   21.1239 H   0  0  0  0  0  0
  -26.0693  -25.9269   19.0651 H   0  0  0  0  0  0
  -23.9854  -27.2348   19.0921 H   0  0  0  0  0  0
  -23.7160  -30.5666   19.4052 H   0  0  0  0  0  0
  -22.7359  -29.2117   19.8872 H   0  0  0  0  0  0
  -25.1221  -36.1884   25.0741 H   0  0  0  0  0  0
  -20.9854  -28.3235   24.1485 H   0  0  0  0  0  0
  -20.5613  -26.2315   23.3595 H   0  0  0  0  0  0
  -21.6602  -26.7454   22.1242 H   0  0  0  0  0  0
  -19.6864  -25.6306   21.1242 H   0  0  0  0  0  0
  -19.6644  -27.3190   20.6739 H   0  0  0  0  0  0
  -17.4146  -26.6655   21.4036 H   0  0  0  0  0  0
  -18.0303  -26.0075   22.9046 H   0  0  0  0  0  0
  -19.7915  -30.7293   24.2224 H   0  0  0  0  0  0
  -17.5015  -31.6262   24.5229 H   0  0  0  0  0  0
  -15.5343  -30.3039   23.7686 H   0  0  0  0  0  0
  -15.8617  -28.0917   22.7008 H   0  0  0  0  0  0
  -24.5953  -30.6943   25.7951 H   0  0  0  0  0  0
  -24.8856  -32.2751   26.5074 H   0  0  0  0  0  0
  -25.8192  -30.8828   27.0250 H   0  0  0  0  0  0
  -26.2872  -29.6718   24.1292 H   0  0  0  0  0  0
  -27.3972  -29.7316   25.4806 H   0  0  0  0  0  0
  -27.8758  -30.4214   23.9493 H   0  0  0  0  0  0
  -27.2674  -33.3601   26.2084 H   0  0  0  0  0  0
  -28.3915  -32.6861   25.0405 H   0  0  0  0  0  0
  -28.0715  -31.8401   26.5454 H   0  0  0  0  0  0
  -28.2537  -38.0113   24.7485 H   0  0  0  0  0  0
  -28.1013  -36.2657   24.6206 H   0  0  0  0  0  0
  -27.2260  -37.1475   25.8826 H   0  0  0  0  0  0
  -20.9328  -29.8771   21.6958 H   0  0  0  0  0  0
  -26.0041  -38.2842   24.1470 H   0  0  0  0  0  0
  -28.6451  -15.4421   20.4731 H   0  0  0  0  0  0
  -31.8807  -19.4058   16.4591 H   0  0  0  0  0  0
  -32.3159  -17.7607   16.8590 H   0  0  0  0  0  0
  -30.3518  -18.5072   18.1568 H   0  0  0  0  0  0
  -31.2476  -19.8727   18.7689 H   0  0  0  0  0  0
  -33.6237  -20.2956   17.9953 H   0  0  0  0  0  0
  -34.3235  -19.2406   16.7886 H   0  0  0  0  0  0
  -31.9390  -16.9352   19.1660 H   0  0  0  0  0  0
  -33.3716  -19.2892   20.4135 H   0  0  0  0  0  0
  -34.3747  -16.4070   20.4618 H   0  0  0  0  0  0
  -33.2482  -16.9130   21.6801 H   0  0  0  0  0  0
  -34.7812  -17.7354   21.5456 H   0  0  0  0  0  0
  -27.7375  -18.6924   22.1323 H   0  0  0  0  0  0
  -27.4680  -16.9571   21.9358 H   0  0  0  0  0  0
  -26.5318  -18.1211   21.0208 H   0  0  0  0  0  0
  -27.2166  -16.5913   19.0887 H   0  0  0  0  0  0
  -28.5859  -17.1729   18.1784 H   0  0  0  0  0  0
  -27.2642  -18.2614   18.5526 H   0  0  0  0  0  0
  -32.4853  -21.9878   24.0483 H   0  0  0  0  0  0
  -33.0852  -21.1649   22.6136 H   0  0  0  0  0  0
  -32.3788  -20.2607   23.9455 H   0  0  0  0  0  0
  -30.8547  -18.6738   24.0986 H   0  0  0  0  0  0
  -30.8808  -17.0977   23.3500 H   0  0  0  0  0  0
  -29.4600  -18.1175   23.2426 H   0  0  0  0  0  0
  -36.2386  -18.9075   18.1441 H   0  0  0  0  0  0
  -36.1462  -18.2160   19.7495 H   0  0  0  0  0  0
  -35.6158  -19.8777   19.4740 H   0  0  0  0  0  0
  -29.3647  -22.5507   20.4758 H   0  0  0  0  0  0
  -28.6743  -23.0483   21.9978 H   0  0  0  0  0  0
  -30.4798  -24.8346   20.2545 H   0  0  0  0  0  0
  -29.8150  -25.2941   21.7936 H   0  0  0  0  0  0
  -31.0066  -23.4552   22.8868 H   0  0  0  0  0  0
  -31.6684  -22.8750   21.3940 H   0  0  0  0  0  0
  -31.0244  -20.5424   20.7071 H   0  0  0  0  0  0
  -29.5292  -20.1980   21.5248 H   0  0  0  0  0  0
  -27.4747  -24.9541   20.7616 H   0  0  0  0  0  0
  -28.2759  -24.8424   19.1952 H   0  0  0  0  0  0
  -28.8519  -18.9041   20.0558 H   0  0  0  0  0  0
  -30.1535  -21.2363   23.4796 H   0  0  0  0  0  0
  -32.1712  -18.8161   22.1278 H   0  0  0  0  0  0
  -34.3406  -17.4885   18.3565 H   0  0  0  0  0  0
  1 25  1  0  0  0
  1 30  2  0  0  0
  1 71  1  0  0  0
  2  3  1  0  0  0
  2 25  1  0  0  0
  2 94  1  0  0  0
  2 95  1  0  0  0
  3  4  1  0  0  0
  3 96  1  0  0  0
  3 97  1  0  0  0
  4  5  1  0  0  0
  4 98  1  0  0  0
  4 99  1  0  0  0
  5  6  1  0  0  0
  5 26  1  0  0  0
  5100  1  0  0  0
  6 25  1  0  0  0
  6101  1  0  0  0
  6102  1  0  0  0
  7  8  2  0  0  0
  7 26  1  0  0  0
  7 29  1  0  0  0
  8  9  1  0  0  0
  8 22  1  0  0  0
  9 10  1  0  0  0
  9 27  2  0  0  0
 10 11  2  0  0  0
 10 15  1  0  0  0
 11 12  1  0  0  0
 11103  1  0  0  0
 12 13  2  0  0  0
 12104  1  0  0  0
 13 14  1  0  0  0
 13 31  1  0  0  0
 14 15  2  0  0  0
 14105  1  0  0  0
 15106  1  0  0  0
 16 17  2  0  0  0
 16 21  1  0  0  0
 16 31  1  0  0  0
 17 18  1  0  0  0
 17107  1  0  0  0
 18 19  2  0  0  0
 18108  1  0  0  0
 19 20  1  0  0  0
 19 24  1  0  0  0
 20 21  2  0  0  0
 20109  1  0  0  0
 21 23  1  0  0  0
 22 28  1  0  0  0
 22 32  2  0  0  0
 26 27  1  0  0  0
 28110  1  0  0  0
 28111  1  0  0  0
 29112  1  0  0  0
 29113  1  0  0  0
 33 34  1  0  0  0
 33 66  1  0  0  0
 33 70  2  0  0  0
 34 36  1  0  0  0
 34 59  1  0  0  0
 34114  1  0  0  0
 35 44  2  0  0  0
 35 45  1  0  0  0
 35 68  1  0  0  0
 36 56  1  0  0  0
 36115  1  0  0  0
 37 39  1  0  0  0
 37 47  1  0  0  0
 37 66  1  0  0  0
 37116  1  0  0  0
 38 43  2  0  0  0
 38 46  1  0  0  0
 38 47  1  0  0  0
 39 64  1  0  0  0
 39 67  2  0  0  0
 40 52  1  0  0  0
 40 53  2  0  0  0
 40 58  1  0  0  0
 41117  1  0  0  0
 41118  1  0  0  0
 41119  1  0  0  0
 41 48  1  0  0  0
 42 43  1  0  0  0
 42 66  1  0  0  0
 42120  1  0  0  0
 42121  1  0  0  0
 43 44  1  0  0  0
 44122  1  0  0  0
 45 46  2  0  0  0
 45123  1  0  0  0
 46124  1  0  0  0
 47125  1  0  0  0
 47126  1  0  0  0
 48 56  1  0  0  0
 48 65  1  0  0  0
 48127  1  0  0  0
 49 50  1  0  0  0
 49 53  1  0  0  0
 49 64  1  0  0  0
 49128  1  0  0  0
 50 51  1  0  0  0
 50129  1  0  0  0
 50130  1  0  0  0
 51 52  1  0  0  0
 51131  1  0  0  0
 51132  1  0  0  0
 52133  1  0  0  0
 52134  1  0  0  0
 53 54  1  0  0  0
 54 55  2  0  0  0
 54135  1  0  0  0
 55 57  1  0  0  0
 55136  1  0  0  0
 56 69  2  0  0  0
 57 58  2  0  0  0
 57137  1  0  0  0
 58138  1  0  0  0
 59 60  1  0  0  0
 59 61  1  0  0  0
 59 62  1  0  0  0
 60139  1  0  0  0
 60140  1  0  0  0
 60141  1  0  0  0
 61142  1  0  0  0
 61143  1  0  0  0
 61144  1  0  0  0
 62145  1  0  0  0
 62146  1  0  0  0
 62147  1  0  0  0
 63 65  1  0  0  0
 63148  1  0  0  0
 63149  1  0  0  0
 63150  1  0  0  0
 64151  1  0  0  0
 65152  1  0  0  0
 68 88  1  0  0  0
 71 72  2  0  0  0
 71153  1  0  0  0
 72 89  1  0  0  0
 72 92  1  0  0  0
 73 74  1  0  0  0
 73 75  1  0  0  0
 73154  1  0  0  0
 73155  1  0  0  0
 74 76  1  0  0  0
 74156  1  0  0  0
 74157  1  0  0  0
 75 93  1  0  0  0
 75158  1  0  0  0
 75159  1  0  0  0
 76 77  1  0  0  0
 76 92  1  0  0  0
 76160  1  0  0  0
 77 78  1  0  0  0
 77 93  1  0  0  0
 77161  1  0  0  0
 78162  1  0  0  0
 78163  1  0  0  0
 78164  1  0  0  0
 79165  1  0  0  0
 79166  1  0  0  0
 79167  1  0  0  0
 79 89  1  0  0  0
 80 89  1  0  0  0
 80168  1  0  0  0
 80169  1  0  0  0
 80170  1  0  0  0
 81171  1  0  0  0
 81172  1  0  0  0
 81173  1  0  0  0
 81 90  1  0  0  0
 82174  1  0  0  0
 82175  1  0  0  0
 82176  1  0  0  0
 82 91  1  0  0  0
 83177  1  0  0  0
 83178  1  0  0  0
 83179  1  0  0  0
 83 93  1  0  0  0
 84 85  1  0  0  0
 84 86  1  0  0  0
 84180  1  0  0  0
 84181  1  0  0  0
 85 88  1  0  0  0
 85182  1  0  0  0
 85183  1  0  0  0
 86 90  1  0  0  0
 86184  1  0  0  0
 86185  1  0  0  0
 87 90  1  0  0  0
 87 91  1  0  0  0
 87186  1  0  0  0
 87187  1  0  0  0
 88188  1  0  0  0
 88189  1  0  0  0
 89190  1  0  0  0
 90191  1  0  0  0
 91 92  1  0  0  0
 91192  1  0  0  0
 93193  1  0  0  0
M  CHG  1  93   1
M  ISO  4   1 100  68 101  71 100  88 101
M  END
> <chiral flag>
0

> <version>
0

> <s_m_source_file>
/data/baiqing/PycharmProjects/Reinvent-master-3.2/result/LINK_invent/BTK/process_docking_weight1_custom_sum_contain_oxygen_bond_distance_aromatic_linkinvent_7_9_3/rearranged_h_0019.sdf

> <i_m_source_file_index>
96

> <r_mmod_Potential_Energy-OPLS-2005>
75.5226058959961

> <r_mmod_Stretch_Energy-OPLS-2005>
55.2016143798828

> <r_mmod_Bend_Energy-OPLS-2005>
162.223693847656

> <r_mmod_Torsional_Energy-OPLS-2005>
307.726165771484

> <r_mmod_Improper_Torsional_Energy-OPLS-2005>
11.2516279220581

> <r_mmod_Van_der_Waal_Energy-OPLS-2005>
148.19970703125

> <r_mmod_Electrostatic_Energy-OPLS-2005>
-257.754455566406

> <r_mmod_Solvation_Energy-OPLS-2005>
-380.328002929688

> <b_mmod_Minimization_Converged-OPLS-2005>
0

> <r_mmod_RMS_Derivative-OPLS-2005>
6.57768678665161

$$$$
