0
                    3D
 Structure written by MMmdl.
178186  0  0  1  0            999 V2000
  -30.6882  -14.4048   20.6429 C   0  0  0  0  0  0
  -30.4362  -12.3014   19.3646 C   0  0  0  0  0  0
  -29.4878  -12.5385   18.1718 C   0  0  0  0  0  0
  -28.0101  -12.3976   18.5943 C   0  0  0  0  0  0
  -27.6750  -13.1923   19.8851 C   0  0  2  0  0  0
  -28.7159  -12.8856   20.9815 C   0  0  0  0  0  0
  -25.2699  -13.8114   20.5657 C   0  0  0  0  0  0
  -24.1959  -13.0445   20.9167 C   0  0  0  0  0  0
  -24.6489  -11.6888   20.8774 C   0  0  0  0  0  0
  -23.9146  -10.4298   21.0455 C   0  0  0  0  0  0
  -24.3666   -9.4193   21.9246 C   0  0  0  0  0  0
  -23.6316   -8.2253   22.0794 C   0  0  0  0  0  0
  -22.4291   -8.0315   21.3570 C   0  0  0  0  0  0
  -21.9956   -9.0321   20.4685 C   0  0  0  0  0  0
  -22.7322  -10.2179   20.3110 C   0  0  0  0  0  0
  -21.6863   -6.0774   22.5280 C   0  0  0  0  0  0
  -21.4006   -6.5655   23.8218 C   0  0  0  0  0  0
  -21.3654   -5.6803   24.9171 C   0  0  0  0  0  0
  -21.6034   -4.3068   24.7212 C   0  0  0  0  0  0
  -21.8829   -3.8175   23.4335 C   0  0  0  0  0  0
  -21.9178   -4.7005   22.3384 C   0  0  0  0  0  0
  -22.7970  -13.5260   21.1785 C   0  0  0  0  0  0
  -22.1662   -4.2190   21.0980 F   0  0  0  0  0  0
  -21.5627   -3.4546   25.7730 F   0  0  0  0  0  0
  -30.0427  -13.2275   20.4392 N   0  0  0  0  0  0
  -26.3131  -12.9261   20.3392 N   0  0  0  0  0  0
  -25.9391  -11.6431   20.5786 N   0  0  0  0  0  0
  -22.0572  -12.8301   22.0311 N   0  0  0  0  0  0
  -25.4412  -15.1848   20.4000 N   0  0  0  0  0  0
  -31.7620  -14.6995   20.1141 O   0  0  0  0  0  0
  -21.6631   -6.8932   21.4255 O   0  0  0  0  0  0
  -22.3676  -14.5593   20.6607 O   0  0  0  0  0  0
  -24.6084  -31.8650   23.2119 C   0  0  0  0  0  0
  -25.8932  -32.4875   23.8448 C   0  0  1  0  0  0
  -27.2325  -27.4226   20.1376 C   0  0  0  0  0  0
  -25.5748  -33.8674   24.2355 N   0  0  0  0  0  0
  -23.4027  -30.4797   21.5576 C   0  0  2  0  0  0
  -24.8570  -28.9587   20.1327 C   0  0  0  0  0  0
  -22.7401  -29.4586   22.5078 C   0  0  0  0  0  0
  -18.0245  -28.1389   22.8528 C   0  0  0  0  0  0
  -24.1502  -36.7334   23.2630 C   0  0  0  0  0  0
  -25.9334  -30.8449   21.3610 C   0  0  0  0  0  0
  -26.0225  -29.4815   20.7064 C   0  0  0  0  0  0
  -27.2209  -28.7285   20.6889 C   0  0  0  0  0  0
  -26.0212  -26.8898   19.6465 C   0  0  0  0  0  0
  -24.8493  -27.6628   19.5972 C   0  0  0  0  0  0
  -23.6057  -29.7992   20.1836 C   0  0  0  0  0  0
  -25.4143  -36.3163   24.0316 C   0  0  1  0  0  0
  -20.5838  -28.3607   23.1407 C   0  0  2  0  0  0
  -20.6788  -26.9337   22.5473 C   0  0  0  0  0  0
  -19.5771  -26.6362   21.5275 C   0  0  0  0  0  0
  -18.1925  -26.7960   22.1599 C   0  0  0  0  0  0
  -19.1495  -28.8839   23.2960 C   0  0  0  0  0  0
  -18.9385  -30.1490   23.8893 C   0  0  0  0  0  0
  -17.6377  -30.6597   24.0560 C   0  0  0  0  0  0
  -25.9009  -34.9496   23.5155 C   0  0  0  0  0  0
  -16.5268  -29.9061   23.6383 C   0  0  0  0  0  0
  -16.7231  -28.6506   23.0371 C   0  0  0  0  0  0
  -26.4353  -31.6681   25.0768 C   0  0  0  0  0  0
  -25.3531  -31.3733   26.1441 C   0  0  0  0  0  0
  -27.0279  -30.3149   24.6236 C   0  0  0  0  0  0
  -27.6006  -32.4410   25.7432 C   0  0  0  0  0  0
  -27.5639  -37.1790   24.8435 C   0  0  0  0  0  0
  -21.4140  -29.2934   22.3823 N   0  0  0  0  0  0
  -26.4377  -37.3820   23.9369 N   0  0  0  0  0  0
  -24.6654  -31.0779   22.1010 N   0  0  0  0  0  0
  -23.4160  -28.8062   23.3078 O   0  0  0  0  0  0
  -28.3977  -26.6798   20.1241 O   0  0  0  0  0  0
  -26.5591  -34.8907   22.4732 O   0  0  0  0  0  0
  -23.5264  -32.1344   23.7525 O   0  0  0  0  0  0
  -28.6009  -23.5611   20.4563 C   0  0  0  0  0  0
  -28.2508  -24.2709   19.3360 C   0  0  0  0  0  0
  -27.6513  -23.3279   18.4262 C   0  0  0  0  0  0
  -27.6048  -22.1021   19.0706 C   0  0  0  0  0  0
  -28.3638  -24.0602   16.0692 C   0  0  0  0  0  0
  -25.9934  -24.5634   16.8619 C   0  0  0  0  0  0
  -27.7748  -20.1284   17.4705 C   0  0  0  0  0  0
  -25.5016  -20.8547   18.3994 C   0  0  0  0  0  0
  -31.6439  -19.2563   21.9428 C   0  0  0  0  0  0
  -28.5743  -25.7404   19.0477 C   0  0  0  0  0  0
  -28.6184  -21.1317   21.2271 C   0  0  0  0  0  0
  -30.4392  -16.5700   21.9291 C   0  0  0  0  0  0
  -29.7852  -20.2417   20.7074 C   0  0  0  0  0  0
  -29.8126  -17.7600   21.1376 C   0  0  0  0  0  0
  -27.2028  -23.6152   16.9863 C   0  0  0  0  0  0
  -27.0174  -20.7709   18.6434 C   0  0  0  0  0  0
  -28.2798  -22.2215   20.2838 N   0  0  0  0  0  0
  -30.0169  -15.2544   21.4395 N   0  0  0  0  0  0
  -30.2012  -19.1288   21.6209 N   0  3  1  0  0  0
  -31.4737  -12.4359   19.0509 H   0  0  0  0  0  0
  -30.3584  -11.2681   19.7046 H   0  0  0  0  0  0
  -29.7082  -11.8362   17.3655 H   0  0  0  0  0  0
  -29.6577  -13.5346   17.7573 H   0  0  0  0  0  0
  -27.8100  -11.3372   18.7510 H   0  0  0  0  0  0
  -27.3546  -12.7148   17.7828 H   0  0  0  0  0  0
  -27.7468  -14.2534   19.6462 H   0  0  0  0  0  0
  -28.6973  -11.8246   21.2383 H   0  0  0  0  0  0
  -28.4733  -13.3977   21.9118 H   0  0  0  0  0  0
  -25.2829   -9.5623   22.4812 H   0  0  0  0  0  0
  -24.0001   -7.4629   22.7527 H   0  0  0  0  0  0
  -21.0871   -8.8911   19.8989 H   0  0  0  0  0  0
  -22.3855  -10.9753   19.6214 H   0  0  0  0  0  0
  -21.2011   -7.6170   23.9733 H   0  0  0  0  0  0
  -21.1455   -6.0531   25.9076 H   0  0  0  0  0  0
  -22.0605   -2.7637   23.2819 H   0  0  0  0  0  0
  -22.4164  -11.9959   22.4726 H   0  0  0  0  0  0
  -21.1201  -13.1364   22.2479 H   0  0  0  0  0  0
  -24.6622  -15.8291   20.4866 H   0  0  0  0  0  0
  -26.2770  -15.6187   20.0284 H   0  0  0  0  0  0
  -26.6991  -32.5648   23.1246 H   0  0  0  0  0  0
  -24.9924  -33.9879   25.0500 H   0  0  0  0  0  0
  -22.6899  -31.2932   21.4164 H   0  0  0  0  0  0
  -23.3826  -35.9605   23.3337 H   0  0  0  0  0  0
  -24.3576  -36.8938   22.2028 H   0  0  0  0  0  0
  -23.7197  -37.6505   23.6665 H   0  0  0  0  0  0
  -26.0526  -31.6182   20.6003 H   0  0  0  0  0  0
  -26.8126  -30.9025   21.9931 H   0  0  0  0  0  0
  -28.1298  -29.1414   21.1067 H   0  0  0  0  0  0
  -25.9493  -25.8523   19.3592 H   0  0  0  0  0  0
  -23.9362  -27.2365   19.2093 H   0  0  0  0  0  0
  -23.6569  -30.5496   19.3955 H   0  0  0  0  0  0
  -22.7549  -29.1608   19.9414 H   0  0  0  0  0  0
  -25.1350  -36.2086   25.0816 H   0  0  0  0  0  0
  -20.9929  -28.3188   24.1522 H   0  0  0  0  0  0
  -20.5825  -26.2092   23.3583 H   0  0  0  0  0  0
  -21.6617  -26.7484   22.1133 H   0  0  0  0  0  0
  -19.6897  -25.6282   21.1285 H   0  0  0  0  0  0
  -19.6838  -27.3194   20.6854 H   0  0  0  0  0  0
  -17.4200  -26.6775   21.3963 H   0  0  0  0  0  0
  -18.0238  -26.0110   22.8991 H   0  0  0  0  0  0
  -19.7841  -30.7409   24.2159 H   0  0  0  0  0  0
  -17.4874  -31.6271   24.5161 H   0  0  0  0  0  0
  -15.5247  -30.2884   23.7845 H   0  0  0  0  0  0
  -15.8634  -28.0872   22.7025 H   0  0  0  0  0  0
  -24.5796  -30.7034   25.7663 H   0  0  0  0  0  0
  -24.8505  -32.2785   26.4835 H   0  0  0  0  0  0
  -25.7686  -30.8876   27.0265 H   0  0  0  0  0  0
  -26.2895  -29.6821   24.1277 H   0  0  0  0  0  0
  -27.4030  -29.7522   25.4811 H   0  0  0  0  0  0
  -27.8718  -30.4569   23.9483 H   0  0  0  0  0  0
  -27.2803  -33.3830   26.1936 H   0  0  0  0  0  0
  -28.3726  -32.6794   25.0084 H   0  0  0  0  0  0
  -28.0760  -31.8533   26.5310 H   0  0  0  0  0  0
  -28.2624  -38.0134   24.7630 H   0  0  0  0  0  0
  -28.1188  -36.2658   24.6199 H   0  0  0  0  0  0
  -27.2289  -37.1335   25.8811 H   0  0  0  0  0  0
  -20.9274  -29.8528   21.6974 H   0  0  0  0  0  0
  -26.0319  -38.2911   24.1416 H   0  0  0  0  0  0
  -29.1129  -23.8976   21.3480 H   0  0  0  0  0  0
  -29.1583  -23.3119   16.0318 H   0  0  0  0  0  0
  -28.8140  -25.0060   16.3685 H   0  0  0  0  0  0
  -28.0027  -24.1981   15.0479 H   0  0  0  0  0  0
  -25.0973  -24.1538   17.3289 H   0  0  0  0  0  0
  -25.7477  -24.7348   15.8146 H   0  0  0  0  0  0
  -26.1681  -25.5475   17.2810 H   0  0  0  0  0  0
  -28.8211  -19.9501   17.7112 H   0  0  0  0  0  0
  -27.7666  -20.7451   16.5752 H   0  0  0  0  0  0
  -27.3418  -19.1669   17.2057 H   0  0  0  0  0  0
  -24.9830  -21.2969   19.2529 H   0  0  0  0  0  0
  -25.0761  -19.8633   18.2407 H   0  0  0  0  0  0
  -25.2649  -21.4615   17.5271 H   0  0  0  0  0  0
  -31.8537  -20.2579   22.3140 H   0  0  0  0  0  0
  -32.2649  -19.0856   21.0610 H   0  0  0  0  0  0
  -31.9600  -18.5838   22.7367 H   0  0  0  0  0  0
  -28.0183  -26.0801   18.1804 H   0  0  0  0  0  0
  -29.6168  -25.7936   18.7362 H   0  0  0  0  0  0
  -28.8880  -21.5711   22.1874 H   0  0  0  0  0  0
  -27.7285  -20.5371   21.4342 H   0  0  0  0  0  0
  -30.1541  -16.6244   22.9818 H   0  0  0  0  0  0
  -31.5289  -16.6022   21.9051 H   0  0  0  0  0  0
  -30.6326  -20.9084   20.5414 H   0  0  0  0  0  0
  -29.5792  -19.8399   19.7218 H   0  0  0  0  0  0
  -28.7243  -17.6847   21.1870 H   0  0  0  0  0  0
  -30.0773  -17.6527   20.0856 H   0  0  0  0  0  0
  -26.8580  -22.6758   16.5669 H   0  0  0  0  0  0
  -27.1044  -20.0467   19.4509 H   0  0  0  0  0  0
  -29.1395  -14.8964   21.7850 H   0  0  0  0  0  0
  -29.7173  -19.2677   22.4976 H   0  0  0  0  0  0
  1 25  1  0  0  0
  1 30  2  0  0  0
  1 88  1  0  0  0
  2  3  1  0  0  0
  2 25  1  0  0  0
  2 90  1  0  0  0
  2 91  1  0  0  0
  3  4  1  0  0  0
  3 92  1  0  0  0
  3 93  1  0  0  0
  4  5  1  0  0  0
  4 94  1  0  0  0
  4 95  1  0  0  0
  5  6  1  0  0  0
  5 26  1  0  0  0
  5 96  1  0  0  0
  6 25  1  0  0  0
  6 97  1  0  0  0
  6 98  1  0  0  0
  7  8  2  0  0  0
  7 26  1  0  0  0
  7 29  1  0  0  0
  8  9  1  0  0  0
  8 22  1  0  0  0
  9 10  1  0  0  0
  9 27  2  0  0  0
 10 11  2  0  0  0
 10 15  1  0  0  0
 11 12  1  0  0  0
 11 99  1  0  0  0
 12 13  2  0  0  0
 12100  1  0  0  0
 13 14  1  0  0  0
 13 31  1  0  0  0
 14 15  2  0  0  0
 14101  1  0  0  0
 15102  1  0  0  0
 16 17  2  0  0  0
 16 21  1  0  0  0
 16 31  1  0  0  0
 17 18  1  0  0  0
 17103  1  0  0  0
 18 19  2  0  0  0
 18104  1  0  0  0
 19 20  1  0  0  0
 19 24  1  0  0  0
 20 21  2  0  0  0
 20105  1  0  0  0
 21 23  1  0  0  0
 22 28  1  0  0  0
 22 32  2  0  0  0
 26 27  1  0  0  0
 28106  1  0  0  0
 28107  1  0  0  0
 29108  1  0  0  0
 29109  1  0  0  0
 33 34  1  0  0  0
 33 66  1  0  0  0
 33 70  2  0  0  0
 34 36  1  0  0  0
 34 59  1  0  0  0
 34110  1  0  0  0
 35 44  2  0  0  0
 35 45  1  0  0  0
 35 68  1  0  0  0
 36 56  1  0  0  0
 36111  1  0  0  0
 37 39  1  0  0  0
 37 47  1  0  0  0
 37 66  1  0  0  0
 37112  1  0  0  0
 38 43  2  0  0  0
 38 46  1  0  0  0
 38 47  1  0  0  0
 39 64  1  0  0  0
 39 67  2  0  0  0
 40 52  1  0  0  0
 40 53  2  0  0  0
 40 58  1  0  0  0
 41113  1  0  0  0
 41114  1  0  0  0
 41115  1  0  0  0
 41 48  1  0  0  0
 42 43  1  0  0  0
 42 66  1  0  0  0
 42116  1  0  0  0
 42117  1  0  0  0
 43 44  1  0  0  0
 44118  1  0  0  0
 45 46  2  0  0  0
 45119  1  0  0  0
 46120  1  0  0  0
 47121  1  0  0  0
 47122  1  0  0  0
 48 56  1  0  0  0
 48 65  1  0  0  0
 48123  1  0  0  0
 49 50  1  0  0  0
 49 53  1  0  0  0
 49 64  1  0  0  0
 49124  1  0  0  0
 50 51  1  0  0  0
 50125  1  0  0  0
 50126  1  0  0  0
 51 52  1  0  0  0
 51127  1  0  0  0
 51128  1  0  0  0
 52129  1  0  0  0
 52130  1  0  0  0
 53 54  1  0  0  0
 54 55  2  0  0  0
 54131  1  0  0  0
 55 57  1  0  0  0
 55132  1  0  0  0
 56 69  2  0  0  0
 57 58  2  0  0  0
 57133  1  0  0  0
 58134  1  0  0  0
 59 60  1  0  0  0
 59 61  1  0  0  0
 59 62  1  0  0  0
 60135  1  0  0  0
 60136  1  0  0  0
 60137  1  0  0  0
 61138  1  0  0  0
 61139  1  0  0  0
 61140  1  0  0  0
 62141  1  0  0  0
 62142  1  0  0  0
 62143  1  0  0  0
 63 65  1  0  0  0
 63144  1  0  0  0
 63145  1  0  0  0
 63146  1  0  0  0
 64147  1  0  0  0
 65148  1  0  0  0
 68 80  1  0  0  0
 71 72  2  0  0  0
 71 87  1  0  0  0
 71149  1  0  0  0
 72 73  1  0  0  0
 72 80  1  0  0  0
 73 74  2  0  0  0
 73 85  1  0  0  0
 74 86  1  0  0  0
 74 87  1  0  0  0
 75150  1  0  0  0
 75151  1  0  0  0
 75152  1  0  0  0
 75 85  1  0  0  0
 76 85  1  0  0  0
 76153  1  0  0  0
 76154  1  0  0  0
 76155  1  0  0  0
 77156  1  0  0  0
 77157  1  0  0  0
 77158  1  0  0  0
 77 86  1  0  0  0
 78 86  1  0  0  0
 78159  1  0  0  0
 78160  1  0  0  0
 78161  1  0  0  0
 79162  1  0  0  0
 79163  1  0  0  0
 79164  1  0  0  0
 79 89  1  0  0  0
 80165  1  0  0  0
 80166  1  0  0  0
 81 83  1  0  0  0
 81 87  1  0  0  0
 81167  1  0  0  0
 81168  1  0  0  0
 82 84  1  0  0  0
 82 88  1  0  0  0
 82169  1  0  0  0
 82170  1  0  0  0
 83 89  1  0  0  0
 83171  1  0  0  0
 83172  1  0  0  0
 84 89  1  0  0  0
 84173  1  0  0  0
 84174  1  0  0  0
 85175  1  0  0  0
 86176  1  0  0  0
 88177  1  0  0  0
 89178  1  0  0  0
M  CHG  1  89   1
M  ISO  4   1 100  68 101  80 101  88 100
M  END
> <chiral flag>
0

> <version>
0

> <s_m_source_file>
/data/baiqing/PycharmProjects/Reinvent-master-3.2/result/LINK_invent/BTK/process_docking_weight1_custom_sum_contain_oxygen_bond_distance_aromatic_linkinvent_7_9_3/rearranged_h_0095.sdf

> <i_m_source_file_index>
1

> <r_mmod_Potential_Energy-OPLS-2005>
-226.141174316406

> <r_mmod_Stretch_Energy-OPLS-2005>
44.6106109619141

> <r_mmod_Bend_Energy-OPLS-2005>
115.623458862305

> <r_mmod_Torsional_Energy-OPLS-2005>
246.338638305664

> <r_mmod_Improper_Torsional_Energy-OPLS-2005>
3.44647288322449

> <r_mmod_Van_der_Waal_Energy-OPLS-2005>
139.991668701172

> <r_mmod_Electrostatic_Energy-OPLS-2005>
-327.253143310547

> <r_mmod_Solvation_Energy-OPLS-2005>
-463.555999755859

> <b_mmod_Minimization_Converged-OPLS-2005>
0

> <r_mmod_RMS_Derivative-OPLS-2005>
7.44367456436157

$$$$
1
                    3D
 Structure written by MMmdl.
169177  0  0  1  0            999 V2000
  -30.7358  -14.3357   20.6964 C   0  0  0  0  0  0
  -30.4274  -12.2679   19.3784 C   0  0  0  0  0  0
  -29.4878  -12.5300   18.1863 C   0  0  0  0  0  0
  -28.0071  -12.3887   18.5955 C   0  0  0  0  0  0
  -27.6757  -13.1875   19.8838 C   0  0  2  0  0  0
  -28.7108  -12.8711   20.9836 C   0  0  0  0  0  0
  -25.2701  -13.8118   20.5655 C   0  0  0  0  0  0
  -24.1918  -13.0435   20.9149 C   0  0  0  0  0  0
  -24.6436  -11.6892   20.8740 C   0  0  0  0  0  0
  -23.9093  -10.4293   21.0423 C   0  0  0  0  0  0
  -24.3639   -9.4193   21.9201 C   0  0  0  0  0  0
  -23.6296   -8.2240   22.0762 C   0  0  0  0  0  0
  -22.4282   -8.0294   21.3545 C   0  0  0  0  0  0
  -21.9925   -9.0275   20.4651 C   0  0  0  0  0  0
  -22.7269  -10.2138   20.3064 C   0  0  0  0  0  0
  -21.6854   -6.0746   22.5269 C   0  0  0  0  0  0
  -21.4029   -6.5650   23.8210 C   0  0  0  0  0  0
  -21.3654   -5.6796   24.9163 C   0  0  0  0  0  0
  -21.6041   -4.3061   24.7204 C   0  0  0  0  0  0
  -21.8831   -3.8154   23.4333 C   0  0  0  0  0  0
  -21.9196   -4.6976   22.3391 C   0  0  0  0  0  0
  -22.7941  -13.5243   21.1788 C   0  0  0  0  0  0
  -22.1666   -4.2164   21.0970 F   0  0  0  0  0  0
  -21.5608   -3.4543   25.7717 F   0  0  0  0  0  0
  -30.0579  -13.1860   20.4613 N   0  0  0  0  0  0
  -26.3109  -12.9256   20.3367 N   0  0  0  0  0  0
  -25.9347  -11.6432   20.5750 N   0  0  0  0  0  0
  -22.0571  -12.8243   22.0338 N   0  0  0  0  0  0
  -25.4474  -15.1828   20.4059 N   0  0  0  0  0  0
  -31.7481  -14.6854   20.0793 O   0  0  0  0  0  0
  -21.6645   -6.8883   21.4236 O   0  0  0  0  0  0
  -22.3641  -14.5557   20.6632 O   0  0  0  0  0  0
  -24.6137  -31.8716   23.2116 C   0  0  0  0  0  0
  -25.9052  -32.4819   23.8401 C   0  0  1  0  0  0
  -27.2234  -27.4772   20.0768 C   0  0  0  0  0  0
  -25.5898  -33.8614   24.2321 N   0  0  0  0  0  0
  -23.3953  -30.4997   21.5532 C   0  0  2  0  0  0
  -24.8376  -28.9719   20.1064 C   0  0  0  0  0  0
  -22.7385  -29.4720   22.5044 C   0  0  0  0  0  0
  -18.0253  -28.1358   22.8457 C   0  0  0  0  0  0
  -24.1486  -36.7359   23.2640 C   0  0  0  0  0  0
  -25.9229  -30.8488   21.3564 C   0  0  0  0  0  0
  -25.9987  -29.4890   20.6968 C   0  0  0  0  0  0
  -27.1964  -28.7456   20.6831 C   0  0  0  0  0  0
  -26.0558  -26.9635   19.4744 C   0  0  0  0  0  0
  -24.8612  -27.7039   19.4928 C   0  0  0  0  0  0
  -23.5958  -29.8344   20.1655 C   0  0  0  0  0  0
  -25.4098  -36.3116   24.0316 C   0  0  1  0  0  0
  -20.5865  -28.3641   23.1336 C   0  0  2  0  0  0
  -20.6757  -26.9393   22.5434 C   0  0  0  0  0  0
  -19.5731  -26.6373   21.5236 C   0  0  0  0  0  0
  -18.1894  -26.7887   22.1620 C   0  0  0  0  0  0
  -19.1526  -28.8797   23.2868 C   0  0  0  0  0  0
  -18.9456  -30.1407   23.8872 C   0  0  0  0  0  0
  -17.6475  -30.6560   24.0544 C   0  0  0  0  0  0
  -25.9045  -34.9476   23.5123 C   0  0  0  0  0  0
  -16.5349  -29.9059   23.6342 C   0  0  0  0  0  0
  -16.7244  -28.6496   23.0322 C   0  0  0  0  0  0
  -26.4443  -31.6626   25.0754 C   0  0  0  0  0  0
  -25.3681  -31.3703   26.1494 C   0  0  0  0  0  0
  -27.0285  -30.3073   24.6144 C   0  0  0  0  0  0
  -27.6018  -32.4372   25.7500 C   0  0  0  0  0  0
  -27.5556  -37.1797   24.8433 C   0  0  0  0  0  0
  -21.4139  -29.3034   22.3766 N   0  0  0  0  0  0
  -26.4283  -37.3811   23.9389 N   0  0  0  0  0  0
  -24.6636  -31.0855   22.0992 N   0  0  0  0  0  0
  -23.4166  -28.8318   23.3119 O   0  0  0  0  0  0
  -28.3606  -26.7195   20.1166 O   0  0  0  0  0  0
  -26.5634  -34.8915   22.4708 O   0  0  0  0  0  0
  -23.5358  -32.1508   23.7535 O   0  0  0  0  0  0
  -29.9091  -19.9090   21.0813 C   0  0  0  0  0  0
  -29.3520  -18.7363   21.5136 C   0  0  0  0  0  0
  -28.6948  -20.3708   22.8881 C   0  0  0  0  0  0
  -28.8798  -20.8360   25.3520 C   0  0  0  0  0  0
  -26.5963  -20.5491   24.2922 C   0  0  0  0  0  0
  -28.4460  -24.0000   19.1074 C   0  0  0  0  0  0
  -29.4549  -17.3405   21.0061 C   0  0  0  0  0  0
  -28.6285  -23.2066   21.5006 C   0  0  0  0  0  0
  -29.8440  -22.3137   21.7999 C   0  0  0  0  0  0
  -30.3986  -16.5032   21.8876 C   0  0  0  0  0  0
  -28.2306  -25.6404   21.0396 C   0  0  0  0  0  0
  -28.0435  -21.0296   24.0788 C   0  0  0  0  0  0
  -28.9134  -24.3650   20.5261 C   0  0  2  0  0  0
  -29.4823  -20.8975   21.9300 N   0  0  0  0  0  0
  -28.6159  -19.0633   22.6234 N   0  3  0  0  0  0
  -30.1805  -15.0885   21.6472 N   0  0  0  0  0  0
  -31.4717  -12.3836   19.0809 H   0  0  0  0  0  0
  -30.3280  -11.2377   19.7221 H   0  0  0  0  0  0
  -29.7137  -11.8452   17.3680 H   0  0  0  0  0  0
  -29.6604  -13.5361   17.8016 H   0  0  0  0  0  0
  -27.7947  -11.3299   18.7458 H   0  0  0  0  0  0
  -27.3618  -12.7127   17.7784 H   0  0  0  0  0  0
  -27.7476  -14.2466   19.6373 H   0  0  0  0  0  0
  -28.6773  -11.8090   21.2337 H   0  0  0  0  0  0
  -28.4507  -13.3786   21.9127 H   0  0  0  0  0  0
  -25.2789   -9.5647   22.4776 H   0  0  0  0  0  0
  -23.9997   -7.4625   22.7479 H   0  0  0  0  0  0
  -21.0854   -8.8807   19.8955 H   0  0  0  0  0  0
  -22.3754  -10.9688   19.6171 H   0  0  0  0  0  0
  -21.2058   -7.6169   23.9708 H   0  0  0  0  0  0
  -21.1452   -6.0530   25.9055 H   0  0  0  0  0  0
  -22.0625   -2.7616   23.2822 H   0  0  0  0  0  0
  -22.4175  -11.9887   22.4715 H   0  0  0  0  0  0
  -21.1190  -13.1271   22.2514 H   0  0  0  0  0  0
  -24.6848  -15.8430   20.5098 H   0  0  0  0  0  0
  -26.2949  -15.6073   20.0499 H   0  0  0  0  0  0
  -26.7127  -32.5536   23.1168 H   0  0  0  0  0  0
  -24.9965  -33.9738   25.0408 H   0  0  0  0  0  0
  -22.6864  -31.3189   21.4220 H   0  0  0  0  0  0
  -23.3726  -35.9723   23.3325 H   0  0  0  0  0  0
  -24.3577  -36.8997   22.2056 H   0  0  0  0  0  0
  -23.7315  -37.6577   23.6697 H   0  0  0  0  0  0
  -26.0359  -31.6190   20.5917 H   0  0  0  0  0  0
  -26.8123  -30.8954   21.9722 H   0  0  0  0  0  0
  -28.0922  -29.1267   21.1522 H   0  0  0  0  0  0
  -26.0739  -25.9862   19.0120 H   0  0  0  0  0  0
  -23.9715  -27.2988   19.0336 H   0  0  0  0  0  0
  -23.6890  -30.6112   19.4057 H   0  0  0  0  0  0
  -22.7177  -29.2523   19.8801 H   0  0  0  0  0  0
  -25.1295  -36.1984   25.0813 H   0  0  0  0  0  0
  -20.9892  -28.3186   24.1478 H   0  0  0  0  0  0
  -20.5694  -26.2224   23.3610 H   0  0  0  0  0  0
  -21.6606  -26.7463   22.1181 H   0  0  0  0  0  0
  -19.6939  -25.6296   21.1240 H   0  0  0  0  0  0
  -19.6674  -27.3205   20.6792 H   0  0  0  0  0  0
  -17.4183  -26.6645   21.4008 H   0  0  0  0  0  0
  -18.0221  -26.0027   22.9002 H   0  0  0  0  0  0
  -19.7962  -30.7191   24.2224 H   0  0  0  0  0  0
  -17.5055  -31.6227   24.5162 H   0  0  0  0  0  0
  -15.5361  -30.2927   23.7679 H   0  0  0  0  0  0
  -15.8659  -28.0807   22.7015 H   0  0  0  0  0  0
  -24.5827  -30.7098   25.7813 H   0  0  0  0  0  0
  -24.8878  -32.2808   26.5082 H   0  0  0  0  0  0
  -25.7995  -30.8776   27.0215 H   0  0  0  0  0  0
  -26.2795  -29.6746   24.1355 H   0  0  0  0  0  0
  -27.4205  -29.7435   25.4624 H   0  0  0  0  0  0
  -27.8562  -30.4420   23.9189 H   0  0  0  0  0  0
  -27.2685  -33.3693   26.2106 H   0  0  0  0  0  0
  -28.3780  -32.6955   25.0277 H   0  0  0  0  0  0
  -28.0748  -31.8508   26.5394 H   0  0  0  0  0  0
  -28.2558  -38.0098   24.7497 H   0  0  0  0  0  0
  -28.1070  -36.2637   24.6245 H   0  0  0  0  0  0
  -27.2260  -37.1448   25.8829 H   0  0  0  0  0  0
  -20.9310  -29.8775   21.7001 H   0  0  0  0  0  0
  -26.0163  -38.2892   24.1391 H   0  0  0  0  0  0
  -30.5634  -20.1095   20.2433 H   0  0  0  0  0  0
  -29.8787  -21.2628   25.2476 H   0  0  0  0  0  0
  -28.9989  -19.7822   25.5992 H   0  0  0  0  0  0
  -28.4060  -21.3204   26.2056 H   0  0  0  0  0  0
  -25.9874  -20.7119   23.4010 H   0  0  0  0  0  0
  -26.1231  -21.0967   25.1088 H   0  0  0  0  0  0
  -26.5475  -19.4883   24.5414 H   0  0  0  0  0  0
  -28.9595  -23.1117   18.7380 H   0  0  0  0  0  0
  -28.6464  -24.8095   18.4066 H   0  0  0  0  0  0
  -27.3727  -23.8002   19.0814 H   0  0  0  0  0  0
  -29.8039  -17.3520   19.9730 H   0  0  0  0  0  0
  -28.4527  -16.9097   20.9775 H   0  0  0  0  0  0
  -28.2796  -23.6186   22.4460 H   0  0  0  0  0  0
  -27.7887  -22.6105   21.1337 H   0  0  0  0  0  0
  -30.3558  -22.6288   22.7090 H   0  0  0  0  0  0
  -30.5724  -22.3856   20.9934 H   0  0  0  0  0  0
  -30.1902  -16.6808   22.9444 H   0  0  0  0  0  0
  -31.4364  -16.7951   21.7219 H   0  0  0  0  0  0
  -28.6805  -25.9453   21.9864 H   0  0  0  0  0  0
  -27.1879  -25.4118   21.2756 H   0  0  0  0  0  0
  -28.0024  -22.0937   23.8701 H   0  0  0  0  0  0
  -29.9852  -24.5666   20.4894 H   0  0  0  0  0  0
  -28.0701  -18.4150   23.1778 H   0  0  0  0  0  0
  -29.3903  -14.6694   22.1172 H   0  0  0  0  0  0
  1 25  1  0  0  0
  1 30  2  0  0  0
  1 86  1  0  0  0
  2  3  1  0  0  0
  2 25  1  0  0  0
  2 87  1  0  0  0
  2 88  1  0  0  0
  3  4  1  0  0  0
  3 89  1  0  0  0
  3 90  1  0  0  0
  4  5  1  0  0  0
  4 91  1  0  0  0
  4 92  1  0  0  0
  5  6  1  0  0  0
  5 26  1  0  0  0
  5 93  1  0  0  0
  6 25  1  0  0  0
  6 94  1  0  0  0
  6 95  1  0  0  0
  7  8  2  0  0  0
  7 26  1  0  0  0
  7 29  1  0  0  0
  8  9  1  0  0  0
  8 22  1  0  0  0
  9 10  1  0  0  0
  9 27  2  0  0  0
 10 11  2  0  0  0
 10 15  1  0  0  0
 11 12  1  0  0  0
 11 96  1  0  0  0
 12 13  2  0  0  0
 12 97  1  0  0  0
 13 14  1  0  0  0
 13 31  1  0  0  0
 14 15  2  0  0  0
 14 98  1  0  0  0
 15 99  1  0  0  0
 16 17  2  0  0  0
 16 21  1  0  0  0
 16 31  1  0  0  0
 17 18  1  0  0  0
 17100  1  0  0  0
 18 19  2  0  0  0
 18101  1  0  0  0
 19 20  1  0  0  0
 19 24  1  0  0  0
 20 21  2  0  0  0
 20102  1  0  0  0
 21 23  1  0  0  0
 22 28  1  0  0  0
 22 32  2  0  0  0
 26 27  1  0  0  0
 28103  1  0  0  0
 28104  1  0  0  0
 29105  1  0  0  0
 29106  1  0  0  0
 33 34  1  0  0  0
 33 66  1  0  0  0
 33 70  2  0  0  0
 34 36  1  0  0  0
 34 59  1  0  0  0
 34107  1  0  0  0
 35 44  2  0  0  0
 35 45  1  0  0  0
 35 68  1  0  0  0
 36 56  1  0  0  0
 36108  1  0  0  0
 37 39  1  0  0  0
 37 47  1  0  0  0
 37 66  1  0  0  0
 37109  1  0  0  0
 38 43  2  0  0  0
 38 46  1  0  0  0
 38 47  1  0  0  0
 39 64  1  0  0  0
 39 67  2  0  0  0
 40 52  1  0  0  0
 40 53  2  0  0  0
 40 58  1  0  0  0
 41110  1  0  0  0
 41111  1  0  0  0
 41112  1  0  0  0
 41 48  1  0  0  0
 42 43  1  0  0  0
 42 66  1  0  0  0
 42113  1  0  0  0
 42114  1  0  0  0
 43 44  1  0  0  0
 44115  1  0  0  0
 45 46  2  0  0  0
 45116  1  0  0  0
 46117  1  0  0  0
 47118  1  0  0  0
 47119  1  0  0  0
 48 56  1  0  0  0
 48 65  1  0  0  0
 48120  1  0  0  0
 49 50  1  0  0  0
 49 53  1  0  0  0
 49 64  1  0  0  0
 49121  1  0  0  0
 50 51  1  0  0  0
 50122  1  0  0  0
 50123  1  0  0  0
 51 52  1  0  0  0
 51124  1  0  0  0
 51125  1  0  0  0
 52126  1  0  0  0
 52127  1  0  0  0
 53 54  1  0  0  0
 54 55  2  0  0  0
 54128  1  0  0  0
 55 57  1  0  0  0
 55129  1  0  0  0
 56 69  2  0  0  0
 57 58  2  0  0  0
 57130  1  0  0  0
 58131  1  0  0  0
 59 60  1  0  0  0
 59 61  1  0  0  0
 59 62  1  0  0  0
 60132  1  0  0  0
 60133  1  0  0  0
 60134  1  0  0  0
 61135  1  0  0  0
 61136  1  0  0  0
 61137  1  0  0  0
 62138  1  0  0  0
 62139  1  0  0  0
 62140  1  0  0  0
 63 65  1  0  0  0
 63141  1  0  0  0
 63142  1  0  0  0
 63143  1  0  0  0
 64144  1  0  0  0
 65145  1  0  0  0
 68 81  1  0  0  0
 71 72  2  0  0  0
 71 84  1  0  0  0
 71146  1  0  0  0
 72 77  1  0  0  0
 72 85  1  0  0  0
 73 82  1  0  0  0
 73 84  1  0  0  0
 73 85  2  0  0  0
 74147  1  0  0  0
 74148  1  0  0  0
 74149  1  0  0  0
 74 82  1  0  0  0
 75 82  1  0  0  0
 75150  1  0  0  0
 75151  1  0  0  0
 75152  1  0  0  0
 76153  1  0  0  0
 76154  1  0  0  0
 76155  1  0  0  0
 76 83  1  0  0  0
 77 80  1  0  0  0
 77156  1  0  0  0
 77157  1  0  0  0
 78 79  1  0  0  0
 78 83  1  0  0  0
 78158  1  0  0  0
 78159  1  0  0  0
 79 84  1  0  0  0
 79160  1  0  0  0
 79161  1  0  0  0
 80 86  1  0  0  0
 80162  1  0  0  0
 80163  1  0  0  0
 81 83  1  0  0  0
 81164  1  0  0  0
 81165  1  0  0  0
 82166  1  0  0  0
 83167  1  0  0  0
 85168  1  0  0  0
 86169  1  0  0  0
M  CHG  1  85   1
M  ISO  4   1 100  68 101  81 101  86 100
M  END
> <chiral flag>
0

> <version>
0

> <s_m_source_file>
/data/baiqing/PycharmProjects/Reinvent-master-3.2/result/LINK_invent/BTK/process_docking_weight1_custom_sum_contain_oxygen_bond_distance_aromatic_linkinvent_7_9_3/rearranged_h_0095.sdf

> <i_m_source_file_index>
2

> <r_mmod_Potential_Energy-OPLS-2005>
-83.8756866455078

> <r_mmod_Stretch_Energy-OPLS-2005>
29.9817314147949

> <r_mmod_Bend_Energy-OPLS-2005>
89.9387969970703

> <r_mmod_Torsional_Energy-OPLS-2005>
268.831909179688

> <r_mmod_Improper_Torsional_Energy-OPLS-2005>
2.68405222892761

> <r_mmod_Van_der_Waal_Energy-OPLS-2005>
131.423629760742

> <r_mmod_Electrostatic_Energy-OPLS-2005>
-200.069290161133

> <r_mmod_Solvation_Energy-OPLS-2005>
-416.030853271484

> <b_mmod_Minimization_Converged-OPLS-2005>
0

> <r_mmod_RMS_Derivative-OPLS-2005>
4.53806209564209

$$$$
2
                    3D
 Structure written by MMmdl.
175183  0  0  1  0            999 V2000
  -30.6402  -14.7467   20.4652 C   0  0  0  0  0  0
  -30.4253  -12.4563   19.4956 C   0  0  0  0  0  0
  -29.5068  -12.5003   18.2572 C   0  0  0  0  0  0
  -28.0354  -12.3253   18.6680 C   0  0  0  0  0  0
  -27.6386  -13.2374   19.8609 C   0  0  2  0  0  0
  -28.6805  -13.1934   20.9991 C   0  0  0  0  0  0
  -25.2459  -13.8214   20.5730 C   0  0  0  0  0  0
  -24.1736  -13.0463   20.9214 C   0  0  0  0  0  0
  -24.6332  -11.6948   20.8757 C   0  0  0  0  0  0
  -23.9020  -10.4304   21.0389 C   0  0  0  0  0  0
  -24.3580   -9.4214   21.9171 C   0  0  0  0  0  0
  -23.6243   -8.2241   22.0740 C   0  0  0  0  0  0
  -22.4246   -8.0250   21.3533 C   0  0  0  0  0  0
  -21.9884   -9.0219   20.4625 C   0  0  0  0  0  0
  -22.7184  -10.2118   20.3014 C   0  0  0  0  0  0
  -21.6863   -6.0671   22.5239 C   0  0  0  0  0  0
  -21.4021   -6.5602   23.8179 C   0  0  0  0  0  0
  -21.3679   -5.6777   24.9145 C   0  0  0  0  0  0
  -21.6048   -4.3021   24.7221 C   0  0  0  0  0  0
  -21.8823   -3.8107   23.4366 C   0  0  0  0  0  0
  -21.9197   -4.6910   22.3398 C   0  0  0  0  0  0
  -22.7769  -13.5245   21.1864 C   0  0  0  0  0  0
  -22.1653   -4.2083   21.0977 F   0  0  0  0  0  0
  -21.5658   -3.4521   25.7756 F   0  0  0  0  0  0
  -29.9834  -13.5338   20.4166 N   0  0  0  0  0  0
  -26.2900  -12.9441   20.3340 N   0  0  0  0  0  0
  -25.9275  -11.6594   20.5796 N   0  0  0  0  0  0
  -22.0414  -12.8213   22.0418 N   0  0  0  0  0  0
  -25.4160  -15.1916   20.4109 N   0  0  0  0  0  0
  -31.8306  -14.7888   20.1393 O   0  0  0  0  0  0
  -21.6644   -6.8817   21.4194 O   0  0  0  0  0  0
  -22.3454  -14.5530   20.6685 O   0  0  0  0  0  0
  -24.6333  -31.8484   23.2032 C   0  0  0  0  0  0
  -25.9180  -32.4672   23.8387 C   0  0  1  0  0  0
  -27.2271  -27.2728   20.1534 C   0  0  0  0  0  0
  -25.5989  -33.8490   24.2264 N   0  0  0  0  0  0
  -23.4300  -30.4791   21.5382 C   0  0  2  0  0  0
  -24.8797  -28.9208   20.1169 C   0  0  0  0  0  0
  -22.7491  -29.4633   22.4865 C   0  0  0  0  0  0
  -18.0268  -28.1370   22.8441 C   0  0  0  0  0  0
  -24.1495  -36.7227   23.2648 C   0  0  0  0  0  0
  -25.9742  -30.7745   21.3796 C   0  0  0  0  0  0
  -26.0475  -29.3988   20.7251 C   0  0  0  0  0  0
  -27.2285  -28.5882   20.7250 C   0  0  0  0  0  0
  -26.0387  -26.8509   19.5342 C   0  0  0  0  0  0
  -24.8784  -27.6544   19.5120 C   0  0  0  0  0  0
  -23.6485  -29.8053   20.1581 C   0  0  0  0  0  0
  -25.4117  -36.2982   24.0319 C   0  0  1  0  0  0
  -20.5878  -28.3703   23.1213 C   0  0  2  0  0  0
  -20.6753  -26.9401   22.5382 C   0  0  0  0  0  0
  -19.5745  -26.6371   21.5167 C   0  0  0  0  0  0
  -18.1911  -26.7904   22.1566 C   0  0  0  0  0  0
  -19.1509  -28.8849   23.2821 C   0  0  0  0  0  0
  -18.9428  -30.1431   23.8886 C   0  0  0  0  0  0
  -17.6450  -30.6572   24.0542 C   0  0  0  0  0  0
  -25.9079  -34.9368   23.5077 C   0  0  0  0  0  0
  -16.5335  -29.9050   23.6370 C   0  0  0  0  0  0
  -16.7240  -28.6476   23.0393 C   0  0  0  0  0  0
  -26.4579  -31.6508   25.0772 C   0  0  0  0  0  0
  -25.3826  -31.3620   26.1504 C   0  0  0  0  0  0
  -27.0507  -30.2930   24.6314 C   0  0  0  0  0  0
  -27.6131  -32.4299   25.7483 C   0  0  0  0  0  0
  -27.5569  -37.1752   24.8459 C   0  0  0  0  0  0
  -21.4187  -29.3061   22.3599 N   0  0  0  0  0  0
  -26.4267  -37.3719   23.9445 N   0  0  0  0  0  0
  -24.6943  -31.0570   22.0927 N   0  0  0  0  0  0
  -23.4155  -28.8154   23.2978 O   0  0  0  0  0  0
  -28.3345  -26.4014   20.1199 O   0  0  0  0  0  0
  -26.5612  -34.8828   22.4622 O   0  0  0  0  0  0
  -23.5502  -32.1258   23.7361 O   0  0  0  0  0  0
  -29.3683  -19.7896   19.8500 C   0  0  0  0  0  0
  -30.0908  -20.8053   21.6419 C   0  0  0  0  0  0
  -29.4942  -21.1134   20.4517 C   0  0  0  0  0  0
  -29.9870  -18.7671   20.5888 C   0  0  0  0  0  0
  -29.1378  -16.1962   24.5778 C   0  0  0  0  0  0
  -32.3181  -19.5760   25.2113 C   0  0  0  0  0  0
  -30.6193  -23.3545   19.8479 C   0  0  0  0  0  0
  -32.8226  -18.7703   22.1971 C   0  0  0  0  0  0
  -30.4337  -17.2976   20.1271 C   0  0  0  0  0  0
  -29.4838  -17.5372   23.9166 C   0  0  0  0  0  0
  -31.5088  -19.9677   23.9659 C   0  0  0  0  0  0
  -30.9282  -17.5711   23.3780 C   0  0  0  0  0  0
  -28.1100  -23.6042   20.4075 C   0  0  0  0  0  0
  -28.3193  -25.1382   20.9262 C   0  0  0  0  0  0
  -29.2740  -22.6062   19.8773 C   0  0  2  0  0  0
  -31.3995  -18.9344   22.7949 C   0  0  2  0  0  0
  -30.4768  -19.4472   21.7333 N   0  0  0  0  0  0
  -29.9301  -15.9332   20.6203 N   0  0  0  0  0  0
  -31.4649  -12.5709   19.1852 H   0  0  0  0  0  0
  -30.3749  -11.4854   19.9937 H   0  0  0  0  0  0
  -29.7936  -11.7271   17.5433 H   0  0  0  0  0  0
  -29.6277  -13.4557   17.7443 H   0  0  0  0  0  0
  -27.8897  -11.2776   18.9357 H   0  0  0  0  0  0
  -27.3756  -12.5086   17.8183 H   0  0  0  0  0  0
  -27.6297  -14.2578   19.4754 H   0  0  0  0  0  0
  -28.7108  -12.2009   21.4521 H   0  0  0  0  0  0
  -28.4141  -13.8900   21.7969 H   0  0  0  0  0  0
  -25.2724   -9.5722   22.4750 H   0  0  0  0  0  0
  -23.9963   -7.4655   22.7486 H   0  0  0  0  0  0
  -21.0820   -8.8694   19.8947 H   0  0  0  0  0  0
  -22.3594  -10.9635   19.6116 H   0  0  0  0  0  0
  -21.1986   -7.6106   23.9663 H   0  0  0  0  0  0
  -21.1521   -6.0504   25.9056 H   0  0  0  0  0  0
  -22.0594   -2.7553   23.2878 H   0  0  0  0  0  0
  -22.4054  -11.9863   22.4802 H   0  0  0  0  0  0
  -21.1005  -13.1190   22.2579 H   0  0  0  0  0  0
  -24.6630  -15.8572   20.5408 H   0  0  0  0  0  0
  -26.2681  -15.6254   20.0826 H   0  0  0  0  0  0
  -26.7240  -32.5347   23.1137 H   0  0  0  0  0  0
  -25.0301  -33.9637   25.0527 H   0  0  0  0  0  0
  -22.7310  -31.3051   21.3920 H   0  0  0  0  0  0
  -23.3763  -35.9546   23.3226 H   0  0  0  0  0  0
  -24.3628  -36.8920   22.2084 H   0  0  0  0  0  0
  -23.7197  -37.6382   23.6735 H   0  0  0  0  0  0
  -26.1305  -31.5421   20.6190 H   0  0  0  0  0  0
  -26.8439  -30.8095   22.0253 H   0  0  0  0  0  0
  -28.1294  -28.9634   21.1894 H   0  0  0  0  0  0
  -26.0094  -25.8762   19.0668 H   0  0  0  0  0  0
  -23.9840  -27.2863   19.0289 H   0  0  0  0  0  0
  -23.7535  -30.5747   19.3902 H   0  0  0  0  0  0
  -22.7740  -29.2248   19.8657 H   0  0  0  0  0  0
  -25.1271  -36.1812   25.0796 H   0  0  0  0  0  0
  -20.9957  -28.3266   24.1338 H   0  0  0  0  0  0
  -20.5581  -26.2310   23.3576 H   0  0  0  0  0  0
  -21.6615  -26.7369   22.1209 H   0  0  0  0  0  0
  -19.6904  -25.6281   21.1190 H   0  0  0  0  0  0
  -19.6690  -27.3169   20.6674 H   0  0  0  0  0  0
  -17.4174  -26.6619   21.3966 H   0  0  0  0  0  0
  -18.0327  -26.0032   22.8948 H   0  0  0  0  0  0
  -19.7922  -30.7202   24.2259 H   0  0  0  0  0  0
  -17.5021  -31.6266   24.5084 H   0  0  0  0  0  0
  -15.5340  -30.2957   23.7745 H   0  0  0  0  0  0
  -15.8617  -28.0774   22.7199 H   0  0  0  0  0  0
  -24.6082  -30.6829   25.7888 H   0  0  0  0  0  0
  -24.8956  -32.2745   26.4955 H   0  0  0  0  0  0
  -25.8223  -30.8856   27.0275 H   0  0  0  0  0  0
  -26.3152  -29.6558   24.1384 H   0  0  0  0  0  0
  -27.4215  -29.7275   25.4885 H   0  0  0  0  0  0
  -27.8965  -30.4210   23.9555 H   0  0  0  0  0  0
  -27.2770  -33.3667   26.1943 H   0  0  0  0  0  0
  -28.3963  -32.6735   25.0281 H   0  0  0  0  0  0
  -28.0764  -31.8498   26.5478 H   0  0  0  0  0  0
  -28.2495  -38.0155   24.7634 H   0  0  0  0  0  0
  -28.1131  -36.2672   24.6084 H   0  0  0  0  0  0
  -27.2317  -37.1155   25.8869 H   0  0  0  0  0  0
  -20.9343  -29.8740   21.6763 H   0  0  0  0  0  0
  -26.0073  -38.2720   24.1590 H   0  0  0  0  0  0
  -28.9795  -19.6231   18.8535 H   0  0  0  0  0  0
  -30.3858  -21.5261   22.3864 H   0  0  0  0  0  0
  -28.1149  -16.2035   24.9577 H   0  0  0  0  0  0
  -29.7996  -15.9932   25.4203 H   0  0  0  0  0  0
  -29.2321  -15.3708   23.8715 H   0  0  0  0  0  0
  -32.3168  -20.4048   25.9193 H   0  0  0  0  0  0
  -33.3570  -19.3543   24.9684 H   0  0  0  0  0  0
  -31.8958  -18.7232   25.7380 H   0  0  0  0  0  0
  -31.3771  -22.8111   19.2836 H   0  0  0  0  0  0
  -31.0150  -23.5150   20.8496 H   0  0  0  0  0  0
  -30.5178  -24.3280   19.3662 H   0  0  0  0  0  0
  -33.3528  -17.9267   22.6384 H   0  0  0  0  0  0
  -33.4424  -19.6506   22.3654 H   0  0  0  0  0  0
  -32.8278  -18.6254   21.1200 H   0  0  0  0  0  0
  -31.5149  -17.2583   20.2102 H   0  0  0  0  0  0
  -30.2902  -17.2580   19.0481 H   0  0  0  0  0  0
  -29.3406  -18.3278   24.6527 H   0  0  0  0  0  0
  -28.7746  -17.7415   23.1148 H   0  0  0  0  0  0
  -31.9779  -20.8815   23.5955 H   0  0  0  0  0  0
  -30.5093  -20.2520   24.2953 H   0  0  0  0  0  0
  -31.0616  -16.7837   22.6491 H   0  0  0  0  0  0
  -31.6075  -17.2574   24.1666 H   0  0  0  0  0  0
  -27.2930  -23.6073   19.6869 H   0  0  0  0  0  0
  -27.6749  -23.0780   21.2567 H   0  0  0  0  0  0
  -29.2365  -25.1520   21.5175 H   0  0  0  0  0  0
  -27.5517  -25.2995   21.6841 H   0  0  0  0  0  0
  -29.0359  -22.4452   18.8243 H   0  0  0  0  0  0
  -28.9572  -15.8591   20.8783 H   0  0  0  0  0  0
  1 25  1  0  0  0
  1 30  2  0  0  0
  1 88  1  0  0  0
  2  3  1  0  0  0
  2 25  1  0  0  0
  2 89  1  0  0  0
  2 90  1  0  0  0
  3  4  1  0  0  0
  3 91  1  0  0  0
  3 92  1  0  0  0
  4  5  1  0  0  0
  4 93  1  0  0  0
  4 94  1  0  0  0
  5  6  1  0  0  0
  5 26  1  0  0  0
  5 95  1  0  0  0
  6 25  1  0  0  0
  6 96  1  0  0  0
  6 97  1  0  0  0
  7  8  2  0  0  0
  7 26  1  0  0  0
  7 29  1  0  0  0
  8  9  1  0  0  0
  8 22  1  0  0  0
  9 10  1  0  0  0
  9 27  2  0  0  0
 10 11  2  0  0  0
 10 15  1  0  0  0
 11 12  1  0  0  0
 11 98  1  0  0  0
 12 13  2  0  0  0
 12 99  1  0  0  0
 13 14  1  0  0  0
 13 31  1  0  0  0
 14 15  2  0  0  0
 14100  1  0  0  0
 15101  1  0  0  0
 16 17  2  0  0  0
 16 21  1  0  0  0
 16 31  1  0  0  0
 17 18  1  0  0  0
 17102  1  0  0  0
 18 19  2  0  0  0
 18103  1  0  0  0
 19 20  1  0  0  0
 19 24  1  0  0  0
 20 21  2  0  0  0
 20104  1  0  0  0
 21 23  1  0  0  0
 22 28  1  0  0  0
 22 32  2  0  0  0
 26 27  1  0  0  0
 28105  1  0  0  0
 28106  1  0  0  0
 29107  1  0  0  0
 29108  1  0  0  0
 33 34  1  0  0  0
 33 66  1  0  0  0
 33 70  2  0  0  0
 34 36  1  0  0  0
 34 59  1  0  0  0
 34109  1  0  0  0
 35 44  2  0  0  0
 35 45  1  0  0  0
 35 68  1  0  0  0
 36 56  1  0  0  0
 36110  1  0  0  0
 37 39  1  0  0  0
 37 47  1  0  0  0
 37 66  1  0  0  0
 37111  1  0  0  0
 38 43  2  0  0  0
 38 46  1  0  0  0
 38 47  1  0  0  0
 39 64  1  0  0  0
 39 67  2  0  0  0
 40 52  1  0  0  0
 40 53  2  0  0  0
 40 58  1  0  0  0
 41112  1  0  0  0
 41113  1  0  0  0
 41114  1  0  0  0
 41 48  1  0  0  0
 42 43  1  0  0  0
 42 66  1  0  0  0
 42115  1  0  0  0
 42116  1  0  0  0
 43 44  1  0  0  0
 44117  1  0  0  0
 45 46  2  0  0  0
 45118  1  0  0  0
 46119  1  0  0  0
 47120  1  0  0  0
 47121  1  0  0  0
 48 56  1  0  0  0
 48 65  1  0  0  0
 48122  1  0  0  0
 49 50  1  0  0  0
 49 53  1  0  0  0
 49 64  1  0  0  0
 49123  1  0  0  0
 50 51  1  0  0  0
 50124  1  0  0  0
 50125  1  0  0  0
 51 52  1  0  0  0
 51126  1  0  0  0
 51127  1  0  0  0
 52128  1  0  0  0
 52129  1  0  0  0
 53 54  1  0  0  0
 54 55  2  0  0  0
 54130  1  0  0  0
 55 57  1  0  0  0
 55131  1  0  0  0
 56 69  2  0  0  0
 57 58  2  0  0  0
 57132  1  0  0  0
 58133  1  0  0  0
 59 60  1  0  0  0
 59 61  1  0  0  0
 59 62  1  0  0  0
 60134  1  0  0  0
 60135  1  0  0  0
 60136  1  0  0  0
 61137  1  0  0  0
 61138  1  0  0  0
 61139  1  0  0  0
 62140  1  0  0  0
 62141  1  0  0  0
 62142  1  0  0  0
 63 65  1  0  0  0
 63143  1  0  0  0
 63144  1  0  0  0
 63145  1  0  0  0
 64146  1  0  0  0
 65147  1  0  0  0
 68 84  1  0  0  0
 71 73  1  0  0  0
 71 74  2  0  0  0
 71148  1  0  0  0
 72 73  2  0  0  0
 72 87  1  0  0  0
 72149  1  0  0  0
 73 85  1  0  0  0
 74 79  1  0  0  0
 74 87  1  0  0  0
 75 80  1  0  0  0
 75150  1  0  0  0
 75151  1  0  0  0
 75152  1  0  0  0
 76 81  1  0  0  0
 76153  1  0  0  0
 76154  1  0  0  0
 76155  1  0  0  0
 77156  1  0  0  0
 77157  1  0  0  0
 77158  1  0  0  0
 77 85  1  0  0  0
 78159  1  0  0  0
 78160  1  0  0  0
 78161  1  0  0  0
 78 86  1  0  0  0
 79 88  1  0  0  0
 79162  1  0  0  0
 79163  1  0  0  0
 80 82  1  0  0  0
 80164  1  0  0  0
 80165  1  0  0  0
 81 86  1  0  0  0
 81166  1  0  0  0
 81167  1  0  0  0
 82 86  1  0  0  0
 82168  1  0  0  0
 82169  1  0  0  0
 83 84  1  0  0  0
 83 85  1  0  0  0
 83170  1  0  0  0
 83171  1  0  0  0
 84172  1  0  0  0
 84173  1  0  0  0
 85174  1  0  0  0
 86 87  1  0  0  0
 88175  1  0  0  0
M  ISO  4   1 100  68 101  84 101  88 100
M  END
> <chiral flag>
0

> <version>
0

> <s_m_source_file>
/data/baiqing/PycharmProjects/Reinvent-master-3.2/result/LINK_invent/BTK/process_docking_weight1_custom_sum_contain_oxygen_bond_distance_aromatic_linkinvent_7_9_3/rearranged_h_0095.sdf

> <i_m_source_file_index>
3

> <r_mmod_Potential_Energy-OPLS-2005>
276.301696777344

> <r_mmod_Stretch_Energy-OPLS-2005>
140.507095336914

> <r_mmod_Bend_Energy-OPLS-2005>
237.55615234375

> <r_mmod_Torsional_Energy-OPLS-2005>
318.725799560547

> <r_mmod_Improper_Torsional_Energy-OPLS-2005>
11.2916564941406

> <r_mmod_Van_der_Waal_Energy-OPLS-2005>
126.30778503418

> <r_mmod_Electrostatic_Energy-OPLS-2005>
-452.450531005859

> <r_mmod_Solvation_Energy-OPLS-2005>
-186.2861328125

> <b_mmod_Minimization_Converged-OPLS-2005>
0

> <r_mmod_RMS_Derivative-OPLS-2005>
5.63344430923462

$$$$
3
                    3D
 Structure written by MMmdl.
172180  0  0  1  0            999 V2000
  -30.7518  -14.3728   20.6447 C   0  0  0  0  0  0
  -30.4315  -12.2753   19.4076 C   0  0  0  0  0  0
  -29.5034  -12.5154   18.2012 C   0  0  0  0  0  0
  -28.0215  -12.3853   18.6056 C   0  0  0  0  0  0
  -27.6752  -13.1979   19.8823 C   0  0  2  0  0  0
  -28.7119  -12.9325   20.9996 C   0  0  0  0  0  0
  -25.2672  -13.8134   20.5658 C   0  0  0  0  0  0
  -24.1912  -13.0462   20.9208 C   0  0  0  0  0  0
  -24.6434  -11.6907   20.8744 C   0  0  0  0  0  0
  -23.9083  -10.4292   21.0403 C   0  0  0  0  0  0
  -24.3629   -9.4206   21.9172 C   0  0  0  0  0  0
  -23.6294   -8.2251   22.0759 C   0  0  0  0  0  0
  -22.4276   -8.0288   21.3555 C   0  0  0  0  0  0
  -21.9914   -9.0270   20.4650 C   0  0  0  0  0  0
  -22.7247  -10.2138   20.3046 C   0  0  0  0  0  0
  -21.6857   -6.0741   22.5279 C   0  0  0  0  0  0
  -21.4025   -6.5652   23.8206 C   0  0  0  0  0  0
  -21.3644   -5.6794   24.9163 C   0  0  0  0  0  0
  -21.6036   -4.3059   24.7220 C   0  0  0  0  0  0
  -21.8815   -3.8153   23.4337 C   0  0  0  0  0  0
  -21.9197   -4.6968   22.3400 C   0  0  0  0  0  0
  -22.7920  -13.5257   21.1810 C   0  0  0  0  0  0
  -22.1659   -4.2162   21.0978 F   0  0  0  0  0  0
  -21.5610   -3.4538   25.7728 F   0  0  0  0  0  0
  -30.0579  -13.2207   20.4693 N   0  0  0  0  0  0
  -26.3092  -12.9299   20.3330 N   0  0  0  0  0  0
  -25.9358  -11.6462   20.5736 N   0  0  0  0  0  0
  -22.0506  -12.8287   22.0336 N   0  0  0  0  0  0
  -25.4452  -15.1855   20.3952 N   0  0  0  0  0  0
  -31.7911  -14.6425   20.0366 O   0  0  0  0  0  0
  -21.6642   -6.8892   21.4240 O   0  0  0  0  0  0
  -22.3656  -14.5559   20.6594 O   0  0  0  0  0  0
  -24.6045  -31.8704   23.2133 C   0  0  0  0  0  0
  -25.8950  -32.4863   23.8417 C   0  0  1  0  0  0
  -27.2432  -27.4802   20.0804 C   0  0  0  0  0  0
  -25.5836  -33.8679   24.2341 N   0  0  0  0  0  0
  -23.3903  -30.4945   21.5520 C   0  0  2  0  0  0
  -24.8346  -28.9559   20.1236 C   0  0  0  0  0  0
  -22.7364  -29.4677   22.5021 C   0  0  0  0  0  0
  -18.0281  -28.1376   22.8545 C   0  0  0  0  0  0
  -24.1477  -36.7315   23.2658 C   0  0  0  0  0  0
  -25.9131  -30.8459   21.3598 C   0  0  0  0  0  0
  -25.9905  -29.4818   20.7135 C   0  0  0  0  0  0
  -27.1900  -28.7482   20.6920 C   0  0  0  0  0  0
  -26.0670  -26.9426   19.5107 C   0  0  0  0  0  0
  -24.8639  -27.6792   19.5306 C   0  0  0  0  0  0
  -23.5971  -29.8232   20.1669 C   0  0  0  0  0  0
  -25.4100  -36.3135   24.0351 C   0  0  1  0  0  0
  -20.5848  -28.3639   23.1371 C   0  0  2  0  0  0
  -20.6755  -26.9386   22.5439 C   0  0  0  0  0  0
  -19.5739  -26.6375   21.5236 C   0  0  0  0  0  0
  -18.1920  -26.7954   22.1632 C   0  0  0  0  0  0
  -19.1523  -28.8818   23.2961 C   0  0  0  0  0  0
  -18.9472  -30.1440   23.8942 C   0  0  0  0  0  0
  -17.6485  -30.6598   24.0584 C   0  0  0  0  0  0
  -25.9011  -34.9523   23.5130 C   0  0  0  0  0  0
  -16.5366  -29.9116   23.6344 C   0  0  0  0  0  0
  -16.7264  -28.6517   23.0366 C   0  0  0  0  0  0
  -26.4429  -31.6666   25.0773 C   0  0  0  0  0  0
  -25.3761  -31.3783   26.1591 C   0  0  0  0  0  0
  -27.0250  -30.3151   24.6038 C   0  0  0  0  0  0
  -27.5994  -32.4412   25.7534 C   0  0  0  0  0  0
  -27.5583  -37.1799   24.8471 C   0  0  0  0  0  0
  -21.4087  -29.3026   22.3798 N   0  0  0  0  0  0
  -26.4282  -37.3815   23.9444 N   0  0  0  0  0  0
  -24.6548  -31.0866   22.1005 N   0  0  0  0  0  0
  -23.4177  -28.8231   23.3031 O   0  0  0  0  0  0
  -28.4744  -26.8731   20.0143 O   0  0  0  0  0  0
  -26.5585  -34.8945   22.4704 O   0  0  0  0  0  0
  -23.5252  -32.1424   23.7562 O   0  0  0  0  0  0
  -30.8203  -19.5502   20.8196 C   0  0  0  0  0  0
  -28.8730  -20.1484   21.7141 C   0  0  0  0  0  0
  -29.6926  -19.0637   21.5425 C   0  0  0  0  0  0
  -30.5919  -20.8385   20.4329 C   0  0  0  0  0  0
  -31.9973  -20.8466   18.3735 C   0  0  0  0  0  0
  -32.6101  -22.3508   20.2794 C   0  0  0  0  0  0
  -28.9873  -25.9388   22.5654 C   0  0  0  0  0  0
  -29.1837  -23.5895   21.6962 C   0  0  0  0  0  0
  -28.6504  -22.4694   20.7907 C   0  0  0  0  0  0
  -30.5448  -16.6787   21.4726 C   0  0  0  0  0  0
  -28.5953  -25.4622   20.0745 C   0  0  0  0  0  0
  -29.4157  -17.6264   21.9563 C   0  0  2  0  0  0
  -31.4421  -21.6918   19.5315 C   0  0  0  0  0  0
  -28.4548  -24.9371   21.5213 C   0  0  2  0  0  0
  -29.3675  -21.2145   20.9813 N   0  0  0  0  0  0
  -30.1871  -15.2584   21.4735 N   0  0  0  0  0  0
  -28.1108  -17.2397   21.3954 N   0  3  0  0  0  0
  -31.4751  -12.3801   19.1048 H   0  0  0  0  0  0
  -30.3371  -11.2530   19.7756 H   0  0  0  0  0  0
  -29.7412  -11.8109   17.4035 H   0  0  0  0  0  0
  -29.6845  -13.5111   17.7961 H   0  0  0  0  0  0
  -27.8059  -11.3281   18.7625 H   0  0  0  0  0  0
  -27.3851  -12.7024   17.7781 H   0  0  0  0  0  0
  -27.7401  -14.2527   19.6166 H   0  0  0  0  0  0
  -28.6696  -11.8869   21.3105 H   0  0  0  0  0  0
  -28.4690  -13.5067   21.8937 H   0  0  0  0  0  0
  -25.2790   -9.5674   22.4723 H   0  0  0  0  0  0
  -24.0002   -7.4652   22.7490 H   0  0  0  0  0  0
  -21.0840   -8.8787   19.8961 H   0  0  0  0  0  0
  -22.3721  -10.9673   19.6141 H   0  0  0  0  0  0
  -21.2028   -7.6163   23.9715 H   0  0  0  0  0  0
  -21.1452   -6.0529   25.9070 H   0  0  0  0  0  0
  -22.0600   -2.7622   23.2833 H   0  0  0  0  0  0
  -22.4095  -11.9994   22.4836 H   0  0  0  0  0  0
  -21.1090  -13.1293   22.2393 H   0  0  0  0  0  0
  -24.5861  -15.7236   20.3733 H   0  0  0  0  0  0
  -26.0652  -15.4589   19.6450 H   0  0  0  0  0  0
  -26.7041  -32.5583   23.1201 H   0  0  0  0  0  0
  -25.0070  -33.9879   25.0532 H   0  0  0  0  0  0
  -22.6758  -31.3067   21.4114 H   0  0  0  0  0  0
  -23.3751  -35.9635   23.3315 H   0  0  0  0  0  0
  -24.3587  -36.8918   22.2069 H   0  0  0  0  0  0
  -23.7194  -37.6508   23.6680 H   0  0  0  0  0  0
  -26.0133  -31.6061   20.5841 H   0  0  0  0  0  0
  -26.8082  -30.9095   21.9677 H   0  0  0  0  0  0
  -28.0896  -29.1532   21.1352 H   0  0  0  0  0  0
  -26.0662  -25.9813   19.0179 H   0  0  0  0  0  0
  -23.9726  -27.2638   19.0825 H   0  0  0  0  0  0
  -23.7075  -30.5975   19.4059 H   0  0  0  0  0  0
  -22.7180  -29.2462   19.8697 H   0  0  0  0  0  0
  -25.1250  -36.2012   25.0839 H   0  0  0  0  0  0
  -20.9955  -28.3157   24.1468 H   0  0  0  0  0  0
  -20.5689  -26.2200   23.3601 H   0  0  0  0  0  0
  -21.6624  -26.7441   22.1204 H   0  0  0  0  0  0
  -19.6912  -25.6287   21.1258 H   0  0  0  0  0  0
  -19.6728  -27.3200   20.6797 H   0  0  0  0  0  0
  -17.4200  -26.6749   21.4027 H   0  0  0  0  0  0
  -18.0295  -26.0093   22.8996 H   0  0  0  0  0  0
  -19.7944  -30.7265   24.2308 H   0  0  0  0  0  0
  -17.5037  -31.6299   24.5156 H   0  0  0  0  0  0
  -15.5371  -30.3027   23.7659 H   0  0  0  0  0  0
  -15.8654  -28.0859   22.7042 H   0  0  0  0  0  0
  -24.5882  -30.7142   25.8022 H   0  0  0  0  0  0
  -24.9034  -32.2965   26.5090 H   0  0  0  0  0  0
  -25.8195  -30.8979   27.0311 H   0  0  0  0  0  0
  -26.2731  -29.6982   24.1100 H   0  0  0  0  0  0
  -27.4103  -29.7324   25.4394 H   0  0  0  0  0  0
  -27.8539  -30.4571   23.9102 H   0  0  0  0  0  0
  -27.2559  -33.3675   26.2141 H   0  0  0  0  0  0
  -28.3801  -32.7020   25.0395 H   0  0  0  0  0  0
  -28.0681  -31.8561   26.5441 H   0  0  0  0  0  0
  -28.2562  -38.0126   24.7520 H   0  0  0  0  0  0
  -28.1069  -36.2638   24.6236 H   0  0  0  0  0  0
  -27.2302  -37.1371   25.8870 H   0  0  0  0  0  0
  -20.9187  -29.8798   21.7112 H   0  0  0  0  0  0
  -26.0157  -38.2885   24.1471 H   0  0  0  0  0  0
  -31.6915  -18.9844   20.5171 H   0  0  0  0  0  0
  -27.9220  -20.2361   22.2224 H   0  0  0  0  0  0
  -31.1877  -20.3627   17.8246 H   0  0  0  0  0  0
  -32.6639  -20.0614   18.7354 H   0  0  0  0  0  0
  -32.5642  -21.4527   17.6674 H   0  0  0  0  0  0
  -32.2692  -22.9862   21.0939 H   0  0  0  0  0  0
  -33.2002  -22.9746   19.6075 H   0  0  0  0  0  0
  -33.2786  -21.6019   20.7062 H   0  0  0  0  0  0
  -28.8960  -25.5393   23.5755 H   0  0  0  0  0  0
  -28.4267  -26.8729   22.5477 H   0  0  0  0  0  0
  -30.0344  -26.1814   22.3910 H   0  0  0  0  0  0
  -30.2425  -23.7452   21.5007 H   0  0  0  0  0  0
  -29.1149  -23.2681   22.7353 H   0  0  0  0  0  0
  -28.7077  -22.7435   19.7395 H   0  0  0  0  0  0
  -27.5905  -22.3020   20.9955 H   0  0  0  0  0  0
  -31.4660  -16.8441   22.0337 H   0  0  0  0  0  0
  -30.7735  -16.9376   20.4360 H   0  0  0  0  0  0
  -27.9181  -24.9518   19.3902 H   0  0  0  0  0  0
  -29.5997  -25.2450   19.7045 H   0  0  0  0  0  0
  -29.3447  -17.5761   23.0444 H   0  0  0  0  0  0
  -30.8356  -22.4818   19.0897 H   0  0  0  0  0  0
  -27.3925  -24.7914   21.7278 H   0  0  0  0  0  0
  -29.4386  -14.9330   22.0630 H   0  0  0  0  0  0
  -28.1683  -17.2216   20.3925 H   0  0  0  0  0  0
  -27.4340  -17.9322   21.6567 H   0  0  0  0  0  0
  -27.7850  -16.3547   21.7364 H   0  0  0  0  0  0
  1 25  1  0  0  0
  1 30  2  0  0  0
  1 86  1  0  0  0
  2  3  1  0  0  0
  2 25  1  0  0  0
  2 88  1  0  0  0
  2 89  1  0  0  0
  3  4  1  0  0  0
  3 90  1  0  0  0
  3 91  1  0  0  0
  4  5  1  0  0  0
  4 92  1  0  0  0
  4 93  1  0  0  0
  5  6  1  0  0  0
  5 26  1  0  0  0
  5 94  1  0  0  0
  6 25  1  0  0  0
  6 95  1  0  0  0
  6 96  1  0  0  0
  7  8  2  0  0  0
  7 26  1  0  0  0
  7 29  1  0  0  0
  8  9  1  0  0  0
  8 22  1  0  0  0
  9 10  1  0  0  0
  9 27  2  0  0  0
 10 11  2  0  0  0
 10 15  1  0  0  0
 11 12  1  0  0  0
 11 97  1  0  0  0
 12 13  2  0  0  0
 12 98  1  0  0  0
 13 14  1  0  0  0
 13 31  1  0  0  0
 14 15  2  0  0  0
 14 99  1  0  0  0
 15100  1  0  0  0
 16 17  2  0  0  0
 16 21  1  0  0  0
 16 31  1  0  0  0
 17 18  1  0  0  0
 17101  1  0  0  0
 18 19  2  0  0  0
 18102  1  0  0  0
 19 20  1  0  0  0
 19 24  1  0  0  0
 20 21  2  0  0  0
 20103  1  0  0  0
 21 23  1  0  0  0
 22 28  1  0  0  0
 22 32  2  0  0  0
 26 27  1  0  0  0
 28104  1  0  0  0
 28105  1  0  0  0
 29106  1  0  0  0
 29107  1  0  0  0
 33 34  1  0  0  0
 33 66  1  0  0  0
 33 70  2  0  0  0
 34 36  1  0  0  0
 34 59  1  0  0  0
 34108  1  0  0  0
 35 44  2  0  0  0
 35 45  1  0  0  0
 35 68  1  0  0  0
 36 56  1  0  0  0
 36109  1  0  0  0
 37 39  1  0  0  0
 37 47  1  0  0  0
 37 66  1  0  0  0
 37110  1  0  0  0
 38 43  2  0  0  0
 38 46  1  0  0  0
 38 47  1  0  0  0
 39 64  1  0  0  0
 39 67  2  0  0  0
 40 52  1  0  0  0
 40 53  2  0  0  0
 40 58  1  0  0  0
 41111  1  0  0  0
 41112  1  0  0  0
 41113  1  0  0  0
 41 48  1  0  0  0
 42 43  1  0  0  0
 42 66  1  0  0  0
 42114  1  0  0  0
 42115  1  0  0  0
 43 44  1  0  0  0
 44116  1  0  0  0
 45 46  2  0  0  0
 45117  1  0  0  0
 46118  1  0  0  0
 47119  1  0  0  0
 47120  1  0  0  0
 48 56  1  0  0  0
 48 65  1  0  0  0
 48121  1  0  0  0
 49 50  1  0  0  0
 49 53  1  0  0  0
 49 64  1  0  0  0
 49122  1  0  0  0
 50 51  1  0  0  0
 50123  1  0  0  0
 50124  1  0  0  0
 51 52  1  0  0  0
 51125  1  0  0  0
 51126  1  0  0  0
 52127  1  0  0  0
 52128  1  0  0  0
 53 54  1  0  0  0
 54 55  2  0  0  0
 54129  1  0  0  0
 55 57  1  0  0  0
 55130  1  0  0  0
 56 69  2  0  0  0
 57 58  2  0  0  0
 57131  1  0  0  0
 58132  1  0  0  0
 59 60  1  0  0  0
 59 61  1  0  0  0
 59 62  1  0  0  0
 60133  1  0  0  0
 60134  1  0  0  0
 60135  1  0  0  0
 61136  1  0  0  0
 61137  1  0  0  0
 61138  1  0  0  0
 62139  1  0  0  0
 62140  1  0  0  0
 62141  1  0  0  0
 63 65  1  0  0  0
 63142  1  0  0  0
 63143  1  0  0  0
 63144  1  0  0  0
 64145  1  0  0  0
 65146  1  0  0  0
 68 81  1  0  0  0
 71 73  1  0  0  0
 71 74  2  0  0  0
 71147  1  0  0  0
 72 73  2  0  0  0
 72 85  1  0  0  0
 72148  1  0  0  0
 73 82  1  0  0  0
 74 83  1  0  0  0
 74 85  1  0  0  0
 75149  1  0  0  0
 75150  1  0  0  0
 75151  1  0  0  0
 75 83  1  0  0  0
 76 83  1  0  0  0
 76152  1  0  0  0
 76153  1  0  0  0
 76154  1  0  0  0
 77155  1  0  0  0
 77156  1  0  0  0
 77157  1  0  0  0
 77 84  1  0  0  0
 78 79  1  0  0  0
 78 84  1  0  0  0
 78158  1  0  0  0
 78159  1  0  0  0
 79 85  1  0  0  0
 79160  1  0  0  0
 79161  1  0  0  0
 80 82  1  0  0  0
 80 86  1  0  0  0
 80162  1  0  0  0
 80163  1  0  0  0
 81 84  1  0  0  0
 81164  1  0  0  0
 81165  1  0  0  0
 82 87  1  0  0  0
 82166  1  0  0  0
 83167  1  0  0  0
 84168  1  0  0  0
 86169  1  0  0  0
 87170  1  0  0  0
 87171  1  0  0  0
 87172  1  0  0  0
M  CHG  1  87   1
M  ISO  4   1 100  68 101  81 101  86 100
M  END
> <chiral flag>
0

> <version>
0

> <s_m_source_file>
/data/baiqing/PycharmProjects/Reinvent-master-3.2/result/LINK_invent/BTK/process_docking_weight1_custom_sum_contain_oxygen_bond_distance_aromatic_linkinvent_7_9_3/rearranged_h_0095.sdf

> <i_m_source_file_index>
4

> <r_mmod_Potential_Energy-OPLS-2005>
-392.885894775391

> <r_mmod_Stretch_Energy-OPLS-2005>
32.1940879821777

> <r_mmod_Bend_Energy-OPLS-2005>
102.789649963379

> <r_mmod_Torsional_Energy-OPLS-2005>
270.333984375

> <r_mmod_Improper_Torsional_Energy-OPLS-2005>
7.92340087890625

> <r_mmod_Van_der_Waal_Energy-OPLS-2005>
135.419555664062

> <r_mmod_Electrostatic_Energy-OPLS-2005>
-467.08837890625

> <r_mmod_Solvation_Energy-OPLS-2005>
-483.593933105469

> <b_mmod_Minimization_Converged-OPLS-2005>
0

> <r_mmod_RMS_Derivative-OPLS-2005>
4.56877183914185

$$$$
4
                    3D
 Structure written by MMmdl.
175183  0  0  1  0            999 V2000
  -30.7415  -14.3922   20.6622 C   0  0  0  0  0  0
  -30.4217  -12.2925   19.4008 C   0  0  0  0  0  0
  -29.4882  -12.5274   18.1969 C   0  0  0  0  0  0
  -28.0107  -12.3857   18.6109 C   0  0  0  0  0  0
  -27.6675  -13.2027   19.8846 C   0  0  2  0  0  0
  -28.7059  -12.9317   20.9962 C   0  0  0  0  0  0
  -25.2582  -13.8147   20.5622 C   0  0  0  0  0  0
  -24.1839  -13.0434   20.9159 C   0  0  0  0  0  0
  -24.6392  -11.6901   20.8735 C   0  0  0  0  0  0
  -23.9056  -10.4290   21.0404 C   0  0  0  0  0  0
  -24.3610   -9.4207   21.9182 C   0  0  0  0  0  0
  -23.6285   -8.2243   22.0754 C   0  0  0  0  0  0
  -22.4270   -8.0278   21.3545 C   0  0  0  0  0  0
  -21.9902   -9.0250   20.4646 C   0  0  0  0  0  0
  -22.7229  -10.2129   20.3051 C   0  0  0  0  0  0
  -21.6852   -6.0729   22.5276 C   0  0  0  0  0  0
  -21.4013   -6.5635   23.8208 C   0  0  0  0  0  0
  -21.3660   -5.6789   24.9171 C   0  0  0  0  0  0
  -21.6046   -4.3051   24.7226 C   0  0  0  0  0  0
  -21.8821   -3.8141   23.4346 C   0  0  0  0  0  0
  -21.9194   -4.6956   22.3400 C   0  0  0  0  0  0
  -22.7864  -13.5237   21.1828 C   0  0  0  0  0  0
  -22.1663   -4.2142   21.0978 F   0  0  0  0  0  0
  -21.5630   -3.4535   25.7737 F   0  0  0  0  0  0
  -30.0476  -13.2392   20.4625 N   0  0  0  0  0  0
  -26.3046  -12.9322   20.3397 N   0  0  0  0  0  0
  -25.9324  -11.6484   20.5787 N   0  0  0  0  0  0
  -22.0505  -12.8231   22.0389 N   0  0  0  0  0  0
  -25.4255  -15.1850   20.3912 N   0  0  0  0  0  0
  -31.7929  -14.6441   20.0635 O   0  0  0  0  0  0
  -21.6639   -6.8872   21.4236 O   0  0  0  0  0  0
  -22.3549  -14.5545   20.6683 O   0  0  0  0  0  0
  -24.6133  -31.8699   23.2127 C   0  0  0  0  0  0
  -25.9039  -32.4835   23.8405 C   0  0  1  0  0  0
  -27.2311  -27.4516   20.0838 C   0  0  0  0  0  0
  -25.5902  -33.8632   24.2340 N   0  0  0  0  0  0
  -23.3983  -30.4962   21.5537 C   0  0  2  0  0  0
  -24.8409  -28.9668   20.1151 C   0  0  0  0  0  0
  -22.7395  -29.4675   22.5006 C   0  0  0  0  0  0
  -18.0266  -28.1370   22.8499 C   0  0  0  0  0  0
  -24.1489  -36.7317   23.2636 C   0  0  0  0  0  0
  -25.9262  -30.8396   21.3634 C   0  0  0  0  0  0
  -26.0012  -29.4763   20.7097 C   0  0  0  0  0  0
  -27.1973  -28.7255   20.6928 C   0  0  0  0  0  0
  -26.0479  -26.9559   19.4829 C   0  0  0  0  0  0
  -24.8581  -27.7040   19.5013 C   0  0  0  0  0  0
  -23.6030  -29.8316   20.1668 C   0  0  0  0  0  0
  -25.4107  -36.3118   24.0340 C   0  0  1  0  0  0
  -20.5858  -28.3653   23.1327 C   0  0  2  0  0  0
  -20.6762  -26.9393   22.5418 C   0  0  0  0  0  0
  -19.5741  -26.6383   21.5216 C   0  0  0  0  0  0
  -18.1917  -26.7918   22.1623 C   0  0  0  0  0  0
  -19.1518  -28.8825   23.2913 C   0  0  0  0  0  0
  -18.9448  -30.1435   23.8915 C   0  0  0  0  0  0
  -17.6455  -30.6578   24.0570 C   0  0  0  0  0  0
  -25.9031  -34.9484   23.5132 C   0  0  0  0  0  0
  -16.5343  -29.9083   23.6329 C   0  0  0  0  0  0
  -16.7257  -28.6502   23.0345 C   0  0  0  0  0  0
  -26.4471  -31.6605   25.0723 C   0  0  0  0  0  0
  -25.3744  -31.3706   26.1477 C   0  0  0  0  0  0
  -27.0294  -30.3052   24.6076 C   0  0  0  0  0  0
  -27.6056  -32.4316   25.7482 C   0  0  0  0  0  0
  -27.5583  -37.1811   24.8462 C   0  0  0  0  0  0
  -21.4128  -29.3032   22.3743 N   0  0  0  0  0  0
  -26.4296  -37.3799   23.9406 N   0  0  0  0  0  0
  -24.6644  -31.0822   22.1017 N   0  0  0  0  0  0
  -23.4184  -28.8213   23.3030 O   0  0  0  0  0  0
  -28.4155  -26.7425   20.0978 O   0  0  0  0  0  0
  -26.5593  -34.8932   22.4694 O   0  0  0  0  0  0
  -23.5335  -32.1439   23.7543 O   0  0  0  0  0  0
  -31.4374  -17.3118   21.2994 C   0  0  0  0  0  0
  -31.3644  -18.5919   21.9191 C   0  0  0  0  0  0
  -30.3389  -18.5373   22.8357 C   0  0  0  0  0  0
  -30.4808  -16.5205   21.8685 C   0  0  0  0  0  0
  -29.8119  -19.6084   23.7473 C   0  0  0  0  0  0
  -33.7388  -19.3811   21.8934 C   0  0  0  0  0  0
  -29.1191  -15.5911   24.5777 C   0  0  0  0  0  0
  -27.4285  -16.4860   22.8774 C   0  0  0  0  0  0
  -29.6406  -24.6270   20.1812 C   0  0  0  0  0  0
  -32.1137  -20.2463   20.1462 C   0  0  0  0  0  0
  -29.5642  -23.1209   19.8572 C   0  0  0  0  0  0
  -30.7778  -20.9579   19.8473 C   0  0  0  0  0  0
  -28.3485  -25.3520   19.7797 C   0  0  0  0  0  0
  -32.2798  -19.7615   21.6030 C   0  0  1  0  0  0
  -28.6975  -16.7752   23.6912 C   0  0  0  0  0  0
  -29.7956  -17.2485   22.8341 N   0  0  0  0  0  0
  -30.1892  -15.2234   21.5654 N   0  0  0  0  0  0
  -30.7929  -22.3884   20.2345 N   0  3  0  0  0  0
  -31.4648  -12.3954   19.0955 H   0  0  0  0  0  0
  -30.3230  -11.2688   19.7656 H   0  0  0  0  0  0
  -29.7212  -11.8234   17.3970 H   0  0  0  0  0  0
  -29.6603  -13.5240   17.7871 H   0  0  0  0  0  0
  -27.8146  -11.3271   18.7861 H   0  0  0  0  0  0
  -27.3593  -12.6820   17.7881 H   0  0  0  0  0  0
  -27.7284  -14.2589   19.6208 H   0  0  0  0  0  0
  -28.6722  -11.8818   21.2908 H   0  0  0  0  0  0
  -28.4530  -13.4809   21.9022 H   0  0  0  0  0  0
  -25.2755   -9.5687   22.4754 H   0  0  0  0  0  0
  -23.9996   -7.4637   22.7474 H   0  0  0  0  0  0
  -21.0834   -8.8762   19.8954 H   0  0  0  0  0  0
  -22.3685  -10.9663   19.6158 H   0  0  0  0  0  0
  -21.2002   -7.6144   23.9710 H   0  0  0  0  0  0
  -21.1481   -6.0519   25.9076 H   0  0  0  0  0  0
  -22.0600   -2.7601   23.2846 H   0  0  0  0  0  0
  -22.4112  -11.9889   22.4775 H   0  0  0  0  0  0
  -21.1123  -13.1260   22.2590 H   0  0  0  0  0  0
  -24.6581  -15.8389   20.4961 H   0  0  0  0  0  0
  -26.2799  -15.6241   20.0733 H   0  0  0  0  0  0
  -26.7105  -32.5547   23.1165 H   0  0  0  0  0  0
  -25.0072  -33.9797   25.0498 H   0  0  0  0  0  0
  -22.6864  -31.3133   21.4185 H   0  0  0  0  0  0
  -23.3754  -35.9648   23.3305 H   0  0  0  0  0  0
  -24.3586  -36.8920   22.2050 H   0  0  0  0  0  0
  -23.7244  -37.6525   23.6641 H   0  0  0  0  0  0
  -26.0372  -31.6066   20.5959 H   0  0  0  0  0  0
  -26.8159  -30.8908   21.9795 H   0  0  0  0  0  0
  -28.0936  -29.1175   21.1532 H   0  0  0  0  0  0
  -26.0186  -25.9974   18.9866 H   0  0  0  0  0  0
  -23.9659  -27.3068   19.0368 H   0  0  0  0  0  0
  -23.7084  -30.6078   19.4078 H   0  0  0  0  0  0
  -22.7272  -29.2508   19.8725 H   0  0  0  0  0  0
  -25.1287  -36.1982   25.0832 H   0  0  0  0  0  0
  -20.9946  -28.3205   24.1447 H   0  0  0  0  0  0
  -20.5671  -26.2255   23.3599 H   0  0  0  0  0  0
  -21.6631  -26.7439   22.1203 H   0  0  0  0  0  0
  -19.6907  -25.6304   21.1218 H   0  0  0  0  0  0
  -19.6684  -27.3218   20.6768 H   0  0  0  0  0  0
  -17.4194  -26.6676   21.4019 H   0  0  0  0  0  0
  -18.0312  -26.0049   22.9005 H   0  0  0  0  0  0
  -19.7927  -30.7246   24.2282 H   0  0  0  0  0  0
  -17.5013  -31.6260   24.5170 H   0  0  0  0  0  0
  -15.5347  -30.2996   23.7644 H   0  0  0  0  0  0
  -15.8655  -28.0837   22.7039 H   0  0  0  0  0  0
  -24.5904  -30.7069   25.7813 H   0  0  0  0  0  0
  -24.8953  -32.2867   26.4941 H   0  0  0  0  0  0
  -25.8101  -30.8859   27.0222 H   0  0  0  0  0  0
  -26.2825  -29.6821   24.1142 H   0  0  0  0  0  0
  -27.4096  -29.7277   25.4510 H   0  0  0  0  0  0
  -27.8647  -30.4383   23.9199 H   0  0  0  0  0  0
  -27.2677  -33.3608   26.2083 H   0  0  0  0  0  0
  -28.3854  -32.6878   25.0299 H   0  0  0  0  0  0
  -28.0733  -31.8421   26.5379 H   0  0  0  0  0  0
  -28.2597  -38.0109   24.7511 H   0  0  0  0  0  0
  -28.1080  -36.2641   24.6282 H   0  0  0  0  0  0
  -27.2301  -37.1448   25.8864 H   0  0  0  0  0  0
  -20.9274  -29.8773   21.6992 H   0  0  0  0  0  0
  -26.0189  -38.2879   24.1405 H   0  0  0  0  0  0
  -32.1331  -17.0264   20.5233 H   0  0  0  0  0  0
  -30.2886  -20.5710   23.5742 H   0  0  0  0  0  0
  -29.9787  -19.3490   24.7932 H   0  0  0  0  0  0
  -28.7417  -19.7565   23.5995 H   0  0  0  0  0  0
  -33.8615  -19.0665   22.9303 H   0  0  0  0  0  0
  -34.4079  -20.2261   21.7280 H   0  0  0  0  0  0
  -34.0752  -18.5631   21.2557 H   0  0  0  0  0  0
  -28.3369  -15.3526   25.2988 H   0  0  0  0  0  0
  -30.0200  -15.8308   25.1434 H   0  0  0  0  0  0
  -29.3162  -14.6853   24.0071 H   0  0  0  0  0  0
  -26.6001  -16.2081   23.5295 H   0  0  0  0  0  0
  -27.5707  -15.6734   22.1686 H   0  0  0  0  0  0
  -27.1186  -17.3660   22.3133 H   0  0  0  0  0  0
  -30.4860  -25.0806   19.6626 H   0  0  0  0  0  0
  -29.8123  -24.7684   21.2488 H   0  0  0  0  0  0
  -32.9358  -20.9103   19.8765 H   0  0  0  0  0  0
  -32.2132  -19.3887   19.4796 H   0  0  0  0  0  0
  -29.3844  -22.9922   18.7887 H   0  0  0  0  0  0
  -28.7131  -22.6730   20.3729 H   0  0  0  0  0  0
  -29.9469  -20.4416   20.3297 H   0  0  0  0  0  0
  -30.5899  -20.9000   18.7741 H   0  0  0  0  0  0
  -27.5169  -24.8835   20.3096 H   0  0  0  0  0  0
  -28.1754  -25.2316   18.7090 H   0  0  0  0  0  0
  -32.0397  -20.5897   22.2677 H   0  0  0  0  0  0
  -28.4347  -17.5730   24.3836 H   0  0  0  0  0  0
  -29.3806  -14.8419   22.0287 H   0  0  0  0  0  0
  -30.9260  -22.4643   21.2298 H   0  0  0  0  0  0
  -31.5766  -22.8322   19.7827 H   0  0  0  0  0  0
  1 25  1  0  0  0
  1 30  2  0  0  0
  1 87  1  0  0  0
  2  3  1  0  0  0
  2 25  1  0  0  0
  2 89  1  0  0  0
  2 90  1  0  0  0
  3  4  1  0  0  0
  3 91  1  0  0  0
  3 92  1  0  0  0
  4  5  1  0  0  0
  4 93  1  0  0  0
  4 94  1  0  0  0
  5  6  1  0  0  0
  5 26  1  0  0  0
  5 95  1  0  0  0
  6 25  1  0  0  0
  6 96  1  0  0  0
  6 97  1  0  0  0
  7  8  2  0  0  0
  7 26  1  0  0  0
  7 29  1  0  0  0
  8  9  1  0  0  0
  8 22  1  0  0  0
  9 10  1  0  0  0
  9 27  2  0  0  0
 10 11  2  0  0  0
 10 15  1  0  0  0
 11 12  1  0  0  0
 11 98  1  0  0  0
 12 13  2  0  0  0
 12 99  1  0  0  0
 13 14  1  0  0  0
 13 31  1  0  0  0
 14 15  2  0  0  0
 14100  1  0  0  0
 15101  1  0  0  0
 16 17  2  0  0  0
 16 21  1  0  0  0
 16 31  1  0  0  0
 17 18  1  0  0  0
 17102  1  0  0  0
 18 19  2  0  0  0
 18103  1  0  0  0
 19 20  1  0  0  0
 19 24  1  0  0  0
 20 21  2  0  0  0
 20104  1  0  0  0
 21 23  1  0  0  0
 22 28  1  0  0  0
 22 32  2  0  0  0
 26 27  1  0  0  0
 28105  1  0  0  0
 28106  1  0  0  0
 29107  1  0  0  0
 29108  1  0  0  0
 33 34  1  0  0  0
 33 66  1  0  0  0
 33 70  2  0  0  0
 34 36  1  0  0  0
 34 59  1  0  0  0
 34109  1  0  0  0
 35 44  2  0  0  0
 35 45  1  0  0  0
 35 68  1  0  0  0
 36 56  1  0  0  0
 36110  1  0  0  0
 37 39  1  0  0  0
 37 47  1  0  0  0
 37 66  1  0  0  0
 37111  1  0  0  0
 38 43  2  0  0  0
 38 46  1  0  0  0
 38 47  1  0  0  0
 39 64  1  0  0  0
 39 67  2  0  0  0
 40 52  1  0  0  0
 40 53  2  0  0  0
 40 58  1  0  0  0
 41112  1  0  0  0
 41113  1  0  0  0
 41114  1  0  0  0
 41 48  1  0  0  0
 42 43  1  0  0  0
 42 66  1  0  0  0
 42115  1  0  0  0
 42116  1  0  0  0
 43 44  1  0  0  0
 44117  1  0  0  0
 45 46  2  0  0  0
 45118  1  0  0  0
 46119  1  0  0  0
 47120  1  0  0  0
 47121  1  0  0  0
 48 56  1  0  0  0
 48 65  1  0  0  0
 48122  1  0  0  0
 49 50  1  0  0  0
 49 53  1  0  0  0
 49 64  1  0  0  0
 49123  1  0  0  0
 50 51  1  0  0  0
 50124  1  0  0  0
 50125  1  0  0  0
 51 52  1  0  0  0
 51126  1  0  0  0
 51127  1  0  0  0
 52128  1  0  0  0
 52129  1  0  0  0
 53 54  1  0  0  0
 54 55  2  0  0  0
 54130  1  0  0  0
 55 57  1  0  0  0
 55131  1  0  0  0
 56 69  2  0  0  0
 57 58  2  0  0  0
 57132  1  0  0  0
 58133  1  0  0  0
 59 60  1  0  0  0
 59 61  1  0  0  0
 59 62  1  0  0  0
 60134  1  0  0  0
 60135  1  0  0  0
 60136  1  0  0  0
 61137  1  0  0  0
 61138  1  0  0  0
 61139  1  0  0  0
 62140  1  0  0  0
 62141  1  0  0  0
 62142  1  0  0  0
 63 65  1  0  0  0
 63143  1  0  0  0
 63144  1  0  0  0
 63145  1  0  0  0
 64146  1  0  0  0
 65147  1  0  0  0
 68 83  1  0  0  0
 71 72  1  0  0  0
 71 74  2  0  0  0
 71148  1  0  0  0
 72 73  2  0  0  0
 72 84  1  0  0  0
 73 75  1  0  0  0
 73 86  1  0  0  0
 74 86  1  0  0  0
 74 87  1  0  0  0
 75149  1  0  0  0
 75150  1  0  0  0
 75151  1  0  0  0
 76152  1  0  0  0
 76153  1  0  0  0
 76154  1  0  0  0
 76 84  1  0  0  0
 77155  1  0  0  0
 77156  1  0  0  0
 77157  1  0  0  0
 77 85  1  0  0  0
 78 85  1  0  0  0
 78158  1  0  0  0
 78159  1  0  0  0
 78160  1  0  0  0
 79 81  1  0  0  0
 79 83  1  0  0  0
 79161  1  0  0  0
 79162  1  0  0  0
 80 82  1  0  0  0
 80 84  1  0  0  0
 80163  1  0  0  0
 80164  1  0  0  0
 81 88  1  0  0  0
 81165  1  0  0  0
 81166  1  0  0  0
 82 88  1  0  0  0
 82167  1  0  0  0
 82168  1  0  0  0
 83169  1  0  0  0
 83170  1  0  0  0
 84171  1  0  0  0
 85 86  1  0  0  0
 85172  1  0  0  0
 87173  1  0  0  0
 88174  1  0  0  0
 88175  1  0  0  0
M  CHG  1  88   1
M  ISO  4   1 100  68 101  83 101  87 100
M  END
> <chiral flag>
0

> <version>
0

> <s_m_source_file>
/data/baiqing/PycharmProjects/Reinvent-master-3.2/result/LINK_invent/BTK/process_docking_weight1_custom_sum_contain_oxygen_bond_distance_aromatic_linkinvent_7_9_3/rearranged_h_0095.sdf

> <i_m_source_file_index>
5

> <r_mmod_Potential_Energy-OPLS-2005>
-243.414474487305

> <r_mmod_Stretch_Energy-OPLS-2005>
34.5818367004395

> <r_mmod_Bend_Energy-OPLS-2005>
111.04598236084

> <r_mmod_Torsional_Energy-OPLS-2005>
232.748489379883

> <r_mmod_Improper_Torsional_Energy-OPLS-2005>
1.91894435882568

> <r_mmod_Van_der_Waal_Energy-OPLS-2005>
132.763565063477

> <r_mmod_Electrostatic_Energy-OPLS-2005>
-314.353668212891

> <r_mmod_Solvation_Energy-OPLS-2005>
-450.253082275391

> <b_mmod_Minimization_Converged-OPLS-2005>
0

> <r_mmod_RMS_Derivative-OPLS-2005>
0.731189906597137

$$$$
5
                    3D
 Structure written by MMmdl.
170178  0  0  1  0            999 V2000
  -30.5771  -14.6900   20.4853 C   0  0  0  0  0  0
  -30.4432  -12.4244   19.4474 C   0  0  0  0  0  0
  -29.5043  -12.4848   18.2217 C   0  0  0  0  0  0
  -28.0309  -12.3061   18.6433 C   0  0  0  0  0  0
  -27.6411  -13.2051   19.8449 C   0  0  2  0  0  0
  -28.6857  -13.0922   20.9742 C   0  0  0  0  0  0
  -25.2541  -13.8140   20.5659 C   0  0  0  0  0  0
  -24.1811  -13.0437   20.9199 C   0  0  0  0  0  0
  -24.6351  -11.6897   20.8748 C   0  0  0  0  0  0
  -23.9026  -10.4299   21.0427 C   0  0  0  0  0  0
  -24.3595   -9.4218   21.9205 C   0  0  0  0  0  0
  -23.6281   -8.2245   22.0764 C   0  0  0  0  0  0
  -22.4273   -8.0277   21.3545 C   0  0  0  0  0  0
  -21.9902   -9.0247   20.4656 C   0  0  0  0  0  0
  -22.7209  -10.2130   20.3070 C   0  0  0  0  0  0
  -21.6844   -6.0739   22.5285 C   0  0  0  0  0  0
  -21.4009   -6.5644   23.8215 C   0  0  0  0  0  0
  -21.3657   -5.6800   24.9185 C   0  0  0  0  0  0
  -21.6037   -4.3059   24.7237 C   0  0  0  0  0  0
  -21.8818   -3.8154   23.4357 C   0  0  0  0  0  0
  -21.9192   -4.6970   22.3412 C   0  0  0  0  0  0
  -22.7845  -13.5253   21.1866 C   0  0  0  0  0  0
  -22.1661   -4.2154   21.0986 F   0  0  0  0  0  0
  -21.5629   -3.4542   25.7750 F   0  0  0  0  0  0
  -29.9876  -13.4562   20.3971 N   0  0  0  0  0  0
  -26.2910  -12.9278   20.3224 N   0  0  0  0  0  0
  -25.9254  -11.6457   20.5735 N   0  0  0  0  0  0
  -22.0482  -12.8248   22.0410 N   0  0  0  0  0  0
  -25.4285  -15.1865   20.4051 N   0  0  0  0  0  0
  -31.7719  -14.8514   20.2228 O   0  0  0  0  0  0
  -21.6634   -6.8884   21.4247 O   0  0  0  0  0  0
  -22.3551  -14.5573   20.6724 O   0  0  0  0  0  0
  -24.6232  -31.8543   23.2044 C   0  0  0  0  0  0
  -25.9071  -32.4757   23.8372 C   0  0  1  0  0  0
  -27.2335  -27.3162   20.1109 C   0  0  0  0  0  0
  -25.5883  -33.8562   24.2263 N   0  0  0  0  0  0
  -23.4217  -30.4814   21.5382 C   0  0  2  0  0  0
  -24.8762  -28.9364   20.1088 C   0  0  0  0  0  0
  -22.7458  -29.4608   22.4836 C   0  0  0  0  0  0
  -18.0269  -28.1396   22.8442 C   0  0  0  0  0  0
  -24.1474  -36.7339   23.2640 C   0  0  0  0  0  0
  -25.9638  -30.7850   21.3782 C   0  0  0  0  0  0
  -26.0428  -29.4116   20.7197 C   0  0  0  0  0  0
  -27.2284  -28.6138   20.7129 C   0  0  0  0  0  0
  -26.0468  -26.8961   19.4730 C   0  0  0  0  0  0
  -24.8798  -27.6819   19.4756 C   0  0  0  0  0  0
  -23.6448  -29.8179   20.1532 C   0  0  0  0  0  0
  -25.4095  -36.3067   24.0303 C   0  0  1  0  0  0
  -20.5864  -28.3706   23.1245 C   0  0  2  0  0  0
  -20.6775  -26.9425   22.5388 C   0  0  0  0  0  0
  -19.5769  -26.6380   21.5168 C   0  0  0  0  0  0
  -18.1927  -26.7936   22.1579 C   0  0  0  0  0  0
  -19.1516  -28.8862   23.2839 C   0  0  0  0  0  0
  -18.9457  -30.1454   23.8870 C   0  0  0  0  0  0
  -17.6466  -30.6599   24.0548 C   0  0  0  0  0  0
  -25.9026  -34.9432   23.5088 C   0  0  0  0  0  0
  -16.5358  -29.9106   23.6322 C   0  0  0  0  0  0
  -16.7261  -28.6535   23.0324 C   0  0  0  0  0  0
  -26.4470  -31.6603   25.0764 C   0  0  0  0  0  0
  -25.3722  -31.3781   26.1517 C   0  0  0  0  0  0
  -27.0342  -30.3019   24.6283 C   0  0  0  0  0  0
  -27.5996  -32.4391   25.7526 C   0  0  0  0  0  0
  -27.5573  -37.1801   24.8441 C   0  0  0  0  0  0
  -21.4157  -29.3078   22.3638 N   0  0  0  0  0  0
  -26.4280  -37.3755   23.9391 N   0  0  0  0  0  0
  -24.6874  -31.0576   22.0969 N   0  0  0  0  0  0
  -23.4164  -28.8094   23.2897 O   0  0  0  0  0  0
  -28.3417  -26.4536   20.1084 O   0  0  0  0  0  0
  -26.5587  -34.8872   22.4651 O   0  0  0  0  0  0
  -23.5400  -32.1336   23.7351 O   0  0  0  0  0  0
  -29.2752  -21.1248   20.3065 C   0  0  0  0  0  0
  -28.1094  -22.3634   21.9862 C   0  0  0  0  0  0
  -28.8025  -22.4118   20.7743 C   0  0  0  0  0  0
  -29.0974  -19.8734   21.0365 C   0  0  0  0  0  0
  -28.4984  -20.0677   22.3327 C   0  0  0  0  0  0
  -28.8348  -23.7072   18.5443 C   0  0  0  0  0  0
  -26.9705  -18.2305   23.2383 C   0  0  0  0  0  0
  -28.3253  -19.5871   24.8769 C   0  0  0  0  0  0
  -30.4950  -18.5966   19.2595 C   0  0  0  0  0  0
  -28.1178  -18.0426   19.5658 C   0  0  0  0  0  0
  -29.9090  -17.1583   21.1933 C   0  0  0  0  0  0
  -28.1236  -25.0655   20.5960 C   0  0  0  0  0  0
  -29.0027  -23.8252   20.0654 C   0  0  1  0  0  0
  -28.2782  -19.0165   23.4370 C   0  0  0  0  0  0
  -29.3989  -18.4372   20.3356 C   0  0  0  0  0  0
  -27.9729  -21.2518   22.7182 N   0  0  0  0  0  0
  -29.7197  -15.7442   20.6908 N   0  0  0  0  0  0
  -31.4775  -12.5836   19.1398 H   0  0  0  0  0  0
  -30.4135  -11.4386   19.9146 H   0  0  0  0  0  0
  -29.7819  -11.7176   17.4977 H   0  0  0  0  0  0
  -29.6221  -13.4438   17.7137 H   0  0  0  0  0  0
  -27.8975  -11.2574   18.9163 H   0  0  0  0  0  0
  -27.3664  -12.4828   17.7975 H   0  0  0  0  0  0
  -27.6485  -14.2289   19.4692 H   0  0  0  0  0  0
  -28.7148  -12.0754   21.3691 H   0  0  0  0  0  0
  -28.4219  -13.7329   21.8167 H   0  0  0  0  0  0
  -25.2734   -9.5698   22.4787 H   0  0  0  0  0  0
  -23.9985   -7.4650   22.7483 H   0  0  0  0  0  0
  -21.0832   -8.8763   19.8965 H   0  0  0  0  0  0
  -22.3669  -10.9673   19.6183 H   0  0  0  0  0  0
  -21.1997   -7.6149   23.9721 H   0  0  0  0  0  0
  -21.1477   -6.0534   25.9085 H   0  0  0  0  0  0
  -22.0598   -2.7615   23.2858 H   0  0  0  0  0  0
  -22.4060  -11.9876   22.4768 H   0  0  0  0  0  0
  -21.1110  -13.1301   22.2649 H   0  0  0  0  0  0
  -24.6577  -15.8362   20.5107 H   0  0  0  0  0  0
  -26.2583  -15.6188   20.0232 H   0  0  0  0  0  0
  -26.7136  -32.5418   23.1127 H   0  0  0  0  0  0
  -25.0027  -33.9710   25.0398 H   0  0  0  0  0  0
  -22.7147  -31.3003   21.3881 H   0  0  0  0  0  0
  -23.3683  -35.9724   23.3292 H   0  0  0  0  0  0
  -24.3599  -36.9021   22.2075 H   0  0  0  0  0  0
  -23.7267  -37.6558   23.6703 H   0  0  0  0  0  0
  -26.0956  -31.5436   20.6058 H   0  0  0  0  0  0
  -26.8459  -30.8389   22.0068 H   0  0  0  0  0  0
  -28.1228  -28.9774   21.2003 H   0  0  0  0  0  0
  -26.0157  -25.9461   18.9570 H   0  0  0  0  0  0
  -23.9927  -27.3141   18.9777 H   0  0  0  0  0  0
  -23.7689  -30.5929   19.3962 H   0  0  0  0  0  0
  -22.7697  -29.2453   19.8434 H   0  0  0  0  0  0
  -25.1259  -36.1924   25.0791 H   0  0  0  0  0  0
  -20.9943  -28.3298   24.1373 H   0  0  0  0  0  0
  -20.5654  -26.2303   23.3576 H   0  0  0  0  0  0
  -21.6652  -26.7458   22.1186 H   0  0  0  0  0  0
  -19.6940  -25.6267   21.1251 H   0  0  0  0  0  0
  -19.6746  -27.3147   20.6662 H   0  0  0  0  0  0
  -17.4192  -26.6606   21.3995 H   0  0  0  0  0  0
  -18.0393  -26.0080   22.8994 H   0  0  0  0  0  0
  -19.7932  -30.7235   24.2263 H   0  0  0  0  0  0
  -17.5039  -31.6278   24.5162 H   0  0  0  0  0  0
  -15.5367  -30.3010   23.7706 H   0  0  0  0  0  0
  -15.8634  -28.0882   22.7064 H   0  0  0  0  0  0
  -24.5816  -30.7211   25.7908 H   0  0  0  0  0  0
  -24.8996  -32.2985   26.4972 H   0  0  0  0  0  0
  -25.8046  -30.8947   27.0281 H   0  0  0  0  0  0
  -26.2976  -29.6750   24.1261 H   0  0  0  0  0  0
  -27.3978  -29.7317   25.4841 H   0  0  0  0  0  0
  -27.8834  -30.4325   23.9563 H   0  0  0  0  0  0
  -27.2577  -33.3680   26.2103 H   0  0  0  0  0  0
  -28.3812  -32.6995   25.0380 H   0  0  0  0  0  0
  -28.0641  -31.8535   26.5476 H   0  0  0  0  0  0
  -28.2520  -38.0150   24.7506 H   0  0  0  0  0  0
  -28.1110  -36.2671   24.6226 H   0  0  0  0  0  0
  -27.2304  -37.1440   25.8842 H   0  0  0  0  0  0
  -20.9301  -29.8886   21.6939 H   0  0  0  0  0  0
  -26.0141  -38.2808   24.1426 H   0  0  0  0  0  0
  -29.7655  -21.1067   19.3476 H   0  0  0  0  0  0
  -27.6620  -23.2403   22.4262 H   0  0  0  0  0  0
  -29.5396  -23.0003   18.1096 H   0  0  0  0  0  0
  -29.0094  -24.6678   18.0571 H   0  0  0  0  0  0
  -27.8238  -23.3883   18.2882 H   0  0  0  0  0  0
  -26.9933  -17.6206   22.3404 H   0  0  0  0  0  0
  -26.1218  -18.9110   23.1584 H   0  0  0  0  0  0
  -26.7791  -17.5575   24.0742 H   0  0  0  0  0  0
  -29.2494  -20.1372   25.0565 H   0  0  0  0  0  0
  -28.2818  -18.7864   25.6148 H   0  0  0  0  0  0
  -27.4914  -20.2588   25.0859 H   0  0  0  0  0  0
  -30.1703  -19.2079   18.4175 H   0  0  0  0  0  0
  -30.7706  -17.6298   18.8315 H   0  0  0  0  0  0
  -31.4024  -19.0362   19.6746 H   0  0  0  0  0  0
  -27.8039  -18.8362   18.8853 H   0  0  0  0  0  0
  -27.2710  -17.8435   20.2178 H   0  0  0  0  0  0
  -28.2674  -17.1515   18.9534 H   0  0  0  0  0  0
  -29.2949  -17.0475   22.0677 H   0  0  0  0  0  0
  -30.9324  -17.3049   21.5398 H   0  0  0  0  0  0
  -28.2875  -25.1631   21.6678 H   0  0  0  0  0  0
  -27.0784  -24.7736   20.4932 H   0  0  0  0  0  0
  -30.0442  -24.0971   20.2533 H   0  0  0  0  0  0
  -29.1458  -18.3744   23.4748 H   0  0  0  0  0  0
  -28.7554  -15.4502   20.7138 H   0  0  0  0  0  0
  1 25  1  0  0  0
  1 30  2  0  0  0
  1 87  1  0  0  0
  2  3  1  0  0  0
  2 25  1  0  0  0
  2 88  1  0  0  0
  2 89  1  0  0  0
  3  4  1  0  0  0
  3 90  1  0  0  0
  3 91  1  0  0  0
  4  5  1  0  0  0
  4 92  1  0  0  0
  4 93  1  0  0  0
  5  6  1  0  0  0
  5 26  1  0  0  0
  5 94  1  0  0  0
  6 25  1  0  0  0
  6 95  1  0  0  0
  6 96  1  0  0  0
  7  8  2  0  0  0
  7 26  1  0  0  0
  7 29  1  0  0  0
  8  9  1  0  0  0
  8 22  1  0  0  0
  9 10  1  0  0  0
  9 27  2  0  0  0
 10 11  2  0  0  0
 10 15  1  0  0  0
 11 12  1  0  0  0
 11 97  1  0  0  0
 12 13  2  0  0  0
 12 98  1  0  0  0
 13 14  1  0  0  0
 13 31  1  0  0  0
 14 15  2  0  0  0
 14 99  1  0  0  0
 15100  1  0  0  0
 16 17  2  0  0  0
 16 21  1  0  0  0
 16 31  1  0  0  0
 17 18  1  0  0  0
 17101  1  0  0  0
 18 19  2  0  0  0
 18102  1  0  0  0
 19 20  1  0  0  0
 19 24  1  0  0  0
 20 21  2  0  0  0
 20103  1  0  0  0
 21 23  1  0  0  0
 22 28  1  0  0  0
 22 32  2  0  0  0
 26 27  1  0  0  0
 28104  1  0  0  0
 28105  1  0  0  0
 29106  1  0  0  0
 29107  1  0  0  0
 33 34  1  0  0  0
 33 66  1  0  0  0
 33 70  2  0  0  0
 34 36  1  0  0  0
 34 59  1  0  0  0
 34108  1  0  0  0
 35 44  2  0  0  0
 35 45  1  0  0  0
 35 68  1  0  0  0
 36 56  1  0  0  0
 36109  1  0  0  0
 37 39  1  0  0  0
 37 47  1  0  0  0
 37 66  1  0  0  0
 37110  1  0  0  0
 38 43  2  0  0  0
 38 46  1  0  0  0
 38 47  1  0  0  0
 39 64  1  0  0  0
 39 67  2  0  0  0
 40 52  1  0  0  0
 40 53  2  0  0  0
 40 58  1  0  0  0
 41111  1  0  0  0
 41112  1  0  0  0
 41113  1  0  0  0
 41 48  1  0  0  0
 42 43  1  0  0  0
 42 66  1  0  0  0
 42114  1  0  0  0
 42115  1  0  0  0
 43 44  1  0  0  0
 44116  1  0  0  0
 45 46  2  0  0  0
 45117  1  0  0  0
 46118  1  0  0  0
 47119  1  0  0  0
 47120  1  0  0  0
 48 56  1  0  0  0
 48 65  1  0  0  0
 48121  1  0  0  0
 49 50  1  0  0  0
 49 53  1  0  0  0
 49 64  1  0  0  0
 49122  1  0  0  0
 50 51  1  0  0  0
 50123  1  0  0  0
 50124  1  0  0  0
 51 52  1  0  0  0
 51125  1  0  0  0
 51126  1  0  0  0
 52127  1  0  0  0
 52128  1  0  0  0
 53 54  1  0  0  0
 54 55  2  0  0  0
 54129  1  0  0  0
 55 57  1  0  0  0
 55130  1  0  0  0
 56 69  2  0  0  0
 57 58  2  0  0  0
 57131  1  0  0  0
 58132  1  0  0  0
 59 60  1  0  0  0
 59 61  1  0  0  0
 59 62  1  0  0  0
 60133  1  0  0  0
 60134  1  0  0  0
 60135  1  0  0  0
 61136  1  0  0  0
 61137  1  0  0  0
 61138  1  0  0  0
 62139  1  0  0  0
 62140  1  0  0  0
 62141  1  0  0  0
 63 65  1  0  0  0
 63142  1  0  0  0
 63143  1  0  0  0
 63144  1  0  0  0
 64145  1  0  0  0
 65146  1  0  0  0
 68 82  1  0  0  0
 71 73  2  0  0  0
 71 74  1  0  0  0
 71147  1  0  0  0
 72 73  1  0  0  0
 72 86  2  0  0  0
 72148  1  0  0  0
 73 83  1  0  0  0
 74 75  2  0  0  0
 74 85  1  0  0  0
 75 84  1  0  0  0
 75 86  1  0  0  0
 76149  1  0  0  0
 76150  1  0  0  0
 76151  1  0  0  0
 76 83  1  0  0  0
 77152  1  0  0  0
 77153  1  0  0  0
 77154  1  0  0  0
 77 84  1  0  0  0
 78 84  1  0  0  0
 78155  1  0  0  0
 78156  1  0  0  0
 78157  1  0  0  0
 79158  1  0  0  0
 79159  1  0  0  0
 79160  1  0  0  0
 79 85  1  0  0  0
 80 85  1  0  0  0
 80161  1  0  0  0
 80162  1  0  0  0
 80163  1  0  0  0
 81 85  1  0  0  0
 81 87  1  0  0  0
 81164  1  0  0  0
 81165  1  0  0  0
 82 83  1  0  0  0
 82166  1  0  0  0
 82167  1  0  0  0
 83168  1  0  0  0
 84169  1  0  0  0
 87170  1  0  0  0
M  ISO  4   1 100  68 101  82 101  87 100
M  END
> <chiral flag>
0

> <version>
0

> <s_m_source_file>
/data/baiqing/PycharmProjects/Reinvent-master-3.2/result/LINK_invent/BTK/process_docking_weight1_custom_sum_contain_oxygen_bond_distance_aromatic_linkinvent_7_9_3/rearranged_h_0095.sdf

> <i_m_source_file_index>
6

> <r_mmod_Potential_Energy-OPLS-2005>
-38.9222412109375

> <r_mmod_Stretch_Energy-OPLS-2005>
116.687690734863

> <r_mmod_Bend_Energy-OPLS-2005>
196.210418701172

> <r_mmod_Torsional_Energy-OPLS-2005>
246.829010009766

> <r_mmod_Improper_Torsional_Energy-OPLS-2005>
5.53069829940796

> <r_mmod_Van_der_Waal_Energy-OPLS-2005>
154.478317260742

> <r_mmod_Electrostatic_Energy-OPLS-2005>
-614.8720703125

> <r_mmod_Solvation_Energy-OPLS-2005>
-206.91520690918

> <b_mmod_Minimization_Converged-OPLS-2005>
0

> <r_mmod_RMS_Derivative-OPLS-2005>
3.7449631690979

$$$$
6
                    3D
 Structure written by MMmdl.
177185  0  0  1  0            999 V2000
  -30.7854  -14.3422   20.7149 C   0  0  0  0  0  0
  -30.4101  -12.3018   19.3833 C   0  0  0  0  0  0
  -29.4747  -12.5446   18.1867 C   0  0  0  0  0  0
  -28.0037  -12.3822   18.6085 C   0  0  0  0  0  0
  -27.6629  -13.2044   19.8785 C   0  0  2  0  0  0
  -28.7001  -12.9501   20.9937 C   0  0  0  0  0  0
  -25.2575  -13.8156   20.5663 C   0  0  0  0  0  0
  -24.1840  -13.0443   20.9169 C   0  0  0  0  0  0
  -24.6392  -11.6906   20.8735 C   0  0  0  0  0  0
  -23.9052  -10.4295   21.0403 C   0  0  0  0  0  0
  -24.3596   -9.4209   21.9186 C   0  0  0  0  0  0
  -23.6283   -8.2239   22.0745 C   0  0  0  0  0  0
  -22.4270   -8.0266   21.3529 C   0  0  0  0  0  0
  -21.9902   -9.0244   20.4630 C   0  0  0  0  0  0
  -22.7223  -10.2133   20.3049 C   0  0  0  0  0  0
  -21.6847   -6.0732   22.5278 C   0  0  0  0  0  0
  -21.4009   -6.5637   23.8217 C   0  0  0  0  0  0
  -21.3662   -5.6789   24.9171 C   0  0  0  0  0  0
  -21.6041   -4.3055   24.7226 C   0  0  0  0  0  0
  -21.8811   -3.8145   23.4348 C   0  0  0  0  0  0
  -21.9190   -4.6962   22.3402 C   0  0  0  0  0  0
  -22.7859  -13.5225   21.1843 C   0  0  0  0  0  0
  -22.1662   -4.2148   21.0980 F   0  0  0  0  0  0
  -21.5635   -3.4537   25.7742 F   0  0  0  0  0  0
  -30.0445  -13.2364   20.4571 N   0  0  0  0  0  0
  -26.3031  -12.9331   20.3380 N   0  0  0  0  0  0
  -25.9321  -11.6495   20.5771 N   0  0  0  0  0  0
  -22.0483  -12.8222   22.0368 N   0  0  0  0  0  0
  -25.4297  -15.1863   20.4014 N   0  0  0  0  0  0
  -31.7777  -14.6661   20.0544 O   0  0  0  0  0  0
  -21.6629   -6.8874   21.4240 O   0  0  0  0  0  0
  -22.3554  -14.5564   20.6712 O   0  0  0  0  0  0
  -24.6166  -31.8632   23.2161 C   0  0  0  0  0  0
  -25.9050  -32.4796   23.8437 C   0  0  1  0  0  0
  -27.2340  -27.4569   20.0741 C   0  0  0  0  0  0
  -25.5896  -33.8595   24.2338 N   0  0  0  0  0  0
  -23.4015  -30.4950   21.5572 C   0  0  2  0  0  0
  -24.8443  -28.9679   20.1124 C   0  0  0  0  0  0
  -22.7404  -29.4638   22.5019 C   0  0  0  0  0  0
  -18.0250  -28.1384   22.8490 C   0  0  0  0  0  0
  -24.1464  -36.7309   23.2642 C   0  0  0  0  0  0
  -25.9326  -30.8397   21.3653 C   0  0  0  0  0  0
  -26.0090  -29.4827   20.6980 C   0  0  0  0  0  0
  -27.2075  -28.7343   20.6724 C   0  0  0  0  0  0
  -26.0489  -26.9502   19.4935 C   0  0  0  0  0  0
  -24.8589  -27.7000   19.5082 C   0  0  0  0  0  0
  -23.6046  -29.8327   20.1694 C   0  0  0  0  0  0
  -25.4095  -36.3085   24.0335 C   0  0  1  0  0  0
  -20.5852  -28.3634   23.1324 C   0  0  2  0  0  0
  -20.6746  -26.9375   22.5394 C   0  0  0  0  0  0
  -19.5729  -26.6394   21.5184 C   0  0  0  0  0  0
  -18.1900  -26.7943   22.1584 C   0  0  0  0  0  0
  -19.1504  -28.8824   23.2913 C   0  0  0  0  0  0
  -18.9429  -30.1446   23.8898 C   0  0  0  0  0  0
  -17.6428  -30.6574   24.0569 C   0  0  0  0  0  0
  -25.9025  -34.9446   23.5127 C   0  0  0  0  0  0
  -16.5307  -29.9086   23.6343 C   0  0  0  0  0  0
  -16.7246  -28.6526   23.0328 C   0  0  0  0  0  0
  -26.4484  -31.6610   25.0774 C   0  0  0  0  0  0
  -25.3793  -31.3643   26.1548 C   0  0  0  0  0  0
  -27.0380  -30.3080   24.6148 C   0  0  0  0  0  0
  -27.6037  -32.4385   25.7524 C   0  0  0  0  0  0
  -27.5576  -37.1827   24.8463 C   0  0  0  0  0  0
  -21.4131  -29.3014   22.3746 N   0  0  0  0  0  0
  -26.4273  -37.3778   23.9417 N   0  0  0  0  0  0
  -24.6696  -31.0798   22.1029 N   0  0  0  0  0  0
  -23.4170  -28.8103   23.3008 O   0  0  0  0  0  0
  -28.4047  -26.7274   20.1054 O   0  0  0  0  0  0
  -26.5565  -34.8886   22.4673 O   0  0  0  0  0  0
  -23.5358  -32.1321   23.7593 O   0  0  0  0  0  0
  -28.9616  -22.4030   22.3055 C   0  0  0  0  0  0
  -29.6758  -21.1936   22.3230 C   0  0  0  0  0  0
  -27.6245  -22.4556   21.8742 C   0  0  0  0  0  0
  -26.9849  -21.2569   21.4593 C   0  0  0  0  0  0
  -27.7333  -20.0482   21.3654 C   0  0  0  0  0  0
  -29.0785  -20.0048   21.8312 C   0  0  0  0  0  0
  -31.0834  -21.2229   22.8980 C   0  0  0  0  0  0
  -25.4837  -21.2626   21.1590 C   0  0  0  0  0  0
  -27.0972  -18.7885   20.7734 C   0  0  0  0  0  0
  -29.8403  -15.8256   24.5654 C   0  0  0  0  0  0
  -31.5414  -17.6320   24.3711 C   0  0  0  0  0  0
  -26.8694  -23.7871   21.9140 C   0  0  0  0  0  0
  -29.8710  -18.6883   21.8503 C   0  0  0  0  0  0
  -27.7031  -25.0789   21.7919 C   0  0  0  0  0  0
  -29.4271  -17.7291   22.9809 C   0  0  0  0  0  0
  -31.2745  -16.0048   22.4806 C   0  0  0  0  0  0
  -28.2827  -25.3237   20.3815 C   0  0  0  0  0  0
  -30.5189  -16.7988   23.5753 C   0  0  0  0  0  0
  -30.4399  -15.0056   21.8224 N   0  0  0  0  0  0
  -31.4524  -12.4065   19.0757 H   0  0  0  0  0  0
  -30.3110  -11.2770   19.7426 H   0  0  0  0  0  0
  -29.7118  -11.8588   17.3725 H   0  0  0  0  0  0
  -29.6330  -13.5504   17.7951 H   0  0  0  0  0  0
  -27.8224  -11.3220   18.7906 H   0  0  0  0  0  0
  -27.3435  -12.6666   17.7885 H   0  0  0  0  0  0
  -27.7200  -14.2578   19.6041 H   0  0  0  0  0  0
  -28.6614  -11.9081   21.3157 H   0  0  0  0  0  0
  -28.4427  -13.5374   21.8753 H   0  0  0  0  0  0
  -25.2741   -9.5700   22.4757 H   0  0  0  0  0  0
  -23.9986   -7.4622   22.7464 H   0  0  0  0  0  0
  -21.0837   -8.8758   19.8931 H   0  0  0  0  0  0
  -22.3679  -10.9666   19.6151 H   0  0  0  0  0  0
  -21.2006   -7.6145   23.9721 H   0  0  0  0  0  0
  -21.1492   -6.0520   25.9079 H   0  0  0  0  0  0
  -22.0592   -2.7611   23.2848 H   0  0  0  0  0  0
  -22.4093  -11.9858   22.4730 H   0  0  0  0  0  0
  -21.1088  -13.1223   22.2557 H   0  0  0  0  0  0
  -24.6594  -15.8401   20.4854 H   0  0  0  0  0  0
  -26.2831  -15.6156   20.0686 H   0  0  0  0  0  0
  -26.7143  -32.5429   23.1223 H   0  0  0  0  0  0
  -25.0178  -33.9772   25.0573 H   0  0  0  0  0  0
  -22.6952  -31.3165   21.4289 H   0  0  0  0  0  0
  -23.3713  -35.9654   23.3297 H   0  0  0  0  0  0
  -24.3570  -36.8924   22.2055 H   0  0  0  0  0  0
  -23.7209  -37.6519   23.6649 H   0  0  0  0  0  0
  -26.0486  -31.6250   20.6175 H   0  0  0  0  0  0
  -26.8206  -30.8731   21.9878 H   0  0  0  0  0  0
  -28.1098  -29.1131   21.1312 H   0  0  0  0  0  0
  -26.0231  -25.9770   19.0286 H   0  0  0  0  0  0
  -23.9632  -27.2949   19.0573 H   0  0  0  0  0  0
  -23.7087  -30.6072   19.4084 H   0  0  0  0  0  0
  -22.7234  -29.2600   19.8774 H   0  0  0  0  0  0
  -25.1272  -36.1933   25.0827 H   0  0  0  0  0  0
  -20.9957  -28.3151   24.1438 H   0  0  0  0  0  0
  -20.5624  -26.2210   23.3539 H   0  0  0  0  0  0
  -21.6642  -26.7447   22.1209 H   0  0  0  0  0  0
  -19.6892  -25.6316   21.1192 H   0  0  0  0  0  0
  -19.6692  -27.3223   20.6732 H   0  0  0  0  0  0
  -17.4176  -26.6684   21.3960 H   0  0  0  0  0  0
  -18.0316  -26.0064   22.8961 H   0  0  0  0  0  0
  -19.7896  -30.7276   24.2270 H   0  0  0  0  0  0
  -17.4955  -31.6258   24.5152 H   0  0  0  0  0  0
  -15.5302  -30.2945   23.7732 H   0  0  0  0  0  0
  -15.8650  -28.0860   22.7032 H   0  0  0  0  0  0
  -24.5984  -30.6949   25.7914 H   0  0  0  0  0  0
  -24.8970  -32.2745   26.5117 H   0  0  0  0  0  0
  -25.8242  -30.8769   27.0230 H   0  0  0  0  0  0
  -26.2968  -29.6778   24.1216 H   0  0  0  0  0  0
  -27.4194  -29.7357   25.4612 H   0  0  0  0  0  0
  -27.8746  -30.4473   23.9300 H   0  0  0  0  0  0
  -27.2684  -33.3704   26.2097 H   0  0  0  0  0  0
  -28.3859  -32.6933   25.0364 H   0  0  0  0  0  0
  -28.0661  -31.8484   26.5437 H   0  0  0  0  0  0
  -28.2599  -38.0125   24.7562 H   0  0  0  0  0  0
  -28.1070  -36.2668   24.6249 H   0  0  0  0  0  0
  -27.2297  -37.1462   25.8864 H   0  0  0  0  0  0
  -20.9249  -29.8779   21.7037 H   0  0  0  0  0  0
  -26.0139  -38.2837   24.1448 H   0  0  0  0  0  0
  -29.4563  -23.2931   22.6623 H   0  0  0  0  0  0
  -31.3099  -22.1917   23.3421 H   0  0  0  0  0  0
  -31.8289  -21.0289   22.1282 H   0  0  0  0  0  0
  -31.1881  -20.4809   23.6878 H   0  0  0  0  0  0
  -24.9521  -22.0442   21.7020 H   0  0  0  0  0  0
  -25.0094  -20.3396   21.4885 H   0  0  0  0  0  0
  -25.2948  -21.3954   20.0937 H   0  0  0  0  0  0
  -26.1913  -18.9905   20.2029 H   0  0  0  0  0  0
  -26.8486  -18.0717   21.5569 H   0  0  0  0  0  0
  -27.7723  -18.3141   20.0622 H   0  0  0  0  0  0
  -29.3817  -16.3624   25.3970 H   0  0  0  0  0  0
  -30.5629  -15.1264   24.9889 H   0  0  0  0  0  0
  -29.0497  -15.2354   24.0995 H   0  0  0  0  0  0
  -31.0474  -18.2866   25.0901 H   0  0  0  0  0  0
  -32.1524  -18.2563   23.7200 H   0  0  0  0  0  0
  -32.2244  -16.9943   24.9338 H   0  0  0  0  0  0
  -26.3065  -23.8227   22.8470 H   0  0  0  0  0  0
  -26.1341  -23.8082   21.1097 H   0  0  0  0  0  0
  -30.9342  -18.8980   21.9313 H   0  0  0  0  0  0
  -29.7915  -18.1810   20.8901 H   0  0  0  0  0  0
  -28.4879  -25.1548   22.5433 H   0  0  0  0  0  0
  -27.0167  -25.8811   22.0567 H   0  0  0  0  0  0
  -28.5940  -17.1234   22.6256 H   0  0  0  0  0  0
  -29.0209  -18.3299   23.7961 H   0  0  0  0  0  0
  -32.1158  -15.4754   22.9316 H   0  0  0  0  0  0
  -31.7129  -16.6762   21.7387 H   0  0  0  0  0  0
  -29.2734  -24.8674   20.3260 H   0  0  0  0  0  0
  -27.7002  -24.8178   19.6129 H   0  0  0  0  0  0
  -29.6300  -14.6736   22.3227 H   0  0  0  0  0  0
  1 25  1  0  0  0
  1 30  2  0  0  0
  1 89  1  0  0  0
  2  3  1  0  0  0
  2 25  1  0  0  0
  2 90  1  0  0  0
  2 91  1  0  0  0
  3  4  1  0  0  0
  3 92  1  0  0  0
  3 93  1  0  0  0
  4  5  1  0  0  0
  4 94  1  0  0  0
  4 95  1  0  0  0
  5  6  1  0  0  0
  5 26  1  0  0  0
  5 96  1  0  0  0
  6 25  1  0  0  0
  6 97  1  0  0  0
  6 98  1  0  0  0
  7  8  2  0  0  0
  7 26  1  0  0  0
  7 29  1  0  0  0
  8  9  1  0  0  0
  8 22  1  0  0  0
  9 10  1  0  0  0
  9 27  2  0  0  0
 10 11  2  0  0  0
 10 15  1  0  0  0
 11 12  1  0  0  0
 11 99  1  0  0  0
 12 13  2  0  0  0
 12100  1  0  0  0
 13 14  1  0  0  0
 13 31  1  0  0  0
 14 15  2  0  0  0
 14101  1  0  0  0
 15102  1  0  0  0
 16 17  2  0  0  0
 16 21  1  0  0  0
 16 31  1  0  0  0
 17 18  1  0  0  0
 17103  1  0  0  0
 18 19  2  0  0  0
 18104  1  0  0  0
 19 20  1  0  0  0
 19 24  1  0  0  0
 20 21  2  0  0  0
 20105  1  0  0  0
 21 23  1  0  0  0
 22 28  1  0  0  0
 22 32  2  0  0  0
 26 27  1  0  0  0
 28106  1  0  0  0
 28107  1  0  0  0
 29108  1  0  0  0
 29109  1  0  0  0
 33 34  1  0  0  0
 33 66  1  0  0  0
 33 70  2  0  0  0
 34 36  1  0  0  0
 34 59  1  0  0  0
 34110  1  0  0  0
 35 44  2  0  0  0
 35 45  1  0  0  0
 35 68  1  0  0  0
 36 56  1  0  0  0
 36111  1  0  0  0
 37 39  1  0  0  0
 37 47  1  0  0  0
 37 66  1  0  0  0
 37112  1  0  0  0
 38 43  2  0  0  0
 38 46  1  0  0  0
 38 47  1  0  0  0
 39 64  1  0  0  0
 39 67  2  0  0  0
 40 52  1  0  0  0
 40 53  2  0  0  0
 40 58  1  0  0  0
 41113  1  0  0  0
 41114  1  0  0  0
 41115  1  0  0  0
 41 48  1  0  0  0
 42 43  1  0  0  0
 42 66  1  0  0  0
 42116  1  0  0  0
 42117  1  0  0  0
 43 44  1  0  0  0
 44118  1  0  0  0
 45 46  2  0  0  0
 45119  1  0  0  0
 46120  1  0  0  0
 47121  1  0  0  0
 47122  1  0  0  0
 48 56  1  0  0  0
 48 65  1  0  0  0
 48123  1  0  0  0
 49 50  1  0  0  0
 49 53  1  0  0  0
 49 64  1  0  0  0
 49124  1  0  0  0
 50 51  1  0  0  0
 50125  1  0  0  0
 50126  1  0  0  0
 51 52  1  0  0  0
 51127  1  0  0  0
 51128  1  0  0  0
 52129  1  0  0  0
 52130  1  0  0  0
 53 54  1  0  0  0
 54 55  2  0  0  0
 54131  1  0  0  0
 55 57  1  0  0  0
 55132  1  0  0  0
 56 69  2  0  0  0
 57 58  2  0  0  0
 57133  1  0  0  0
 58134  1  0  0  0
 59 60  1  0  0  0
 59 61  1  0  0  0
 59 62  1  0  0  0
 60135  1  0  0  0
 60136  1  0  0  0
 60137  1  0  0  0
 61138  1  0  0  0
 61139  1  0  0  0
 61140  1  0  0  0
 62141  1  0  0  0
 62142  1  0  0  0
 62143  1  0  0  0
 63 65  1  0  0  0
 63144  1  0  0  0
 63145  1  0  0  0
 63146  1  0  0  0
 64147  1  0  0  0
 65148  1  0  0  0
 68 87  1  0  0  0
 71 72  2  0  0  0
 71 73  1  0  0  0
 71149  1  0  0  0
 72 76  1  0  0  0
 72 77  1  0  0  0
 73 74  2  0  0  0
 73 82  1  0  0  0
 74 75  1  0  0  0
 74 78  1  0  0  0
 75 76  2  0  0  0
 75 79  1  0  0  0
 76 83  1  0  0  0
 77150  1  0  0  0
 77151  1  0  0  0
 77152  1  0  0  0
 78153  1  0  0  0
 78154  1  0  0  0
 78155  1  0  0  0
 79156  1  0  0  0
 79157  1  0  0  0
 79158  1  0  0  0
 80159  1  0  0  0
 80160  1  0  0  0
 80161  1  0  0  0
 80 88  1  0  0  0
 81 88  1  0  0  0
 81162  1  0  0  0
 81163  1  0  0  0
 81164  1  0  0  0
 82 84  1  0  0  0
 82165  1  0  0  0
 82166  1  0  0  0
 83 85  1  0  0  0
 83167  1  0  0  0
 83168  1  0  0  0
 84 87  1  0  0  0
 84169  1  0  0  0
 84170  1  0  0  0
 85 88  1  0  0  0
 85171  1  0  0  0
 85172  1  0  0  0
 86 88  1  0  0  0
 86 89  1  0  0  0
 86173  1  0  0  0
 86174  1  0  0  0
 87175  1  0  0  0
 87176  1  0  0  0
 89177  1  0  0  0
M  ISO  4   1 100  68 101  87 101  89 100
M  END
> <chiral flag>
0

> <version>
0

> <s_m_source_file>
/data/baiqing/PycharmProjects/Reinvent-master-3.2/result/LINK_invent/BTK/process_docking_weight1_custom_sum_contain_oxygen_bond_distance_aromatic_linkinvent_7_9_3/rearranged_h_0095.sdf

> <i_m_source_file_index>
7

> <r_mmod_Potential_Energy-OPLS-2005>
-106.437088012695

> <r_mmod_Stretch_Energy-OPLS-2005>
38.8886871337891

> <r_mmod_Bend_Energy-OPLS-2005>
103.277900695801

> <r_mmod_Torsional_Energy-OPLS-2005>
233.274688720703

> <r_mmod_Improper_Torsional_Energy-OPLS-2005>
3.05896496772766

> <r_mmod_Van_der_Waal_Energy-OPLS-2005>
173.659622192383

> <r_mmod_Electrostatic_Energy-OPLS-2005>
-475.757080078125

> <r_mmod_Solvation_Energy-OPLS-2005>
-191.273544311523

> <b_mmod_Minimization_Converged-OPLS-2005>
0

> <r_mmod_RMS_Derivative-OPLS-2005>
3.73082542419434

$$$$
7
                    3D
 Structure written by MMmdl.
167175  0  0  1  0            999 V2000
  -30.6476  -14.5779   20.5301 C   0  0  0  0  0  0
  -30.4365  -12.3659   19.4264 C   0  0  0  0  0  0
  -29.4984  -12.5010   18.2074 C   0  0  0  0  0  0
  -28.0208  -12.3512   18.6239 C   0  0  0  0  0  0
  -27.6552  -13.2103   19.8636 C   0  0  2  0  0  0
  -28.7028  -13.0345   20.9849 C   0  0  0  0  0  0
  -25.2575  -13.8160   20.5680 C   0  0  0  0  0  0
  -24.1835  -13.0434   20.9184 C   0  0  0  0  0  0
  -24.6395  -11.6904   20.8738 C   0  0  0  0  0  0
  -23.9061  -10.4289   21.0405 C   0  0  0  0  0  0
  -24.3614   -9.4204   21.9182 C   0  0  0  0  0  0
  -23.6289   -8.2240   22.0753 C   0  0  0  0  0  0
  -22.4272   -8.0279   21.3543 C   0  0  0  0  0  0
  -21.9906   -9.0252   20.4646 C   0  0  0  0  0  0
  -22.7233  -10.2131   20.3055 C   0  0  0  0  0  0
  -21.6849   -6.0733   22.5277 C   0  0  0  0  0  0
  -21.4009   -6.5640   23.8211 C   0  0  0  0  0  0
  -21.3657   -5.6792   24.9173 C   0  0  0  0  0  0
  -21.6045   -4.3055   24.7223 C   0  0  0  0  0  0
  -21.8822   -3.8148   23.4345 C   0  0  0  0  0  0
  -21.9196   -4.6962   22.3400 C   0  0  0  0  0  0
  -22.7860  -13.5232   21.1850 C   0  0  0  0  0  0
  -22.1664   -4.2150   21.0977 F   0  0  0  0  0  0
  -21.5629   -3.4539   25.7736 F   0  0  0  0  0  0
  -30.0192  -13.3706   20.4194 N   0  0  0  0  0  0
  -26.3001  -12.9331   20.3323 N   0  0  0  0  0  0
  -25.9320  -11.6491   20.5758 N   0  0  0  0  0  0
  -22.0504  -12.8224   22.0408 N   0  0  0  0  0  0
  -25.4297  -15.1877   20.4090 N   0  0  0  0  0  0
  -31.8087  -14.7556   20.1530 O   0  0  0  0  0  0
  -21.6640   -6.8876   21.4240 O   0  0  0  0  0  0
  -22.3546  -14.5539   20.6699 O   0  0  0  0  0  0
  -24.6217  -31.8617   23.2049 C   0  0  0  0  0  0
  -25.9074  -32.4789   23.8362 C   0  0  1  0  0  0
  -27.2269  -27.3544   20.1059 C   0  0  0  0  0  0
  -25.5893  -33.8590   24.2282 N   0  0  0  0  0  0
  -23.4135  -30.4862   21.5478 C   0  0  2  0  0  0
  -24.8595  -28.9469   20.1117 C   0  0  0  0  0  0
  -22.7445  -29.4632   22.4956 C   0  0  0  0  0  0
  -18.0275  -28.1375   22.8492 C   0  0  0  0  0  0
  -24.1483  -36.7311   23.2640 C   0  0  0  0  0  0
  -25.9514  -30.8039   21.3703 C   0  0  0  0  0  0
  -26.0264  -29.4340   20.7127 C   0  0  0  0  0  0
  -27.2130  -28.6491   20.7011 C   0  0  0  0  0  0
  -26.0340  -26.9089   19.4888 C   0  0  0  0  0  0
  -24.8627  -27.6878   19.4930 C   0  0  0  0  0  0
  -23.6254  -29.8215   20.1628 C   0  0  0  0  0  0
  -25.4105  -36.3093   24.0332 C   0  0  1  0  0  0
  -20.5874  -28.3675   23.1296 C   0  0  2  0  0  0
  -20.6765  -26.9401   22.5416 C   0  0  0  0  0  0
  -19.5742  -26.6382   21.5214 C   0  0  0  0  0  0
  -18.1919  -26.7920   22.1627 C   0  0  0  0  0  0
  -19.1530  -28.8841   23.2886 C   0  0  0  0  0  0
  -18.9456  -30.1445   23.8899 C   0  0  0  0  0  0
  -17.6461  -30.6585   24.0561 C   0  0  0  0  0  0
  -25.9042  -34.9460   23.5113 C   0  0  0  0  0  0
  -16.5347  -29.9089   23.6328 C   0  0  0  0  0  0
  -16.7264  -28.6503   23.0354 C   0  0  0  0  0  0
  -26.4469  -31.6591   25.0721 C   0  0  0  0  0  0
  -25.3711  -31.3729   26.1458 C   0  0  0  0  0  0
  -27.0306  -30.3015   24.6158 C   0  0  0  0  0  0
  -27.6028  -32.4328   25.7490 C   0  0  0  0  0  0
  -27.5579  -37.1802   24.8459 C   0  0  0  0  0  0
  -21.4167  -29.3035   22.3695 N   0  0  0  0  0  0
  -26.4288  -37.3784   23.9409 N   0  0  0  0  0  0
  -24.6809  -31.0661   22.0983 N   0  0  0  0  0  0
  -23.4189  -28.8172   23.3019 O   0  0  0  0  0  0
  -28.3652  -26.5439   20.1446 O   0  0  0  0  0  0
  -26.5626  -34.8922   22.4689 O   0  0  0  0  0  0
  -23.5388  -32.1408   23.7397 O   0  0  0  0  0  0
  -29.2185  -22.5345   17.9032 C   0  0  0  0  0  0
  -29.1662  -21.8001   19.1057 C   0  0  0  0  0  0
  -28.9823  -20.3678   19.0114 C   0  0  0  0  0  0
  -28.6079  -19.8707   17.7241 C   0  0  0  0  0  0
  -28.7081  -20.7155   16.5939 C   0  0  0  0  0  0
  -28.0261  -18.4728   17.5240 C   0  0  0  0  0  0
  -27.0176  -20.5931   14.6936 C   0  0  0  0  0  0
  -29.2579  -22.6064   20.4301 C   0  0  0  0  0  0
  -29.1349  -19.3764   20.2144 C   0  0  0  0  0  0
  -28.4334  -20.2410   15.1708 C   0  0  0  0  0  0
  -29.4121  -24.1929   20.3858 C   0  0  0  0  0  0
  -29.9766  -18.0463   19.9660 C   0  0  0  0  0  0
  -30.1778  -17.0513   21.1668 C   0  0  0  0  0  0
  -28.1791  -25.0944   20.0077 C   0  0  0  0  0  0
  -29.0388  -22.0107   16.6842 N   0  0  0  0  0  0
  -29.8575  -15.6135   20.9193 N   0  0  0  0  0  0
  -31.4752  -12.4966   19.1180 H   0  0  0  0  0  0
  -30.3742  -11.3644   19.8542 H   0  0  0  0  0  0
  -29.7495  -11.7519   17.4553 H   0  0  0  0  0  0
  -29.6483  -13.4718   17.7320 H   0  0  0  0  0  0
  -27.8444  -11.2970   18.8407 H   0  0  0  0  0  0
  -27.3667  -12.6010   17.7875 H   0  0  0  0  0  0
  -27.6827  -14.2505   19.5385 H   0  0  0  0  0  0
  -28.7066  -12.0048   21.3452 H   0  0  0  0  0  0
  -28.4587  -13.6492   21.8522 H   0  0  0  0  0  0
  -25.2759   -9.5682   22.4755 H   0  0  0  0  0  0
  -24.0002   -7.4631   22.7470 H   0  0  0  0  0  0
  -21.0839   -8.8769   19.8949 H   0  0  0  0  0  0
  -22.3691  -10.9672   19.6167 H   0  0  0  0  0  0
  -21.1998   -7.6147   23.9711 H   0  0  0  0  0  0
  -21.1476   -6.0523   25.9075 H   0  0  0  0  0  0
  -22.0604   -2.7610   23.2844 H   0  0  0  0  0  0
  -22.4128  -11.9890   22.4797 H   0  0  0  0  0  0
  -21.1124  -13.1247   22.2618 H   0  0  0  0  0  0
  -24.6615  -15.8414   20.5155 H   0  0  0  0  0  0
  -26.2789  -15.6269   20.0776 H   0  0  0  0  0  0
  -26.7141  -32.5466   23.1113 H   0  0  0  0  0  0
  -24.9966  -33.9732   25.0374 H   0  0  0  0  0  0
  -22.7054  -31.3051   21.4070 H   0  0  0  0  0  0
  -23.3736  -35.9652   23.3296 H   0  0  0  0  0  0
  -24.3566  -36.8945   22.2055 H   0  0  0  0  0  0
  -23.7251  -37.6516   23.6672 H   0  0  0  0  0  0
  -26.0745  -31.5682   20.6017 H   0  0  0  0  0  0
  -26.8345  -30.8535   21.9958 H   0  0  0  0  0  0
  -28.1099  -29.0194   21.1776 H   0  0  0  0  0  0
  -25.9778  -25.9480   18.9996 H   0  0  0  0  0  0
  -23.9669  -27.3090   19.0194 H   0  0  0  0  0  0
  -23.7377  -30.5974   19.4045 H   0  0  0  0  0  0
  -22.7463  -29.2469   19.8651 H   0  0  0  0  0  0
  -25.1282  -36.1946   25.0826 H   0  0  0  0  0  0
  -20.9956  -28.3256   24.1421 H   0  0  0  0  0  0
  -20.5665  -26.2284   23.3617 H   0  0  0  0  0  0
  -21.6633  -26.7438   22.1210 H   0  0  0  0  0  0
  -19.6904  -25.6294   21.1242 H   0  0  0  0  0  0
  -19.6679  -27.3197   20.6744 H   0  0  0  0  0  0
  -17.4187  -26.6654   21.4036 H   0  0  0  0  0  0
  -18.0319  -26.0067   22.9028 H   0  0  0  0  0  0
  -19.7937  -30.7246   24.2279 H   0  0  0  0  0  0
  -17.5024  -31.6270   24.5156 H   0  0  0  0  0  0
  -15.5354  -30.2991   23.7661 H   0  0  0  0  0  0
  -15.8659  -28.0829   22.7072 H   0  0  0  0  0  0
  -24.5869  -30.7098   25.7789 H   0  0  0  0  0  0
  -24.8915  -32.2897   26.4897 H   0  0  0  0  0  0
  -25.8033  -30.8894   27.0227 H   0  0  0  0  0  0
  -26.2879  -29.6772   24.1177 H   0  0  0  0  0  0
  -27.4000  -29.7261   25.4654 H   0  0  0  0  0  0
  -27.8744  -30.4294   23.9373 H   0  0  0  0  0  0
  -27.2634  -33.3625   26.2067 H   0  0  0  0  0  0
  -28.3835  -32.6897   25.0320 H   0  0  0  0  0  0
  -28.0695  -31.8456   26.5408 H   0  0  0  0  0  0
  -28.2585  -38.0108   24.7512 H   0  0  0  0  0  0
  -28.1085  -36.2638   24.6273 H   0  0  0  0  0  0
  -27.2294  -37.1440   25.8860 H   0  0  0  0  0  0
  -20.9335  -29.8773   21.6921 H   0  0  0  0  0  0
  -26.0169  -38.2859   24.1416 H   0  0  0  0  0  0
  -29.4043  -23.5958   17.8917 H   0  0  0  0  0  0
  -27.6071  -18.0602   18.4406 H   0  0  0  0  0  0
  -28.7755  -17.7897   17.1224 H   0  0  0  0  0  0
  -27.1939  -18.4952   16.8212 H   0  0  0  0  0  0
  -26.8542  -20.2426   13.6745 H   0  0  0  0  0  0
  -26.8585  -21.6718   14.7051 H   0  0  0  0  0  0
  -26.2595  -20.1373   15.3302 H   0  0  0  0  0  0
  -30.1199  -22.2119   20.9693 H   0  0  0  0  0  0
  -28.3895  -22.3518   21.0391 H   0  0  0  0  0  0
  -28.1331  -19.1104   20.5540 H   0  0  0  0  0  0
  -29.5898  -19.9102   21.0479 H   0  0  0  0  0  0
  -28.6089  -19.1699   15.0751 H   0  0  0  0  0  0
  -29.1609  -20.7030   14.5016 H   0  0  0  0  0  0
  -30.2696  -24.4641   19.7695 H   0  0  0  0  0  0
  -29.6986  -24.4966   21.3933 H   0  0  0  0  0  0
  -30.9629  -18.3436   19.6081 H   0  0  0  0  0  0
  -29.5714  -17.4535   19.1579 H   0  0  0  0  0  0
  -29.5473  -17.3722   21.9967 H   0  0  0  0  0  0
  -31.2013  -17.1308   21.5363 H   0  0  0  0  0  0
  -27.3410  -24.7877   20.6358 H   0  0  0  0  0  0
  -27.8941  -24.8782   18.9786 H   0  0  0  0  0  0
  -28.9116  -15.3417   21.1434 H   0  0  0  0  0  0
  1 25  1  0  0  0
  1 30  2  0  0  0
  1 86  1  0  0  0
  2  3  1  0  0  0
  2 25  1  0  0  0
  2 87  1  0  0  0
  2 88  1  0  0  0
  3  4  1  0  0  0
  3 89  1  0  0  0
  3 90  1  0  0  0
  4  5  1  0  0  0
  4 91  1  0  0  0
  4 92  1  0  0  0
  5  6  1  0  0  0
  5 26  1  0  0  0
  5 93  1  0  0  0
  6 25  1  0  0  0
  6 94  1  0  0  0
  6 95  1  0  0  0
  7  8  2  0  0  0
  7 26  1  0  0  0
  7 29  1  0  0  0
  8  9  1  0  0  0
  8 22  1  0  0  0
  9 10  1  0  0  0
  9 27  2  0  0  0
 10 11  2  0  0  0
 10 15  1  0  0  0
 11 12  1  0  0  0
 11 96  1  0  0  0
 12 13  2  0  0  0
 12 97  1  0  0  0
 13 14  1  0  0  0
 13 31  1  0  0  0
 14 15  2  0  0  0
 14 98  1  0  0  0
 15 99  1  0  0  0
 16 17  2  0  0  0
 16 21  1  0  0  0
 16 31  1  0  0  0
 17 18  1  0  0  0
 17100  1  0  0  0
 18 19  2  0  0  0
 18101  1  0  0  0
 19 20  1  0  0  0
 19 24  1  0  0  0
 20 21  2  0  0  0
 20102  1  0  0  0
 21 23  1  0  0  0
 22 28  1  0  0  0
 22 32  2  0  0  0
 26 27  1  0  0  0
 28103  1  0  0  0
 28104  1  0  0  0
 29105  1  0  0  0
 29106  1  0  0  0
 33 34  1  0  0  0
 33 66  1  0  0  0
 33 70  2  0  0  0
 34 36  1  0  0  0
 34 59  1  0  0  0
 34107  1  0  0  0
 35 44  2  0  0  0
 35 45  1  0  0  0
 35 68  1  0  0  0
 36 56  1  0  0  0
 36108  1  0  0  0
 37 39  1  0  0  0
 37 47  1  0  0  0
 37 66  1  0  0  0
 37109  1  0  0  0
 38 43  2  0  0  0
 38 46  1  0  0  0
 38 47  1  0  0  0
 39 64  1  0  0  0
 39 67  2  0  0  0
 40 52  1  0  0  0
 40 53  2  0  0  0
 40 58  1  0  0  0
 41110  1  0  0  0
 41111  1  0  0  0
 41112  1  0  0  0
 41 48  1  0  0  0
 42 43  1  0  0  0
 42 66  1  0  0  0
 42113  1  0  0  0
 42114  1  0  0  0
 43 44  1  0  0  0
 44115  1  0  0  0
 45 46  2  0  0  0
 45116  1  0  0  0
 46117  1  0  0  0
 47118  1  0  0  0
 47119  1  0  0  0
 48 56  1  0  0  0
 48 65  1  0  0  0
 48120  1  0  0  0
 49 50  1  0  0  0
 49 53  1  0  0  0
 49 64  1  0  0  0
 49121  1  0  0  0
 50 51  1  0  0  0
 50122  1  0  0  0
 50123  1  0  0  0
 51 52  1  0  0  0
 51124  1  0  0  0
 51125  1  0  0  0
 52126  1  0  0  0
 52127  1  0  0  0
 53 54  1  0  0  0
 54 55  2  0  0  0
 54128  1  0  0  0
 55 57  1  0  0  0
 55129  1  0  0  0
 56 69  2  0  0  0
 57 58  2  0  0  0
 57130  1  0  0  0
 58131  1  0  0  0
 59 60  1  0  0  0
 59 61  1  0  0  0
 59 62  1  0  0  0
 60132  1  0  0  0
 60133  1  0  0  0
 60134  1  0  0  0
 61135  1  0  0  0
 61136  1  0  0  0
 61137  1  0  0  0
 62138  1  0  0  0
 62139  1  0  0  0
 62140  1  0  0  0
 63 65  1  0  0  0
 63141  1  0  0  0
 63142  1  0  0  0
 63143  1  0  0  0
 64144  1  0  0  0
 65145  1  0  0  0
 68 84  1  0  0  0
 71 72  2  0  0  0
 71 85  1  0  0  0
 71146  1  0  0  0
 72 73  1  0  0  0
 72 78  1  0  0  0
 73 74  2  0  0  0
 73 79  1  0  0  0
 74 75  1  0  0  0
 74 76  1  0  0  0
 75 80  1  0  0  0
 75 85  2  0  0  0
 76147  1  0  0  0
 76148  1  0  0  0
 76149  1  0  0  0
 77 80  1  0  0  0
 77150  1  0  0  0
 77151  1  0  0  0
 77152  1  0  0  0
 78 81  1  0  0  0
 78153  1  0  0  0
 78154  1  0  0  0
 79 82  1  0  0  0
 79155  1  0  0  0
 79156  1  0  0  0
 80157  1  0  0  0
 80158  1  0  0  0
 81 84  1  0  0  0
 81159  1  0  0  0
 81160  1  0  0  0
 82 83  1  0  0  0
 82161  1  0  0  0
 82162  1  0  0  0
 83 86  1  0  0  0
 83163  1  0  0  0
 83164  1  0  0  0
 84165  1  0  0  0
 84166  1  0  0  0
 86167  1  0  0  0
M  ISO  4   1 100  68 101  84 101  86 100
M  END
> <chiral flag>
0

> <version>
0

> <s_m_source_file>
/data/baiqing/PycharmProjects/Reinvent-master-3.2/result/LINK_invent/BTK/process_docking_weight1_custom_sum_contain_oxygen_bond_distance_aromatic_linkinvent_7_9_3/rearranged_h_0095.sdf

> <i_m_source_file_index>
8

> <r_mmod_Potential_Energy-OPLS-2005>
-140.81330871582

> <r_mmod_Stretch_Energy-OPLS-2005>
70.7255249023438

> <r_mmod_Bend_Energy-OPLS-2005>
131.184921264648

> <r_mmod_Torsional_Energy-OPLS-2005>
219.791870117188

> <r_mmod_Improper_Torsional_Energy-OPLS-2005>
3.94745063781738

> <r_mmod_Van_der_Waal_Energy-OPLS-2005>
161.331878662109

> <r_mmod_Electrostatic_Energy-OPLS-2005>
-530.807006835938

> <r_mmod_Solvation_Energy-OPLS-2005>
-229.705383300781

> <b_mmod_Minimization_Converged-OPLS-2005>
0

> <r_mmod_RMS_Derivative-OPLS-2005>
0.912286758422852

$$$$
8
                    3D
 Structure written by MMmdl.
160168  0  0  1  0            999 V2000
  -30.6372  -14.6555   20.4411 C   0  0  0  0  0  0
  -30.4323  -12.3953   19.4462 C   0  0  0  0  0  0
  -29.5056  -12.5052   18.2150 C   0  0  0  0  0  0
  -28.0287  -12.3474   18.6241 C   0  0  0  0  0  0
  -27.6513  -13.2218   19.8509 C   0  0  2  0  0  0
  -28.7002  -13.0995   20.9813 C   0  0  0  0  0  0
  -25.2551  -13.8176   20.5631 C   0  0  0  0  0  0
  -24.1827  -13.0438   20.9151 C   0  0  0  0  0  0
  -24.6403  -11.6916   20.8685 C   0  0  0  0  0  0
  -23.9066  -10.4293   21.0376 C   0  0  0  0  0  0
  -24.3625   -9.4211   21.9161 C   0  0  0  0  0  0
  -23.6306   -8.2252   22.0754 C   0  0  0  0  0  0
  -22.4282   -8.0273   21.3561 C   0  0  0  0  0  0
  -21.9909   -9.0227   20.4641 C   0  0  0  0  0  0
  -22.7232  -10.2111   20.3036 C   0  0  0  0  0  0
  -21.6855   -6.0717   22.5275 C   0  0  0  0  0  0
  -21.4018   -6.5630   23.8205 C   0  0  0  0  0  0
  -21.3666   -5.6804   24.9172 C   0  0  0  0  0  0
  -21.6046   -4.3058   24.7245 C   0  0  0  0  0  0
  -21.8827   -3.8131   23.4363 C   0  0  0  0  0  0
  -21.9201   -4.6940   22.3405 C   0  0  0  0  0  0
  -22.7835  -13.5210   21.1828 C   0  0  0  0  0  0
  -22.1653   -4.2127   21.0984 F   0  0  0  0  0  0
  -21.5646   -3.4542   25.7755 F   0  0  0  0  0  0
  -30.0138  -13.4337   20.4105 N   0  0  0  0  0  0
  -26.2992  -12.9380   20.3264 N   0  0  0  0  0  0
  -25.9340  -11.6526   20.5709 N   0  0  0  0  0  0
  -22.0497  -12.8198   22.0386 N   0  0  0  0  0  0
  -25.4253  -15.1902   20.4000 N   0  0  0  0  0  0
  -31.8037  -14.7813   20.0649 O   0  0  0  0  0  0
  -21.6662   -6.8857   21.4240 O   0  0  0  0  0  0
  -22.3491  -14.5488   20.6641 O   0  0  0  0  0  0
  -24.6256  -31.8579   23.2024 C   0  0  0  0  0  0
  -25.9082  -32.4775   23.8348 C   0  0  1  0  0  0
  -27.2401  -27.3321   20.1180 C   0  0  0  0  0  0
  -25.5882  -33.8576   24.2265 N   0  0  0  0  0  0
  -23.4224  -30.4783   21.5442 C   0  0  2  0  0  0
  -24.8710  -28.9258   20.1158 C   0  0  0  0  0  0
  -22.7486  -29.4607   22.4951 C   0  0  0  0  0  0
  -18.0281  -28.1379   22.8488 C   0  0  0  0  0  0
  -24.1491  -36.7281   23.2644 C   0  0  0  0  0  0
  -25.9615  -30.7935   21.3717 C   0  0  0  0  0  0
  -26.0386  -29.4201   20.7126 C   0  0  0  0  0  0
  -27.2291  -28.6363   20.6931 C   0  0  0  0  0  0
  -26.0532  -26.8728   19.5134 C   0  0  0  0  0  0
  -24.8793  -27.6578   19.5041 C   0  0  0  0  0  0
  -23.6381  -29.8060   20.1611 C   0  0  0  0  0  0
  -25.4122  -36.3073   24.0331 C   0  0  1  0  0  0
  -20.5889  -28.3667   23.1298 C   0  0  2  0  0  0
  -20.6775  -26.9380   22.5443 C   0  0  0  0  0  0
  -19.5750  -26.6365   21.5241 C   0  0  0  0  0  0
  -18.1917  -26.7927   22.1640 C   0  0  0  0  0  0
  -19.1538  -28.8834   23.2875 C   0  0  0  0  0  0
  -18.9470  -30.1440   23.8890 C   0  0  0  0  0  0
  -17.6480  -30.6572   24.0566 C   0  0  0  0  0  0
  -25.9057  -34.9455   23.5107 C   0  0  0  0  0  0
  -16.5360  -29.9076   23.6360 C   0  0  0  0  0  0
  -16.7284  -28.6504   23.0353 C   0  0  0  0  0  0
  -26.4464  -31.6604   25.0733 C   0  0  0  0  0  0
  -25.3705  -31.3691   26.1458 C   0  0  0  0  0  0
  -27.0341  -30.3067   24.6180 C   0  0  0  0  0  0
  -27.6046  -32.4338   25.7468 C   0  0  0  0  0  0
  -27.5579  -37.1778   24.8455 C   0  0  0  0  0  0
  -21.4207  -29.3014   22.3680 N   0  0  0  0  0  0
  -26.4300  -37.3770   23.9399 N   0  0  0  0  0  0
  -24.6885  -31.0600   22.0967 N   0  0  0  0  0  0
  -23.4193  -28.8159   23.3048 O   0  0  0  0  0  0
  -28.3908  -26.5368   20.1074 O   0  0  0  0  0  0
  -26.5656  -34.8916   22.4697 O   0  0  0  0  0  0
  -23.5431  -32.1371   23.7363 O   0  0  0  0  0  0
  -30.1922  -21.8273   19.3248 C   0  0  0  0  0  0
  -28.6051  -20.5738   21.0835 C   0  0  0  0  0  0
  -29.1140  -22.5466   19.9266 C   0  0  0  0  0  0
  -29.6906  -19.8530   20.4951 C   0  0  0  0  0  0
  -31.6806  -19.6339   22.6621 C   0  0  0  0  0  0
  -32.6999  -18.2110   20.8546 C   0  0  0  0  0  0
  -28.7536  -24.0135   19.4771 C   0  0  0  0  0  0
  -29.9455  -17.1368   20.0340 C   0  0  0  0  0  0
  -28.3260  -25.1199   20.5279 C   0  0  0  0  0  0
  -30.1029  -18.4018   20.9998 C   0  0  1  0  0  0
  -31.4646  -18.3969   21.7673 C   0  0  0  0  0  0
  -28.3011  -21.8794   20.7916 N   0  0  0  0  0  0
  -30.4722  -20.5087   19.5875 N   0  0  0  0  0  0
  -29.8392  -15.7499   20.6427 N   0  0  0  0  0  0
  -31.4731  -12.5055   19.1410 H   0  0  0  0  0  0
  -30.3601  -11.4055   19.8984 H   0  0  0  0  0  0
  -29.7731  -11.7527   17.4700 H   0  0  0  0  0  0
  -29.6467  -13.4712   17.7299 H   0  0  0  0  0  0
  -27.8562  -11.2925   18.8410 H   0  0  0  0  0  0
  -27.3827  -12.5938   17.7813 H   0  0  0  0  0  0
  -27.6607  -14.2529   19.4981 H   0  0  0  0  0  0
  -28.7188  -12.0843   21.3813 H   0  0  0  0  0  0
  -28.4538  -13.7496   21.8198 H   0  0  0  0  0  0
  -25.2787   -9.5690   22.4692 H   0  0  0  0  0  0
  -24.0028   -7.4647   22.7472 H   0  0  0  0  0  0
  -21.0861   -8.8723   19.8914 H   0  0  0  0  0  0
  -22.3708  -10.9622   19.6108 H   0  0  0  0  0  0
  -21.2004   -7.6145   23.9690 H   0  0  0  0  0  0
  -21.1473   -6.0537   25.9075 H   0  0  0  0  0  0
  -22.0595   -2.7595   23.2876 H   0  0  0  0  0  0
  -22.4211  -11.9953   22.4871 H   0  0  0  0  0  0
  -21.1043  -13.1087   22.2483 H   0  0  0  0  0  0
  -24.6618  -15.8470   20.5179 H   0  0  0  0  0  0
  -26.2802  -15.6268   20.0739 H   0  0  0  0  0  0
  -26.7133  -32.5454   23.1078 H   0  0  0  0  0  0
  -24.9953  -33.9725   25.0350 H   0  0  0  0  0  0
  -22.7199  -31.3003   21.3997 H   0  0  0  0  0  0
  -23.3774  -35.9590   23.3305 H   0  0  0  0  0  0
  -24.3566  -36.8949   22.2056 H   0  0  0  0  0  0
  -23.7244  -37.6474   23.6701 H   0  0  0  0  0  0
  -26.0943  -31.5640   20.6098 H   0  0  0  0  0  0
  -26.8366  -30.8353   22.0066 H   0  0  0  0  0  0
  -28.1335  -29.0187   21.1468 H   0  0  0  0  0  0
  -26.0317  -25.9009   19.0386 H   0  0  0  0  0  0
  -23.9844  -27.2814   19.0274 H   0  0  0  0  0  0
  -23.7503  -30.5833   19.4051 H   0  0  0  0  0  0
  -22.7577  -29.2342   19.8648 H   0  0  0  0  0  0
  -25.1302  -36.1924   25.0831 H   0  0  0  0  0  0
  -20.9978  -28.3245   24.1424 H   0  0  0  0  0  0
  -20.5706  -26.2252   23.3634 H   0  0  0  0  0  0
  -21.6630  -26.7423   22.1209 H   0  0  0  0  0  0
  -19.6918  -25.6271   21.1257 H   0  0  0  0  0  0
  -19.6709  -27.3190   20.6780 H   0  0  0  0  0  0
  -17.4203  -26.6689   21.4018 H   0  0  0  0  0  0
  -18.0275  -26.0079   22.9039 H   0  0  0  0  0  0
  -19.7945  -30.7242   24.2268 H   0  0  0  0  0  0
  -17.5030  -31.6277   24.5114 H   0  0  0  0  0  0
  -15.5348  -30.2947   23.7700 H   0  0  0  0  0  0
  -15.8696  -28.0818   22.7054 H   0  0  0  0  0  0
  -24.5881  -30.7059   25.7725 H   0  0  0  0  0  0
  -24.8865  -32.2825   26.4943 H   0  0  0  0  0  0
  -25.8008  -30.8795   27.0213 H   0  0  0  0  0  0
  -26.2920  -29.6756   24.1291 H   0  0  0  0  0  0
  -27.4152  -29.7368   25.4659 H   0  0  0  0  0  0
  -27.8712  -30.4372   23.9329 H   0  0  0  0  0  0
  -27.2715  -33.3667   26.2030 H   0  0  0  0  0  0
  -28.3837  -32.6887   25.0264 H   0  0  0  0  0  0
  -28.0744  -31.8492   26.5390 H   0  0  0  0  0  0
  -28.2565  -38.0098   24.7568 H   0  0  0  0  0  0
  -28.1109  -36.2648   24.6219 H   0  0  0  0  0  0
  -27.2293  -37.1357   25.8851 H   0  0  0  0  0  0
  -20.9381  -29.8711   21.6867 H   0  0  0  0  0  0
  -26.0185  -38.2834   24.1462 H   0  0  0  0  0  0
  -30.8348  -22.3123   18.6021 H   0  0  0  0  0  0
  -27.9814  -20.1083   21.8331 H   0  0  0  0  0  0
  -32.5387  -19.4903   23.3202 H   0  0  0  0  0  0
  -30.8121  -19.8373   23.2885 H   0  0  0  0  0  0
  -31.8804  -20.5282   22.0683 H   0  0  0  0  0  0
  -33.6277  -18.2565   21.4287 H   0  0  0  0  0  0
  -32.7585  -18.9822   20.0859 H   0  0  0  0  0  0
  -32.6994  -17.2496   20.3465 H   0  0  0  0  0  0
  -27.9922  -23.9477   18.7004 H   0  0  0  0  0  0
  -29.6386  -24.4014   18.9763 H   0  0  0  0  0  0
  -30.7119  -17.1483   19.2579 H   0  0  0  0  0  0
  -29.0161  -17.2662   19.4796 H   0  0  0  0  0  0
  -29.0060  -25.0414   21.3767 H   0  0  0  0  0  0
  -27.3431  -24.8718   20.9304 H   0  0  0  0  0  0
  -29.3569  -18.2181   21.7740 H   0  0  0  0  0  0
  -31.4314  -17.5292   22.4277 H   0  0  0  0  0  0
  -28.9176  -15.5110   20.9789 H   0  0  0  0  0  0
  1 25  1  0  0  0
  1 30  2  0  0  0
  1 84  1  0  0  0
  2  3  1  0  0  0
  2 25  1  0  0  0
  2 85  1  0  0  0
  2 86  1  0  0  0
  3  4  1  0  0  0
  3 87  1  0  0  0
  3 88  1  0  0  0
  4  5  1  0  0  0
  4 89  1  0  0  0
  4 90  1  0  0  0
  5  6  1  0  0  0
  5 26  1  0  0  0
  5 91  1  0  0  0
  6 25  1  0  0  0
  6 92  1  0  0  0
  6 93  1  0  0  0
  7  8  2  0  0  0
  7 26  1  0  0  0
  7 29  1  0  0  0
  8  9  1  0  0  0
  8 22  1  0  0  0
  9 10  1  0  0  0
  9 27  2  0  0  0
 10 11  2  0  0  0
 10 15  1  0  0  0
 11 12  1  0  0  0
 11 94  1  0  0  0
 12 13  2  0  0  0
 12 95  1  0  0  0
 13 14  1  0  0  0
 13 31  1  0  0  0
 14 15  2  0  0  0
 14 96  1  0  0  0
 15 97  1  0  0  0
 16 17  2  0  0  0
 16 21  1  0  0  0
 16 31  1  0  0  0
 17 18  1  0  0  0
 17 98  1  0  0  0
 18 19  2  0  0  0
 18 99  1  0  0  0
 19 20  1  0  0  0
 19 24  1  0  0  0
 20 21  2  0  0  0
 20100  1  0  0  0
 21 23  1  0  0  0
 22 28  1  0  0  0
 22 32  2  0  0  0
 26 27  1  0  0  0
 28101  1  0  0  0
 28102  1  0  0  0
 29103  1  0  0  0
 29104  1  0  0  0
 33 34  1  0  0  0
 33 66  1  0  0  0
 33 70  2  0  0  0
 34 36  1  0  0  0
 34 59  1  0  0  0
 34105  1  0  0  0
 35 44  2  0  0  0
 35 45  1  0  0  0
 35 68  1  0  0  0
 36 56  1  0  0  0
 36106  1  0  0  0
 37 39  1  0  0  0
 37 47  1  0  0  0
 37 66  1  0  0  0
 37107  1  0  0  0
 38 43  2  0  0  0
 38 46  1  0  0  0
 38 47  1  0  0  0
 39 64  1  0  0  0
 39 67  2  0  0  0
 40 52  1  0  0  0
 40 53  2  0  0  0
 40 58  1  0  0  0
 41108  1  0  0  0
 41109  1  0  0  0
 41110  1  0  0  0
 41 48  1  0  0  0
 42 43  1  0  0  0
 42 66  1  0  0  0
 42111  1  0  0  0
 42112  1  0  0  0
 43 44  1  0  0  0
 44113  1  0  0  0
 45 46  2  0  0  0
 45114  1  0  0  0
 46115  1  0  0  0
 47116  1  0  0  0
 47117  1  0  0  0
 48 56  1  0  0  0
 48 65  1  0  0  0
 48118  1  0  0  0
 49 50  1  0  0  0
 49 53  1  0  0  0
 49 64  1  0  0  0
 49119  1  0  0  0
 50 51  1  0  0  0
 50120  1  0  0  0
 50121  1  0  0  0
 51 52  1  0  0  0
 51122  1  0  0  0
 51123  1  0  0  0
 52124  1  0  0  0
 52125  1  0  0  0
 53 54  1  0  0  0
 54 55  2  0  0  0
 54126  1  0  0  0
 55 57  1  0  0  0
 55127  1  0  0  0
 56 69  2  0  0  0
 57 58  2  0  0  0
 57128  1  0  0  0
 58129  1  0  0  0
 59 60  1  0  0  0
 59 61  1  0  0  0
 59 62  1  0  0  0
 60130  1  0  0  0
 60131  1  0  0  0
 60132  1  0  0  0
 61133  1  0  0  0
 61134  1  0  0  0
 61135  1  0  0  0
 62136  1  0  0  0
 62137  1  0  0  0
 62138  1  0  0  0
 63 65  1  0  0  0
 63139  1  0  0  0
 63140  1  0  0  0
 63141  1  0  0  0
 64142  1  0  0  0
 65143  1  0  0  0
 68 79  1  0  0  0
 71 73  2  0  0  0
 71 83  1  0  0  0
 71144  1  0  0  0
 72 74  1  0  0  0
 72 82  2  0  0  0
 72145  1  0  0  0
 73 77  1  0  0  0
 73 82  1  0  0  0
 74 80  1  0  0  0
 74 83  2  0  0  0
 75146  1  0  0  0
 75147  1  0  0  0
 75148  1  0  0  0
 75 81  1  0  0  0
 76 81  1  0  0  0
 76149  1  0  0  0
 76150  1  0  0  0
 76151  1  0  0  0
 77 79  1  0  0  0
 77152  1  0  0  0
 77153  1  0  0  0
 78 84  1  0  0  0
 78154  1  0  0  0
 78155  1  0  0  0
 78 80  1  0  0  0
 79156  1  0  0  0
 79157  1  0  0  0
 80 81  1  0  0  0
 80158  1  0  0  0
 81159  1  0  0  0
 84160  1  0  0  0
M  ISO  4   1 100  68 101  79 101  84 100
M  END
> <chiral flag>
0

> <version>
0

> <s_m_source_file>
/data/baiqing/PycharmProjects/Reinvent-master-3.2/result/LINK_invent/BTK/process_docking_weight1_custom_sum_contain_oxygen_bond_distance_aromatic_linkinvent_7_9_3/rearranged_h_0095.sdf

> <i_m_source_file_index>
9

> <r_mmod_Potential_Energy-OPLS-2005>
148.266662597656

> <r_mmod_Stretch_Energy-OPLS-2005>
87.8888931274414

> <r_mmod_Bend_Energy-OPLS-2005>
148.256561279297

> <r_mmod_Torsional_Energy-OPLS-2005>
225.119995117188

> <r_mmod_Improper_Torsional_Energy-OPLS-2005>
8.72803401947021

> <r_mmod_Van_der_Waal_Energy-OPLS-2005>
137.28727722168

> <r_mmod_Electrostatic_Energy-OPLS-2005>
-283.985992431641

> <r_mmod_Solvation_Energy-OPLS-2005>
-221.857543945312

> <b_mmod_Minimization_Converged-OPLS-2005>
0

> <r_mmod_RMS_Derivative-OPLS-2005>
4.3905234336853

$$$$
9
                    3D
 Structure written by MMmdl.
183191  0  0  1  0            999 V2000
  -30.7329  -14.4287   20.5684 C   0  0  0  0  0  0
  -30.4065  -12.2775   19.4182 C   0  0  0  0  0  0
  -29.4870  -12.4953   18.1993 C   0  0  0  0  0  0
  -28.0040  -12.3777   18.6036 C   0  0  0  0  0  0
  -27.6587  -13.2044   19.8725 C   0  0  2  0  0  0
  -28.6968  -12.9457   20.9839 C   0  0  0  0  0  0
  -25.2572  -13.8154   20.5675 C   0  0  0  0  0  0
  -24.1831  -13.0425   20.9168 C   0  0  0  0  0  0
  -24.6395  -11.6894   20.8738 C   0  0  0  0  0  0
  -23.9074  -10.4292   21.0416 C   0  0  0  0  0  0
  -24.3635   -9.4204   21.9190 C   0  0  0  0  0  0
  -23.6315   -8.2233   22.0761 C   0  0  0  0  0  0
  -22.4302   -8.0283   21.3544 C   0  0  0  0  0  0
  -21.9951   -9.0253   20.4640 C   0  0  0  0  0  0
  -22.7261  -10.2140   20.3056 C   0  0  0  0  0  0
  -21.6839   -6.0764   22.5290 C   0  0  0  0  0  0
  -21.4002   -6.5660   23.8227 C   0  0  0  0  0  0
  -21.3666   -5.6803   24.9181 C   0  0  0  0  0  0
  -21.6049   -4.3066   24.7221 C   0  0  0  0  0  0
  -21.8825   -3.8173   23.4334 C   0  0  0  0  0  0
  -21.9189   -4.6999   22.3398 C   0  0  0  0  0  0
  -22.7854  -13.5217   21.1835 C   0  0  0  0  0  0
  -22.1657   -4.2198   21.0971 F   0  0  0  0  0  0
  -21.5642   -3.4543   25.7722 F   0  0  0  0  0  0
  -30.0247  -13.2686   20.4397 N   0  0  0  0  0  0
  -26.3001  -12.9324   20.3349 N   0  0  0  0  0  0
  -25.9311  -11.6482   20.5756 N   0  0  0  0  0  0
  -22.0495  -12.8192   22.0379 N   0  0  0  0  0  0
  -25.4285  -15.1873   20.4106 N   0  0  0  0  0  0
  -31.8652  -14.5258   20.0913 O   0  0  0  0  0  0
  -21.6645   -6.8900   21.4247 O   0  0  0  0  0  0
  -22.3533  -14.5530   20.6705 O   0  0  0  0  0  0
  -24.6103  -31.8706   23.2128 C   0  0  0  0  0  0
  -25.9012  -32.4845   23.8421 C   0  0  1  0  0  0
  -27.2333  -27.4780   20.0859 C   0  0  0  0  0  0
  -25.5884  -33.8644   24.2349 N   0  0  0  0  0  0
  -23.3965  -30.4934   21.5528 C   0  0  2  0  0  0
  -24.8428  -28.9607   20.1192 C   0  0  0  0  0  0
  -22.7389  -29.4668   22.5022 C   0  0  0  0  0  0
  -18.0267  -28.1383   22.8509 C   0  0  0  0  0  0
  -24.1486  -36.7323   23.2637 C   0  0  0  0  0  0
  -25.9201  -30.8492   21.3590 C   0  0  0  0  0  0
  -25.9989  -29.4853   20.7106 C   0  0  0  0  0  0
  -27.2010  -28.7488   20.6933 C   0  0  0  0  0  0
  -26.0666  -26.9533   19.4951 C   0  0  0  0  0  0
  -24.8675  -27.6925   19.5111 C   0  0  0  0  0  0
  -23.6023  -29.8221   20.1683 C   0  0  0  0  0  0
  -25.4108  -36.3128   24.0336 C   0  0  1  0  0  0
  -20.5854  -28.3657   23.1343 C   0  0  2  0  0  0
  -20.6755  -26.9399   22.5433 C   0  0  0  0  0  0
  -19.5733  -26.6395   21.5228 C   0  0  0  0  0  0
  -18.1911  -26.7937   22.1630 C   0  0  0  0  0  0
  -19.1513  -28.8838   23.2924 C   0  0  0  0  0  0
  -18.9444  -30.1452   23.8924 C   0  0  0  0  0  0
  -17.6443  -30.6587   24.0581 C   0  0  0  0  0  0
  -25.9029  -34.9487   23.5141 C   0  0  0  0  0  0
  -16.5340  -29.9094   23.6332 C   0  0  0  0  0  0
  -16.7258  -28.6516   23.0350 C   0  0  0  0  0  0
  -26.4449  -31.6615   25.0739 C   0  0  0  0  0  0
  -25.3727  -31.3692   26.1490 C   0  0  0  0  0  0
  -27.0284  -30.3074   24.6083 C   0  0  0  0  0  0
  -27.6027  -32.4329   25.7492 C   0  0  0  0  0  0
  -27.5591  -37.1815   24.8461 C   0  0  0  0  0  0
  -21.4123  -29.3030   22.3760 N   0  0  0  0  0  0
  -26.4301  -37.3813   23.9415 N   0  0  0  0  0  0
  -24.6603  -31.0843   22.1017 N   0  0  0  0  0  0
  -23.4176  -28.8216   23.3056 O   0  0  0  0  0  0
  -28.4008  -26.7668   20.0532 O   0  0  0  0  0  0
  -26.5596  -34.8928   22.4704 O   0  0  0  0  0  0
  -23.5310  -32.1435   23.7548 O   0  0  0  0  0  0
  -29.3258  -24.1405   19.2603 C   0  0  0  0  0  0
  -28.4721  -23.2577   21.4919 C   0  0  0  0  0  0
  -29.3430  -22.6890   18.7561 C   0  0  0  0  0  0
  -28.5515  -21.8353   20.9050 C   0  0  0  0  0  0
  -28.3184  -24.3530   20.4117 C   0  0  1  0  0  0
  -32.2068  -17.0707   17.2681 C   0  0  0  0  0  0
  -32.3918  -21.2408   19.0183 C   0  0  0  0  0  0
  -31.8018  -20.4314   21.2913 C   0  0  0  0  0  0
  -33.5934  -18.6111   19.3840 C   0  0  0  0  0  0
  -29.4013  -15.7853   22.1759 C   0  0  0  0  0  0
  -28.4868  -25.7481   21.0419 C   0  0  0  0  0  0
  -31.6118  -18.3538   17.8843 C   0  0  0  0  0  0
  -31.5434  -17.5516   20.3462 C   0  0  0  0  0  0
  -30.2021  -16.7972   20.0768 C   0  0  0  0  0  0
  -30.0443  -20.4006   19.4877 C   0  0  0  0  0  0
  -31.5638  -20.1575   19.7784 C   0  0  0  0  0  0
  -32.0339  -18.6824   19.3580 C   0  0  1  0  0  0
  -30.0370  -15.5593   20.8753 N   0  0  0  0  0  0
  -29.6260  -21.7710   19.8854 N   0  3  1  0  0  0
  -31.4525  -12.3500   19.1137 H   0  0  0  0  0  0
  -30.2921  -11.2639   19.8076 H   0  0  0  0  0  0
  -29.7175  -11.7689   17.4181 H   0  0  0  0  0  0
  -29.6730  -13.4794   17.7653 H   0  0  0  0  0  0
  -27.7922  -11.3228   18.7805 H   0  0  0  0  0  0
  -27.3657  -12.6776   17.7721 H   0  0  0  0  0  0
  -27.7122  -14.2590   19.5982 H   0  0  0  0  0  0
  -28.6689  -11.8936   21.2738 H   0  0  0  0  0  0
  -28.4449  -13.4792   21.8939 H   0  0  0  0  0  0
  -25.2788   -9.5681   22.4758 H   0  0  0  0  0  0
  -24.0037   -7.4632   22.7487 H   0  0  0  0  0  0
  -21.0894   -8.8759   19.8932 H   0  0  0  0  0  0
  -22.3726  -10.9682   19.6167 H   0  0  0  0  0  0
  -21.1976   -7.6167   23.9742 H   0  0  0  0  0  0
  -21.1481   -6.0528   25.9085 H   0  0  0  0  0  0
  -22.0600   -2.7641   23.2813 H   0  0  0  0  0  0
  -22.4114  -11.9847   22.4742 H   0  0  0  0  0  0
  -21.1108  -13.1207   22.2593 H   0  0  0  0  0  0
  -24.6637  -15.8429   20.5285 H   0  0  0  0  0  0
  -26.2893  -15.6300   20.1135 H   0  0  0  0  0  0
  -26.7099  -32.5572   23.1208 H   0  0  0  0  0  0
  -25.0042  -33.9818   25.0501 H   0  0  0  0  0  0
  -22.6853  -31.3092   21.4142 H   0  0  0  0  0  0
  -23.3759  -35.9641   23.3287 H   0  0  0  0  0  0
  -24.3577  -36.8959   22.2056 H   0  0  0  0  0  0
  -23.7217  -37.6514   23.6661 H   0  0  0  0  0  0
  -26.0243  -31.6151   20.5881 H   0  0  0  0  0  0
  -26.8106  -30.9066   21.9735 H   0  0  0  0  0  0
  -28.0997  -29.1514   21.1392 H   0  0  0  0  0  0
  -26.0857  -25.9847   19.0173 H   0  0  0  0  0  0
  -23.9769  -27.2834   19.0543 H   0  0  0  0  0  0
  -23.7070  -30.5948   19.4063 H   0  0  0  0  0  0
  -22.7276  -29.2379   19.8759 H   0  0  0  0  0  0
  -25.1285  -36.2002   25.0832 H   0  0  0  0  0  0
  -20.9946  -28.3213   24.1457 H   0  0  0  0  0  0
  -20.5683  -26.2261   23.3611 H   0  0  0  0  0  0
  -21.6624  -26.7452   22.1211 H   0  0  0  0  0  0
  -19.6887  -25.6315   21.1240 H   0  0  0  0  0  0
  -19.6672  -27.3225   20.6777 H   0  0  0  0  0  0
  -17.4188  -26.6727   21.4017 H   0  0  0  0  0  0
  -18.0277  -26.0065   22.9005 H   0  0  0  0  0  0
  -19.7914  -30.7284   24.2294 H   0  0  0  0  0  0
  -17.4985  -31.6257   24.5196 H   0  0  0  0  0  0
  -15.5340  -30.3000   23.7628 H   0  0  0  0  0  0
  -15.8665  -28.0845   22.7032 H   0  0  0  0  0  0
  -24.5899  -30.7046   25.7814 H   0  0  0  0  0  0
  -24.8914  -32.2839   26.4967 H   0  0  0  0  0  0
  -25.8084  -30.8836   27.0232 H   0  0  0  0  0  0
  -26.2828  -29.6843   24.1137 H   0  0  0  0  0  0
  -27.4085  -29.7296   25.4518 H   0  0  0  0  0  0
  -27.8637  -30.4423   23.9204 H   0  0  0  0  0  0
  -27.2661  -33.3631   26.2081 H   0  0  0  0  0  0
  -28.3823  -32.6895   25.0308 H   0  0  0  0  0  0
  -28.0712  -31.8452   26.5399 H   0  0  0  0  0  0
  -28.2590  -38.0137   24.7547 H   0  0  0  0  0  0
  -28.1111  -36.2667   24.6240 H   0  0  0  0  0  0
  -27.2310  -37.1419   25.8865 H   0  0  0  0  0  0
  -20.9283  -29.8750   21.6983 H   0  0  0  0  0  0
  -26.0189  -38.2885   24.1436 H   0  0  0  0  0  0
  -29.0859  -24.8076   18.4305 H   0  0  0  0  0  0
  -30.3289  -24.4205   19.5861 H   0  0  0  0  0  0
  -29.3705  -23.4490   22.0808 H   0  0  0  0  0  0
  -27.6392  -23.3147   22.1938 H   0  0  0  0  0  0
  -30.1015  -22.5901   17.9783 H   0  0  0  0  0  0
  -28.3908  -22.4294   18.2903 H   0  0  0  0  0  0
  -27.5985  -21.5413   20.4628 H   0  0  0  0  0  0
  -28.7557  -21.1307   21.7126 H   0  0  0  0  0  0
  -27.3121  -24.2748   19.9986 H   0  0  0  0  0  0
  -31.7484  -16.8591   16.3021 H   0  0  0  0  0  0
  -32.0596  -16.1964   17.8999 H   0  0  0  0  0  0
  -33.2769  -17.1699   17.0868 H   0  0  0  0  0  0
  -32.1108  -22.2576   19.2888 H   0  0  0  0  0  0
  -32.2925  -21.1693   17.9366 H   0  0  0  0  0  0
  -33.4545  -21.1977   19.2538 H   0  0  0  0  0  0
  -31.7193  -21.4911   21.5351 H   0  0  0  0  0  0
  -32.7951  -20.1347   21.6240 H   0  0  0  0  0  0
  -31.0785  -19.9184   21.9250 H   0  0  0  0  0  0
  -33.9705  -17.6024   19.2162 H   0  0  0  0  0  0
  -34.0193  -18.9248   20.3347 H   0  0  0  0  0  0
  -34.0474  -19.2157   18.5998 H   0  0  0  0  0  0
  -28.3160  -15.7677   22.0759 H   0  0  0  0  0  0
  -29.6794  -16.7556   22.5876 H   0  0  0  0  0  0
  -29.6958  -15.0344   22.9097 H   0  0  0  0  0  0
  -29.4679  -25.8289   21.5113 H   0  0  0  0  0  0
  -27.7581  -25.8947   21.8432 H   0  0  0  0  0  0
  -30.5283  -18.2832   17.8038 H   0  0  0  0  0  0
  -31.8831  -19.1724   17.2190 H   0  0  0  0  0  0
  -32.3318  -16.8078   20.3671 H   0  0  0  0  0  0
  -31.5438  -17.8890   21.3787 H   0  0  0  0  0  0
  -30.1161  -16.4932   19.0349 H   0  0  0  0  0  0
  -29.3494  -17.4536   20.2515 H   0  0  0  0  0  0
  -29.4439  -19.6661   20.0221 H   0  0  0  0  0  0
  -29.8084  -20.2567   18.4335 H   0  0  0  0  0  0
  -30.4526  -22.1312   20.3388 H   0  0  0  0  0  0
  1 25  1  0  0  0
  1 30  2  0  0  0
  1 88  1  0  0  0
  2  3  1  0  0  0
  2 25  1  0  0  0
  2 90  1  0  0  0
  2 91  1  0  0  0
  3  4  1  0  0  0
  3 92  1  0  0  0
  3 93  1  0  0  0
  4  5  1  0  0  0
  4 94  1  0  0  0
  4 95  1  0  0  0
  5  6  1  0  0  0
  5 26  1  0  0  0
  5 96  1  0  0  0
  6 25  1  0  0  0
  6 97  1  0  0  0
  6 98  1  0  0  0
  7  8  2  0  0  0
  7 26  1  0  0  0
  7 29  1  0  0  0
  8  9  1  0  0  0
  8 22  1  0  0  0
  9 10  1  0  0  0
  9 27  2  0  0  0
 10 11  2  0  0  0
 10 15  1  0  0  0
 11 12  1  0  0  0
 11 99  1  0  0  0
 12 13  2  0  0  0
 12100  1  0  0  0
 13 14  1  0  0  0
 13 31  1  0  0  0
 14 15  2  0  0  0
 14101  1  0  0  0
 15102  1  0  0  0
 16 17  2  0  0  0
 16 21  1  0  0  0
 16 31  1  0  0  0
 17 18  1  0  0  0
 17103  1  0  0  0
 18 19  2  0  0  0
 18104  1  0  0  0
 19 20  1  0  0  0
 19 24  1  0  0  0
 20 21  2  0  0  0
 20105  1  0  0  0
 21 23  1  0  0  0
 22 28  1  0  0  0
 22 32  2  0  0  0
 26 27  1  0  0  0
 28106  1  0  0  0
 28107  1  0  0  0
 29108  1  0  0  0
 29109  1  0  0  0
 33 34  1  0  0  0
 33 66  1  0  0  0
 33 70  2  0  0  0
 34 36  1  0  0  0
 34 59  1  0  0  0
 34110  1  0  0  0
 35 44  2  0  0  0
 35 45  1  0  0  0
 35 68  1  0  0  0
 36 56  1  0  0  0
 36111  1  0  0  0
 37 39  1  0  0  0
 37 47  1  0  0  0
 37 66  1  0  0  0
 37112  1  0  0  0
 38 43  2  0  0  0
 38 46  1  0  0  0
 38 47  1  0  0  0
 39 64  1  0  0  0
 39 67  2  0  0  0
 40 52  1  0  0  0
 40 53  2  0  0  0
 40 58  1  0  0  0
 41113  1  0  0  0
 41114  1  0  0  0
 41115  1  0  0  0
 41 48  1  0  0  0
 42 43  1  0  0  0
 42 66  1  0  0  0
 42116  1  0  0  0
 42117  1  0  0  0
 43 44  1  0  0  0
 44118  1  0  0  0
 45 46  2  0  0  0
 45119  1  0  0  0
 46120  1  0  0  0
 47121  1  0  0  0
 47122  1  0  0  0
 48 56  1  0  0  0
 48 65  1  0  0  0
 48123  1  0  0  0
 49 50  1  0  0  0
 49 53  1  0  0  0
 49 64  1  0  0  0
 49124  1  0  0  0
 50 51  1  0  0  0
 50125  1  0  0  0
 50126  1  0  0  0
 51 52  1  0  0  0
 51127  1  0  0  0
 51128  1  0  0  0
 52129  1  0  0  0
 52130  1  0  0  0
 53 54  1  0  0  0
 54 55  2  0  0  0
 54131  1  0  0  0
 55 57  1  0  0  0
 55132  1  0  0  0
 56 69  2  0  0  0
 57 58  2  0  0  0
 57133  1  0  0  0
 58134  1  0  0  0
 59 60  1  0  0  0
 59 61  1  0  0  0
 59 62  1  0  0  0
 60135  1  0  0  0
 60136  1  0  0  0
 60137  1  0  0  0
 61138  1  0  0  0
 61139  1  0  0  0
 61140  1  0  0  0
 62141  1  0  0  0
 62142  1  0  0  0
 62143  1  0  0  0
 63 65  1  0  0  0
 63144  1  0  0  0
 63145  1  0  0  0
 63146  1  0  0  0
 64147  1  0  0  0
 65148  1  0  0  0
 68 81  1  0  0  0
 71 73  1  0  0  0
 71 75  1  0  0  0
 71149  1  0  0  0
 71150  1  0  0  0
 72 74  1  0  0  0
 72 75  1  0  0  0
 72151  1  0  0  0
 72152  1  0  0  0
 73 89  1  0  0  0
 73153  1  0  0  0
 73154  1  0  0  0
 74 89  1  0  0  0
 74155  1  0  0  0
 74156  1  0  0  0
 75 81  1  0  0  0
 75157  1  0  0  0
 76 82  1  0  0  0
 76158  1  0  0  0
 76159  1  0  0  0
 76160  1  0  0  0
 77161  1  0  0  0
 77162  1  0  0  0
 77163  1  0  0  0
 77 86  1  0  0  0
 78 86  1  0  0  0
 78164  1  0  0  0
 78165  1  0  0  0
 78166  1  0  0  0
 79167  1  0  0  0
 79168  1  0  0  0
 79169  1  0  0  0
 79 87  1  0  0  0
 80 88  1  0  0  0
 80170  1  0  0  0
 80171  1  0  0  0
 80172  1  0  0  0
 81173  1  0  0  0
 81174  1  0  0  0
 82 87  1  0  0  0
 82175  1  0  0  0
 82176  1  0  0  0
 83 84  1  0  0  0
 83 87  1  0  0  0
 83177  1  0  0  0
 83178  1  0  0  0
 84 88  1  0  0  0
 84179  1  0  0  0
 84180  1  0  0  0
 85 86  1  0  0  0
 85181  1  0  0  0
 85182  1  0  0  0
 85 89  1  0  0  0
 86 87  1  0  0  0
 89183  1  0  0  0
M  CHG  1  89   1
M  ISO  4   1 100  68 101  81 101  88 100
M  END
> <chiral flag>
0

> <version>
0

> <s_m_source_file>
/data/baiqing/PycharmProjects/Reinvent-master-3.2/result/LINK_invent/BTK/process_docking_weight1_custom_sum_contain_oxygen_bond_distance_aromatic_linkinvent_7_9_3/rearranged_h_0095.sdf

> <i_m_source_file_index>
10

> <r_mmod_Potential_Energy-OPLS-2005>
163.820739746094

> <r_mmod_Stretch_Energy-OPLS-2005>
51.2737274169922

> <r_mmod_Bend_Energy-OPLS-2005>
128.788391113281

> <r_mmod_Torsional_Energy-OPLS-2005>
389.212677001953

> <r_mmod_Improper_Torsional_Energy-OPLS-2005>
11.2473001480103

> <r_mmod_Van_der_Waal_Energy-OPLS-2005>
172.62580871582

> <r_mmod_Electrostatic_Energy-OPLS-2005>
-207.166122436523

> <r_mmod_Solvation_Energy-OPLS-2005>
-393.472930908203

> <b_mmod_Minimization_Converged-OPLS-2005>
0

> <r_mmod_RMS_Derivative-OPLS-2005>
2.11947298049927

$$$$
10
                    3D
 Structure written by MMmdl.
171179  0  0  1  0            999 V2000
  -30.7033  -14.4068   20.6552 C   0  0  0  0  0  0
  -30.4374  -12.2934   19.3984 C   0  0  0  0  0  0
  -29.5002  -12.5161   18.1931 C   0  0  0  0  0  0
  -28.0190  -12.3847   18.6040 C   0  0  0  0  0  0
  -27.6725  -13.1971   19.8799 C   0  0  2  0  0  0
  -28.7072  -12.9053   20.9878 C   0  0  0  0  0  0
  -25.2656  -13.8122   20.5627 C   0  0  0  0  0  0
  -24.1869  -13.0421   20.9101 C   0  0  0  0  0  0
  -24.6409  -11.6892   20.8679 C   0  0  0  0  0  0
  -23.9047  -10.4296   21.0403 C   0  0  0  0  0  0
  -24.3679   -9.4152   21.9071 C   0  0  0  0  0  0
  -23.6366   -8.2179   22.0634 C   0  0  0  0  0  0
  -22.4268   -8.0290   21.3536 C   0  0  0  0  0  0
  -21.9816   -9.0331   20.4759 C   0  0  0  0  0  0
  -22.7144  -10.2199   20.3165 C   0  0  0  0  0  0
  -21.6861   -6.0720   22.5252 C   0  0  0  0  0  0
  -21.4027   -6.5636   23.8188 C   0  0  0  0  0  0
  -21.3691   -5.6804   24.9167 C   0  0  0  0  0  0
  -21.6073   -4.3066   24.7231 C   0  0  0  0  0  0
  -21.8808   -3.8131   23.4351 C   0  0  0  0  0  0
  -21.9189   -4.6939   22.3396 C   0  0  0  0  0  0
  -22.7939  -13.5263   21.1851 C   0  0  0  0  0  0
  -22.1642   -4.2123   21.0977 F   0  0  0  0  0  0
  -21.5660   -3.4558   25.7746 F   0  0  0  0  0  0
  -30.0502  -13.2299   20.4616 N   0  0  0  0  0  0
  -26.3084  -12.9274   20.3349 N   0  0  0  0  0  0
  -25.9333  -11.6440   20.5715 N   0  0  0  0  0  0
  -22.0716  -12.8370   22.0626 N   0  0  0  0  0  0
  -25.4450  -15.1823   20.4119 N   0  0  0  0  0  0
  -31.7504  -14.7199   20.0815 O   0  0  0  0  0  0
  -21.6658   -6.8873   21.4212 O   0  0  0  0  0  0
  -22.3574  -14.5518   20.6647 O   0  0  0  0  0  0
  -24.6148  -31.8710   23.2085 C   0  0  0  0  0  0
  -25.9050  -32.4833   23.8369 C   0  0  1  0  0  0
  -27.2271  -27.4440   20.0983 C   0  0  0  0  0  0
  -25.5906  -33.8612   24.2342 N   0  0  0  0  0  0
  -23.3987  -30.4938   21.5539 C   0  0  2  0  0  0
  -24.8415  -28.9638   20.1149 C   0  0  0  0  0  0
  -22.7397  -29.4675   22.5029 C   0  0  0  0  0  0
  -18.0273  -28.1368   22.8516 C   0  0  0  0  0  0
  -24.1484  -36.7305   23.2626 C   0  0  0  0  0  0
  -25.9234  -30.8473   21.3466 C   0  0  0  0  0  0
  -26.0035  -29.4803   20.7000 C   0  0  0  0  0  0
  -27.2020  -28.7317   20.6795 C   0  0  0  0  0  0
  -26.0459  -26.9404   19.5084 C   0  0  0  0  0  0
  -24.8582  -27.6943   19.5124 C   0  0  0  0  0  0
  -23.6008  -29.8260   20.1681 C   0  0  0  0  0  0
  -25.4099  -36.3111   24.0342 C   0  0  1  0  0  0
  -20.5871  -28.3652   23.1342 C   0  0  2  0  0  0
  -20.6760  -26.9395   22.5424 C   0  0  0  0  0  0
  -19.5741  -26.6401   21.5206 C   0  0  0  0  0  0
  -18.1924  -26.7922   22.1629 C   0  0  0  0  0  0
  -19.1526  -28.8827   23.2926 C   0  0  0  0  0  0
  -18.9442  -30.1436   23.8931 C   0  0  0  0  0  0
  -17.6442  -30.6580   24.0575 C   0  0  0  0  0  0
  -25.9040  -34.9475   23.5146 C   0  0  0  0  0  0
  -16.5341  -29.9090   23.6320 C   0  0  0  0  0  0
  -16.7259  -28.6510   23.0343 C   0  0  0  0  0  0
  -26.4487  -31.6556   25.0648 C   0  0  0  0  0  0
  -25.3762  -31.3612   26.1392 C   0  0  0  0  0  0
  -27.0262  -30.3021   24.5887 C   0  0  0  0  0  0
  -27.6119  -32.4190   25.7397 C   0  0  0  0  0  0
  -27.5582  -37.1809   24.8473 C   0  0  0  0  0  0
  -21.4133  -29.3023   22.3752 N   0  0  0  0  0  0
  -26.4298  -37.3793   23.9413 N   0  0  0  0  0  0
  -24.6657  -31.0826   22.0978 N   0  0  0  0  0  0
  -23.4185  -28.8239   23.3069 O   0  0  0  0  0  0
  -28.3852  -26.6972   20.1248 O   0  0  0  0  0  0
  -26.5597  -34.8928   22.4700 O   0  0  0  0  0  0
  -23.5352  -32.1429   23.7524 O   0  0  0  0  0  0
  -28.4402  -18.4923   22.5982 C   0  0  0  0  0  0
  -28.9087  -17.1628   22.3482 C   0  0  0  0  0  0
  -27.2495  -18.3041   23.2552 C   0  0  0  0  0  0
  -26.2919  -19.2889   23.8433 C   0  0  0  0  0  0
  -26.3221  -22.9145   20.3963 C   0  0  0  0  0  0
  -29.7533  -24.1941   18.9654 C   0  0  0  0  0  0
  -25.8712  -16.2341   23.8399 C   0  0  0  0  0  0
  -29.0876  -19.8176   22.2528 C   0  0  0  0  0  0
  -30.1904  -16.6662   21.7005 C   0  0  0  0  0  0
  -28.2061  -20.6509   21.2948 C   0  0  0  0  0  0
  -28.6761  -22.1055   21.0503 C   0  0  0  0  0  0
  -28.2472  -25.3676   20.6566 C   0  0  0  0  0  0
  -27.8134  -22.8603   19.9983 C   0  0  2  0  0  0
  -28.3399  -24.2662   19.5678 C   0  0  2  0  0  0
  -28.0301  -16.2527   22.7690 N   0  0  0  0  0  0
  -27.0136  -16.9465   23.3041 N   0  0  0  0  0  0
  -30.0713  -15.2308   21.4913 N   0  0  0  0  0  0
  -31.4790  -12.4165   19.0965 H   0  0  0  0  0  0
  -30.3580  -11.2663   19.7589 H   0  0  0  0  0  0
  -29.7284  -11.7942   17.4067 H   0  0  0  0  0  0
  -29.6849  -13.5022   17.7649 H   0  0  0  0  0  0
  -27.8117  -11.3277   18.7767 H   0  0  0  0  0  0
  -27.3760  -12.6882   17.7769 H   0  0  0  0  0  0
  -27.7373  -14.2571   19.6238 H   0  0  0  0  0  0
  -28.6743  -11.8497   21.2636 H   0  0  0  0  0  0
  -28.4461  -13.4329   21.9041 H   0  0  0  0  0  0
  -25.2905   -9.5588   22.4526 H   0  0  0  0  0  0
  -24.0169   -7.4519   22.7238 H   0  0  0  0  0  0
  -21.0654   -8.8922   19.9206 H   0  0  0  0  0  0
  -22.3516  -10.9805   19.6401 H   0  0  0  0  0  0
  -21.1999   -7.6143   23.9687 H   0  0  0  0  0  0
  -21.1544   -6.0540   25.9077 H   0  0  0  0  0  0
  -22.0558   -2.7586   23.2853 H   0  0  0  0  0  0
  -22.4490  -12.0211   22.5223 H   0  0  0  0  0  0
  -21.1422  -13.1494   22.3036 H   0  0  0  0  0  0
  -24.7123  -15.8495   20.6221 H   0  0  0  0  0  0
  -26.3536  -15.6133   20.2919 H   0  0  0  0  0  0
  -26.7111  -32.5575   23.1134 H   0  0  0  0  0  0
  -25.0073  -33.9770   25.0496 H   0  0  0  0  0  0
  -22.6846  -31.3084   21.4180 H   0  0  0  0  0  0
  -23.3752  -35.9635   23.3302 H   0  0  0  0  0  0
  -24.3614  -36.8892   22.2046 H   0  0  0  0  0  0
  -23.7212  -37.6506   23.6614 H   0  0  0  0  0  0
  -26.0048  -31.6079   20.5685 H   0  0  0  0  0  0
  -26.8246  -30.9212   21.9436 H   0  0  0  0  0  0
  -28.1038  -29.1280   21.1245 H   0  0  0  0  0  0
  -26.0305  -25.9644   19.0474 H   0  0  0  0  0  0
  -23.9623  -27.2921   19.0603 H   0  0  0  0  0  0
  -23.6948  -30.5987   19.4039 H   0  0  0  0  0  0
  -22.7235  -29.2432   19.8827 H   0  0  0  0  0  0
  -25.1257  -36.1999   25.0836 H   0  0  0  0  0  0
  -20.9960  -28.3204   24.1464 H   0  0  0  0  0  0
  -20.5655  -26.2247   23.3591 H   0  0  0  0  0  0
  -21.6628  -26.7441   22.1212 H   0  0  0  0  0  0
  -19.6897  -25.6324   21.1205 H   0  0  0  0  0  0
  -19.6668  -27.3244   20.6759 H   0  0  0  0  0  0
  -17.4184  -26.6683   21.4041 H   0  0  0  0  0  0
  -18.0331  -26.0042   22.9004 H   0  0  0  0  0  0
  -19.7909  -30.7244   24.2325 H   0  0  0  0  0  0
  -17.4991  -31.6262   24.5154 H   0  0  0  0  0  0
  -15.5346  -30.2992   23.7601 H   0  0  0  0  0  0
  -15.8664  -28.0825   22.7029 H   0  0  0  0  0  0
  -24.6035  -30.6833   25.7737 H   0  0  0  0  0  0
  -24.8820  -32.2727   26.4769 H   0  0  0  0  0  0
  -25.8168  -30.8872   27.0174 H   0  0  0  0  0  0
  -26.2806  -29.6898   24.0805 H   0  0  0  0  0  0
  -27.3955  -29.7101   25.4265 H   0  0  0  0  0  0
  -27.8654  -30.4378   23.9054 H   0  0  0  0  0  0
  -27.2862  -33.3541   26.1954 H   0  0  0  0  0  0
  -28.3963  -32.6639   25.0220 H   0  0  0  0  0  0
  -28.0713  -31.8248   26.5298 H   0  0  0  0  0  0
  -28.2612  -38.0099   24.7526 H   0  0  0  0  0  0
  -28.1073  -36.2636   24.6304 H   0  0  0  0  0  0
  -27.2307  -37.1458   25.8879 H   0  0  0  0  0  0
  -20.9279  -29.8728   21.6969 H   0  0  0  0  0  0
  -26.0194  -38.2872   24.1429 H   0  0  0  0  0  0
  -26.7913  -20.2297   24.0739 H   0  0  0  0  0  0
  -25.8673  -18.9147   24.7744 H   0  0  0  0  0  0
  -25.4737  -19.4956   23.1530 H   0  0  0  0  0  0
  -25.8665  -21.9239   20.3787 H   0  0  0  0  0  0
  -25.7447  -23.5305   19.7042 H   0  0  0  0  0  0
  -26.1782  -23.3215   21.3975 H   0  0  0  0  0  0
  -30.0116  -25.1311   18.4709 H   0  0  0  0  0  0
  -29.8250  -23.3996   18.2224 H   0  0  0  0  0  0
  -30.5098  -24.0113   19.7282 H   0  0  0  0  0  0
  -24.9565  -16.6352   23.4043 H   0  0  0  0  0  0
  -25.8329  -16.3629   24.9208 H   0  0  0  0  0  0
  -25.9320  -15.1699   23.6068 H   0  0  0  0  0  0
  -30.0723  -19.6686   21.8095 H   0  0  0  0  0  0
  -29.2631  -20.3888   23.1659 H   0  0  0  0  0  0
  -31.0479  -16.8580   22.3468 H   0  0  0  0  0  0
  -30.3701  -17.1814   20.7572 H   0  0  0  0  0  0
  -27.1976  -20.6933   21.7030 H   0  0  0  0  0  0
  -28.1214  -20.1233   20.3424 H   0  0  0  0  0  0
  -29.7124  -22.0674   20.7143 H   0  0  0  0  0  0
  -28.6805  -22.6540   21.9938 H   0  0  0  0  0  0
  -29.0312  -25.2131   21.3978 H   0  0  0  0  0  0
  -27.3164  -25.2840   21.2183 H   0  0  0  0  0  0
  -27.8460  -22.2531   19.0926 H   0  0  0  0  0  0
  -27.6964  -24.5762   18.7456 H   0  0  0  0  0  0
  -29.2334  -14.8715   21.9324 H   0  0  0  0  0  0
  1 25  1  0  0  0
  1 30  2  0  0  0
  1 87  1  0  0  0
  2  3  1  0  0  0
  2 25  1  0  0  0
  2 88  1  0  0  0
  2 89  1  0  0  0
  3  4  1  0  0  0
  3 90  1  0  0  0
  3 91  1  0  0  0
  4  5  1  0  0  0
  4 92  1  0  0  0
  4 93  1  0  0  0
  5  6  1  0  0  0
  5 26  1  0  0  0
  5 94  1  0  0  0
  6 25  1  0  0  0
  6 95  1  0  0  0
  6 96  1  0  0  0
  7  8  2  0  0  0
  7 26  1  0  0  0
  7 29  1  0  0  0
  8  9  1  0  0  0
  8 22  1  0  0  0
  9 10  1  0  0  0
  9 27  2  0  0  0
 10 11  2  0  0  0
 10 15  1  0  0  0
 11 12  1  0  0  0
 11 97  1  0  0  0
 12 13  2  0  0  0
 12 98  1  0  0  0
 13 14  1  0  0  0
 13 31  1  0  0  0
 14 15  2  0  0  0
 14 99  1  0  0  0
 15100  1  0  0  0
 16 17  2  0  0  0
 16 21  1  0  0  0
 16 31  1  0  0  0
 17 18  1  0  0  0
 17101  1  0  0  0
 18 19  2  0  0  0
 18102  1  0  0  0
 19 20  1  0  0  0
 19 24  1  0  0  0
 20 21  2  0  0  0
 20103  1  0  0  0
 21 23  1  0  0  0
 22 28  1  0  0  0
 22 32  2  0  0  0
 26 27  1  0  0  0
 28104  1  0  0  0
 28105  1  0  0  0
 29106  1  0  0  0
 29107  1  0  0  0
 33 34  1  0  0  0
 33 66  1  0  0  0
 33 70  2  0  0  0
 34 36  1  0  0  0
 34 59  1  0  0  0
 34108  1  0  0  0
 35 44  2  0  0  0
 35 45  1  0  0  0
 35 68  1  0  0  0
 36 56  1  0  0  0
 36109  1  0  0  0
 37 39  1  0  0  0
 37 47  1  0  0  0
 37 66  1  0  0  0
 37110  1  0  0  0
 38 43  2  0  0  0
 38 46  1  0  0  0
 38 47  1  0  0  0
 39 64  1  0  0  0
 39 67  2  0  0  0
 40 52  1  0  0  0
 40 53  2  0  0  0
 40 58  1  0  0  0
 41111  1  0  0  0
 41112  1  0  0  0
 41113  1  0  0  0
 41 48  1  0  0  0
 42 43  1  0  0  0
 42 66  1  0  0  0
 42114  1  0  0  0
 42115  1  0  0  0
 43 44  1  0  0  0
 44116  1  0  0  0
 45 46  2  0  0  0
 45117  1  0  0  0
 46118  1  0  0  0
 47119  1  0  0  0
 47120  1  0  0  0
 48 56  1  0  0  0
 48 65  1  0  0  0
 48121  1  0  0  0
 49 50  1  0  0  0
 49 53  1  0  0  0
 49 64  1  0  0  0
 49122  1  0  0  0
 50 51  1  0  0  0
 50123  1  0  0  0
 50124  1  0  0  0
 51 52  1  0  0  0
 51125  1  0  0  0
 51126  1  0  0  0
 52127  1  0  0  0
 52128  1  0  0  0
 53 54  1  0  0  0
 54 55  2  0  0  0
 54129  1  0  0  0
 55 57  1  0  0  0
 55130  1  0  0  0
 56 69  2  0  0  0
 57 58  2  0  0  0
 57131  1  0  0  0
 58132  1  0  0  0
 59 60  1  0  0  0
 59 61  1  0  0  0
 59 62  1  0  0  0
 60133  1  0  0  0
 60134  1  0  0  0
 60135  1  0  0  0
 61136  1  0  0  0
 61137  1  0  0  0
 61138  1  0  0  0
 62139  1  0  0  0
 62140  1  0  0  0
 62141  1  0  0  0
 63 65  1  0  0  0
 63142  1  0  0  0
 63143  1  0  0  0
 63144  1  0  0  0
 64145  1  0  0  0
 65146  1  0  0  0
 68 82  1  0  0  0
 71 72  1  0  0  0
 71 73  2  0  0  0
 71 78  1  0  0  0
 72 79  1  0  0  0
 72 85  2  0  0  0
 73 74  1  0  0  0
 73 86  1  0  0  0
 74147  1  0  0  0
 74148  1  0  0  0
 74149  1  0  0  0
 75150  1  0  0  0
 75151  1  0  0  0
 75152  1  0  0  0
 75 83  1  0  0  0
 76153  1  0  0  0
 76154  1  0  0  0
 76155  1  0  0  0
 76 84  1  0  0  0
 77 86  1  0  0  0
 77156  1  0  0  0
 77157  1  0  0  0
 77158  1  0  0  0
 78 80  1  0  0  0
 78159  1  0  0  0
 78160  1  0  0  0
 79 87  1  0  0  0
 79161  1  0  0  0
 79162  1  0  0  0
 80 81  1  0  0  0
 80163  1  0  0  0
 80164  1  0  0  0
 81 83  1  0  0  0
 81165  1  0  0  0
 81166  1  0  0  0
 82 84  1  0  0  0
 82167  1  0  0  0
 82168  1  0  0  0
 83 84  1  0  0  0
 83169  1  0  0  0
 84170  1  0  0  0
 85 86  1  0  0  0
 87171  1  0  0  0
M  ISO  4   1 100  68 101  82 101  87 100
M  END
> <chiral flag>
0

> <version>
0

> <s_m_source_file>
/data/baiqing/PycharmProjects/Reinvent-master-3.2/result/LINK_invent/BTK/process_docking_weight1_custom_sum_contain_oxygen_bond_distance_aromatic_linkinvent_7_9_3/rearranged_h_0095.sdf

> <i_m_source_file_index>
11

> <r_mmod_Potential_Energy-OPLS-2005>
-212.306823730469

> <r_mmod_Stretch_Energy-OPLS-2005>
36.0048713684082

> <r_mmod_Bend_Energy-OPLS-2005>
103.109725952148

> <r_mmod_Torsional_Energy-OPLS-2005>
225.460556030273

> <r_mmod_Improper_Torsional_Energy-OPLS-2005>
3.10428261756897

> <r_mmod_Van_der_Waal_Energy-OPLS-2005>
126.618812561035

> <r_mmod_Electrostatic_Energy-OPLS-2005>
-524.055969238281

> <r_mmod_Solvation_Energy-OPLS-2005>
-192.888275146484

> <b_mmod_Minimization_Converged-OPLS-2005>
0

> <r_mmod_RMS_Derivative-OPLS-2005>
3.18893766403198

$$$$
11
                    3D
 Structure written by MMmdl.
174182  0  0  1  0            999 V2000
  -30.6606  -14.6247   20.5244 C   0  0  0  0  0  0
  -30.4280  -12.3868   19.4650 C   0  0  0  0  0  0
  -29.5129  -12.5166   18.2276 C   0  0  0  0  0  0
  -28.0367  -12.3421   18.6296 C   0  0  0  0  0  0
  -27.6494  -13.2174   19.8505 C   0  0  2  0  0  0
  -28.6916  -13.0980   20.9887 C   0  0  0  0  0  0
  -25.2534  -13.8177   20.5642 C   0  0  0  0  0  0
  -24.1842  -13.0435   20.9176 C   0  0  0  0  0  0
  -24.6414  -11.6894   20.8715 C   0  0  0  0  0  0
  -23.9070  -10.4288   21.0383 C   0  0  0  0  0  0
  -24.3618   -9.4206   21.9171 C   0  0  0  0  0  0
  -23.6312   -8.2248   22.0752 C   0  0  0  0  0  0
  -22.4293   -8.0276   21.3541 C   0  0  0  0  0  0
  -21.9904   -9.0239   20.4639 C   0  0  0  0  0  0
  -22.7219  -10.2116   20.3043 C   0  0  0  0  0  0
  -21.6847   -6.0715   22.5279 C   0  0  0  0  0  0
  -21.4011   -6.5638   23.8205 C   0  0  0  0  0  0
  -21.3677   -5.6790   24.9192 C   0  0  0  0  0  0
  -21.6049   -4.3052   24.7228 C   0  0  0  0  0  0
  -21.8811   -3.8131   23.4358 C   0  0  0  0  0  0
  -21.9212   -4.6954   22.3409 C   0  0  0  0  0  0
  -22.7852  -13.5214   21.1845 C   0  0  0  0  0  0
  -22.1658   -4.2144   21.0979 F   0  0  0  0  0  0
  -21.5656   -3.4540   25.7746 F   0  0  0  0  0  0
  -30.0132  -13.4205   20.4323 N   0  0  0  0  0  0
  -26.2968  -12.9369   20.3213 N   0  0  0  0  0  0
  -25.9348  -11.6513   20.5708 N   0  0  0  0  0  0
  -22.0489  -12.8231   22.0403 N   0  0  0  0  0  0
  -25.4241  -15.1929   20.4060 N   0  0  0  0  0  0
  -31.8096  -14.7617   20.1041 O   0  0  0  0  0  0
  -21.6649   -6.8866   21.4238 O   0  0  0  0  0  0
  -22.3535  -14.5526   20.6689 O   0  0  0  0  0  0
  -24.6172  -31.8618   23.2066 C   0  0  0  0  0  0
  -25.9032  -32.4809   23.8361 C   0  0  1  0  0  0
  -27.2230  -27.3723   20.1114 C   0  0  0  0  0  0
  -25.5894  -33.8611   24.2299 N   0  0  0  0  0  0
  -23.4084  -30.4851   21.5488 C   0  0  2  0  0  0
  -24.8552  -28.9419   20.1186 C   0  0  0  0  0  0
  -22.7422  -29.4619   22.4972 C   0  0  0  0  0  0
  -18.0270  -28.1349   22.8483 C   0  0  0  0  0  0
  -24.1498  -36.7300   23.2636 C   0  0  0  0  0  0
  -25.9448  -30.8149   21.3654 C   0  0  0  0  0  0
  -26.0220  -29.4456   20.7094 C   0  0  0  0  0  0
  -27.2138  -28.6736   20.6893 C   0  0  0  0  0  0
  -26.0425  -26.9002   19.5017 C   0  0  0  0  0  0
  -24.8637  -27.6732   19.5100 C   0  0  0  0  0  0
  -23.6183  -29.8147   20.1647 C   0  0  0  0  0  0
  -25.4125  -36.3101   24.0328 C   0  0  1  0  0  0
  -20.5862  -28.3630   23.1315 C   0  0  2  0  0  0
  -20.6757  -26.9364   22.5415 C   0  0  0  0  0  0
  -19.5742  -26.6369   21.5196 C   0  0  0  0  0  0
  -18.1923  -26.7900   22.1607 C   0  0  0  0  0  0
  -19.1521  -28.8805   23.2889 C   0  0  0  0  0  0
  -18.9444  -30.1420   23.8897 C   0  0  0  0  0  0
  -17.6447  -30.6566   24.0545 C   0  0  0  0  0  0
  -25.9043  -34.9476   23.5117 C   0  0  0  0  0  0
  -16.5339  -29.9063   23.6330 C   0  0  0  0  0  0
  -16.7254  -28.6473   23.0357 C   0  0  0  0  0  0
  -26.4458  -31.6605   25.0711 C   0  0  0  0  0  0
  -25.3723  -31.3716   26.1453 C   0  0  0  0  0  0
  -27.0268  -30.3046   24.6101 C   0  0  0  0  0  0
  -27.6027  -32.4333   25.7471 C   0  0  0  0  0  0
  -27.5594  -37.1807   24.8462 C   0  0  0  0  0  0
  -21.4143  -29.3016   22.3737 N   0  0  0  0  0  0
  -26.4311  -37.3792   23.9406 N   0  0  0  0  0  0
  -24.6765  -31.0672   22.0994 N   0  0  0  0  0  0
  -23.4172  -28.8161   23.3026 O   0  0  0  0  0  0
  -28.3613  -26.5766   20.1101 O   0  0  0  0  0  0
  -26.5609  -34.8922   22.4687 O   0  0  0  0  0  0
  -23.5365  -32.1393   23.7453 O   0  0  0  0  0  0
  -27.7730  -21.6199   20.5723 C   0  0  0  0  0  0
  -28.1656  -20.1443   20.9718 C   0  0  0  0  0  0
  -30.3716  -20.4155   19.9767 C   0  0  0  0  0  0
  -28.9548  -22.6081   20.2839 C   0  0  2  0  0  0
  -30.0632  -21.8636   19.4349 C   0  0  1  0  0  0
  -33.5755  -21.5242   19.6005 C   0  0  0  0  0  0
  -32.4587  -21.5501   17.2984 C   0  0  0  0  0  0
  -31.6283  -17.5530   21.1084 C   0  0  0  0  0  0
  -28.4698  -24.0171   19.6880 C   0  0  0  0  0  0
  -31.3406  -22.7621   19.3497 C   0  0  0  0  0  0
  -29.3135  -18.0233   19.9825 C   0  0  0  0  0  0
  -28.2626  -25.2286   20.6751 C   0  0  0  0  0  0
  -32.6337  -22.2740   18.6469 C   0  0  0  0  0  0
  -30.1312  -17.1859   21.0589 C   0  0  2  0  0  0
  -29.9085  -15.6884   20.9538 N   0  0  0  0  0  0
  -29.1639  -19.5490   20.0406 N   0  3  1  0  0  0
  -31.4787  -12.4795   19.1836 H   0  0  0  0  0  0
  -30.3265  -11.3967   19.9090 H   0  0  0  0  0  0
  -29.7835  -11.7853   17.4678 H   0  0  0  0  0  0
  -29.6557  -13.4936   17.7702 H   0  0  0  0  0  0
  -27.8799  -11.2913   18.8643 H   0  0  0  0  0  0
  -27.3852  -12.5506   17.7815 H   0  0  0  0  0  0
  -27.6598  -14.2441   19.4904 H   0  0  0  0  0  0
  -28.7003  -12.0860   21.3941 H   0  0  0  0  0  0
  -28.4321  -13.7454   21.8266 H   0  0  0  0  0  0
  -25.2769   -9.5729   22.4720 H   0  0  0  0  0  0
  -24.0043   -7.4652   22.7478 H   0  0  0  0  0  0
  -21.0823   -8.8715   19.8965 H   0  0  0  0  0  0
  -22.3648  -10.9637   19.6137 H   0  0  0  0  0  0
  -21.1948   -7.6139   23.9718 H   0  0  0  0  0  0
  -21.1523   -6.0517   25.9090 H   0  0  0  0  0  0
  -22.0577   -2.7604   23.2850 H   0  0  0  0  0  0
  -22.4098  -11.9899   22.4801 H   0  0  0  0  0  0
  -21.1094  -13.1253   22.2566 H   0  0  0  0  0  0
  -24.6349  -15.8296   20.4671 H   0  0  0  0  0  0
  -26.2618  -15.6305   20.0449 H   0  0  0  0  0  0
  -26.7098  -32.5481   23.1098 H   0  0  0  0  0  0
  -25.0031  -33.9779   25.0433 H   0  0  0  0  0  0
  -22.6977  -31.3035   21.4093 H   0  0  0  0  0  0
  -23.3780  -35.9611   23.3298 H   0  0  0  0  0  0
  -24.3586  -36.8927   22.2053 H   0  0  0  0  0  0
  -23.7240  -37.6501   23.6656 H   0  0  0  0  0  0
  -26.0698  -31.5861   20.6031 H   0  0  0  0  0  0
  -26.8275  -30.8580   21.9925 H   0  0  0  0  0  0
  -28.1226  -29.0613   21.1330 H   0  0  0  0  0  0
  -26.0348  -25.9308   19.0192 H   0  0  0  0  0  0
  -23.9650  -27.2822   19.0536 H   0  0  0  0  0  0
  -23.7305  -30.5917   19.4067 H   0  0  0  0  0  0
  -22.7382  -29.2393   19.8699 H   0  0  0  0  0  0
  -25.1323  -36.1958   25.0829 H   0  0  0  0  0  0
  -20.9947  -28.3183   24.1420 H   0  0  0  0  0  0
  -20.5640  -26.2224   23.3583 H   0  0  0  0  0  0
  -21.6635  -26.7394   22.1214 H   0  0  0  0  0  0
  -19.6906  -25.6286   21.1207 H   0  0  0  0  0  0
  -19.6707  -27.3184   20.6735 H   0  0  0  0  0  0
  -17.4192  -26.6627   21.4014 H   0  0  0  0  0  0
  -18.0338  -26.0034   22.9003 H   0  0  0  0  0  0
  -19.7926  -30.7230   24.2273 H   0  0  0  0  0  0
  -17.5006  -31.6259   24.5123 H   0  0  0  0  0  0
  -15.5338  -30.2959   23.7669 H   0  0  0  0  0  0
  -15.8647  -28.0795   22.7086 H   0  0  0  0  0  0
  -24.5879  -30.7080   25.7794 H   0  0  0  0  0  0
  -24.8911  -32.2868   26.4927 H   0  0  0  0  0  0
  -25.8061  -30.8867   27.0199 H   0  0  0  0  0  0
  -26.2791  -29.6833   24.1146 H   0  0  0  0  0  0
  -27.4025  -29.7273   25.4555 H   0  0  0  0  0  0
  -27.8648  -30.4382   23.9250 H   0  0  0  0  0  0
  -27.2642  -33.3628   26.2061 H   0  0  0  0  0  0
  -28.3813  -32.6901   25.0279 H   0  0  0  0  0  0
  -28.0696  -31.8438   26.5370 H   0  0  0  0  0  0
  -28.2611  -38.0109   24.7529 H   0  0  0  0  0  0
  -28.1091  -36.2641   24.6269 H   0  0  0  0  0  0
  -27.2289  -37.1428   25.8856 H   0  0  0  0  0  0
  -20.9280  -29.8727   21.6965 H   0  0  0  0  0  0
  -26.0196  -38.2871   24.1413 H   0  0  0  0  0  0
  -27.1541  -22.0426   21.3682 H   0  0  0  0  0  0
  -27.1174  -21.5936   19.7006 H   0  0  0  0  0  0
  -27.2689  -19.5206   20.9755 H   0  0  0  0  0  0
  -28.5621  -20.1193   21.9873 H   0  0  0  0  0  0
  -30.8174  -20.4853   20.9691 H   0  0  0  0  0  0
  -31.0935  -19.9140   19.3359 H   0  0  0  0  0  0
  -29.4149  -22.8251   21.2489 H   0  0  0  0  0  0
  -29.6879  -21.7442   18.4183 H   0  0  0  0  0  0
  -34.5328  -21.3308   19.1164 H   0  0  0  0  0  0
  -33.1705  -20.5649   19.9148 H   0  0  0  0  0  0
  -33.7764  -22.1163   20.4965 H   0  0  0  0  0  0
  -33.4135  -21.5249   16.7664 H   0  0  0  0  0  0
  -31.7480  -22.0546   16.6419 H   0  0  0  0  0  0
  -32.1408  -20.5154   17.4235 H   0  0  0  0  0  0
  -32.0986  -17.4084   20.1372 H   0  0  0  0  0  0
  -32.1640  -16.9413   21.8325 H   0  0  0  0  0  0
  -31.7991  -18.5816   21.4166 H   0  0  0  0  0  0
  -29.1621  -24.3766   18.9323 H   0  0  0  0  0  0
  -27.5511  -23.8763   19.1188 H   0  0  0  0  0  0
  -31.6044  -23.0791   20.3609 H   0  0  0  0  0  0
  -31.0890  -23.6830   18.8274 H   0  0  0  0  0  0
  -28.3039  -17.6100   19.9444 H   0  0  0  0  0  0
  -29.7328  -17.7936   19.0013 H   0  0  0  0  0  0
  -29.0557  -25.1910   21.4218 H   0  0  0  0  0  0
  -27.3365  -25.1000   21.2378 H   0  0  0  0  0  0
  -33.1637  -23.1979   18.3973 H   0  0  0  0  0  0
  -29.7238  -17.4610   22.0317 H   0  0  0  0  0  0
  -29.0054  -15.3951   21.2874 H   0  0  0  0  0  0
  -28.7352  -19.7032   19.1417 H   0  0  0  0  0  0
  1 25  1  0  0  0
  1 30  2  0  0  0
  1 85  1  0  0  0
  2  3  1  0  0  0
  2 25  1  0  0  0
  2 87  1  0  0  0
  2 88  1  0  0  0
  3  4  1  0  0  0
  3 89  1  0  0  0
  3 90  1  0  0  0
  4  5  1  0  0  0
  4 91  1  0  0  0
  4 92  1  0  0  0
  5  6  1  0  0  0
  5 26  1  0  0  0
  5 93  1  0  0  0
  6 25  1  0  0  0
  6 94  1  0  0  0
  6 95  1  0  0  0
  7  8  2  0  0  0
  7 26  1  0  0  0
  7 29  1  0  0  0
  8  9  1  0  0  0
  8 22  1  0  0  0
  9 10  1  0  0  0
  9 27  2  0  0  0
 10 11  2  0  0  0
 10 15  1  0  0  0
 11 12  1  0  0  0
 11 96  1  0  0  0
 12 13  2  0  0  0
 12 97  1  0  0  0
 13 14  1  0  0  0
 13 31  1  0  0  0
 14 15  2  0  0  0
 14 98  1  0  0  0
 15 99  1  0  0  0
 16 17  2  0  0  0
 16 21  1  0  0  0
 16 31  1  0  0  0
 17 18  1  0  0  0
 17100  1  0  0  0
 18 19  2  0  0  0
 18101  1  0  0  0
 19 20  1  0  0  0
 19 24  1  0  0  0
 20 21  2  0  0  0
 20102  1  0  0  0
 21 23  1  0  0  0
 22 28  1  0  0  0
 22 32  2  0  0  0
 26 27  1  0  0  0
 28103  1  0  0  0
 28104  1  0  0  0
 29105  1  0  0  0
 29106  1  0  0  0
 33 34  1  0  0  0
 33 66  1  0  0  0
 33 70  2  0  0  0
 34 36  1  0  0  0
 34 59  1  0  0  0
 34107  1  0  0  0
 35 44  2  0  0  0
 35 45  1  0  0  0
 35 68  1  0  0  0
 36 56  1  0  0  0
 36108  1  0  0  0
 37 39  1  0  0  0
 37 47  1  0  0  0
 37 66  1  0  0  0
 37109  1  0  0  0
 38 43  2  0  0  0
 38 46  1  0  0  0
 38 47  1  0  0  0
 39 64  1  0  0  0
 39 67  2  0  0  0
 40 52  1  0  0  0
 40 53  2  0  0  0
 40 58  1  0  0  0
 41110  1  0  0  0
 41111  1  0  0  0
 41112  1  0  0  0
 41 48  1  0  0  0
 42 43  1  0  0  0
 42 66  1  0  0  0
 42113  1  0  0  0
 42114  1  0  0  0
 43 44  1  0  0  0
 44115  1  0  0  0
 45 46  2  0  0  0
 45116  1  0  0  0
 46117  1  0  0  0
 47118  1  0  0  0
 47119  1  0  0  0
 48 56  1  0  0  0
 48 65  1  0  0  0
 48120  1  0  0  0
 49 50  1  0  0  0
 49 53  1  0  0  0
 49 64  1  0  0  0
 49121  1  0  0  0
 50 51  1  0  0  0
 50122  1  0  0  0
 50123  1  0  0  0
 51 52  1  0  0  0
 51124  1  0  0  0
 51125  1  0  0  0
 52126  1  0  0  0
 52127  1  0  0  0
 53 54  1  0  0  0
 54 55  2  0  0  0
 54128  1  0  0  0
 55 57  1  0  0  0
 55129  1  0  0  0
 56 69  2  0  0  0
 57 58  2  0  0  0
 57130  1  0  0  0
 58131  1  0  0  0
 59 60  1  0  0  0
 59 61  1  0  0  0
 59 62  1  0  0  0
 60132  1  0  0  0
 60133  1  0  0  0
 60134  1  0  0  0
 61135  1  0  0  0
 61136  1  0  0  0
 61137  1  0  0  0
 62138  1  0  0  0
 62139  1  0  0  0
 62140  1  0  0  0
 63 65  1  0  0  0
 63141  1  0  0  0
 63142  1  0  0  0
 63143  1  0  0  0
 64144  1  0  0  0
 65145  1  0  0  0
 68 82  1  0  0  0
 71 72  1  0  0  0
 71 74  1  0  0  0
 71146  1  0  0  0
 71147  1  0  0  0
 72 86  1  0  0  0
 72148  1  0  0  0
 72149  1  0  0  0
 73 75  1  0  0  0
 73 86  1  0  0  0
 73150  1  0  0  0
 73151  1  0  0  0
 74 75  1  0  0  0
 74 79  1  0  0  0
 74152  1  0  0  0
 75 80  1  0  0  0
 75153  1  0  0  0
 76154  1  0  0  0
 76155  1  0  0  0
 76156  1  0  0  0
 76 83  1  0  0  0
 77 83  1  0  0  0
 77157  1  0  0  0
 77158  1  0  0  0
 77159  1  0  0  0
 78160  1  0  0  0
 78161  1  0  0  0
 78162  1  0  0  0
 78 84  1  0  0  0
 79 82  1  0  0  0
 79163  1  0  0  0
 79164  1  0  0  0
 80 83  1  0  0  0
 80165  1  0  0  0
 80166  1  0  0  0
 81 84  1  0  0  0
 81167  1  0  0  0
 81168  1  0  0  0
 81 86  1  0  0  0
 82169  1  0  0  0
 82170  1  0  0  0
 83171  1  0  0  0
 84 85  1  0  0  0
 84172  1  0  0  0
 85173  1  0  0  0
 86174  1  0  0  0
M  CHG  1  86   1
M  ISO  4   1 100  68 101  82 101  85 100
M  END
> <chiral flag>
0

> <version>
0

> <s_m_source_file>
/data/baiqing/PycharmProjects/Reinvent-master-3.2/result/LINK_invent/BTK/process_docking_weight1_custom_sum_contain_oxygen_bond_distance_aromatic_linkinvent_7_9_3/rearranged_h_0095.sdf

> <i_m_source_file_index>
12

> <r_mmod_Potential_Energy-OPLS-2005>
26.9841899871826

> <r_mmod_Stretch_Energy-OPLS-2005>
80.1085891723633

> <r_mmod_Bend_Energy-OPLS-2005>
176.425048828125

> <r_mmod_Torsional_Energy-OPLS-2005>
289.601867675781

> <r_mmod_Improper_Torsional_Energy-OPLS-2005>
3.75044703483582

> <r_mmod_Van_der_Waal_Energy-OPLS-2005>
122.375701904297

> <r_mmod_Electrostatic_Energy-OPLS-2005>
-240.484756469727

> <r_mmod_Solvation_Energy-OPLS-2005>
-440.244171142578

> <b_mmod_Minimization_Converged-OPLS-2005>
0

> <r_mmod_RMS_Derivative-OPLS-2005>
5.50610065460205

$$$$
12
                    3D
 Structure written by MMmdl.
163171  0  0  1  0            999 V2000
  -30.5165  -14.9858   20.4098 C   0  0  0  0  0  0
  -30.4426  -12.6096   19.5120 C   0  0  0  0  0  0
  -29.5240  -12.5304   18.2692 C   0  0  0  0  0  0
  -28.0602  -12.3039   18.6892 C   0  0  0  0  0  0
  -27.6282  -13.2482   19.8406 C   0  0  2  0  0  0
  -28.6675  -13.2897   20.9812 C   0  0  0  0  0  0
  -25.2447  -13.8218   20.5723 C   0  0  0  0  0  0
  -24.1764  -13.0443   20.9240 C   0  0  0  0  0  0
  -24.6385  -11.6930   20.8770 C   0  0  0  0  0  0
  -23.9067  -10.4297   21.0420 C   0  0  0  0  0  0
  -24.3616   -9.4211   21.9189 C   0  0  0  0  0  0
  -23.6294   -8.2238   22.0748 C   0  0  0  0  0  0
  -22.4276   -8.0279   21.3539 C   0  0  0  0  0  0
  -21.9916   -9.0253   20.4636 C   0  0  0  0  0  0
  -22.7239  -10.2134   20.3058 C   0  0  0  0  0  0
  -21.6852   -6.0737   22.5284 C   0  0  0  0  0  0
  -21.4007   -6.5641   23.8217 C   0  0  0  0  0  0
  -21.3655   -5.6794   24.9178 C   0  0  0  0  0  0
  -21.6046   -4.3056   24.7226 C   0  0  0  0  0  0
  -21.8818   -3.8150   23.4348 C   0  0  0  0  0  0
  -21.9189   -4.6968   22.3404 C   0  0  0  0  0  0
  -22.7783  -13.5212   21.1899 C   0  0  0  0  0  0
  -22.1662   -4.2151   21.0979 F   0  0  0  0  0  0
  -21.5626   -3.4545   25.7740 F   0  0  0  0  0  0
  -29.9419  -13.7122   20.3867 N   0  0  0  0  0  0
  -26.2875  -12.9455   20.3264 N   0  0  0  0  0  0
  -25.9318  -11.6587   20.5759 N   0  0  0  0  0  0
  -22.0435  -12.8186   22.0451 N   0  0  0  0  0  0
  -25.4106  -15.1941   20.4130 N   0  0  0  0  0  0
  -31.7129  -15.0578   20.1094 O   0  0  0  0  0  0
  -21.6634   -6.8879   21.4241 O   0  0  0  0  0  0
  -22.3462  -14.5520   20.6750 O   0  0  0  0  0  0
  -24.6470  -31.8396   23.1855 C   0  0  0  0  0  0
  -25.9233  -32.4667   23.8256 C   0  0  1  0  0  0
  -27.2161  -27.1067   20.1523 C   0  0  0  0  0  0
  -25.5970  -33.8478   24.2170 N   0  0  0  0  0  0
  -23.4516  -30.4593   21.5312 C   0  0  2  0  0  0
  -24.8997  -28.8794   20.1077 C   0  0  0  0  0  0
  -22.7605  -29.4518   22.4841 C   0  0  0  0  0  0
  -18.0311  -28.1385   22.8446 C   0  0  0  0  0  0
  -24.1499  -36.7239   23.2641 C   0  0  0  0  0  0
  -26.0094  -30.7020   21.3890 C   0  0  0  0  0  0
  -26.0769  -29.3108   20.7306 C   0  0  0  0  0  0
  -27.2335  -28.4405   20.7373 C   0  0  0  0  0  0
  -26.0156  -26.7856   19.4810 C   0  0  0  0  0  0
  -24.8822  -27.6306   19.4676 C   0  0  0  0  0  0
  -23.6810  -29.7895   20.1506 C   0  0  0  0  0  0
  -25.4128  -36.3003   24.0316 C   0  0  1  0  0  0
  -20.5927  -28.3722   23.1213 C   0  0  2  0  0  0
  -20.6798  -26.9424   22.5384 C   0  0  0  0  0  0
  -19.5769  -26.6370   21.5198 C   0  0  0  0  0  0
  -18.1945  -26.7915   22.1606 C   0  0  0  0  0  0
  -19.1566  -28.8872   23.2814 C   0  0  0  0  0  0
  -18.9490  -30.1463   23.8851 C   0  0  0  0  0  0
  -17.6488  -30.6574   24.0557 C   0  0  0  0  0  0
  -25.9088  -34.9390   23.5044 C   0  0  0  0  0  0
  -16.5379  -29.9068   23.6335 C   0  0  0  0  0  0
  -16.7294  -28.6497   23.0333 C   0  0  0  0  0  0
  -26.4561  -31.6547   25.0713 C   0  0  0  0  0  0
  -25.3737  -31.3715   26.1400 C   0  0  0  0  0  0
  -27.0447  -30.2951   24.6289 C   0  0  0  0  0  0
  -27.6085  -32.4327   25.7492 C   0  0  0  0  0  0
  -27.5564  -37.1770   24.8468 C   0  0  0  0  0  0
  -21.4289  -29.3049   22.3607 N   0  0  0  0  0  0
  -26.4271  -37.3728   23.9418 N   0  0  0  0  0  0
  -24.7227  -31.0226   22.0907 N   0  0  0  0  0  0
  -23.4233  -28.8055   23.2991 O   0  0  0  0  0  0
  -28.2621  -26.1071   20.2460 O   0  0  0  0  0  0
  -26.5670  -34.8897   22.4623 O   0  0  0  0  0  0
  -23.5582  -32.1282   23.7068 O   0  0  0  0  0  0
  -29.0002  -19.8104   23.3455 C   0  0  0  0  0  0
  -28.6668  -20.7644   22.4523 C   0  0  0  0  0  0
  -29.5669  -18.7097   22.6606 C   0  0  0  0  0  0
  -29.4833  -18.9383   21.2919 C   0  0  0  0  0  0
  -27.8161  -16.5461   23.9375 C   0  0  0  0  0  0
  -31.4971  -17.9366   24.0654 C   0  0  0  0  0  0
  -29.9071  -17.7231   20.2686 C   0  0  0  0  0  0
  -29.1906  -16.9532   24.4910 C   0  0  0  0  0  0
  -28.9459  -23.2454   20.5380 C   0  0  0  0  0  0
  -28.8160  -21.5732   20.1339 C   0  0  0  0  0  0
  -28.0420  -24.5738   19.9735 C   0  0  0  0  0  0
  -30.1562  -17.5346   23.4335 C   0  0  1  0  0  0
  -29.0576  -20.3995   21.1755 N   0  0  0  0  0  0
  -29.7180  -16.1616   20.5628 N   0  0  0  0  0  0
  -31.4744  -12.7760   19.1992 H   0  0  0  0  0  0
  -30.4492  -11.6633   20.0553 H   0  0  0  0  0  0
  -29.8537  -11.7298   17.6057 H   0  0  0  0  0  0
  -29.6011  -13.4556   17.6978 H   0  0  0  0  0  0
  -27.9716  -11.2669   19.0153 H   0  0  0  0  0  0
  -27.3936  -12.4116   17.8321 H   0  0  0  0  0  0
  -27.5890  -14.2449   19.4014 H   0  0  0  0  0  0
  -28.7602  -12.3167   21.4659 H   0  0  0  0  0  0
  -28.3581  -13.9910   21.7563 H   0  0  0  0  0  0
  -25.2762   -9.5688   22.4772 H   0  0  0  0  0  0
  -24.0006   -7.4627   22.7469 H   0  0  0  0  0  0
  -21.0850   -8.8769   19.8941 H   0  0  0  0  0  0
  -22.3702  -10.9673   19.6169 H   0  0  0  0  0  0
  -21.1997   -7.6151   23.9723 H   0  0  0  0  0  0
  -21.1477   -6.0522   25.9079 H   0  0  0  0  0  0
  -22.0599   -2.7615   23.2849 H   0  0  0  0  0  0
  -22.4057  -11.9840   22.4821 H   0  0  0  0  0  0
  -21.1050  -13.1189   22.2670 H   0  0  0  0  0  0
  -24.6385  -15.8426   20.5194 H   0  0  0  0  0  0
  -26.2519  -15.6381   20.0698 H   0  0  0  0  0  0
  -26.7293  -32.5263   23.0974 H   0  0  0  0  0  0
  -25.0176  -33.9610   25.0355 H   0  0  0  0  0  0
  -22.7542  -31.2849   21.3757 H   0  0  0  0  0  0
  -23.3771  -35.9556   23.3271 H   0  0  0  0  0  0
  -24.3579  -36.8898   22.2056 H   0  0  0  0  0  0
  -23.7251  -37.6420   23.6712 H   0  0  0  0  0  0
  -26.1692  -31.4505   20.6120 H   0  0  0  0  0  0
  -26.8810  -30.7503   22.0307 H   0  0  0  0  0  0
  -28.1277  -28.7641   21.2506 H   0  0  0  0  0  0
  -25.9194  -25.8351   18.9786 H   0  0  0  0  0  0
  -23.9852  -27.2977   18.9628 H   0  0  0  0  0  0
  -23.8311  -30.5667   19.4010 H   0  0  0  0  0  0
  -22.7938  -29.2415   19.8300 H   0  0  0  0  0  0
  -25.1305  -36.1808   25.0802 H   0  0  0  0  0  0
  -21.0001  -28.3305   24.1343 H   0  0  0  0  0  0
  -20.5693  -26.2343   23.3617 H   0  0  0  0  0  0
  -21.6665  -26.7415   22.1182 H   0  0  0  0  0  0
  -19.6954  -25.6278   21.1239 H   0  0  0  0  0  0
  -19.6704  -27.3172   20.6725 H   0  0  0  0  0  0
  -17.4223  -26.6657   21.4003 H   0  0  0  0  0  0
  -18.0337  -26.0049   22.8999 H   0  0  0  0  0  0
  -19.7972  -30.7277   24.2194 H   0  0  0  0  0  0
  -17.5046  -31.6245   24.5180 H   0  0  0  0  0  0
  -15.5378  -30.2963   23.7679 H   0  0  0  0  0  0
  -15.8694  -28.0819   22.7052 H   0  0  0  0  0  0
  -24.5946  -30.7041   25.7702 H   0  0  0  0  0  0
  -24.8921  -32.2892   26.4778 H   0  0  0  0  0  0
  -25.8021  -30.8908   27.0206 H   0  0  0  0  0  0
  -26.3066  -29.6651   24.1323 H   0  0  0  0  0  0
  -27.4104  -29.7263   25.4844 H   0  0  0  0  0  0
  -27.8946  -30.4204   23.9585 H   0  0  0  0  0  0
  -27.2697  -33.3688   26.1940 H   0  0  0  0  0  0
  -28.3965  -32.6775   25.0359 H   0  0  0  0  0  0
  -28.0686  -31.8537   26.5507 H   0  0  0  0  0  0
  -28.2546  -38.0094   24.7515 H   0  0  0  0  0  0
  -28.1089  -36.2618   24.6285 H   0  0  0  0  0  0
  -27.2288  -37.1395   25.8870 H   0  0  0  0  0  0
  -20.9524  -29.8794   21.6805 H   0  0  0  0  0  0
  -26.0122  -38.2780   24.1441 H   0  0  0  0  0  0
  -28.8680  -19.9061   24.4146 H   0  0  0  0  0  0
  -28.2026  -21.7174   22.6558 H   0  0  0  0  0  0
  -27.2425  -15.9991   24.6862 H   0  0  0  0  0  0
  -27.9117  -15.9056   23.0617 H   0  0  0  0  0  0
  -27.2283  -17.4183   23.6494 H   0  0  0  0  0  0
  -32.2053  -18.2602   23.3017 H   0  0  0  0  0  0
  -31.9528  -17.0973   24.5917 H   0  0  0  0  0  0
  -31.3836  -18.7538   24.7785 H   0  0  0  0  0  0
  -30.9638  -17.8546   20.0325 H   0  0  0  0  0  0
  -29.3978  -17.9053   19.3227 H   0  0  0  0  0  0
  -29.6568  -16.0784   24.9476 H   0  0  0  0  0  0
  -29.0447  -17.6669   25.3027 H   0  0  0  0  0  0
  -29.9817  -23.4954   20.3098 H   0  0  0  0  0  0
  -28.9156  -23.3453   21.6187 H   0  0  0  0  0  0
  -29.4628  -21.3789   19.2778 H   0  0  0  0  0  0
  -27.8073  -21.4179   19.7513 H   0  0  0  0  0  0
  -27.0188  -24.3554   20.2804 H   0  0  0  0  0  0
  -28.0292  -24.4876   18.8870 H   0  0  0  0  0  0
  -30.4054  -16.7222   22.7681 H   0  0  0  0  0  0
  -28.7684  -15.9407   20.8189 H   0  0  0  0  0  0
  1 25  1  0  0  0
  1 30  2  0  0  0
  1 84  1  0  0  0
  2  3  1  0  0  0
  2 25  1  0  0  0
  2 85  1  0  0  0
  2 86  1  0  0  0
  3  4  1  0  0  0
  3 87  1  0  0  0
  3 88  1  0  0  0
  4  5  1  0  0  0
  4 89  1  0  0  0
  4 90  1  0  0  0
  5  6  1  0  0  0
  5 26  1  0  0  0
  5 91  1  0  0  0
  6 25  1  0  0  0
  6 92  1  0  0  0
  6 93  1  0  0  0
  7  8  2  0  0  0
  7 26  1  0  0  0
  7 29  1  0  0  0
  8  9  1  0  0  0
  8 22  1  0  0  0
  9 10  1  0  0  0
  9 27  2  0  0  0
 10 11  2  0  0  0
 10 15  1  0  0  0
 11 12  1  0  0  0
 11 94  1  0  0  0
 12 13  2  0  0  0
 12 95  1  0  0  0
 13 14  1  0  0  0
 13 31  1  0  0  0
 14 15  2  0  0  0
 14 96  1  0  0  0
 15 97  1  0  0  0
 16 17  2  0  0  0
 16 21  1  0  0  0
 16 31  1  0  0  0
 17 18  1  0  0  0
 17 98  1  0  0  0
 18 19  2  0  0  0
 18 99  1  0  0  0
 19 20  1  0  0  0
 19 24  1  0  0  0
 20 21  2  0  0  0
 20100  1  0  0  0
 21 23  1  0  0  0
 22 28  1  0  0  0
 22 32  2  0  0  0
 26 27  1  0  0  0
 28101  1  0  0  0
 28102  1  0  0  0
 29103  1  0  0  0
 29104  1  0  0  0
 33 34  1  0  0  0
 33 66  1  0  0  0
 33 70  2  0  0  0
 34 36  1  0  0  0
 34 59  1  0  0  0
 34105  1  0  0  0
 35 44  2  0  0  0
 35 45  1  0  0  0
 35 68  1  0  0  0
 36 56  1  0  0  0
 36106  1  0  0  0
 37 39  1  0  0  0
 37 47  1  0  0  0
 37 66  1  0  0  0
 37107  1  0  0  0
 38 43  2  0  0  0
 38 46  1  0  0  0
 38 47  1  0  0  0
 39 64  1  0  0  0
 39 67  2  0  0  0
 40 52  1  0  0  0
 40 53  2  0  0  0
 40 58  1  0  0  0
 41108  1  0  0  0
 41109  1  0  0  0
 41110  1  0  0  0
 41 48  1  0  0  0
 42 43  1  0  0  0
 42 66  1  0  0  0
 42111  1  0  0  0
 42112  1  0  0  0
 43 44  1  0  0  0
 44113  1  0  0  0
 45 46  2  0  0  0
 45114  1  0  0  0
 46115  1  0  0  0
 47116  1  0  0  0
 47117  1  0  0  0
 48 56  1  0  0  0
 48 65  1  0  0  0
 48118  1  0  0  0
 49 50  1  0  0  0
 49 53  1  0  0  0
 49 64  1  0  0  0
 49119  1  0  0  0
 50 51  1  0  0  0
 50120  1  0  0  0
 50121  1  0  0  0
 51 52  1  0  0  0
 51122  1  0  0  0
 51123  1  0  0  0
 52124  1  0  0  0
 52125  1  0  0  0
 53 54  1  0  0  0
 54 55  2  0  0  0
 54126  1  0  0  0
 55 57  1  0  0  0
 55127  1  0  0  0
 56 69  2  0  0  0
 57 58  2  0  0  0
 57128  1  0  0  0
 58129  1  0  0  0
 59 60  1  0  0  0
 59 61  1  0  0  0
 59 62  1  0  0  0
 60130  1  0  0  0
 60131  1  0  0  0
 60132  1  0  0  0
 61133  1  0  0  0
 61134  1  0  0  0
 61135  1  0  0  0
 62136  1  0  0  0
 62137  1  0  0  0
 62138  1  0  0  0
 63 65  1  0  0  0
 63139  1  0  0  0
 63140  1  0  0  0
 63141  1  0  0  0
 64142  1  0  0  0
 65143  1  0  0  0
 68 81  1  0  0  0
 71 72  2  0  0  0
 71 73  1  0  0  0
 71144  1  0  0  0
 72 83  1  0  0  0
 72145  1  0  0  0
 73 74  2  0  0  0
 73 82  1  0  0  0
 74 77  1  0  0  0
 74 83  1  0  0  0
 75 78  1  0  0  0
 75146  1  0  0  0
 75147  1  0  0  0
 75148  1  0  0  0
 76149  1  0  0  0
 76150  1  0  0  0
 76151  1  0  0  0
 76 82  1  0  0  0
 77 84  1  0  0  0
 77152  1  0  0  0
 77153  1  0  0  0
 78 82  1  0  0  0
 78154  1  0  0  0
 78155  1  0  0  0
 79 80  1  0  0  0
 79 81  1  0  0  0
 79156  1  0  0  0
 79157  1  0  0  0
 80 83  1  0  0  0
 80158  1  0  0  0
 80159  1  0  0  0
 81160  1  0  0  0
 81161  1  0  0  0
 82162  1  0  0  0
 84163  1  0  0  0
M  ISO  4   1 100  68 101  81 101  84 100
M  END
> <chiral flag>
0

> <version>
0

> <s_m_source_file>
/data/baiqing/PycharmProjects/Reinvent-master-3.2/result/LINK_invent/BTK/process_docking_weight1_custom_sum_contain_oxygen_bond_distance_aromatic_linkinvent_7_9_3/rearranged_h_0095.sdf

> <i_m_source_file_index>
13

> <r_mmod_Potential_Energy-OPLS-2005>
579.161804199219

> <r_mmod_Stretch_Energy-OPLS-2005>
328.648590087891

> <r_mmod_Bend_Energy-OPLS-2005>
324.245635986328

> <r_mmod_Torsional_Energy-OPLS-2005>
229.448287963867

> <r_mmod_Improper_Torsional_Energy-OPLS-2005>
5.21586084365845

> <r_mmod_Van_der_Waal_Energy-OPLS-2005>
112.231636047363

> <r_mmod_Electrostatic_Energy-OPLS-2005>
-433.033447265625

> <r_mmod_Solvation_Energy-OPLS-2005>
-208.937515258789

> <b_mmod_Minimization_Converged-OPLS-2005>
0

> <r_mmod_RMS_Derivative-OPLS-2005>
1.8601108789444

$$$$
13
                    3D
 Structure written by MMmdl.
178186  0  0  1  0            999 V2000
  -30.6030  -14.7264   20.4862 C   0  0  0  0  0  0
  -30.4382  -12.4499   19.4641 C   0  0  0  0  0  0
  -29.5086  -12.5097   18.2307 C   0  0  0  0  0  0
  -28.0346  -12.3327   18.6455 C   0  0  0  0  0  0
  -27.6433  -13.2241   19.8524 C   0  0  2  0  0  0
  -28.6878  -13.1381   20.9868 C   0  0  0  0  0  0
  -25.2510  -13.8099   20.5670 C   0  0  0  0  0  0
  -24.1801  -13.0379   20.9203 C   0  0  0  0  0  0
  -24.6402  -11.6868   20.8755 C   0  0  0  0  0  0
  -23.9068  -10.4265   21.0410 C   0  0  0  0  0  0
  -24.3617   -9.4185   21.9184 C   0  0  0  0  0  0
  -23.6294   -8.2227   22.0757 C   0  0  0  0  0  0
  -22.4271   -8.0269   21.3543 C   0  0  0  0  0  0
  -21.9908   -9.0237   20.4645 C   0  0  0  0  0  0
  -22.7242  -10.2114   20.3059 C   0  0  0  0  0  0
  -21.6853   -6.0731   22.5279 C   0  0  0  0  0  0
  -21.4016   -6.5640   23.8208 C   0  0  0  0  0  0
  -21.3656   -5.6795   24.9175 C   0  0  0  0  0  0
  -21.6044   -4.3058   24.7227 C   0  0  0  0  0  0
  -21.8825   -3.8145   23.4350 C   0  0  0  0  0  0
  -21.9197   -4.6958   22.3405 C   0  0  0  0  0  0
  -22.7831  -13.5188   21.1865 C   0  0  0  0  0  0
  -22.1668   -4.2148   21.0985 F   0  0  0  0  0  0
  -21.5622   -3.4545   25.7736 F   0  0  0  0  0  0
  -29.9895  -13.4973   20.4080 N   0  0  0  0  0  0
  -26.2949  -12.9330   20.3281 N   0  0  0  0  0  0
  -25.9332  -11.6481   20.5748 N   0  0  0  0  0  0
  -22.0489  -12.8163   22.0420 N   0  0  0  0  0  0
  -25.4158  -15.1773   20.4029 N   0  0  0  0  0  0
  -31.7882  -14.8510   20.1642 O   0  0  0  0  0  0
  -21.6636   -6.8869   21.4242 O   0  0  0  0  0  0
  -22.3520  -14.5505   20.6731 O   0  0  0  0  0  0
  -24.6314  -31.8570   23.1989 C   0  0  0  0  0  0
  -25.9150  -32.4759   23.8325 C   0  0  1  0  0  0
  -27.2228  -27.2771   20.1276 C   0  0  0  0  0  0
  -25.5959  -33.8555   24.2263 N   0  0  0  0  0  0
  -23.4261  -30.4796   21.5437 C   0  0  2  0  0  0
  -24.8725  -28.9280   20.1141 C   0  0  0  0  0  0
  -22.7503  -29.4615   22.4939 C   0  0  0  0  0  0
  -18.0296  -28.1381   22.8491 C   0  0  0  0  0  0
  -24.1492  -36.7274   23.2638 C   0  0  0  0  0  0
  -25.9707  -30.7777   21.3745 C   0  0  0  0  0  0
  -26.0450  -29.4003   20.7172 C   0  0  0  0  0  0
  -27.2241  -28.5889   20.7094 C   0  0  0  0  0  0
  -26.0262  -26.8721   19.4940 C   0  0  0  0  0  0
  -24.8676  -27.6716   19.4921 C   0  0  0  0  0  0
  -23.6421  -29.8126   20.1608 C   0  0  0  0  0  0
  -25.4121  -36.3069   24.0330 C   0  0  1  0  0  0
  -20.5899  -28.3697   23.1281 C   0  0  2  0  0  0
  -20.6787  -26.9416   22.5419 C   0  0  0  0  0  0
  -19.5754  -26.6382   21.5227 C   0  0  0  0  0  0
  -18.1934  -26.7928   22.1631 C   0  0  0  0  0  0
  -19.1545  -28.8856   23.2877 C   0  0  0  0  0  0
  -18.9464  -30.1464   23.8892 C   0  0  0  0  0  0
  -17.6460  -30.6584   24.0565 C   0  0  0  0  0  0
  -25.9067  -34.9441   23.5096 C   0  0  0  0  0  0
  -16.5355  -29.9080   23.6334 C   0  0  0  0  0  0
  -16.7283  -28.6496   23.0355 C   0  0  0  0  0  0
  -26.4513  -31.6560   25.0700 C   0  0  0  0  0  0
  -25.3730  -31.3703   26.1417 C   0  0  0  0  0  0
  -27.0354  -30.2973   24.6167 C   0  0  0  0  0  0
  -27.6071  -32.4287   25.7484 C   0  0  0  0  0  0
  -27.5583  -37.1796   24.8469 C   0  0  0  0  0  0
  -21.4213  -29.3042   22.3673 N   0  0  0  0  0  0
  -26.4292  -37.3774   23.9414 N   0  0  0  0  0  0
  -24.6950  -31.0557   22.0957 N   0  0  0  0  0  0
  -23.4214  -28.8173   23.3046 O   0  0  0  0  0  0
  -28.3320  -26.4014   20.1688 O   0  0  0  0  0  0
  -26.5626  -34.8923   22.4657 O   0  0  0  0  0  0
  -23.5471  -32.1380   23.7300 O   0  0  0  0  0  0
  -29.3255  -21.1814   19.8896 C   0  0  0  0  0  0
  -29.1977  -20.4955   21.9804 C   0  0  0  0  0  0
  -29.2740  -19.9767   20.7131 C   0  0  0  0  0  0
  -29.2334  -22.3582   20.6382 C   0  0  0  0  0  0
  -29.8492  -25.5099   24.4476 C   0  0  0  0  0  0
  -31.6480  -24.2047   25.6311 C   0  0  0  0  0  0
  -25.1856  -18.6518   20.7926 C   0  0  0  0  0  0
  -26.3940  -19.0267   18.6087 C   0  0  0  0  0  0
  -29.3436  -23.9021   20.2918 C   0  0  0  0  0  0
  -30.3819  -23.1081   23.7317 C   0  0  0  0  0  0
  -27.6586  -17.9958   20.5812 C   0  0  0  0  0  0
  -29.0138  -22.7159   23.1460 C   0  0  0  0  0  0
  -30.1545  -17.3184   20.8695 C   0  0  0  0  0  0
  -28.0972  -24.9199   20.2760 C   0  0  0  0  0  0
  -29.1236  -18.4389   20.3074 C   0  0  2  0  0  0
  -30.2994  -24.1104   24.9023 C   0  0  0  0  0  0
  -26.5367  -18.9766   20.1370 C   0  0  0  0  0  0
  -29.1450  -21.8926   21.9515 N   0  0  0  0  0  0
  -29.8106  -15.8311   20.7432 N   0  0  0  0  0  0
  -31.4770  -12.5882   19.1588 H   0  0  0  0  0  0
  -30.3925  -11.4688   19.9371 H   0  0  0  0  0  0
  -29.7861  -11.7414   17.5077 H   0  0  0  0  0  0
  -29.6323  -13.4674   17.7231 H   0  0  0  0  0  0
  -27.8855  -11.2823   18.8974 H   0  0  0  0  0  0
  -27.3785  -12.5373   17.7992 H   0  0  0  0  0  0
  -27.6409  -14.2482   19.4799 H   0  0  0  0  0  0
  -28.7214  -12.1321   21.4078 H   0  0  0  0  0  0
  -28.4229  -13.8019   21.8104 H   0  0  0  0  0  0
  -25.2768   -9.5660   22.4748 H   0  0  0  0  0  0
  -24.0004   -7.4616   22.7474 H   0  0  0  0  0  0
  -21.0843   -8.8759   19.8938 H   0  0  0  0  0  0
  -22.3711  -10.9653   19.6167 H   0  0  0  0  0  0
  -21.2014   -7.6150   23.9709 H   0  0  0  0  0  0
  -21.1469   -6.0530   25.9077 H   0  0  0  0  0  0
  -22.0609   -2.7606   23.2852 H   0  0  0  0  0  0
  -22.4138  -11.9841   22.4794 H   0  0  0  0  0  0
  -21.1110  -13.1173   22.2641 H   0  0  0  0  0  0
  -24.6376  -15.8173   20.5107 H   0  0  0  0  0  0
  -26.2418  -15.6169   20.0230 H   0  0  0  0  0  0
  -26.7225  -32.5425   23.1077 H   0  0  0  0  0  0
  -25.0127  -33.9687   25.0424 H   0  0  0  0  0  0
  -22.7219  -31.3017   21.3988 H   0  0  0  0  0  0
  -23.3766  -35.9594   23.3290 H   0  0  0  0  0  0
  -24.3586  -36.8902   22.2055 H   0  0  0  0  0  0
  -23.7228  -37.6466   23.6663 H   0  0  0  0  0  0
  -26.1059  -31.5408   20.6069 H   0  0  0  0  0  0
  -26.8494  -30.8263   22.0060 H   0  0  0  0  0  0
  -28.1237  -28.9495   21.1880 H   0  0  0  0  0  0
  -25.9550  -25.9220   18.9893 H   0  0  0  0  0  0
  -23.9707  -27.3061   19.0117 H   0  0  0  0  0  0
  -23.7656  -30.5874   19.4031 H   0  0  0  0  0  0
  -22.7607  -29.2442   19.8581 H   0  0  0  0  0  0
  -25.1300  -36.1912   25.0823 H   0  0  0  0  0  0
  -20.9985  -28.3275   24.1402 H   0  0  0  0  0  0
  -20.5703  -26.2308   23.3622 H   0  0  0  0  0  0
  -21.6656  -26.7456   22.1203 H   0  0  0  0  0  0
  -19.6923  -25.6294   21.1252 H   0  0  0  0  0  0
  -19.6682  -27.3200   20.6757 H   0  0  0  0  0  0
  -17.4215  -26.6697   21.4022 H   0  0  0  0  0  0
  -18.0313  -26.0059   22.9010 H   0  0  0  0  0  0
  -19.7938  -30.7284   24.2254 H   0  0  0  0  0  0
  -17.5012  -31.6261   24.5169 H   0  0  0  0  0  0
  -15.5353  -30.2974   23.7652 H   0  0  0  0  0  0
  -15.8691  -28.0812   22.7064 H   0  0  0  0  0  0
  -24.5931  -30.7024   25.7741 H   0  0  0  0  0  0
  -24.8891  -32.2867   26.4804 H   0  0  0  0  0  0
  -25.8053  -30.8912   27.0211 H   0  0  0  0  0  0
  -26.2928  -29.6720   24.1198 H   0  0  0  0  0  0
  -27.4047  -29.7232   25.4676 H   0  0  0  0  0  0
  -27.8805  -30.4240   23.9394 H   0  0  0  0  0  0
  -27.2684  -33.3594   26.2045 H   0  0  0  0  0  0
  -28.3898  -32.6827   25.0324 H   0  0  0  0  0  0
  -28.0714  -31.8408   26.5412 H   0  0  0  0  0  0
  -28.2601  -38.0093   24.7532 H   0  0  0  0  0  0
  -28.1077  -36.2629   24.6276 H   0  0  0  0  0  0
  -27.2306  -37.1434   25.8871 H   0  0  0  0  0  0
  -20.9408  -29.8735   21.6844 H   0  0  0  0  0  0
  -26.0168  -38.2848   24.1405 H   0  0  0  0  0  0
  -29.3989  -21.1790   18.8102 H   0  0  0  0  0  0
  -29.1149  -19.9792   22.9283 H   0  0  0  0  0  0
  -29.8045  -26.1990   25.2913 H   0  0  0  0  0  0
  -28.8577  -25.4986   23.9961 H   0  0  0  0  0  0
  -30.5406  -25.9298   23.7167 H   0  0  0  0  0  0
  -31.5844  -24.8662   26.4964 H   0  0  0  0  0  0
  -32.4278  -24.5916   24.9741 H   0  0  0  0  0  0
  -31.9710  -23.2281   25.9930 H   0  0  0  0  0  0
  -24.4713  -19.4590   20.6248 H   0  0  0  0  0  0
  -25.2821  -18.5285   21.8712 H   0  0  0  0  0  0
  -24.7422  -17.7445   20.3886 H   0  0  0  0  0  0
  -25.6169  -19.7307   18.3089 H   0  0  0  0  0  0
  -26.1301  -18.0493   18.2014 H   0  0  0  0  0  0
  -27.3200  -19.3479   18.1323 H   0  0  0  0  0  0
  -29.8155  -23.9763   19.3118 H   0  0  0  0  0  0
  -30.0818  -24.3339   20.9671 H   0  0  0  0  0  0
  -31.0244  -23.5144   22.9506 H   0  0  0  0  0  0
  -30.8712  -22.1945   24.0731 H   0  0  0  0  0  0
  -27.5657  -17.8388   21.6559 H   0  0  0  0  0  0
  -27.4821  -17.0243   20.1242 H   0  0  0  0  0  0
  -28.4207  -23.5930   22.9009 H   0  0  0  0  0  0
  -28.4356  -22.1650   23.8894 H   0  0  0  0  0  0
  -30.2797  -17.4961   21.9375 H   0  0  0  0  0  0
  -31.1384  -17.4950   20.4328 H   0  0  0  0  0  0
  -27.5084  -24.7631   21.1794 H   0  0  0  0  0  0
  -27.4703  -24.5873   19.4519 H   0  0  0  0  0  0
  -29.2529  -18.4279   19.2241 H   0  0  0  0  0  0
  -29.5670  -23.7363   25.6198 H   0  0  0  0  0  0
  -26.7712  -19.9823   20.4838 H   0  0  0  0  0  0
  -28.8465  -15.6038   20.9326 H   0  0  0  0  0  0
  1 25  1  0  0  0
  1 30  2  0  0  0
  1 89  1  0  0  0
  2  3  1  0  0  0
  2 25  1  0  0  0
  2 90  1  0  0  0
  2 91  1  0  0  0
  3  4  1  0  0  0
  3 92  1  0  0  0
  3 93  1  0  0  0
  4  5  1  0  0  0
  4 94  1  0  0  0
  4 95  1  0  0  0
  5  6  1  0  0  0
  5 26  1  0  0  0
  5 96  1  0  0  0
  6 25  1  0  0  0
  6 97  1  0  0  0
  6 98  1  0  0  0
  7  8  2  0  0  0
  7 26  1  0  0  0
  7 29  1  0  0  0
  8  9  1  0  0  0
  8 22  1  0  0  0
  9 10  1  0  0  0
  9 27  2  0  0  0
 10 11  2  0  0  0
 10 15  1  0  0  0
 11 12  1  0  0  0
 11 99  1  0  0  0
 12 13  2  0  0  0
 12100  1  0  0  0
 13 14  1  0  0  0
 13 31  1  0  0  0
 14 15  2  0  0  0
 14101  1  0  0  0
 15102  1  0  0  0
 16 17  2  0  0  0
 16 21  1  0  0  0
 16 31  1  0  0  0
 17 18  1  0  0  0
 17103  1  0  0  0
 18 19  2  0  0  0
 18104  1  0  0  0
 19 20  1  0  0  0
 19 24  1  0  0  0
 20 21  2  0  0  0
 20105  1  0  0  0
 21 23  1  0  0  0
 22 28  1  0  0  0
 22 32  2  0  0  0
 26 27  1  0  0  0
 28106  1  0  0  0
 28107  1  0  0  0
 29108  1  0  0  0
 29109  1  0  0  0
 33 34  1  0  0  0
 33 66  1  0  0  0
 33 70  2  0  0  0
 34 36  1  0  0  0
 34 59  1  0  0  0
 34110  1  0  0  0
 35 44  2  0  0  0
 35 45  1  0  0  0
 35 68  1  0  0  0
 36 56  1  0  0  0
 36111  1  0  0  0
 37 39  1  0  0  0
 37 47  1  0  0  0
 37 66  1  0  0  0
 37112  1  0  0  0
 38 43  2  0  0  0
 38 46  1  0  0  0
 38 47  1  0  0  0
 39 64  1  0  0  0
 39 67  2  0  0  0
 40 52  1  0  0  0
 40 53  2  0  0  0
 40 58  1  0  0  0
 41113  1  0  0  0
 41114  1  0  0  0
 41115  1  0  0  0
 41 48  1  0  0  0
 42 43  1  0  0  0
 42 66  1  0  0  0
 42116  1  0  0  0
 42117  1  0  0  0
 43 44  1  0  0  0
 44118  1  0  0  0
 45 46  2  0  0  0
 45119  1  0  0  0
 46120  1  0  0  0
 47121  1  0  0  0
 47122  1  0  0  0
 48 56  1  0  0  0
 48 65  1  0  0  0
 48123  1  0  0  0
 49 50  1  0  0  0
 49 53  1  0  0  0
 49 64  1  0  0  0
 49124  1  0  0  0
 50 51  1  0  0  0
 50125  1  0  0  0
 50126  1  0  0  0
 51 52  1  0  0  0
 51127  1  0  0  0
 51128  1  0  0  0
 52129  1  0  0  0
 52130  1  0  0  0
 53 54  1  0  0  0
 54 55  2  0  0  0
 54131  1  0  0  0
 55 57  1  0  0  0
 55132  1  0  0  0
 56 69  2  0  0  0
 57 58  2  0  0  0
 57133  1  0  0  0
 58134  1  0  0  0
 59 60  1  0  0  0
 59 61  1  0  0  0
 59 62  1  0  0  0
 60135  1  0  0  0
 60136  1  0  0  0
 60137  1  0  0  0
 61138  1  0  0  0
 61139  1  0  0  0
 61140  1  0  0  0
 62141  1  0  0  0
 62142  1  0  0  0
 62143  1  0  0  0
 63 65  1  0  0  0
 63144  1  0  0  0
 63145  1  0  0  0
 63146  1  0  0  0
 64147  1  0  0  0
 65148  1  0  0  0
 68 84  1  0  0  0
 71 73  1  0  0  0
 71 74  2  0  0  0
 71149  1  0  0  0
 72 73  2  0  0  0
 72 88  1  0  0  0
 72150  1  0  0  0
 73 85  1  0  0  0
 74 79  1  0  0  0
 74 88  1  0  0  0
 75151  1  0  0  0
 75152  1  0  0  0
 75153  1  0  0  0
 75 86  1  0  0  0
 76 86  1  0  0  0
 76154  1  0  0  0
 76155  1  0  0  0
 76156  1  0  0  0
 77157  1  0  0  0
 77158  1  0  0  0
 77159  1  0  0  0
 77 87  1  0  0  0
 78 87  1  0  0  0
 78160  1  0  0  0
 78161  1  0  0  0
 78162  1  0  0  0
 79 84  1  0  0  0
 79163  1  0  0  0
 79164  1  0  0  0
 80 82  1  0  0  0
 80 86  1  0  0  0
 80165  1  0  0  0
 80166  1  0  0  0
 81 87  1  0  0  0
 81167  1  0  0  0
 81168  1  0  0  0
 81 85  1  0  0  0
 82 88  1  0  0  0
 82169  1  0  0  0
 82170  1  0  0  0
 83 85  1  0  0  0
 83 89  1  0  0  0
 83171  1  0  0  0
 83172  1  0  0  0
 84173  1  0  0  0
 84174  1  0  0  0
 85175  1  0  0  0
 86176  1  0  0  0
 87177  1  0  0  0
 89178  1  0  0  0
M  ISO  4   1 100  68 101  84 101  89 100
M  END
> <chiral flag>
0

> <version>
0

> <s_m_source_file>
/data/baiqing/PycharmProjects/Reinvent-master-3.2/result/LINK_invent/BTK/process_docking_weight1_custom_sum_contain_oxygen_bond_distance_aromatic_linkinvent_7_9_3/rearranged_h_0095.sdf

> <i_m_source_file_index>
14

> <r_mmod_Potential_Energy-OPLS-2005>
137.567230224609

> <r_mmod_Stretch_Energy-OPLS-2005>
115.497611999512

> <r_mmod_Bend_Energy-OPLS-2005>
165.322158813477

> <r_mmod_Torsional_Energy-OPLS-2005>
242.522430419922

> <r_mmod_Improper_Torsional_Energy-OPLS-2005>
5.61870241165161

> <r_mmod_Van_der_Waal_Energy-OPLS-2005>
107.436019897461

> <r_mmod_Electrostatic_Energy-OPLS-2005>
-381.227325439453

> <r_mmod_Solvation_Energy-OPLS-2005>
-193.096130371094

> <b_mmod_Minimization_Converged-OPLS-2005>
0

> <r_mmod_RMS_Derivative-OPLS-2005>
1.66544556617737

$$$$
14
                    3D
 Structure written by MMmdl.
184192  0  0  1  0            999 V2000
  -30.8601  -14.2462   20.7730 C   0  0  0  0  0  0
  -30.4056  -12.2840   19.3599 C   0  0  0  0  0  0
  -29.4653  -12.5441   18.1748 C   0  0  0  0  0  0
  -27.9987  -12.3876   18.6079 C   0  0  0  0  0  0
  -27.6674  -13.2088   19.8794 C   0  0  2  0  0  0
  -28.7097  -12.9617   20.9928 C   0  0  0  0  0  0
  -25.2604  -13.8185   20.5716 C   0  0  0  0  0  0
  -24.1846  -13.0456   20.9190 C   0  0  0  0  0  0
  -24.6406  -11.6924   20.8741 C   0  0  0  0  0  0
  -23.9069  -10.4304   21.0416 C   0  0  0  0  0  0
  -24.3613   -9.4217   21.9197 C   0  0  0  0  0  0
  -23.6288   -8.2250   22.0761 C   0  0  0  0  0  0
  -22.4275   -8.0282   21.3546 C   0  0  0  0  0  0
  -21.9909   -9.0258   20.4653 C   0  0  0  0  0  0
  -22.7236  -10.2145   20.3066 C   0  0  0  0  0  0
  -21.6852   -6.0736   22.5277 C   0  0  0  0  0  0
  -21.4017   -6.5637   23.8209 C   0  0  0  0  0  0
  -21.3659   -5.6793   24.9171 C   0  0  0  0  0  0
  -21.6045   -4.3056   24.7230 C   0  0  0  0  0  0
  -21.8816   -3.8146   23.4348 C   0  0  0  0  0  0
  -21.9193   -4.6964   22.3399 C   0  0  0  0  0  0
  -22.7865  -13.5244   21.1842 C   0  0  0  0  0  0
  -22.1659   -4.2151   21.0982 F   0  0  0  0  0  0
  -21.5627   -3.4538   25.7741 F   0  0  0  0  0  0
  -30.0626  -13.2001   20.4541 N   0  0  0  0  0  0
  -26.3060  -12.9370   20.3426 N   0  0  0  0  0  0
  -25.9337  -11.6523   20.5781 N   0  0  0  0  0  0
  -22.0498  -12.8238   22.0398 N   0  0  0  0  0  0
  -25.4306  -15.1900   20.4135 N   0  0  0  0  0  0
  -31.7462  -14.6880   20.0336 O   0  0  0  0  0  0
  -21.6639   -6.8882   21.4243 O   0  0  0  0  0  0
  -22.3552  -14.5548   20.6693 O   0  0  0  0  0  0
  -24.6089  -31.8702   23.2134 C   0  0  0  0  0  0
  -25.9018  -32.4821   23.8403 C   0  0  1  0  0  0
  -27.2424  -27.4870   20.0782 C   0  0  0  0  0  0
  -25.5901  -33.8616   24.2320 N   0  0  0  0  0  0
  -23.3923  -30.4918   21.5543 C   0  0  2  0  0  0
  -24.8378  -28.9595   20.1173 C   0  0  0  0  0  0
  -22.7380  -29.4649   22.5038 C   0  0  0  0  0  0
  -18.0244  -28.1369   22.8461 C   0  0  0  0  0  0
  -24.1481  -36.7334   23.2638 C   0  0  0  0  0  0
  -25.9149  -30.8451   21.3639 C   0  0  0  0  0  0
  -25.9937  -29.4852   20.7100 C   0  0  0  0  0  0
  -27.1969  -28.7565   20.6838 C   0  0  0  0  0  0
  -26.0704  -26.9520   19.4964 C   0  0  0  0  0  0
  -24.8699  -27.6885   19.5125 C   0  0  0  0  0  0
  -23.5992  -29.8229   20.1681 C   0  0  0  0  0  0
  -25.4105  -36.3113   24.0318 C   0  0  1  0  0  0
  -20.5827  -28.3646   23.1338 C   0  0  2  0  0  0
  -20.6757  -26.9396   22.5419 C   0  0  0  0  0  0
  -19.5752  -26.6379   21.5201 C   0  0  0  0  0  0
  -18.1918  -26.7907   22.1599 C   0  0  0  0  0  0
  -19.1490  -28.8825   23.2880 C   0  0  0  0  0  0
  -18.9445  -30.1438   23.8899 C   0  0  0  0  0  0
  -17.6451  -30.6597   24.0559 C   0  0  0  0  0  0
  -25.9034  -34.9480   23.5116 C   0  0  0  0  0  0
  -16.5339  -29.9096   23.6324 C   0  0  0  0  0  0
  -16.7239  -28.6514   23.0329 C   0  0  0  0  0  0
  -26.4474  -31.6603   25.0726 C   0  0  0  0  0  0
  -25.3752  -31.3730   26.1494 C   0  0  0  0  0  0
  -27.0310  -30.3045   24.6087 C   0  0  0  0  0  0
  -27.6032  -32.4361   25.7495 C   0  0  0  0  0  0
  -27.5576  -37.1812   24.8451 C   0  0  0  0  0  0
  -21.4111  -29.3015   22.3781 N   0  0  0  0  0  0
  -26.4296  -37.3791   23.9387 N   0  0  0  0  0  0
  -24.6553  -31.0834   22.1023 N   0  0  0  0  0  0
  -23.4169  -28.8218   23.3086 O   0  0  0  0  0  0
  -28.4583  -26.8580   20.0218 O   0  0  0  0  0  0
  -26.5614  -34.8927   22.4689 O   0  0  0  0  0  0
  -23.5298  -32.1454   23.7561 O   0  0  0  0  0  0
  -30.6377  -18.4330   22.4395 C   0  0  0  0  0  0
  -30.1737  -17.3417   23.1152 C   0  0  0  0  0  0
  -28.7447  -17.3693   23.0330 C   0  0  0  0  0  0
  -28.4002  -18.4708   22.2906 C   0  0  0  0  0  0
  -27.0502  -18.9777   21.8762 C   0  0  0  0  0  0
  -26.7683  -17.9949   25.3561 C   0  0  0  0  0  0
  -26.6522  -15.5109   25.7495 C   0  0  0  0  0  0
  -30.9197  -24.6553   22.4084 C   0  0  0  0  0  0
  -27.0754  -25.0152   22.3776 C   0  0  0  0  0  0
  -31.0508  -16.3239   23.8010 C   0  0  0  0  0  0
  -27.7811  -16.3740   23.6469 C   0  0  0  0  0  0
  -29.7232  -21.5781   22.1414 C   0  0  0  0  0  0
  -29.3829  -22.8818   21.4167 C   0  0  0  0  0  0
  -29.6728  -20.3728   21.1924 C   0  0  0  0  0  0
  -31.7541  -15.3957   22.7995 C   0  0  0  0  0  0
  -28.5283  -25.4789   20.3264 C   0  0  0  0  0  0
  -27.4808  -16.6496   25.1362 C   0  0  0  0  0  0
  -29.4731  -24.1344   22.3123 C   0  0  2  0  0  0
  -28.5049  -25.2543   21.8576 C   0  0  2  0  0  0
  -29.5654  -19.1335   21.9388 N   0  0  0  0  0  0
  -30.7916  -14.5780   22.0646 N   0  0  0  0  0  0
  -31.4460  -12.3854   19.0439 H   0  0  0  0  0  0
  -30.3011  -11.2549   19.7075 H   0  0  0  0  0  0
  -29.6882  -11.8566   17.3579 H   0  0  0  0  0  0
  -29.6314  -13.5507   17.7872 H   0  0  0  0  0  0
  -27.8115  -11.3279   18.7886 H   0  0  0  0  0  0
  -27.3350  -12.6770   17.7921 H   0  0  0  0  0  0
  -27.7237  -14.2626   19.6048 H   0  0  0  0  0  0
  -28.6478  -11.9340   21.3530 H   0  0  0  0  0  0
  -28.4745  -13.5970   21.8461 H   0  0  0  0  0  0
  -25.2749   -9.5696   22.4777 H   0  0  0  0  0  0
  -23.9990   -7.4648   22.7485 H   0  0  0  0  0  0
  -21.0831   -8.8781   19.8959 H   0  0  0  0  0  0
  -22.3686  -10.9687   19.6177 H   0  0  0  0  0  0
  -21.2010   -7.6150   23.9718 H   0  0  0  0  0  0
  -21.1484   -6.0525   25.9081 H   0  0  0  0  0  0
  -22.0597   -2.7612   23.2851 H   0  0  0  0  0  0
  -22.4082  -11.9890   22.4786 H   0  0  0  0  0  0
  -21.1124  -13.1302   22.2605 H   0  0  0  0  0  0
  -24.6684  -15.8472   20.5355 H   0  0  0  0  0  0
  -26.2949  -15.6331   20.1273 H   0  0  0  0  0  0
  -26.7094  -32.5556   23.1178 H   0  0  0  0  0  0
  -25.0029  -33.9764   25.0445 H   0  0  0  0  0  0
  -22.6783  -31.3071   21.4188 H   0  0  0  0  0  0
  -23.3730  -35.9681   23.3314 H   0  0  0  0  0  0
  -24.3592  -36.8958   22.2056 H   0  0  0  0  0  0
  -23.7234  -37.6532   23.6671 H   0  0  0  0  0  0
  -26.0250  -31.6112   20.5971 H   0  0  0  0  0  0
  -26.8035  -30.8962   21.9804 H   0  0  0  0  0  0
  -28.0987  -29.1629   21.1235 H   0  0  0  0  0  0
  -26.0810  -25.9921   19.0012 H   0  0  0  0  0  0
  -23.9828  -27.2789   19.0480 H   0  0  0  0  0  0
  -23.7032  -30.5977   19.4074 H   0  0  0  0  0  0
  -22.7225  -29.2401   19.8776 H   0  0  0  0  0  0
  -25.1271  -36.2000   25.0805 H   0  0  0  0  0  0
  -20.9862  -28.3214   24.1475 H   0  0  0  0  0  0
  -20.5697  -26.2257   23.3591 H   0  0  0  0  0  0
  -21.6638  -26.7488   22.1210 H   0  0  0  0  0  0
  -19.6947  -25.6287   21.1239 H   0  0  0  0  0  0
  -19.6716  -27.3201   20.6734 H   0  0  0  0  0  0
  -17.4186  -26.6624   21.3994 H   0  0  0  0  0  0
  -18.0322  -26.0058   22.9002 H   0  0  0  0  0  0
  -19.7936  -30.7201   24.2306 H   0  0  0  0  0  0
  -17.5035  -31.6292   24.5162 H   0  0  0  0  0  0
  -15.5343  -30.3017   23.7676 H   0  0  0  0  0  0
  -15.8612  -28.0865   22.7025 H   0  0  0  0  0  0
  -24.5871  -30.7131   25.7846 H   0  0  0  0  0  0
  -24.9005  -32.2899   26.4988 H   0  0  0  0  0  0
  -25.8097  -30.8854   27.0227 H   0  0  0  0  0  0
  -26.2820  -29.6806   24.1177 H   0  0  0  0  0  0
  -27.4127  -29.7286   25.4531 H   0  0  0  0  0  0
  -27.8649  -30.4368   23.9187 H   0  0  0  0  0  0
  -27.2594  -33.3634   26.2100 H   0  0  0  0  0  0
  -28.3815  -32.6993   25.0316 H   0  0  0  0  0  0
  -28.0741  -31.8498   26.5398 H   0  0  0  0  0  0
  -28.2576  -38.0128   24.7524 H   0  0  0  0  0  0
  -28.1096  -36.2661   24.6251 H   0  0  0  0  0  0
  -27.2320  -37.1422   25.8864 H   0  0  0  0  0  0
  -20.9303  -29.8726   21.6973 H   0  0  0  0  0  0
  -26.0202  -38.2865   24.1425 H   0  0  0  0  0  0
  -31.6494  -18.7809   22.2705 H   0  0  0  0  0  0
  -26.2653  -18.6188   22.5405 H   0  0  0  0  0  0
  -26.8044  -18.6442   20.8673 H   0  0  0  0  0  0
  -27.0049  -20.0664   21.8946 H   0  0  0  0  0  0
  -26.5896  -18.1781   26.4158 H   0  0  0  0  0  0
  -25.8020  -18.0159   24.8493 H   0  0  0  0  0  0
  -27.3608  -18.8302   24.9799 H   0  0  0  0  0  0
  -26.4794  -15.6819   26.8136 H   0  0  0  0  0  0
  -27.1593  -14.5503   25.6502 H   0  0  0  0  0  0
  -25.6777  -15.4265   25.2657 H   0  0  0  0  0  0
  -31.6061  -23.8807   22.7506 H   0  0  0  0  0  0
  -30.9936  -25.4846   23.1139 H   0  0  0  0  0  0
  -31.2866  -25.0126   21.4445 H   0  0  0  0  0  0
  -26.4181  -25.8483   22.1293 H   0  0  0  0  0  0
  -27.0639  -24.9149   23.4633 H   0  0  0  0  0  0
  -26.6293  -24.1162   21.9525 H   0  0  0  0  0  0
  -30.4688  -15.7449   24.5182 H   0  0  0  0  0  0
  -31.8028  -16.8578   24.3835 H   0  0  0  0  0  0
  -28.2006  -15.3741   23.5287 H   0  0  0  0  0  0
  -26.8523  -16.3674   23.0745 H   0  0  0  0  0  0
  -29.0096  -21.4337   22.9532 H   0  0  0  0  0  0
  -30.7082  -21.6365   22.6056 H   0  0  0  0  0  0
  -28.3721  -22.7760   21.0220 H   0  0  0  0  0  0
  -30.0339  -22.9964   20.5486 H   0  0  0  0  0  0
  -30.5705  -20.3437   20.5714 H   0  0  0  0  0  0
  -28.8313  -20.4465   20.5045 H   0  0  0  0  0  0
  -32.4326  -14.7269   23.3288 H   0  0  0  0  0  0
  -32.3744  -15.9886   22.1237 H   0  0  0  0  0  0
  -27.7822  -24.8755   19.8090 H   0  0  0  0  0  0
  -29.4874  -25.1702   19.9130 H   0  0  0  0  0  0
  -28.4335  -16.6844   25.6670 H   0  0  0  0  0  0
  -29.1854  -23.8459   23.3247 H   0  0  0  0  0  0
  -28.8474  -26.1752   22.3337 H   0  0  0  0  0  0
  -30.0821  -14.1081   22.6052 H   0  0  0  0  0  0
  1 25  1  0  0  0
  1 30  2  0  0  0
  1 91  1  0  0  0
  2  3  1  0  0  0
  2 25  1  0  0  0
  2 92  1  0  0  0
  2 93  1  0  0  0
  3  4  1  0  0  0
  3 94  1  0  0  0
  3 95  1  0  0  0
  4  5  1  0  0  0
  4 96  1  0  0  0
  4 97  1  0  0  0
  5  6  1  0  0  0
  5 26  1  0  0  0
  5 98  1  0  0  0
  6 25  1  0  0  0
  6 99  1  0  0  0
  6100  1  0  0  0
  7  8  2  0  0  0
  7 26  1  0  0  0
  7 29  1  0  0  0
  8  9  1  0  0  0
  8 22  1  0  0  0
  9 10  1  0  0  0
  9 27  2  0  0  0
 10 11  2  0  0  0
 10 15  1  0  0  0
 11 12  1  0  0  0
 11101  1  0  0  0
 12 13  2  0  0  0
 12102  1  0  0  0
 13 14  1  0  0  0
 13 31  1  0  0  0
 14 15  2  0  0  0
 14103  1  0  0  0
 15104  1  0  0  0
 16 17  2  0  0  0
 16 21  1  0  0  0
 16 31  1  0  0  0
 17 18  1  0  0  0
 17105  1  0  0  0
 18 19  2  0  0  0
 18106  1  0  0  0
 19 20  1  0  0  0
 19 24  1  0  0  0
 20 21  2  0  0  0
 20107  1  0  0  0
 21 23  1  0  0  0
 22 28  1  0  0  0
 22 32  2  0  0  0
 26 27  1  0  0  0
 28108  1  0  0  0
 28109  1  0  0  0
 29110  1  0  0  0
 29111  1  0  0  0
 33 34  1  0  0  0
 33 66  1  0  0  0
 33 70  2  0  0  0
 34 36  1  0  0  0
 34 59  1  0  0  0
 34112  1  0  0  0
 35 44  2  0  0  0
 35 45  1  0  0  0
 35 68  1  0  0  0
 36 56  1  0  0  0
 36113  1  0  0  0
 37 39  1  0  0  0
 37 47  1  0  0  0
 37 66  1  0  0  0
 37114  1  0  0  0
 38 43  2  0  0  0
 38 46  1  0  0  0
 38 47  1  0  0  0
 39 64  1  0  0  0
 39 67  2  0  0  0
 40 52  1  0  0  0
 40 53  2  0  0  0
 40 58  1  0  0  0
 41115  1  0  0  0
 41116  1  0  0  0
 41117  1  0  0  0
 41 48  1  0  0  0
 42 43  1  0  0  0
 42 66  1  0  0  0
 42118  1  0  0  0
 42119  1  0  0  0
 43 44  1  0  0  0
 44120  1  0  0  0
 45 46  2  0  0  0
 45121  1  0  0  0
 46122  1  0  0  0
 47123  1  0  0  0
 47124  1  0  0  0
 48 56  1  0  0  0
 48 65  1  0  0  0
 48125  1  0  0  0
 49 50  1  0  0  0
 49 53  1  0  0  0
 49 64  1  0  0  0
 49126  1  0  0  0
 50 51  1  0  0  0
 50127  1  0  0  0
 50128  1  0  0  0
 51 52  1  0  0  0
 51129  1  0  0  0
 51130  1  0  0  0
 52131  1  0  0  0
 52132  1  0  0  0
 53 54  1  0  0  0
 54 55  2  0  0  0
 54133  1  0  0  0
 55 57  1  0  0  0
 55134  1  0  0  0
 56 69  2  0  0  0
 57 58  2  0  0  0
 57135  1  0  0  0
 58136  1  0  0  0
 59 60  1  0  0  0
 59 61  1  0  0  0
 59 62  1  0  0  0
 60137  1  0  0  0
 60138  1  0  0  0
 60139  1  0  0  0
 61140  1  0  0  0
 61141  1  0  0  0
 61142  1  0  0  0
 62143  1  0  0  0
 62144  1  0  0  0
 62145  1  0  0  0
 63 65  1  0  0  0
 63146  1  0  0  0
 63147  1  0  0  0
 63148  1  0  0  0
 64149  1  0  0  0
 65150  1  0  0  0
 68 86  1  0  0  0
 71 72  2  0  0  0
 71 90  1  0  0  0
 71151  1  0  0  0
 72 73  1  0  0  0
 72 80  1  0  0  0
 73 74  2  0  0  0
 73 81  1  0  0  0
 74 75  1  0  0  0
 74 90  1  0  0  0
 75152  1  0  0  0
 75153  1  0  0  0
 75154  1  0  0  0
 76155  1  0  0  0
 76156  1  0  0  0
 76157  1  0  0  0
 76 87  1  0  0  0
 77 87  1  0  0  0
 77158  1  0  0  0
 77159  1  0  0  0
 77160  1  0  0  0
 78161  1  0  0  0
 78162  1  0  0  0
 78163  1  0  0  0
 78 88  1  0  0  0
 79164  1  0  0  0
 79165  1  0  0  0
 79166  1  0  0  0
 79 89  1  0  0  0
 80 85  1  0  0  0
 80167  1  0  0  0
 80168  1  0  0  0
 81 87  1  0  0  0
 81169  1  0  0  0
 81170  1  0  0  0
 82 83  1  0  0  0
 82 84  1  0  0  0
 82171  1  0  0  0
 82172  1  0  0  0
 83 88  1  0  0  0
 83173  1  0  0  0
 83174  1  0  0  0
 84 90  1  0  0  0
 84175  1  0  0  0
 84176  1  0  0  0
 85 91  1  0  0  0
 85177  1  0  0  0
 85178  1  0  0  0
 86 89  1  0  0  0
 86179  1  0  0  0
 86180  1  0  0  0
 87181  1  0  0  0
 88 89  1  0  0  0
 88182  1  0  0  0
 89183  1  0  0  0
 91184  1  0  0  0
M  ISO  4   1 100  68 101  86 101  91 100
M  END
> <chiral flag>
0

> <version>
0

> <s_m_source_file>
/data/baiqing/PycharmProjects/Reinvent-master-3.2/result/LINK_invent/BTK/process_docking_weight1_custom_sum_contain_oxygen_bond_distance_aromatic_linkinvent_7_9_3/rearranged_h_0095.sdf

> <i_m_source_file_index>
15

> <r_mmod_Potential_Energy-OPLS-2005>
-83.27734375

> <r_mmod_Stretch_Energy-OPLS-2005>
30.3241100311279

> <r_mmod_Bend_Energy-OPLS-2005>
101.432456970215

> <r_mmod_Torsional_Energy-OPLS-2005>
255.942337036133

> <r_mmod_Improper_Torsional_Energy-OPLS-2005>
6.08083486557007

> <r_mmod_Van_der_Waal_Energy-OPLS-2005>
111.630035400391

> <r_mmod_Electrostatic_Energy-OPLS-2005>
-410.233734130859

> <r_mmod_Solvation_Energy-OPLS-2005>
-190.04963684082

> <b_mmod_Minimization_Converged-OPLS-2005>
0

> <r_mmod_RMS_Derivative-OPLS-2005>
2.68662905693054

$$$$
15
                    3D
 Structure written by MMmdl.
181189  0  0  1  0            999 V2000
  -30.6608  -14.5945   20.5124 C   0  0  0  0  0  0
  -30.4307  -12.3696   19.4427 C   0  0  0  0  0  0
  -29.5043  -12.4954   18.2148 C   0  0  0  0  0  0
  -28.0262  -12.3404   18.6281 C   0  0  0  0  0  0
  -27.6517  -13.2155   19.8550 C   0  0  2  0  0  0
  -28.6954  -13.0752   20.9837 C   0  0  0  0  0  0
  -25.2570  -13.8176   20.5677 C   0  0  0  0  0  0
  -24.1838  -13.0448   20.9196 C   0  0  0  0  0  0
  -24.6399  -11.6915   20.8735 C   0  0  0  0  0  0
  -23.9074  -10.4296   21.0402 C   0  0  0  0  0  0
  -24.3624   -9.4209   21.9183 C   0  0  0  0  0  0
  -23.6294   -8.2249   22.0754 C   0  0  0  0  0  0
  -22.4276   -8.0292   21.3547 C   0  0  0  0  0  0
  -21.9915   -9.0263   20.4646 C   0  0  0  0  0  0
  -22.7244  -10.2142   20.3050 C   0  0  0  0  0  0
  -21.6855   -6.0744   22.5280 C   0  0  0  0  0  0
  -21.4015   -6.5642   23.8216 C   0  0  0  0  0  0
  -21.3656   -5.6790   24.9174 C   0  0  0  0  0  0
  -21.6039   -4.3053   24.7221 C   0  0  0  0  0  0
  -21.8818   -3.8152   23.4340 C   0  0  0  0  0  0
  -21.9193   -4.6973   22.3402 C   0  0  0  0  0  0
  -22.7856  -13.5243   21.1848 C   0  0  0  0  0  0
  -22.1659   -4.2157   21.0981 F   0  0  0  0  0  0
  -21.5626   -3.4541   25.7734 F   0  0  0  0  0  0
  -30.0105  -13.3970   20.4122 N   0  0  0  0  0  0
  -26.2981  -12.9354   20.3267 N   0  0  0  0  0  0
  -25.9326  -11.6510   20.5740 N   0  0  0  0  0  0
  -22.0487  -12.8243   22.0399 N   0  0  0  0  0  0
  -25.4264  -15.1900   20.4085 N   0  0  0  0  0  0
  -31.8336  -14.7266   20.1548 O   0  0  0  0  0  0
  -21.6635   -6.8890   21.4245 O   0  0  0  0  0  0
  -22.3547  -14.5543   20.6682 O   0  0  0  0  0  0
  -24.6213  -31.8622   23.2020 C   0  0  0  0  0  0
  -25.9070  -32.4787   23.8347 C   0  0  1  0  0  0
  -27.2287  -27.3420   20.1175 C   0  0  0  0  0  0
  -25.5916  -33.8601   24.2291 N   0  0  0  0  0  0
  -23.4121  -30.4837   21.5450 C   0  0  2  0  0  0
  -24.8571  -28.9366   20.1131 C   0  0  0  0  0  0
  -22.7439  -29.4627   22.4947 C   0  0  0  0  0  0
  -18.0280  -28.1378   22.8495 C   0  0  0  0  0  0
  -24.1487  -36.7297   23.2645 C   0  0  0  0  0  0
  -25.9488  -30.8013   21.3642 C   0  0  0  0  0  0
  -26.0217  -29.4270   20.7141 C   0  0  0  0  0  0
  -27.2057  -28.6404   20.7082 C   0  0  0  0  0  0
  -26.0363  -26.8848   19.5122 C   0  0  0  0  0  0
  -24.8653  -27.6692   19.5076 C   0  0  0  0  0  0
  -23.6239  -29.8136   20.1601 C   0  0  0  0  0  0
  -25.4106  -36.3098   24.0339 C   0  0  1  0  0  0
  -20.5871  -28.3674   23.1307 C   0  0  2  0  0  0
  -20.6767  -26.9400   22.5419 C   0  0  0  0  0  0
  -19.5750  -26.6381   21.5216 C   0  0  0  0  0  0
  -18.1926  -26.7920   22.1621 C   0  0  0  0  0  0
  -19.1532  -28.8841   23.2893 C   0  0  0  0  0  0
  -18.9458  -30.1450   23.8896 C   0  0  0  0  0  0
  -17.6463  -30.6585   24.0563 C   0  0  0  0  0  0
  -25.9039  -34.9472   23.5111 C   0  0  0  0  0  0
  -16.5357  -29.9085   23.6334 C   0  0  0  0  0  0
  -16.7263  -28.6502   23.0349 C   0  0  0  0  0  0
  -26.4460  -31.6599   25.0718 C   0  0  0  0  0  0
  -25.3711  -31.3737   26.1459 C   0  0  0  0  0  0
  -27.0295  -30.3035   24.6142 C   0  0  0  0  0  0
  -27.6018  -32.4337   25.7489 C   0  0  0  0  0  0
  -27.5569  -37.1809   24.8467 C   0  0  0  0  0  0
  -21.4163  -29.3031   22.3693 N   0  0  0  0  0  0
  -26.4279  -37.3794   23.9416 N   0  0  0  0  0  0
  -24.6804  -31.0656   22.0947 N   0  0  0  0  0  0
  -23.4187  -28.8174   23.3013 O   0  0  0  0  0  0
  -28.3964  -26.5754   20.1664 O   0  0  0  0  0  0
  -26.5617  -34.8939   22.4688 O   0  0  0  0  0  0
  -23.5395  -32.1405   23.7379 O   0  0  0  0  0  0
  -28.2585  -21.7386   22.7337 C   0  0  0  0  0  0
  -27.9619  -20.5343   23.4240 C   0  0  0  0  0  0
  -28.5644  -21.4707   21.4273 C   0  0  0  0  0  0
  -28.0596  -19.5257   22.5066 C   0  0  0  0  0  0
  -27.6544  -18.0905   22.7039 C   0  0  0  0  0  0
  -25.4039  -20.5421   26.3389 C   0  0  0  0  0  0
  -30.3197  -22.4782   19.9178 C   0  0  0  0  0  0
  -28.4763  -21.7889   26.8306 C   0  0  0  0  0  0
  -29.6716  -19.7957   26.0335 C   0  0  0  0  0  0
  -26.1991  -21.0921   25.1388 C   0  0  0  0  0  0
  -30.1205  -18.2403   20.1398 C   0  0  0  0  0  0
  -28.4479  -24.0317   20.7648 C   0  0  0  0  0  0
  -28.8486  -19.1914   20.1214 C   0  0  0  0  0  0
  -30.3856  -17.0657   21.1680 C   0  0  0  0  0  0
  -28.4879  -25.1886   19.6852 C   0  0  0  0  0  0
  -27.5707  -20.4110   24.8849 C   0  0  2  0  0  0
  -28.8435  -22.5381   20.3465 C   0  0  2  0  0  0
  -28.5564  -20.0459   21.3048 N   0  0  0  0  0  0
  -29.9092  -15.6771   20.8657 N   0  0  0  0  0  0
  -28.7378  -20.8913   25.6812 N   0  3  0  0  0  0
  -31.4731  -12.4864   19.1404 H   0  0  0  0  0  0
  -30.3558  -11.3757   19.8879 H   0  0  0  0  0  0
  -29.7646  -11.7426   17.4691 H   0  0  0  0  0  0
  -29.6524  -13.4648   17.7351 H   0  0  0  0  0  0
  -27.8601  -11.2880   18.8627 H   0  0  0  0  0  0
  -27.3721  -12.5697   17.7840 H   0  0  0  0  0  0
  -27.6702  -14.2481   19.5083 H   0  0  0  0  0  0
  -28.7003  -12.0588   21.3802 H   0  0  0  0  0  0
  -28.4492  -13.7256   21.8242 H   0  0  0  0  0  0
  -25.2773   -9.5686   22.4750 H   0  0  0  0  0  0
  -24.0006   -7.4642   22.7475 H   0  0  0  0  0  0
  -21.0847   -8.8779   19.8955 H   0  0  0  0  0  0
  -22.3703  -10.9678   19.6154 H   0  0  0  0  0  0
  -21.2004   -7.6151   23.9724 H   0  0  0  0  0  0
  -21.1475   -6.0519   25.9078 H   0  0  0  0  0  0
  -22.0599   -2.7617   23.2837 H   0  0  0  0  0  0
  -22.4094  -11.9918   22.4816 H   0  0  0  0  0  0
  -21.1087  -13.1259   22.2545 H   0  0  0  0  0  0
  -24.6506  -15.8365   20.5029 H   0  0  0  0  0  0
  -26.2599  -15.6270   20.0376 H   0  0  0  0  0  0
  -26.7146  -32.5435   23.1104 H   0  0  0  0  0  0
  -25.0079  -33.9768   25.0443 H   0  0  0  0  0  0
  -22.7059  -31.3034   21.4025 H   0  0  0  0  0  0
  -23.3762  -35.9620   23.3308 H   0  0  0  0  0  0
  -24.3575  -36.8910   22.2054 H   0  0  0  0  0  0
  -23.7235  -37.6508   23.6656 H   0  0  0  0  0  0
  -26.0764  -31.5618   20.5934 H   0  0  0  0  0  0
  -26.8333  -30.8533   21.9877 H   0  0  0  0  0  0
  -28.1000  -29.0195   21.1832 H   0  0  0  0  0  0
  -25.9680  -25.9110   19.0516 H   0  0  0  0  0  0
  -23.9682  -27.2842   19.0452 H   0  0  0  0  0  0
  -23.7369  -30.5890   19.4016 H   0  0  0  0  0  0
  -22.7440  -29.2393   19.8611 H   0  0  0  0  0  0
  -25.1293  -36.1949   25.0832 H   0  0  0  0  0  0
  -20.9974  -28.3236   24.1424 H   0  0  0  0  0  0
  -20.5698  -26.2262   23.3612 H   0  0  0  0  0  0
  -21.6632  -26.7440   22.1196 H   0  0  0  0  0  0
  -19.6916  -25.6297   21.1240 H   0  0  0  0  0  0
  -19.6693  -27.3191   20.6760 H   0  0  0  0  0  0
  -17.4195  -26.6682   21.4016 H   0  0  0  0  0  0
  -18.0310  -26.0058   22.9013 H   0  0  0  0  0  0
  -19.7937  -30.7266   24.2253 H   0  0  0  0  0  0
  -17.5022  -31.6272   24.5157 H   0  0  0  0  0  0
  -15.5355  -30.2994   23.7667 H   0  0  0  0  0  0
  -15.8657  -28.0835   22.7065 H   0  0  0  0  0  0
  -24.5887  -30.7068   25.7801 H   0  0  0  0  0  0
  -24.8889  -32.2901   26.4870 H   0  0  0  0  0  0
  -25.8042  -30.8934   27.0244 H   0  0  0  0  0  0
  -26.2838  -29.6807   24.1183 H   0  0  0  0  0  0
  -27.4024  -29.7260   25.4614 H   0  0  0  0  0  0
  -27.8703  -30.4351   23.9329 H   0  0  0  0  0  0
  -27.2624  -33.3644   26.2054 H   0  0  0  0  0  0
  -28.3832  -32.6893   25.0318 H   0  0  0  0  0  0
  -28.0692  -31.8478   26.5423 H   0  0  0  0  0  0
  -28.2605  -38.0089   24.7513 H   0  0  0  0  0  0
  -28.1050  -36.2632   24.6289 H   0  0  0  0  0  0
  -27.2294  -37.1451   25.8872 H   0  0  0  0  0  0
  -20.9320  -29.8744   21.6914 H   0  0  0  0  0  0
  -26.0168  -38.2878   24.1409 H   0  0  0  0  0  0
  -28.2134  -22.7311   23.1621 H   0  0  0  0  0  0
  -28.2600  -17.6077   23.4697 H   0  0  0  0  0  0
  -27.7117  -17.4909   21.7991 H   0  0  0  0  0  0
  -26.6184  -18.0383   23.0396 H   0  0  0  0  0  0
  -24.4124  -20.9949   26.3815 H   0  0  0  0  0  0
  -25.8833  -20.7359   27.2953 H   0  0  0  0  0  0
  -25.2603  -19.4628   26.2584 H   0  0  0  0  0  0
  -30.5964  -21.4839   19.5693 H   0  0  0  0  0  0
  -30.9835  -22.7327   20.7455 H   0  0  0  0  0  0
  -30.5339  -23.1665   19.1013 H   0  0  0  0  0  0
  -29.4180  -22.1545   27.2400 H   0  0  0  0  0  0
  -27.9581  -21.2752   27.6361 H   0  0  0  0  0  0
  -27.9060  -22.6720   26.5439 H   0  0  0  0  0  0
  -30.5888  -20.1881   26.4729 H   0  0  0  0  0  0
  -29.9557  -19.2245   25.1486 H   0  0  0  0  0  0
  -29.2230  -19.1082   26.7514 H   0  0  0  0  0  0
  -26.2729  -22.1793   25.1589 H   0  0  0  0  0  0
  -25.5733  -20.8787   24.2713 H   0  0  0  0  0  0
  -30.9683  -18.9171   20.2462 H   0  0  0  0  0  0
  -30.2409  -17.8263   19.1385 H   0  0  0  0  0  0
  -29.0942  -24.3314   21.5909 H   0  0  0  0  0  0
  -27.4381  -24.0187   21.1749 H   0  0  0  0  0  0
  -27.9580  -18.6035   19.8996 H   0  0  0  0  0  0
  -28.9435  -19.8581   19.2646 H   0  0  0  0  0  0
  -30.0737  -17.3499   22.1689 H   0  0  0  0  0  0
  -31.4700  -16.9985   21.2687 H   0  0  0  0  0  0
  -29.4663  -25.1503   19.2089 H   0  0  0  0  0  0
  -27.8003  -24.9699   18.8707 H   0  0  0  0  0  0
  -27.4330  -19.3487   25.0985 H   0  0  0  0  0  0
  -28.2349  -22.2851   19.4768 H   0  0  0  0  0  0
  -28.9419  -15.4782   21.0700 H   0  0  0  0  0  0
  -29.2424  -21.4604   25.0179 H   0  0  0  0  0  0
  1 25  1  0  0  0
  1 30  2  0  0  0
  1 89  1  0  0  0
  2  3  1  0  0  0
  2 25  1  0  0  0
  2 91  1  0  0  0
  2 92  1  0  0  0
  3  4  1  0  0  0
  3 93  1  0  0  0
  3 94  1  0  0  0
  4  5  1  0  0  0
  4 95  1  0  0  0
  4 96  1  0  0  0
  5  6  1  0  0  0
  5 26  1  0  0  0
  5 97  1  0  0  0
  6 25  1  0  0  0
  6 98  1  0  0  0
  6 99  1  0  0  0
  7  8  2  0  0  0
  7 26  1  0  0  0
  7 29  1  0  0  0
  8  9  1  0  0  0
  8 22  1  0  0  0
  9 10  1  0  0  0
  9 27  2  0  0  0
 10 11  2  0  0  0
 10 15  1  0  0  0
 11 12  1  0  0  0
 11100  1  0  0  0
 12 13  2  0  0  0
 12101  1  0  0  0
 13 14  1  0  0  0
 13 31  1  0  0  0
 14 15  2  0  0  0
 14102  1  0  0  0
 15103  1  0  0  0
 16 17  2  0  0  0
 16 21  1  0  0  0
 16 31  1  0  0  0
 17 18  1  0  0  0
 17104  1  0  0  0
 18 19  2  0  0  0
 18105  1  0  0  0
 19 20  1  0  0  0
 19 24  1  0  0  0
 20 21  2  0  0  0
 20106  1  0  0  0
 21 23  1  0  0  0
 22 28  1  0  0  0
 22 32  2  0  0  0
 26 27  1  0  0  0
 28107  1  0  0  0
 28108  1  0  0  0
 29109  1  0  0  0
 29110  1  0  0  0
 33 34  1  0  0  0
 33 66  1  0  0  0
 33 70  2  0  0  0
 34 36  1  0  0  0
 34 59  1  0  0  0
 34111  1  0  0  0
 35 44  2  0  0  0
 35 45  1  0  0  0
 35 68  1  0  0  0
 36 56  1  0  0  0
 36112  1  0  0  0
 37 39  1  0  0  0
 37 47  1  0  0  0
 37 66  1  0  0  0
 37113  1  0  0  0
 38 43  2  0  0  0
 38 46  1  0  0  0
 38 47  1  0  0  0
 39 64  1  0  0  0
 39 67  2  0  0  0
 40 52  1  0  0  0
 40 53  2  0  0  0
 40 58  1  0  0  0
 41114  1  0  0  0
 41115  1  0  0  0
 41116  1  0  0  0
 41 48  1  0  0  0
 42 43  1  0  0  0
 42 66  1  0  0  0
 42117  1  0  0  0
 42118  1  0  0  0
 43 44  1  0  0  0
 44119  1  0  0  0
 45 46  2  0  0  0
 45120  1  0  0  0
 46121  1  0  0  0
 47122  1  0  0  0
 47123  1  0  0  0
 48 56  1  0  0  0
 48 65  1  0  0  0
 48124  1  0  0  0
 49 50  1  0  0  0
 49 53  1  0  0  0
 49 64  1  0  0  0
 49125  1  0  0  0
 50 51  1  0  0  0
 50126  1  0  0  0
 50127  1  0  0  0
 51 52  1  0  0  0
 51128  1  0  0  0
 51129  1  0  0  0
 52130  1  0  0  0
 52131  1  0  0  0
 53 54  1  0  0  0
 54 55  2  0  0  0
 54132  1  0  0  0
 55 57  1  0  0  0
 55133  1  0  0  0
 56 69  2  0  0  0
 57 58  2  0  0  0
 57134  1  0  0  0
 58135  1  0  0  0
 59 60  1  0  0  0
 59 61  1  0  0  0
 59 62  1  0  0  0
 60136  1  0  0  0
 60137  1  0  0  0
 60138  1  0  0  0
 61139  1  0  0  0
 61140  1  0  0  0
 61141  1  0  0  0
 62142  1  0  0  0
 62143  1  0  0  0
 62144  1  0  0  0
 63 65  1  0  0  0
 63145  1  0  0  0
 63146  1  0  0  0
 63147  1  0  0  0
 64148  1  0  0  0
 65149  1  0  0  0
 68 85  1  0  0  0
 71 72  1  0  0  0
 71 73  2  0  0  0
 71150  1  0  0  0
 72 74  2  0  0  0
 72 86  1  0  0  0
 73 87  1  0  0  0
 73 88  1  0  0  0
 74 75  1  0  0  0
 74 88  1  0  0  0
 75151  1  0  0  0
 75152  1  0  0  0
 75153  1  0  0  0
 76 80  1  0  0  0
 76154  1  0  0  0
 76155  1  0  0  0
 76156  1  0  0  0
 77157  1  0  0  0
 77158  1  0  0  0
 77159  1  0  0  0
 77 87  1  0  0  0
 78160  1  0  0  0
 78161  1  0  0  0
 78162  1  0  0  0
 78 90  1  0  0  0
 79 90  1  0  0  0
 79163  1  0  0  0
 79164  1  0  0  0
 79165  1  0  0  0
 80166  1  0  0  0
 80167  1  0  0  0
 80 86  1  0  0  0
 81 83  1  0  0  0
 81 84  1  0  0  0
 81168  1  0  0  0
 81169  1  0  0  0
 82 85  1  0  0  0
 82 87  1  0  0  0
 82170  1  0  0  0
 82171  1  0  0  0
 83 88  1  0  0  0
 83172  1  0  0  0
 83173  1  0  0  0
 84 89  1  0  0  0
 84174  1  0  0  0
 84175  1  0  0  0
 85176  1  0  0  0
 85177  1  0  0  0
 86 90  1  0  0  0
 86178  1  0  0  0
 87179  1  0  0  0
 89180  1  0  0  0
 90181  1  0  0  0
M  CHG  1  90   1
M  ISO  4   1 100  68 101  85 101  89 100
M  END
> <chiral flag>
0

> <version>
0

> <s_m_source_file>
/data/baiqing/PycharmProjects/Reinvent-master-3.2/result/LINK_invent/BTK/process_docking_weight1_custom_sum_contain_oxygen_bond_distance_aromatic_linkinvent_7_9_3/rearranged_h_0095.sdf

> <i_m_source_file_index>
16

> <r_mmod_Potential_Energy-OPLS-2005>
-72.4015655517578

> <r_mmod_Stretch_Energy-OPLS-2005>
75.3588180541992

> <r_mmod_Bend_Energy-OPLS-2005>
190.095932006836

> <r_mmod_Torsional_Energy-OPLS-2005>
238.830764770508

> <r_mmod_Improper_Torsional_Energy-OPLS-2005>
4.56857633590698

> <r_mmod_Van_der_Waal_Energy-OPLS-2005>
120.954933166504

> <r_mmod_Electrostatic_Energy-OPLS-2005>
-320.719818115234

> <r_mmod_Solvation_Energy-OPLS-2005>
-417.699890136719

> <b_mmod_Minimization_Converged-OPLS-2005>
0

> <r_mmod_RMS_Derivative-OPLS-2005>
2.26101040840149

$$$$
16
                    3D
 Structure written by MMmdl.
161168  0  0  1  0            999 V2000
  -30.5354  -14.9235   20.4473 C   0  0  0  0  0  0
  -30.4662  -12.5639   19.5181 C   0  0  0  0  0  0
  -29.5601  -12.5688   18.2655 C   0  0  0  0  0  0
  -28.0647  -12.4144   18.6296 C   0  0  0  0  0  0
  -27.6552  -13.2622   19.8718 C   0  0  2  0  0  0
  -28.6977  -13.2060   21.0072 C   0  0  0  0  0  0
  -25.2609  -13.8293   20.5745 C   0  0  0  0  0  0
  -24.1823  -13.0504   20.9166 C   0  0  0  0  0  0
  -24.6370  -11.7013   20.8705 C   0  0  0  0  0  0
  -23.9035  -10.4381   21.0310 C   0  0  0  0  0  0
  -24.3645   -9.4387   21.9134 C   0  0  0  0  0  0
  -23.6356   -8.2378   22.0692 C   0  0  0  0  0  0
  -22.4357   -8.0291   21.3519 C   0  0  0  0  0  0
  -21.9943   -9.0215   20.4607 C   0  0  0  0  0  0
  -22.7218  -10.2147   20.3000 C   0  0  0  0  0  0
  -21.6890   -6.0707   22.5239 C   0  0  0  0  0  0
  -21.4035   -6.5621   23.8169 C   0  0  0  0  0  0
  -21.3709   -5.6767   24.9132 C   0  0  0  0  0  0
  -21.6059   -4.3026   24.7157 C   0  0  0  0  0  0
  -21.8867   -3.8112   23.4281 C   0  0  0  0  0  0
  -21.9234   -4.6943   22.3334 C   0  0  0  0  0  0
  -22.7860  -13.5324   21.1773 C   0  0  0  0  0  0
  -22.1712   -4.2137   21.0910 F   0  0  0  0  0  0
  -21.5647   -3.4492   25.7665 F   0  0  0  0  0  0
  -29.9784  -13.6428   20.4303 N   0  0  0  0  0  0
  -26.3015  -12.9480   20.3376 N   0  0  0  0  0  0
  -25.9351  -11.6627   20.5699 N   0  0  0  0  0  0
  -22.0452  -12.8313   22.0315 N   0  0  0  0  0  0
  -25.4270  -15.1978   20.4209 N   0  0  0  0  0  0
  -31.7149  -15.0264   20.0882 O   0  0  0  0  0  0
  -21.6744   -6.8883   21.4182 O   0  0  0  0  0  0
  -22.3546  -14.5592   20.6549 O   0  0  0  0  0  0
  -24.6440  -31.8548   23.1865 C   0  0  0  0  0  0
  -25.9185  -32.4794   23.8316 C   0  0  1  0  0  0
  -27.2505  -27.1620   20.1636 C   0  0  0  0  0  0
  -25.5893  -33.8593   24.2218 N   0  0  0  0  0  0
  -23.4473  -30.4639   21.5394 C   0  0  2  0  0  0
  -24.9044  -28.8756   20.1456 C   0  0  0  0  0  0
  -22.7564  -29.4643   22.5021 C   0  0  0  0  0  0
  -18.0303  -28.1403   22.8508 C   0  0  0  0  0  0
  -24.1461  -36.7226   23.2654 C   0  0  0  0  0  0
  -25.9989  -30.7446   21.3687 C   0  0  0  0  0  0
  -26.0863  -29.3430   20.7345 C   0  0  0  0  0  0
  -27.2616  -28.5052   20.7258 C   0  0  0  0  0  0
  -26.0435  -26.7982   19.5271 C   0  0  0  0  0  0
  -24.8914  -27.6106   19.5433 C   0  0  0  0  0  0
  -23.6641  -29.7537   20.1814 C   0  0  0  0  0  0
  -25.4121  -36.3093   24.0334 C   0  0  1  0  0  0
  -20.5914  -28.3719   23.1272 C   0  0  2  0  0  0
  -20.6807  -26.9414   22.5411 C   0  0  0  0  0  0
  -19.5786  -26.6373   21.5230 C   0  0  0  0  0  0
  -18.1964  -26.7943   22.1636 C   0  0  0  0  0  0
  -19.1561  -28.8873   23.2899 C   0  0  0  0  0  0
  -18.9476  -30.1461   23.8913 C   0  0  0  0  0  0
  -17.6478  -30.6604   24.0532 C   0  0  0  0  0  0
  -25.9062  -34.9466   23.5085 C   0  0  0  0  0  0
  -16.5370  -29.9080   23.6312 C   0  0  0  0  0  0
  -16.7286  -28.6495   23.0360 C   0  0  0  0  0  0
  -26.4449  -31.6639   25.0742 C   0  0  0  0  0  0
  -25.3520  -31.3821   26.1354 C   0  0  0  0  0  0
  -27.0240  -30.3051   24.6216 C   0  0  0  0  0  0
  -27.6022  -32.4334   25.7536 C   0  0  0  0  0  0
  -27.5591  -37.1788   24.8469 C   0  0  0  0  0  0
  -21.4264  -29.3069   22.3688 N   0  0  0  0  0  0
  -26.4301  -37.3818   23.9406 N   0  0  0  0  0  0
  -24.7198  -31.0422   22.0851 N   0  0  0  0  0  0
  -23.4198  -28.8241   23.3239 O   0  0  0  0  0  0
  -28.3613  -26.2510   20.0971 O   0  0  0  0  0  0
  -26.5687  -34.8975   22.4683 O   0  0  0  0  0  0
  -23.5531  -32.1393   23.7079 O   0  0  0  0  0  0
  -28.3643  -21.7417   22.1371 C   0  0  0  0  0  0
  -26.9280  -23.0547   19.6760 C   0  0  0  0  0  0
  -29.1399  -23.5138   18.6051 C   0  0  0  0  0  0
  -30.0964  -20.4779   18.7704 C   0  0  0  0  0  0
  -29.7328  -17.5430   20.0276 C   0  0  0  0  0  0
  -29.5952  -19.0624   20.7955 C   0  0  0  0  0  0
  -28.4628  -24.8231   20.7167 C   0  0  0  0  0  0
  -29.0569  -21.8749   20.7341 C   0  0  2  0  0  0
  -28.4344  -23.2918   19.9621 C   0  0  0  0  0  0
  -29.7275  -16.0771   20.6549 N   0  0  0  0  0  0
  -29.2475  -20.4245   20.0124 N   0  3  1  0  0  0
  -31.5074  -12.7256   19.2269 H   0  0  0  0  0  0
  -30.4483  -11.5905   20.0071 H   0  0  0  0  0  0
  -29.8684  -11.7904   17.5711 H   0  0  0  0  0  0
  -29.7145  -13.5211   17.7508 H   0  0  0  0  0  0
  -27.8768  -11.3571   18.8145 H   0  0  0  0  0  0
  -27.4572  -12.7070   17.7652 H   0  0  0  0  0  0
  -27.6412  -14.2917   19.5236 H   0  0  0  0  0  0
  -28.7809  -12.1867   21.3969 H   0  0  0  0  0  0
  -28.4164  -13.8411   21.8461 H   0  0  0  0  0  0
  -25.2743   -9.5892   22.4748 H   0  0  0  0  0  0
  -24.0089   -7.4772   22.7406 H   0  0  0  0  0  0
  -21.0888   -8.8671   19.8915 H   0  0  0  0  0  0
  -22.3580  -10.9648   19.6143 H   0  0  0  0  0  0
  -21.2020   -7.6124   23.9649 H   0  0  0  0  0  0
  -21.1526   -6.0502   25.9058 H   0  0  0  0  0  0
  -22.0603   -2.7552   23.2756 H   0  0  0  0  0  0
  -22.4062  -12.0072   22.4918 H   0  0  0  0  0  0
  -21.0983  -13.1213   22.2296 H   0  0  0  0  0  0
  -24.6525  -15.8540   20.4915 H   0  0  0  0  0  0
  -26.2805  -15.6215   20.0681 H   0  0  0  0  0  0
  -26.7291  -32.5452   23.1121 H   0  0  0  0  0  0
  -24.9899  -33.9700   25.0273 H   0  0  0  0  0  0
  -22.7560  -31.2913   21.3629 H   0  0  0  0  0  0
  -23.3816  -35.9454   23.3312 H   0  0  0  0  0  0
  -24.3530  -36.8845   22.2056 H   0  0  0  0  0  0
  -23.7096  -37.6378   23.6662 H   0  0  0  0  0  0
  -26.1172  -31.4920   20.5822 H   0  0  0  0  0  0
  -26.8841  -30.8310   21.9862 H   0  0  0  0  0  0
  -28.1826  -28.8671   21.1628 H   0  0  0  0  0  0
  -25.9821  -25.8680   18.9852 H   0  0  0  0  0  0
  -23.9812  -27.2406   19.0928 H   0  0  0  0  0  0
  -23.7456  -30.4793   19.3730 H   0  0  0  0  0  0
  -22.7930  -29.1441   19.9332 H   0  0  0  0  0  0
  -25.1331  -36.1957   25.0824 H   0  0  0  0  0  0
  -21.0025  -28.3248   24.1401 H   0  0  0  0  0  0
  -20.5678  -26.2326   23.3619 H   0  0  0  0  0  0
  -21.6680  -26.7437   22.1224 H   0  0  0  0  0  0
  -19.6925  -25.6266   21.1292 H   0  0  0  0  0  0
  -19.6729  -27.3152   20.6717 H   0  0  0  0  0  0
  -17.4236  -26.6702   21.4006 H   0  0  0  0  0  0
  -18.0337  -26.0074   22.9009 H   0  0  0  0  0  0
  -19.7933  -30.7266   24.2335 H   0  0  0  0  0  0
  -17.5005  -31.6294   24.5090 H   0  0  0  0  0  0
  -15.5355  -30.2977   23.7629 H   0  0  0  0  0  0
  -15.8702  -28.0784   22.7109 H   0  0  0  0  0  0
  -24.5746  -30.7203   25.7580 H   0  0  0  0  0  0
  -24.8653  -32.2965   26.4708 H   0  0  0  0  0  0
  -25.7663  -30.8995   27.0195 H   0  0  0  0  0  0
  -26.2803  -29.6882   24.1178 H   0  0  0  0  0  0
  -27.3828  -29.7314   25.4767 H   0  0  0  0  0  0
  -27.8725  -30.4376   23.9508 H   0  0  0  0  0  0
  -27.2712  -33.3662   26.2109 H   0  0  0  0  0  0
  -28.3835  -32.6831   25.0341 H   0  0  0  0  0  0
  -28.0647  -31.8419   26.5435 H   0  0  0  0  0  0
  -28.2643  -38.0074   24.7590 H   0  0  0  0  0  0
  -28.1064  -36.2624   24.6233 H   0  0  0  0  0  0
  -27.2291  -37.1346   25.8870 H   0  0  0  0  0  0
  -20.9516  -29.8658   21.6741 H   0  0  0  0  0  0
  -26.0190  -38.2892   24.1439 H   0  0  0  0  0  0
  -28.2191  -22.7108   22.6338 H   0  0  0  0  0  0
  -28.9349  -21.1517   22.8609 H   0  0  0  0  0  0
  -27.3748  -21.2891   22.0891 H   0  0  0  0  0  0
  -26.4967  -23.8086   19.0171 H   0  0  0  0  0  0
  -26.3482  -23.0881   20.6007 H   0  0  0  0  0  0
  -26.7293  -22.1012   19.1888 H   0  0  0  0  0  0
  -28.7971  -24.4370   18.1404 H   0  0  0  0  0  0
  -28.9377  -22.7354   17.8681 H   0  0  0  0  0  0
  -30.2215  -23.5918   18.6992 H   0  0  0  0  0  0
  -29.5019  -20.5181   17.8522 H   0  0  0  0  0  0
  -30.7117  -19.5896   18.6404 H   0  0  0  0  0  0
  -30.8163  -21.2984   18.7610 H   0  0  0  0  0  0
  -30.6209  -17.5562   19.3946 H   0  0  0  0  0  0
  -28.8991  -17.5191   19.3275 H   0  0  0  0  0  0
  -30.5620  -19.2313   21.2708 H   0  0  0  0  0  0
  -28.8730  -18.9684   21.6065 H   0  0  0  0  0  0
  -29.4562  -24.8735   21.1775 H   0  0  0  0  0  0
  -27.8043  -24.8020   21.5873 H   0  0  0  0  0  0
  -30.0719  -22.1669   20.9988 H   0  0  0  0  0  0
  -28.8231  -15.8157   21.0261 H   0  0  0  0  0  0
  -28.3271  -20.2319   19.6537 H   0  0  0  0  0  0
  1 25  1  0  0  0
  1 30  2  0  0  0
  1 80  1  0  0  0
  2  3  1  0  0  0
  2 25  1  0  0  0
  2 82  1  0  0  0
  2 83  1  0  0  0
  3  4  1  0  0  0
  3 84  1  0  0  0
  3 85  1  0  0  0
  4  5  1  0  0  0
  4 86  1  0  0  0
  4 87  1  0  0  0
  5  6  1  0  0  0
  5 26  1  0  0  0
  5 88  1  0  0  0
  6 25  1  0  0  0
  6 89  1  0  0  0
  6 90  1  0  0  0
  7  8  2  0  0  0
  7 26  1  0  0  0
  7 29  1  0  0  0
  8  9  1  0  0  0
  8 22  1  0  0  0
  9 10  1  0  0  0
  9 27  2  0  0  0
 10 11  2  0  0  0
 10 15  1  0  0  0
 11 12  1  0  0  0
 11 91  1  0  0  0
 12 13  2  0  0  0
 12 92  1  0  0  0
 13 14  1  0  0  0
 13 31  1  0  0  0
 14 15  2  0  0  0
 14 93  1  0  0  0
 15 94  1  0  0  0
 16 17  2  0  0  0
 16 21  1  0  0  0
 16 31  1  0  0  0
 17 18  1  0  0  0
 17 95  1  0  0  0
 18 19  2  0  0  0
 18 96  1  0  0  0
 19 20  1  0  0  0
 19 24  1  0  0  0
 20 21  2  0  0  0
 20 97  1  0  0  0
 21 23  1  0  0  0
 22 28  1  0  0  0
 22 32  2  0  0  0
 26 27  1  0  0  0
 28 98  1  0  0  0
 28 99  1  0  0  0
 29100  1  0  0  0
 29101  1  0  0  0
 33 34  1  0  0  0
 33 66  1  0  0  0
 33 70  2  0  0  0
 34 36  1  0  0  0
 34 59  1  0  0  0
 34102  1  0  0  0
 35 44  2  0  0  0
 35 45  1  0  0  0
 35 68  1  0  0  0
 36 56  1  0  0  0
 36103  1  0  0  0
 37 39  1  0  0  0
 37 47  1  0  0  0
 37 66  1  0  0  0
 37104  1  0  0  0
 38 43  2  0  0  0
 38 46  1  0  0  0
 38 47  1  0  0  0
 39 64  1  0  0  0
 39 67  2  0  0  0
 40 52  1  0  0  0
 40 53  2  0  0  0
 40 58  1  0  0  0
 41105  1  0  0  0
 41106  1  0  0  0
 41107  1  0  0  0
 41 48  1  0  0  0
 42 43  1  0  0  0
 42 66  1  0  0  0
 42108  1  0  0  0
 42109  1  0  0  0
 43 44  1  0  0  0
 44110  1  0  0  0
 45 46  2  0  0  0
 45111  1  0  0  0
 46112  1  0  0  0
 47113  1  0  0  0
 47114  1  0  0  0
 48 56  1  0  0  0
 48 65  1  0  0  0
 48115  1  0  0  0
 49 50  1  0  0  0
 49 53  1  0  0  0
 49 64  1  0  0  0
 49116  1  0  0  0
 50 51  1  0  0  0
 50117  1  0  0  0
 50118  1  0  0  0
 51 52  1  0  0  0
 51119  1  0  0  0
 51120  1  0  0  0
 52121  1  0  0  0
 52122  1  0  0  0
 53 54  1  0  0  0
 54 55  2  0  0  0
 54123  1  0  0  0
 55 57  1  0  0  0
 55124  1  0  0  0
 56 69  2  0  0  0
 57 58  2  0  0  0
 57125  1  0  0  0
 58126  1  0  0  0
 59 60  1  0  0  0
 59 61  1  0  0  0
 59 62  1  0  0  0
 60127  1  0  0  0
 60128  1  0  0  0
 60129  1  0  0  0
 61130  1  0  0  0
 61131  1  0  0  0
 61132  1  0  0  0
 62133  1  0  0  0
 62134  1  0  0  0
 62135  1  0  0  0
 63 65  1  0  0  0
 63136  1  0  0  0
 63137  1  0  0  0
 63138  1  0  0  0
 64139  1  0  0  0
 65140  1  0  0  0
 68 77  1  0  0  0
 71141  1  0  0  0
 71142  1  0  0  0
 71143  1  0  0  0
 71 78  1  0  0  0
 72144  1  0  0  0
 72145  1  0  0  0
 72146  1  0  0  0
 72 79  1  0  0  0
 73 79  1  0  0  0
 73147  1  0  0  0
 73148  1  0  0  0
 73149  1  0  0  0
 74150  1  0  0  0
 74151  1  0  0  0
 74152  1  0  0  0
 74 81  1  0  0  0
 75 76  1  0  0  0
 75 80  1  0  0  0
 75153  1  0  0  0
 75154  1  0  0  0
 76 81  1  0  0  0
 76155  1  0  0  0
 76156  1  0  0  0
 77 79  1  0  0  0
 77157  1  0  0  0
 77158  1  0  0  0
 78 79  1  0  0  0
 78 81  1  0  0  0
 78159  1  0  0  0
 80160  1  0  0  0
 81161  1  0  0  0
M  CHG  1  81   1
M  ISO  4   1 100  68 101  77 101  80 100
M  END
> <chiral flag>
0

> <version>
0

> <s_m_source_file>
/data/baiqing/PycharmProjects/Reinvent-master-3.2/result/LINK_invent/BTK/process_docking_weight1_custom_sum_contain_oxygen_bond_distance_aromatic_linkinvent_7_9_3/rearranged_h_0095.sdf

> <i_m_source_file_index>
17

> <r_mmod_Potential_Energy-OPLS-2005>
481.561920166016

> <r_mmod_Stretch_Energy-OPLS-2005>
329.524963378906

> <r_mmod_Bend_Energy-OPLS-2005>
315.554229736328

> <r_mmod_Torsional_Energy-OPLS-2005>
287.793884277344

> <r_mmod_Improper_Torsional_Energy-OPLS-2005>
6.49830389022827

> <r_mmod_Van_der_Waal_Energy-OPLS-2005>
110.293807983398

> <r_mmod_Electrostatic_Energy-OPLS-2005>
-269.668853759766

> <r_mmod_Solvation_Energy-OPLS-2005>
-456.530609130859

> <b_mmod_Minimization_Converged-OPLS-2005>
0

> <r_mmod_RMS_Derivative-OPLS-2005>
12.7762441635132

$$$$
17
                    3D
 Structure written by MMmdl.
166174  0  0  1  0            999 V2000
  -30.7366  -14.3975   20.6559 C   0  0  0  0  0  0
  -30.4243  -12.2956   19.3999 C   0  0  0  0  0  0
  -29.4880  -12.5177   18.1954 C   0  0  0  0  0  0
  -28.0112  -12.3756   18.6120 C   0  0  0  0  0  0
  -27.6667  -13.2000   19.8805 C   0  0  2  0  0  0
  -28.7054  -12.9398   20.9941 C   0  0  0  0  0  0
  -25.2604  -13.8150   20.5675 C   0  0  0  0  0  0
  -24.1845  -13.0440   20.9164 C   0  0  0  0  0  0
  -24.6388  -11.6902   20.8728 C   0  0  0  0  0  0
  -23.9053  -10.4295   21.0404 C   0  0  0  0  0  0
  -24.3608   -9.4211   21.9183 C   0  0  0  0  0  0
  -23.6288   -8.2245   22.0752 C   0  0  0  0  0  0
  -22.4269   -8.0281   21.3543 C   0  0  0  0  0  0
  -21.9904   -9.0253   20.4643 C   0  0  0  0  0  0
  -22.7230  -10.2134   20.3053 C   0  0  0  0  0  0
  -21.6848   -6.0735   22.5280 C   0  0  0  0  0  0
  -21.4012   -6.5638   23.8212 C   0  0  0  0  0  0
  -21.3658   -5.6791   24.9175 C   0  0  0  0  0  0
  -21.6046   -4.3055   24.7227 C   0  0  0  0  0  0
  -21.8819   -3.8146   23.4347 C   0  0  0  0  0  0
  -21.9193   -4.6962   22.3403 C   0  0  0  0  0  0
  -22.7870  -13.5242   21.1842 C   0  0  0  0  0  0
  -22.1659   -4.2148   21.0980 F   0  0  0  0  0  0
  -21.5632   -3.4538   25.7739 F   0  0  0  0  0  0
  -30.0448  -13.2454   20.4560 N   0  0  0  0  0  0
  -26.3044  -12.9313   20.3382 N   0  0  0  0  0  0
  -25.9312  -11.6476   20.5758 N   0  0  0  0  0  0
  -22.0501  -12.8231   22.0391 N   0  0  0  0  0  0
  -25.4361  -15.1865   20.4079 N   0  0  0  0  0  0
  -31.7960  -14.6631   20.0802 O   0  0  0  0  0  0
  -21.6635   -6.8876   21.4242 O   0  0  0  0  0  0
  -22.3557  -14.5553   20.6696 O   0  0  0  0  0  0
  -24.6120  -31.8685   23.2114 C   0  0  0  0  0  0
  -25.9016  -32.4829   23.8407 C   0  0  1  0  0  0
  -27.2369  -27.4452   20.0953 C   0  0  0  0  0  0
  -25.5865  -33.8626   24.2321 N   0  0  0  0  0  0
  -23.3995  -30.4925   21.5527 C   0  0  2  0  0  0
  -24.8450  -28.9601   20.1191 C   0  0  0  0  0  0
  -22.7396  -29.4655   22.5006 C   0  0  0  0  0  0
  -18.0269  -28.1385   22.8497 C   0  0  0  0  0  0
  -24.1481  -36.7336   23.2637 C   0  0  0  0  0  0
  -25.9281  -30.8373   21.3643 C   0  0  0  0  0  0
  -26.0048  -29.4731   20.7119 C   0  0  0  0  0  0
  -27.2015  -28.7237   20.6939 C   0  0  0  0  0  0
  -26.0541  -26.9416   19.5020 C   0  0  0  0  0  0
  -24.8643  -27.6929   19.5131 C   0  0  0  0  0  0
  -23.6068  -29.8254   20.1673 C   0  0  0  0  0  0
  -25.4096  -36.3117   24.0332 C   0  0  1  0  0  0
  -20.5857  -28.3661   23.1334 C   0  0  2  0  0  0
  -20.6761  -26.9402   22.5423 C   0  0  0  0  0  0
  -19.5742  -26.6392   21.5219 C   0  0  0  0  0  0
  -18.1918  -26.7930   22.1628 C   0  0  0  0  0  0
  -19.1520  -28.8840   23.2910 C   0  0  0  0  0  0
  -18.9447  -30.1451   23.8914 C   0  0  0  0  0  0
  -17.6451  -30.6590   24.0573 C   0  0  0  0  0  0
  -25.9023  -34.9479   23.5132 C   0  0  0  0  0  0
  -16.5342  -29.9091   23.6327 C   0  0  0  0  0  0
  -16.7257  -28.6515   23.0340 C   0  0  0  0  0  0
  -26.4447  -31.6617   25.0741 C   0  0  0  0  0  0
  -25.3713  -31.3734   26.1496 C   0  0  0  0  0  0
  -27.0280  -30.3054   24.6127 C   0  0  0  0  0  0
  -27.6014  -32.4353   25.7501 C   0  0  0  0  0  0
  -27.5577  -37.1813   24.8453 C   0  0  0  0  0  0
  -21.4127  -29.3027   22.3742 N   0  0  0  0  0  0
  -26.4292  -37.3794   23.9397 N   0  0  0  0  0  0
  -24.6649  -31.0801   22.1008 N   0  0  0  0  0  0
  -23.4171  -28.8185   23.3034 O   0  0  0  0  0  0
  -28.4331  -26.7564   20.0886 O   0  0  0  0  0  0
  -26.5611  -34.8935   22.4707 O   0  0  0  0  0  0
  -23.5311  -32.1431   23.7510 O   0  0  0  0  0  0
  -30.2699  -22.6905   21.3572 C   0  0  0  0  0  0
  -28.6112  -20.9387   21.3814 C   0  0  0  0  0  0
  -28.9145  -22.3141   21.4515 C   0  0  0  0  0  0
  -31.2434  -21.6884   21.1757 C   0  0  0  0  0  0
  -29.6446  -20.0012   21.2109 C   0  0  0  0  0  0
  -33.2723  -21.7095   19.6522 C   0  0  0  0  0  0
  -33.5616  -21.4437   22.1740 C   0  0  0  0  0  0
  -27.7776  -23.3131   21.6556 C   0  0  0  0  0  0
  -28.1060  -24.8195   21.5525 C   0  0  0  0  0  0
  -30.2643  -17.6185   20.6973 C   0  0  0  0  0  0
  -30.6343  -16.6138   21.8098 C   0  0  0  0  0  0
  -28.4166  -25.3241   20.1282 C   0  0  0  0  0  0
  -32.7181  -22.0541   21.0439 C   0  0  0  0  0  0
  -30.9346  -20.3723   21.1045 N   0  0  0  0  0  0
  -29.3282  -18.6382   21.1668 N   0  0  0  0  0  0
  -30.1634  -15.2648   21.5008 N   0  0  0  0  0  0
  -31.4659  -12.4079   19.0926 H   0  0  0  0  0  0
  -30.3344  -11.2736   19.7709 H   0  0  0  0  0  0
  -29.7211  -11.8056   17.4024 H   0  0  0  0  0  0
  -29.6567  -13.5100   17.7744 H   0  0  0  0  0  0
  -27.8176  -11.3179   18.7947 H   0  0  0  0  0  0
  -27.3582  -12.6648   17.7881 H   0  0  0  0  0  0
  -27.7256  -14.2543   19.6086 H   0  0  0  0  0  0
  -28.6720  -11.8926   21.2981 H   0  0  0  0  0  0
  -28.4539  -13.5030   21.8935 H   0  0  0  0  0  0
  -25.2755   -9.5687   22.4754 H   0  0  0  0  0  0
  -23.9998   -7.4635   22.7468 H   0  0  0  0  0  0
  -21.0838   -8.8772   19.8943 H   0  0  0  0  0  0
  -22.3693  -10.9672   19.6156 H   0  0  0  0  0  0
  -21.1997   -7.6145   23.9716 H   0  0  0  0  0  0
  -21.1480   -6.0520   25.9076 H   0  0  0  0  0  0
  -22.0599   -2.7609   23.2848 H   0  0  0  0  0  0
  -22.4113  -11.9884   22.4772 H   0  0  0  0  0  0
  -21.1117  -13.1252   22.2588 H   0  0  0  0  0  0
  -24.6763  -15.8490   20.5178 H   0  0  0  0  0  0
  -26.2969  -15.6186   20.0959 H   0  0  0  0  0  0
  -26.7083  -32.5548   23.1173 H   0  0  0  0  0  0
  -24.9970  -33.9793   25.0432 H   0  0  0  0  0  0
  -22.6887  -31.3098   21.4140 H   0  0  0  0  0  0
  -23.3736  -35.9680   23.3313 H   0  0  0  0  0  0
  -24.3556  -36.8950   22.2048 H   0  0  0  0  0  0
  -23.7261  -37.6548   23.6662 H   0  0  0  0  0  0
  -26.0406  -31.6036   20.5960 H   0  0  0  0  0  0
  -26.8157  -30.8890   21.9839 H   0  0  0  0  0  0
  -28.1005  -29.1173   21.1481 H   0  0  0  0  0  0
  -26.0268  -25.9833   19.0076 H   0  0  0  0  0  0
  -23.9732  -27.2942   19.0474 H   0  0  0  0  0  0
  -23.7130  -30.6016   19.4082 H   0  0  0  0  0  0
  -22.7310  -29.2442   19.8730 H   0  0  0  0  0  0
  -25.1269  -36.1987   25.0827 H   0  0  0  0  0  0
  -20.9949  -28.3238   24.1453 H   0  0  0  0  0  0
  -20.5691  -26.2263   23.3600 H   0  0  0  0  0  0
  -21.6627  -26.7463   22.1198 H   0  0  0  0  0  0
  -19.6912  -25.6307   21.1237 H   0  0  0  0  0  0
  -19.6695  -27.3222   20.6765 H   0  0  0  0  0  0
  -17.4184  -26.6686   21.4034 H   0  0  0  0  0  0
  -18.0318  -26.0068   22.9019 H   0  0  0  0  0  0
  -19.7926  -30.7261   24.2291 H   0  0  0  0  0  0
  -17.5007  -31.6271   24.5173 H   0  0  0  0  0  0
  -15.5343  -30.2996   23.7656 H   0  0  0  0  0  0
  -15.8656  -28.0851   22.7030 H   0  0  0  0  0  0
  -24.5861  -30.7109   25.7842 H   0  0  0  0  0  0
  -24.8934  -32.2898   26.4972 H   0  0  0  0  0  0
  -25.8058  -30.8882   27.0244 H   0  0  0  0  0  0
  -26.2841  -29.6835   24.1135 H   0  0  0  0  0  0
  -27.3988  -29.7273   25.4601 H   0  0  0  0  0  0
  -27.8701  -30.4365   23.9327 H   0  0  0  0  0  0
  -27.2614  -33.3632   26.2113 H   0  0  0  0  0  0
  -28.3804  -32.6951   25.0323 H   0  0  0  0  0  0
  -28.0712  -31.8469   26.5393 H   0  0  0  0  0  0
  -28.2583  -38.0118   24.7482 H   0  0  0  0  0  0
  -28.1088  -36.2642   24.6301 H   0  0  0  0  0  0
  -27.2290  -37.1482   25.8856 H   0  0  0  0  0  0
  -20.9284  -29.8748   21.6964 H   0  0  0  0  0  0
  -26.0192  -38.2878   24.1392 H   0  0  0  0  0  0
  -30.5737  -23.7258   21.4211 H   0  0  0  0  0  0
  -27.5825  -20.6133   21.4674 H   0  0  0  0  0  0
  -32.6921  -22.1997   18.8700 H   0  0  0  0  0  0
  -33.2384  -20.6361   19.4653 H   0  0  0  0  0  0
  -34.3081  -22.0331   19.5507 H   0  0  0  0  0  0
  -33.1862  -21.7563   23.1488 H   0  0  0  0  0  0
  -34.6037  -21.7546   22.1008 H   0  0  0  0  0  0
  -33.5355  -20.3543   22.1417 H   0  0  0  0  0  0
  -27.3615  -23.1198   22.6448 H   0  0  0  0  0  0
  -26.9813  -23.0747   20.9495 H   0  0  0  0  0  0
  -28.9112  -25.0878   22.2357 H   0  0  0  0  0  0
  -27.2298  -25.3550   21.9180 H   0  0  0  0  0  0
  -29.8026  -17.1090   19.8503 H   0  0  0  0  0  0
  -31.1766  -18.0637   20.2980 H   0  0  0  0  0  0
  -30.2231  -16.9145   22.7748 H   0  0  0  0  0  0
  -31.7178  -16.5976   21.9431 H   0  0  0  0  0  0
  -27.7456  -24.8863   19.3926 H   0  0  0  0  0  0
  -29.4080  -24.9822   19.8339 H   0  0  0  0  0  0
  -32.7910  -23.1376   21.1495 H   0  0  0  0  0  0
  -28.3492  -18.3785   21.2195 H   0  0  0  0  0  0
  -29.3011  -14.9682   21.9331 H   0  0  0  0  0  0
  1 25  1  0  0  0
  1 30  2  0  0  0
  1 86  1  0  0  0
  2  3  1  0  0  0
  2 25  1  0  0  0
  2 87  1  0  0  0
  2 88  1  0  0  0
  3  4  1  0  0  0
  3 89  1  0  0  0
  3 90  1  0  0  0
  4  5  1  0  0  0
  4 91  1  0  0  0
  4 92  1  0  0  0
  5  6  1  0  0  0
  5 26  1  0  0  0
  5 93  1  0  0  0
  6 25  1  0  0  0
  6 94  1  0  0  0
  6 95  1  0  0  0
  7  8  2  0  0  0
  7 26  1  0  0  0
  7 29  1  0  0  0
  8  9  1  0  0  0
  8 22  1  0  0  0
  9 10  1  0  0  0
  9 27  2  0  0  0
 10 11  2  0  0  0
 10 15  1  0  0  0
 11 12  1  0  0  0
 11 96  1  0  0  0
 12 13  2  0  0  0
 12 97  1  0  0  0
 13 14  1  0  0  0
 13 31  1  0  0  0
 14 15  2  0  0  0
 14 98  1  0  0  0
 15 99  1  0  0  0
 16 17  2  0  0  0
 16 21  1  0  0  0
 16 31  1  0  0  0
 17 18  1  0  0  0
 17100  1  0  0  0
 18 19  2  0  0  0
 18101  1  0  0  0
 19 20  1  0  0  0
 19 24  1  0  0  0
 20 21  2  0  0  0
 20102  1  0  0  0
 21 23  1  0  0  0
 22 28  1  0  0  0
 22 32  2  0  0  0
 26 27  1  0  0  0
 28103  1  0  0  0
 28104  1  0  0  0
 29105  1  0  0  0
 29106  1  0  0  0
 33 34  1  0  0  0
 33 66  1  0  0  0
 33 70  2  0  0  0
 34 36  1  0  0  0
 34 59  1  0  0  0
 34107  1  0  0  0
 35 44  2  0  0  0
 35 45  1  0  0  0
 35 68  1  0  0  0
 36 56  1  0  0  0
 36108  1  0  0  0
 37 39  1  0  0  0
 37 47  1  0  0  0
 37 66  1  0  0  0
 37109  1  0  0  0
 38 43  2  0  0  0
 38 46  1  0  0  0
 38 47  1  0  0  0
 39 64  1  0  0  0
 39 67  2  0  0  0
 40 52  1  0  0  0
 40 53  2  0  0  0
 40 58  1  0  0  0
 41110  1  0  0  0
 41111  1  0  0  0
 41112  1  0  0  0
 41 48  1  0  0  0
 42 43  1  0  0  0
 42 66  1  0  0  0
 42113  1  0  0  0
 42114  1  0  0  0
 43 44  1  0  0  0
 44115  1  0  0  0
 45 46  2  0  0  0
 45116  1  0  0  0
 46117  1  0  0  0
 47118  1  0  0  0
 47119  1  0  0  0
 48 56  1  0  0  0
 48 65  1  0  0  0
 48120  1  0  0  0
 49 50  1  0  0  0
 49 53  1  0  0  0
 49 64  1  0  0  0
 49121  1  0  0  0
 50 51  1  0  0  0
 50122  1  0  0  0
 50123  1  0  0  0
 51 52  1  0  0  0
 51124  1  0  0  0
 51125  1  0  0  0
 52126  1  0  0  0
 52127  1  0  0  0
 53 54  1  0  0  0
 54 55  2  0  0  0
 54128  1  0  0  0
 55 57  1  0  0  0
 55129  1  0  0  0
 56 69  2  0  0  0
 57 58  2  0  0  0
 57130  1  0  0  0
 58131  1  0  0  0
 59 60  1  0  0  0
 59 61  1  0  0  0
 59 62  1  0  0  0
 60132  1  0  0  0
 60133  1  0  0  0
 60134  1  0  0  0
 61135  1  0  0  0
 61136  1  0  0  0
 61137  1  0  0  0
 62138  1  0  0  0
 62139  1  0  0  0
 62140  1  0  0  0
 63 65  1  0  0  0
 63141  1  0  0  0
 63142  1  0  0  0
 63143  1  0  0  0
 64144  1  0  0  0
 65145  1  0  0  0
 68 82  1  0  0  0
 71 73  2  0  0  0
 71 74  1  0  0  0
 71146  1  0  0  0
 72 73  1  0  0  0
 72 75  2  0  0  0
 72147  1  0  0  0
 73 78  1  0  0  0
 74 83  1  0  0  0
 74 84  2  0  0  0
 75 84  1  0  0  0
 75 85  1  0  0  0
 76148  1  0  0  0
 76149  1  0  0  0
 76150  1  0  0  0
 76 83  1  0  0  0
 77 83  1  0  0  0
 77151  1  0  0  0
 77152  1  0  0  0
 77153  1  0  0  0
 78 79  1  0  0  0
 78154  1  0  0  0
 78155  1  0  0  0
 79 82  1  0  0  0
 79156  1  0  0  0
 79157  1  0  0  0
 80 81  1  0  0  0
 80 85  1  0  0  0
 80158  1  0  0  0
 80159  1  0  0  0
 81 86  1  0  0  0
 81160  1  0  0  0
 81161  1  0  0  0
 82162  1  0  0  0
 82163  1  0  0  0
 83164  1  0  0  0
 85165  1  0  0  0
 86166  1  0  0  0
M  ISO  4   1 100  68 101  82 101  86 100
M  END
> <chiral flag>
0

> <version>
0

> <s_m_source_file>
/data/baiqing/PycharmProjects/Reinvent-master-3.2/result/LINK_invent/BTK/process_docking_weight1_custom_sum_contain_oxygen_bond_distance_aromatic_linkinvent_7_9_3/rearranged_h_0095.sdf

> <i_m_source_file_index>
18

> <r_mmod_Potential_Energy-OPLS-2005>
-425.660278320312

> <r_mmod_Stretch_Energy-OPLS-2005>
33.4576530456543

> <r_mmod_Bend_Energy-OPLS-2005>
111.277610778809

> <r_mmod_Torsional_Energy-OPLS-2005>
182.938354492188

> <r_mmod_Improper_Torsional_Energy-OPLS-2005>
2.62708568572998

> <r_mmod_Van_der_Waal_Energy-OPLS-2005>
162.26496887207

> <r_mmod_Electrostatic_Energy-OPLS-2005>
-696.033508300781

> <r_mmod_Solvation_Energy-OPLS-2005>
-230.373565673828

> <b_mmod_Minimization_Converged-OPLS-2005>
0

> <r_mmod_RMS_Derivative-OPLS-2005>
1.12791168689728

$$$$
18
                    3D
 Structure written by MMmdl.
174182  0  0  1  0            999 V2000
  -30.7782  -14.5146   20.4216 C   0  0  0  0  0  0
  -30.3892  -12.3165   19.4318 C   0  0  0  0  0  0
  -29.4862  -12.4829   18.1981 C   0  0  0  0  0  0
  -28.0053  -12.3548   18.6080 C   0  0  0  0  0  0
  -27.6405  -13.2348   19.8370 C   0  0  2  0  0  0
  -28.6978  -13.1584   20.9613 C   0  0  0  0  0  0
  -25.2486  -13.8237   20.5670 C   0  0  0  0  0  0
  -24.1795  -13.0470   20.9228 C   0  0  0  0  0  0
  -24.6385  -11.6946   20.8765 C   0  0  0  0  0  0
  -23.9071  -10.4306   21.0380 C   0  0  0  0  0  0
  -24.3630   -9.4228   21.9154 C   0  0  0  0  0  0
  -23.6313   -8.2256   22.0732 C   0  0  0  0  0  0
  -22.4292   -8.0270   21.3531 C   0  0  0  0  0  0
  -21.9918   -9.0245   20.4630 C   0  0  0  0  0  0
  -22.7237  -10.2129   20.3026 C   0  0  0  0  0  0
  -21.6848   -6.0727   22.5273 C   0  0  0  0  0  0
  -21.4014   -6.5639   23.8207 C   0  0  0  0  0  0
  -21.3687   -5.6795   24.9177 C   0  0  0  0  0  0
  -21.6041   -4.3053   24.7220 C   0  0  0  0  0  0
  -21.8821   -3.8144   23.4340 C   0  0  0  0  0  0
  -21.9197   -4.6958   22.3398 C   0  0  0  0  0  0
  -22.7805  -13.5220   21.1912 C   0  0  0  0  0  0
  -22.1646   -4.2152   21.0964 F   0  0  0  0  0  0
  -21.5651   -3.4528   25.7727 F   0  0  0  0  0  0
  -30.0151  -13.3908   20.3608 N   0  0  0  0  0  0
  -26.2938  -12.9453   20.3255 N   0  0  0  0  0  0
  -25.9325  -11.6593   20.5757 N   0  0  0  0  0  0
  -22.0440  -12.8209   22.0436 N   0  0  0  0  0  0
  -25.4163  -15.1949   20.4030 N   0  0  0  0  0  0
  -31.9999  -14.4669   20.3216 O   0  0  0  0  0  0
  -21.6646   -6.8866   21.4227 O   0  0  0  0  0  0
  -22.3473  -14.5517   20.6748 O   0  0  0  0  0  0
  -24.6222  -31.8622   23.2020 C   0  0  0  0  0  0
  -25.9099  -32.4776   23.8361 C   0  0  1  0  0  0
  -27.2313  -27.3639   20.1042 C   0  0  0  0  0  0
  -25.5948  -33.8579   24.2312 N   0  0  0  0  0  0
  -23.4130  -30.4855   21.5432 C   0  0  2  0  0  0
  -24.8587  -28.9322   20.1155 C   0  0  0  0  0  0
  -22.7452  -29.4650   22.4931 C   0  0  0  0  0  0
  -18.0300  -28.1395   22.8479 C   0  0  0  0  0  0
  -24.1472  -36.7276   23.2639 C   0  0  0  0  0  0
  -25.9511  -30.7984   21.3705 C   0  0  0  0  0  0
  -26.0247  -29.4254   20.7196 C   0  0  0  0  0  0
  -27.2138  -28.6517   20.7063 C   0  0  0  0  0  0
  -26.0475  -26.8985   19.4948 C   0  0  0  0  0  0
  -24.8674  -27.6700   19.5002 C   0  0  0  0  0  0
  -23.6267  -29.8135   20.1604 C   0  0  0  0  0  0
  -25.4101  -36.3075   24.0333 C   0  0  1  0  0  0
  -20.5893  -28.3703   23.1288 C   0  0  2  0  0  0
  -20.6782  -26.9431   22.5416 C   0  0  0  0  0  0
  -19.5753  -26.6394   21.5220 C   0  0  0  0  0  0
  -18.1937  -26.7945   22.1620 C   0  0  0  0  0  0
  -19.1558  -28.8866   23.2880 C   0  0  0  0  0  0
  -18.9472  -30.1468   23.8886 C   0  0  0  0  0  0
  -17.6472  -30.6603   24.0565 C   0  0  0  0  0  0
  -25.9048  -34.9449   23.5119 C   0  0  0  0  0  0
  -16.5352  -29.9098   23.6336 C   0  0  0  0  0  0
  -16.7282  -28.6519   23.0336 C   0  0  0  0  0  0
  -26.4530  -31.6555   25.0700 C   0  0  0  0  0  0
  -25.3806  -31.3647   26.1448 C   0  0  0  0  0  0
  -27.0374  -30.2989   24.6126 C   0  0  0  0  0  0
  -27.6111  -32.4275   25.7451 C   0  0  0  0  0  0
  -27.5577  -37.1789   24.8481 C   0  0  0  0  0  0
  -21.4173  -29.3042   22.3671 N   0  0  0  0  0  0
  -26.4274  -37.3783   23.9428 N   0  0  0  0  0  0
  -24.6815  -31.0657   22.0953 N   0  0  0  0  0  0
  -23.4202  -28.8220   23.3011 O   0  0  0  0  0  0
  -28.3653  -26.5625   20.0833 O   0  0  0  0  0  0
  -26.5593  -34.8918   22.4677 O   0  0  0  0  0  0
  -23.5396  -32.1417   23.7357 O   0  0  0  0  0  0
  -29.9375  -18.6646   17.9832 C   0  0  0  0  0  0
  -30.8308  -18.3467   16.7521 C   0  0  0  0  0  0
  -31.1709  -16.1950   17.8820 C   0  0  0  0  0  0
  -30.9600  -16.7332   19.3359 C   0  0  1  0  0  0
  -30.5954  -18.2909   19.3333 C   0  0  2  0  0  0
  -27.8045  -21.1060   19.2209 C   0  0  0  0  0  0
  -27.6490  -20.4396   21.5924 C   0  0  0  0  0  0
  -30.4562  -18.4182   21.8294 C   0  0  0  0  0  0
  -28.6536  -23.9476   20.0762 C   0  0  0  0  0  0
  -28.6242  -22.7062   21.0538 C   0  0  0  0  0  0
  -29.9485  -20.4637   20.5286 C   0  0  0  0  0  0
  -28.2711  -25.2969   20.8031 C   0  0  0  0  0  0
  -28.5398  -21.1888   20.5697 C   0  0  0  0  0  0
  -30.1795  -15.6942   20.0970 N   0  0  0  0  0  0
  -31.7457  -17.2054   16.9781 N   0  3  0  0  0  0
  -29.9346  -18.9378   20.5316 N   0  3  1  0  0  0
  -31.4408  -12.3494   19.1394 H   0  0  0  0  0  0
  -30.2324  -11.3388   19.8905 H   0  0  0  0  0  0
  -29.7411  -11.7396   17.4432 H   0  0  0  0  0  0
  -29.6587  -13.4568   17.7381 H   0  0  0  0  0  0
  -27.8104  -11.3045   18.8212 H   0  0  0  0  0  0
  -27.3625  -12.6168   17.7653 H   0  0  0  0  0  0
  -27.6346  -14.2637   19.4771 H   0  0  0  0  0  0
  -28.6757  -12.1844   21.4518 H   0  0  0  0  0  0
  -28.4877  -13.9025   21.7328 H   0  0  0  0  0  0
  -25.2755   -9.5730   22.4752 H   0  0  0  0  0  0
  -24.0036   -7.4640   22.7443 H   0  0  0  0  0  0
  -21.0856   -8.8750   19.8931 H   0  0  0  0  0  0
  -22.3660  -10.9675   19.6161 H   0  0  0  0  0  0
  -21.1974   -7.6141   23.9724 H   0  0  0  0  0  0
  -21.1526   -6.0506   25.9091 H   0  0  0  0  0  0
  -22.0580   -2.7602   23.2832 H   0  0  0  0  0  0
  -22.4027  -11.9870   22.4863 H   0  0  0  0  0  0
  -21.1039  -13.1213   22.2594 H   0  0  0  0  0  0
  -24.6473  -15.8483   20.4999 H   0  0  0  0  0  0
  -26.2609  -15.6334   20.0655 H   0  0  0  0  0  0
  -26.7132  -32.5457   23.1075 H   0  0  0  0  0  0
  -25.0153  -33.9719   25.0501 H   0  0  0  0  0  0
  -22.7073  -31.3071   21.3990 H   0  0  0  0  0  0
  -23.3744  -35.9603   23.3282 H   0  0  0  0  0  0
  -24.3581  -36.8908   22.2060 H   0  0  0  0  0  0
  -23.7196  -37.6463   23.6664 H   0  0  0  0  0  0
  -26.0804  -31.5498   20.5905 H   0  0  0  0  0  0
  -26.8340  -30.8504   21.9957 H   0  0  0  0  0  0
  -28.1126  -29.0237   21.1775 H   0  0  0  0  0  0
  -26.0390  -25.9304   19.0162 H   0  0  0  0  0  0
  -23.9760  -27.2848   19.0241 H   0  0  0  0  0  0
  -23.7475  -30.5866   19.4013 H   0  0  0  0  0  0
  -22.7488  -29.2426   19.8532 H   0  0  0  0  0  0
  -25.1277  -36.1919   25.0819 H   0  0  0  0  0  0
  -21.0002  -28.3248   24.1401 H   0  0  0  0  0  0
  -20.5699  -26.2310   23.3612 H   0  0  0  0  0  0
  -21.6658  -26.7469   22.1207 H   0  0  0  0  0  0
  -19.6911  -25.6309   21.1233 H   0  0  0  0  0  0
  -19.6673  -27.3222   20.6757 H   0  0  0  0  0  0
  -17.4223  -26.6695   21.3991 H   0  0  0  0  0  0
  -18.0318  -26.0099   22.9020 H   0  0  0  0  0  0
  -19.7944  -30.7312   24.2222 H   0  0  0  0  0  0
  -17.5017  -31.6282   24.5179 H   0  0  0  0  0  0
  -15.5354  -30.2999   23.7681 H   0  0  0  0  0  0
  -15.8669  -28.0852   22.7032 H   0  0  0  0  0  0
  -24.6042  -30.6915   25.7802 H   0  0  0  0  0  0
  -24.8939  -32.2781   26.4863 H   0  0  0  0  0  0
  -25.8197  -30.8872   27.0218 H   0  0  0  0  0  0
  -26.2923  -29.6689   24.1250 H   0  0  0  0  0  0
  -27.4203  -29.7280   25.4598 H   0  0  0  0  0  0
  -27.8742  -30.4279   23.9256 H   0  0  0  0  0  0
  -27.2761  -33.3594   26.2010 H   0  0  0  0  0  0
  -28.3932  -32.6781   25.0271 H   0  0  0  0  0  0
  -28.0770  -31.8401   26.5366 H   0  0  0  0  0  0
  -28.2594  -38.0092   24.7586 H   0  0  0  0  0  0
  -28.1071  -36.2634   24.6237 H   0  0  0  0  0  0
  -27.2320  -37.1379   25.8892 H   0  0  0  0  0  0
  -20.9352  -29.8723   21.6849 H   0  0  0  0  0  0
  -26.0139  -38.2846   24.1467 H   0  0  0  0  0  0
  -28.9845  -18.1411   17.8949 H   0  0  0  0  0  0
  -29.7074  -19.7228   17.9245 H   0  0  0  0  0  0
  -31.4208  -19.2170   16.4570 H   0  0  0  0  0  0
  -30.1921  -18.1240   15.8972 H   0  0  0  0  0  0
  -30.2191  -15.8608   17.4640 H   0  0  0  0  0  0
  -31.8258  -15.3231   17.8754 H   0  0  0  0  0  0
  -31.9520  -16.7570   19.7928 H   0  0  0  0  0  0
  -31.5693  -18.7869   19.3078 H   0  0  0  0  0  0
  -26.8748  -21.6746   19.2524 H   0  0  0  0  0  0
  -27.5253  -20.0818   18.9663 H   0  0  0  0  0  0
  -28.4090  -21.5101   18.4080 H   0  0  0  0  0  0
  -26.6506  -20.8809   21.6503 H   0  0  0  0  0  0
  -28.0782  -20.4742   22.5961 H   0  0  0  0  0  0
  -27.4914  -19.3929   21.3315 H   0  0  0  0  0  0
  -30.2288  -17.3660   21.9802 H   0  0  0  0  0  0
  -29.9997  -18.9366   22.6727 H   0  0  0  0  0  0
  -31.5370  -18.5401   21.9137 H   0  0  0  0  0  0
  -27.9627  -23.8096   19.2444 H   0  0  0  0  0  0
  -29.6454  -24.0266   19.6264 H   0  0  0  0  0  0
  -27.7498  -22.8810   21.6801 H   0  0  0  0  0  0
  -29.4623  -22.8098   21.7438 H   0  0  0  0  0  0
  -30.4967  -20.7979   21.4134 H   0  0  0  0  0  0
  -30.5548  -20.8571   19.7126 H   0  0  0  0  0  0
  -28.9247  -25.4051   21.6692 H   0  0  0  0  0  0
  -27.2703  -25.1755   21.2203 H   0  0  0  0  0  0
  -29.1741  -15.6839   20.0086 H   0  0  0  0  0  0
  -32.6267  -17.5255   17.3484 H   0  0  0  0  0  0
  -31.9539  -16.7784   16.0872 H   0  0  0  0  0  0
  -28.9622  -18.6697   20.5179 H   0  0  0  0  0  0
  1 25  1  0  0  0
  1 30  2  0  0  0
  1 84  1  0  0  0
  2  3  1  0  0  0
  2 25  1  0  0  0
  2 87  1  0  0  0
  2 88  1  0  0  0
  3  4  1  0  0  0
  3 89  1  0  0  0
  3 90  1  0  0  0
  4  5  1  0  0  0
  4 91  1  0  0  0
  4 92  1  0  0  0
  5  6  1  0  0  0
  5 26  1  0  0  0
  5 93  1  0  0  0
  6 25  1  0  0  0
  6 94  1  0  0  0
  6 95  1  0  0  0
  7  8  2  0  0  0
  7 26  1  0  0  0
  7 29  1  0  0  0
  8  9  1  0  0  0
  8 22  1  0  0  0
  9 10  1  0  0  0
  9 27  2  0  0  0
 10 11  2  0  0  0
 10 15  1  0  0  0
 11 12  1  0  0  0
 11 96  1  0  0  0
 12 13  2  0  0  0
 12 97  1  0  0  0
 13 14  1  0  0  0
 13 31  1  0  0  0
 14 15  2  0  0  0
 14 98  1  0  0  0
 15 99  1  0  0  0
 16 17  2  0  0  0
 16 21  1  0  0  0
 16 31  1  0  0  0
 17 18  1  0  0  0
 17100  1  0  0  0
 18 19  2  0  0  0
 18101  1  0  0  0
 19 20  1  0  0  0
 19 24  1  0  0  0
 20 21  2  0  0  0
 20102  1  0  0  0
 21 23  1  0  0  0
 22 28  1  0  0  0
 22 32  2  0  0  0
 26 27  1  0  0  0
 28103  1  0  0  0
 28104  1  0  0  0
 29105  1  0  0  0
 29106  1  0  0  0
 33 34  1  0  0  0
 33 66  1  0  0  0
 33 70  2  0  0  0
 34 36  1  0  0  0
 34 59  1  0  0  0
 34107  1  0  0  0
 35 44  2  0  0  0
 35 45  1  0  0  0
 35 68  1  0  0  0
 36 56  1  0  0  0
 36108  1  0  0  0
 37 39  1  0  0  0
 37 47  1  0  0  0
 37 66  1  0  0  0
 37109  1  0  0  0
 38 43  2  0  0  0
 38 46  1  0  0  0
 38 47  1  0  0  0
 39 64  1  0  0  0
 39 67  2  0  0  0
 40 52  1  0  0  0
 40 53  2  0  0  0
 40 58  1  0  0  0
 41110  1  0  0  0
 41111  1  0  0  0
 41112  1  0  0  0
 41 48  1  0  0  0
 42 43  1  0  0  0
 42 66  1  0  0  0
 42113  1  0  0  0
 42114  1  0  0  0
 43 44  1  0  0  0
 44115  1  0  0  0
 45 46  2  0  0  0
 45116  1  0  0  0
 46117  1  0  0  0
 47118  1  0  0  0
 47119  1  0  0  0
 48 56  1  0  0  0
 48 65  1  0  0  0
 48120  1  0  0  0
 49 50  1  0  0  0
 49 53  1  0  0  0
 49 64  1  0  0  0
 49121  1  0  0  0
 50 51  1  0  0  0
 50122  1  0  0  0
 50123  1  0  0  0
 51 52  1  0  0  0
 51124  1  0  0  0
 51125  1  0  0  0
 52126  1  0  0  0
 52127  1  0  0  0
 53 54  1  0  0  0
 54 55  2  0  0  0
 54128  1  0  0  0
 55 57  1  0  0  0
 55129  1  0  0  0
 56 69  2  0  0  0
 57 58  2  0  0  0
 57130  1  0  0  0
 58131  1  0  0  0
 59 60  1  0  0  0
 59 61  1  0  0  0
 59 62  1  0  0  0
 60132  1  0  0  0
 60133  1  0  0  0
 60134  1  0  0  0
 61135  1  0  0  0
 61136  1  0  0  0
 61137  1  0  0  0
 62138  1  0  0  0
 62139  1  0  0  0
 62140  1  0  0  0
 63 65  1  0  0  0
 63141  1  0  0  0
 63142  1  0  0  0
 63143  1  0  0  0
 64144  1  0  0  0
 65145  1  0  0  0
 68 82  1  0  0  0
 71 72  1  0  0  0
 71146  1  0  0  0
 71147  1  0  0  0
 71 75  1  0  0  0
 72 85  1  0  0  0
 72148  1  0  0  0
 72149  1  0  0  0
 73 74  1  0  0  0
 73 85  1  0  0  0
 73150  1  0  0  0
 73151  1  0  0  0
 74 75  1  0  0  0
 74 84  1  0  0  0
 74152  1  0  0  0
 75 86  1  0  0  0
 75153  1  0  0  0
 76154  1  0  0  0
 76155  1  0  0  0
 76156  1  0  0  0
 76 83  1  0  0  0
 77 83  1  0  0  0
 77157  1  0  0  0
 77158  1  0  0  0
 77159  1  0  0  0
 78160  1  0  0  0
 78161  1  0  0  0
 78162  1  0  0  0
 78 86  1  0  0  0
 79 80  1  0  0  0
 79 82  1  0  0  0
 79163  1  0  0  0
 79164  1  0  0  0
 80 83  1  0  0  0
 80165  1  0  0  0
 80166  1  0  0  0
 81 83  1  0  0  0
 81 86  1  0  0  0
 81167  1  0  0  0
 81168  1  0  0  0
 82169  1  0  0  0
 82170  1  0  0  0
 84171  1  0  0  0
 85172  1  0  0  0
 85173  1  0  0  0
 86174  1  0  0  0
M  CHG  2  85   1  86   1
M  ISO  4   1 100  68 101  82 101  84 100
M  END
> <chiral flag>
0

> <version>
0

> <s_m_source_file>
/data/baiqing/PycharmProjects/Reinvent-master-3.2/result/LINK_invent/BTK/process_docking_weight1_custom_sum_contain_oxygen_bond_distance_aromatic_linkinvent_7_9_3/rearranged_h_0095.sdf

> <i_m_source_file_index>
19

> <r_mmod_Potential_Energy-OPLS-2005>
-138.203460693359

> <r_mmod_Stretch_Energy-OPLS-2005>
72.5490951538086

> <r_mmod_Bend_Energy-OPLS-2005>
173.483627319336

> <r_mmod_Torsional_Energy-OPLS-2005>
370.767059326172

> <r_mmod_Improper_Torsional_Energy-OPLS-2005>
16.4565448760986

> <r_mmod_Van_der_Waal_Energy-OPLS-2005>
150.40104675293

> <r_mmod_Electrostatic_Energy-OPLS-2005>
14.9230518341064

> <r_mmod_Solvation_Energy-OPLS-2005>
-986.981018066406

> <b_mmod_Minimization_Converged-OPLS-2005>
0

> <r_mmod_RMS_Derivative-OPLS-2005>
4.91944932937622

$$$$
19
                    3D
 Structure written by MMmdl.
156164  0  0  1  0            999 V2000
  -30.6254  -14.6873   20.4669 C   0  0  0  0  0  0
  -30.4298  -12.4170   19.4671 C   0  0  0  0  0  0
  -29.5077  -12.5006   18.2309 C   0  0  0  0  0  0
  -28.0316  -12.3363   18.6427 C   0  0  0  0  0  0
  -27.6450  -13.2259   19.8546 C   0  0  2  0  0  0
  -28.6889  -13.1325   20.9896 C   0  0  0  0  0  0
  -25.2519  -13.8188   20.5685 C   0  0  0  0  0  0
  -24.1807  -13.0441   20.9208 C   0  0  0  0  0  0
  -24.6387  -11.6914   20.8745 C   0  0  0  0  0  0
  -23.9061  -10.4293   21.0406 C   0  0  0  0  0  0
  -24.3614   -9.4209   21.9184 C   0  0  0  0  0  0
  -23.6292   -8.2244   22.0754 C   0  0  0  0  0  0
  -22.4274   -8.0280   21.3544 C   0  0  0  0  0  0
  -21.9908   -9.0254   20.4648 C   0  0  0  0  0  0
  -22.7234  -10.2134   20.3057 C   0  0  0  0  0  0
  -21.6858   -6.0731   22.5276 C   0  0  0  0  0  0
  -21.4016   -6.5636   23.8209 C   0  0  0  0  0  0
  -21.3659   -5.6789   24.9172 C   0  0  0  0  0  0
  -21.6046   -4.3052   24.7225 C   0  0  0  0  0  0
  -21.8820   -3.8142   23.4346 C   0  0  0  0  0  0
  -21.9192   -4.6958   22.3400 C   0  0  0  0  0  0
  -22.7827  -13.5227   21.1865 C   0  0  0  0  0  0
  -22.1663   -4.2142   21.0979 F   0  0  0  0  0  0
  -21.5630   -3.4538   25.7740 F   0  0  0  0  0  0
  -29.9965  -13.4680   20.4132 N   0  0  0  0  0  0
  -26.2946  -12.9384   20.3287 N   0  0  0  0  0  0
  -25.9316  -11.6531   20.5750 N   0  0  0  0  0  0
  -22.0465  -12.8222   22.0420 N   0  0  0  0  0  0
  -25.4204  -15.1911   20.4071 N   0  0  0  0  0  0
  -31.8075  -14.7956   20.1302 O   0  0  0  0  0  0
  -21.6642   -6.8875   21.4238 O   0  0  0  0  0  0
  -22.3514  -14.5532   20.6707 O   0  0  0  0  0  0
  -24.6274  -31.8563   23.1982 C   0  0  0  0  0  0
  -25.9113  -32.4757   23.8319 C   0  0  1  0  0  0
  -27.2277  -27.2934   20.1159 C   0  0  0  0  0  0
  -25.5920  -33.8560   24.2246 N   0  0  0  0  0  0
  -23.4219  -30.4778   21.5411 C   0  0  2  0  0  0
  -24.8674  -28.9238   20.1097 C   0  0  0  0  0  0
  -22.7474  -29.4607   22.4924 C   0  0  0  0  0  0
  -18.0284  -28.1389   22.8483 C   0  0  0  0  0  0
  -24.1489  -36.7288   23.2640 C   0  0  0  0  0  0
  -25.9634  -30.7788   21.3711 C   0  0  0  0  0  0
  -26.0353  -29.4029   20.7142 C   0  0  0  0  0  0
  -27.2138  -28.5981   20.7074 C   0  0  0  0  0  0
  -26.0306  -26.8620   19.5017 C   0  0  0  0  0  0
  -24.8680  -27.6601   19.4966 C   0  0  0  0  0  0
  -23.6365  -29.8074   20.1576 C   0  0  0  0  0  0
  -25.4115  -36.3070   24.0323 C   0  0  1  0  0  0
  -20.5884  -28.3690   23.1281 C   0  0  2  0  0  0
  -20.6769  -26.9411   22.5412 C   0  0  0  0  0  0
  -19.5747  -26.6384   21.5212 C   0  0  0  0  0  0
  -18.1928  -26.7930   22.1625 C   0  0  0  0  0  0
  -19.1538  -28.8856   23.2877 C   0  0  0  0  0  0
  -18.9464  -30.1460   23.8890 C   0  0  0  0  0  0
  -17.6464  -30.6589   24.0565 C   0  0  0  0  0  0
  -25.9054  -34.9441   23.5090 C   0  0  0  0  0  0
  -16.5353  -29.9088   23.6334 C   0  0  0  0  0  0
  -16.7273  -28.6509   23.0349 C   0  0  0  0  0  0
  -26.4491  -31.6584   25.0707 C   0  0  0  0  0  0
  -25.3719  -31.3733   26.1433 C   0  0  0  0  0  0
  -27.0337  -30.3002   24.6186 C   0  0  0  0  0  0
  -27.6040  -32.4328   25.7485 C   0  0  0  0  0  0
  -27.5576  -37.1800   24.8464 C   0  0  0  0  0  0
  -21.4185  -29.3039   22.3670 N   0  0  0  0  0  0
  -26.4288  -37.3770   23.9406 N   0  0  0  0  0  0
  -24.6899  -31.0554   22.0939 N   0  0  0  0  0  0
  -23.4189  -28.8154   23.3017 O   0  0  0  0  0  0
  -28.3702  -26.4743   20.1849 O   0  0  0  0  0  0
  -26.5633  -34.8918   22.4664 O   0  0  0  0  0  0
  -23.5435  -32.1371   23.7300 O   0  0  0  0  0  0
  -29.5454  -19.8252   20.1709 C   0  0  0  0  0  0
  -28.1827  -18.3689   21.5069 C   0  0  0  0  0  0
  -29.3119  -18.4934   20.6827 C   0  0  0  0  0  0
  -28.6678  -20.9389   20.4599 C   0  0  0  0  0  0
  -27.5633  -20.6244   21.2824 C   0  0  0  0  0  0
  -25.5085  -21.2612   22.3778 C   0  0  0  0  0  0
  -28.8401  -22.3772   19.7909 C   0  0  0  0  0  0
  -30.2606  -17.2523   20.3944 C   0  0  0  0  0  0
  -28.4001  -23.7738   20.4828 C   0  0  0  0  0  0
  -28.4772  -25.1108   19.5926 C   0  0  0  0  0  0
  -27.3461  -19.3887   21.7950 N   0  0  0  0  0  0
  -29.8534  -15.8127   20.6712 N   0  0  0  0  0  0
  -26.6289  -21.5962   21.5639 O   0  0  0  0  0  0
  -31.4732  -12.5314   19.1679 H   0  0  0  0  0  0
  -30.3607  -11.4333   19.9346 H   0  0  0  0  0  0
  -29.7797  -11.7345   17.5033 H   0  0  0  0  0  0
  -29.6469  -13.4601   17.7303 H   0  0  0  0  0  0
  -27.8760  -11.2861   18.8916 H   0  0  0  0  0  0
  -27.3774  -12.5456   17.7959 H   0  0  0  0  0  0
  -27.6480  -14.2521   19.4880 H   0  0  0  0  0  0
  -28.7095  -12.1292   21.4170 H   0  0  0  0  0  0
  -28.4343  -13.8076   21.8083 H   0  0  0  0  0  0
  -25.2759   -9.5688   22.4757 H   0  0  0  0  0  0
  -24.0003   -7.4636   22.7476 H   0  0  0  0  0  0
  -21.0838   -8.8771   19.8955 H   0  0  0  0  0  0
  -22.3691  -10.9672   19.6167 H   0  0  0  0  0  0
  -21.2011   -7.6145   23.9711 H   0  0  0  0  0  0
  -21.1482   -6.0519   25.9074 H   0  0  0  0  0  0
  -22.0600   -2.7604   23.2849 H   0  0  0  0  0  0
  -22.4085  -11.9894   22.4822 H   0  0  0  0  0  0
  -21.1079  -13.1244   22.2622 H   0  0  0  0  0  0
  -24.6466  -15.8392   20.5082 H   0  0  0  0  0  0
  -26.2506  -15.6256   20.0262 H   0  0  0  0  0  0
  -26.7177  -32.5409   23.1059 H   0  0  0  0  0  0
  -25.0049  -33.9698   25.0379 H   0  0  0  0  0  0
  -22.7171  -31.2991   21.3954 H   0  0  0  0  0  0
  -23.3747  -35.9626   23.3303 H   0  0  0  0  0  0
  -24.3574  -36.8912   22.2053 H   0  0  0  0  0  0
  -23.7249  -37.6492   23.6667 H   0  0  0  0  0  0
  -26.0976  -31.5405   20.6016 H   0  0  0  0  0  0
  -26.8424  -30.8275   22.0021 H   0  0  0  0  0  0
  -28.1113  -28.9637   21.1865 H   0  0  0  0  0  0
  -25.9552  -25.8882   19.0435 H   0  0  0  0  0  0
  -23.9684  -27.2835   19.0289 H   0  0  0  0  0  0
  -23.7561  -30.5816   19.3989 H   0  0  0  0  0  0
  -22.7553  -29.2377   19.8570 H   0  0  0  0  0  0
  -25.1300  -36.1913   25.0816 H   0  0  0  0  0  0
  -20.9980  -28.3270   24.1401 H   0  0  0  0  0  0
  -20.5664  -26.2302   23.3614 H   0  0  0  0  0  0
  -21.6639  -26.7433   22.1213 H   0  0  0  0  0  0
  -19.6907  -25.6296   21.1240 H   0  0  0  0  0  0
  -19.6686  -27.3194   20.6742 H   0  0  0  0  0  0
  -17.4196  -26.6676   21.4030 H   0  0  0  0  0  0
  -18.0330  -26.0076   22.9025 H   0  0  0  0  0  0
  -19.7941  -30.7280   24.2251 H   0  0  0  0  0  0
  -17.5020  -31.6269   24.5168 H   0  0  0  0  0  0
  -15.5355  -30.2992   23.7663 H   0  0  0  0  0  0
  -15.8672  -28.0834   22.7059 H   0  0  0  0  0  0
  -24.5892  -30.7084   25.7765 H   0  0  0  0  0  0
  -24.8916  -32.2906   26.4849 H   0  0  0  0  0  0
  -25.8040  -30.8917   27.0215 H   0  0  0  0  0  0
  -26.2920  -29.6749   24.1206 H   0  0  0  0  0  0
  -27.4018  -29.7265   25.4703 H   0  0  0  0  0  0
  -27.8795  -30.4274   23.9424 H   0  0  0  0  0  0
  -27.2636  -33.3624   26.2059 H   0  0  0  0  0  0
  -28.3855  -32.6897   25.0323 H   0  0  0  0  0  0
  -28.0706  -31.8461   26.5408 H   0  0  0  0  0  0
  -28.2596  -38.0094   24.7505 H   0  0  0  0  0  0
  -28.1069  -36.2625   24.6299 H   0  0  0  0  0  0
  -27.2294  -37.1459   25.8868 H   0  0  0  0  0  0
  -20.9363  -29.8760   21.6880 H   0  0  0  0  0  0
  -26.0165  -38.2844   24.1408 H   0  0  0  0  0  0
  -30.3984  -19.9893   19.5278 H   0  0  0  0  0  0
  -27.9311  -17.4174   21.9514 H   0  0  0  0  0  0
  -24.9055  -20.4732   21.9244 H   0  0  0  0  0  0
  -24.8712  -22.1374   22.4934 H   0  0  0  0  0  0
  -25.8211  -20.9457   23.3739 H   0  0  0  0  0  0
  -28.3068  -22.3145   18.8416 H   0  0  0  0  0  0
  -29.8907  -22.4695   19.5135 H   0  0  0  0  0  0
  -31.1860  -17.4348   20.9433 H   0  0  0  0  0  0
  -30.5392  -17.3057   19.3404 H   0  0  0  0  0  0
  -29.0077  -23.9161   21.3766 H   0  0  0  0  0  0
  -27.3721  -23.7143   20.8308 H   0  0  0  0  0  0
  -27.8285  -25.0055   18.7255 H   0  0  0  0  0  0
  -29.4741  -25.1074   19.1521 H   0  0  0  0  0  0
  -28.8882  -15.6391   20.9017 H   0  0  0  0  0  0
  1 25  1  0  0  0
  1 30  2  0  0  0
  1 82  1  0  0  0
  2  3  1  0  0  0
  2 25  1  0  0  0
  2 84  1  0  0  0
  2 85  1  0  0  0
  3  4  1  0  0  0
  3 86  1  0  0  0
  3 87  1  0  0  0
  4  5  1  0  0  0
  4 88  1  0  0  0
  4 89  1  0  0  0
  5  6  1  0  0  0
  5 26  1  0  0  0
  5 90  1  0  0  0
  6 25  1  0  0  0
  6 91  1  0  0  0
  6 92  1  0  0  0
  7  8  2  0  0  0
  7 26  1  0  0  0
  7 29  1  0  0  0
  8  9  1  0  0  0
  8 22  1  0  0  0
  9 10  1  0  0  0
  9 27  2  0  0  0
 10 11  2  0  0  0
 10 15  1  0  0  0
 11 12  1  0  0  0
 11 93  1  0  0  0
 12 13  2  0  0  0
 12 94  1  0  0  0
 13 14  1  0  0  0
 13 31  1  0  0  0
 14 15  2  0  0  0
 14 95  1  0  0  0
 15 96  1  0  0  0
 16 17  2  0  0  0
 16 21  1  0  0  0
 16 31  1  0  0  0
 17 18  1  0  0  0
 17 97  1  0  0  0
 18 19  2  0  0  0
 18 98  1  0  0  0
 19 20  1  0  0  0
 19 24  1  0  0  0
 20 21  2  0  0  0
 20 99  1  0  0  0
 21 23  1  0  0  0
 22 28  1  0  0  0
 22 32  2  0  0  0
 26 27  1  0  0  0
 28100  1  0  0  0
 28101  1  0  0  0
 29102  1  0  0  0
 29103  1  0  0  0
 33 34  1  0  0  0
 33 66  1  0  0  0
 33 70  2  0  0  0
 34 36  1  0  0  0
 34 59  1  0  0  0
 34104  1  0  0  0
 35 44  2  0  0  0
 35 45  1  0  0  0
 35 68  1  0  0  0
 36 56  1  0  0  0
 36105  1  0  0  0
 37 39  1  0  0  0
 37 47  1  0  0  0
 37 66  1  0  0  0
 37106  1  0  0  0
 38 43  2  0  0  0
 38 46  1  0  0  0
 38 47  1  0  0  0
 39 64  1  0  0  0
 39 67  2  0  0  0
 40 52  1  0  0  0
 40 53  2  0  0  0
 40 58  1  0  0  0
 41107  1  0  0  0
 41108  1  0  0  0
 41109  1  0  0  0
 41 48  1  0  0  0
 42 43  1  0  0  0
 42 66  1  0  0  0
 42110  1  0  0  0
 42111  1  0  0  0
 43 44  1  0  0  0
 44112  1  0  0  0
 45 46  2  0  0  0
 45113  1  0  0  0
 46114  1  0  0  0
 47115  1  0  0  0
 47116  1  0  0  0
 48 56  1  0  0  0
 48 65  1  0  0  0
 48117  1  0  0  0
 49 50  1  0  0  0
 49 53  1  0  0  0
 49 64  1  0  0  0
 49118  1  0  0  0
 50 51  1  0  0  0
 50119  1  0  0  0
 50120  1  0  0  0
 51 52  1  0  0  0
 51121  1  0  0  0
 51122  1  0  0  0
 52123  1  0  0  0
 52124  1  0  0  0
 53 54  1  0  0  0
 54 55  2  0  0  0
 54125  1  0  0  0
 55 57  1  0  0  0
 55126  1  0  0  0
 56 69  2  0  0  0
 57 58  2  0  0  0
 57127  1  0  0  0
 58128  1  0  0  0
 59 60  1  0  0  0
 59 61  1  0  0  0
 59 62  1  0  0  0
 60129  1  0  0  0
 60130  1  0  0  0
 60131  1  0  0  0
 61132  1  0  0  0
 61133  1  0  0  0
 61134  1  0  0  0
 62135  1  0  0  0
 62136  1  0  0  0
 62137  1  0  0  0
 63 65  1  0  0  0
 63138  1  0  0  0
 63139  1  0  0  0
 63140  1  0  0  0
 64141  1  0  0  0
 65142  1  0  0  0
 68 80  1  0  0  0
 71 73  2  0  0  0
 71 74  1  0  0  0
 71143  1  0  0  0
 72 73  1  0  0  0
 72 81  2  0  0  0
 72144  1  0  0  0
 73 78  1  0  0  0
 74 75  2  0  0  0
 74 77  1  0  0  0
 75 81  1  0  0  0
 75 83  1  0  0  0
 76 83  1  0  0  0
 76145  1  0  0  0
 76146  1  0  0  0
 76147  1  0  0  0
 77 79  1  0  0  0
 77148  1  0  0  0
 77149  1  0  0  0
 78 82  1  0  0  0
 78150  1  0  0  0
 78151  1  0  0  0
 79 80  1  0  0  0
 79152  1  0  0  0
 79153  1  0  0  0
 80154  1  0  0  0
 80155  1  0  0  0
 82156  1  0  0  0
M  ISO  4   1 100  68 101  80 101  82 100
M  END
> <chiral flag>
0

> <version>
0

> <s_m_source_file>
/data/baiqing/PycharmProjects/Reinvent-master-3.2/result/LINK_invent/BTK/process_docking_weight1_custom_sum_contain_oxygen_bond_distance_aromatic_linkinvent_7_9_3/rearranged_h_0095.sdf

> <i_m_source_file_index>
20

> <r_mmod_Potential_Energy-OPLS-2005>
-65.7773971557617

> <r_mmod_Stretch_Energy-OPLS-2005>
103.633293151855

> <r_mmod_Bend_Energy-OPLS-2005>
169.73583984375

> <r_mmod_Torsional_Energy-OPLS-2005>
181.946365356445

> <r_mmod_Improper_Torsional_Energy-OPLS-2005>
6.19151782989502

> <r_mmod_Van_der_Waal_Energy-OPLS-2005>
147.773223876953

> <r_mmod_Electrostatic_Energy-OPLS-2005>
-520.196655273438

> <r_mmod_Solvation_Energy-OPLS-2005>
-216.774688720703

> <b_mmod_Minimization_Converged-OPLS-2005>
0

> <r_mmod_RMS_Derivative-OPLS-2005>
0.608640611171722

$$$$
20
                    3D
 Structure written by MMmdl.
174182  0  0  1  0            999 V2000
  -30.5251  -14.9854   20.3948 C   0  0  0  0  0  0
  -30.4264  -12.5980   19.5167 C   0  0  0  0  0  0
  -29.5170  -12.5187   18.2668 C   0  0  0  0  0  0
  -28.0496  -12.3163   18.6797 C   0  0  0  0  0  0
  -27.6234  -13.2581   19.8350 C   0  0  2  0  0  0
  -28.6607  -13.3149   20.9766 C   0  0  0  0  0  0
  -25.2422  -13.8227   20.5678 C   0  0  0  0  0  0
  -24.1732  -13.0390   20.9110 C   0  0  0  0  0  0
  -24.6433  -11.6909   20.8694 C   0  0  0  0  0  0
  -23.9142  -10.4254   21.0394 C   0  0  0  0  0  0
  -24.3659   -9.4191   21.9199 C   0  0  0  0  0  0
  -23.6342   -8.2208   22.0761 C   0  0  0  0  0  0
  -22.4308   -8.0271   21.3553 C   0  0  0  0  0  0
  -21.9966   -9.0225   20.4640 C   0  0  0  0  0  0
  -22.7298  -10.2103   20.3050 C   0  0  0  0  0  0
  -21.6867   -6.0759   22.5319 C   0  0  0  0  0  0
  -21.3995   -6.5660   23.8243 C   0  0  0  0  0  0
  -21.3655   -5.6803   24.9199 C   0  0  0  0  0  0
  -21.6062   -4.3079   24.7250 C   0  0  0  0  0  0
  -21.8823   -3.8180   23.4377 C   0  0  0  0  0  0
  -21.9201   -4.6990   22.3425 C   0  0  0  0  0  0
  -22.7746  -13.5105   21.1780 C   0  0  0  0  0  0
  -22.1676   -4.2163   21.1016 F   0  0  0  0  0  0
  -21.5626   -3.4578   25.7770 F   0  0  0  0  0  0
  -29.9413  -13.7172   20.3833 N   0  0  0  0  0  0
  -26.2852  -12.9476   20.3217 N   0  0  0  0  0  0
  -25.9375  -11.6601   20.5741 N   0  0  0  0  0  0
  -22.0459  -12.7920   22.0268 N   0  0  0  0  0  0
  -25.4130  -15.1961   20.4286 N   0  0  0  0  0  0
  -31.7145  -15.0518   20.0669 O   0  0  0  0  0  0
  -21.6653   -6.8885   21.4272 O   0  0  0  0  0  0
  -22.3498  -14.5585   20.6941 O   0  0  0  0  0  0
  -24.6487  -31.8435   23.1893 C   0  0  0  0  0  0
  -25.9224  -32.4702   23.8297 C   0  0  1  0  0  0
  -27.2281  -27.1035   20.1506 C   0  0  0  0  0  0
  -25.5981  -33.8510   24.2216 N   0  0  0  0  0  0
  -23.4547  -30.4592   21.5410 C   0  0  2  0  0  0
  -24.9057  -28.8810   20.1203 C   0  0  0  0  0  0
  -22.7600  -29.4546   22.4930 C   0  0  0  0  0  0
  -18.0298  -28.1451   22.8460 C   0  0  0  0  0  0
  -24.1504  -36.7197   23.2645 C   0  0  0  0  0  0
  -26.0148  -30.7028   21.3975 C   0  0  0  0  0  0
  -26.0883  -29.3125   20.7358 C   0  0  0  0  0  0
  -27.2495  -28.4419   20.7299 C   0  0  0  0  0  0
  -26.0132  -26.7877   19.4994 C   0  0  0  0  0  0
  -24.8826  -27.6320   19.4910 C   0  0  0  0  0  0
  -23.6830  -29.7868   20.1637 C   0  0  0  0  0  0
  -25.4142  -36.3033   24.0324 C   0  0  1  0  0  0
  -20.5910  -28.3743   23.1251 C   0  0  2  0  0  0
  -20.6810  -26.9458   22.5405 C   0  0  0  0  0  0
  -19.5771  -26.6428   21.5225 C   0  0  0  0  0  0
  -18.1940  -26.7994   22.1618 C   0  0  0  0  0  0
  -19.1548  -28.8928   23.2844 C   0  0  0  0  0  0
  -18.9474  -30.1545   23.8837 C   0  0  0  0  0  0
  -17.6467  -30.6630   24.0583 C   0  0  0  0  0  0
  -25.9087  -34.9406   23.5083 C   0  0  0  0  0  0
  -16.5369  -29.9104   23.6393 C   0  0  0  0  0  0
  -16.7283  -28.6566   23.0344 C   0  0  0  0  0  0
  -26.4554  -31.6563   25.0721 C   0  0  0  0  0  0
  -25.3726  -31.3691   26.1386 C   0  0  0  0  0  0
  -27.0480  -30.2991   24.6306 C   0  0  0  0  0  0
  -27.6149  -32.4292   25.7454 C   0  0  0  0  0  0
  -27.5594  -37.1744   24.8473 C   0  0  0  0  0  0
  -21.4286  -29.3034   22.3607 N   0  0  0  0  0  0
  -26.4300  -37.3754   23.9436 N   0  0  0  0  0  0
  -24.7267  -31.0223   22.0979 N   0  0  0  0  0  0
  -23.4199  -28.8100   23.3113 O   0  0  0  0  0  0
  -28.2755  -26.0912   20.1809 O   0  0  0  0  0  0
  -26.5677  -34.8911   22.4669 O   0  0  0  0  0  0
  -23.5587  -32.1352   23.7059 O   0  0  0  0  0  0
  -26.0278  -21.0909   21.8765 C   0  0  0  0  0  0
  -26.7829  -21.8700   21.0061 C   0  0  0  0  0  0
  -26.6324  -20.0615   22.6000 C   0  0  0  0  0  0
  -28.1517  -21.6292   20.7347 C   0  0  0  0  0  0
  -27.9117  -19.5881   22.1895 C   0  0  0  0  0  0
  -28.6195  -20.2091   21.0895 C   0  0  0  0  0  0
  -29.7295  -18.7749   23.8805 C   0  0  0  0  0  0
  -24.1928  -14.8129   24.0825 C   0  0  0  0  0  0
  -25.8586  -19.5861   23.8379 C   0  0  0  0  0  0
  -28.8277  -23.0661   20.2207 C   0  0  0  0  0  0
  -28.5259  -18.4173   22.9843 C   0  0  0  0  0  0
  -29.8406  -19.2563   20.5257 C   0  0  0  0  0  0
  -24.7169  -18.5784   23.5810 C   0  0  0  0  0  0
  -29.8579  -17.6337   19.9323 C   0  0  0  0  0  0
  -25.0926  -17.0978   23.7686 C   0  0  0  0  0  0
  -27.9384  -24.5514   20.2569 C   0  0  0  0  0  0
  -29.7457  -16.1733   20.5627 N   0  0  0  0  0  0
  -23.8966  -16.2319   23.8099 N   0  3  0  0  0  0
  -31.4655  -12.7425   19.2143 H   0  0  0  0  0  0
  -30.4079  -11.6518   20.0592 H   0  0  0  0  0  0
  -29.8270  -11.7053   17.6082 H   0  0  0  0  0  0
  -29.6180  -13.4403   17.6892 H   0  0  0  0  0  0
  -27.9295  -11.2744   18.9834 H   0  0  0  0  0  0
  -27.3941  -12.4589   17.8193 H   0  0  0  0  0  0
  -27.5764  -14.2504   19.3842 H   0  0  0  0  0  0
  -28.7364  -12.3555   21.4855 H   0  0  0  0  0  0
  -28.3535  -14.0421   21.7316 H   0  0  0  0  0  0
  -25.2810   -9.5644   22.4785 H   0  0  0  0  0  0
  -24.0081   -7.4577   22.7445 H   0  0  0  0  0  0
  -21.0910   -8.8719   19.8901 H   0  0  0  0  0  0
  -22.3774  -10.9625   19.6132 H   0  0  0  0  0  0
  -21.1962   -7.6169   23.9744 H   0  0  0  0  0  0
  -21.1467   -6.0547   25.9098 H   0  0  0  0  0  0
  -22.0609   -2.7648   23.2888 H   0  0  0  0  0  0
  -22.3981  -11.9270   22.4111 H   0  0  0  0  0  0
  -21.1061  -13.0787   22.2602 H   0  0  0  0  0  0
  -24.6153  -15.8203   20.3917 H   0  0  0  0  0  0
  -26.2352  -15.6094   20.0128 H   0  0  0  0  0  0
  -26.7279  -32.5299   23.1021 H   0  0  0  0  0  0
  -25.0131  -33.9654   25.0357 H   0  0  0  0  0  0
  -22.7577  -31.2842   21.3842 H   0  0  0  0  0  0
  -23.3852  -35.9444   23.3262 H   0  0  0  0  0  0
  -24.3571  -36.8869   22.2068 H   0  0  0  0  0  0
  -23.7162  -37.6329   23.6710 H   0  0  0  0  0  0
  -26.1741  -31.4605   20.6295 H   0  0  0  0  0  0
  -26.8830  -30.7532   22.0438 H   0  0  0  0  0  0
  -28.1492  -28.7713   21.2307 H   0  0  0  0  0  0
  -25.8911  -25.8503   18.9867 H   0  0  0  0  0  0
  -23.9769  -27.2864   19.0121 H   0  0  0  0  0  0
  -23.8274  -30.5634   19.4147 H   0  0  0  0  0  0
  -22.7974  -29.2345   19.8471 H   0  0  0  0  0  0
  -25.1331  -36.1866   25.0817 H   0  0  0  0  0  0
  -20.9977  -28.3368   24.1391 H   0  0  0  0  0  0
  -20.5785  -26.2363   23.3620 H   0  0  0  0  0  0
  -21.6669  -26.7529   22.1162 H   0  0  0  0  0  0
  -19.6953  -25.6343   21.1257 H   0  0  0  0  0  0
  -19.6739  -27.3259   20.6782 H   0  0  0  0  0  0
  -17.4229  -26.6760   21.4007 H   0  0  0  0  0  0
  -18.0323  -26.0146   22.9028 H   0  0  0  0  0  0
  -19.7940  -30.7404   24.2161 H   0  0  0  0  0  0
  -17.5004  -31.6282   24.5225 H   0  0  0  0  0  0
  -15.5363  -30.2986   23.7767 H   0  0  0  0  0  0
  -15.8691  -28.0894   22.7051 H   0  0  0  0  0  0
  -24.5945  -30.7029   25.7622 H   0  0  0  0  0  0
  -24.8861  -32.2841   26.4791 H   0  0  0  0  0  0
  -25.7975  -30.8830   27.0181 H   0  0  0  0  0  0
  -26.3146  -29.6639   24.1340 H   0  0  0  0  0  0
  -27.4176  -29.7338   25.4871 H   0  0  0  0  0  0
  -27.8997  -30.4287   23.9625 H   0  0  0  0  0  0
  -27.2890  -33.3697   26.1913 H   0  0  0  0  0  0
  -28.4006  -32.6657   25.0257 H   0  0  0  0  0  0
  -28.0779  -31.8451   26.5422 H   0  0  0  0  0  0
  -28.2583  -38.0070   24.7613 H   0  0  0  0  0  0
  -28.1130  -36.2616   24.6237 H   0  0  0  0  0  0
  -27.2294  -37.1288   25.8861 H   0  0  0  0  0  0
  -20.9555  -29.8652   21.6662 H   0  0  0  0  0  0
  -26.0172  -38.2805   24.1516 H   0  0  0  0  0  0
  -25.0168  -21.3998   22.1052 H   0  0  0  0  0  0
  -26.2737  -22.7493   20.6480 H   0  0  0  0  0  0
  -29.9895  -17.9261   24.5178 H   0  0  0  0  0  0
  -29.5253  -19.6193   24.5382 H   0  0  0  0  0  0
  -30.6297  -19.0084   23.3179 H   0  0  0  0  0  0
  -23.2812  -14.2224   24.0204 H   0  0  0  0  0  0
  -24.6086  -14.6740   25.0804 H   0  0  0  0  0  0
  -24.9047  -14.4190   23.3591 H   0  0  0  0  0  0
  -25.3871  -20.4864   24.2389 H   0  0  0  0  0  0
  -26.5037  -19.2832   24.6600 H   0  0  0  0  0  0
  -29.1775  -22.9100   19.1973 H   0  0  0  0  0  0
  -29.7403  -23.2050   20.8023 H   0  0  0  0  0  0
  -28.7847  -17.6144   22.3119 H   0  0  0  0  0  0
  -27.7925  -17.9449   23.6316 H   0  0  0  0  0  0
  -30.6776  -19.3692   21.2084 H   0  0  0  0  0  0
  -30.1700  -19.8337   19.6612 H   0  0  0  0  0  0
  -24.2702  -18.7510   22.6019 H   0  0  0  0  0  0
  -23.9300  -18.8030   24.3052 H   0  0  0  0  0  0
  -30.8401  -17.5780   19.4610 H   0  0  0  0  0  0
  -29.1810  -17.6122   19.0805 H   0  0  0  0  0  0
  -25.6412  -16.9583   24.7008 H   0  0  0  0  0  0
  -25.7513  -16.7727   22.9613 H   0  0  0  0  0  0
  -27.3951  -24.5268   21.2015 H   0  0  0  0  0  0
  -27.2062  -24.3787   19.4714 H   0  0  0  0  0  0
  -28.8008  -15.9615   20.8618 H   0  0  0  0  0  0
  -23.2813  -16.5621   24.5362 H   0  0  0  0  0  0
  -23.3995  -16.3018   22.9361 H   0  0  0  0  0  0
  1 25  1  0  0  0
  1 30  2  0  0  0
  1 87  1  0  0  0
  2  3  1  0  0  0
  2 25  1  0  0  0
  2 89  1  0  0  0
  2 90  1  0  0  0
  3  4  1  0  0  0
  3 91  1  0  0  0
  3 92  1  0  0  0
  4  5  1  0  0  0
  4 93  1  0  0  0
  4 94  1  0  0  0
  5  6  1  0  0  0
  5 26  1  0  0  0
  5 95  1  0  0  0
  6 25  1  0  0  0
  6 96  1  0  0  0
  6 97  1  0  0  0
  7  8  2  0  0  0
  7 26  1  0  0  0
  7 29  1  0  0  0
  8  9  1  0  0  0
  8 22  1  0  0  0
  9 10  1  0  0  0
  9 27  2  0  0  0
 10 11  2  0  0  0
 10 15  1  0  0  0
 11 12  1  0  0  0
 11 98  1  0  0  0
 12 13  2  0  0  0
 12 99  1  0  0  0
 13 14  1  0  0  0
 13 31  1  0  0  0
 14 15  2  0  0  0
 14100  1  0  0  0
 15101  1  0  0  0
 16 17  2  0  0  0
 16 21  1  0  0  0
 16 31  1  0  0  0
 17 18  1  0  0  0
 17102  1  0  0  0
 18 19  2  0  0  0
 18103  1  0  0  0
 19 20  1  0  0  0
 19 24  1  0  0  0
 20 21  2  0  0  0
 20104  1  0  0  0
 21 23  1  0  0  0
 22 28  1  0  0  0
 22 32  2  0  0  0
 26 27  1  0  0  0
 28105  1  0  0  0
 28106  1  0  0  0
 29107  1  0  0  0
 29108  1  0  0  0
 33 34  1  0  0  0
 33 66  1  0  0  0
 33 70  2  0  0  0
 34 36  1  0  0  0
 34 59  1  0  0  0
 34109  1  0  0  0
 35 44  2  0  0  0
 35 45  1  0  0  0
 35 68  1  0  0  0
 36 56  1  0  0  0
 36110  1  0  0  0
 37 39  1  0  0  0
 37 47  1  0  0  0
 37 66  1  0  0  0
 37111  1  0  0  0
 38 43  2  0  0  0
 38 46  1  0  0  0
 38 47  1  0  0  0
 39 64  1  0  0  0
 39 67  2  0  0  0
 40 52  1  0  0  0
 40 53  2  0  0  0
 40 58  1  0  0  0
 41112  1  0  0  0
 41113  1  0  0  0
 41114  1  0  0  0
 41 48  1  0  0  0
 42 43  1  0  0  0
 42 66  1  0  0  0
 42115  1  0  0  0
 42116  1  0  0  0
 43 44  1  0  0  0
 44117  1  0  0  0
 45 46  2  0  0  0
 45118  1  0  0  0
 46119  1  0  0  0
 47120  1  0  0  0
 47121  1  0  0  0
 48 56  1  0  0  0
 48 65  1  0  0  0
 48122  1  0  0  0
 49 50  1  0  0  0
 49 53  1  0  0  0
 49 64  1  0  0  0
 49123  1  0  0  0
 50 51  1  0  0  0
 50124  1  0  0  0
 50125  1  0  0  0
 51 52  1  0  0  0
 51126  1  0  0  0
 51127  1  0  0  0
 52128  1  0  0  0
 52129  1  0  0  0
 53 54  1  0  0  0
 54 55  2  0  0  0
 54130  1  0  0  0
 55 57  1  0  0  0
 55131  1  0  0  0
 56 69  2  0  0  0
 57 58  2  0  0  0
 57132  1  0  0  0
 58133  1  0  0  0
 59 60  1  0  0  0
 59 61  1  0  0  0
 59 62  1  0  0  0
 60134  1  0  0  0
 60135  1  0  0  0
 60136  1  0  0  0
 61137  1  0  0  0
 61138  1  0  0  0
 61139  1  0  0  0
 62140  1  0  0  0
 62141  1  0  0  0
 62142  1  0  0  0
 63 65  1  0  0  0
 63143  1  0  0  0
 63144  1  0  0  0
 63145  1  0  0  0
 64146  1  0  0  0
 65147  1  0  0  0
 68 86  1  0  0  0
 71 72  2  0  0  0
 71 73  1  0  0  0
 71148  1  0  0  0
 72 74  1  0  0  0
 72149  1  0  0  0
 73 75  2  0  0  0
 73 79  1  0  0  0
 74 76  2  0  0  0
 74 80  1  0  0  0
 75 76  1  0  0  0
 75 81  1  0  0  0
 76 82  1  0  0  0
 77 81  1  0  0  0
 77150  1  0  0  0
 77151  1  0  0  0
 77152  1  0  0  0
 78 88  1  0  0  0
 78153  1  0  0  0
 78154  1  0  0  0
 78155  1  0  0  0
 79 83  1  0  0  0
 79156  1  0  0  0
 79157  1  0  0  0
 80 86  1  0  0  0
 80158  1  0  0  0
 80159  1  0  0  0
 81160  1  0  0  0
 81161  1  0  0  0
 82 84  1  0  0  0
 82162  1  0  0  0
 82163  1  0  0  0
 83 85  1  0  0  0
 83164  1  0  0  0
 83165  1  0  0  0
 84 87  1  0  0  0
 84166  1  0  0  0
 84167  1  0  0  0
 85 88  1  0  0  0
 85168  1  0  0  0
 85169  1  0  0  0
 86170  1  0  0  0
 86171  1  0  0  0
 87172  1  0  0  0
 88173  1  0  0  0
 88174  1  0  0  0
M  CHG  1  88   1
M  ISO  4   1 100  68 101  86 101  87 100
M  END
> <chiral flag>
0

> <version>
0

> <s_m_source_file>
/data/baiqing/PycharmProjects/Reinvent-master-3.2/result/LINK_invent/BTK/process_docking_weight1_custom_sum_contain_oxygen_bond_distance_aromatic_linkinvent_7_9_3/rearranged_h_0095.sdf

> <i_m_source_file_index>
21

> <r_mmod_Potential_Energy-OPLS-2005>
641.164916992188

> <r_mmod_Stretch_Energy-OPLS-2005>
351.485992431641

> <r_mmod_Bend_Energy-OPLS-2005>
400.448608398438

> <r_mmod_Torsional_Energy-OPLS-2005>
303.455596923828

> <r_mmod_Improper_Torsional_Energy-OPLS-2005>
8.56385231018066

> <r_mmod_Van_der_Waal_Energy-OPLS-2005>
136.23030090332

> <r_mmod_Electrostatic_Energy-OPLS-2005>
-305.597808837891

> <r_mmod_Solvation_Energy-OPLS-2005>
-474.980926513672

> <b_mmod_Minimization_Converged-OPLS-2005>
0

> <r_mmod_RMS_Derivative-OPLS-2005>
6.14210414886475

$$$$
21
                    3D
 Structure written by MMmdl.
176184  0  0  1  0            999 V2000
  -30.6874  -14.4316   20.6143 C   0  0  0  0  0  0
  -30.4314  -12.2889   19.4119 C   0  0  0  0  0  0
  -29.5003  -12.5059   18.2015 C   0  0  0  0  0  0
  -28.0195  -12.3690   18.6116 C   0  0  0  0  0  0
  -27.6684  -13.1924   19.8794 C   0  0  2  0  0  0
  -28.7065  -12.9269   20.9939 C   0  0  0  0  0  0
  -25.2633  -13.8127   20.5658 C   0  0  0  0  0  0
  -24.1864  -13.0416   20.9162 C   0  0  0  0  0  0
  -24.6395  -11.6883   20.8714 C   0  0  0  0  0  0
  -23.9048  -10.4282   21.0390 C   0  0  0  0  0  0
  -24.3601   -9.4210   21.9189 C   0  0  0  0  0  0
  -23.6273   -8.2243   22.0772 C   0  0  0  0  0  0
  -22.4259   -8.0281   21.3558 C   0  0  0  0  0  0
  -21.9887   -9.0246   20.4660 C   0  0  0  0  0  0
  -22.7210  -10.2127   20.3059 C   0  0  0  0  0  0
  -21.6855   -6.0723   22.5270 C   0  0  0  0  0  0
  -21.4015   -6.5629   23.8202 C   0  0  0  0  0  0
  -21.3661   -5.6787   24.9170 C   0  0  0  0  0  0
  -21.6036   -4.3047   24.7222 C   0  0  0  0  0  0
  -21.8820   -3.8137   23.4345 C   0  0  0  0  0  0
  -21.9190   -4.6949   22.3397 C   0  0  0  0  0  0
  -22.7895  -13.5246   21.1798 C   0  0  0  0  0  0
  -22.1656   -4.2132   21.0974 F   0  0  0  0  0  0
  -21.5628   -3.4539   25.7738 F   0  0  0  0  0  0
  -30.0400  -13.2488   20.4543 N   0  0  0  0  0  0
  -26.3055  -12.9260   20.3352 N   0  0  0  0  0  0
  -25.9314  -11.6438   20.5741 N   0  0  0  0  0  0
  -22.0498  -12.8277   22.0361 N   0  0  0  0  0  0
  -25.4365  -15.1843   20.4053 N   0  0  0  0  0  0
  -31.7900  -14.6756   20.1162 O   0  0  0  0  0  0
  -21.6637   -6.8870   21.4235 O   0  0  0  0  0  0
  -22.3593  -14.5542   20.6622 O   0  0  0  0  0  0
  -24.6136  -31.8644   23.2094 C   0  0  0  0  0  0
  -25.9014  -32.4821   23.8377 C   0  0  1  0  0  0
  -27.2465  -27.4153   20.1183 C   0  0  0  0  0  0
  -25.5850  -33.8616   24.2298 N   0  0  0  0  0  0
  -23.4053  -30.4858   21.5461 C   0  0  2  0  0  0
  -24.8558  -28.9478   20.1144 C   0  0  0  0  0  0
  -22.7425  -29.4617   22.4955 C   0  0  0  0  0  0
  -18.0262  -28.1362   22.8476 C   0  0  0  0  0  0
  -24.1496  -36.7321   23.2658 C   0  0  0  0  0  0
  -25.9327  -30.8281   21.3631 C   0  0  0  0  0  0
  -26.0122  -29.4598   20.7126 C   0  0  0  0  0  0
  -27.2060  -28.7012   20.7079 C   0  0  0  0  0  0
  -26.0685  -26.9174   19.5138 C   0  0  0  0  0  0
  -24.8811  -27.6780   19.5076 C   0  0  0  0  0  0
  -23.6178  -29.8161   20.1614 C   0  0  0  0  0  0
  -25.4115  -36.3112   24.0346 C   0  0  1  0  0  0
  -20.5875  -28.3640   23.1298 C   0  0  2  0  0  0
  -20.6775  -26.9375   22.5409 C   0  0  0  0  0  0
  -19.5756  -26.6368   21.5212 C   0  0  0  0  0  0
  -18.1918  -26.7908   22.1595 C   0  0  0  0  0  0
  -19.1533  -28.8818   23.2879 C   0  0  0  0  0  0
  -18.9459  -30.1424   23.8875 C   0  0  0  0  0  0
  -17.6460  -30.6581   24.0554 C   0  0  0  0  0  0
  -25.9031  -34.9471   23.5128 C   0  0  0  0  0  0
  -16.5352  -29.9086   23.6313 C   0  0  0  0  0  0
  -16.7252  -28.6505   23.0321 C   0  0  0  0  0  0
  -26.4440  -31.6632   25.0712 C   0  0  0  0  0  0
  -25.3709  -31.3737   26.1477 C   0  0  0  0  0  0
  -27.0331  -30.3096   24.6095 C   0  0  0  0  0  0
  -27.6019  -32.4392   25.7443 C   0  0  0  0  0  0
  -27.5591  -37.1815   24.8462 C   0  0  0  0  0  0
  -21.4164  -29.3013   22.3704 N   0  0  0  0  0  0
  -26.4303  -37.3796   23.9409 N   0  0  0  0  0  0
  -24.6688  -31.0756   22.0979 N   0  0  0  0  0  0
  -23.4190  -28.8157   23.3015 O   0  0  0  0  0  0
  -28.4533  -26.7365   20.1516 O   0  0  0  0  0  0
  -26.5626  -34.8906   22.4712 O   0  0  0  0  0  0
  -23.5328  -32.1380   23.7491 O   0  0  0  0  0  0
  -29.8749  -19.8138   22.5272 C   0  0  0  0  0  0
  -31.4448  -21.4857   23.2347 C   0  0  0  0  0  0
  -30.1720  -21.1783   22.7375 C   0  0  0  0  0  0
  -30.8249  -18.8039   22.8504 C   0  0  0  0  0  0
  -32.1219  -19.2299   23.2784 C   0  0  0  0  0  0
  -26.9247  -24.2508   21.6196 C   0  0  0  0  0  0
  -33.6504  -17.3064   22.4368 C   0  0  0  0  0  0
  -33.1571  -17.5605   24.9381 C   0  0  0  0  0  0
  -34.6499  -19.1187   23.7309 C   0  0  0  0  0  0
  -29.1250  -22.2915   22.5700 C   0  0  0  0  0  0
  -29.2365  -23.1577   21.2818 C   0  0  0  0  0  0
  -30.2628  -16.8097   21.3123 C   0  0  0  0  0  0
  -28.5573  -25.3092   19.9799 C   0  0  0  0  0  0
  -30.3945  -17.3257   22.7640 C   0  0  2  0  0  0
  -28.4110  -24.4907   21.2994 C   0  0  1  0  0  0
  -33.3374  -18.2964   23.5901 C   0  0  0  0  0  0
  -32.3759  -20.5463   23.4856 N   0  0  0  0  0  0
  -29.9653  -15.3724   21.2462 N   0  0  0  0  0  0
  -29.1976  -17.0476   23.5840 N   0  3  0  0  0  0
  -31.4759  -12.3974   19.1134 H   0  0  0  0  0  0
  -30.3345  -11.2671   19.7835 H   0  0  0  0  0  0
  -29.7353  -11.7856   17.4165 H   0  0  0  0  0  0
  -29.6772  -13.4940   17.7739 H   0  0  0  0  0  0
  -27.8259  -11.3112   18.7976 H   0  0  0  0  0  0
  -27.3719  -12.6531   17.7829 H   0  0  0  0  0  0
  -27.7279  -14.2455   19.6049 H   0  0  0  0  0  0
  -28.6807  -11.8758   21.2834 H   0  0  0  0  0  0
  -28.4639  -13.4764   21.9034 H   0  0  0  0  0  0
  -25.2752   -9.5670   22.4774 H   0  0  0  0  0  0
  -23.9961   -7.4639   22.7513 H   0  0  0  0  0  0
  -21.0818   -8.8772   19.8982 H   0  0  0  0  0  0
  -22.3674  -10.9668   19.6171 H   0  0  0  0  0  0
  -21.2021   -7.6146   23.9696 H   0  0  0  0  0  0
  -21.1478   -6.0531   25.9071 H   0  0  0  0  0  0
  -22.0600   -2.7599   23.2853 H   0  0  0  0  0  0
  -22.4078  -11.9946   22.4798 H   0  0  0  0  0  0
  -21.1116  -13.1346   22.2513 H   0  0  0  0  0  0
  -24.6628  -15.8340   20.5033 H   0  0  0  0  0  0
  -26.2687  -15.6166   20.0218 H   0  0  0  0  0  0
  -26.7122  -32.5512   23.1184 H   0  0  0  0  0  0
  -24.9921  -33.9781   25.0378 H   0  0  0  0  0  0
  -22.6936  -31.3027   21.4048 H   0  0  0  0  0  0
  -23.3743  -35.9663   23.3304 H   0  0  0  0  0  0
  -24.3590  -36.8950   22.2074 H   0  0  0  0  0  0
  -23.7257  -37.6528   23.6685 H   0  0  0  0  0  0
  -26.0411  -31.5927   20.5934 H   0  0  0  0  0  0
  -26.8236  -30.8834   21.9758 H   0  0  0  0  0  0
  -28.1030  -29.0949   21.1665 H   0  0  0  0  0  0
  -26.0462  -25.9473   19.0389 H   0  0  0  0  0  0
  -23.9924  -27.2815   19.0382 H   0  0  0  0  0  0
  -23.7251  -30.5919   19.4006 H   0  0  0  0  0  0
  -22.7410  -29.2338   19.8691 H   0  0  0  0  0  0
  -25.1288  -36.2007   25.0840 H   0  0  0  0  0  0
  -20.9932  -28.3235   24.1439 H   0  0  0  0  0  0
  -20.5701  -26.2234   23.3592 H   0  0  0  0  0  0
  -21.6626  -26.7414   22.1186 H   0  0  0  0  0  0
  -19.6908  -25.6296   21.1221 H   0  0  0  0  0  0
  -19.6724  -27.3179   20.6753 H   0  0  0  0  0  0
  -17.4188  -26.6653   21.3988 H   0  0  0  0  0  0
  -18.0312  -26.0040   22.8988 H   0  0  0  0  0  0
  -19.7953  -30.7236   24.2234 H   0  0  0  0  0  0
  -17.5038  -31.6273   24.5165 H   0  0  0  0  0  0
  -15.5358  -30.2978   23.7702 H   0  0  0  0  0  0
  -15.8636  -28.0866   22.6998 H   0  0  0  0  0  0
  -24.5849  -30.7125   25.7820 H   0  0  0  0  0  0
  -24.8898  -32.2891   26.4931 H   0  0  0  0  0  0
  -25.8025  -30.8906   27.0240 H   0  0  0  0  0  0
  -26.2885  -29.6820   24.1170 H   0  0  0  0  0  0
  -27.4166  -29.7390   25.4564 H   0  0  0  0  0  0
  -27.8674  -30.4436   23.9190 H   0  0  0  0  0  0
  -27.2640  -33.3708   26.1992 H   0  0  0  0  0  0
  -28.3793  -32.6920   25.0228 H   0  0  0  0  0  0
  -28.0710  -31.8530   26.5355 H   0  0  0  0  0  0
  -28.2592  -38.0134   24.7512 H   0  0  0  0  0  0
  -28.1089  -36.2641   24.6268 H   0  0  0  0  0  0
  -27.2278  -37.1434   25.8862 H   0  0  0  0  0  0
  -20.9339  -29.8745   21.6928 H   0  0  0  0  0  0
  -26.0192  -38.2867   24.1436 H   0  0  0  0  0  0
  -28.8928  -19.5370   22.1719 H   0  0  0  0  0  0
  -31.7260  -22.5048   23.4604 H   0  0  0  0  0  0
  -26.7917  -23.7762   22.5922 H   0  0  0  0  0  0
  -26.4486  -23.6212   20.8677 H   0  0  0  0  0  0
  -26.3696  -25.1872   21.6566 H   0  0  0  0  0  0
  -32.9454  -16.4933   22.3110 H   0  0  0  0  0  0
  -34.6080  -16.8108   22.5937 H   0  0  0  0  0  0
  -33.7131  -17.8300   21.4842 H   0  0  0  0  0  0
  -32.2726  -16.9317   24.9884 H   0  0  0  0  0  0
  -33.0799  -18.2698   25.7616 H   0  0  0  0  0  0
  -34.0082  -16.9125   25.1480 H   0  0  0  0  0  0
  -34.8568  -19.6933   22.8260 H   0  0  0  0  0  0
  -35.5183  -18.4829   23.9123 H   0  0  0  0  0  0
  -34.6017  -19.8161   24.5691 H   0  0  0  0  0  0
  -29.2062  -22.9347   23.4472 H   0  0  0  0  0  0
  -28.1299  -21.8464   22.6206 H   0  0  0  0  0  0
  -28.9609  -22.5545   20.4173 H   0  0  0  0  0  0
  -30.2864  -23.4211   21.1410 H   0  0  0  0  0  0
  -31.1782  -17.0405   20.7630 H   0  0  0  0  0  0
  -29.4666  -17.3472   20.7955 H   0  0  0  0  0  0
  -29.5673  -25.1558   19.5985 H   0  0  0  0  0  0
  -27.9089  -24.9218   19.1946 H   0  0  0  0  0  0
  -31.1356  -16.7079   23.2498 H   0  0  0  0  0  0
  -28.8285  -25.1018   22.1024 H   0  0  0  0  0  0
  -29.0531  -15.0646   21.5487 H   0  0  0  0  0  0
  -28.3586  -17.4042   23.1629 H   0  0  0  0  0  0
  -29.2988  -17.4569   24.4967 H   0  0  0  0  0  0
  -29.0863  -16.0587   23.7179 H   0  0  0  0  0  0
  1 25  1  0  0  0
  1 30  2  0  0  0
  1 88  1  0  0  0
  2  3  1  0  0  0
  2 25  1  0  0  0
  2 90  1  0  0  0
  2 91  1  0  0  0
  3  4  1  0  0  0
  3 92  1  0  0  0
  3 93  1  0  0  0
  4  5  1  0  0  0
  4 94  1  0  0  0
  4 95  1  0  0  0
  5  6  1  0  0  0
  5 26  1  0  0  0
  5 96  1  0  0  0
  6 25  1  0  0  0
  6 97  1  0  0  0
  6 98  1  0  0  0
  7  8  2  0  0  0
  7 26  1  0  0  0
  7 29  1  0  0  0
  8  9  1  0  0  0
  8 22  1  0  0  0
  9 10  1  0  0  0
  9 27  2  0  0  0
 10 11  2  0  0  0
 10 15  1  0  0  0
 11 12  1  0  0  0
 11 99  1  0  0  0
 12 13  2  0  0  0
 12100  1  0  0  0
 13 14  1  0  0  0
 13 31  1  0  0  0
 14 15  2  0  0  0
 14101  1  0  0  0
 15102  1  0  0  0
 16 17  2  0  0  0
 16 21  1  0  0  0
 16 31  1  0  0  0
 17 18  1  0  0  0
 17103  1  0  0  0
 18 19  2  0  0  0
 18104  1  0  0  0
 19 20  1  0  0  0
 19 24  1  0  0  0
 20 21  2  0  0  0
 20105  1  0  0  0
 21 23  1  0  0  0
 22 28  1  0  0  0
 22 32  2  0  0  0
 26 27  1  0  0  0
 28106  1  0  0  0
 28107  1  0  0  0
 29108  1  0  0  0
 29109  1  0  0  0
 33 34  1  0  0  0
 33 66  1  0  0  0
 33 70  2  0  0  0
 34 36  1  0  0  0
 34 59  1  0  0  0
 34110  1  0  0  0
 35 44  2  0  0  0
 35 45  1  0  0  0
 35 68  1  0  0  0
 36 56  1  0  0  0
 36111  1  0  0  0
 37 39  1  0  0  0
 37 47  1  0  0  0
 37 66  1  0  0  0
 37112  1  0  0  0
 38 43  2  0  0  0
 38 46  1  0  0  0
 38 47  1  0  0  0
 39 64  1  0  0  0
 39 67  2  0  0  0
 40 52  1  0  0  0
 40 53  2  0  0  0
 40 58  1  0  0  0
 41113  1  0  0  0
 41114  1  0  0  0
 41115  1  0  0  0
 41 48  1  0  0  0
 42 43  1  0  0  0
 42 66  1  0  0  0
 42116  1  0  0  0
 42117  1  0  0  0
 43 44  1  0  0  0
 44118  1  0  0  0
 45 46  2  0  0  0
 45119  1  0  0  0
 46120  1  0  0  0
 47121  1  0  0  0
 47122  1  0  0  0
 48 56  1  0  0  0
 48 65  1  0  0  0
 48123  1  0  0  0
 49 50  1  0  0  0
 49 53  1  0  0  0
 49 64  1  0  0  0
 49124  1  0  0  0
 50 51  1  0  0  0
 50125  1  0  0  0
 50126  1  0  0  0
 51 52  1  0  0  0
 51127  1  0  0  0
 51128  1  0  0  0
 52129  1  0  0  0
 52130  1  0  0  0
 53 54  1  0  0  0
 54 55  2  0  0  0
 54131  1  0  0  0
 55 57  1  0  0  0
 55132  1  0  0  0
 56 69  2  0  0  0
 57 58  2  0  0  0
 57133  1  0  0  0
 58134  1  0  0  0
 59 60  1  0  0  0
 59 61  1  0  0  0
 59 62  1  0  0  0
 60135  1  0  0  0
 60136  1  0  0  0
 60137  1  0  0  0
 61138  1  0  0  0
 61139  1  0  0  0
 61140  1  0  0  0
 62141  1  0  0  0
 62142  1  0  0  0
 62143  1  0  0  0
 63 65  1  0  0  0
 63144  1  0  0  0
 63145  1  0  0  0
 63146  1  0  0  0
 64147  1  0  0  0
 65148  1  0  0  0
 68 83  1  0  0  0
 71 73  2  0  0  0
 71 74  1  0  0  0
 71149  1  0  0  0
 72 73  1  0  0  0
 72 87  2  0  0  0
 72150  1  0  0  0
 73 80  1  0  0  0
 74 75  2  0  0  0
 74 84  1  0  0  0
 75 86  1  0  0  0
 75 87  1  0  0  0
 76151  1  0  0  0
 76152  1  0  0  0
 76153  1  0  0  0
 76 85  1  0  0  0
 77154  1  0  0  0
 77155  1  0  0  0
 77156  1  0  0  0
 77 86  1  0  0  0
 78 86  1  0  0  0
 78157  1  0  0  0
 78158  1  0  0  0
 78159  1  0  0  0
 79 86  1  0  0  0
 79160  1  0  0  0
 79161  1  0  0  0
 79162  1  0  0  0
 80 81  1  0  0  0
 80163  1  0  0  0
 80164  1  0  0  0
 81 85  1  0  0  0
 81165  1  0  0  0
 81166  1  0  0  0
 82 84  1  0  0  0
 82 88  1  0  0  0
 82167  1  0  0  0
 82168  1  0  0  0
 83 85  1  0  0  0
 83169  1  0  0  0
 83170  1  0  0  0
 84 89  1  0  0  0
 84171  1  0  0  0
 85172  1  0  0  0
 88173  1  0  0  0
 89174  1  0  0  0
 89175  1  0  0  0
 89176  1  0  0  0
M  CHG  1  89   1
M  ISO  4   1 100  68 101  83 101  88 100
M  END
> <chiral flag>
0

> <version>
0

> <s_m_source_file>
/data/baiqing/PycharmProjects/Reinvent-master-3.2/result/LINK_invent/BTK/process_docking_weight1_custom_sum_contain_oxygen_bond_distance_aromatic_linkinvent_7_9_3/rearranged_h_0095.sdf

> <i_m_source_file_index>
22

> <r_mmod_Potential_Energy-OPLS-2005>
-474.681854248047

> <r_mmod_Stretch_Energy-OPLS-2005>
48.888427734375

> <r_mmod_Bend_Energy-OPLS-2005>
133.817337036133

> <r_mmod_Torsional_Energy-OPLS-2005>
232.742309570312

> <r_mmod_Improper_Torsional_Energy-OPLS-2005>
4.2133092880249

> <r_mmod_Van_der_Waal_Energy-OPLS-2005>
163.147354125977

> <r_mmod_Electrostatic_Energy-OPLS-2005>
-555.000854492188

> <r_mmod_Solvation_Energy-OPLS-2005>
-514.838806152344

> <b_mmod_Minimization_Converged-OPLS-2005>
0

> <r_mmod_RMS_Derivative-OPLS-2005>
3.83396458625793

$$$$
22
                    3D
 Structure written by MMmdl.
166174  0  0  1  0            999 V2000
  -30.0267  -15.9074   20.4125 C   0  0  0  0  0  0
  -30.3653  -13.2913   19.6169 C   0  0  0  0  0  0
  -29.5504  -12.7573   18.3915 C   0  0  0  0  0  0
  -28.1383  -12.3237   18.8208 C   0  0  0  0  0  0
  -27.5653  -13.3332   19.8419 C   0  0  2  0  0  0
  -28.5358  -13.7232   20.9841 C   0  0  0  0  0  0
  -25.2145  -13.8338   20.5890 C   0  0  0  0  0  0
  -24.1586  -13.0443   20.9309 C   0  0  0  0  0  0
  -24.6351  -11.6967   20.8822 C   0  0  0  0  0  0
  -23.9092  -10.4297   21.0412 C   0  0  0  0  0  0
  -24.3638   -9.4201   21.9155 C   0  0  0  0  0  0
  -23.6319   -8.2228   22.0725 C   0  0  0  0  0  0
  -22.4284   -8.0267   21.3543 C   0  0  0  0  0  0
  -21.9926   -9.0233   20.4620 C   0  0  0  0  0  0
  -22.7276  -10.2123   20.3039 C   0  0  0  0  0  0
  -21.6881   -6.0736   22.5269 C   0  0  0  0  0  0
  -21.4041   -6.5648   23.8199 C   0  0  0  0  0  0
  -21.3663   -5.6802   24.9158 C   0  0  0  0  0  0
  -21.6048   -4.3064   24.7217 C   0  0  0  0  0  0
  -21.8817   -3.8150   23.4339 C   0  0  0  0  0  0
  -21.9194   -4.6961   22.3392 C   0  0  0  0  0  0
  -22.7625  -13.5148   21.1975 C   0  0  0  0  0  0
  -22.1667   -4.2159   21.0969 F   0  0  0  0  0  0
  -21.5609   -3.4529   25.7721 F   0  0  0  0  0  0
  -29.6408  -14.4665   20.3411 N   0  0  0  0  0  0
  -26.2551  -12.9695   20.3314 N   0  0  0  0  0  0
  -25.9297  -11.6746   20.5761 N   0  0  0  0  0  0
  -22.0355  -12.8051   22.0514 N   0  0  0  0  0  0
  -25.3715  -15.2070   20.4343 N   0  0  0  0  0  0
  -31.2646  -15.8797   20.1829 O   0  0  0  0  0  0
  -21.6667   -6.8872   21.4239 O   0  0  0  0  0  0
  -22.3276  -14.5423   20.6805 O   0  0  0  0  0  0
  -24.6584  -31.7742   23.1475 C   0  0  0  0  0  0
  -25.9258  -32.4287   23.7963 C   0  0  1  0  0  0
  -27.8715  -26.8308   19.7960 C   0  0  0  0  0  0
  -25.5985  -33.8185   24.1819 N   0  0  0  0  0  0
  -23.4881  -30.2666   21.5344 C   0  0  2  0  0  0
  -24.7972  -28.1873   20.4343 C   0  0  0  0  0  0
  -22.7334  -29.4167   22.5569 C   0  0  0  0  0  0
  -18.0197  -28.1384   22.8461 C   0  0  0  0  0  0
  -24.1512  -36.7071   23.2627 C   0  0  0  0  0  0
  -26.0194  -30.3137   21.5761 C   0  0  0  0  0  0
  -26.0958  -28.7552   21.2430 C   0  0  0  0  0  0
  -27.6006  -28.0742   21.0105 C   0  0  0  0  0  0
  -26.4755  -26.2379   18.8919 C   0  0  0  0  0  0
  -24.9246  -26.9344   19.3042 C   0  0  0  0  0  0
  -23.7076  -29.3101   20.2945 C   0  0  0  0  0  0
  -25.4170  -36.2789   24.0214 C   0  0  1  0  0  0
  -20.5738  -28.3604   23.1408 C   0  0  2  0  0  0
  -20.6664  -26.9347   22.5512 C   0  0  0  0  0  0
  -19.5705  -26.6364   21.5230 C   0  0  0  0  0  0
  -18.1853  -26.7938   22.1569 C   0  0  0  0  0  0
  -19.1432  -28.8838   23.2892 C   0  0  0  0  0  0
  -18.9410  -30.1455   23.8891 C   0  0  0  0  0  0
  -17.6432  -30.6607   24.0587 C   0  0  0  0  0  0
  -25.9123  -34.9181   23.4830 C   0  0  0  0  0  0
  -16.5319  -29.9123   23.6338 C   0  0  0  0  0  0
  -16.7202  -28.6535   23.0338 C   0  0  0  0  0  0
  -26.4506  -31.6524   25.0720 C   0  0  0  0  0  0
  -25.3454  -31.4001   26.1255 C   0  0  0  0  0  0
  -27.0574  -30.2872   24.6854 C   0  0  0  0  0  0
  -27.5880  -32.4477   25.7571 C   0  0  0  0  0  0
  -27.5545  -37.1687   24.8454 C   0  0  0  0  0  0
  -21.4121  -29.2835   22.3829 N   0  0  0  0  0  0
  -26.4284  -37.3552   23.9348 N   0  0  0  0  0  0
  -24.7386  -30.8440   22.1263 N   0  0  0  0  0  0
  -23.3512  -28.8279   23.4433 O   0  0  0  0  0  0
  -29.1013  -26.8396   19.2947 O   0  0  0  0  0  0
  -26.5699  -34.8756   22.4423 O   0  0  0  0  0  0
  -23.5612  -32.1290   23.6098 O   0  0  0  0  0  0
  -25.4900  -26.2662   22.3975 C   0  0  0  0  0  0
  -25.8386  -25.2211   23.2693 C   0  0  0  0  0  0
  -26.1491  -26.1900   21.1791 C   0  0  0  0  0  0
  -26.7124  -24.3601   22.6863 C   0  0  0  0  0  0
  -27.2105  -23.1138   24.8651 C   0  0  0  0  0  0
  -29.0668  -23.9127   23.3726 C   0  0  0  0  0  0
  -26.5814  -28.5223   18.9666 C   0  0  0  0  0  0
  -28.0440  -28.9309   18.4123 C   0  0  0  0  0  0
  -27.9781  -20.8897   20.9138 C   0  0  0  0  0  0
  -27.5777  -22.9331   20.5491 C   0  0  0  0  0  0
  -28.9778  -19.1505   20.3425 C   0  0  0  0  0  0
  -29.0001  -27.7089   18.1488 C   0  0  0  0  0  0
  -27.6165  -23.4028   23.4181 C   0  0  0  0  0  0
  -26.7629  -24.5188   21.2896 N   0  0  0  0  0  0
  -29.1491  -17.2824   20.5672 N   0  0  0  0  0  0
  -31.3618  -13.5964   19.3005 H   0  0  0  0  0  0
  -30.5597  -12.4755   20.3081 H   0  0  0  0  0  0
  -30.0698  -11.9321   17.9001 H   0  0  0  0  0  0
  -29.4737  -13.5585   17.6556 H   0  0  0  0  0  0
  -28.2054  -11.3401   19.2894 H   0  0  0  0  0  0
  -27.4802  -12.2174   17.9570 H   0  0  0  0  0  0
  -27.4086  -14.2335   19.2443 H   0  0  0  0  0  0
  -28.8707  -12.8601   21.5620 H   0  0  0  0  0  0
  -28.0611  -14.3968   21.7023 H   0  0  0  0  0  0
  -25.2781   -9.5702   22.4724 H   0  0  0  0  0  0
  -24.0039   -7.4639   22.7445 H   0  0  0  0  0  0
  -21.0850   -8.8768   19.8927 H   0  0  0  0  0  0
  -22.3711  -10.9662   19.6137 H   0  0  0  0  0  0
  -21.2070   -7.6156   23.9721 H   0  0  0  0  0  0
  -21.1488   -6.0513   25.9064 H   0  0  0  0  0  0
  -22.0597   -2.7610   23.2831 H   0  0  0  0  0  0
  -22.4113  -11.9714   22.4799 H   0  0  0  0  0  0
  -21.0972  -13.0981   22.2864 H   0  0  0  0  0  0
  -24.5956  -15.8510   20.5334 H   0  0  0  0  0  0
  -26.1881  -15.6448   20.0317 H   0  0  0  0  0  0
  -26.7350  -32.4614   23.0673 H   0  0  0  0  0  0
  -25.0409  -33.9344   25.0137 H   0  0  0  0  0  0
  -22.8417  -31.0919   21.2262 H   0  0  0  0  0  0
  -23.3787  -35.9398   23.3202 H   0  0  0  0  0  0
  -24.3590  -36.8811   22.2065 H   0  0  0  0  0  0
  -23.7262  -37.6219   23.6758 H   0  0  0  0  0  0
  -26.1748  -30.8829   20.6601 H   0  0  0  0  0  0
  -26.9017  -30.5616   22.1462 H   0  0  0  0  0  0
  -28.4642  -28.5632   21.4309 H   0  0  0  0  0  0
  -27.1359  -26.6497   19.5364 H   0  0  0  0  0  0
  -24.0669  -26.6819   18.6968 H   0  0  0  0  0  0
  -23.9387  -29.9207   19.4204 H   0  0  0  0  0  0
  -22.7712  -28.8127   20.0302 H   0  0  0  0  0  0
  -25.1413  -36.1516   25.0703 H   0  0  0  0  0  0
  -20.9672  -28.3159   24.1596 H   0  0  0  0  0  0
  -20.5543  -26.2194   23.3679 H   0  0  0  0  0  0
  -21.6552  -26.7401   22.1347 H   0  0  0  0  0  0
  -19.6890  -25.6274   21.1249 H   0  0  0  0  0  0
  -19.6719  -27.3190   20.6775 H   0  0  0  0  0  0
  -17.4189  -26.6749   21.3917 H   0  0  0  0  0  0
  -18.0176  -26.0060   22.8915 H   0  0  0  0  0  0
  -19.7928  -30.7244   24.2224 H   0  0  0  0  0  0
  -17.5021  -31.6275   24.5216 H   0  0  0  0  0  0
  -15.5327  -30.3055   23.7663 H   0  0  0  0  0  0
  -15.8584  -28.0895   22.7024 H   0  0  0  0  0  0
  -24.5729  -30.7232   25.7601 H   0  0  0  0  0  0
  -24.8505  -32.3264   26.4130 H   0  0  0  0  0  0
  -25.7456  -30.9600   27.0388 H   0  0  0  0  0  0
  -26.3508  -29.6534   24.1536 H   0  0  0  0  0  0
  -27.3428  -29.7253   25.5758 H   0  0  0  0  0  0
  -27.9616  -30.3981   24.0809 H   0  0  0  0  0  0
  -27.2385  -33.3895   26.1785 H   0  0  0  0  0  0
  -28.3903  -32.6799   25.0552 H   0  0  0  0  0  0
  -28.0302  -31.8896   26.5825 H   0  0  0  0  0  0
  -28.2511  -38.0024   24.7522 H   0  0  0  0  0  0
  -28.1091  -36.2547   24.6280 H   0  0  0  0  0  0
  -27.2256  -37.1294   25.8855 H   0  0  0  0  0  0
  -20.9672  -29.7885   21.6315 H   0  0  0  0  0  0
  -26.0075  -38.2610   24.1254 H   0  0  0  0  0  0
  -24.9248  -27.1139   22.7412 H   0  0  0  0  0  0
  -25.5708  -25.1988   24.3141 H   0  0  0  0  0  0
  -26.2293  -22.6388   24.9059 H   0  0  0  0  0  0
  -27.1819  -24.0145   25.4757 H   0  0  0  0  0  0
  -27.9246  -22.4271   25.3197 H   0  0  0  0  0  0
  -29.3912  -24.1384   22.3563 H   0  0  0  0  0  0
  -29.7580  -23.1785   23.7874 H   0  0  0  0  0  0
  -29.1682  -24.8321   23.9514 H   0  0  0  0  0  0
  -26.1443  -29.5178   19.0717 H   0  0  0  0  0  0
  -26.1382  -28.3531   17.9713 H   0  0  0  0  0  0
  -28.5369  -29.5881   19.1273 H   0  0  0  0  0  0
  -27.9571  -29.5464   17.5187 H   0  0  0  0  0  0
  -26.9633  -20.5037   20.9541 H   0  0  0  0  0  0
  -28.2917  -20.8719   21.9525 H   0  0  0  0  0  0
  -27.0401  -22.8442   19.6035 H   0  0  0  0  0  0
  -28.5614  -23.3025   20.2493 H   0  0  0  0  0  0
  -30.0230  -19.4507   20.4223 H   0  0  0  0  0  0
  -28.7761  -19.1457   19.2681 H   0  0  0  0  0  0
  -29.9936  -28.0604   17.8700 H   0  0  0  0  0  0
  -28.6210  -27.1408   17.2966 H   0  0  0  0  0  0
  -27.5565  -22.4336   22.9632 H   0  0  0  0  0  0
  -28.2229  -16.9808   20.8333 H   0  0  0  0  0  0
  1 25  1  0  0  0
  1 30  2  0  0  0
  1 85  1  0  0  0
  2  3  1  0  0  0
  2 25  1  0  0  0
  2 86  1  0  0  0
  2 87  1  0  0  0
  3  4  1  0  0  0
  3 88  1  0  0  0
  3 89  1  0  0  0
  4  5  1  0  0  0
  4 90  1  0  0  0
  4 91  1  0  0  0
  5  6  1  0  0  0
  5 26  1  0  0  0
  5 92  1  0  0  0
  6 25  1  0  0  0
  6 93  1  0  0  0
  6 94  1  0  0  0
  7  8  2  0  0  0
  7 26  1  0  0  0
  7 29  1  0  0  0
  8  9  1  0  0  0
  8 22  1  0  0  0
  9 10  1  0  0  0
  9 27  2  0  0  0
 10 11  2  0  0  0
 10 15  1  0  0  0
 11 12  1  0  0  0
 11 95  1  0  0  0
 12 13  2  0  0  0
 12 96  1  0  0  0
 13 14  1  0  0  0
 13 31  1  0  0  0
 14 15  2  0  0  0
 14 97  1  0  0  0
 15 98  1  0  0  0
 16 17  2  0  0  0
 16 21  1  0  0  0
 16 31  1  0  0  0
 17 18  1  0  0  0
 17 99  1  0  0  0
 18 19  2  0  0  0
 18100  1  0  0  0
 19 20  1  0  0  0
 19 24  1  0  0  0
 20 21  2  0  0  0
 20101  1  0  0  0
 21 23  1  0  0  0
 22 28  1  0  0  0
 22 32  2  0  0  0
 26 27  1  0  0  0
 28102  1  0  0  0
 28103  1  0  0  0
 29104  1  0  0  0
 29105  1  0  0  0
 33 34  1  0  0  0
 33 66  1  0  0  0
 33 70  2  0  0  0
 34 36  1  0  0  0
 34 59  1  0  0  0
 34106  1  0  0  0
 35 44  2  0  0  0
 35 45  1  0  0  0
 35 68  1  0  0  0
 36 56  1  0  0  0
 36107  1  0  0  0
 37 39  1  0  0  0
 37 47  1  0  0  0
 37 66  1  0  0  0
 37108  1  0  0  0
 38 43  2  0  0  0
 38 46  1  0  0  0
 38 47  1  0  0  0
 39 64  1  0  0  0
 39 67  2  0  0  0
 40 52  1  0  0  0
 40 53  2  0  0  0
 40 58  1  0  0  0
 41109  1  0  0  0
 41110  1  0  0  0
 41111  1  0  0  0
 41 48  1  0  0  0
 42 43  1  0  0  0
 42 66  1  0  0  0
 42112  1  0  0  0
 42113  1  0  0  0
 43 44  1  0  0  0
 44114  1  0  0  0
 45 46  2  0  0  0
 45115  1  0  0  0
 46116  1  0  0  0
 47117  1  0  0  0
 47118  1  0  0  0
 48 56  1  0  0  0
 48 65  1  0  0  0
 48119  1  0  0  0
 49 50  1  0  0  0
 49 53  1  0  0  0
 49 64  1  0  0  0
 49120  1  0  0  0
 50 51  1  0  0  0
 50121  1  0  0  0
 50122  1  0  0  0
 51 52  1  0  0  0
 51123  1  0  0  0
 51124  1  0  0  0
 52125  1  0  0  0
 52126  1  0  0  0
 53 54  1  0  0  0
 54 55  2  0  0  0
 54127  1  0  0  0
 55 57  1  0  0  0
 55128  1  0  0  0
 56 69  2  0  0  0
 57 58  2  0  0  0
 57129  1  0  0  0
 58130  1  0  0  0
 59 60  1  0  0  0
 59 61  1  0  0  0
 59 62  1  0  0  0
 60131  1  0  0  0
 60132  1  0  0  0
 60133  1  0  0  0
 61134  1  0  0  0
 61135  1  0  0  0
 61136  1  0  0  0
 62137  1  0  0  0
 62138  1  0  0  0
 62139  1  0  0  0
 63 65  1  0  0  0
 63140  1  0  0  0
 63141  1  0  0  0
 63142  1  0  0  0
 64143  1  0  0  0
 65144  1  0  0  0
 68 82  1  0  0  0
 71 72  1  0  0  0
 71 73  2  0  0  0
 71145  1  0  0  0
 72 74  2  0  0  0
 72146  1  0  0  0
 73 77  1  0  0  0
 73 84  1  0  0  0
 74 83  1  0  0  0
 74 84  1  0  0  0
 75147  1  0  0  0
 75148  1  0  0  0
 75149  1  0  0  0
 75 83  1  0  0  0
 76 83  1  0  0  0
 76150  1  0  0  0
 76151  1  0  0  0
 76152  1  0  0  0
 77 78  1  0  0  0
 77153  1  0  0  0
 77154  1  0  0  0
 78 82  1  0  0  0
 78155  1  0  0  0
 78156  1  0  0  0
 79 80  1  0  0  0
 79 81  1  0  0  0
 79157  1  0  0  0
 79158  1  0  0  0
 80 84  1  0  0  0
 80159  1  0  0  0
 80160  1  0  0  0
 81 85  1  0  0  0
 81161  1  0  0  0
 81162  1  0  0  0
 82163  1  0  0  0
 82164  1  0  0  0
 83165  1  0  0  0
 85166  1  0  0  0
M  ISO  4   1 100  68 101  82 101  85 100
M  END
> <chiral flag>
0

> <version>
0

> <s_m_source_file>
/data/baiqing/PycharmProjects/Reinvent-master-3.2/result/LINK_invent/BTK/process_docking_weight1_custom_sum_contain_oxygen_bond_distance_aromatic_linkinvent_7_9_3/rearranged_h_0095.sdf

> <i_m_source_file_index>
23

> <r_mmod_Potential_Energy-OPLS-2005>
11783.8212890625

> <r_mmod_Stretch_Energy-OPLS-2005>
6916.8447265625

> <r_mmod_Bend_Energy-OPLS-2005>
1381.05126953125

> <r_mmod_Torsional_Energy-OPLS-2005>
362.513488769531

> <r_mmod_Improper_Torsional_Energy-OPLS-2005>
31.2193622589111

> <r_mmod_Van_der_Waal_Energy-OPLS-2005>
2152.19213867188

> <r_mmod_Electrostatic_Energy-OPLS-2005>
-376.199279785156

> <r_mmod_Solvation_Energy-OPLS-2005>
-220.978485107422

> <b_mmod_Minimization_Converged-OPLS-2005>
0

> <r_mmod_RMS_Derivative-OPLS-2005>
10.0595550537109

$$$$
23
                    3D
 Structure written by MMmdl.
158165  0  0  1  0            999 V2000
  -30.4537  -15.2150   20.3275 C   0  0  0  0  0  0
  -30.4388  -12.7662   19.5208 C   0  0  0  0  0  0
  -29.5309  -12.5642   18.2818 C   0  0  0  0  0  0
  -28.0762  -12.3067   18.7081 C   0  0  0  0  0  0
  -27.6151  -13.2762   19.8249 C   0  0  2  0  0  0
  -28.6527  -13.4407   20.9572 C   0  0  0  0  0  0
  -25.2400  -13.8288   20.5744 C   0  0  0  0  0  0
  -24.1742  -13.0453   20.9258 C   0  0  0  0  0  0
  -24.6415  -11.6968   20.8765 C   0  0  0  0  0  0
  -23.9108  -10.4313   21.0413 C   0  0  0  0  0  0
  -24.3644   -9.4232   21.9192 C   0  0  0  0  0  0
  -23.6306   -8.2265   22.0761 C   0  0  0  0  0  0
  -22.4292   -8.0302   21.3546 C   0  0  0  0  0  0
  -21.9937   -9.0291   20.4652 C   0  0  0  0  0  0
  -22.7276  -10.2162   20.3065 C   0  0  0  0  0  0
  -21.6864   -6.0740   22.5276 C   0  0  0  0  0  0
  -21.4020   -6.5646   23.8209 C   0  0  0  0  0  0
  -21.3658   -5.6800   24.9174 C   0  0  0  0  0  0
  -21.6043   -4.3053   24.7226 C   0  0  0  0  0  0
  -21.8819   -3.8156   23.4341 C   0  0  0  0  0  0
  -21.9197   -4.6974   22.3398 C   0  0  0  0  0  0
  -22.7770  -13.5213   21.1901 C   0  0  0  0  0  0
  -22.1663   -4.2153   21.0971 F   0  0  0  0  0  0
  -21.5630   -3.4540   25.7739 F   0  0  0  0  0  0
  -29.8982  -13.9108   20.3350 N   0  0  0  0  0  0
  -26.2841  -12.9556   20.3241 N   0  0  0  0  0  0
  -25.9352  -11.6657   20.5735 N   0  0  0  0  0  0
  -22.0424  -12.8191   22.0463 N   0  0  0  0  0  0
  -25.3998  -15.2013   20.4181 N   0  0  0  0  0  0
  -31.6614  -15.2369   20.0552 O   0  0  0  0  0  0
  -21.6651   -6.8896   21.4236 O   0  0  0  0  0  0
  -22.3458  -14.5526   20.6768 O   0  0  0  0  0  0
  -24.6519  -31.8272   23.1748 C   0  0  0  0  0  0
  -25.9218  -32.4619   23.8215 C   0  0  1  0  0  0
  -27.2410  -26.9907   20.1489 C   0  0  0  0  0  0
  -25.5878  -33.8436   24.2082 N   0  0  0  0  0  0
  -23.4719  -30.4345   21.5209 C   0  0  2  0  0  0
  -24.9324  -28.8388   20.1027 C   0  0  0  0  0  0
  -22.7664  -29.4382   22.4778 C   0  0  0  0  0  0
  -18.0294  -28.1382   22.8446 C   0  0  0  0  0  0
  -24.1528  -36.7265   23.2652 C   0  0  0  0  0  0
  -26.0383  -30.6465   21.4105 C   0  0  0  0  0  0
  -26.1096  -29.2447   20.7448 C   0  0  0  0  0  0
  -27.2545  -28.3355   20.7540 C   0  0  0  0  0  0
  -26.0405  -26.7309   19.4477 C   0  0  0  0  0  0
  -24.9187  -27.6000   19.4382 C   0  0  0  0  0  0
  -23.7149  -29.7571   20.1447 C   0  0  0  0  0  0
  -25.4155  -36.3003   24.0294 C   0  0  1  0  0  0
  -20.5915  -28.3696   23.1209 C   0  0  2  0  0  0
  -20.6786  -26.9381   22.5424 C   0  0  0  0  0  0
  -19.5783  -26.6352   21.5206 C   0  0  0  0  0  0
  -18.1943  -26.7916   22.1592 C   0  0  0  0  0  0
  -19.1559  -28.8863   23.2803 C   0  0  0  0  0  0
  -18.9475  -30.1450   23.8826 C   0  0  0  0  0  0
  -17.6483  -30.6571   24.0543 C   0  0  0  0  0  0
  -25.9084  -34.9370   23.5027 C   0  0  0  0  0  0
  -16.5353  -29.9060   23.6362 C   0  0  0  0  0  0
  -16.7278  -28.6496   23.0340 C   0  0  0  0  0  0
  -26.4497  -31.6556   25.0730 C   0  0  0  0  0  0
  -25.3657  -31.3724   26.1416 C   0  0  0  0  0  0
  -27.0394  -30.2919   24.6431 C   0  0  0  0  0  0
  -27.6002  -32.4377   25.7504 C   0  0  0  0  0  0
  -27.5604  -37.1754   24.8444 C   0  0  0  0  0  0
  -21.4322  -29.2970   22.3562 N   0  0  0  0  0  0
  -26.4318  -37.3704   23.9388 N   0  0  0  0  0  0
  -24.7396  -30.9971   22.0870 N   0  0  0  0  0  0
  -23.4239  -28.7930   23.2987 O   0  0  0  0  0  0
  -28.2669  -25.9292   20.2745 O   0  0  0  0  0  0
  -26.5771  -34.8884   22.4666 O   0  0  0  0  0  0
  -23.5594  -32.1219   23.6866 O   0  0  0  0  0  0
  -28.0752  -19.2893   21.4835 C   0  0  0  0  0  0
  -29.6186  -21.1083   18.4382 C   0  0  0  0  0  0
  -30.4078  -23.1988   20.7210 C   0  0  0  0  0  0
  -28.7442  -24.6119   18.3170 C   0  0  0  0  0  0
  -29.7278  -18.0188   19.8688 C   0  0  0  0  0  0
  -29.2724  -19.5914   20.5749 C   0  0  1  0  0  0
  -28.9182  -21.1686   19.8013 C   0  0  1  0  0  0
  -28.9420  -22.8666   20.3972 C   0  0  2  0  0  0
  -28.2407  -24.3883   19.7569 C   0  0  1  0  0  0
  -29.6670  -16.4566   20.4181 N   0  0  0  0  0  0
  -31.4600  -12.9550   19.1868 H   0  0  0  0  0  0
  -30.4900  -11.8561   20.1205 H   0  0  0  0  0  0
  -29.8967  -11.7351   17.6731 H   0  0  0  0  0  0
  -29.5742  -13.4520   17.6472 H   0  0  0  0  0  0
  -28.0165  -11.2795   19.0663 H   0  0  0  0  0  0
  -27.4105  -12.3700   17.8468 H   0  0  0  0  0  0
  -27.5351  -14.2461   19.3338 H   0  0  0  0  0  0
  -28.8009  -12.5148   21.5148 H   0  0  0  0  0  0
  -28.3064  -14.1848   21.6762 H   0  0  0  0  0  0
  -25.2777   -9.5714   22.4781 H   0  0  0  0  0  0
  -24.0011   -7.4671   22.7499 H   0  0  0  0  0  0
  -21.0855   -8.8829   19.8968 H   0  0  0  0  0  0
  -22.3727  -10.9718   19.6185 H   0  0  0  0  0  0
  -21.2010   -7.6153   23.9715 H   0  0  0  0  0  0
  -21.1476   -6.0525   25.9076 H   0  0  0  0  0  0
  -22.0596   -2.7615   23.2846 H   0  0  0  0  0  0
  -22.4026  -11.9827   22.4810 H   0  0  0  0  0  0
  -21.1073  -13.1245   22.2709 H   0  0  0  0  0  0
  -24.6218  -15.8440   20.5291 H   0  0  0  0  0  0
  -26.2375  -15.6553   20.0788 H   0  0  0  0  0  0
  -26.7270  -32.5177   23.0918 H   0  0  0  0  0  0
  -24.9778  -33.9536   25.0051 H   0  0  0  0  0  0
  -22.7770  -31.2595   21.3550 H   0  0  0  0  0  0
  -23.3782  -35.9599   23.3257 H   0  0  0  0  0  0
  -24.3588  -36.9019   22.2085 H   0  0  0  0  0  0
  -23.7331  -37.6432   23.6789 H   0  0  0  0  0  0
  -26.2365  -31.4056   20.6535 H   0  0  0  0  0  0
  -26.8860  -30.6816   22.0825 H   0  0  0  0  0  0
  -28.1428  -28.6301   21.2947 H   0  0  0  0  0  0
  -25.9317  -25.7946   18.9209 H   0  0  0  0  0  0
  -24.0221  -27.2897   18.9179 H   0  0  0  0  0  0
  -23.8681  -30.5332   19.3942 H   0  0  0  0  0  0
  -22.8267  -29.2084   19.8247 H   0  0  0  0  0  0
  -25.1343  -36.1832   25.0784 H   0  0  0  0  0  0
  -20.9936  -28.3340   24.1352 H   0  0  0  0  0  0
  -20.5672  -26.2272   23.3641 H   0  0  0  0  0  0
  -21.6656  -26.7391   22.1213 H   0  0  0  0  0  0
  -19.6942  -25.6248   21.1268 H   0  0  0  0  0  0
  -19.6778  -27.3152   20.6737 H   0  0  0  0  0  0
  -17.4216  -26.6620   21.3990 H   0  0  0  0  0  0
  -18.0336  -26.0078   22.9009 H   0  0  0  0  0  0
  -19.7969  -30.7260   24.2181 H   0  0  0  0  0  0
  -17.5047  -31.6253   24.5146 H   0  0  0  0  0  0
  -15.5353  -30.2920   23.7770 H   0  0  0  0  0  0
  -15.8679  -28.0824   22.7054 H   0  0  0  0  0  0
  -24.5893  -30.7026   25.7695 H   0  0  0  0  0  0
  -24.8784  -32.2877   26.4782 H   0  0  0  0  0  0
  -25.7932  -30.8957   27.0261 H   0  0  0  0  0  0
  -26.3049  -29.6536   24.1503 H   0  0  0  0  0  0
  -27.3966  -29.7341   25.5095 H   0  0  0  0  0  0
  -27.8982  -30.4043   23.9819 H   0  0  0  0  0  0
  -27.2602  -33.3762   26.1888 H   0  0  0  0  0  0
  -28.3886  -32.6780   25.0363 H   0  0  0  0  0  0
  -28.0564  -31.8644   26.5584 H   0  0  0  0  0  0
  -28.2528  -38.0133   24.7535 H   0  0  0  0  0  0
  -28.1215  -36.2648   24.6248 H   0  0  0  0  0  0
  -27.2315  -37.1359   25.8842 H   0  0  0  0  0  0
  -20.9564  -29.8695   21.6736 H   0  0  0  0  0  0
  -26.0195  -38.2766   24.1404 H   0  0  0  0  0  0
  -28.2717  -18.4440   22.1452 H   0  0  0  0  0  0
  -27.1929  -19.0427   20.8888 H   0  0  0  0  0  0
  -27.8258  -20.1456   22.1103 H   0  0  0  0  0  0
  -29.5681  -20.1022   18.0236 H   0  0  0  0  0  0
  -30.6725  -21.3804   18.5137 H   0  0  0  0  0  0
  -29.1274  -21.7515   17.7092 H   0  0  0  0  0  0
  -30.9124  -22.3572   21.1972 H   0  0  0  0  0  0
  -30.4820  -24.0580   21.3881 H   0  0  0  0  0  0
  -30.9694  -23.4438   19.8187 H   0  0  0  0  0  0
  -29.4540  -23.8567   17.9899 H   0  0  0  0  0  0
  -29.2688  -25.5639   18.2200 H   0  0  0  0  0  0
  -27.9150  -24.6352   17.6100 H   0  0  0  0  0  0
  -30.7137  -18.1445   19.4165 H   0  0  0  0  0  0
  -29.0638  -17.9496   19.0052 H   0  0  0  0  0  0
  -30.1054  -19.8166   21.2416 H   0  0  0  0  0  0
  -27.8652  -21.0541   19.5454 H   0  0  0  0  0  0
  -28.4501  -22.7825   21.3665 H   0  0  0  0  0  0
  -27.1804  -24.1493   19.6856 H   0  0  0  0  0  0
  -28.7248  -16.2271   20.6946 H   0  0  0  0  0  0
  1 25  1  0  0  0
  1 30  2  0  0  0
  1 80  1  0  0  0
  2  3  1  0  0  0
  2 25  1  0  0  0
  2 81  1  0  0  0
  2 82  1  0  0  0
  3  4  1  0  0  0
  3 83  1  0  0  0
  3 84  1  0  0  0
  4  5  1  0  0  0
  4 85  1  0  0  0
  4 86  1  0  0  0
  5  6  1  0  0  0
  5 26  1  0  0  0
  5 87  1  0  0  0
  6 25  1  0  0  0
  6 88  1  0  0  0
  6 89  1  0  0  0
  7  8  2  0  0  0
  7 26  1  0  0  0
  7 29  1  0  0  0
  8  9  1  0  0  0
  8 22  1  0  0  0
  9 10  1  0  0  0
  9 27  2  0  0  0
 10 11  2  0  0  0
 10 15  1  0  0  0
 11 12  1  0  0  0
 11 90  1  0  0  0
 12 13  2  0  0  0
 12 91  1  0  0  0
 13 14  1  0  0  0
 13 31  1  0  0  0
 14 15  2  0  0  0
 14 92  1  0  0  0
 15 93  1  0  0  0
 16 17  2  0  0  0
 16 21  1  0  0  0
 16 31  1  0  0  0
 17 18  1  0  0  0
 17 94  1  0  0  0
 18 19  2  0  0  0
 18 95  1  0  0  0
 19 20  1  0  0  0
 19 24  1  0  0  0
 20 21  2  0  0  0
 20 96  1  0  0  0
 21 23  1  0  0  0
 22 28  1  0  0  0
 22 32  2  0  0  0
 26 27  1  0  0  0
 28 97  1  0  0  0
 28 98  1  0  0  0
 29 99  1  0  0  0
 29100  1  0  0  0
 33 34  1  0  0  0
 33 66  1  0  0  0
 33 70  2  0  0  0
 34 36  1  0  0  0
 34 59  1  0  0  0
 34101  1  0  0  0
 35 44  2  0  0  0
 35 45  1  0  0  0
 35 68  1  0  0  0
 36 56  1  0  0  0
 36102  1  0  0  0
 37 39  1  0  0  0
 37 47  1  0  0  0
 37 66  1  0  0  0
 37103  1  0  0  0
 38 43  2  0  0  0
 38 46  1  0  0  0
 38 47  1  0  0  0
 39 64  1  0  0  0
 39 67  2  0  0  0
 40 52  1  0  0  0
 40 53  2  0  0  0
 40 58  1  0  0  0
 41104  1  0  0  0
 41105  1  0  0  0
 41106  1  0  0  0
 41 48  1  0  0  0
 42 43  1  0  0  0
 42 66  1  0  0  0
 42107  1  0  0  0
 42108  1  0  0  0
 43 44  1  0  0  0
 44109  1  0  0  0
 45 46  2  0  0  0
 45110  1  0  0  0
 46111  1  0  0  0
 47112  1  0  0  0
 47113  1  0  0  0
 48 56  1  0  0  0
 48 65  1  0  0  0
 48114  1  0  0  0
 49 50  1  0  0  0
 49 53  1  0  0  0
 49 64  1  0  0  0
 49115  1  0  0  0
 50 51  1  0  0  0
 50116  1  0  0  0
 50117  1  0  0  0
 51 52  1  0  0  0
 51118  1  0  0  0
 51119  1  0  0  0
 52120  1  0  0  0
 52121  1  0  0  0
 53 54  1  0  0  0
 54 55  2  0  0  0
 54122  1  0  0  0
 55 57  1  0  0  0
 55123  1  0  0  0
 56 69  2  0  0  0
 57 58  2  0  0  0
 57124  1  0  0  0
 58125  1  0  0  0
 59 60  1  0  0  0
 59 61  1  0  0  0
 59 62  1  0  0  0
 60126  1  0  0  0
 60127  1  0  0  0
 60128  1  0  0  0
 61129  1  0  0  0
 61130  1  0  0  0
 61131  1  0  0  0
 62132  1  0  0  0
 62133  1  0  0  0
 62134  1  0  0  0
 63 65  1  0  0  0
 63135  1  0  0  0
 63136  1  0  0  0
 63137  1  0  0  0
 64138  1  0  0  0
 65139  1  0  0  0
 68 79  1  0  0  0
 71140  1  0  0  0
 71141  1  0  0  0
 71142  1  0  0  0
 71 76  1  0  0  0
 72143  1  0  0  0
 72144  1  0  0  0
 72145  1  0  0  0
 72 77  1  0  0  0
 73146  1  0  0  0
 73147  1  0  0  0
 73148  1  0  0  0
 73 78  1  0  0  0
 74149  1  0  0  0
 74150  1  0  0  0
 74151  1  0  0  0
 74 79  1  0  0  0
 75 76  1  0  0  0
 75 80  1  0  0  0
 75152  1  0  0  0
 75153  1  0  0  0
 76 77  1  0  0  0
 76154  1  0  0  0
 77 78  1  0  0  0
 77155  1  0  0  0
 78 79  1  0  0  0
 78156  1  0  0  0
 79157  1  0  0  0
 80158  1  0  0  0
M  ISO  4   1 100  68 101  79 101  80 100
M  END
> <chiral flag>
0

> <version>
0

> <s_m_source_file>
/data/baiqing/PycharmProjects/Reinvent-master-3.2/result/LINK_invent/BTK/process_docking_weight1_custom_sum_contain_oxygen_bond_distance_aromatic_linkinvent_7_9_3/rearranged_h_0095.sdf

> <i_m_source_file_index>
24

> <r_mmod_Potential_Energy-OPLS-2005>
1173.10327148438

> <r_mmod_Stretch_Energy-OPLS-2005>
571.176330566406

> <r_mmod_Bend_Energy-OPLS-2005>
429.329528808594

> <r_mmod_Torsional_Energy-OPLS-2005>
256.025604248047

> <r_mmod_Improper_Torsional_Energy-OPLS-2005>
5.31175422668457

> <r_mmod_Van_der_Waal_Energy-OPLS-2005>
106.810607910156

> <r_mmod_Electrostatic_Energy-OPLS-2005>
-391.492431640625

> <r_mmod_Solvation_Energy-OPLS-2005>
-199.966491699219

> <b_mmod_Minimization_Converged-OPLS-2005>
0

> <r_mmod_RMS_Derivative-OPLS-2005>
4.19256973266602

$$$$
24
                    3D
 Structure written by MMmdl.
167175  0  0  1  0            999 V2000
  -30.6321  -14.6116   20.5101 C   0  0  0  0  0  0
  -30.4326  -12.3758   19.4558 C   0  0  0  0  0  0
  -29.5070  -12.5077   18.2262 C   0  0  0  0  0  0
  -28.0285  -12.3486   18.6353 C   0  0  0  0  0  0
  -27.6537  -13.2143   19.8682 C   0  0  2  0  0  0
  -28.6952  -13.0631   21.0014 C   0  0  0  0  0  0
  -25.2561  -13.8160   20.5678 C   0  0  0  0  0  0
  -24.1828  -13.0430   20.9181 C   0  0  0  0  0  0
  -24.6385  -11.6898   20.8728 C   0  0  0  0  0  0
  -23.9054  -10.4282   21.0400 C   0  0  0  0  0  0
  -24.3607   -9.4204   21.9185 C   0  0  0  0  0  0
  -23.6291   -8.2234   22.0758 C   0  0  0  0  0  0
  -22.4271   -8.0274   21.3548 C   0  0  0  0  0  0
  -21.9894   -9.0244   20.4647 C   0  0  0  0  0  0
  -22.7212  -10.2127   20.3059 C   0  0  0  0  0  0
  -21.6857   -6.0735   22.5280 C   0  0  0  0  0  0
  -21.4012   -6.5645   23.8213 C   0  0  0  0  0  0
  -21.3660   -5.6801   24.9178 C   0  0  0  0  0  0
  -21.6043   -4.3063   24.7227 C   0  0  0  0  0  0
  -21.8824   -3.8149   23.4353 C   0  0  0  0  0  0
  -21.9196   -4.6965   22.3404 C   0  0  0  0  0  0
  -22.7852  -13.5235   21.1847 C   0  0  0  0  0  0
  -22.1667   -4.2155   21.0982 F   0  0  0  0  0  0
  -21.5620   -3.4545   25.7735 F   0  0  0  0  0  0
  -30.0143  -13.3929   20.4421 N   0  0  0  0  0  0
  -26.2987  -12.9335   20.3333 N   0  0  0  0  0  0
  -25.9314  -11.6495   20.5756 N   0  0  0  0  0  0
  -22.0502  -12.8229   22.0407 N   0  0  0  0  0  0
  -25.4291  -15.1873   20.4089 N   0  0  0  0  0  0
  -31.7850  -14.7740   20.1019 O   0  0  0  0  0  0
  -21.6647   -6.8861   21.4239 O   0  0  0  0  0  0
  -22.3546  -14.5547   20.6701 O   0  0  0  0  0  0
  -24.6220  -31.8614   23.2025 C   0  0  0  0  0  0
  -25.9079  -32.4786   23.8354 C   0  0  1  0  0  0
  -27.2293  -27.3453   20.1178 C   0  0  0  0  0  0
  -25.5908  -33.8590   24.2284 N   0  0  0  0  0  0
  -23.4144  -30.4834   21.5426 C   0  0  2  0  0  0
  -24.8619  -28.9378   20.1061 C   0  0  0  0  0  0
  -22.7448  -29.4637   22.4933 C   0  0  0  0  0  0
  -18.0286  -28.1380   22.8487 C   0  0  0  0  0  0
  -24.1490  -36.7299   23.2643 C   0  0  0  0  0  0
  -25.9502  -30.7991   21.3702 C   0  0  0  0  0  0
  -26.0233  -29.4273   20.7150 C   0  0  0  0  0  0
  -27.2037  -28.6365   20.7203 C   0  0  0  0  0  0
  -26.0515  -26.8986   19.4791 C   0  0  0  0  0  0
  -24.8761  -27.6784   19.4818 C   0  0  0  0  0  0
  -23.6271  -29.8138   20.1578 C   0  0  0  0  0  0
  -25.4114  -36.3093   24.0335 C   0  0  1  0  0  0
  -20.5884  -28.3687   23.1284 C   0  0  2  0  0  0
  -20.6772  -26.9409   22.5413 C   0  0  0  0  0  0
  -19.5753  -26.6384   21.5210 C   0  0  0  0  0  0
  -18.1931  -26.7931   22.1613 C   0  0  0  0  0  0
  -19.1539  -28.8849   23.2887 C   0  0  0  0  0  0
  -18.9463  -30.1448   23.8911 C   0  0  0  0  0  0
  -17.6464  -30.6584   24.0563 C   0  0  0  0  0  0
  -25.9047  -34.9460   23.5114 C   0  0  0  0  0  0
  -16.5355  -29.9088   23.6323 C   0  0  0  0  0  0
  -16.7275  -28.6501   23.0353 C   0  0  0  0  0  0
  -26.4479  -31.6592   25.0717 C   0  0  0  0  0  0
  -25.3717  -31.3720   26.1447 C   0  0  0  0  0  0
  -27.0324  -30.3025   24.6152 C   0  0  0  0  0  0
  -27.6051  -32.4323   25.7473 C   0  0  0  0  0  0
  -27.5585  -37.1805   24.8463 C   0  0  0  0  0  0
  -21.4169  -29.3044   22.3672 N   0  0  0  0  0  0
  -26.4296  -37.3783   23.9405 N   0  0  0  0  0  0
  -24.6802  -31.0648   22.0957 N   0  0  0  0  0  0
  -23.4178  -28.8191   23.3018 O   0  0  0  0  0  0
  -28.3745  -26.5538   20.2191 O   0  0  0  0  0  0
  -26.5617  -34.8927   22.4682 O   0  0  0  0  0  0
  -23.5393  -32.1401   23.7372 O   0  0  0  0  0  0
  -30.8105  -22.4160   20.7794 C   0  0  0  0  0  0
  -31.8842  -21.5351   20.9820 C   0  0  0  0  0  0
  -31.6275  -20.1665   21.2975 C   0  0  0  0  0  0
  -29.4985  -21.9568   20.8969 C   0  0  0  0  0  0
  -30.2676  -19.7100   21.2289 C   0  0  0  0  0  0
  -33.2826  -22.1378   20.9501 C   0  0  0  0  0  0
  -33.0739  -17.9576   21.2034 C   0  0  0  0  0  0
  -32.7591  -19.2313   23.3866 C   0  0  0  0  0  0
  -28.3824  -23.0200   21.1314 C   0  0  0  0  0  0
  -29.8582  -18.2211   21.5363 C   0  0  0  0  0  0
  -27.8378  -23.9341   19.9655 C   0  0  0  0  0  0
  -29.9967  -17.1163   20.4070 C   0  0  0  0  0  0
  -28.5419  -25.2793   19.5161 C   0  0  0  0  0  0
  -32.8043  -19.3201   21.8511 C   0  0  0  0  0  0
  -29.2409  -20.6144   21.0421 N   0  0  0  0  0  0
  -29.8356  -15.6765   20.8270 N   0  0  0  0  0  0
  -31.4758  -12.4898   19.1569 H   0  0  0  0  0  0
  -30.3551  -11.3769   19.8882 H   0  0  0  0  0  0
  -29.7674  -11.7627   17.4724 H   0  0  0  0  0  0
  -29.6579  -13.4816   17.7560 H   0  0  0  0  0  0
  -27.8583  -11.2938   18.8578 H   0  0  0  0  0  0
  -27.3773  -12.5895   17.7940 H   0  0  0  0  0  0
  -27.6757  -14.2500   19.5305 H   0  0  0  0  0  0
  -28.6967  -12.0427   21.3877 H   0  0  0  0  0  0
  -28.4460  -13.7020   21.8501 H   0  0  0  0  0  0
  -25.2754   -9.5702   22.4757 H   0  0  0  0  0  0
  -24.0022   -7.4627   22.7471 H   0  0  0  0  0  0
  -21.0833   -8.8742   19.8947 H   0  0  0  0  0  0
  -22.3659  -10.9668   19.6171 H   0  0  0  0  0  0
  -21.2013   -7.6153   23.9718 H   0  0  0  0  0  0
  -21.1474   -6.0530   25.9079 H   0  0  0  0  0  0
  -22.0604   -2.7613   23.2853 H   0  0  0  0  0  0
  -22.4131  -11.9901   22.4803 H   0  0  0  0  0  0
  -21.1111  -13.1246   22.2597 H   0  0  0  0  0  0
  -24.6604  -15.8406   20.5097 H   0  0  0  0  0  0
  -26.2757  -15.6249   20.0677 H   0  0  0  0  0  0
  -26.7147  -32.5465   23.1106 H   0  0  0  0  0  0
  -25.0038  -33.9738   25.0417 H   0  0  0  0  0  0
  -22.7085  -31.3038   21.3979 H   0  0  0  0  0  0
  -23.3757  -35.9629   23.3310 H   0  0  0  0  0  0
  -24.3579  -36.8913   22.2057 H   0  0  0  0  0  0
  -23.7240  -37.6504   23.6657 H   0  0  0  0  0  0
  -26.0787  -31.5633   20.6027 H   0  0  0  0  0  0
  -26.8313  -30.8482   21.9977 H   0  0  0  0  0  0
  -28.0932  -29.0035   21.2124 H   0  0  0  0  0  0
  -26.0148  -25.9338   18.9959 H   0  0  0  0  0  0
  -23.9834  -27.2972   19.0044 H   0  0  0  0  0  0
  -23.7412  -30.5875   19.3981 H   0  0  0  0  0  0
  -22.7487  -29.2389   19.8589 H   0  0  0  0  0  0
  -25.1298  -36.1955   25.0831 H   0  0  0  0  0  0
  -20.9984  -28.3269   24.1399 H   0  0  0  0  0  0
  -20.5661  -26.2304   23.3615 H   0  0  0  0  0  0
  -21.6644  -26.7432   22.1215 H   0  0  0  0  0  0
  -19.6918  -25.6292   21.1248 H   0  0  0  0  0  0
  -19.6699  -27.3190   20.6736 H   0  0  0  0  0  0
  -17.4202  -26.6691   21.4009 H   0  0  0  0  0  0
  -18.0322  -26.0064   22.9000 H   0  0  0  0  0  0
  -19.7936  -30.7259   24.2296 H   0  0  0  0  0  0
  -17.5017  -31.6270   24.5156 H   0  0  0  0  0  0
  -15.5358  -30.2996   23.7636 H   0  0  0  0  0  0
  -15.8672  -28.0822   22.7066 H   0  0  0  0  0  0
  -24.5888  -30.7080   25.7765 H   0  0  0  0  0  0
  -24.8912  -32.2882   26.4890 H   0  0  0  0  0  0
  -25.8041  -30.8876   27.0209 H   0  0  0  0  0  0
  -26.2893  -29.6775   24.1188 H   0  0  0  0  0  0
  -27.4048  -29.7286   25.4647 H   0  0  0  0  0  0
  -27.8749  -30.4331   23.9356 H   0  0  0  0  0  0
  -27.2671  -33.3609   26.2085 H   0  0  0  0  0  0
  -28.3832  -32.6907   25.0276 H   0  0  0  0  0  0
  -28.0755  -31.8430   26.5353 H   0  0  0  0  0  0
  -28.2608  -38.0099   24.7506 H   0  0  0  0  0  0
  -28.1078  -36.2630   24.6292 H   0  0  0  0  0  0
  -27.2304  -37.1461   25.8868 H   0  0  0  0  0  0
  -20.9342  -29.8751   21.6870 H   0  0  0  0  0  0
  -26.0189  -38.2866   24.1397 H   0  0  0  0  0  0
  -30.9929  -23.4756   20.6566 H   0  0  0  0  0  0
  -33.2669  -23.1683   20.5937 H   0  0  0  0  0  0
  -33.9316  -21.5803   20.2742 H   0  0  0  0  0  0
  -33.7287  -22.1453   21.9455 H   0  0  0  0  0  0
  -33.0631  -18.0149   20.1148 H   0  0  0  0  0  0
  -32.3849  -17.1889   21.5410 H   0  0  0  0  0  0
  -34.0651  -17.6007   21.4875 H   0  0  0  0  0  0
  -32.7481  -20.2261   23.8326 H   0  0  0  0  0  0
  -33.6375  -18.7161   23.7758 H   0  0  0  0  0  0
  -31.8850  -18.7005   23.7585 H   0  0  0  0  0  0
  -28.7023  -23.6675   21.9488 H   0  0  0  0  0  0
  -27.5313  -22.4711   21.5377 H   0  0  0  0  0  0
  -28.8174  -18.2319   21.8633 H   0  0  0  0  0  0
  -30.4003  -17.8870   22.4153 H   0  0  0  0  0  0
  -26.8142  -24.1958   20.2308 H   0  0  0  0  0  0
  -27.7379  -23.2955   19.0881 H   0  0  0  0  0  0
  -30.9334  -17.2344   19.8686 H   0  0  0  0  0  0
  -29.2375  -17.3182   19.6520 H   0  0  0  0  0  0
  -28.2680  -25.4646   18.4766 H   0  0  0  0  0  0
  -29.6135  -25.0890   19.4740 H   0  0  0  0  0  0
  -33.7335  -19.8419   21.6446 H   0  0  0  0  0  0
  -28.9207  -15.4234   21.1699 H   0  0  0  0  0  0
  1 25  1  0  0  0
  1 30  2  0  0  0
  1 86  1  0  0  0
  2  3  1  0  0  0
  2 25  1  0  0  0
  2 87  1  0  0  0
  2 88  1  0  0  0
  3  4  1  0  0  0
  3 89  1  0  0  0
  3 90  1  0  0  0
  4  5  1  0  0  0
  4 91  1  0  0  0
  4 92  1  0  0  0
  5  6  1  0  0  0
  5 26  1  0  0  0
  5 93  1  0  0  0
  6 25  1  0  0  0
  6 94  1  0  0  0
  6 95  1  0  0  0
  7  8  2  0  0  0
  7 26  1  0  0  0
  7 29  1  0  0  0
  8  9  1  0  0  0
  8 22  1  0  0  0
  9 10  1  0  0  0
  9 27  2  0  0  0
 10 11  2  0  0  0
 10 15  1  0  0  0
 11 12  1  0  0  0
 11 96  1  0  0  0
 12 13  2  0  0  0
 12 97  1  0  0  0
 13 14  1  0  0  0
 13 31  1  0  0  0
 14 15  2  0  0  0
 14 98  1  0  0  0
 15 99  1  0  0  0
 16 17  2  0  0  0
 16 21  1  0  0  0
 16 31  1  0  0  0
 17 18  1  0  0  0
 17100  1  0  0  0
 18 19  2  0  0  0
 18101  1  0  0  0
 19 20  1  0  0  0
 19 24  1  0  0  0
 20 21  2  0  0  0
 20102  1  0  0  0
 21 23  1  0  0  0
 22 28  1  0  0  0
 22 32  2  0  0  0
 26 27  1  0  0  0
 28103  1  0  0  0
 28104  1  0  0  0
 29105  1  0  0  0
 29106  1  0  0  0
 33 34  1  0  0  0
 33 66  1  0  0  0
 33 70  2  0  0  0
 34 36  1  0  0  0
 34 59  1  0  0  0
 34107  1  0  0  0
 35 44  2  0  0  0
 35 45  1  0  0  0
 35 68  1  0  0  0
 36 56  1  0  0  0
 36108  1  0  0  0
 37 39  1  0  0  0
 37 47  1  0  0  0
 37 66  1  0  0  0
 37109  1  0  0  0
 38 43  2  0  0  0
 38 46  1  0  0  0
 38 47  1  0  0  0
 39 64  1  0  0  0
 39 67  2  0  0  0
 40 52  1  0  0  0
 40 53  2  0  0  0
 40 58  1  0  0  0
 41110  1  0  0  0
 41111  1  0  0  0
 41112  1  0  0  0
 41 48  1  0  0  0
 42 43  1  0  0  0
 42 66  1  0  0  0
 42113  1  0  0  0
 42114  1  0  0  0
 43 44  1  0  0  0
 44115  1  0  0  0
 45 46  2  0  0  0
 45116  1  0  0  0
 46117  1  0  0  0
 47118  1  0  0  0
 47119  1  0  0  0
 48 56  1  0  0  0
 48 65  1  0  0  0
 48120  1  0  0  0
 49 50  1  0  0  0
 49 53  1  0  0  0
 49 64  1  0  0  0
 49121  1  0  0  0
 50 51  1  0  0  0
 50122  1  0  0  0
 50123  1  0  0  0
 51 52  1  0  0  0
 51124  1  0  0  0
 51125  1  0  0  0
 52126  1  0  0  0
 52127  1  0  0  0
 53 54  1  0  0  0
 54 55  2  0  0  0
 54128  1  0  0  0
 55 57  1  0  0  0
 55129  1  0  0  0
 56 69  2  0  0  0
 57 58  2  0  0  0
 57130  1  0  0  0
 58131  1  0  0  0
 59 60  1  0  0  0
 59 61  1  0  0  0
 59 62  1  0  0  0
 60132  1  0  0  0
 60133  1  0  0  0
 60134  1  0  0  0
 61135  1  0  0  0
 61136  1  0  0  0
 61137  1  0  0  0
 62138  1  0  0  0
 62139  1  0  0  0
 62140  1  0  0  0
 63 65  1  0  0  0
 63141  1  0  0  0
 63142  1  0  0  0
 63143  1  0  0  0
 64144  1  0  0  0
 65145  1  0  0  0
 68 83  1  0  0  0
 71 72  2  0  0  0
 71 74  1  0  0  0
 71146  1  0  0  0
 72 73  1  0  0  0
 72 76  1  0  0  0
 73 75  2  0  0  0
 73 84  1  0  0  0
 74 79  1  0  0  0
 74 85  2  0  0  0
 75 80  1  0  0  0
 75 85  1  0  0  0
 76147  1  0  0  0
 76148  1  0  0  0
 76149  1  0  0  0
 77150  1  0  0  0
 77151  1  0  0  0
 77152  1  0  0  0
 77 84  1  0  0  0
 78 84  1  0  0  0
 78153  1  0  0  0
 78154  1  0  0  0
 78155  1  0  0  0
 79 81  1  0  0  0
 79156  1  0  0  0
 79157  1  0  0  0
 80 82  1  0  0  0
 80158  1  0  0  0
 80159  1  0  0  0
 81 83  1  0  0  0
 81160  1  0  0  0
 81161  1  0  0  0
 82 86  1  0  0  0
 82162  1  0  0  0
 82163  1  0  0  0
 83164  1  0  0  0
 83165  1  0  0  0
 84166  1  0  0  0
 86167  1  0  0  0
M  ISO  4   1 100  68 101  83 101  86 100
M  END
> <chiral flag>
0

> <version>
0

> <s_m_source_file>
/data/baiqing/PycharmProjects/Reinvent-master-3.2/result/LINK_invent/BTK/process_docking_weight1_custom_sum_contain_oxygen_bond_distance_aromatic_linkinvent_7_9_3/rearranged_h_0095.sdf

> <i_m_source_file_index>
25

> <r_mmod_Potential_Energy-OPLS-2005>
-81.0646514892578

> <r_mmod_Stretch_Energy-OPLS-2005>
77.2592697143555

> <r_mmod_Bend_Energy-OPLS-2005>
170.014495849609

> <r_mmod_Torsional_Energy-OPLS-2005>
219.758987426758

> <r_mmod_Improper_Torsional_Energy-OPLS-2005>
9.16551303863525

> <r_mmod_Van_der_Waal_Energy-OPLS-2005>
148.053207397461

> <r_mmod_Electrostatic_Energy-OPLS-2005>
-524.660400390625

> <r_mmod_Solvation_Energy-OPLS-2005>
-220.271453857422

> <b_mmod_Minimization_Converged-OPLS-2005>
0

> <r_mmod_RMS_Derivative-OPLS-2005>
1.56437516212463

$$$$
25
                    3D
 Structure written by MMmdl.
171179  0  0  1  0            999 V2000
  -30.7759  -14.4617   20.6025 C   0  0  0  0  0  0
  -30.4051  -12.3179   19.4368 C   0  0  0  0  0  0
  -29.4903  -12.5174   18.2139 C   0  0  0  0  0  0
  -28.0142  -12.3748   18.6254 C   0  0  0  0  0  0
  -27.6583  -13.2244   19.8761 C   0  0  2  0  0  0
  -28.7029  -13.0458   21.0029 C   0  0  0  0  0  0
  -25.2511  -13.8175   20.5616 C   0  0  0  0  0  0
  -24.1800  -13.0435   20.9171 C   0  0  0  0  0  0
  -24.6399  -11.6916   20.8755 C   0  0  0  0  0  0
  -23.9071  -10.4297   21.0410 C   0  0  0  0  0  0
  -24.3622   -9.4212   21.9184 C   0  0  0  0  0  0
  -23.6294   -8.2247   22.0753 C   0  0  0  0  0  0
  -22.4276   -8.0284   21.3545 C   0  0  0  0  0  0
  -21.9918   -9.0256   20.4646 C   0  0  0  0  0  0
  -22.7249  -10.2134   20.3053 C   0  0  0  0  0  0
  -21.6850   -6.0735   22.5283 C   0  0  0  0  0  0
  -21.4010   -6.5638   23.8215 C   0  0  0  0  0  0
  -21.3657   -5.6790   24.9179 C   0  0  0  0  0  0
  -21.6048   -4.3053   24.7227 C   0  0  0  0  0  0
  -21.8815   -3.8147   23.4347 C   0  0  0  0  0  0
  -21.9191   -4.6965   22.3407 C   0  0  0  0  0  0
  -22.7818  -13.5218   21.1838 C   0  0  0  0  0  0
  -22.1655   -4.2152   21.0981 F   0  0  0  0  0  0
  -21.5632   -3.4535   25.7738 F   0  0  0  0  0  0
  -30.0359  -13.3261   20.4468 N   0  0  0  0  0  0
  -26.3009  -12.9405   20.3397 N   0  0  0  0  0  0
  -25.9346  -11.6548   20.5829 N   0  0  0  0  0  0
  -22.0473  -12.8210   22.0408 N   0  0  0  0  0  0
  -25.4128  -15.1862   20.3839 N   0  0  0  0  0  0
  -31.8699  -14.5999   20.0518 O   0  0  0  0  0  0
  -21.6638   -6.8882   21.4243 O   0  0  0  0  0  0
  -22.3494  -14.5529   20.6704 O   0  0  0  0  0  0
  -24.6173  -31.8682   23.2099 C   0  0  0  0  0  0
  -25.9067  -32.4829   23.8396 C   0  0  1  0  0  0
  -27.2177  -27.4053   20.0985 C   0  0  0  0  0  0
  -25.5952  -33.8626   24.2336 N   0  0  0  0  0  0
  -23.4053  -30.4988   21.5484 C   0  0  2  0  0  0
  -24.8489  -28.9737   20.1022 C   0  0  0  0  0  0
  -22.7441  -29.4673   22.4922 C   0  0  0  0  0  0
  -18.0287  -28.1397   22.8475 C   0  0  0  0  0  0
  -24.1484  -36.7319   23.2629 C   0  0  0  0  0  0
  -25.9382  -30.8269   21.3678 C   0  0  0  0  0  0
  -26.0112  -29.4620   20.7120 C   0  0  0  0  0  0
  -27.1977  -28.6850   20.7093 C   0  0  0  0  0  0
  -26.0420  -26.9691   19.4385 C   0  0  0  0  0  0
  -24.8633  -27.7313   19.4569 C   0  0  0  0  0  0
  -23.6151  -29.8444   20.1569 C   0  0  0  0  0  0
  -25.4102  -36.3134   24.0346 C   0  0  1  0  0  0
  -20.5882  -28.3684   23.1289 C   0  0  2  0  0  0
  -20.6778  -26.9417   22.5390 C   0  0  0  0  0  0
  -19.5751  -26.6394   21.5196 C   0  0  0  0  0  0
  -18.1930  -26.7942   22.1608 C   0  0  0  0  0  0
  -19.1534  -28.8850   23.2883 C   0  0  0  0  0  0
  -18.9467  -30.1464   23.8892 C   0  0  0  0  0  0
  -17.6474  -30.6595   24.0575 C   0  0  0  0  0  0
  -25.9037  -34.9495   23.5127 C   0  0  0  0  0  0
  -16.5358  -29.9102   23.6315 C   0  0  0  0  0  0
  -16.7272  -28.6532   23.0329 C   0  0  0  0  0  0
  -26.4488  -31.6607   25.0726 C   0  0  0  0  0  0
  -25.3757  -31.3705   26.1459 C   0  0  0  0  0  0
  -27.0282  -30.3046   24.6088 C   0  0  0  0  0  0
  -27.6059  -32.4310   25.7488 C   0  0  0  0  0  0
  -27.5573  -37.1823   24.8466 C   0  0  0  0  0  0
  -21.4156  -29.3066   22.3699 N   0  0  0  0  0  0
  -26.4296  -37.3824   23.9409 N   0  0  0  0  0  0
  -24.6721  -31.0786   22.1002 N   0  0  0  0  0  0
  -23.4206  -28.8188   23.2958 O   0  0  0  0  0  0
  -28.3575  -26.6132   20.1799 O   0  0  0  0  0  0
  -26.5563  -34.8948   22.4664 O   0  0  0  0  0  0
  -23.5353  -32.1402   23.7490 O   0  0  0  0  0  0
  -28.2095  -21.4586   21.8667 C   0  0  0  0  0  0
  -28.0756  -20.2632   22.5871 C   0  0  0  0  0  0
  -29.8984  -20.3898   20.5142 C   0  0  0  0  0  0
  -29.1071  -21.5376   20.7925 C   0  0  0  0  0  0
  -28.8238  -19.1025   22.2744 C   0  0  0  0  0  0
  -29.8187  -19.1548   21.2385 C   0  0  0  0  0  0
  -27.4687  -16.9733   22.1796 C   0  0  0  0  0  0
  -30.0456  -22.7208   18.6875 C   0  0  0  0  0  0
  -32.2295  -18.6138   20.6916 C   0  0  0  0  0  0
  -30.4007  -17.5748   19.3392 C   0  0  0  0  0  0
  -28.3804  -17.8552   23.0348 C   0  0  0  0  0  0
  -29.1473  -24.1936   20.5610 C   0  0  0  0  0  0
  -31.0000  -16.7183   21.6819 C   0  0  0  0  0  0
  -28.2053  -25.2096   19.8596 C   0  0  0  0  0  0
  -29.0688  -22.7862   19.8754 C   0  0  2  0  0  0
  -30.7975  -18.0041   20.7706 C   0  0  0  0  0  0
  -30.2628  -15.4688   21.3426 N   0  0  0  0  0  0
  -31.4537  -12.3765   19.1400 H   0  0  0  0  0  0
  -30.2768  -11.3179   19.8536 H   0  0  0  0  0  0
  -29.7363  -11.7924   17.4372 H   0  0  0  0  0  0
  -29.6585  -13.5037   17.7792 H   0  0  0  0  0  0
  -27.8284  -11.3197   18.8272 H   0  0  0  0  0  0
  -27.3644  -12.6435   17.7916 H   0  0  0  0  0  0
  -27.6909  -14.2690   19.5659 H   0  0  0  0  0  0
  -28.6795  -12.0232   21.3827 H   0  0  0  0  0  0
  -28.4664  -13.6836   21.8553 H   0  0  0  0  0  0
  -25.2767   -9.5685   22.4755 H   0  0  0  0  0  0
  -24.0005   -7.4635   22.7466 H   0  0  0  0  0  0
  -21.0851   -8.8776   19.8941 H   0  0  0  0  0  0
  -22.3715  -10.9668   19.6154 H   0  0  0  0  0  0
  -21.1994   -7.6147   23.9723 H   0  0  0  0  0  0
  -21.1481   -6.0518   25.9083 H   0  0  0  0  0  0
  -22.0595   -2.7609   23.2848 H   0  0  0  0  0  0
  -22.4089  -11.9877   22.4796 H   0  0  0  0  0  0
  -21.1086  -13.1230   22.2613 H   0  0  0  0  0  0
  -24.6459  -15.8421   20.4865 H   0  0  0  0  0  0
  -26.2719  -15.6267   20.0803 H   0  0  0  0  0  0
  -26.7141  -32.5547   23.1161 H   0  0  0  0  0  0
  -25.0280  -33.9799   25.0602 H   0  0  0  0  0  0
  -22.6970  -31.3184   21.4170 H   0  0  0  0  0  0
  -23.3776  -35.9626   23.3309 H   0  0  0  0  0  0
  -24.3581  -36.8885   22.2035 H   0  0  0  0  0  0
  -23.7205  -37.6526   23.6611 H   0  0  0  0  0  0
  -26.0577  -31.5947   20.6012 H   0  0  0  0  0  0
  -26.8226  -30.8725   21.9914 H   0  0  0  0  0  0
  -28.0888  -29.0531   21.1988 H   0  0  0  0  0  0
  -25.9935  -26.0366   18.8943 H   0  0  0  0  0  0
  -23.9793  -27.3645   18.9549 H   0  0  0  0  0  0
  -23.7356  -30.6251   19.4053 H   0  0  0  0  0  0
  -22.7364  -29.2739   19.8469 H   0  0  0  0  0  0
  -25.1284  -36.1993   25.0851 H   0  0  0  0  0  0
  -20.9973  -28.3238   24.1412 H   0  0  0  0  0  0
  -20.5703  -26.2288   23.3584 H   0  0  0  0  0  0
  -21.6658  -26.7484   22.1184 H   0  0  0  0  0  0
  -19.6925  -25.6299   21.1235 H   0  0  0  0  0  0
  -19.6694  -27.3204   20.6732 H   0  0  0  0  0  0
  -17.4206  -26.6682   21.4013 H   0  0  0  0  0  0
  -18.0355  -26.0090   22.9014 H   0  0  0  0  0  0
  -19.7954  -30.7281   24.2252 H   0  0  0  0  0  0
  -17.5036  -31.6267   24.5197 H   0  0  0  0  0  0
  -15.5363  -30.3023   23.7653 H   0  0  0  0  0  0
  -15.8673  -28.0869   22.7024 H   0  0  0  0  0  0
  -24.6006  -30.6969   25.7806 H   0  0  0  0  0  0
  -24.8884  -32.2843   26.4868 H   0  0  0  0  0  0
  -25.8133  -30.8940   27.0238 H   0  0  0  0  0  0
  -26.2803  -29.6852   24.1126 H   0  0  0  0  0  0
  -27.4023  -29.7252   25.4537 H   0  0  0  0  0  0
  -27.8671  -30.4378   23.9253 H   0  0  0  0  0  0
  -27.2715  -33.3633   26.2061 H   0  0  0  0  0  0
  -28.3883  -32.6800   25.0313 H   0  0  0  0  0  0
  -28.0704  -31.8428   26.5415 H   0  0  0  0  0  0
  -28.2617  -38.0103   24.7536 H   0  0  0  0  0  0
  -28.1064  -36.2650   24.6294 H   0  0  0  0  0  0
  -27.2300  -37.1440   25.8873 H   0  0  0  0  0  0
  -20.9308  -29.8844   21.6968 H   0  0  0  0  0  0
  -26.0191  -38.2906   24.1433 H   0  0  0  0  0  0
  -27.5627  -22.2919   22.1056 H   0  0  0  0  0  0
  -27.3245  -20.2340   23.3646 H   0  0  0  0  0  0
  -30.5632  -20.4429   19.6693 H   0  0  0  0  0  0
  -27.2029  -16.0533   22.7008 H   0  0  0  0  0  0
  -27.9372  -16.7092   21.2336 H   0  0  0  0  0  0
  -26.5442  -17.5004   21.9436 H   0  0  0  0  0  0
  -29.8486  -21.8546   18.0555 H   0  0  0  0  0  0
  -31.0804  -22.6733   19.0266 H   0  0  0  0  0  0
  -29.9544  -23.6028   18.0537 H   0  0  0  0  0  0
  -32.3353  -19.4309   19.9819 H   0  0  0  0  0  0
  -32.9726  -17.8827   20.3680 H   0  0  0  0  0  0
  -32.5495  -18.9895   21.6651 H   0  0  0  0  0  0
  -30.3721  -18.4164   18.6492 H   0  0  0  0  0  0
  -29.4170  -17.1073   19.3163 H   0  0  0  0  0  0
  -31.1163  -16.8658   18.9235 H   0  0  0  0  0  0
  -27.8012  -18.1623   23.9074 H   0  0  0  0  0  0
  -29.1832  -17.2946   23.4897 H   0  0  0  0  0  0
  -28.8415  -24.1397   21.6063 H   0  0  0  0  0  0
  -30.1767  -24.5535   20.5756 H   0  0  0  0  0  0
  -30.9809  -16.9487   22.7405 H   0  0  0  0  0  0
  -32.0484  -16.4219   21.6226 H   0  0  0  0  0  0
  -27.2100  -24.8536   20.1278 H   0  0  0  0  0  0
  -28.2984  -25.1146   18.7777 H   0  0  0  0  0  0
  -28.0687  -22.7156   19.4428 H   0  0  0  0  0  0
  -29.3491  -15.3379   21.7484 H   0  0  0  0  0  0
  1 25  1  0  0  0
  1 30  2  0  0  0
  1 87  1  0  0  0
  2  3  1  0  0  0
  2 25  1  0  0  0
  2 88  1  0  0  0
  2 89  1  0  0  0
  3  4  1  0  0  0
  3 90  1  0  0  0
  3 91  1  0  0  0
  4  5  1  0  0  0
  4 92  1  0  0  0
  4 93  1  0  0  0
  5  6  1  0  0  0
  5 26  1  0  0  0
  5 94  1  0  0  0
  6 25  1  0  0  0
  6 95  1  0  0  0
  6 96  1  0  0  0
  7  8  2  0  0  0
  7 26  1  0  0  0
  7 29  1  0  0  0
  8  9  1  0  0  0
  8 22  1  0  0  0
  9 10  1  0  0  0
  9 27  2  0  0  0
 10 11  2  0  0  0
 10 15  1  0  0  0
 11 12  1  0  0  0
 11 97  1  0  0  0
 12 13  2  0  0  0
 12 98  1  0  0  0
 13 14  1  0  0  0
 13 31  1  0  0  0
 14 15  2  0  0  0
 14 99  1  0  0  0
 15100  1  0  0  0
 16 17  2  0  0  0
 16 21  1  0  0  0
 16 31  1  0  0  0
 17 18  1  0  0  0
 17101  1  0  0  0
 18 19  2  0  0  0
 18102  1  0  0  0
 19 20  1  0  0  0
 19 24  1  0  0  0
 20 21  2  0  0  0
 20103  1  0  0  0
 21 23  1  0  0  0
 22 28  1  0  0  0
 22 32  2  0  0  0
 26 27  1  0  0  0
 28104  1  0  0  0
 28105  1  0  0  0
 29106  1  0  0  0
 29107  1  0  0  0
 33 34  1  0  0  0
 33 66  1  0  0  0
 33 70  2  0  0  0
 34 36  1  0  0  0
 34 59  1  0  0  0
 34108  1  0  0  0
 35 44  2  0  0  0
 35 45  1  0  0  0
 35 68  1  0  0  0
 36 56  1  0  0  0
 36109  1  0  0  0
 37 39  1  0  0  0
 37 47  1  0  0  0
 37 66  1  0  0  0
 37110  1  0  0  0
 38 43  2  0  0  0
 38 46  1  0  0  0
 38 47  1  0  0  0
 39 64  1  0  0  0
 39 67  2  0  0  0
 40 52  1  0  0  0
 40 53  2  0  0  0
 40 58  1  0  0  0
 41111  1  0  0  0
 41112  1  0  0  0
 41113  1  0  0  0
 41 48  1  0  0  0
 42 43  1  0  0  0
 42 66  1  0  0  0
 42114  1  0  0  0
 42115  1  0  0  0
 43 44  1  0  0  0
 44116  1  0  0  0
 45 46  2  0  0  0
 45117  1  0  0  0
 46118  1  0  0  0
 47119  1  0  0  0
 47120  1  0  0  0
 48 56  1  0  0  0
 48 65  1  0  0  0
 48121  1  0  0  0
 49 50  1  0  0  0
 49 53  1  0  0  0
 49 64  1  0  0  0
 49122  1  0  0  0
 50 51  1  0  0  0
 50123  1  0  0  0
 50124  1  0  0  0
 51 52  1  0  0  0
 51125  1  0  0  0
 51126  1  0  0  0
 52127  1  0  0  0
 52128  1  0  0  0
 53 54  1  0  0  0
 54 55  2  0  0  0
 54129  1  0  0  0
 55 57  1  0  0  0
 55130  1  0  0  0
 56 69  2  0  0  0
 57 58  2  0  0  0
 57131  1  0  0  0
 58132  1  0  0  0
 59 60  1  0  0  0
 59 61  1  0  0  0
 59 62  1  0  0  0
 60133  1  0  0  0
 60134  1  0  0  0
 60135  1  0  0  0
 61136  1  0  0  0
 61137  1  0  0  0
 61138  1  0  0  0
 62139  1  0  0  0
 62140  1  0  0  0
 62141  1  0  0  0
 63 65  1  0  0  0
 63142  1  0  0  0
 63143  1  0  0  0
 63144  1  0  0  0
 64145  1  0  0  0
 65146  1  0  0  0
 68 84  1  0  0  0
 71 72  2  0  0  0
 71 74  1  0  0  0
 71147  1  0  0  0
 72 75  1  0  0  0
 72148  1  0  0  0
 73 74  2  0  0  0
 73 76  1  0  0  0
 73149  1  0  0  0
 74 85  1  0  0  0
 75 76  2  0  0  0
 75 81  1  0  0  0
 76 86  1  0  0  0
 77 81  1  0  0  0
 77150  1  0  0  0
 77151  1  0  0  0
 77152  1  0  0  0
 78153  1  0  0  0
 78154  1  0  0  0
 78155  1  0  0  0
 78 85  1  0  0  0
 79156  1  0  0  0
 79157  1  0  0  0
 79158  1  0  0  0
 79 86  1  0  0  0
 80 86  1  0  0  0
 80159  1  0  0  0
 80160  1  0  0  0
 80161  1  0  0  0
 81162  1  0  0  0
 81163  1  0  0  0
 82 84  1  0  0  0
 82 85  1  0  0  0
 82164  1  0  0  0
 82165  1  0  0  0
 83 86  1  0  0  0
 83 87  1  0  0  0
 83166  1  0  0  0
 83167  1  0  0  0
 84168  1  0  0  0
 84169  1  0  0  0
 85170  1  0  0  0
 87171  1  0  0  0
M  ISO  4   1 100  68 101  84 101  87 100
M  END
> <chiral flag>
0

> <version>
0

> <s_m_source_file>
/data/baiqing/PycharmProjects/Reinvent-master-3.2/result/LINK_invent/BTK/process_docking_weight1_custom_sum_contain_oxygen_bond_distance_aromatic_linkinvent_7_9_3/rearranged_h_0095.sdf

> <i_m_source_file_index>
26

> <r_mmod_Potential_Energy-OPLS-2005>
4.3691577911377

> <r_mmod_Stretch_Energy-OPLS-2005>
60.2227020263672

> <r_mmod_Bend_Energy-OPLS-2005>
160.016372680664

> <r_mmod_Torsional_Energy-OPLS-2005>
228.349655151367

> <r_mmod_Improper_Torsional_Energy-OPLS-2005>
2.80700898170471

> <r_mmod_Van_der_Waal_Energy-OPLS-2005>
181.832672119141

> <r_mmod_Electrostatic_Energy-OPLS-2005>
-460.542572021484

> <r_mmod_Solvation_Energy-OPLS-2005>
-188.369094848633

> <b_mmod_Minimization_Converged-OPLS-2005>
0

> <r_mmod_RMS_Derivative-OPLS-2005>
2.72646617889404

$$$$
26
                    3D
 Structure written by MMmdl.
168176  0  0  1  0            999 V2000
  -30.7469  -14.3891   20.6620 C   0  0  0  0  0  0
  -30.4094  -12.2886   19.4137 C   0  0  0  0  0  0
  -29.4806  -12.5123   18.2039 C   0  0  0  0  0  0
  -28.0033  -12.3737   18.6147 C   0  0  0  0  0  0
  -27.6581  -13.2017   19.8773 C   0  0  2  0  0  0
  -28.6922  -12.9504   20.9940 C   0  0  0  0  0  0
  -25.2591  -13.8155   20.5712 C   0  0  0  0  0  0
  -24.1845  -13.0428   20.9175 C   0  0  0  0  0  0
  -24.6390  -11.6899   20.8755 C   0  0  0  0  0  0
  -23.9061  -10.4291   21.0451 C   0  0  0  0  0  0
  -24.3629   -9.4197   21.9217 C   0  0  0  0  0  0
  -23.6307   -8.2230   22.0763 C   0  0  0  0  0  0
  -22.4281   -8.0282   21.3555 C   0  0  0  0  0  0
  -21.9896   -9.0269   20.4679 C   0  0  0  0  0  0
  -22.7229  -10.2151   20.3097 C   0  0  0  0  0  0
  -21.6857   -6.0734   22.5291 C   0  0  0  0  0  0
  -21.4017   -6.5642   23.8217 C   0  0  0  0  0  0
  -21.3654   -5.6800   24.9184 C   0  0  0  0  0  0
  -21.6043   -4.3061   24.7235 C   0  0  0  0  0  0
  -21.8809   -3.8144   23.4361 C   0  0  0  0  0  0
  -21.9188   -4.6964   22.3418 C   0  0  0  0  0  0
  -22.7866  -13.5244   21.1801 C   0  0  0  0  0  0
  -22.1676   -4.2147   21.0997 F   0  0  0  0  0  0
  -21.5609   -3.4536   25.7747 F   0  0  0  0  0  0
  -30.0370  -13.2445   20.4667 N   0  0  0  0  0  0
  -26.3010  -12.9311   20.3382 N   0  0  0  0  0  0
  -25.9310  -11.6464   20.5787 N   0  0  0  0  0  0
  -22.0497  -12.8238   22.0345 N   0  0  0  0  0  0
  -25.4291  -15.1873   20.4157 N   0  0  0  0  0  0
  -31.7792  -14.6579   20.0447 O   0  0  0  0  0  0
  -21.6649   -6.8881   21.4249 O   0  0  0  0  0  0
  -22.3561  -14.5530   20.6623 O   0  0  0  0  0  0
  -24.6080  -31.8727   23.2132 C   0  0  0  0  0  0
  -25.9003  -32.4855   23.8410 C   0  0  1  0  0  0
  -27.2415  -27.4817   20.0927 C   0  0  0  0  0  0
  -25.5897  -33.8648   24.2359 N   0  0  0  0  0  0
  -23.3938  -30.4942   21.5528 C   0  0  2  0  0  0
  -24.8437  -28.9629   20.1164 C   0  0  0  0  0  0
  -22.7357  -29.4686   22.5015 C   0  0  0  0  0  0
  -18.0259  -28.1357   22.8504 C   0  0  0  0  0  0
  -24.1481  -36.7318   23.2639 C   0  0  0  0  0  0
  -25.9153  -30.8519   21.3602 C   0  0  0  0  0  0
  -25.9985  -29.4884   20.7107 C   0  0  0  0  0  0
  -27.2003  -28.7530   20.6998 C   0  0  0  0  0  0
  -26.0772  -26.9602   19.4920 C   0  0  0  0  0  0
  -24.8762  -27.6954   19.5048 C   0  0  0  0  0  0
  -23.6020  -29.8240   20.1669 C   0  0  0  0  0  0
  -25.4103  -36.3129   24.0349 C   0  0  1  0  0  0
  -20.5847  -28.3646   23.1320 C   0  0  2  0  0  0
  -20.6742  -26.9391   22.5410 C   0  0  0  0  0  0
  -19.5733  -26.6377   21.5193 C   0  0  0  0  0  0
  -18.1913  -26.7905   22.1616 C   0  0  0  0  0  0
  -19.1511  -28.8812   23.2913 C   0  0  0  0  0  0
  -18.9448  -30.1418   23.8917 C   0  0  0  0  0  0
  -17.6459  -30.6576   24.0558 C   0  0  0  0  0  0
  -25.9022  -34.9494   23.5145 C   0  0  0  0  0  0
  -16.5347  -29.9085   23.6326 C   0  0  0  0  0  0
  -16.7254  -28.6494   23.0365 C   0  0  0  0  0  0
  -26.4462  -31.6616   25.0710 C   0  0  0  0  0  0
  -25.3749  -31.3738   26.1472 C   0  0  0  0  0  0
  -27.0286  -30.3061   24.6070 C   0  0  0  0  0  0
  -27.6051  -32.4316   25.7470 C   0  0  0  0  0  0
  -27.5581  -37.1819   24.8465 C   0  0  0  0  0  0
  -21.4090  -29.3041   22.3737 N   0  0  0  0  0  0
  -26.4291  -37.3812   23.9412 N   0  0  0  0  0  0
  -24.6570  -31.0851   22.1027 N   0  0  0  0  0  0
  -23.4134  -28.8243   23.3062 O   0  0  0  0  0  0
  -28.4037  -26.7547   20.0926 O   0  0  0  0  0  0
  -26.5568  -34.8932   22.4693 O   0  0  0  0  0  0
  -23.5286  -32.1470   23.7556 O   0  0  0  0  0  0
  -28.3005  -14.8734   24.4959 C   0  0  0  0  0  0
  -27.1094  -15.3924   25.0141 C   0  0  0  0  0  0
  -28.9712  -15.6636   23.5570 C   0  0  0  0  0  0
  -27.3468  -17.2490   23.7222 C   0  0  0  0  0  0
  -24.4545  -19.5928   21.9830 C   0  0  0  0  0  0
  -30.2586  -15.1900   22.9143 C   0  0  0  0  0  0
  -27.6437  -23.5452   21.8758 C   0  0  0  0  0  0
  -27.3302  -22.1253   21.3718 C   0  0  0  0  0  0
  -28.2288  -24.4295   20.7628 C   0  0  0  0  0  0
  -26.2620  -21.3921   22.2054 C   0  0  0  0  0  0
  -26.9268  -18.9157   21.9592 C   0  0  0  0  0  0
  -28.5089  -25.8719   21.2078 C   0  0  0  0  0  0
  -25.8926  -20.0114   21.6192 C   0  0  1  0  0  0
  -26.6427  -16.5960   24.6287 N   0  0  0  0  0  0
  -28.4859  -16.8605   23.1666 N   0  0  0  0  0  0
  -26.8116  -18.4485   23.3352 N   0  0  0  0  0  0
  -30.2014  -15.3025   21.4644 N   0  0  0  0  0  0
  -31.4539  -12.3863   19.1134 H   0  0  0  0  0  0
  -30.3062  -11.2698   19.7898 H   0  0  0  0  0  0
  -29.7098  -11.7978   17.4129 H   0  0  0  0  0  0
  -29.6533  -13.5053   17.7884 H   0  0  0  0  0  0
  -27.8073  -11.3179   18.7980 H   0  0  0  0  0  0
  -27.3534  -12.6617   17.7881 H   0  0  0  0  0  0
  -27.7095  -14.2538   19.5990 H   0  0  0  0  0  0
  -28.6535  -11.9119   21.3223 H   0  0  0  0  0  0
  -28.4258  -13.5353   21.8701 H   0  0  0  0  0  0
  -25.2793   -9.5637   22.4780 H   0  0  0  0  0  0
  -24.0010   -7.4598   22.7459 H   0  0  0  0  0  0
  -21.0812   -8.8810   19.9005 H   0  0  0  0  0  0
  -22.3711  -10.9713   19.6215 H   0  0  0  0  0  0
  -21.2030   -7.6152   23.9716 H   0  0  0  0  0  0
  -21.1479   -6.0547   25.9086 H   0  0  0  0  0  0
  -22.0582   -2.7603   23.2878 H   0  0  0  0  0  0
  -22.4105  -11.9958   22.4836 H   0  0  0  0  0  0
  -21.1092  -13.1258   22.2451 H   0  0  0  0  0  0
  -24.6611  -15.8381   20.5394 H   0  0  0  0  0  0
  -26.2864  -15.6341   20.1188 H   0  0  0  0  0  0
  -26.7064  -32.5602   23.1171 H   0  0  0  0  0  0
  -25.0084  -33.9814   25.0531 H   0  0  0  0  0  0
  -22.6810  -31.3092   21.4130 H   0  0  0  0  0  0
  -23.3739  -35.9657   23.3326 H   0  0  0  0  0  0
  -24.3569  -36.8897   22.2045 H   0  0  0  0  0  0
  -23.7219  -37.6535   23.6615 H   0  0  0  0  0  0
  -26.0151  -31.6218   20.5934 H   0  0  0  0  0  0
  -26.8034  -30.9066   21.9768 H   0  0  0  0  0  0
  -28.0928  -29.1558   21.1574 H   0  0  0  0  0  0
  -26.0983  -25.9900   19.0179 H   0  0  0  0  0  0
  -23.9896  -27.2834   19.0416 H   0  0  0  0  0  0
  -23.7025  -30.5956   19.4023 H   0  0  0  0  0  0
  -22.7268  -29.2392   19.8765 H   0  0  0  0  0  0
  -25.1272  -36.2016   25.0844 H   0  0  0  0  0  0
  -20.9941  -28.3207   24.1438 H   0  0  0  0  0  0
  -20.5597  -26.2281   23.3601 H   0  0  0  0  0  0
  -21.6624  -26.7419   22.1244 H   0  0  0  0  0  0
  -19.6895  -25.6282   21.1233 H   0  0  0  0  0  0
  -19.6654  -27.3167   20.6704 H   0  0  0  0  0  0
  -17.4180  -26.6659   21.4018 H   0  0  0  0  0  0
  -18.0326  -26.0013   22.8978 H   0  0  0  0  0  0
  -19.7936  -30.7214   24.2302 H   0  0  0  0  0  0
  -17.5035  -31.6270   24.5139 H   0  0  0  0  0  0
  -15.5358  -30.3010   23.7620 H   0  0  0  0  0  0
  -15.8653  -28.0808   22.7097 H   0  0  0  0  0  0
  -24.5892  -30.7118   25.7811 H   0  0  0  0  0  0
  -24.8978  -32.2906   26.4936 H   0  0  0  0  0  0
  -25.8103  -30.8887   27.0211 H   0  0  0  0  0  0
  -26.2827  -29.6834   24.1112 H   0  0  0  0  0  0
  -27.4037  -29.7292   25.4529 H   0  0  0  0  0  0
  -27.8666  -30.4372   23.9222 H   0  0  0  0  0  0
  -27.2680  -33.3587   26.2114 H   0  0  0  0  0  0
  -28.3832  -32.6920   25.0287 H   0  0  0  0  0  0
  -28.0746  -31.8397   26.5338 H   0  0  0  0  0  0
  -28.2625  -38.0095   24.7500 H   0  0  0  0  0  0
  -28.1058  -36.2625   24.6309 H   0  0  0  0  0  0
  -27.2299  -37.1493   25.8872 H   0  0  0  0  0  0
  -20.9220  -29.8808   21.7009 H   0  0  0  0  0  0
  -26.0198  -38.2899   24.1415 H   0  0  0  0  0  0
  -28.6755  -13.9062   24.8037 H   0  0  0  0  0  0
  -26.5235  -14.8439   25.7369 H   0  0  0  0  0  0
  -23.7266  -20.2878   21.5598 H   0  0  0  0  0  0
  -24.2939  -19.5687   23.0608 H   0  0  0  0  0  0
  -24.2174  -18.6030   21.5882 H   0  0  0  0  0  0
  -30.4828  -14.1701   23.2324 H   0  0  0  0  0  0
  -31.0776  -15.8122   23.2774 H   0  0  0  0  0  0
  -28.3274  -23.4998   22.7249 H   0  0  0  0  0  0
  -26.7272  -24.0109   22.2435 H   0  0  0  0  0  0
  -28.2523  -21.5442   21.3294 H   0  0  0  0  0  0
  -26.9666  -22.1845   20.3449 H   0  0  0  0  0  0
  -27.5242  -24.4421   19.9328 H   0  0  0  0  0  0
  -29.1431  -23.9895   20.3647 H   0  0  0  0  0  0
  -25.3661  -22.0140   22.2233 H   0  0  0  0  0  0
  -26.5790  -21.2969   23.2450 H   0  0  0  0  0  0
  -27.9442  -19.2670   21.7804 H   0  0  0  0  0  0
  -26.7777  -18.0649   21.2924 H   0  0  0  0  0  0
  -29.5149  -25.9404   21.6240 H   0  0  0  0  0  0
  -27.8305  -26.1658   22.0138 H   0  0  0  0  0  0
  -25.8946  -20.1131   20.5322 H   0  0  0  0  0  0
  -25.9171  -18.6321   23.7696 H   0  0  0  0  0  0
  -30.4044  -16.2508   21.1916 H   0  0  0  0  0  0
  1 25  1  0  0  0
  1 30  2  0  0  0
  1 87  1  0  0  0
  2  3  1  0  0  0
  2 25  1  0  0  0
  2 88  1  0  0  0
  2 89  1  0  0  0
  3  4  1  0  0  0
  3 90  1  0  0  0
  3 91  1  0  0  0
  4  5  1  0  0  0
  4 92  1  0  0  0
  4 93  1  0  0  0
  5  6  1  0  0  0
  5 26  1  0  0  0
  5 94  1  0  0  0
  6 25  1  0  0  0
  6 95  1  0  0  0
  6 96  1  0  0  0
  7  8  2  0  0  0
  7 26  1  0  0  0
  7 29  1  0  0  0
  8  9  1  0  0  0
  8 22  1  0  0  0
  9 10  1  0  0  0
  9 27  2  0  0  0
 10 11  2  0  0  0
 10 15  1  0  0  0
 11 12  1  0  0  0
 11 97  1  0  0  0
 12 13  2  0  0  0
 12 98  1  0  0  0
 13 14  1  0  0  0
 13 31  1  0  0  0
 14 15  2  0  0  0
 14 99  1  0  0  0
 15100  1  0  0  0
 16 17  2  0  0  0
 16 21  1  0  0  0
 16 31  1  0  0  0
 17 18  1  0  0  0
 17101  1  0  0  0
 18 19  2  0  0  0
 18102  1  0  0  0
 19 20  1  0  0  0
 19 24  1  0  0  0
 20 21  2  0  0  0
 20103  1  0  0  0
 21 23  1  0  0  0
 22 28  1  0  0  0
 22 32  2  0  0  0
 26 27  1  0  0  0
 28104  1  0  0  0
 28105  1  0  0  0
 29106  1  0  0  0
 29107  1  0  0  0
 33 34  1  0  0  0
 33 66  1  0  0  0
 33 70  2  0  0  0
 34 36  1  0  0  0
 34 59  1  0  0  0
 34108  1  0  0  0
 35 44  2  0  0  0
 35 45  1  0  0  0
 35 68  1  0  0  0
 36 56  1  0  0  0
 36109  1  0  0  0
 37 39  1  0  0  0
 37 47  1  0  0  0
 37 66  1  0  0  0
 37110  1  0  0  0
 38 43  2  0  0  0
 38 46  1  0  0  0
 38 47  1  0  0  0
 39 64  1  0  0  0
 39 67  2  0  0  0
 40 52  1  0  0  0
 40 53  2  0  0  0
 40 58  1  0  0  0
 41111  1  0  0  0
 41112  1  0  0  0
 41113  1  0  0  0
 41 48  1  0  0  0
 42 43  1  0  0  0
 42 66  1  0  0  0
 42114  1  0  0  0
 42115  1  0  0  0
 43 44  1  0  0  0
 44116  1  0  0  0
 45 46  2  0  0  0
 45117  1  0  0  0
 46118  1  0  0  0
 47119  1  0  0  0
 47120  1  0  0  0
 48 56  1  0  0  0
 48 65  1  0  0  0
 48121  1  0  0  0
 49 50  1  0  0  0
 49 53  1  0  0  0
 49 64  1  0  0  0
 49122  1  0  0  0
 50 51  1  0  0  0
 50123  1  0  0  0
 50124  1  0  0  0
 51 52  1  0  0  0
 51125  1  0  0  0
 51126  1  0  0  0
 52127  1  0  0  0
 52128  1  0  0  0
 53 54  1  0  0  0
 54 55  2  0  0  0
 54129  1  0  0  0
 55 57  1  0  0  0
 55130  1  0  0  0
 56 69  2  0  0  0
 57 58  2  0  0  0
 57131  1  0  0  0
 58132  1  0  0  0
 59 60  1  0  0  0
 59 61  1  0  0  0
 59 62  1  0  0  0
 60133  1  0  0  0
 60134  1  0  0  0
 60135  1  0  0  0
 61136  1  0  0  0
 61137  1  0  0  0
 61138  1  0  0  0
 62139  1  0  0  0
 62140  1  0  0  0
 62141  1  0  0  0
 63 65  1  0  0  0
 63142  1  0  0  0
 63143  1  0  0  0
 63144  1  0  0  0
 64145  1  0  0  0
 65146  1  0  0  0
 68 82  1  0  0  0
 71 72  2  0  0  0
 71 73  1  0  0  0
 71147  1  0  0  0
 72 84  1  0  0  0
 72148  1  0  0  0
 73 76  1  0  0  0
 73 85  2  0  0  0
 74 84  2  0  0  0
 74 85  1  0  0  0
 74 86  1  0  0  0
 75149  1  0  0  0
 75150  1  0  0  0
 75151  1  0  0  0
 75 83  1  0  0  0
 76 87  1  0  0  0
 76152  1  0  0  0
 76153  1  0  0  0
 77 78  1  0  0  0
 77 79  1  0  0  0
 77154  1  0  0  0
 77155  1  0  0  0
 78 80  1  0  0  0
 78156  1  0  0  0
 78157  1  0  0  0
 79 82  1  0  0  0
 79158  1  0  0  0
 79159  1  0  0  0
 80 83  1  0  0  0
 80160  1  0  0  0
 80161  1  0  0  0
 81 83  1  0  0  0
 81 86  1  0  0  0
 81162  1  0  0  0
 81163  1  0  0  0
 82164  1  0  0  0
 82165  1  0  0  0
 83166  1  0  0  0
 86167  1  0  0  0
 87168  1  0  0  0
M  ISO  4   1 100  68 101  82 101  87 100
M  END
> <chiral flag>
0

> <version>
0

> <s_m_source_file>
/data/baiqing/PycharmProjects/Reinvent-master-3.2/result/LINK_invent/BTK/process_docking_weight1_custom_sum_contain_oxygen_bond_distance_aromatic_linkinvent_7_9_3/rearranged_h_0095.sdf

> <i_m_source_file_index>
27

> <r_mmod_Potential_Energy-OPLS-2005>
-729.405151367188

> <r_mmod_Stretch_Energy-OPLS-2005>
29.9814968109131

> <r_mmod_Bend_Energy-OPLS-2005>
98.1913681030273

> <r_mmod_Torsional_Energy-OPLS-2005>
305.891174316406

> <r_mmod_Improper_Torsional_Energy-OPLS-2005>
10.4461612701416

> <r_mmod_Van_der_Waal_Energy-OPLS-2005>
155.139709472656

> <r_mmod_Electrostatic_Energy-OPLS-2005>
-1112.19091796875

> <r_mmod_Solvation_Energy-OPLS-2005>
-223.692398071289

> <b_mmod_Minimization_Converged-OPLS-2005>
0

> <r_mmod_RMS_Derivative-OPLS-2005>
2.57074952125549

$$$$
27
                    3D
 Structure written by MMmdl.
175183  0  0  1  0            999 V2000
  -30.7558  -14.3735   20.6957 C   0  0  0  0  0  0
  -30.4248  -12.2983   19.3914 C   0  0  0  0  0  0
  -29.4859  -12.5287   18.1927 C   0  0  0  0  0  0
  -28.0113  -12.3792   18.6128 C   0  0  0  0  0  0
  -27.6689  -13.1994   19.8830 C   0  0  2  0  0  0
  -28.7059  -12.9308   20.9941 C   0  0  0  0  0  0
  -25.2627  -13.8159   20.5698 C   0  0  0  0  0  0
  -24.1860  -13.0444   20.9174 C   0  0  0  0  0  0
  -24.6395  -11.6900   20.8722 C   0  0  0  0  0  0
  -23.9049  -10.4296   21.0399 C   0  0  0  0  0  0
  -24.3606   -9.4215   21.9177 C   0  0  0  0  0  0
  -23.6285   -8.2242   22.0752 C   0  0  0  0  0  0
  -22.4267   -8.0281   21.3541 C   0  0  0  0  0  0
  -21.9902   -9.0253   20.4645 C   0  0  0  0  0  0
  -22.7224  -10.2129   20.3050 C   0  0  0  0  0  0
  -21.6850   -6.0739   22.5274 C   0  0  0  0  0  0
  -21.4015   -6.5638   23.8207 C   0  0  0  0  0  0
  -21.3662   -5.6791   24.9170 C   0  0  0  0  0  0
  -21.6044   -4.3053   24.7221 C   0  0  0  0  0  0
  -21.8815   -3.8149   23.4340 C   0  0  0  0  0  0
  -21.9191   -4.6969   22.3399 C   0  0  0  0  0  0
  -22.7878  -13.5244   21.1852 C   0  0  0  0  0  0
  -22.1658   -4.2157   21.0978 F   0  0  0  0  0  0
  -21.5632   -3.4536   25.7730 F   0  0  0  0  0  0
  -30.0497  -13.2342   20.4613 N   0  0  0  0  0  0
  -26.3064  -12.9311   20.3398 N   0  0  0  0  0  0
  -25.9319  -11.6473   20.5755 N   0  0  0  0  0  0
  -22.0525  -12.8227   22.0404 N   0  0  0  0  0  0
  -25.4352  -15.1870   20.4104 N   0  0  0  0  0  0
  -31.7635  -14.6968   20.0576 O   0  0  0  0  0  0
  -21.6635   -6.8879   21.4235 O   0  0  0  0  0  0
  -22.3558  -14.5556   20.6719 O   0  0  0  0  0  0
  -24.6163  -31.8701   23.2093 C   0  0  0  0  0  0
  -25.9058  -32.4825   23.8385 C   0  0  1  0  0  0
  -27.2283  -27.4360   20.0822 C   0  0  0  0  0  0
  -25.5930  -33.8629   24.2325 N   0  0  0  0  0  0
  -23.4011  -30.4988   21.5508 C   0  0  2  0  0  0
  -24.8448  -28.9686   20.1132 C   0  0  0  0  0  0
  -22.7406  -29.4680   22.4961 C   0  0  0  0  0  0
  -18.0285  -28.1349   22.8491 C   0  0  0  0  0  0
  -24.1505  -36.7320   23.2635 C   0  0  0  0  0  0
  -25.9343  -30.8318   21.3682 C   0  0  0  0  0  0
  -26.0076  -29.4698   20.7101 C   0  0  0  0  0  0
  -27.2015  -28.7118   20.6918 C   0  0  0  0  0  0
  -26.0433  -26.9566   19.4719 C   0  0  0  0  0  0
  -24.8568  -27.7095   19.4935 C   0  0  0  0  0  0
  -23.6092  -29.8380   20.1638 C   0  0  0  0  0  0
  -25.4123  -36.3113   24.0329 C   0  0  1  0  0  0
  -20.5883  -28.3673   23.1294 C   0  0  2  0  0  0
  -20.6790  -26.9405   22.5400 C   0  0  0  0  0  0
  -19.5749  -26.6365   21.5213 C   0  0  0  0  0  0
  -18.1922  -26.7899   22.1614 C   0  0  0  0  0  0
  -19.1532  -28.8820   23.2889 C   0  0  0  0  0  0
  -18.9476  -30.1430   23.8897 C   0  0  0  0  0  0
  -17.6483  -30.6562   24.0570 C   0  0  0  0  0  0
  -25.9043  -34.9486   23.5109 C   0  0  0  0  0  0
  -16.5374  -29.9066   23.6328 C   0  0  0  0  0  0
  -16.7280  -28.6488   23.0331 C   0  0  0  0  0  0
  -26.4465  -31.6609   25.0727 C   0  0  0  0  0  0
  -25.3722  -31.3779   26.1482 C   0  0  0  0  0  0
  -27.0306  -30.3044   24.6134 C   0  0  0  0  0  0
  -27.6034  -32.4359   25.7477 C   0  0  0  0  0  0
  -27.5594  -37.1813   24.8453 C   0  0  0  0  0  0
  -21.4136  -29.3064   22.3711 N   0  0  0  0  0  0
  -26.4315  -37.3791   23.9392 N   0  0  0  0  0  0
  -24.6691  -31.0799   22.1012 N   0  0  0  0  0  0
  -23.4194  -28.8207   23.2973 O   0  0  0  0  0  0
  -28.3966  -26.6934   20.1074 O   0  0  0  0  0  0
  -26.5588  -34.8939   22.4660 O   0  0  0  0  0  0
  -23.5356  -32.1464   23.7495 O   0  0  0  0  0  0
  -27.8321  -20.5420   22.1611 C   0  0  0  0  0  0
  -27.2001  -19.7050   23.1148 C   0  0  0  0  0  0
  -28.9798  -19.9504   21.7173 C   0  0  0  0  0  0
  -27.9698  -18.5766   23.2057 C   0  0  0  0  0  0
  -27.7783  -17.4105   24.1307 C   0  0  0  0  0  0
  -24.6966  -19.4640   23.2112 C   0  0  0  0  0  0
  -25.8039  -21.5355   24.1625 C   0  0  0  0  0  0
  -30.7673  -14.8157   23.0839 C   0  0  0  0  0  0
  -30.0386  -20.5300   20.8062 C   0  0  0  0  0  0
  -30.2340  -22.0632   20.9419 C   0  0  0  0  0  0
  -29.2808  -22.9492   20.1093 C   0  0  0  0  0  0
  -29.4429  -24.4613   20.3982 C   0  0  0  0  0  0
  -30.0399  -17.6295   22.0623 C   0  0  0  0  0  0
  -29.4479  -16.2975   21.5244 C   0  0  0  0  0  0
  -28.2787  -25.2896   19.8291 C   0  0  0  0  0  0
  -25.9448  -20.0281   23.9009 C   0  0  0  0  0  0
  -29.0232  -18.6717   22.2878 N   0  0  0  0  0  0
  -30.3079  -15.1176   21.7264 N   0  0  0  0  0  0
  -31.4662  -12.4126   19.0846 H   0  0  0  0  0  0
  -30.3350  -11.2722   19.7520 H   0  0  0  0  0  0
  -29.7180  -11.8244   17.3933 H   0  0  0  0  0  0
  -29.6522  -13.5254   17.7794 H   0  0  0  0  0  0
  -27.8249  -11.3206   18.7994 H   0  0  0  0  0  0
  -27.3531  -12.6638   17.7911 H   0  0  0  0  0  0
  -27.7299  -14.2551   19.6166 H   0  0  0  0  0  0
  -28.6709  -11.8844   21.3001 H   0  0  0  0  0  0
  -28.4488  -13.4949   21.8908 H   0  0  0  0  0  0
  -25.2748   -9.5690   22.4754 H   0  0  0  0  0  0
  -24.0000   -7.4637   22.7465 H   0  0  0  0  0  0
  -21.0839   -8.8767   19.8944 H   0  0  0  0  0  0
  -22.3687  -10.9672   19.6164 H   0  0  0  0  0  0
  -21.2011   -7.6146   23.9709 H   0  0  0  0  0  0
  -21.1490   -6.0525   25.9070 H   0  0  0  0  0  0
  -22.0595   -2.7614   23.2833 H   0  0  0  0  0  0
  -22.4123  -11.9871   22.4773 H   0  0  0  0  0  0
  -21.1138  -13.1254   22.2631 H   0  0  0  0  0  0
  -24.6750  -15.8464   20.5342 H   0  0  0  0  0  0
  -26.2992  -15.6271   20.1200 H   0  0  0  0  0  0
  -26.7145  -32.5506   23.1158 H   0  0  0  0  0  0
  -25.0161  -33.9798   25.0528 H   0  0  0  0  0  0
  -22.6908  -31.3172   21.4130 H   0  0  0  0  0  0
  -23.3774  -35.9639   23.3284 H   0  0  0  0  0  0
  -24.3616  -36.8943   22.2053 H   0  0  0  0  0  0
  -23.7275  -37.6528   23.6661 H   0  0  0  0  0  0
  -26.0562  -31.6008   20.6037 H   0  0  0  0  0  0
  -26.8211  -30.8764   21.9891 H   0  0  0  0  0  0
  -28.1000  -29.0972   21.1549 H   0  0  0  0  0  0
  -26.0081  -26.0050   18.9640 H   0  0  0  0  0  0
  -23.9637  -27.3181   19.0269 H   0  0  0  0  0  0
  -23.7228  -30.6167   19.4096 H   0  0  0  0  0  0
  -22.7317  -29.2650   19.8603 H   0  0  0  0  0  0
  -25.1303  -36.1975   25.0825 H   0  0  0  0  0  0
  -20.9983  -28.3249   24.1412 H   0  0  0  0  0  0
  -20.5722  -26.2277   23.3591 H   0  0  0  0  0  0
  -21.6647  -26.7436   22.1171 H   0  0  0  0  0  0
  -19.6905  -25.6268   21.1246 H   0  0  0  0  0  0
  -19.6661  -27.3189   20.6748 H   0  0  0  0  0  0
  -17.4189  -26.6672   21.4009 H   0  0  0  0  0  0
  -18.0301  -26.0010   22.8981 H   0  0  0  0  0  0
  -19.7948  -30.7260   24.2225 H   0  0  0  0  0  0
  -17.5036  -31.6235   24.5181 H   0  0  0  0  0  0
  -15.5380  -30.2992   23.7613 H   0  0  0  0  0  0
  -15.8674  -28.0846   22.6987 H   0  0  0  0  0  0
  -24.5816  -30.7200   25.7847 H   0  0  0  0  0  0
  -24.9004  -32.2980   26.4949 H   0  0  0  0  0  0
  -25.8048  -30.8920   27.0234 H   0  0  0  0  0  0
  -26.2873  -29.6806   24.1161 H   0  0  0  0  0  0
  -27.4049  -29.7275   25.4595 H   0  0  0  0  0  0
  -27.8698  -30.4336   23.9298 H   0  0  0  0  0  0
  -27.2630  -33.3663   26.2029 H   0  0  0  0  0  0
  -28.3841  -32.6935   25.0309 H   0  0  0  0  0  0
  -28.0695  -31.8517   26.5411 H   0  0  0  0  0  0
  -28.2596  -38.0124   24.7534 H   0  0  0  0  0  0
  -28.1122  -36.2669   24.6259 H   0  0  0  0  0  0
  -27.2317  -37.1440   25.8854 H   0  0  0  0  0  0
  -20.9286  -29.8881   21.7025 H   0  0  0  0  0  0
  -26.0203  -38.2868   24.1391 H   0  0  0  0  0  0
  -27.4893  -21.5248   21.8824 H   0  0  0  0  0  0
  -27.4863  -17.7486   25.1244 H   0  0  0  0  0  0
  -28.6889  -16.8316   24.2657 H   0  0  0  0  0  0
  -26.9968  -16.7440   23.7662 H   0  0  0  0  0  0
  -24.7619  -18.3816   23.1024 H   0  0  0  0  0  0
  -24.5640  -19.8897   22.2165 H   0  0  0  0  0  0
  -23.7973  -19.6832   23.7879 H   0  0  0  0  0  0
  -26.6908  -21.9329   24.6556 H   0  0  0  0  0  0
  -24.9500  -21.7449   24.8070 H   0  0  0  0  0  0
  -25.6588  -22.0950   23.2384 H   0  0  0  0  0  0
  -30.0004  -15.0431   23.8227 H   0  0  0  0  0  0
  -31.6633  -15.3895   23.3243 H   0  0  0  0  0  0
  -31.0124  -13.7577   23.2013 H   0  0  0  0  0  0
  -29.8390  -20.2642   19.7682 H   0  0  0  0  0  0
  -31.0041  -20.0852   21.0441 H   0  0  0  0  0  0
  -31.2499  -22.3023   20.6261 H   0  0  0  0  0  0
  -30.1881  -22.3388   21.9965 H   0  0  0  0  0  0
  -28.2489  -22.6653   20.2980 H   0  0  0  0  0  0
  -29.4356  -22.7610   19.0470 H   0  0  0  0  0  0
  -30.3898  -24.8183   19.9948 H   0  0  0  0  0  0
  -29.4866  -24.6220   21.4766 H   0  0  0  0  0  0
  -30.7981  -17.9750   21.3634 H   0  0  0  0  0  0
  -30.5573  -17.4830   23.0093 H   0  0  0  0  0  0
  -29.2227  -16.4228   20.4631 H   0  0  0  0  0  0
  -28.4889  -16.0692   21.9836 H   0  0  0  0  0  0
  -27.3708  -24.8918   20.2831 H   0  0  0  0  0  0
  -28.2026  -25.1391   18.7524 H   0  0  0  0  0  0
  -26.0367  -19.5438   24.8739 H   0  0  0  0  0  0
  1 25  1  0  0  0
  1 30  2  0  0  0
  1 88  1  0  0  0
  2  3  1  0  0  0
  2 25  1  0  0  0
  2 89  1  0  0  0
  2 90  1  0  0  0
  3  4  1  0  0  0
  3 91  1  0  0  0
  3 92  1  0  0  0
  4  5  1  0  0  0
  4 93  1  0  0  0
  4 94  1  0  0  0
  5  6  1  0  0  0
  5 26  1  0  0  0
  5 95  1  0  0  0
  6 25  1  0  0  0
  6 96  1  0  0  0
  6 97  1  0  0  0
  7  8  2  0  0  0
  7 26  1  0  0  0
  7 29  1  0  0  0
  8  9  1  0  0  0
  8 22  1  0  0  0
  9 10  1  0  0  0
  9 27  2  0  0  0
 10 11  2  0  0  0
 10 15  1  0  0  0
 11 12  1  0  0  0
 11 98  1  0  0  0
 12 13  2  0  0  0
 12 99  1  0  0  0
 13 14  1  0  0  0
 13 31  1  0  0  0
 14 15  2  0  0  0
 14100  1  0  0  0
 15101  1  0  0  0
 16 17  2  0  0  0
 16 21  1  0  0  0
 16 31  1  0  0  0
 17 18  1  0  0  0
 17102  1  0  0  0
 18 19  2  0  0  0
 18103  1  0  0  0
 19 20  1  0  0  0
 19 24  1  0  0  0
 20 21  2  0  0  0
 20104  1  0  0  0
 21 23  1  0  0  0
 22 28  1  0  0  0
 22 32  2  0  0  0
 26 27  1  0  0  0
 28105  1  0  0  0
 28106  1  0  0  0
 29107  1  0  0  0
 29108  1  0  0  0
 33 34  1  0  0  0
 33 66  1  0  0  0
 33 70  2  0  0  0
 34 36  1  0  0  0
 34 59  1  0  0  0
 34109  1  0  0  0
 35 44  2  0  0  0
 35 45  1  0  0  0
 35 68  1  0  0  0
 36 56  1  0  0  0
 36110  1  0  0  0
 37 39  1  0  0  0
 37 47  1  0  0  0
 37 66  1  0  0  0
 37111  1  0  0  0
 38 43  2  0  0  0
 38 46  1  0  0  0
 38 47  1  0  0  0
 39 64  1  0  0  0
 39 67  2  0  0  0
 40 52  1  0  0  0
 40 53  2  0  0  0
 40 58  1  0  0  0
 41112  1  0  0  0
 41113  1  0  0  0
 41114  1  0  0  0
 41 48  1  0  0  0
 42 43  1  0  0  0
 42 66  1  0  0  0
 42115  1  0  0  0
 42116  1  0  0  0
 43 44  1  0  0  0
 44117  1  0  0  0
 45 46  2  0  0  0
 45118  1  0  0  0
 46119  1  0  0  0
 47120  1  0  0  0
 47121  1  0  0  0
 48 56  1  0  0  0
 48 65  1  0  0  0
 48122  1  0  0  0
 49 50  1  0  0  0
 49 53  1  0  0  0
 49 64  1  0  0  0
 49123  1  0  0  0
 50 51  1  0  0  0
 50124  1  0  0  0
 50125  1  0  0  0
 51 52  1  0  0  0
 51126  1  0  0  0
 51127  1  0  0  0
 52128  1  0  0  0
 52129  1  0  0  0
 53 54  1  0  0  0
 54 55  2  0  0  0
 54130  1  0  0  0
 55 57  1  0  0  0
 55131  1  0  0  0
 56 69  2  0  0  0
 57 58  2  0  0  0
 57132  1  0  0  0
 58133  1  0  0  0
 59 60  1  0  0  0
 59 61  1  0  0  0
 59 62  1  0  0  0
 60134  1  0  0  0
 60135  1  0  0  0
 60136  1  0  0  0
 61137  1  0  0  0
 61138  1  0  0  0
 61139  1  0  0  0
 62140  1  0  0  0
 62141  1  0  0  0
 62142  1  0  0  0
 63 65  1  0  0  0
 63143  1  0  0  0
 63144  1  0  0  0
 63145  1  0  0  0
 64146  1  0  0  0
 65147  1  0  0  0
 68 85  1  0  0  0
 71 72  1  0  0  0
 71 73  2  0  0  0
 71148  1  0  0  0
 72 74  2  0  0  0
 72 86  1  0  0  0
 73 79  1  0  0  0
 73 87  1  0  0  0
 74 75  1  0  0  0
 74 87  1  0  0  0
 75149  1  0  0  0
 75150  1  0  0  0
 75151  1  0  0  0
 76152  1  0  0  0
 76153  1  0  0  0
 76154  1  0  0  0
 76 86  1  0  0  0
 77 86  1  0  0  0
 77155  1  0  0  0
 77156  1  0  0  0
 77157  1  0  0  0
 78 88  1  0  0  0
 78158  1  0  0  0
 78159  1  0  0  0
 78160  1  0  0  0
 79 80  1  0  0  0
 79161  1  0  0  0
 79162  1  0  0  0
 80 81  1  0  0  0
 80163  1  0  0  0
 80164  1  0  0  0
 81 82  1  0  0  0
 81165  1  0  0  0
 81166  1  0  0  0
 82 85  1  0  0  0
 82167  1  0  0  0
 82168  1  0  0  0
 83 84  1  0  0  0
 83 87  1  0  0  0
 83169  1  0  0  0
 83170  1  0  0  0
 84 88  1  0  0  0
 84171  1  0  0  0
 84172  1  0  0  0
 85173  1  0  0  0
 85174  1  0  0  0
 86175  1  0  0  0
M  ISO  4   1 100  68 101  85 101  88 100
M  END
> <chiral flag>
0

> <version>
0

> <s_m_source_file>
/data/baiqing/PycharmProjects/Reinvent-master-3.2/result/LINK_invent/BTK/process_docking_weight1_custom_sum_contain_oxygen_bond_distance_aromatic_linkinvent_7_9_3/rearranged_h_0095.sdf

> <i_m_source_file_index>
28

> <r_mmod_Potential_Energy-OPLS-2005>
72.2234420776367

> <r_mmod_Stretch_Energy-OPLS-2005>
38.3921852111816

> <r_mmod_Bend_Energy-OPLS-2005>
101.017250061035

> <r_mmod_Torsional_Energy-OPLS-2005>
321.160949707031

> <r_mmod_Improper_Torsional_Energy-OPLS-2005>
2.18223977088928

> <r_mmod_Van_der_Waal_Energy-OPLS-2005>
132.753814697266

> <r_mmod_Electrostatic_Energy-OPLS-2005>
-346.998931884766

> <r_mmod_Solvation_Energy-OPLS-2005>
-185.751968383789

> <b_mmod_Minimization_Converged-OPLS-2005>
0

> <r_mmod_RMS_Derivative-OPLS-2005>
2.5842707157135

$$$$
28
                    3D
 Structure written by MMmdl.
175183  0  0  1  0            999 V2000
  -30.7756  -14.3353   20.7438 C   0  0  0  0  0  0
  -30.4206  -12.3061   19.3740 C   0  0  0  0  0  0
  -29.4805  -12.5580   18.1814 C   0  0  0  0  0  0
  -28.0051  -12.4019   18.6018 C   0  0  0  0  0  0
  -27.6696  -13.1996   19.8891 C   0  0  2  0  0  0
  -28.7102  -12.8970   20.9886 C   0  0  0  0  0  0
  -25.2624  -13.8139   20.5700 C   0  0  0  0  0  0
  -24.1861  -13.0427   20.9178 C   0  0  0  0  0  0
  -24.6397  -11.6886   20.8719 C   0  0  0  0  0  0
  -23.9056  -10.4289   21.0395 C   0  0  0  0  0  0
  -24.3605   -9.4204   21.9177 C   0  0  0  0  0  0
  -23.6278   -8.2241   22.0756 C   0  0  0  0  0  0
  -22.4267   -8.0279   21.3546 C   0  0  0  0  0  0
  -21.9899   -9.0248   20.4650 C   0  0  0  0  0  0
  -22.7224  -10.2125   20.3042 C   0  0  0  0  0  0
  -21.6851   -6.0737   22.5283 C   0  0  0  0  0  0
  -21.4009   -6.5645   23.8218 C   0  0  0  0  0  0
  -21.3657   -5.6803   24.9175 C   0  0  0  0  0  0
  -21.6036   -4.3064   24.7235 C   0  0  0  0  0  0
  -21.8814   -3.8150   23.4360 C   0  0  0  0  0  0
  -21.9188   -4.6964   22.3404 C   0  0  0  0  0  0
  -22.7889  -13.5236   21.1841 C   0  0  0  0  0  0
  -22.1661   -4.2148   21.0992 F   0  0  0  0  0  0
  -21.5623   -3.4547   25.7749 F   0  0  0  0  0  0
  -30.0497  -13.2191   20.4649 N   0  0  0  0  0  0
  -26.3075  -12.9295   20.3423 N   0  0  0  0  0  0
  -25.9330  -11.6462   20.5756 N   0  0  0  0  0  0
  -22.0519  -12.8217   22.0381 N   0  0  0  0  0  0
  -25.4351  -15.1854   20.4110 N   0  0  0  0  0  0
  -31.7485  -14.6972   20.0741 O   0  0  0  0  0  0
  -21.6628   -6.8874   21.4242 O   0  0  0  0  0  0
  -22.3593  -14.5564   20.6710 O   0  0  0  0  0  0
  -24.6074  -31.8723   23.2135 C   0  0  0  0  0  0
  -25.9003  -32.4830   23.8396 C   0  0  1  0  0  0
  -27.2298  -27.4895   20.0652 C   0  0  0  0  0  0
  -25.5910  -33.8638   24.2334 N   0  0  0  0  0  0
  -23.3896  -30.4950   21.5566 C   0  0  2  0  0  0
  -24.8269  -28.9557   20.1297 C   0  0  0  0  0  0
  -22.7358  -29.4683   22.5077 C   0  0  0  0  0  0
  -18.0288  -28.1329   22.8496 C   0  0  0  0  0  0
  -24.1505  -36.7308   23.2634 C   0  0  0  0  0  0
  -25.9127  -30.8450   21.3611 C   0  0  0  0  0  0
  -25.9845  -29.4801   20.7169 C   0  0  0  0  0  0
  -27.1843  -28.7490   20.6935 C   0  0  0  0  0  0
  -26.0435  -26.9463   19.5145 C   0  0  0  0  0  0
  -24.8461  -27.6798   19.5388 C   0  0  0  0  0  0
  -23.5916  -29.8185   20.1738 C   0  0  0  0  0  0
  -25.4126  -36.3111   24.0335 C   0  0  1  0  0  0
  -20.5872  -28.3600   23.1353 C   0  0  2  0  0  0
  -20.6808  -26.9361   22.5371 C   0  0  0  0  0  0
  -19.5803  -26.6348   21.5171 C   0  0  0  0  0  0
  -18.1971  -26.7878   22.1579 C   0  0  0  0  0  0
  -19.1534  -28.8785   23.2920 C   0  0  0  0  0  0
  -18.9478  -30.1417   23.8887 C   0  0  0  0  0  0
  -17.6481  -30.6560   24.0548 C   0  0  0  0  0  0
  -25.9052  -34.9477   23.5110 C   0  0  0  0  0  0
  -16.5374  -29.9039   23.6332 C   0  0  0  0  0  0
  -16.7280  -28.6465   23.0329 C   0  0  0  0  0  0
  -26.4400  -31.6643   25.0746 C   0  0  0  0  0  0
  -25.3676  -31.3781   26.1532 C   0  0  0  0  0  0
  -27.0206  -30.3101   24.6058 C   0  0  0  0  0  0
  -27.5984  -32.4356   25.7495 C   0  0  0  0  0  0
  -27.5602  -37.1808   24.8475 C   0  0  0  0  0  0
  -21.4107  -29.3012   22.3799 N   0  0  0  0  0  0
  -26.4321  -37.3788   23.9405 N   0  0  0  0  0  0
  -24.6547  -31.0894   22.0975 N   0  0  0  0  0  0
  -23.4192  -28.8244   23.3096 O   0  0  0  0  0  0
  -28.4497  -26.8673   19.9887 O   0  0  0  0  0  0
  -26.5570  -34.8906   22.4649 O   0  0  0  0  0  0
  -23.5286  -32.1447   23.7555 O   0  0  0  0  0  0
  -33.5816  -22.7286   21.9754 C   0  0  0  0  0  0
  -32.3519  -23.4163   21.8230 C   0  0  0  0  0  0
  -33.4158  -21.4674   21.4820 C   0  0  0  0  0  0
  -31.4555  -22.5753   21.2194 C   0  0  0  0  0  0
  -34.4030  -20.3415   21.4263 C   0  0  0  0  0  0
  -31.6057  -14.7896   22.9860 C   0  0  0  0  0  0
  -29.3929  -18.0292   20.0984 C   0  0  0  0  0  0
  -30.0279  -22.8512   20.8227 C   0  0  0  0  0  0
  -29.8466  -24.3010   20.3627 C   0  0  0  0  0  0
  -28.6184  -24.5479   19.4767 C   0  0  0  0  0  0
  -31.5202  -20.1365   20.4574 C   0  0  0  0  0  0
  -29.4426  -15.7805   22.2703 C   0  0  0  0  0  0
  -30.9327  -19.2748   21.5937 C   0  0  0  0  0  0
  -29.8398  -17.2713   22.4203 C   0  0  0  0  0  0
  -28.6589  -25.9668   18.9089 C   0  0  0  0  0  0
  -32.1048  -21.3549   21.0186 N   0  0  0  0  0  0
  -30.5562  -14.8668   21.9664 N   0  0  0  0  0  0
  -30.3802  -17.9462   21.2032 N   0  3  1  0  0  0
  -31.4625  -12.4226   19.0688 H   0  0  0  0  0  0
  -30.3303  -11.2718   19.7135 H   0  0  0  0  0  0
  -29.7132  -11.8753   17.3648 H   0  0  0  0  0  0
  -29.6442  -13.5649   17.7935 H   0  0  0  0  0  0
  -27.8135  -11.3408   18.7623 H   0  0  0  0  0  0
  -27.3480  -12.7093   17.7869 H   0  0  0  0  0  0
  -27.7370  -14.2600   19.6452 H   0  0  0  0  0  0
  -28.6786  -11.8365   21.2460 H   0  0  0  0  0  0
  -28.4579  -13.4073   21.9157 H   0  0  0  0  0  0
  -25.2747   -9.5684   22.4751 H   0  0  0  0  0  0
  -23.9990   -7.4637   22.7478 H   0  0  0  0  0  0
  -21.0829   -8.8759   19.8957 H   0  0  0  0  0  0
  -22.3683  -10.9657   19.6148 H   0  0  0  0  0  0
  -21.2002   -7.6155   23.9715 H   0  0  0  0  0  0
  -21.1479   -6.0538   25.9081 H   0  0  0  0  0  0
  -22.0588   -2.7612   23.2861 H   0  0  0  0  0  0
  -22.4123  -11.9861   22.4729 H   0  0  0  0  0  0
  -21.1135  -13.1238   22.2576 H   0  0  0  0  0  0
  -24.6609  -15.8335   20.5053 H   0  0  0  0  0  0
  -26.2777  -15.6222   20.0619 H   0  0  0  0  0  0
  -26.7066  -32.5533   23.1169 H   0  0  0  0  0  0
  -25.0226  -33.9821   25.0597 H   0  0  0  0  0  0
  -22.6787  -31.3112   21.4189 H   0  0  0  0  0  0
  -23.3762  -35.9649   23.3289 H   0  0  0  0  0  0
  -24.3630  -36.8874   22.2041 H   0  0  0  0  0  0
  -23.7216  -37.6519   23.6623 H   0  0  0  0  0  0
  -26.0334  -31.6066   20.5865 H   0  0  0  0  0  0
  -26.7965  -30.8946   21.9840 H   0  0  0  0  0  0
  -28.0887  -29.1630   21.1156 H   0  0  0  0  0  0
  -26.0278  -25.9676   19.0531 H   0  0  0  0  0  0
  -23.9514  -27.2613   19.0996 H   0  0  0  0  0  0
  -23.6961  -30.5888   19.4082 H   0  0  0  0  0  0
  -22.7117  -29.2399   19.8917 H   0  0  0  0  0  0
  -25.1283  -36.1962   25.0821 H   0  0  0  0  0  0
  -20.9994  -28.3091   24.1470 H   0  0  0  0  0  0
  -20.5735  -26.2178   23.3504 H   0  0  0  0  0  0
  -21.6674  -26.7425   22.1162 H   0  0  0  0  0  0
  -19.6978  -25.6260   21.1208 H   0  0  0  0  0  0
  -19.6760  -27.3159   20.6704 H   0  0  0  0  0  0
  -17.4248  -26.6636   21.3975 H   0  0  0  0  0  0
  -18.0402  -25.9974   22.8929 H   0  0  0  0  0  0
  -19.7967  -30.7274   24.2176 H   0  0  0  0  0  0
  -17.5029  -31.6228   24.5160 H   0  0  0  0  0  0
  -15.5379  -30.2935   23.7658 H   0  0  0  0  0  0
  -15.8676  -28.0790   22.7008 H   0  0  0  0  0  0
  -24.5875  -30.7038   25.7950 H   0  0  0  0  0  0
  -24.8845  -32.2951   26.4924 H   0  0  0  0  0  0
  -25.8061  -30.9061   27.0335 H   0  0  0  0  0  0
  -26.2742  -29.6957   24.1004 H   0  0  0  0  0  0
  -27.3906  -29.7219   25.4473 H   0  0  0  0  0  0
  -27.8605  -30.4460   23.9239 H   0  0  0  0  0  0
  -27.2615  -33.3675   26.2045 H   0  0  0  0  0  0
  -28.3809  -32.6854   25.0325 H   0  0  0  0  0  0
  -28.0624  -31.8492   26.5422 H   0  0  0  0  0  0
  -28.2591  -38.0128   24.7543 H   0  0  0  0  0  0
  -28.1103  -36.2654   24.6275 H   0  0  0  0  0  0
  -27.2354  -37.1442   25.8887 H   0  0  0  0  0  0
  -20.9243  -29.8660   21.6995 H   0  0  0  0  0  0
  -26.0215  -38.2876   24.1354 H   0  0  0  0  0  0
  -34.4913  -23.1143   22.4152 H   0  0  0  0  0  0
  -32.1475  -24.4385   22.1167 H   0  0  0  0  0  0
  -35.2315  -20.5225   22.1132 H   0  0  0  0  0  0
  -34.8173  -20.2255   20.4240 H   0  0  0  0  0  0
  -33.9529  -19.3952   21.7189 H   0  0  0  0  0  0
  -31.1999  -14.9439   23.9872 H   0  0  0  0  0  0
  -32.3783  -15.5379   22.8054 H   0  0  0  0  0  0
  -32.0785  -13.8048   22.9844 H   0  0  0  0  0  0
  -29.8465  -18.4134   19.1853 H   0  0  0  0  0  0
  -28.5549  -18.6768   20.3603 H   0  0  0  0  0  0
  -28.9974  -17.0476   19.8369 H   0  0  0  0  0  0
  -29.3556  -22.6486   21.6600 H   0  0  0  0  0  0
  -29.7081  -22.1964   20.0158 H   0  0  0  0  0  0
  -30.7211  -24.5860   19.7752 H   0  0  0  0  0  0
  -29.8334  -24.9664   21.2298 H   0  0  0  0  0  0
  -28.6033  -23.8373   18.6503 H   0  0  0  0  0  0
  -27.6990  -24.3900   20.0396 H   0  0  0  0  0  0
  -30.7655  -20.4011   19.7222 H   0  0  0  0  0  0
  -32.2895  -19.5961   19.9017 H   0  0  0  0  0  0
  -28.6353  -15.6773   21.5458 H   0  0  0  0  0  0
  -29.0094  -15.4563   23.2176 H   0  0  0  0  0  0
  -30.1600  -19.8529   22.1031 H   0  0  0  0  0  0
  -31.7128  -19.1039   22.3341 H   0  0  0  0  0  0
  -30.5753  -17.3451   23.2228 H   0  0  0  0  0  0
  -28.9725  -17.8302   22.7806 H   0  0  0  0  0  0
  -27.9565  -26.0961   18.0838 H   0  0  0  0  0  0
  -29.6394  -26.1813   18.4811 H   0  0  0  0  0  0
  -31.1579  -17.3945   20.8684 H   0  0  0  0  0  0
  1 25  1  0  0  0
  1 30  2  0  0  0
  1 87  1  0  0  0
  2  3  1  0  0  0
  2 25  1  0  0  0
  2 89  1  0  0  0
  2 90  1  0  0  0
  3  4  1  0  0  0
  3 91  1  0  0  0
  3 92  1  0  0  0
  4  5  1  0  0  0
  4 93  1  0  0  0
  4 94  1  0  0  0
  5  6  1  0  0  0
  5 26  1  0  0  0
  5 95  1  0  0  0
  6 25  1  0  0  0
  6 96  1  0  0  0
  6 97  1  0  0  0
  7  8  2  0  0  0
  7 26  1  0  0  0
  7 29  1  0  0  0
  8  9  1  0  0  0
  8 22  1  0  0  0
  9 10  1  0  0  0
  9 27  2  0  0  0
 10 11  2  0  0  0
 10 15  1  0  0  0
 11 12  1  0  0  0
 11 98  1  0  0  0
 12 13  2  0  0  0
 12 99  1  0  0  0
 13 14  1  0  0  0
 13 31  1  0  0  0
 14 15  2  0  0  0
 14100  1  0  0  0
 15101  1  0  0  0
 16 17  2  0  0  0
 16 21  1  0  0  0
 16 31  1  0  0  0
 17 18  1  0  0  0
 17102  1  0  0  0
 18 19  2  0  0  0
 18103  1  0  0  0
 19 20  1  0  0  0
 19 24  1  0  0  0
 20 21  2  0  0  0
 20104  1  0  0  0
 21 23  1  0  0  0
 22 28  1  0  0  0
 22 32  2  0  0  0
 26 27  1  0  0  0
 28105  1  0  0  0
 28106  1  0  0  0
 29107  1  0  0  0
 29108  1  0  0  0
 33 34  1  0  0  0
 33 66  1  0  0  0
 33 70  2  0  0  0
 34 36  1  0  0  0
 34 59  1  0  0  0
 34109  1  0  0  0
 35 44  2  0  0  0
 35 45  1  0  0  0
 35 68  1  0  0  0
 36 56  1  0  0  0
 36110  1  0  0  0
 37 39  1  0  0  0
 37 47  1  0  0  0
 37 66  1  0  0  0
 37111  1  0  0  0
 38 43  2  0  0  0
 38 46  1  0  0  0
 38 47  1  0  0  0
 39 64  1  0  0  0
 39 67  2  0  0  0
 40 52  1  0  0  0
 40 53  2  0  0  0
 40 58  1  0  0  0
 41112  1  0  0  0
 41113  1  0  0  0
 41114  1  0  0  0
 41 48  1  0  0  0
 42 43  1  0  0  0
 42 66  1  0  0  0
 42115  1  0  0  0
 42116  1  0  0  0
 43 44  1  0  0  0
 44117  1  0  0  0
 45 46  2  0  0  0
 45118  1  0  0  0
 46119  1  0  0  0
 47120  1  0  0  0
 47121  1  0  0  0
 48 56  1  0  0  0
 48 65  1  0  0  0
 48122  1  0  0  0
 49 50  1  0  0  0
 49 53  1  0  0  0
 49 64  1  0  0  0
 49123  1  0  0  0
 50 51  1  0  0  0
 50124  1  0  0  0
 50125  1  0  0  0
 51 52  1  0  0  0
 51126  1  0  0  0
 51127  1  0  0  0
 52128  1  0  0  0
 52129  1  0  0  0
 53 54  1  0  0  0
 54 55  2  0  0  0
 54130  1  0  0  0
 55 57  1  0  0  0
 55131  1  0  0  0
 56 69  2  0  0  0
 57 58  2  0  0  0
 57132  1  0  0  0
 58133  1  0  0  0
 59 60  1  0  0  0
 59 61  1  0  0  0
 59 62  1  0  0  0
 60134  1  0  0  0
 60135  1  0  0  0
 60136  1  0  0  0
 61137  1  0  0  0
 61138  1  0  0  0
 61139  1  0  0  0
 62140  1  0  0  0
 62141  1  0  0  0
 62142  1  0  0  0
 63 65  1  0  0  0
 63143  1  0  0  0
 63144  1  0  0  0
 63145  1  0  0  0
 64146  1  0  0  0
 65147  1  0  0  0
 68 85  1  0  0  0
 71 72  1  0  0  0
 71 73  2  0  0  0
 71148  1  0  0  0
 72 74  2  0  0  0
 72149  1  0  0  0
 73 75  1  0  0  0
 73 86  1  0  0  0
 74 78  1  0  0  0
 74 86  1  0  0  0
 75150  1  0  0  0
 75151  1  0  0  0
 75152  1  0  0  0
 76 87  1  0  0  0
 76153  1  0  0  0
 76154  1  0  0  0
 76155  1  0  0  0
 77156  1  0  0  0
 77157  1  0  0  0
 77158  1  0  0  0
 77 88  1  0  0  0
 78 79  1  0  0  0
 78159  1  0  0  0
 78160  1  0  0  0
 79 80  1  0  0  0
 79161  1  0  0  0
 79162  1  0  0  0
 80 85  1  0  0  0
 80163  1  0  0  0
 80164  1  0  0  0
 81 83  1  0  0  0
 81 86  1  0  0  0
 81165  1  0  0  0
 81166  1  0  0  0
 82 84  1  0  0  0
 82 87  1  0  0  0
 82167  1  0  0  0
 82168  1  0  0  0
 83 88  1  0  0  0
 83169  1  0  0  0
 83170  1  0  0  0
 84 88  1  0  0  0
 84171  1  0  0  0
 84172  1  0  0  0
 85173  1  0  0  0
 85174  1  0  0  0
 88175  1  0  0  0
M  CHG  1  88   1
M  ISO  4   1 100  68 101  85 101  87 100
M  END
> <chiral flag>
0

> <version>
0

> <s_m_source_file>
/data/baiqing/PycharmProjects/Reinvent-master-3.2/result/LINK_invent/BTK/process_docking_weight1_custom_sum_contain_oxygen_bond_distance_aromatic_linkinvent_7_9_3/rearranged_h_0095.sdf

> <i_m_source_file_index>
29

> <r_mmod_Potential_Energy-OPLS-2005>
-17.9179306030273

> <r_mmod_Stretch_Energy-OPLS-2005>
34.4276504516602

> <r_mmod_Bend_Energy-OPLS-2005>
106.548538208008

> <r_mmod_Torsional_Energy-OPLS-2005>
343.20068359375

> <r_mmod_Improper_Torsional_Energy-OPLS-2005>
7.1281304359436

> <r_mmod_Van_der_Waal_Energy-OPLS-2005>
138.357559204102

> <r_mmod_Electrostatic_Energy-OPLS-2005>
-223.316360473633

> <r_mmod_Solvation_Energy-OPLS-2005>
-434.736572265625

> <b_mmod_Minimization_Converged-OPLS-2005>
0

> <r_mmod_RMS_Derivative-OPLS-2005>
4.76646900177002

$$$$
29
                    3D
 Structure written by MMmdl.
168176  0  0  1  0            999 V2000
  -30.7156  -14.4731   20.6440 C   0  0  0  0  0  0
  -30.4245  -12.3348   19.4191 C   0  0  0  0  0  0
  -29.4962  -12.5338   18.2037 C   0  0  0  0  0  0
  -28.0158  -12.3833   18.6053 C   0  0  0  0  0  0
  -27.6574  -13.2061   19.8691 C   0  0  2  0  0  0
  -28.6934  -12.9805   20.9865 C   0  0  0  0  0  0
  -25.2598  -13.8150   20.5748 C   0  0  0  0  0  0
  -24.1841  -13.0442   20.9231 C   0  0  0  0  0  0
  -24.6382  -11.6897   20.8731 C   0  0  0  0  0  0
  -23.9039  -10.4304   21.0395 C   0  0  0  0  0  0
  -24.3611   -9.4235   21.9176 C   0  0  0  0  0  0
  -23.6318   -8.2250   22.0742 C   0  0  0  0  0  0
  -22.4293   -8.0278   21.3542 C   0  0  0  0  0  0
  -21.9922   -9.0240   20.4641 C   0  0  0  0  0  0
  -22.7216  -10.2136   20.3049 C   0  0  0  0  0  0
  -21.6866   -6.0732   22.5289 C   0  0  0  0  0  0
  -21.3995   -6.5628   23.8216 C   0  0  0  0  0  0
  -21.3686   -5.6787   24.9180 C   0  0  0  0  0  0
  -21.6074   -4.3052   24.7233 C   0  0  0  0  0  0
  -21.8814   -3.8141   23.4352 C   0  0  0  0  0  0
  -21.9205   -4.6958   22.3409 C   0  0  0  0  0  0
  -22.7864  -13.5242   21.1936 C   0  0  0  0  0  0
  -22.1665   -4.2133   21.0984 F   0  0  0  0  0  0
  -21.5675   -3.4543   25.7750 F   0  0  0  0  0  0
  -30.0326  -13.3017   20.4593 N   0  0  0  0  0  0
  -26.2998  -12.9305   20.3329 N   0  0  0  0  0  0
  -25.9288  -11.6461   20.5671 N   0  0  0  0  0  0
  -22.0470  -12.8219   22.0459 N   0  0  0  0  0  0
  -25.4337  -15.1888   20.4242 N   0  0  0  0  0  0
  -31.7601  -14.7315   20.0407 O   0  0  0  0  0  0
  -21.6662   -6.8879   21.4252 O   0  0  0  0  0  0
  -22.3556  -14.5564   20.6821 O   0  0  0  0  0  0
  -24.6163  -31.8682   23.2084 C   0  0  0  0  0  0
  -25.9036  -32.4855   23.8372 C   0  0  1  0  0  0
  -27.2152  -27.3742   20.1028 C   0  0  0  0  0  0
  -25.5885  -33.8653   24.2296 N   0  0  0  0  0  0
  -23.4056  -30.4918   21.5530 C   0  0  2  0  0  0
  -24.8528  -28.9577   20.1111 C   0  0  0  0  0  0
  -22.7416  -29.4662   22.5013 C   0  0  0  0  0  0
  -18.0277  -28.1387   22.8493 C   0  0  0  0  0  0
  -24.1486  -36.7303   23.2638 C   0  0  0  0  0  0
  -25.9411  -30.8186   21.3669 C   0  0  0  0  0  0
  -26.0201  -29.4483   20.7095 C   0  0  0  0  0  0
  -27.2061  -28.6637   20.7006 C   0  0  0  0  0  0
  -26.0260  -26.9267   19.4778 C   0  0  0  0  0  0
  -24.8539  -27.7007   19.4900 C   0  0  0  0  0  0
  -23.6166  -29.8291   20.1655 C   0  0  0  0  0  0
  -25.4139  -36.3152   24.0323 C   0  0  1  0  0  0
  -20.5859  -28.3643   23.1352 C   0  0  2  0  0  0
  -20.6782  -26.9386   22.5432 C   0  0  0  0  0  0
  -19.5761  -26.6379   21.5238 C   0  0  0  0  0  0
  -18.1943  -26.7924   22.1642 C   0  0  0  0  0  0
  -19.1535  -28.8832   23.2907 C   0  0  0  0  0  0
  -18.9461  -30.1449   23.8885 C   0  0  0  0  0  0
  -17.6471  -30.6575   24.0577 C   0  0  0  0  0  0
  -25.9054  -34.9501   23.5100 C   0  0  0  0  0  0
  -16.5356  -29.9085   23.6348 C   0  0  0  0  0  0
  -16.7282  -28.6514   23.0331 C   0  0  0  0  0  0
  -26.4454  -31.6631   25.0692 C   0  0  0  0  0  0
  -25.3705  -31.3695   26.1422 C   0  0  0  0  0  0
  -27.0245  -30.3090   24.6017 C   0  0  0  0  0  0
  -27.6067  -32.4306   25.7448 C   0  0  0  0  0  0
  -27.5601  -37.1848   24.8479 C   0  0  0  0  0  0
  -21.4135  -29.3031   22.3775 N   0  0  0  0  0  0
  -26.4328  -37.3841   23.9402 N   0  0  0  0  0  0
  -24.6740  -31.0706   22.1031 N   0  0  0  0  0  0
  -23.4203  -28.8207   23.3048 O   0  0  0  0  0  0
  -28.3461  -26.5601   20.1508 O   0  0  0  0  0  0
  -26.5613  -34.8941   22.4675 O   0  0  0  0  0  0
  -23.5335  -32.1478   23.7454 O   0  0  0  0  0  0
  -29.9918  -20.4943   21.2059 C   0  0  0  0  0  0
  -29.0619  -21.5176   20.7765 C   0  0  0  0  0  0
  -29.8135  -19.2509   20.6189 C   0  0  0  0  0  0
  -28.1969  -21.0171   19.8278 C   0  0  0  0  0  0
  -25.4656  -21.3411   21.2566 C   0  0  0  0  0  0
  -24.4507  -21.5847   18.9457 C   0  0  0  0  0  0
  -30.2589  -15.2331   22.9079 C   0  0  0  0  0  0
  -28.9475  -22.9115   21.4154 C   0  0  0  0  0  0
  -30.5157  -17.9169   20.8824 C   0  0  0  0  0  0
  -26.9889  -21.6572   19.2155 C   0  0  0  0  0  0
  -29.2898  -24.1945   20.5690 C   0  0  0  0  0  0
  -29.5554  -16.6846   20.9877 C   0  0  0  0  0  0
  -28.0930  -25.1240   20.1721 C   0  0  0  0  0  0
  -25.6578  -21.0824   19.7513 C   0  0  0  0  0  0
  -30.1302  -15.3926   21.4558 N   0  0  0  0  0  0
  -28.5792  -19.3637   19.3997 S   0  0  0  0  0  0
  -31.4656  -12.4538   19.1155 H   0  0  0  0  0  0
  -30.3424  -11.3169   19.8032 H   0  0  0  0  0  0
  -29.7465  -11.8218   17.4167 H   0  0  0  0  0  0
  -29.6626  -13.5249   17.7775 H   0  0  0  0  0  0
  -27.8277  -11.3242   18.7832 H   0  0  0  0  0  0
  -27.3693  -12.6734   17.7761 H   0  0  0  0  0  0
  -27.7028  -14.2571   19.5879 H   0  0  0  0  0  0
  -28.6712  -11.9476   21.3357 H   0  0  0  0  0  0
  -28.4073  -13.5787   21.8492 H   0  0  0  0  0  0
  -25.2741   -9.5747   22.4750 H   0  0  0  0  0  0
  -24.0066   -7.4646   22.7442 H   0  0  0  0  0  0
  -21.0862   -8.8748   19.8930 H   0  0  0  0  0  0
  -22.3665  -10.9687   19.6170 H   0  0  0  0  0  0
  -21.1914   -7.6119   23.9713 H   0  0  0  0  0  0
  -21.1551   -6.0508   25.9100 H   0  0  0  0  0  0
  -22.0569   -2.7599   23.2851 H   0  0  0  0  0  0
  -22.4041  -11.9880   22.4874 H   0  0  0  0  0  0
  -21.1073  -13.1255   22.2596 H   0  0  0  0  0  0
  -24.6735  -15.8477   20.5478 H   0  0  0  0  0  0
  -26.3012  -15.6355   20.1591 H   0  0  0  0  0  0
  -26.7103  -32.5586   23.1131 H   0  0  0  0  0  0
  -25.0060  -33.9832   25.0451 H   0  0  0  0  0  0
  -22.6945  -31.3082   21.4122 H   0  0  0  0  0  0
  -23.3792  -35.9595   23.3333 H   0  0  0  0  0  0
  -24.3563  -36.8889   22.2045 H   0  0  0  0  0  0
  -23.7168  -37.6493   23.6616 H   0  0  0  0  0  0
  -26.0365  -31.5903   20.6027 H   0  0  0  0  0  0
  -26.8347  -30.8862   21.9733 H   0  0  0  0  0  0
  -28.1053  -29.0230   21.1822 H   0  0  0  0  0  0
  -25.9675  -25.9725   18.9761 H   0  0  0  0  0  0
  -23.9593  -27.3215   19.0169 H   0  0  0  0  0  0
  -23.7207  -30.6049   19.4072 H   0  0  0  0  0  0
  -22.7381  -29.2500   19.8716 H   0  0  0  0  0  0
  -25.1327  -36.2044   25.0817 H   0  0  0  0  0  0
  -20.9950  -28.3203   24.1475 H   0  0  0  0  0  0
  -20.5730  -26.2225   23.3597 H   0  0  0  0  0  0
  -21.6658  -26.7467   22.1220 H   0  0  0  0  0  0
  -19.6921  -25.6293   21.1264 H   0  0  0  0  0  0
  -19.6715  -27.3193   20.6769 H   0  0  0  0  0  0
  -17.4214  -26.6670   21.4047 H   0  0  0  0  0  0
  -18.0333  -26.0058   22.9012 H   0  0  0  0  0  0
  -19.7939  -30.7280   24.2242 H   0  0  0  0  0  0
  -17.5027  -31.6264   24.5178 H   0  0  0  0  0  0
  -15.5354  -30.2986   23.7690 H   0  0  0  0  0  0
  -15.8678  -28.0867   22.7016 H   0  0  0  0  0  0
  -24.5924  -30.6991   25.7745 H   0  0  0  0  0  0
  -24.8809  -32.2785   26.4896 H   0  0  0  0  0  0
  -25.8055  -30.8863   27.0165 H   0  0  0  0  0  0
  -26.2732  -29.6933   24.1052 H   0  0  0  0  0  0
  -27.4004  -29.7276   25.4441 H   0  0  0  0  0  0
  -27.8565  -30.4445   23.9114 H   0  0  0  0  0  0
  -27.2764  -33.3632   26.2029 H   0  0  0  0  0  0
  -28.3871  -32.6830   25.0255 H   0  0  0  0  0  0
  -28.0700  -31.8379   26.5349 H   0  0  0  0  0  0
  -28.2679  -38.0107   24.7567 H   0  0  0  0  0  0
  -28.1040  -36.2652   24.6286 H   0  0  0  0  0  0
  -27.2280  -37.1453   25.8870 H   0  0  0  0  0  0
  -20.9249  -29.8784   21.7055 H   0  0  0  0  0  0
  -26.0229  -38.2915   24.1447 H   0  0  0  0  0  0
  -30.7241  -20.6965   21.9776 H   0  0  0  0  0  0
  -24.5575  -20.8603   21.6240 H   0  0  0  0  0  0
  -25.3860  -22.4059   21.4779 H   0  0  0  0  0  0
  -26.2930  -20.9415   21.8441 H   0  0  0  0  0  0
  -23.5350  -21.0879   19.2677 H   0  0  0  0  0  0
  -24.5660  -21.3795   17.8807 H   0  0  0  0  0  0
  -24.3058  -22.6583   19.0662 H   0  0  0  0  0  0
  -31.2874  -15.4171   23.2168 H   0  0  0  0  0  0
  -30.0151  -14.2194   23.2294 H   0  0  0  0  0  0
  -29.6051  -15.9094   23.4593 H   0  0  0  0  0  0
  -29.6023  -22.9328   22.2891 H   0  0  0  0  0  0
  -27.9535  -23.0222   21.8519 H   0  0  0  0  0  0
  -31.0992  -17.9927   21.8012 H   0  0  0  0  0  0
  -31.2475  -17.7321   20.0941 H   0  0  0  0  0  0
  -27.0380  -21.5164   18.1336 H   0  0  0  0  0  0
  -27.0077  -22.7303   19.3803 H   0  0  0  0  0  0
  -29.8969  -23.9408   19.6987 H   0  0  0  0  0  0
  -29.9400  -24.8084   21.1931 H   0  0  0  0  0  0
  -29.0886  -16.5017   20.0184 H   0  0  0  0  0  0
  -28.7309  -16.9476   21.6499 H   0  0  0  0  0  0
  -27.2737  -24.9407   20.8695 H   0  0  0  0  0  0
  -27.7388  -24.8165   19.1870 H   0  0  0  0  0  0
  -25.6850  -20.0015   19.6106 H   0  0  0  0  0  0
  1 25  1  0  0  0
  1 30  2  0  0  0
  1 85  1  0  0  0
  2  3  1  0  0  0
  2 25  1  0  0  0
  2 87  1  0  0  0
  2 88  1  0  0  0
  3  4  1  0  0  0
  3 89  1  0  0  0
  3 90  1  0  0  0
  4  5  1  0  0  0
  4 91  1  0  0  0
  4 92  1  0  0  0
  5  6  1  0  0  0
  5 26  1  0  0  0
  5 93  1  0  0  0
  6 25  1  0  0  0
  6 94  1  0  0  0
  6 95  1  0  0  0
  7  8  2  0  0  0
  7 26  1  0  0  0
  7 29  1  0  0  0
  8  9  1  0  0  0
  8 22  1  0  0  0
  9 10  1  0  0  0
  9 27  2  0  0  0
 10 11  2  0  0  0
 10 15  1  0  0  0
 11 12  1  0  0  0
 11 96  1  0  0  0
 12 13  2  0  0  0
 12 97  1  0  0  0
 13 14  1  0  0  0
 13 31  1  0  0  0
 14 15  2  0  0  0
 14 98  1  0  0  0
 15 99  1  0  0  0
 16 17  2  0  0  0
 16 21  1  0  0  0
 16 31  1  0  0  0
 17 18  1  0  0  0
 17100  1  0  0  0
 18 19  2  0  0  0
 18101  1  0  0  0
 19 20  1  0  0  0
 19 24  1  0  0  0
 20 21  2  0  0  0
 20102  1  0  0  0
 21 23  1  0  0  0
 22 28  1  0  0  0
 22 32  2  0  0  0
 26 27  1  0  0  0
 28103  1  0  0  0
 28104  1  0  0  0
 29105  1  0  0  0
 29106  1  0  0  0
 33 34  1  0  0  0
 33 66  1  0  0  0
 33 70  2  0  0  0
 34 36  1  0  0  0
 34 59  1  0  0  0
 34107  1  0  0  0
 35 44  2  0  0  0
 35 45  1  0  0  0
 35 68  1  0  0  0
 36 56  1  0  0  0
 36108  1  0  0  0
 37 39  1  0  0  0
 37 47  1  0  0  0
 37 66  1  0  0  0
 37109  1  0  0  0
 38 43  2  0  0  0
 38 46  1  0  0  0
 38 47  1  0  0  0
 39 64  1  0  0  0
 39 67  2  0  0  0
 40 52  1  0  0  0
 40 53  2  0  0  0
 40 58  1  0  0  0
 41110  1  0  0  0
 41111  1  0  0  0
 41112  1  0  0  0
 41 48  1  0  0  0
 42 43  1  0  0  0
 42 66  1  0  0  0
 42113  1  0  0  0
 42114  1  0  0  0
 43 44  1  0  0  0
 44115  1  0  0  0
 45 46  2  0  0  0
 45116  1  0  0  0
 46117  1  0  0  0
 47118  1  0  0  0
 47119  1  0  0  0
 48 56  1  0  0  0
 48 65  1  0  0  0
 48120  1  0  0  0
 49 50  1  0  0  0
 49 53  1  0  0  0
 49 64  1  0  0  0
 49121  1  0  0  0
 50 51  1  0  0  0
 50122  1  0  0  0
 50123  1  0  0  0
 51 52  1  0  0  0
 51124  1  0  0  0
 51125  1  0  0  0
 52126  1  0  0  0
 52127  1  0  0  0
 53 54  1  0  0  0
 54 55  2  0  0  0
 54128  1  0  0  0
 55 57  1  0  0  0
 55129  1  0  0  0
 56 69  2  0  0  0
 57 58  2  0  0  0
 57130  1  0  0  0
 58131  1  0  0  0
 59 60  1  0  0  0
 59 61  1  0  0  0
 59 62  1  0  0  0
 60132  1  0  0  0
 60133  1  0  0  0
 60134  1  0  0  0
 61135  1  0  0  0
 61136  1  0  0  0
 61137  1  0  0  0
 62138  1  0  0  0
 62139  1  0  0  0
 62140  1  0  0  0
 63 65  1  0  0  0
 63141  1  0  0  0
 63142  1  0  0  0
 63143  1  0  0  0
 64144  1  0  0  0
 65145  1  0  0  0
 68 83  1  0  0  0
 71 72  1  0  0  0
 71 73  2  0  0  0
 71146  1  0  0  0
 72 74  2  0  0  0
 72 78  1  0  0  0
 73 79  1  0  0  0
 73 86  1  0  0  0
 74 80  1  0  0  0
 74 86  1  0  0  0
 75147  1  0  0  0
 75148  1  0  0  0
 75149  1  0  0  0
 75 84  1  0  0  0
 76 84  1  0  0  0
 76150  1  0  0  0
 76151  1  0  0  0
 76152  1  0  0  0
 77 85  1  0  0  0
 77153  1  0  0  0
 77154  1  0  0  0
 77155  1  0  0  0
 78 81  1  0  0  0
 78156  1  0  0  0
 78157  1  0  0  0
 79 82  1  0  0  0
 79158  1  0  0  0
 79159  1  0  0  0
 80 84  1  0  0  0
 80160  1  0  0  0
 80161  1  0  0  0
 81 83  1  0  0  0
 81162  1  0  0  0
 81163  1  0  0  0
 82 85  1  0  0  0
 82164  1  0  0  0
 82165  1  0  0  0
 83166  1  0  0  0
 83167  1  0  0  0
 84168  1  0  0  0
M  ISO  4   1 100  68 101  83 101  85 100
M  END
> <chiral flag>
0

> <version>
0

> <s_m_source_file>
/data/baiqing/PycharmProjects/Reinvent-master-3.2/result/LINK_invent/BTK/process_docking_weight1_custom_sum_contain_oxygen_bond_distance_aromatic_linkinvent_7_9_3/rearranged_h_0095.sdf

> <i_m_source_file_index>
30

> <r_mmod_Potential_Energy-OPLS-2005>
110.405822753906

> <r_mmod_Stretch_Energy-OPLS-2005>
52.7341804504395

> <r_mmod_Bend_Energy-OPLS-2005>
117.997467041016

> <r_mmod_Torsional_Energy-OPLS-2005>
287.504699707031

> <r_mmod_Improper_Torsional_Energy-OPLS-2005>
3.43017911911011

> <r_mmod_Van_der_Waal_Energy-OPLS-2005>
119.386863708496

> <r_mmod_Electrostatic_Energy-OPLS-2005>
-307.110412597656

> <r_mmod_Solvation_Energy-OPLS-2005>
-183.355651855469

> <b_mmod_Minimization_Converged-OPLS-2005>
0

> <r_mmod_RMS_Derivative-OPLS-2005>
4.19341278076172

$$$$
30
                    3D
 Structure written by MMmdl.
177185  0  0  1  0            999 V2000
  -30.7111  -14.4190   20.6463 C   0  0  0  0  0  0
  -30.4379  -12.3076   19.3874 C   0  0  0  0  0  0
  -29.4888  -12.5118   18.1842 C   0  0  0  0  0  0
  -28.0101  -12.3783   18.5985 C   0  0  0  0  0  0
  -27.6670  -13.1942   19.8764 C   0  0  2  0  0  0
  -28.7109  -12.8891   20.9711 C   0  0  0  0  0  0
  -25.2684  -13.8250   20.5820 C   0  0  0  0  0  0
  -24.1893  -13.0527   20.9330 C   0  0  0  0  0  0
  -24.6394  -11.6969   20.8820 C   0  0  0  0  0  0
  -23.9032  -10.4359   21.0406 C   0  0  0  0  0  0
  -24.3590   -9.4295   21.9205 C   0  0  0  0  0  0
  -23.6280   -8.2343   22.0792 C   0  0  0  0  0  0
  -22.4267   -8.0376   21.3571 C   0  0  0  0  0  0
  -21.9904   -9.0333   20.4651 C   0  0  0  0  0  0
  -22.7261  -10.2191   20.2990 C   0  0  0  0  0  0
  -21.6883   -6.0781   22.5262 C   0  0  0  0  0  0
  -21.4049   -6.5654   23.8229 C   0  0  0  0  0  0
  -21.3650   -5.6748   24.9156 C   0  0  0  0  0  0
  -21.6033   -4.3023   24.7163 C   0  0  0  0  0  0
  -21.8853   -3.8164   23.4275 C   0  0  0  0  0  0
  -21.9218   -4.7013   22.3364 C   0  0  0  0  0  0
  -22.7913  -13.5362   21.1937 C   0  0  0  0  0  0
  -22.1693   -4.2220   21.0939 F   0  0  0  0  0  0
  -21.5620   -3.4506   25.7680 F   0  0  0  0  0  0
  -30.0412  -13.2453   20.4505 N   0  0  0  0  0  0
  -26.3059  -12.9340   20.3395 N   0  0  0  0  0  0
  -25.9290  -11.6514   20.5745 N   0  0  0  0  0  0
  -22.0405  -12.8311   22.0391 N   0  0  0  0  0  0
  -25.4405  -15.1992   20.4184 N   0  0  0  0  0  0
  -31.7833  -14.6663   20.0845 O   0  0  0  0  0  0
  -21.6655   -6.8953   21.4248 O   0  0  0  0  0  0
  -22.3707  -14.5748   20.6868 O   0  0  0  0  0  0
  -24.6074  -31.8697   23.2122 C   0  0  0  0  0  0
  -25.8999  -32.4842   23.8397 C   0  0  1  0  0  0
  -27.2365  -27.4584   20.0840 C   0  0  0  0  0  0
  -25.5879  -33.8657   24.2295 N   0  0  0  0  0  0
  -23.3921  -30.4911   21.5555 C   0  0  2  0  0  0
  -24.8357  -28.9529   20.1221 C   0  0  0  0  0  0
  -22.7368  -29.4626   22.5021 C   0  0  0  0  0  0
  -18.0297  -28.1361   22.8538 C   0  0  0  0  0  0
  -24.1504  -36.7332   23.2617 C   0  0  0  0  0  0
  -25.9172  -30.8372   21.3659 C   0  0  0  0  0  0
  -25.9953  -29.4769   20.7043 C   0  0  0  0  0  0
  -27.1963  -28.7403   20.6745 C   0  0  0  0  0  0
  -26.0483  -26.9284   19.5263 C   0  0  0  0  0  0
  -24.8529  -27.6726   19.5382 C   0  0  0  0  0  0
  -23.6003  -29.8224   20.1724 C   0  0  0  0  0  0
  -25.4134  -36.3106   24.0295 C   0  0  1  0  0  0
  -20.5864  -28.3597   23.1396 C   0  0  2  0  0  0
  -20.6779  -26.9346   22.5455 C   0  0  0  0  0  0
  -19.5745  -26.6369   21.5265 C   0  0  0  0  0  0
  -18.1929  -26.7921   22.1675 C   0  0  0  0  0  0
  -19.1532  -28.8812   23.2962 C   0  0  0  0  0  0
  -18.9448  -30.1463   23.8904 C   0  0  0  0  0  0
  -17.6435  -30.6569   24.0590 C   0  0  0  0  0  0
  -25.9046  -34.9490   23.5094 C   0  0  0  0  0  0
  -16.5338  -29.9057   23.6356 C   0  0  0  0  0  0
  -16.7284  -28.6499   23.0327 C   0  0  0  0  0  0
  -26.4464  -31.6637   25.0746 C   0  0  0  0  0  0
  -25.3778  -31.3765   26.1538 C   0  0  0  0  0  0
  -27.0279  -30.3065   24.6166 C   0  0  0  0  0  0
  -27.6027  -32.4370   25.7530 C   0  0  0  0  0  0
  -27.5591  -37.1818   24.8447 C   0  0  0  0  0  0
  -21.4089  -29.2977   22.3800 N   0  0  0  0  0  0
  -26.4309  -37.3791   23.9383 N   0  0  0  0  0  0
  -24.6572  -31.0791   22.1032 N   0  0  0  0  0  0
  -23.4174  -28.8181   23.3036 O   0  0  0  0  0  0
  -28.4445  -26.7940   20.0750 O   0  0  0  0  0  0
  -26.5596  -34.8913   22.4651 O   0  0  0  0  0  0
  -23.5282  -32.1465   23.7535 O   0  0  0  0  0  0
  -28.5964  -17.4080   20.9627 C   0  0  0  0  0  0
  -28.3490  -15.9238   22.9894 C   0  0  0  0  0  0
  -29.9928  -16.7788   20.7534 C   0  0  0  0  0  0
  -29.7731  -15.4005   22.7142 C   0  0  0  0  0  0
  -28.1179  -17.3552   22.4361 C   0  0  0  0  0  0
  -24.6236  -21.9011   22.4346 C   0  0  0  0  0  0
  -24.5476  -19.1586   20.9627 C   0  0  0  0  0  0
  -25.8642  -17.1674   23.5741 C   0  0  0  0  0  0
  -26.8512  -23.6068   20.6673 C   0  0  0  0  0  0
  -28.0773  -24.5044   20.9277 C   0  0  0  0  0  0
  -26.9207  -22.2678   21.4299 C   0  0  0  0  0  0
  -26.5366  -19.3259   22.5930 C   0  0  0  0  0  0
  -28.4993  -25.4081   19.7443 C   0  0  0  0  0  0
  -25.6170  -21.4397   21.3478 C   0  0  1  0  0  0
  -25.8563  -19.8981   21.3175 C   0  0  2  0  0  0
  -30.0111  -15.4030   21.2686 N   0  0  0  0  0  0
  -26.6974  -17.8381   22.5402 N   0  3  1  0  0  0
  -31.4693  -12.4528   19.0617 H   0  0  0  0  0  0
  -30.3833  -11.2824   19.7553 H   0  0  0  0  0  0
  -29.7169  -11.8037   17.3860 H   0  0  0  0  0  0
  -29.6569  -13.5002   17.7587 H   0  0  0  0  0  0
  -27.8166  -11.3219   18.7811 H   0  0  0  0  0  0
  -27.3577  -12.6622   17.7726 H   0  0  0  0  0  0
  -27.7305  -14.2498   19.6191 H   0  0  0  0  0  0
  -28.6962  -11.8247   21.2073 H   0  0  0  0  0  0
  -28.4438  -13.3564   21.9102 H   0  0  0  0  0  0
  -25.2784   -9.5856   22.4697 H   0  0  0  0  0  0
  -24.0066   -7.4692   22.7415 H   0  0  0  0  0  0
  -21.0905   -8.8845   19.8887 H   0  0  0  0  0  0
  -22.3817  -10.9710   19.6016 H   0  0  0  0  0  0
  -21.2072   -7.6158   23.9844 H   0  0  0  0  0  0
  -21.1409   -6.0379   25.9068 H   0  0  0  0  0  0
  -22.0647   -2.7645   23.2669 H   0  0  0  0  0  0
  -21.1181  -13.1599   22.2818 H   0  0  0  0  0  0
  -22.3714  -11.9760   22.4539 H   0  0  0  0  0  0
  -24.5775  -15.7084   20.2677 H   0  0  0  0  0  0
  -26.1565  -15.4865   19.7645 H   0  0  0  0  0  0
  -26.7046  -32.5541   23.1126 H   0  0  0  0  0  0
  -25.0042  -33.9854   25.0444 H   0  0  0  0  0  0
  -22.6779  -31.3065   21.4205 H   0  0  0  0  0  0
  -23.3749  -35.9683   23.3308 H   0  0  0  0  0  0
  -24.3561  -36.8944   22.2015 H   0  0  0  0  0  0
  -23.7287  -37.6553   23.6649 H   0  0  0  0  0  0
  -26.0370  -31.6173   20.6133 H   0  0  0  0  0  0
  -26.7972  -30.8717   21.9965 H   0  0  0  0  0  0
  -28.0977  -29.1509   21.1054 H   0  0  0  0  0  0
  -26.0181  -25.9444   19.0824 H   0  0  0  0  0  0
  -23.9559  -27.2424   19.1146 H   0  0  0  0  0  0
  -23.7222  -30.6039   19.4223 H   0  0  0  0  0  0
  -22.7212  -29.2524   19.8667 H   0  0  0  0  0  0
  -25.1323  -36.1958   25.0785 H   0  0  0  0  0  0
  -20.9979  -28.3123   24.1502 H   0  0  0  0  0  0
  -20.5739  -26.2153   23.3590 H   0  0  0  0  0  0
  -21.6634  -26.7424   22.1192 H   0  0  0  0  0  0
  -19.6881  -25.6291   21.1255 H   0  0  0  0  0  0
  -19.6707  -27.3225   20.6832 H   0  0  0  0  0  0
  -17.4201  -26.6733   21.4069 H   0  0  0  0  0  0
  -18.0295  -26.0057   22.9053 H   0  0  0  0  0  0
  -19.7905  -30.7352   24.2181 H   0  0  0  0  0  0
  -17.4961  -31.6242   24.5180 H   0  0  0  0  0  0
  -15.5321  -30.2922   23.7683 H   0  0  0  0  0  0
  -15.8704  -28.0852   22.6912 H   0  0  0  0  0  0
  -24.5917  -30.7118   25.7935 H   0  0  0  0  0  0
  -24.9024  -32.2931   26.5049 H   0  0  0  0  0  0
  -25.8199  -30.8930   27.0257 H   0  0  0  0  0  0
  -26.2833  -29.6858   24.1169 H   0  0  0  0  0  0
  -27.3920  -29.7292   25.4667 H   0  0  0  0  0  0
  -27.8730  -30.4350   23.9407 H   0  0  0  0  0  0
  -27.2623  -33.3619   26.2211 H   0  0  0  0  0  0
  -28.3829  -32.7020   25.0383 H   0  0  0  0  0  0
  -28.0725  -31.8453   26.5393 H   0  0  0  0  0  0
  -28.2598  -38.0121   24.7475 H   0  0  0  0  0  0
  -28.1102  -36.2642   24.6327 H   0  0  0  0  0  0
  -27.2288  -37.1514   25.8843 H   0  0  0  0  0  0
  -20.9181  -29.8689   21.7066 H   0  0  0  0  0  0
  -26.0192  -38.2863   24.1420 H   0  0  0  0  0  0
  -27.8816  -16.8858   20.3243 H   0  0  0  0  0  0
  -28.6148  -18.4400   20.6141 H   0  0  0  0  0  0
  -28.1768  -15.8906   24.0640 H   0  0  0  0  0  0
  -27.6326  -15.2461   22.5261 H   0  0  0  0  0  0
  -30.7624  -17.3677   21.2557 H   0  0  0  0  0  0
  -30.2278  -16.7921   19.6870 H   0  0  0  0  0  0
  -29.8961  -14.4026   23.1322 H   0  0  0  0  0  0
  -30.5194  -16.0126   23.2258 H   0  0  0  0  0  0
  -28.7544  -18.0059   23.0375 H   0  0  0  0  0  0
  -24.4221  -22.9696   22.3445 H   0  0  0  0  0  0
  -25.0131  -21.7363   23.4405 H   0  0  0  0  0  0
  -23.6618  -21.3941   22.3616 H   0  0  0  0  0  0
  -24.7237  -18.1182   20.6938 H   0  0  0  0  0  0
  -24.0587  -19.6242   20.1039 H   0  0  0  0  0  0
  -23.8336  -19.1719   21.7869 H   0  0  0  0  0  0
  -25.7392  -16.1012   23.3819 H   0  0  0  0  0  0
  -24.8569  -17.5829   23.5845 H   0  0  0  0  0  0
  -26.2751  -17.2951   24.5745 H   0  0  0  0  0  0
  -26.7648  -23.3820   19.6048 H   0  0  0  0  0  0
  -25.9490  -24.1577   20.9374 H   0  0  0  0  0  0
  -28.9343  -23.8806   21.1876 H   0  0  0  0  0  0
  -27.8867  -25.1115   21.8144 H   0  0  0  0  0  0
  -27.1868  -22.4472   22.4706 H   0  0  0  0  0  0
  -27.7486  -21.6959   21.0116 H   0  0  0  0  0  0
  -25.9421  -19.6012   23.4657 H   0  0  0  0  0  0
  -27.4958  -19.8205   22.7576 H   0  0  0  0  0  0
  -27.9907  -25.1664   18.8110 H   0  0  0  0  0  0
  -29.5503  -25.2084   19.5285 H   0  0  0  0  0  0
  -25.1609  -21.6820   20.3871 H   0  0  0  0  0  0
  -26.5396  -19.7152   20.4858 H   0  0  0  0  0  0
  -26.2597  -17.5548   21.6748 H   0  0  0  0  0  0
  1 25  1  0  0  0
  1 30  2  0  0  0
  1 86  1  0  0  0
  2  3  1  0  0  0
  2 25  1  0  0  0
  2 88  1  0  0  0
  2 89  1  0  0  0
  3  4  1  0  0  0
  3 90  1  0  0  0
  3 91  1  0  0  0
  4  5  1  0  0  0
  4 92  1  0  0  0
  4 93  1  0  0  0
  5  6  1  0  0  0
  5 26  1  0  0  0
  5 94  1  0  0  0
  6 25  1  0  0  0
  6 95  1  0  0  0
  6 96  1  0  0  0
  7  8  2  0  0  0
  7 26  1  0  0  0
  7 29  1  0  0  0
  8  9  1  0  0  0
  8 22  1  0  0  0
  9 10  1  0  0  0
  9 27  2  0  0  0
 10 11  2  0  0  0
 10 15  1  0  0  0
 11 12  1  0  0  0
 11 97  1  0  0  0
 12 13  2  0  0  0
 12 98  1  0  0  0
 13 14  1  0  0  0
 13 31  1  0  0  0
 14 15  2  0  0  0
 14 99  1  0  0  0
 15100  1  0  0  0
 16 17  2  0  0  0
 16 21  1  0  0  0
 16 31  1  0  0  0
 17 18  1  0  0  0
 17101  1  0  0  0
 18 19  2  0  0  0
 18102  1  0  0  0
 19 20  1  0  0  0
 19 24  1  0  0  0
 20 21  2  0  0  0
 20103  1  0  0  0
 21 23  1  0  0  0
 22 28  1  0  0  0
 22 32  2  0  0  0
 26 27  1  0  0  0
 28104  1  0  0  0
 28105  1  0  0  0
 29106  1  0  0  0
 29107  1  0  0  0
 33 34  1  0  0  0
 33 66  1  0  0  0
 33 70  2  0  0  0
 34 36  1  0  0  0
 34 59  1  0  0  0
 34108  1  0  0  0
 35 44  2  0  0  0
 35 45  1  0  0  0
 35 68  1  0  0  0
 36 56  1  0  0  0
 36109  1  0  0  0
 37 39  1  0  0  0
 37 47  1  0  0  0
 37 66  1  0  0  0
 37110  1  0  0  0
 38 43  2  0  0  0
 38 46  1  0  0  0
 38 47  1  0  0  0
 39 64  1  0  0  0
 39 67  2  0  0  0
 40 52  1  0  0  0
 40 53  2  0  0  0
 40 58  1  0  0  0
 41111  1  0  0  0
 41112  1  0  0  0
 41113  1  0  0  0
 41 48  1  0  0  0
 42 43  1  0  0  0
 42 66  1  0  0  0
 42114  1  0  0  0
 42115  1  0  0  0
 43 44  1  0  0  0
 44116  1  0  0  0
 45 46  2  0  0  0
 45117  1  0  0  0
 46118  1  0  0  0
 47119  1  0  0  0
 47120  1  0  0  0
 48 56  1  0  0  0
 48 65  1  0  0  0
 48121  1  0  0  0
 49 50  1  0  0  0
 49 53  1  0  0  0
 49 64  1  0  0  0
 49122  1  0  0  0
 50 51  1  0  0  0
 50123  1  0  0  0
 50124  1  0  0  0
 51 52  1  0  0  0
 51125  1  0  0  0
 51126  1  0  0  0
 52127  1  0  0  0
 52128  1  0  0  0
 53 54  1  0  0  0
 54 55  2  0  0  0
 54129  1  0  0  0
 55 57  1  0  0  0
 55130  1  0  0  0
 56 69  2  0  0  0
 57 58  2  0  0  0
 57131  1  0  0  0
 58132  1  0  0  0
 59 60  1  0  0  0
 59 61  1  0  0  0
 59 62  1  0  0  0
 60133  1  0  0  0
 60134  1  0  0  0
 60135  1  0  0  0
 61136  1  0  0  0
 61137  1  0  0  0
 61138  1  0  0  0
 62139  1  0  0  0
 62140  1  0  0  0
 62141  1  0  0  0
 63 65  1  0  0  0
 63142  1  0  0  0
 63143  1  0  0  0
 63144  1  0  0  0
 64145  1  0  0  0
 65146  1  0  0  0
 68 83  1  0  0  0
 71 73  1  0  0  0
 71147  1  0  0  0
 71148  1  0  0  0
 71 75  1  0  0  0
 72 74  1  0  0  0
 72 75  1  0  0  0
 72149  1  0  0  0
 72150  1  0  0  0
 73 86  1  0  0  0
 73151  1  0  0  0
 73152  1  0  0  0
 74 86  1  0  0  0
 74153  1  0  0  0
 74154  1  0  0  0
 75 87  1  0  0  0
 75155  1  0  0  0
 76156  1  0  0  0
 76157  1  0  0  0
 76158  1  0  0  0
 76 84  1  0  0  0
 77159  1  0  0  0
 77160  1  0  0  0
 77161  1  0  0  0
 77 85  1  0  0  0
 78162  1  0  0  0
 78163  1  0  0  0
 78164  1  0  0  0
 78 87  1  0  0  0
 79 80  1  0  0  0
 79 81  1  0  0  0
 79165  1  0  0  0
 79166  1  0  0  0
 80 83  1  0  0  0
 80167  1  0  0  0
 80168  1  0  0  0
 81 84  1  0  0  0
 81169  1  0  0  0
 81170  1  0  0  0
 82 85  1  0  0  0
 82 87  1  0  0  0
 82171  1  0  0  0
 82172  1  0  0  0
 83173  1  0  0  0
 83174  1  0  0  0
 84 85  1  0  0  0
 84175  1  0  0  0
 85176  1  0  0  0
 87177  1  0  0  0
M  CHG  1  87   1
M  ISO  4   1 100  68 101  83 101  86 100
M  END
> <chiral flag>
0

> <version>
0

> <s_m_source_file>
/data/baiqing/PycharmProjects/Reinvent-master-3.2/result/LINK_invent/BTK/process_docking_weight1_custom_sum_contain_oxygen_bond_distance_aromatic_linkinvent_7_9_3/rearranged_h_0095.sdf

> <i_m_source_file_index>
31

> <r_mmod_Potential_Energy-OPLS-2005>
124.400978088379

> <r_mmod_Stretch_Energy-OPLS-2005>
40.6976890563965

> <r_mmod_Bend_Energy-OPLS-2005>
116.676414489746

> <r_mmod_Torsional_Energy-OPLS-2005>
366.747589111328

> <r_mmod_Improper_Torsional_Energy-OPLS-2005>
12.9126319885254

> <r_mmod_Van_der_Waal_Energy-OPLS-2005>
137.824035644531

> <r_mmod_Electrostatic_Energy-OPLS-2005>
-160.487945556641

> <r_mmod_Solvation_Energy-OPLS-2005>
-400.203582763672

> <b_mmod_Minimization_Converged-OPLS-2005>
0

> <r_mmod_RMS_Derivative-OPLS-2005>
5.29284811019897

$$$$
31
                    3D
 Structure written by MMmdl.
178187  0  0  1  0            999 V2000
  -30.6624  -14.5132   20.5472 C   0  0  0  0  0  0
  -30.4363  -12.3225   19.4407 C   0  0  0  0  0  0
  -29.5118  -12.5273   18.2190 C   0  0  0  0  0  0
  -28.0252  -12.4001   18.6150 C   0  0  0  0  0  0
  -27.6690  -13.2157   19.8876 C   0  0  2  0  0  0
  -28.7103  -12.9813   21.0089 C   0  0  0  0  0  0
  -25.2604  -13.8167   20.5729 C   0  0  0  0  0  0
  -24.1861  -13.0425   20.9186 C   0  0  0  0  0  0
  -24.6424  -11.6899   20.8713 C   0  0  0  0  0  0
  -23.9062  -10.4294   21.0386 C   0  0  0  0  0  0
  -24.3620   -9.4200   21.9149 C   0  0  0  0  0  0
  -23.6304   -8.2227   22.0708 C   0  0  0  0  0  0
  -22.4278   -8.0280   21.3518 C   0  0  0  0  0  0
  -21.9917   -9.0246   20.4611 C   0  0  0  0  0  0
  -22.7235  -10.2134   20.3021 C   0  0  0  0  0  0
  -21.6856   -6.0744   22.5281 C   0  0  0  0  0  0
  -21.4011   -6.5617   23.8214 C   0  0  0  0  0  0
  -21.3659   -5.6771   24.9170 C   0  0  0  0  0  0
  -21.6054   -4.3039   24.7202 C   0  0  0  0  0  0
  -21.8808   -3.8132   23.4325 C   0  0  0  0  0  0
  -21.9197   -4.6966   22.3394 C   0  0  0  0  0  0
  -22.7874  -13.5225   21.1837 C   0  0  0  0  0  0
  -22.1676   -4.2149   21.0970 F   0  0  0  0  0  0
  -21.5632   -3.4516   25.7722 F   0  0  0  0  0  0
  -30.0419  -13.3026   20.4656 N   0  0  0  0  0  0
  -26.3078  -12.9363   20.3418 N   0  0  0  0  0  0
  -25.9361  -11.6504   20.5748 N   0  0  0  0  0  0
  -22.0533  -12.8223   22.0415 N   0  0  0  0  0  0
  -25.4286  -15.1901   20.4194 N   0  0  0  0  0  0
  -31.7823  -14.7266   20.0695 O   0  0  0  0  0  0
  -21.6630   -6.8891   21.4239 O   0  0  0  0  0  0
  -22.3548  -14.5517   20.6664 O   0  0  0  0  0  0
  -24.6206  -31.8660   23.2057 C   0  0  0  0  0  0
  -25.9097  -32.4800   23.8345 C   0  0  1  0  0  0
  -27.2228  -27.3700   20.0995 C   0  0  0  0  0  0
  -25.5949  -33.8591   24.2292 N   0  0  0  0  0  0
  -23.4083  -30.4962   21.5454 C   0  0  2  0  0  0
  -24.8497  -28.9569   20.1108 C   0  0  0  0  0  0
  -22.7424  -29.4695   22.4916 C   0  0  0  0  0  0
  -18.0294  -28.1384   22.8480 C   0  0  0  0  0  0
  -24.1499  -36.7303   23.2632 C   0  0  0  0  0  0
  -25.9434  -30.8144   21.3643 C   0  0  0  0  0  0
  -26.0150  -29.4429   20.7143 C   0  0  0  0  0  0
  -27.1973  -28.6553   20.7092 C   0  0  0  0  0  0
  -26.0271  -26.9258   19.4773 C   0  0  0  0  0  0
  -24.8543  -27.7014   19.4910 C   0  0  0  0  0  0
  -23.6163  -29.8311   20.1607 C   0  0  0  0  0  0
  -25.4113  -36.3085   24.0331 C   0  0  1  0  0  0
  -20.5888  -28.3691   23.1282 C   0  0  2  0  0  0
  -20.6785  -26.9409   22.5413 C   0  0  0  0  0  0
  -19.5768  -26.6373   21.5211 C   0  0  0  0  0  0
  -18.1949  -26.7933   22.1622 C   0  0  0  0  0  0
  -19.1546  -28.8850   23.2890 C   0  0  0  0  0  0
  -18.9467  -30.1454   23.8896 C   0  0  0  0  0  0
  -17.6474  -30.6585   24.0563 C   0  0  0  0  0  0
  -25.9057  -34.9459   23.5105 C   0  0  0  0  0  0
  -16.5364  -29.9087   23.6327 C   0  0  0  0  0  0
  -16.7284  -28.6512   23.0331 C   0  0  0  0  0  0
  -26.4500  -31.6578   25.0679 C   0  0  0  0  0  0
  -25.3744  -31.3704   26.1416 C   0  0  0  0  0  0
  -27.0335  -30.3014   24.6073 C   0  0  0  0  0  0
  -27.6072  -32.4281   25.7467 C   0  0  0  0  0  0
  -27.5588  -37.1794   24.8446 C   0  0  0  0  0  0
  -21.4141  -29.3061   22.3656 N   0  0  0  0  0  0
  -26.4283  -37.3783   23.9413 N   0  0  0  0  0  0
  -24.6771  -31.0728   22.0970 N   0  0  0  0  0  0
  -23.4190  -28.8208   23.2943 O   0  0  0  0  0  0
  -28.3950  -26.6115   20.1516 O   0  0  0  0  0  0
  -26.5599  -34.8929   22.4654 O   0  0  0  0  0  0
  -23.5395  -32.1439   23.7434 O   0  0  0  0  0  0
  -26.5169  -19.8623   23.5682 C   0  0  0  0  0  0
  -26.9777  -21.7499   22.1163 C   0  0  0  0  0  0
  -29.9657  -20.4241   20.5164 C   0  0  0  0  0  0
  -28.4778  -19.7713   22.0699 C   0  0  0  0  0  0
  -26.1732  -21.1408   23.0939 C   0  0  0  0  0  0
  -27.6360  -19.1713   23.0548 C   0  0  0  0  0  0
  -29.6473  -19.3531   21.3259 C   0  0  0  0  0  0
  -28.1265  -21.0951   21.6341 C   0  0  0  0  0  0
  -27.8946  -17.7647   23.5679 C   0  0  0  0  0  0
  -21.1518  -21.1179   22.7595 C   0  0  0  0  0  0
  -22.0641  -22.0120   24.9387 C   0  0  0  0  0  0
  -24.9209  -21.8374   23.5974 C   0  0  0  0  0  0
  -30.3755  -18.0121   21.4178 C   0  0  0  0  0  0
  -23.6481  -21.1146   23.1249 C   0  0  0  0  0  0
  -28.9777  -24.1370   20.5978 C   0  0  0  0  0  0
  -29.0508  -22.7339   19.8862 C   0  0  0  0  0  0
  -29.8369  -16.9068   20.4610 C   0  0  0  0  0  0
  -28.4658  -25.2518   19.6259 C   0  0  0  0  0  0
  -22.3257  -21.8470   23.4314 C   0  0  0  0  0  0
  -29.0740  -21.4923   20.6961 N   0  0  0  0  0  0
  -29.8807  -15.5225   20.9861 N   0  0  0  0  0  0
  -31.4823  -12.4305   19.1490 H   0  0  0  0  0  0
  -30.3419  -11.3074   19.8279 H   0  0  0  0  0  0
  -29.7574  -11.8100   17.4349 H   0  0  0  0  0  0
  -29.6891  -13.5152   17.7908 H   0  0  0  0  0  0
  -27.8102  -11.3459   18.7824 H   0  0  0  0  0  0
  -27.3910  -12.7158   17.7852 H   0  0  0  0  0  0
  -27.7122  -14.2677   19.6046 H   0  0  0  0  0  0
  -28.6906  -11.9400   21.3378 H   0  0  0  0  0  0
  -28.4765  -13.5682   21.8979 H   0  0  0  0  0  0
  -25.2785   -9.5684   22.4682 H   0  0  0  0  0  0
  -24.0023   -7.4636   22.7422 H   0  0  0  0  0  0
  -21.0847   -8.8773   19.8935 H   0  0  0  0  0  0
  -22.3708  -10.9659   19.6115 H   0  0  0  0  0  0
  -21.1994   -7.6136   23.9724 H   0  0  0  0  0  0
  -21.1496   -6.0491   25.9083 H   0  0  0  0  0  0
  -22.0591   -2.7590   23.2806 H   0  0  0  0  0  0
  -22.4167  -11.9922   22.4865 H   0  0  0  0  0  0
  -21.1125  -13.1203   22.2550 H   0  0  0  0  0  0
  -24.6501  -15.8330   20.5141 H   0  0  0  0  0  0
  -26.2736  -15.6361   20.0868 H   0  0  0  0  0  0
  -26.7141  -32.5494   23.1082 H   0  0  0  0  0  0
  -25.0108  -33.9724   25.0444 H   0  0  0  0  0  0
  -22.7008  -31.3171   21.4064 H   0  0  0  0  0  0
  -23.3766  -35.9630   23.3260 H   0  0  0  0  0  0
  -24.3601  -36.8952   22.2051 H   0  0  0  0  0  0
  -23.7252  -37.6496   23.6669 H   0  0  0  0  0  0
  -26.0568  -31.5741   20.5897 H   0  0  0  0  0  0
  -26.8334  -30.8717   21.9794 H   0  0  0  0  0  0
  -28.0910  -29.0246   21.1920 H   0  0  0  0  0  0
  -25.9326  -25.9838   18.9653 H   0  0  0  0  0  0
  -23.9564  -27.3265   19.0183 H   0  0  0  0  0  0
  -23.7235  -30.6049   19.3991 H   0  0  0  0  0  0
  -22.7371  -29.2553   19.8649 H   0  0  0  0  0  0
  -25.1288  -36.1923   25.0822 H   0  0  0  0  0  0
  -21.0018  -28.3288   24.1389 H   0  0  0  0  0  0
  -20.5678  -26.2299   23.3611 H   0  0  0  0  0  0
  -21.6663  -26.7430   22.1226 H   0  0  0  0  0  0
  -19.6932  -25.6277   21.1255 H   0  0  0  0  0  0
  -19.6722  -27.3168   20.6727 H   0  0  0  0  0  0
  -17.4217  -26.6676   21.4020 H   0  0  0  0  0  0
  -18.0353  -26.0079   22.9021 H   0  0  0  0  0  0
  -19.7947  -30.7269   24.2269 H   0  0  0  0  0  0
  -17.5030  -31.6264   24.5170 H   0  0  0  0  0  0
  -15.5366  -30.2989   23.7643 H   0  0  0  0  0  0
  -15.8695  -28.0838   22.7024 H   0  0  0  0  0  0
  -24.5938  -30.7031   25.7737 H   0  0  0  0  0  0
  -24.8922  -32.2872   26.4811 H   0  0  0  0  0  0
  -25.8088  -30.8901   27.0195 H   0  0  0  0  0  0
  -26.2884  -29.6763   24.1145 H   0  0  0  0  0  0
  -27.4115  -29.7258   25.4529 H   0  0  0  0  0  0
  -27.8709  -30.4308   23.9219 H   0  0  0  0  0  0
  -27.2707  -33.3585   26.2048 H   0  0  0  0  0  0
  -28.3917  -32.6823   25.0328 H   0  0  0  0  0  0
  -28.0709  -31.8393   26.5392 H   0  0  0  0  0  0
  -28.2558  -38.0141   24.7562 H   0  0  0  0  0  0
  -28.1143  -36.2673   24.6184 H   0  0  0  0  0  0
  -27.2320  -37.1336   25.8852 H   0  0  0  0  0  0
  -20.9284  -29.8787   21.6893 H   0  0  0  0  0  0
  -26.0167  -38.2850   24.1446 H   0  0  0  0  0  0
  -25.8906  -19.3914   24.3167 H   0  0  0  0  0  0
  -26.7041  -22.7151   21.7182 H   0  0  0  0  0  0
  -30.7630  -20.4949   19.7864 H   0  0  0  0  0  0
  -27.0115  -17.3518   24.0550 H   0  0  0  0  0  0
  -28.7094  -17.7554   24.2937 H   0  0  0  0  0  0
  -28.1369  -17.0907   22.7478 H   0  0  0  0  0  0
  -20.2183  -21.6676   22.8854 H   0  0  0  0  0  0
  -21.0122  -20.1203   23.1798 H   0  0  0  0  0  0
  -21.3200  -21.0031   21.6881 H   0  0  0  0  0  0
  -21.1147  -22.5190   25.1175 H   0  0  0  0  0  0
  -22.8375  -22.6083   25.4223 H   0  0  0  0  0  0
  -22.0220  -21.0470   25.4450 H   0  0  0  0  0  0
  -24.9101  -22.8692   23.2423 H   0  0  0  0  0  0
  -24.9589  -21.8860   24.6862 H   0  0  0  0  0  0
  -30.3407  -17.6503   22.4429 H   0  0  0  0  0  0
  -31.4394  -18.1514   21.2216 H   0  0  0  0  0  0
  -23.6200  -20.1060   23.5395 H   0  0  0  0  0  0
  -23.7238  -20.9926   22.0427 H   0  0  0  0  0  0
  -29.9582  -24.4028   20.9956 H   0  0  0  0  0  0
  -28.3137  -24.1168   21.4582 H   0  0  0  0  0  0
  -29.9185  -22.7285   19.2248 H   0  0  0  0  0  0
  -28.1849  -22.6373   19.2309 H   0  0  0  0  0  0
  -30.3257  -16.9754   19.4869 H   0  0  0  0  0  0
  -28.7833  -17.1063   20.2586 H   0  0  0  0  0  0
  -27.5262  -24.8716   19.2462 H   0  0  0  0  0  0
  -29.1186  -25.2868   18.7532 H   0  0  0  0  0  0
  -22.3814  -22.8442   22.9934 H   0  0  0  0  0  0
  -29.0408  -15.2164   21.4542 H   0  0  0  0  0  0
  1 25  1  0  0  0
  1 30  2  0  0  0
  1 91  1  0  0  0
  2  3  1  0  0  0
  2 25  1  0  0  0
  2 92  1  0  0  0
  2 93  1  0  0  0
  3  4  1  0  0  0
  3 94  1  0  0  0
  3 95  1  0  0  0
  4  5  1  0  0  0
  4 96  1  0  0  0
  4 97  1  0  0  0
  5  6  1  0  0  0
  5 26  1  0  0  0
  5 98  1  0  0  0
  6 25  1  0  0  0
  6 99  1  0  0  0
  6100  1  0  0  0
  7  8  2  0  0  0
  7 26  1  0  0  0
  7 29  1  0  0  0
  8  9  1  0  0  0
  8 22  1  0  0  0
  9 10  1  0  0  0
  9 27  2  0  0  0
 10 11  2  0  0  0
 10 15  1  0  0  0
 11 12  1  0  0  0
 11101  1  0  0  0
 12 13  2  0  0  0
 12102  1  0  0  0
 13 14  1  0  0  0
 13 31  1  0  0  0
 14 15  2  0  0  0
 14103  1  0  0  0
 15104  1  0  0  0
 16 17  2  0  0  0
 16 21  1  0  0  0
 16 31  1  0  0  0
 17 18  1  0  0  0
 17105  1  0  0  0
 18 19  2  0  0  0
 18106  1  0  0  0
 19 20  1  0  0  0
 19 24  1  0  0  0
 20 21  2  0  0  0
 20107  1  0  0  0
 21 23  1  0  0  0
 22 28  1  0  0  0
 22 32  2  0  0  0
 26 27  1  0  0  0
 28108  1  0  0  0
 28109  1  0  0  0
 29110  1  0  0  0
 29111  1  0  0  0
 33 34  1  0  0  0
 33 66  1  0  0  0
 33 70  2  0  0  0
 34 36  1  0  0  0
 34 59  1  0  0  0
 34112  1  0  0  0
 35 44  2  0  0  0
 35 45  1  0  0  0
 35 68  1  0  0  0
 36 56  1  0  0  0
 36113  1  0  0  0
 37 39  1  0  0  0
 37 47  1  0  0  0
 37 66  1  0  0  0
 37114  1  0  0  0
 38 43  2  0  0  0
 38 46  1  0  0  0
 38 47  1  0  0  0
 39 64  1  0  0  0
 39 67  2  0  0  0
 40 52  1  0  0  0
 40 53  2  0  0  0
 40 58  1  0  0  0
 41115  1  0  0  0
 41116  1  0  0  0
 41117  1  0  0  0
 41 48  1  0  0  0
 42 43  1  0  0  0
 42 66  1  0  0  0
 42118  1  0  0  0
 42119  1  0  0  0
 43 44  1  0  0  0
 44120  1  0  0  0
 45 46  2  0  0  0
 45121  1  0  0  0
 46122  1  0  0  0
 47123  1  0  0  0
 47124  1  0  0  0
 48 56  1  0  0  0
 48 65  1  0  0  0
 48125  1  0  0  0
 49 50  1  0  0  0
 49 53  1  0  0  0
 49 64  1  0  0  0
 49126  1  0  0  0
 50 51  1  0  0  0
 50127  1  0  0  0
 50128  1  0  0  0
 51 52  1  0  0  0
 51129  1  0  0  0
 51130  1  0  0  0
 52131  1  0  0  0
 52132  1  0  0  0
 53 54  1  0  0  0
 54 55  2  0  0  0
 54133  1  0  0  0
 55 57  1  0  0  0
 55134  1  0  0  0
 56 69  2  0  0  0
 57 58  2  0  0  0
 57135  1  0  0  0
 58136  1  0  0  0
 59 60  1  0  0  0
 59 61  1  0  0  0
 59 62  1  0  0  0
 60137  1  0  0  0
 60138  1  0  0  0
 60139  1  0  0  0
 61140  1  0  0  0
 61141  1  0  0  0
 61142  1  0  0  0
 62143  1  0  0  0
 62144  1  0  0  0
 62145  1  0  0  0
 63 65  1  0  0  0
 63146  1  0  0  0
 63147  1  0  0  0
 63148  1  0  0  0
 64149  1  0  0  0
 65150  1  0  0  0
 68 88  1  0  0  0
 71 75  2  0  0  0
 71 76  1  0  0  0
 71151  1  0  0  0
 72 75  1  0  0  0
 72 78  2  0  0  0
 72152  1  0  0  0
 73 77  2  0  0  0
 73 90  1  0  0  0
 73153  1  0  0  0
 74 76  2  0  0  0
 74 77  1  0  0  0
 74 78  1  0  0  0
 75 82  1  0  0  0
 76 79  1  0  0  0
 77 83  1  0  0  0
 78 90  1  0  0  0
 79154  1  0  0  0
 79155  1  0  0  0
 79156  1  0  0  0
 80157  1  0  0  0
 80158  1  0  0  0
 80159  1  0  0  0
 80 89  1  0  0  0
 81 89  1  0  0  0
 81160  1  0  0  0
 81161  1  0  0  0
 81162  1  0  0  0
 82 84  1  0  0  0
 82163  1  0  0  0
 82164  1  0  0  0
 83 87  1  0  0  0
 83165  1  0  0  0
 83166  1  0  0  0
 84 89  1  0  0  0
 84167  1  0  0  0
 84168  1  0  0  0
 85 86  1  0  0  0
 85 88  1  0  0  0
 85169  1  0  0  0
 85170  1  0  0  0
 86 90  1  0  0  0
 86171  1  0  0  0
 86172  1  0  0  0
 87 91  1  0  0  0
 87173  1  0  0  0
 87174  1  0  0  0
 88175  1  0  0  0
 88176  1  0  0  0
 89177  1  0  0  0
 91178  1  0  0  0
M  ISO  4   1 100  68 101  88 101  91 100
M  END
> <chiral flag>
0

> <version>
0

> <s_m_source_file>
/data/baiqing/PycharmProjects/Reinvent-master-3.2/result/LINK_invent/BTK/process_docking_weight1_custom_sum_contain_oxygen_bond_distance_aromatic_linkinvent_7_9_3/rearranged_h_0095.sdf

> <i_m_source_file_index>
32

> <r_mmod_Potential_Energy-OPLS-2005>
14.3105449676514

> <r_mmod_Stretch_Energy-OPLS-2005>
51.9042282104492

> <r_mmod_Bend_Energy-OPLS-2005>
128.192199707031

> <r_mmod_Torsional_Energy-OPLS-2005>
233.093643188477

> <r_mmod_Improper_Torsional_Energy-OPLS-2005>
7.67971992492676

> <r_mmod_Van_der_Waal_Energy-OPLS-2005>
138.582427978516

> <r_mmod_Electrostatic_Energy-OPLS-2005>
-361.026092529297

> <r_mmod_Solvation_Energy-OPLS-2005>
-205.610366821289

> <b_mmod_Minimization_Converged-OPLS-2005>
0

> <r_mmod_RMS_Derivative-OPLS-2005>
3.65636992454529

$$$$
32
                    3D
 Structure written by MMmdl.
177185  0  0  1  0            999 V2000
  -30.7155  -14.4061   20.5597 C   0  0  0  0  0  0
  -30.4133  -12.2584   19.4164 C   0  0  0  0  0  0
  -29.4954  -12.5055   18.2022 C   0  0  0  0  0  0
  -28.0112  -12.3869   18.6031 C   0  0  0  0  0  0
  -27.6655  -13.2036   19.8785 C   0  0  2  0  0  0
  -28.7046  -12.9564   20.9967 C   0  0  0  0  0  0
  -25.2612  -13.8156   20.5672 C   0  0  0  0  0  0
  -24.1861  -13.0439   20.9176 C   0  0  0  0  0  0
  -24.6397  -11.6906   20.8722 C   0  0  0  0  0  0
  -23.9063  -10.4292   21.0398 C   0  0  0  0  0  0
  -24.3623   -9.4208   21.9171 C   0  0  0  0  0  0
  -23.6300   -8.2246   22.0745 C   0  0  0  0  0  0
  -22.4282   -8.0273   21.3545 C   0  0  0  0  0  0
  -21.9917   -9.0244   20.4650 C   0  0  0  0  0  0
  -22.7240  -10.2120   20.3046 C   0  0  0  0  0  0
  -21.6858   -6.0740   22.5282 C   0  0  0  0  0  0
  -21.4022   -6.5643   23.8217 C   0  0  0  0  0  0
  -21.3667   -5.6790   24.9176 C   0  0  0  0  0  0
  -21.6044   -4.3049   24.7234 C   0  0  0  0  0  0
  -21.8824   -3.8149   23.4353 C   0  0  0  0  0  0
  -21.9199   -4.6970   22.3407 C   0  0  0  0  0  0
  -22.7886  -13.5237   21.1841 C   0  0  0  0  0  0
  -22.1661   -4.2152   21.0988 F   0  0  0  0  0  0
  -21.5624   -3.4529   25.7747 F   0  0  0  0  0  0
  -30.0436  -13.2338   20.4497 N   0  0  0  0  0  0
  -26.3046  -12.9316   20.3366 N   0  0  0  0  0  0
  -25.9319  -11.6480   20.5761 N   0  0  0  0  0  0
  -22.0522  -12.8227   22.0397 N   0  0  0  0  0  0
  -25.4313  -15.1879   20.4083 N   0  0  0  0  0  0
  -31.8484  -14.5886   20.1018 O   0  0  0  0  0  0
  -21.6644   -6.8871   21.4241 O   0  0  0  0  0  0
  -22.3576  -14.5543   20.6679 O   0  0  0  0  0  0
  -24.6129  -31.8681   23.2138 C   0  0  0  0  0  0
  -25.9055  -32.4803   23.8414 C   0  0  1  0  0  0
  -27.2371  -27.4783   20.0828 C   0  0  0  0  0  0
  -25.5914  -33.8606   24.2347 N   0  0  0  0  0  0
  -23.3972  -30.4956   21.5528 C   0  0  2  0  0  0
  -24.8392  -28.9652   20.1144 C   0  0  0  0  0  0
  -22.7406  -29.4677   22.5018 C   0  0  0  0  0  0
  -18.0277  -28.1328   22.8551 C   0  0  0  0  0  0
  -24.1486  -36.7311   23.2637 C   0  0  0  0  0  0
  -25.9225  -30.8513   21.3556 C   0  0  0  0  0  0
  -25.9986  -29.4924   20.6953 C   0  0  0  0  0  0
  -27.2014  -28.7624   20.6627 C   0  0  0  0  0  0
  -26.0608  -26.9511   19.5018 C   0  0  0  0  0  0
  -24.8638  -27.6934   19.5141 C   0  0  0  0  0  0
  -23.5988  -29.8260   20.1674 C   0  0  0  0  0  0
  -25.4105  -36.3110   24.0337 C   0  0  1  0  0  0
  -20.5880  -28.3640   23.1314 C   0  0  2  0  0  0
  -20.6815  -26.9406   22.5330 C   0  0  0  0  0  0
  -19.5701  -26.6361   21.5224 C   0  0  0  0  0  0
  -18.1942  -26.7832   22.1788 C   0  0  0  0  0  0
  -19.1532  -28.8808   23.2918 C   0  0  0  0  0  0
  -18.9453  -30.1438   23.8875 C   0  0  0  0  0  0
  -17.6454  -30.6579   24.0513 C   0  0  0  0  0  0
  -25.9026  -34.9467   23.5135 C   0  0  0  0  0  0
  -16.5345  -29.9062   23.6305 C   0  0  0  0  0  0
  -16.7267  -28.6462   23.0371 C   0  0  0  0  0  0
  -26.4459  -31.6553   25.0736 C   0  0  0  0  0  0
  -25.3700  -31.3601   26.1443 C   0  0  0  0  0  0
  -27.0319  -30.3015   24.6090 C   0  0  0  0  0  0
  -27.6002  -32.4266   25.7554 C   0  0  0  0  0  0
  -27.5579  -37.1811   24.8469 C   0  0  0  0  0  0
  -21.4125  -29.3070   22.3776 N   0  0  0  0  0  0
  -26.4286  -37.3797   23.9410 N   0  0  0  0  0  0
  -24.6628  -31.0847   22.0987 N   0  0  0  0  0  0
  -23.4200  -28.8202   23.3019 O   0  0  0  0  0  0
  -28.4268  -26.7903   20.1029 O   0  0  0  0  0  0
  -26.5594  -34.8917   22.4697 O   0  0  0  0  0  0
  -23.5343  -32.1403   23.7572 O   0  0  0  0  0  0
  -25.6807  -24.4422   22.1715 C   0  0  0  0  0  0
  -25.0760  -23.1823   22.4213 C   0  0  0  0  0  0
  -27.0260  -24.1947   22.2186 C   0  0  0  0  0  0
  -23.6162  -22.8483   22.4942 C   0  0  0  0  0  0
  -26.9337  -25.9902   25.1534 C   0  0  0  0  0  0
  -30.3533  -20.0120   23.9579 C   0  0  0  0  0  0
  -28.2686  -26.1482   24.4108 C   0  0  0  0  0  0
  -28.1150  -26.3947   22.8970 C   0  0  0  0  0  0
  -30.5537  -17.8079   21.6368 C   0  0  0  0  0  0
  -28.4186  -22.0801   22.6284 C   0  0  0  0  0  0
  -30.1867  -16.8132   20.5202 C   0  0  0  0  0  0
  -29.3423  -18.3540   22.4254 C   0  0  0  0  0  0
  -28.2296  -20.5503   22.7765 C   0  0  0  0  0  0
  -28.3911  -25.4112   20.4801 C   0  0  0  0  0  0
  -28.1827  -25.1310   21.9995 C   0  0  2  0  0  0
  -25.9764  -22.2310   22.6053 N   0  0  0  0  0  0
  -27.1786  -22.8401   22.4733 N   0  0  0  0  0  0
  -29.9687  -15.4377   20.9774 N   0  0  0  0  0  0
  -29.5147  -19.7973   22.7540 N   0  3  1  0  0  0
  -31.4621  -12.3320   19.1235 H   0  0  0  0  0  0
  -30.2784  -11.2426   19.7921 H   0  0  0  0  0  0
  -29.7235  -11.7946   17.4063 H   0  0  0  0  0  0
  -29.6880  -13.4976   17.7913 H   0  0  0  0  0  0
  -27.7946  -11.3298   18.7618 H   0  0  0  0  0  0
  -27.3772  -12.7050   17.7742 H   0  0  0  0  0  0
  -27.7156  -14.2580   19.6036 H   0  0  0  0  0  0
  -28.6609  -11.9186   21.3279 H   0  0  0  0  0  0
  -28.4852  -13.5527   21.8839 H   0  0  0  0  0  0
  -25.2766   -9.5698   22.4736 H   0  0  0  0  0  0
  -24.0029   -7.4649   22.7453 H   0  0  0  0  0  0
  -21.0846   -8.8745   19.8970 H   0  0  0  0  0  0
  -22.3674  -10.9652   19.6156 H   0  0  0  0  0  0
  -21.1999   -7.6145   23.9728 H   0  0  0  0  0  0
  -21.1489   -6.0513   25.9081 H   0  0  0  0  0  0
  -22.0597   -2.7611   23.2848 H   0  0  0  0  0  0
  -22.4127  -11.9897   22.4812 H   0  0  0  0  0  0
  -21.1131  -13.1246   22.2574 H   0  0  0  0  0  0
  -24.6582  -15.8364   20.5076 H   0  0  0  0  0  0
  -26.2745  -15.6305   20.0660 H   0  0  0  0  0  0
  -26.7123  -32.5498   23.1171 H   0  0  0  0  0  0
  -25.0109  -33.9783   25.0528 H   0  0  0  0  0  0
  -22.6876  -31.3134   21.4148 H   0  0  0  0  0  0
  -23.3746  -35.9649   23.3302 H   0  0  0  0  0  0
  -24.3603  -36.8926   22.2058 H   0  0  0  0  0  0
  -23.7234  -37.6517   23.6638 H   0  0  0  0  0  0
  -26.0386  -31.6254   20.5959 H   0  0  0  0  0  0
  -26.8110  -30.8910   21.9741 H   0  0  0  0  0  0
  -28.1018  -29.1751   21.0966 H   0  0  0  0  0  0
  -26.0591  -25.9830   19.0260 H   0  0  0  0  0  0
  -23.9724  -27.2802   19.0627 H   0  0  0  0  0  0
  -23.6988  -30.5977   19.4036 H   0  0  0  0  0  0
  -22.7257  -29.2411   19.8749 H   0  0  0  0  0  0
  -25.1275  -36.1976   25.0831 H   0  0  0  0  0  0
  -20.9961  -28.3141   24.1434 H   0  0  0  0  0  0
  -20.5891  -26.2210   23.3484 H   0  0  0  0  0  0
  -21.6650  -26.7561   22.0976 H   0  0  0  0  0  0
  -19.6855  -25.6287   21.1203 H   0  0  0  0  0  0
  -19.6482  -27.3217   20.6772 H   0  0  0  0  0  0
  -17.4106  -26.6377   21.4337 H   0  0  0  0  0  0
  -18.0547  -26.0044   22.9304 H   0  0  0  0  0  0
  -19.7929  -30.7268   24.2216 H   0  0  0  0  0  0
  -17.5011  -31.6285   24.5062 H   0  0  0  0  0  0
  -15.5350  -30.2964   23.7612 H   0  0  0  0  0  0
  -15.8672  -28.0754   22.7115 H   0  0  0  0  0  0
  -24.5952  -30.6861   25.7758 H   0  0  0  0  0  0
  -24.8779  -32.2711   26.4851 H   0  0  0  0  0  0
  -25.8044  -30.8811   27.0227 H   0  0  0  0  0  0
  -26.2893  -29.6773   24.1096 H   0  0  0  0  0  0
  -27.4068  -29.7220   25.4541 H   0  0  0  0  0  0
  -27.8714  -30.4379   23.9270 H   0  0  0  0  0  0
  -27.2581  -33.3526   26.2182 H   0  0  0  0  0  0
  -28.3819  -32.6873   25.0412 H   0  0  0  0  0  0
  -28.0643  -31.8341   26.5450 H   0  0  0  0  0  0
  -28.2612  -38.0101   24.7533 H   0  0  0  0  0  0
  -28.1047  -36.2632   24.6247 H   0  0  0  0  0  0
  -27.2305  -37.1433   25.8879 H   0  0  0  0  0  0
  -20.9256  -29.8864   21.7081 H   0  0  0  0  0  0
  -26.0165  -38.2871   24.1426 H   0  0  0  0  0  0
  -25.2008  -25.3934   21.9855 H   0  0  0  0  0  0
  -23.0608  -23.3317   21.6905 H   0  0  0  0  0  0
  -23.1855  -23.1791   23.4392 H   0  0  0  0  0  0
  -23.4441  -21.7755   22.4080 H   0  0  0  0  0  0
  -27.0995  -25.9328   26.2295 H   0  0  0  0  0  0
  -26.4073  -25.0842   24.8550 H   0  0  0  0  0  0
  -26.2762  -26.8404   24.9683 H   0  0  0  0  0  0
  -31.2784  -19.4375   23.8978 H   0  0  0  0  0  0
  -29.8309  -19.7104   24.8655 H   0  0  0  0  0  0
  -30.6371  -21.0579   24.0645 H   0  0  0  0  0  0
  -28.9082  -25.2850   24.5994 H   0  0  0  0  0  0
  -28.7894  -27.0043   24.8420 H   0  0  0  0  0  0
  -28.9233  -27.0641   22.5994 H   0  0  0  0  0  0
  -27.1893  -26.9419   22.7180 H   0  0  0  0  0  0
  -31.0524  -18.6434   21.1439 H   0  0  0  0  0  0
  -31.3011  -17.3820   22.3070 H   0  0  0  0  0  0
  -29.0440  -22.2859   21.7578 H   0  0  0  0  0  0
  -28.9360  -22.4832   23.4991 H   0  0  0  0  0  0
  -30.9678  -16.8524   19.7574 H   0  0  0  0  0  0
  -29.2888  -17.1448   19.9976 H   0  0  0  0  0  0
  -29.1654  -17.7647   23.3273 H   0  0  0  0  0  0
  -28.4498  -18.2226   21.8130 H   0  0  0  0  0  0
  -27.6141  -20.2181   21.9394 H   0  0  0  0  0  0
  -27.6738  -20.3131   23.6853 H   0  0  0  0  0  0
  -27.6742  -24.8547   19.8774 H   0  0  0  0  0  0
  -29.3533  -24.9881   20.1860 H   0  0  0  0  0  0
  -29.0924  -24.6215   22.3161 H   0  0  0  0  0  0
  -29.0468  -15.1968   21.3095 H   0  0  0  0  0  0
  -30.0288  -20.1815   21.9755 H   0  0  0  0  0  0
  1 25  1  0  0  0
  1 30  2  0  0  0
  1 88  1  0  0  0
  2  3  1  0  0  0
  2 25  1  0  0  0
  2 90  1  0  0  0
  2 91  1  0  0  0
  3  4  1  0  0  0
  3 92  1  0  0  0
  3 93  1  0  0  0
  4  5  1  0  0  0
  4 94  1  0  0  0
  4 95  1  0  0  0
  5  6  1  0  0  0
  5 26  1  0  0  0
  5 96  1  0  0  0
  6 25  1  0  0  0
  6 97  1  0  0  0
  6 98  1  0  0  0
  7  8  2  0  0  0
  7 26  1  0  0  0
  7 29  1  0  0  0
  8  9  1  0  0  0
  8 22  1  0  0  0
  9 10  1  0  0  0
  9 27  2  0  0  0
 10 11  2  0  0  0
 10 15  1  0  0  0
 11 12  1  0  0  0
 11 99  1  0  0  0
 12 13  2  0  0  0
 12100  1  0  0  0
 13 14  1  0  0  0
 13 31  1  0  0  0
 14 15  2  0  0  0
 14101  1  0  0  0
 15102  1  0  0  0
 16 17  2  0  0  0
 16 21  1  0  0  0
 16 31  1  0  0  0
 17 18  1  0  0  0
 17103  1  0  0  0
 18 19  2  0  0  0
 18104  1  0  0  0
 19 20  1  0  0  0
 19 24  1  0  0  0
 20 21  2  0  0  0
 20105  1  0  0  0
 21 23  1  0  0  0
 22 28  1  0  0  0
 22 32  2  0  0  0
 26 27  1  0  0  0
 28106  1  0  0  0
 28107  1  0  0  0
 29108  1  0  0  0
 29109  1  0  0  0
 33 34  1  0  0  0
 33 66  1  0  0  0
 33 70  2  0  0  0
 34 36  1  0  0  0
 34 59  1  0  0  0
 34110  1  0  0  0
 35 44  2  0  0  0
 35 45  1  0  0  0
 35 68  1  0  0  0
 36 56  1  0  0  0
 36111  1  0  0  0
 37 39  1  0  0  0
 37 47  1  0  0  0
 37 66  1  0  0  0
 37112  1  0  0  0
 38 43  2  0  0  0
 38 46  1  0  0  0
 38 47  1  0  0  0
 39 64  1  0  0  0
 39 67  2  0  0  0
 40 52  1  0  0  0
 40 53  2  0  0  0
 40 58  1  0  0  0
 41113  1  0  0  0
 41114  1  0  0  0
 41115  1  0  0  0
 41 48  1  0  0  0
 42 43  1  0  0  0
 42 66  1  0  0  0
 42116  1  0  0  0
 42117  1  0  0  0
 43 44  1  0  0  0
 44118  1  0  0  0
 45 46  2  0  0  0
 45119  1  0  0  0
 46120  1  0  0  0
 47121  1  0  0  0
 47122  1  0  0  0
 48 56  1  0  0  0
 48 65  1  0  0  0
 48123  1  0  0  0
 49 50  1  0  0  0
 49 53  1  0  0  0
 49 64  1  0  0  0
 49124  1  0  0  0
 50 51  1  0  0  0
 50125  1  0  0  0
 50126  1  0  0  0
 51 52  1  0  0  0
 51127  1  0  0  0
 51128  1  0  0  0
 52129  1  0  0  0
 52130  1  0  0  0
 53 54  1  0  0  0
 54 55  2  0  0  0
 54131  1  0  0  0
 55 57  1  0  0  0
 55132  1  0  0  0
 56 69  2  0  0  0
 57 58  2  0  0  0
 57133  1  0  0  0
 58134  1  0  0  0
 59 60  1  0  0  0
 59 61  1  0  0  0
 59 62  1  0  0  0
 60135  1  0  0  0
 60136  1  0  0  0
 60137  1  0  0  0
 61138  1  0  0  0
 61139  1  0  0  0
 61140  1  0  0  0
 62141  1  0  0  0
 62142  1  0  0  0
 62143  1  0  0  0
 63 65  1  0  0  0
 63144  1  0  0  0
 63145  1  0  0  0
 63146  1  0  0  0
 64147  1  0  0  0
 65148  1  0  0  0
 68 84  1  0  0  0
 71 72  1  0  0  0
 71 73  2  0  0  0
 71149  1  0  0  0
 72 74  1  0  0  0
 72 86  2  0  0  0
 73 85  1  0  0  0
 73 87  1  0  0  0
 74150  1  0  0  0
 74151  1  0  0  0
 74152  1  0  0  0
 75 77  1  0  0  0
 75153  1  0  0  0
 75154  1  0  0  0
 75155  1  0  0  0
 76156  1  0  0  0
 76157  1  0  0  0
 76158  1  0  0  0
 76 89  1  0  0  0
 77 78  1  0  0  0
 77159  1  0  0  0
 77160  1  0  0  0
 78161  1  0  0  0
 78162  1  0  0  0
 78 85  1  0  0  0
 79 81  1  0  0  0
 79 82  1  0  0  0
 79163  1  0  0  0
 79164  1  0  0  0
 80 83  1  0  0  0
 80 87  1  0  0  0
 80165  1  0  0  0
 80166  1  0  0  0
 81 88  1  0  0  0
 81167  1  0  0  0
 81168  1  0  0  0
 82 89  1  0  0  0
 82169  1  0  0  0
 82170  1  0  0  0
 83 89  1  0  0  0
 83171  1  0  0  0
 83172  1  0  0  0
 84 85  1  0  0  0
 84173  1  0  0  0
 84174  1  0  0  0
 85175  1  0  0  0
 86 87  1  0  0  0
 88176  1  0  0  0
 89177  1  0  0  0
M  CHG  1  89   1
M  ISO  4   1 100  68 101  84 101  88 100
M  END
> <chiral flag>
0

> <version>
0

> <s_m_source_file>
/data/baiqing/PycharmProjects/Reinvent-master-3.2/result/LINK_invent/BTK/process_docking_weight1_custom_sum_contain_oxygen_bond_distance_aromatic_linkinvent_7_9_3/rearranged_h_0095.sdf

> <i_m_source_file_index>
33

> <r_mmod_Potential_Energy-OPLS-2005>
-164.523086547852

> <r_mmod_Stretch_Energy-OPLS-2005>
34.2827949523926

> <r_mmod_Bend_Energy-OPLS-2005>
105.542823791504

> <r_mmod_Torsional_Energy-OPLS-2005>
284.298492431641

> <r_mmod_Improper_Torsional_Energy-OPLS-2005>
7.27536487579346

> <r_mmod_Van_der_Waal_Energy-OPLS-2005>
124.62035369873

> <r_mmod_Electrostatic_Energy-OPLS-2005>
-279.886932373047

> <r_mmod_Solvation_Energy-OPLS-2005>
-451.016998291016

> <b_mmod_Minimization_Converged-OPLS-2005>
0

> <r_mmod_RMS_Derivative-OPLS-2005>
2.96405029296875

$$$$
33
                    3D
 Structure written by MMmdl.
178186  0  0  1  0            999 V2000
  -30.7554  -14.4125   20.5882 C   0  0  0  0  0  0
  -30.4076  -12.2788   19.4140 C   0  0  0  0  0  0
  -29.4891  -12.5150   18.1988 C   0  0  0  0  0  0
  -28.0086  -12.3871   18.6050 C   0  0  0  0  0  0
  -27.6628  -13.2103   19.8760 C   0  0  2  0  0  0
  -28.7026  -12.9669   20.9927 C   0  0  0  0  0  0
  -25.2576  -13.8186   20.5684 C   0  0  0  0  0  0
  -24.1835  -13.0454   20.9179 C   0  0  0  0  0  0
  -24.6393  -11.6917   20.8738 C   0  0  0  0  0  0
  -23.9070  -10.4292   21.0402 C   0  0  0  0  0  0
  -24.3634   -9.4217   21.9183 C   0  0  0  0  0  0
  -23.6319   -8.2246   22.0752 C   0  0  0  0  0  0
  -22.4296   -8.0284   21.3542 C   0  0  0  0  0  0
  -21.9923   -9.0254   20.4634 C   0  0  0  0  0  0
  -22.7252  -10.2137   20.3051 C   0  0  0  0  0  0
  -21.6859   -6.0745   22.5274 C   0  0  0  0  0  0
  -21.4002   -6.5633   23.8210 C   0  0  0  0  0  0
  -21.3672   -5.6789   24.9171 C   0  0  0  0  0  0
  -21.6047   -4.3054   24.7228 C   0  0  0  0  0  0
  -21.8824   -3.8153   23.4345 C   0  0  0  0  0  0
  -21.9191   -4.6969   22.3399 C   0  0  0  0  0  0
  -22.7858  -13.5238   21.1859 C   0  0  0  0  0  0
  -22.1665   -4.2148   21.0986 F   0  0  0  0  0  0
  -21.5638   -3.4543   25.7746 F   0  0  0  0  0  0
  -30.0376  -13.2621   20.4465 N   0  0  0  0  0  0
  -26.3020  -12.9364   20.3363 N   0  0  0  0  0  0
  -25.9316  -11.6516   20.5746 N   0  0  0  0  0  0
  -22.0485  -12.8220   22.0404 N   0  0  0  0  0  0
  -25.4328  -15.1911   20.4117 N   0  0  0  0  0  0
  -31.8714  -14.5457   20.0828 O   0  0  0  0  0  0
  -21.6647   -6.8905   21.4247 O   0  0  0  0  0  0
  -22.3537  -14.5547   20.6720 O   0  0  0  0  0  0
  -24.6143  -31.8701   23.2139 C   0  0  0  0  0  0
  -25.9049  -32.4830   23.8419 C   0  0  1  0  0  0
  -27.2269  -27.4485   20.0702 C   0  0  0  0  0  0
  -25.5909  -33.8631   24.2350 N   0  0  0  0  0  0
  -23.4000  -30.4983   21.5545 C   0  0  2  0  0  0
  -24.8407  -28.9682   20.1160 C   0  0  0  0  0  0
  -22.7391  -29.4697   22.4984 C   0  0  0  0  0  0
  -18.0274  -28.1379   22.8486 C   0  0  0  0  0  0
  -24.1496  -36.7313   23.2633 C   0  0  0  0  0  0
  -25.9306  -30.8357   21.3680 C   0  0  0  0  0  0
  -26.0043  -29.4753   20.7062 C   0  0  0  0  0  0
  -27.2017  -28.7246   20.6774 C   0  0  0  0  0  0
  -26.0405  -26.9581   19.4781 C   0  0  0  0  0  0
  -24.8517  -27.7051   19.5039 C   0  0  0  0  0  0
  -23.6055  -29.8364   20.1675 C   0  0  0  0  0  0
  -25.4116  -36.3114   24.0331 C   0  0  1  0  0  0
  -20.5860  -28.3681   23.1293 C   0  0  2  0  0  0
  -20.6774  -26.9417   22.5399 C   0  0  0  0  0  0
  -19.5755  -26.6390   21.5199 C   0  0  0  0  0  0
  -18.1931  -26.7930   22.1606 C   0  0  0  0  0  0
  -19.1521  -28.8845   23.2889 C   0  0  0  0  0  0
  -18.9458  -30.1442   23.8916 C   0  0  0  0  0  0
  -17.6460  -30.6588   24.0569 C   0  0  0  0  0  0
  -25.9032  -34.9476   23.5132 C   0  0  0  0  0  0
  -16.5353  -29.9091   23.6328 C   0  0  0  0  0  0
  -16.7266  -28.6497   23.0359 C   0  0  0  0  0  0
  -26.4481  -31.6616   25.0750 C   0  0  0  0  0  0
  -25.3741  -31.3725   26.1502 C   0  0  0  0  0  0
  -27.0323  -30.3060   24.6132 C   0  0  0  0  0  0
  -27.6066  -32.4343   25.7504 C   0  0  0  0  0  0
  -27.5591  -37.1809   24.8458 C   0  0  0  0  0  0
  -21.4123  -29.3055   22.3703 N   0  0  0  0  0  0
  -26.4307  -37.3788   23.9403 N   0  0  0  0  0  0
  -24.6667  -31.0818   22.1029 N   0  0  0  0  0  0
  -23.4170  -28.8220   23.3012 O   0  0  0  0  0  0
  -28.4010  -26.7238   20.0653 O   0  0  0  0  0  0
  -26.5562  -34.8915   22.4676 O   0  0  0  0  0  0
  -23.5341  -32.1464   23.7531 O   0  0  0  0  0  0
  -30.9432  -24.8423   18.3695 C   0  0  0  0  0  0
  -30.0873  -22.7996   18.1426 C   0  0  0  0  0  0
  -29.7326  -24.0930   18.4137 C   0  0  0  0  0  0
  -31.9907  -23.9961   18.1129 C   0  0  0  0  0  0
  -27.2824  -23.4996   18.5826 C   0  0  0  0  0  0
  -33.9135  -25.4044   18.9396 C   0  0  0  0  0  0
  -33.8464  -24.6079   16.5382 C   0  0  0  0  0  0
  -29.7428  -15.7020   22.4212 C   0  0  0  0  0  0
  -31.3968  -17.5004   20.1031 C   0  0  0  0  0  0
  -32.1621  -21.4708   17.7251 C   0  0  0  0  0  0
  -30.0402  -16.7569   20.2154 C   0  0  0  0  0  0
  -31.3170  -18.8554   19.3724 C   0  0  0  0  0  0
  -32.7209  -20.9016   19.0482 C   0  0  0  0  0  0
  -28.2824  -25.2948   20.1161 C   0  0  0  0  0  0
  -28.3397  -24.6153   18.7225 C   0  0  1  0  0  0
  -33.4616  -24.2858   17.9885 C   0  0  0  0  0  0
  -31.4553  -22.7225   17.9657 N   0  0  0  0  0  0
  -30.0739  -15.5077   21.0085 N   0  0  0  0  0  0
  -32.6670  -19.4273   19.1512 N   0  3  0  0  0  0
  -31.4546  -12.3438   19.1153 H   0  0  0  0  0  0
  -30.2771  -11.2627   19.7911 H   0  0  0  0  0  0
  -29.7226  -11.8035   17.4039 H   0  0  0  0  0  0
  -29.6713  -13.5089   17.7870 H   0  0  0  0  0  0
  -27.8025  -11.3306   18.7786 H   0  0  0  0  0  0
  -27.3646  -12.6897   17.7771 H   0  0  0  0  0  0
  -27.7159  -14.2642   19.6029 H   0  0  0  0  0  0
  -28.6674  -11.9248   21.3122 H   0  0  0  0  0  0
  -28.4560  -13.5471   21.8792 H   0  0  0  0  0  0
  -25.2782   -9.5695   22.4773 H   0  0  0  0  0  0
  -24.0033   -7.4627   22.7465 H   0  0  0  0  0  0
  -21.0858   -8.8786   19.8924 H   0  0  0  0  0  0
  -22.3726  -10.9694   19.6171 H   0  0  0  0  0  0
  -21.1983   -7.6142   23.9721 H   0  0  0  0  0  0
  -21.1498   -6.0510   25.9074 H   0  0  0  0  0  0
  -22.0595   -2.7615   23.2845 H   0  0  0  0  0  0
  -22.4093  -11.9901   22.4835 H   0  0  0  0  0  0
  -21.1081  -13.1231   22.2533 H   0  0  0  0  0  0
  -24.6755  -15.8561   20.5288 H   0  0  0  0  0  0
  -26.3013  -15.6271   20.1258 H   0  0  0  0  0  0
  -26.7104  -32.5542   23.1171 H   0  0  0  0  0  0
  -25.0144  -33.9805   25.0553 H   0  0  0  0  0  0
  -22.6886  -31.3154   21.4184 H   0  0  0  0  0  0
  -23.3752  -35.9649   23.3310 H   0  0  0  0  0  0
  -24.3588  -36.8926   22.2044 H   0  0  0  0  0  0
  -23.7259  -37.6525   23.6642 H   0  0  0  0  0  0
  -26.0532  -31.6063   20.6056 H   0  0  0  0  0  0
  -26.8156  -30.8760   21.9909 H   0  0  0  0  0  0
  -28.1045  -29.1167   21.1253 H   0  0  0  0  0  0
  -26.0166  -26.0071   18.9746 H   0  0  0  0  0  0
  -23.9580  -27.3090   19.0427 H   0  0  0  0  0  0
  -23.7137  -30.6166   19.4129 H   0  0  0  0  0  0
  -22.7286  -29.2605   19.8685 H   0  0  0  0  0  0
  -25.1296  -36.1984   25.0819 H   0  0  0  0  0  0
  -20.9958  -28.3264   24.1412 H   0  0  0  0  0  0
  -20.5690  -26.2293   23.3583 H   0  0  0  0  0  0
  -21.6645  -26.7466   22.1190 H   0  0  0  0  0  0
  -19.6926  -25.6298   21.1241 H   0  0  0  0  0  0
  -19.6717  -27.3177   20.6706 H   0  0  0  0  0  0
  -17.4204  -26.6678   21.4005 H   0  0  0  0  0  0
  -18.0348  -26.0071   22.8998 H   0  0  0  0  0  0
  -19.7933  -30.7246   24.2317 H   0  0  0  0  0  0
  -17.5020  -31.6278   24.5148 H   0  0  0  0  0  0
  -15.5351  -30.3002   23.7643 H   0  0  0  0  0  0
  -15.8664  -28.0810   22.7092 H   0  0  0  0  0  0
  -24.5885  -30.7103   25.7848 H   0  0  0  0  0  0
  -24.8953  -32.2876   26.4987 H   0  0  0  0  0  0
  -25.8080  -30.8867   27.0248 H   0  0  0  0  0  0
  -26.2869  -29.6815   24.1186 H   0  0  0  0  0  0
  -27.4107  -29.7311   25.4600 H   0  0  0  0  0  0
  -27.8704  -30.4408   23.9286 H   0  0  0  0  0  0
  -27.2685  -33.3632   26.2115 H   0  0  0  0  0  0
  -28.3842  -32.6933   25.0302 H   0  0  0  0  0  0
  -28.0765  -31.8450   26.5391 H   0  0  0  0  0  0
  -28.2597  -38.0116   24.7514 H   0  0  0  0  0  0
  -28.1102  -36.2647   24.6285 H   0  0  0  0  0  0
  -27.2297  -37.1461   25.8855 H   0  0  0  0  0  0
  -20.9273  -29.8785   21.6932 H   0  0  0  0  0  0
  -26.0204  -38.2870   24.1397 H   0  0  0  0  0  0
  -31.0390  -25.9072   18.5346 H   0  0  0  0  0  0
  -29.4836  -21.9032   18.0805 H   0  0  0  0  0  0
  -27.2800  -23.0912   17.5722 H   0  0  0  0  0  0
  -26.2753  -23.8612   18.7765 H   0  0  0  0  0  0
  -27.4620  -22.6808   19.2808 H   0  0  0  0  0  0
  -33.6833  -25.1504   19.9753 H   0  0  0  0  0  0
  -33.4234  -26.3507   18.7114 H   0  0  0  0  0  0
  -34.9902  -25.5659   18.8777 H   0  0  0  0  0  0
  -33.5920  -23.7841   15.8709 H   0  0  0  0  0  0
  -34.9180  -24.7890   16.4416 H   0  0  0  0  0  0
  -33.3241  -25.4954   16.1805 H   0  0  0  0  0  0
  -28.6638  -15.8069   22.5383 H   0  0  0  0  0  0
  -30.2113  -16.6064   22.8143 H   0  0  0  0  0  0
  -30.0720  -14.8691   23.0467 H   0  0  0  0  0  0
  -32.1140  -16.8855   19.5624 H   0  0  0  0  0  0
  -31.8073  -17.6552   21.1008 H   0  0  0  0  0  0
  -31.4631  -20.7780   17.2551 H   0  0  0  0  0  0
  -32.9576  -21.6304   16.9966 H   0  0  0  0  0  0
  -29.6833  -16.5157   19.2121 H   0  0  0  0  0  0
  -29.2908  -17.4281   20.6400 H   0  0  0  0  0  0
  -30.7097  -19.5421   19.9648 H   0  0  0  0  0  0
  -30.8144  -18.7440   18.4104 H   0  0  0  0  0  0
  -32.1944  -21.3294   19.9029 H   0  0  0  0  0  0
  -33.7609  -21.2102   19.1546 H   0  0  0  0  0  0
  -29.0861  -24.9114   20.7447 H   0  0  0  0  0  0
  -27.3764  -25.0105   20.6536 H   0  0  0  0  0  0
  -28.1135  -25.3664   17.9638 H   0  0  0  0  0  0
  -34.0223  -23.3983   18.2810 H   0  0  0  0  0  0
  -33.0997  -19.0084   18.3428 H   0  0  0  0  0  0
  -33.2340  -19.1821   19.9454 H   0  0  0  0  0  0
  1 25  1  0  0  0
  1 30  2  0  0  0
  1 88  1  0  0  0
  2  3  1  0  0  0
  2 25  1  0  0  0
  2 90  1  0  0  0
  2 91  1  0  0  0
  3  4  1  0  0  0
  3 92  1  0  0  0
  3 93  1  0  0  0
  4  5  1  0  0  0
  4 94  1  0  0  0
  4 95  1  0  0  0
  5  6  1  0  0  0
  5 26  1  0  0  0
  5 96  1  0  0  0
  6 25  1  0  0  0
  6 97  1  0  0  0
  6 98  1  0  0  0
  7  8  2  0  0  0
  7 26  1  0  0  0
  7 29  1  0  0  0
  8  9  1  0  0  0
  8 22  1  0  0  0
  9 10  1  0  0  0
  9 27  2  0  0  0
 10 11  2  0  0  0
 10 15  1  0  0  0
 11 12  1  0  0  0
 11 99  1  0  0  0
 12 13  2  0  0  0
 12100  1  0  0  0
 13 14  1  0  0  0
 13 31  1  0  0  0
 14 15  2  0  0  0
 14101  1  0  0  0
 15102  1  0  0  0
 16 17  2  0  0  0
 16 21  1  0  0  0
 16 31  1  0  0  0
 17 18  1  0  0  0
 17103  1  0  0  0
 18 19  2  0  0  0
 18104  1  0  0  0
 19 20  1  0  0  0
 19 24  1  0  0  0
 20 21  2  0  0  0
 20105  1  0  0  0
 21 23  1  0  0  0
 22 28  1  0  0  0
 22 32  2  0  0  0
 26 27  1  0  0  0
 28106  1  0  0  0
 28107  1  0  0  0
 29108  1  0  0  0
 29109  1  0  0  0
 33 34  1  0  0  0
 33 66  1  0  0  0
 33 70  2  0  0  0
 34 36  1  0  0  0
 34 59  1  0  0  0
 34110  1  0  0  0
 35 44  2  0  0  0
 35 45  1  0  0  0
 35 68  1  0  0  0
 36 56  1  0  0  0
 36111  1  0  0  0
 37 39  1  0  0  0
 37 47  1  0  0  0
 37 66  1  0  0  0
 37112  1  0  0  0
 38 43  2  0  0  0
 38 46  1  0  0  0
 38 47  1  0  0  0
 39 64  1  0  0  0
 39 67  2  0  0  0
 40 52  1  0  0  0
 40 53  2  0  0  0
 40 58  1  0  0  0
 41113  1  0  0  0
 41114  1  0  0  0
 41115  1  0  0  0
 41 48  1  0  0  0
 42 43  1  0  0  0
 42 66  1  0  0  0
 42116  1  0  0  0
 42117  1  0  0  0
 43 44  1  0  0  0
 44118  1  0  0  0
 45 46  2  0  0  0
 45119  1  0  0  0
 46120  1  0  0  0
 47121  1  0  0  0
 47122  1  0  0  0
 48 56  1  0  0  0
 48 65  1  0  0  0
 48123  1  0  0  0
 49 50  1  0  0  0
 49 53  1  0  0  0
 49 64  1  0  0  0
 49124  1  0  0  0
 50 51  1  0  0  0
 50125  1  0  0  0
 50126  1  0  0  0
 51 52  1  0  0  0
 51127  1  0  0  0
 51128  1  0  0  0
 52129  1  0  0  0
 52130  1  0  0  0
 53 54  1  0  0  0
 54 55  2  0  0  0
 54131  1  0  0  0
 55 57  1  0  0  0
 55132  1  0  0  0
 56 69  2  0  0  0
 57 58  2  0  0  0
 57133  1  0  0  0
 58134  1  0  0  0
 59 60  1  0  0  0
 59 61  1  0  0  0
 59 62  1  0  0  0
 60135  1  0  0  0
 60136  1  0  0  0
 60137  1  0  0  0
 61138  1  0  0  0
 61139  1  0  0  0
 61140  1  0  0  0
 62141  1  0  0  0
 62142  1  0  0  0
 62143  1  0  0  0
 63 65  1  0  0  0
 63144  1  0  0  0
 63145  1  0  0  0
 63146  1  0  0  0
 64147  1  0  0  0
 65148  1  0  0  0
 68 84  1  0  0  0
 71 73  1  0  0  0
 71 74  2  0  0  0
 71149  1  0  0  0
 72 73  2  0  0  0
 72 87  1  0  0  0
 72150  1  0  0  0
 73 85  1  0  0  0
 74 86  1  0  0  0
 74 87  1  0  0  0
 75151  1  0  0  0
 75152  1  0  0  0
 75153  1  0  0  0
 75 85  1  0  0  0
 76154  1  0  0  0
 76155  1  0  0  0
 76156  1  0  0  0
 76 86  1  0  0  0
 77 86  1  0  0  0
 77157  1  0  0  0
 77158  1  0  0  0
 77159  1  0  0  0
 78 88  1  0  0  0
 78160  1  0  0  0
 78161  1  0  0  0
 78162  1  0  0  0
 79 81  1  0  0  0
 79 82  1  0  0  0
 79163  1  0  0  0
 79164  1  0  0  0
 80 83  1  0  0  0
 80 87  1  0  0  0
 80165  1  0  0  0
 80166  1  0  0  0
 81 88  1  0  0  0
 81167  1  0  0  0
 81168  1  0  0  0
 82 89  1  0  0  0
 82169  1  0  0  0
 82170  1  0  0  0
 83 89  1  0  0  0
 83171  1  0  0  0
 83172  1  0  0  0
 84 85  1  0  0  0
 84173  1  0  0  0
 84174  1  0  0  0
 85175  1  0  0  0
 86176  1  0  0  0
 89177  1  0  0  0
 89178  1  0  0  0
M  CHG  1  89   1
M  ISO  4   1 100  68 101  84 101  88 100
M  END
> <chiral flag>
0

> <version>
0

> <s_m_source_file>
/data/baiqing/PycharmProjects/Reinvent-master-3.2/result/LINK_invent/BTK/process_docking_weight1_custom_sum_contain_oxygen_bond_distance_aromatic_linkinvent_7_9_3/rearranged_h_0095.sdf

> <i_m_source_file_index>
34

> <r_mmod_Potential_Energy-OPLS-2005>
-71.7800827026367

> <r_mmod_Stretch_Energy-OPLS-2005>
36.4571952819824

> <r_mmod_Bend_Energy-OPLS-2005>
104.562942504883

> <r_mmod_Torsional_Energy-OPLS-2005>
312.859924316406

> <r_mmod_Improper_Torsional_Energy-OPLS-2005>
9.43541145324707

> <r_mmod_Van_der_Waal_Energy-OPLS-2005>
137.178085327148

> <r_mmod_Electrostatic_Energy-OPLS-2005>
-228.199264526367

> <r_mmod_Solvation_Energy-OPLS-2005>
-455.663146972656

> <b_mmod_Minimization_Converged-OPLS-2005>
0

> <r_mmod_RMS_Derivative-OPLS-2005>
2.33781504631042

$$$$
34
                    3D
 Structure written by MMmdl.
169177  0  0  1  0            999 V2000
  -30.6175  -14.7244   20.4520 C   0  0  0  0  0  0
  -30.4250  -12.4209   19.5013 C   0  0  0  0  0  0
  -29.5151  -12.5079   18.2535 C   0  0  0  0  0  0
  -28.0423  -12.3188   18.6645 C   0  0  0  0  0  0
  -27.6456  -13.2267   19.8595 C   0  0  2  0  0  0
  -28.6828  -13.1542   21.0043 C   0  0  0  0  0  0
  -25.2492  -13.8158   20.5730 C   0  0  0  0  0  0
  -24.1768  -13.0445   20.9186 C   0  0  0  0  0  0
  -24.6340  -11.6904   20.8731 C   0  0  0  0  0  0
  -23.9038  -10.4278   21.0418 C   0  0  0  0  0  0
  -24.3607   -9.4175   21.9190 C   0  0  0  0  0  0
  -23.6295   -8.2204   22.0761 C   0  0  0  0  0  0
  -22.4274   -8.0269   21.3557 C   0  0  0  0  0  0
  -21.9897   -9.0239   20.4653 C   0  0  0  0  0  0
  -22.7207  -10.2129   20.3059 C   0  0  0  0  0  0
  -21.6841   -6.0744   22.5281 C   0  0  0  0  0  0
  -21.3998   -6.5646   23.8224 C   0  0  0  0  0  0
  -21.3660   -5.6800   24.9175 C   0  0  0  0  0  0
  -21.6057   -4.3060   24.7232 C   0  0  0  0  0  0
  -21.8803   -3.8160   23.4344 C   0  0  0  0  0  0
  -21.9165   -4.6970   22.3402 C   0  0  0  0  0  0
  -22.7779  -13.5236   21.1857 C   0  0  0  0  0  0
  -22.1641   -4.2164   21.0975 F   0  0  0  0  0  0
  -21.5615   -3.4551   25.7743 F   0  0  0  0  0  0
  -29.9971  -13.4912   20.4366 N   0  0  0  0  0  0
  -26.2923  -12.9396   20.3301 N   0  0  0  0  0  0
  -25.9266  -11.6543   20.5749 N   0  0  0  0  0  0
  -22.0405  -12.8311   22.0447 N   0  0  0  0  0  0
  -25.4249  -15.1886   20.4157 N   0  0  0  0  0  0
  -31.7614  -14.8313   20.0054 O   0  0  0  0  0  0
  -21.6622   -6.8887   21.4259 O   0  0  0  0  0  0
  -22.3506  -14.5562   20.6677 O   0  0  0  0  0  0
  -24.6386  -31.8520   23.1931 C   0  0  0  0  0  0
  -25.9213  -32.4755   23.8265 C   0  0  1  0  0  0
  -27.2294  -27.2584   20.1210 C   0  0  0  0  0  0
  -25.5985  -33.8561   24.2203 N   0  0  0  0  0  0
  -23.4318  -30.4736   21.5430 C   0  0  2  0  0  0
  -24.8778  -28.9109   20.1194 C   0  0  0  0  0  0
  -22.7539  -29.4589   22.4940 C   0  0  0  0  0  0
  -18.0316  -28.1373   22.8472 C   0  0  0  0  0  0
  -24.1493  -36.7287   23.2624 C   0  0  0  0  0  0
  -25.9786  -30.7669   21.3666 C   0  0  0  0  0  0
  -26.0508  -29.3828   20.7213 C   0  0  0  0  0  0
  -27.2336  -28.5722   20.7006 C   0  0  0  0  0  0
  -26.0338  -26.8454   19.5035 C   0  0  0  0  0  0
  -24.8723  -27.6502   19.4995 C   0  0  0  0  0  0
  -23.6485  -29.8022   20.1614 C   0  0  0  0  0  0
  -25.4125  -36.3080   24.0309 C   0  0  1  0  0  0
  -20.5918  -28.3690   23.1303 C   0  0  2  0  0  0
  -20.6799  -26.9421   22.5422 C   0  0  0  0  0  0
  -19.5783  -26.6384   21.5221 C   0  0  0  0  0  0
  -18.1958  -26.7913   22.1626 C   0  0  0  0  0  0
  -19.1569  -28.8855   23.2867 C   0  0  0  0  0  0
  -18.9443  -30.1463   23.8881 C   0  0  0  0  0  0
  -17.6431  -30.6552   24.0571 C   0  0  0  0  0  0
  -25.9087  -34.9469   23.5081 C   0  0  0  0  0  0
  -16.5333  -29.9052   23.6304 C   0  0  0  0  0  0
  -16.7302  -28.6488   23.0298 C   0  0  0  0  0  0
  -26.4614  -31.6549   25.0616 C   0  0  0  0  0  0
  -25.3858  -31.3703   26.1333 C   0  0  0  0  0  0
  -27.0411  -30.2970   24.6038 C   0  0  0  0  0  0
  -27.6223  -32.4251   25.7319 C   0  0  0  0  0  0
  -27.5601  -37.1812   24.8469 C   0  0  0  0  0  0
  -21.4249  -29.3012   22.3675 N   0  0  0  0  0  0
  -26.4300  -37.3788   23.9425 N   0  0  0  0  0  0
  -24.7028  -31.0488   22.0912 N   0  0  0  0  0  0
  -23.4259  -28.8121   23.3036 O   0  0  0  0  0  0
  -28.3307  -26.3731   20.0646 O   0  0  0  0  0  0
  -26.5670  -34.8956   22.4657 O   0  0  0  0  0  0
  -23.5538  -32.1316   23.7254 O   0  0  0  0  0  0
  -31.0707  -20.3227   22.4839 C   0  0  0  0  0  0
  -31.8651  -19.3389   22.9913 C   0  0  0  0  0  0
  -31.6312  -18.1788   22.1998 C   0  0  0  0  0  0
  -30.5942  -18.4261   21.3199 C   0  0  0  0  0  0
  -32.4323  -16.9001   22.3280 C   0  0  0  0  0  0
  -32.3022  -20.3297   25.2915 C   0  0  0  0  0  0
  -34.2338  -19.9017   23.7067 C   0  0  0  0  0  0
  -29.3670  -25.4622   21.9748 C   0  0  0  0  0  0
  -30.0133  -17.3219   20.3558 C   0  0  0  0  0  0
  -29.3576  -22.4213   21.1396 C   0  0  0  0  0  0
  -28.5479  -23.5940   20.3260 C   0  0  0  0  0  0
  -29.3757  -20.8354   20.6879 C   0  0  0  0  0  0
  -32.8372  -19.4524   24.1557 C   0  0  0  0  0  0
  -28.3409  -25.1224   20.8976 C   0  0  2  0  0  0
  -30.2898  -19.8539   21.4330 N   0  0  0  0  0  0
  -29.8803  -15.8502   20.7892 N   0  0  0  0  0  0
  -31.4752  -12.4964   19.2169 H   0  0  0  0  0  0
  -30.3299  -11.4426   19.9728 H   0  0  0  0  0  0
  -29.7988  -11.7518   17.5200 H   0  0  0  0  0  0
  -29.6476  -13.4762   17.7663 H   0  0  0  0  0  0
  -27.9113  -11.2729   18.9451 H   0  0  0  0  0  0
  -27.3832  -12.4785   17.8095 H   0  0  0  0  0  0
  -27.6480  -14.2487   19.4816 H   0  0  0  0  0  0
  -28.6880  -12.1513   21.4369 H   0  0  0  0  0  0
  -28.4127  -13.8259   21.8209 H   0  0  0  0  0  0
  -25.2744   -9.5638   22.4792 H   0  0  0  0  0  0
  -23.9980   -7.4593   22.7485 H   0  0  0  0  0  0
  -21.0812   -8.8746   19.9006 H   0  0  0  0  0  0
  -22.3632  -10.9673   19.6184 H   0  0  0  0  0  0
  -21.1999   -7.6163   23.9738 H   0  0  0  0  0  0
  -21.1507   -6.0524   25.9088 H   0  0  0  0  0  0
  -22.0583   -2.7627   23.2822 H   0  0  0  0  0  0
  -22.4021  -11.9979   22.4879 H   0  0  0  0  0  0
  -21.1011  -13.1370   22.2647 H   0  0  0  0  0  0
  -24.6668  -15.8523   20.5287 H   0  0  0  0  0  0
  -26.2820  -15.6220   20.0989 H   0  0  0  0  0  0
  -26.7241  -32.5430   23.0965 H   0  0  0  0  0  0
  -25.0124  -33.9689   25.0341 H   0  0  0  0  0  0
  -22.7287  -31.2964   21.4010 H   0  0  0  0  0  0
  -23.3788  -35.9591   23.3262 H   0  0  0  0  0  0
  -24.3542  -36.8941   22.2037 H   0  0  0  0  0  0
  -23.7214  -37.6489   23.6632 H   0  0  0  0  0  0
  -26.1002  -31.5265   20.5911 H   0  0  0  0  0  0
  -26.8628  -30.8315   21.9873 H   0  0  0  0  0  0
  -28.1440  -28.9482   21.1435 H   0  0  0  0  0  0
  -25.9941  -25.8801   19.0157 H   0  0  0  0  0  0
  -23.9777  -27.2927   19.0096 H   0  0  0  0  0  0
  -23.7805  -30.5806   19.4091 H   0  0  0  0  0  0
  -22.7635  -29.2404   19.8513 H   0  0  0  0  0  0
  -25.1308  -36.1915   25.0794 H   0  0  0  0  0  0
  -21.0005  -28.3231   24.1429 H   0  0  0  0  0  0
  -20.5738  -26.2284   23.3608 H   0  0  0  0  0  0
  -21.6648  -26.7453   22.1189 H   0  0  0  0  0  0
  -19.6952  -25.6295   21.1253 H   0  0  0  0  0  0
  -19.6702  -27.3184   20.6737 H   0  0  0  0  0  0
  -17.4232  -26.6690   21.4018 H   0  0  0  0  0  0
  -18.0322  -26.0045   22.9006 H   0  0  0  0  0  0
  -19.7892  -30.7309   24.2226 H   0  0  0  0  0  0
  -17.4947  -31.6217   24.5178 H   0  0  0  0  0  0
  -15.5332  -30.2934   23.7578 H   0  0  0  0  0  0
  -15.8717  -28.0817   22.6953 H   0  0  0  0  0  0
  -24.6170  -30.6854   25.7704 H   0  0  0  0  0  0
  -24.8866  -32.2848   26.4569 H   0  0  0  0  0  0
  -25.8222  -30.9034   27.0168 H   0  0  0  0  0  0
  -26.2975  -29.6832   24.0948 H   0  0  0  0  0  0
  -27.4030  -29.7087   25.4490 H   0  0  0  0  0  0
  -27.8849  -30.4256   23.9255 H   0  0  0  0  0  0
  -27.2912  -33.3614   26.1814 H   0  0  0  0  0  0
  -28.3978  -32.6797   25.0064 H   0  0  0  0  0  0
  -28.0944  -31.8405   26.5245 H   0  0  0  0  0  0
  -28.2605  -38.0135   24.7581 H   0  0  0  0  0  0
  -28.1140  -36.2692   24.6212 H   0  0  0  0  0  0
  -27.2332  -37.1322   25.8876 H   0  0  0  0  0  0
  -20.9441  -29.8750   21.6869 H   0  0  0  0  0  0
  -26.0201  -38.2863   24.1465 H   0  0  0  0  0  0
  -31.0238  -21.3530   22.8020 H   0  0  0  0  0  0
  -33.1904  -16.9517   23.1049 H   0  0  0  0  0  0
  -32.9667  -16.6900   21.3980 H   0  0  0  0  0  0
  -31.7899  -16.0617   22.5840 H   0  0  0  0  0  0
  -31.3357  -19.9626   25.6416 H   0  0  0  0  0  0
  -32.1830  -21.3676   24.9768 H   0  0  0  0  0  0
  -32.9825  -20.3103   26.1444 H   0  0  0  0  0  0
  -34.6555  -19.2145   22.9753 H   0  0  0  0  0  0
  -34.9217  -19.9294   24.5529 H   0  0  0  0  0  0
  -34.1988  -20.8960   23.2612 H   0  0  0  0  0  0
  -30.3824  -25.3964   21.5797 H   0  0  0  0  0  0
  -29.2762  -24.7877   22.8240 H   0  0  0  0  0  0
  -29.2108  -26.4746   22.3483 H   0  0  0  0  0  0
  -30.5993  -17.3267   19.4342 H   0  0  0  0  0  0
  -29.0205  -17.6385   20.0415 H   0  0  0  0  0  0
  -30.3948  -22.7573   21.1934 H   0  0  0  0  0  0
  -29.0109  -22.4478   22.1750 H   0  0  0  0  0  0
  -27.5351  -23.2083   20.1961 H   0  0  0  0  0  0
  -28.9431  -23.6408   19.3111 H   0  0  0  0  0  0
  -29.6424  -20.7805   19.6317 H   0  0  0  0  0  0
  -28.3623  -20.4421   20.7696 H   0  0  0  0  0  0
  -32.9383  -18.4584   24.5852 H   0  0  0  0  0  0
  -27.3691  -25.0981   21.3902 H   0  0  0  0  0  0
  -28.9838  -15.6325   21.1964 H   0  0  0  0  0  0
  1 25  1  0  0  0
  1 30  2  0  0  0
  1 86  1  0  0  0
  2  3  1  0  0  0
  2 25  1  0  0  0
  2 87  1  0  0  0
  2 88  1  0  0  0
  3  4  1  0  0  0
  3 89  1  0  0  0
  3 90  1  0  0  0
  4  5  1  0  0  0
  4 91  1  0  0  0
  4 92  1  0  0  0
  5  6  1  0  0  0
  5 26  1  0  0  0
  5 93  1  0  0  0
  6 25  1  0  0  0
  6 94  1  0  0  0
  6 95  1  0  0  0
  7  8  2  0  0  0
  7 26  1  0  0  0
  7 29  1  0  0  0
  8  9  1  0  0  0
  8 22  1  0  0  0
  9 10  1  0  0  0
  9 27  2  0  0  0
 10 11  2  0  0  0
 10 15  1  0  0  0
 11 12  1  0  0  0
 11 96  1  0  0  0
 12 13  2  0  0  0
 12 97  1  0  0  0
 13 14  1  0  0  0
 13 31  1  0  0  0
 14 15  2  0  0  0
 14 98  1  0  0  0
 15 99  1  0  0  0
 16 17  2  0  0  0
 16 21  1  0  0  0
 16 31  1  0  0  0
 17 18  1  0  0  0
 17100  1  0  0  0
 18 19  2  0  0  0
 18101  1  0  0  0
 19 20  1  0  0  0
 19 24  1  0  0  0
 20 21  2  0  0  0
 20102  1  0  0  0
 21 23  1  0  0  0
 22 28  1  0  0  0
 22 32  2  0  0  0
 26 27  1  0  0  0
 28103  1  0  0  0
 28104  1  0  0  0
 29105  1  0  0  0
 29106  1  0  0  0
 33 34  1  0  0  0
 33 66  1  0  0  0
 33 70  2  0  0  0
 34 36  1  0  0  0
 34 59  1  0  0  0
 34107  1  0  0  0
 35 44  2  0  0  0
 35 45  1  0  0  0
 35 68  1  0  0  0
 36 56  1  0  0  0
 36108  1  0  0  0
 37 39  1  0  0  0
 37 47  1  0  0  0
 37 66  1  0  0  0
 37109  1  0  0  0
 38 43  2  0  0  0
 38 46  1  0  0  0
 38 47  1  0  0  0
 39 64  1  0  0  0
 39 67  2  0  0  0
 40 52  1  0  0  0
 40 53  2  0  0  0
 40 58  1  0  0  0
 41110  1  0  0  0
 41111  1  0  0  0
 41112  1  0  0  0
 41 48  1  0  0  0
 42 43  1  0  0  0
 42 66  1  0  0  0
 42113  1  0  0  0
 42114  1  0  0  0
 43 44  1  0  0  0
 44115  1  0  0  0
 45 46  2  0  0  0
 45116  1  0  0  0
 46117  1  0  0  0
 47118  1  0  0  0
 47119  1  0  0  0
 48 56  1  0  0  0
 48 65  1  0  0  0
 48120  1  0  0  0
 49 50  1  0  0  0
 49 53  1  0  0  0
 49 64  1  0  0  0
 49121  1  0  0  0
 50 51  1  0  0  0
 50122  1  0  0  0
 50123  1  0  0  0
 51 52  1  0  0  0
 51124  1  0  0  0
 51125  1  0  0  0
 52126  1  0  0  0
 52127  1  0  0  0
 53 54  1  0  0  0
 54 55  2  0  0  0
 54128  1  0  0  0
 55 57  1  0  0  0
 55129  1  0  0  0
 56 69  2  0  0  0
 57 58  2  0  0  0
 57130  1  0  0  0
 58131  1  0  0  0
 59 60  1  0  0  0
 59 61  1  0  0  0
 59 62  1  0  0  0
 60132  1  0  0  0
 60133  1  0  0  0
 60134  1  0  0  0
 61135  1  0  0  0
 61136  1  0  0  0
 61137  1  0  0  0
 62138  1  0  0  0
 62139  1  0  0  0
 62140  1  0  0  0
 63 65  1  0  0  0
 63141  1  0  0  0
 63142  1  0  0  0
 63143  1  0  0  0
 64144  1  0  0  0
 65145  1  0  0  0
 68 84  1  0  0  0
 71 72  2  0  0  0
 71 85  1  0  0  0
 71146  1  0  0  0
 72 73  1  0  0  0
 72 83  1  0  0  0
 73 74  2  0  0  0
 73 75  1  0  0  0
 74 79  1  0  0  0
 74 85  1  0  0  0
 75147  1  0  0  0
 75148  1  0  0  0
 75149  1  0  0  0
 76150  1  0  0  0
 76151  1  0  0  0
 76152  1  0  0  0
 76 83  1  0  0  0
 77 83  1  0  0  0
 77153  1  0  0  0
 77154  1  0  0  0
 77155  1  0  0  0
 78156  1  0  0  0
 78157  1  0  0  0
 78158  1  0  0  0
 78 84  1  0  0  0
 79 86  1  0  0  0
 79159  1  0  0  0
 79160  1  0  0  0
 80 81  1  0  0  0
 80 82  1  0  0  0
 80161  1  0  0  0
 80162  1  0  0  0
 81 84  1  0  0  0
 81163  1  0  0  0
 81164  1  0  0  0
 82 85  1  0  0  0
 82165  1  0  0  0
 82166  1  0  0  0
 83167  1  0  0  0
 84168  1  0  0  0
 86169  1  0  0  0
M  ISO  4   1 100  68 101  84 101  86 100
M  END
> <chiral flag>
0

> <version>
0

> <s_m_source_file>
/data/baiqing/PycharmProjects/Reinvent-master-3.2/result/LINK_invent/BTK/process_docking_weight1_custom_sum_contain_oxygen_bond_distance_aromatic_linkinvent_7_9_3/rearranged_h_0095.sdf

> <i_m_source_file_index>
35

> <r_mmod_Potential_Energy-OPLS-2005>
148.804275512695

> <r_mmod_Stretch_Energy-OPLS-2005>
153.102676391602

> <r_mmod_Bend_Energy-OPLS-2005>
214.769638061523

> <r_mmod_Torsional_Energy-OPLS-2005>
253.40983581543

> <r_mmod_Improper_Torsional_Energy-OPLS-2005>
5.30943059921265

> <r_mmod_Van_der_Waal_Energy-OPLS-2005>
114.316131591797

> <r_mmod_Electrostatic_Energy-OPLS-2005>
-461.240692138672

> <r_mmod_Solvation_Energy-OPLS-2005>
-209.339691162109

> <b_mmod_Minimization_Converged-OPLS-2005>
0

> <r_mmod_RMS_Derivative-OPLS-2005>
7.12973785400391

$$$$
35
                    3D
 Structure written by MMmdl.
177185  0  0  1  0            999 V2000
  -30.7420  -14.3908   20.6397 C   0  0  0  0  0  0
  -30.4198  -12.2860   19.3985 C   0  0  0  0  0  0
  -29.4872  -12.5239   18.1941 C   0  0  0  0  0  0
  -28.0080  -12.3932   18.6075 C   0  0  0  0  0  0
  -27.6688  -13.2047   19.8864 C   0  0  2  0  0  0
  -28.7098  -12.9351   20.9969 C   0  0  0  0  0  0
  -25.2616  -13.8175   20.5708 C   0  0  0  0  0  0
  -24.1861  -13.0455   20.9184 C   0  0  0  0  0  0
  -24.6400  -11.6909   20.8735 C   0  0  0  0  0  0
  -23.9062  -10.4293   21.0399 C   0  0  0  0  0  0
  -24.3613   -9.4211   21.9180 C   0  0  0  0  0  0
  -23.6288   -8.2246   22.0750 C   0  0  0  0  0  0
  -22.4274   -8.0283   21.3536 C   0  0  0  0  0  0
  -21.9908   -9.0257   20.4640 C   0  0  0  0  0  0
  -22.7234  -10.2138   20.3050 C   0  0  0  0  0  0
  -21.6856   -6.0737   22.5280 C   0  0  0  0  0  0
  -21.4010   -6.5641   23.8211 C   0  0  0  0  0  0
  -21.3658   -5.6794   24.9173 C   0  0  0  0  0  0
  -21.6041   -4.3057   24.7220 C   0  0  0  0  0  0
  -21.8820   -3.8148   23.4340 C   0  0  0  0  0  0
  -21.9190   -4.6967   22.3396 C   0  0  0  0  0  0
  -22.7874  -13.5246   21.1834 C   0  0  0  0  0  0
  -22.1665   -4.2156   21.0974 F   0  0  0  0  0  0
  -21.5624   -3.4538   25.7728 F   0  0  0  0  0  0
  -30.0502  -13.2358   20.4579 N   0  0  0  0  0  0
  -26.3062  -12.9340   20.3416 N   0  0  0  0  0  0
  -25.9326  -11.6497   20.5766 N   0  0  0  0  0  0
  -22.0500  -12.8244   22.0385 N   0  0  0  0  0  0
  -25.4355  -15.1892   20.4111 N   0  0  0  0  0  0
  -31.7937  -14.6522   20.0473 O   0  0  0  0  0  0
  -21.6637   -6.8881   21.4239 O   0  0  0  0  0  0
  -22.3559  -14.5558   20.6685 O   0  0  0  0  0  0
  -24.6157  -31.8658   23.2087 C   0  0  0  0  0  0
  -25.9044  -32.4809   23.8383 C   0  0  1  0  0  0
  -27.2324  -27.4299   20.0976 C   0  0  0  0  0  0
  -25.5893  -33.8618   24.2305 N   0  0  0  0  0  0
  -23.4041  -30.4883   21.5492 C   0  0  2  0  0  0
  -24.8496  -28.9523   20.1131 C   0  0  0  0  0  0
  -22.7413  -29.4644   22.4984 C   0  0  0  0  0  0
  -18.0260  -28.1387   22.8492 C   0  0  0  0  0  0
  -24.1490  -36.7308   23.2636 C   0  0  0  0  0  0
  -25.9329  -30.8315   21.3604 C   0  0  0  0  0  0
  -26.0099  -29.4673   20.7040 C   0  0  0  0  0  0
  -27.2074  -28.7154   20.6847 C   0  0  0  0  0  0
  -26.0538  -26.9246   19.5097 C   0  0  0  0  0  0
  -24.8673  -27.6823   19.5098 C   0  0  0  0  0  0
  -23.6114  -29.8180   20.1635 C   0  0  0  0  0  0
  -25.4114  -36.3107   24.0325 C   0  0  1  0  0  0
  -20.5856  -28.3671   23.1328 C   0  0  2  0  0  0
  -20.6756  -26.9408   22.5427 C   0  0  0  0  0  0
  -19.5725  -26.6392   21.5232 C   0  0  0  0  0  0
  -18.1895  -26.7940   22.1628 C   0  0  0  0  0  0
  -19.1509  -28.8850   23.2903 C   0  0  0  0  0  0
  -18.9444  -30.1455   23.8922 C   0  0  0  0  0  0
  -17.6440  -30.6590   24.0575 C   0  0  0  0  0  0
  -25.9042  -34.9470   23.5112 C   0  0  0  0  0  0
  -16.5333  -29.9086   23.6335 C   0  0  0  0  0  0
  -16.7250  -28.6512   23.0344 C   0  0  0  0  0  0
  -26.4469  -31.6605   25.0722 C   0  0  0  0  0  0
  -25.3734  -31.3695   26.1465 C   0  0  0  0  0  0
  -27.0305  -30.3061   24.6091 C   0  0  0  0  0  0
  -27.6043  -32.4335   25.7466 C   0  0  0  0  0  0
  -27.5577  -37.1795   24.8459 C   0  0  0  0  0  0
  -21.4132  -29.3037   22.3738 N   0  0  0  0  0  0
  -26.4290  -37.3796   23.9407 N   0  0  0  0  0  0
  -24.6692  -31.0754   22.0984 N   0  0  0  0  0  0
  -23.4178  -28.8183   23.3020 O   0  0  0  0  0  0
  -28.3997  -26.6941   20.0925 O   0  0  0  0  0  0
  -26.5602  -34.8922   22.4670 O   0  0  0  0  0  0
  -23.5349  -32.1417   23.7473 O   0  0  0  0  0  0
  -28.2302  -22.8098   20.0850 C   0  0  0  0  0  0
  -28.4168  -24.1457   19.5773 C   0  0  0  0  0  0
  -28.2612  -21.7135   19.1598 C   0  0  0  0  0  0
  -28.6888  -24.2558   18.1769 C   0  0  0  0  0  0
  -28.0153  -22.5598   21.5844 C   0  0  0  0  0  0
  -27.8938  -25.8711   16.3852 C   0  0  0  0  0  0
  -30.3799  -25.4404   16.6899 C   0  0  0  0  0  0
  -28.3321  -19.2530   18.3464 C   0  0  0  0  0  0
  -26.3274  -20.1425   19.4883 C   0  0  0  0  0  0
  -28.3224  -25.3389   20.5658 C   0  0  0  0  0  0
  -30.5334  -16.6914   21.5855 C   0  0  0  0  0  0
  -29.6765  -19.0848   20.9504 C   0  0  0  0  0  0
  -29.0107  -25.5329   17.3885 C   0  0  0  0  0  0
  -29.4354  -17.5526   20.9278 C   0  0  2  0  0  0
  -27.8692  -20.2289   19.4707 C   0  0  0  0  0  0
  -28.4457  -21.9518   17.8409 N   0  0  0  0  0  0
  -28.6826  -23.1689   17.3711 N   0  0  0  0  0  0
  -28.1704  -17.2716   21.6063 N   0  0  0  0  0  0
  -30.1711  -15.2754   21.4660 N   0  0  0  0  0  0
  -28.3684  -19.7622   20.7960 N   0  3  0  0  0  0
  -31.4637  -12.3843   19.0941 H   0  0  0  0  0  0
  -30.3163  -11.2632   19.7639 H   0  0  0  0  0  0
  -29.7169  -11.8161   17.3961 H   0  0  0  0  0  0
  -29.6651  -13.5171   17.7786 H   0  0  0  0  0  0
  -27.7997  -11.3353   18.7687 H   0  0  0  0  0  0
  -27.3629  -12.7055   17.7856 H   0  0  0  0  0  0
  -27.7299  -14.2609   19.6242 H   0  0  0  0  0  0
  -28.6732  -11.8864   21.2976 H   0  0  0  0  0  0
  -28.4676  -13.4953   21.8999 H   0  0  0  0  0  0
  -25.2755   -9.5695   22.4754 H   0  0  0  0  0  0
  -23.9998   -7.4639   22.7472 H   0  0  0  0  0  0
  -21.0844   -8.8770   19.8945 H   0  0  0  0  0  0
  -22.3690  -10.9674   19.6159 H   0  0  0  0  0  0
  -21.2006   -7.6150   23.9721 H   0  0  0  0  0  0
  -21.1479   -6.0518   25.9078 H   0  0  0  0  0  0
  -22.0599   -2.7609   23.2835 H   0  0  0  0  0  0
  -22.4087  -11.9890   22.4762 H   0  0  0  0  0  0
  -21.1117  -13.1273   22.2572 H   0  0  0  0  0  0
  -24.6743  -15.8465   20.5365 H   0  0  0  0  0  0
  -26.2750  -15.6281   20.0596 H   0  0  0  0  0  0
  -26.7113  -32.5523   23.1141 H   0  0  0  0  0  0
  -25.0061  -33.9807   25.0463 H   0  0  0  0  0  0
  -22.6937  -31.3052   21.4088 H   0  0  0  0  0  0
  -23.3750  -35.9640   23.3306 H   0  0  0  0  0  0
  -24.3580  -36.8936   22.2047 H   0  0  0  0  0  0
  -23.7255  -37.6507   23.6676 H   0  0  0  0  0  0
  -26.0509  -31.6004   20.5943 H   0  0  0  0  0  0
  -26.8184  -30.8818   21.9824 H   0  0  0  0  0  0
  -28.1080  -29.1061   21.1377 H   0  0  0  0  0  0
  -26.0488  -25.9457   19.0523 H   0  0  0  0  0  0
  -23.9757  -27.2789   19.0509 H   0  0  0  0  0  0
  -23.7150  -30.5935   19.4027 H   0  0  0  0  0  0
  -22.7360  -29.2330   19.8716 H   0  0  0  0  0  0
  -25.1300  -36.1952   25.0817 H   0  0  0  0  0  0
  -20.9946  -28.3228   24.1445 H   0  0  0  0  0  0
  -20.5675  -26.2267   23.3608 H   0  0  0  0  0  0
  -21.6622  -26.7449   22.1203 H   0  0  0  0  0  0
  -19.6894  -25.6311   21.1236 H   0  0  0  0  0  0
  -19.6686  -27.3213   20.6775 H   0  0  0  0  0  0
  -17.4179  -26.6708   21.4011 H   0  0  0  0  0  0
  -18.0286  -26.0087   22.9023 H   0  0  0  0  0  0
  -19.7916  -30.7273   24.2292 H   0  0  0  0  0  0
  -17.4992  -31.6279   24.5165 H   0  0  0  0  0  0
  -15.5333  -30.2988   23.7681 H   0  0  0  0  0  0
  -15.8652  -28.0854   22.7041 H   0  0  0  0  0  0
  -24.5932  -30.7015   25.7800 H   0  0  0  0  0  0
  -24.8888  -32.2840   26.4899 H   0  0  0  0  0  0
  -25.8087  -30.8884   27.0233 H   0  0  0  0  0  0
  -26.2846  -29.6809   24.1171 H   0  0  0  0  0  0
  -27.4118  -29.7313   25.4538 H   0  0  0  0  0  0
  -27.8664  -30.4391   23.9221 H   0  0  0  0  0  0
  -27.2662  -33.3645   26.2026 H   0  0  0  0  0  0
  -28.3833  -32.6877   25.0268 H   0  0  0  0  0  0
  -28.0731  -31.8478   26.5381 H   0  0  0  0  0  0
  -28.2574  -38.0109   24.7519 H   0  0  0  0  0  0
  -28.1085  -36.2631   24.6260 H   0  0  0  0  0  0
  -27.2295  -37.1414   25.8864 H   0  0  0  0  0  0
  -20.9287  -29.8764   21.6973 H   0  0  0  0  0  0
  -26.0169  -38.2866   24.1426 H   0  0  0  0  0  0
  -27.8409  -23.4462   22.1851 H   0  0  0  0  0  0
  -28.9016  -22.0891   22.0116 H   0  0  0  0  0  0
  -27.1523  -21.9208   21.7666 H   0  0  0  0  0  0
  -26.9317  -25.9910   16.8846 H   0  0  0  0  0  0
  -27.7774  -25.0877   15.6345 H   0  0  0  0  0  0
  -28.1084  -26.8019   15.8613 H   0  0  0  0  0  0
  -31.1733  -25.2415   17.4098 H   0  0  0  0  0  0
  -30.6228  -26.3731   16.1809 H   0  0  0  0  0  0
  -30.4035  -24.6456   15.9435 H   0  0  0  0  0  0
  -27.8798  -19.5025   17.3857 H   0  0  0  0  0  0
  -28.0202  -18.2289   18.5472 H   0  0  0  0  0  0
  -29.4116  -19.2645   18.1926 H   0  0  0  0  0  0
  -25.9103  -20.4549   18.5306 H   0  0  0  0  0  0
  -25.8821  -20.7784   20.2525 H   0  0  0  0  0  0
  -25.9844  -19.1234   19.6711 H   0  0  0  0  0  0
  -29.1339  -25.2239   21.2839 H   0  0  0  0  0  0
  -27.4000  -25.2310   21.1390 H   0  0  0  0  0  0
  -30.6439  -16.9361   22.6435 H   0  0  0  0  0  0
  -31.5022  -16.8992   21.1252 H   0  0  0  0  0  0
  -30.4144  -19.4068   20.2152 H   0  0  0  0  0  0
  -30.0786  -19.3712   21.9231 H   0  0  0  0  0  0
  -29.1147  -26.3868   18.0366 H   0  0  0  0  0  0
  -29.3439  -17.2320   19.8898 H   0  0  0  0  0  0
  -28.3281  -17.2548   22.6102 H   0  0  0  0  0  0
  -27.8859  -16.3204   21.4048 H   0  0  0  0  0  0
  -29.3365  -14.9680   21.9412 H   0  0  0  0  0  0
  -28.2978  -20.5099   21.4654 H   0  0  0  0  0  0
  -27.7750  -18.9958   21.1098 H   0  0  0  0  0  0
  1 25  1  0  0  0
  1 30  2  0  0  0
  1 89  1  0  0  0
  2  3  1  0  0  0
  2 25  1  0  0  0
  2 91  1  0  0  0
  2 92  1  0  0  0
  3  4  1  0  0  0
  3 93  1  0  0  0
  3 94  1  0  0  0
  4  5  1  0  0  0
  4 95  1  0  0  0
  4 96  1  0  0  0
  5  6  1  0  0  0
  5 26  1  0  0  0
  5 97  1  0  0  0
  6 25  1  0  0  0
  6 98  1  0  0  0
  6 99  1  0  0  0
  7  8  2  0  0  0
  7 26  1  0  0  0
  7 29  1  0  0  0
  8  9  1  0  0  0
  8 22  1  0  0  0
  9 10  1  0  0  0
  9 27  2  0  0  0
 10 11  2  0  0  0
 10 15  1  0  0  0
 11 12  1  0  0  0
 11100  1  0  0  0
 12 13  2  0  0  0
 12101  1  0  0  0
 13 14  1  0  0  0
 13 31  1  0  0  0
 14 15  2  0  0  0
 14102  1  0  0  0
 15103  1  0  0  0
 16 17  2  0  0  0
 16 21  1  0  0  0
 16 31  1  0  0  0
 17 18  1  0  0  0
 17104  1  0  0  0
 18 19  2  0  0  0
 18105  1  0  0  0
 19 20  1  0  0  0
 19 24  1  0  0  0
 20 21  2  0  0  0
 20106  1  0  0  0
 21 23  1  0  0  0
 22 28  1  0  0  0
 22 32  2  0  0  0
 26 27  1  0  0  0
 28107  1  0  0  0
 28108  1  0  0  0
 29109  1  0  0  0
 29110  1  0  0  0
 33 34  1  0  0  0
 33 66  1  0  0  0
 33 70  2  0  0  0
 34 36  1  0  0  0
 34 59  1  0  0  0
 34111  1  0  0  0
 35 44  2  0  0  0
 35 45  1  0  0  0
 35 68  1  0  0  0
 36 56  1  0  0  0
 36112  1  0  0  0
 37 39  1  0  0  0
 37 47  1  0  0  0
 37 66  1  0  0  0
 37113  1  0  0  0
 38 43  2  0  0  0
 38 46  1  0  0  0
 38 47  1  0  0  0
 39 64  1  0  0  0
 39 67  2  0  0  0
 40 52  1  0  0  0
 40 53  2  0  0  0
 40 58  1  0  0  0
 41114  1  0  0  0
 41115  1  0  0  0
 41116  1  0  0  0
 41 48  1  0  0  0
 42 43  1  0  0  0
 42 66  1  0  0  0
 42117  1  0  0  0
 42118  1  0  0  0
 43 44  1  0  0  0
 44119  1  0  0  0
 45 46  2  0  0  0
 45120  1  0  0  0
 46121  1  0  0  0
 47122  1  0  0  0
 47123  1  0  0  0
 48 56  1  0  0  0
 48 65  1  0  0  0
 48124  1  0  0  0
 49 50  1  0  0  0
 49 53  1  0  0  0
 49 64  1  0  0  0
 49125  1  0  0  0
 50 51  1  0  0  0
 50126  1  0  0  0
 50127  1  0  0  0
 51 52  1  0  0  0
 51128  1  0  0  0
 51129  1  0  0  0
 52130  1  0  0  0
 52131  1  0  0  0
 53 54  1  0  0  0
 54 55  2  0  0  0
 54132  1  0  0  0
 55 57  1  0  0  0
 55133  1  0  0  0
 56 69  2  0  0  0
 57 58  2  0  0  0
 57134  1  0  0  0
 58135  1  0  0  0
 59 60  1  0  0  0
 59 61  1  0  0  0
 59 62  1  0  0  0
 60136  1  0  0  0
 60137  1  0  0  0
 60138  1  0  0  0
 61139  1  0  0  0
 61140  1  0  0  0
 61141  1  0  0  0
 62142  1  0  0  0
 62143  1  0  0  0
 62144  1  0  0  0
 63 65  1  0  0  0
 63145  1  0  0  0
 63146  1  0  0  0
 63147  1  0  0  0
 64148  1  0  0  0
 65149  1  0  0  0
 68 80  1  0  0  0
 71 72  2  0  0  0
 71 73  1  0  0  0
 71 75  1  0  0  0
 72 74  1  0  0  0
 72 80  1  0  0  0
 73 85  1  0  0  0
 73 86  2  0  0  0
 74 83  1  0  0  0
 74 87  2  0  0  0
 75150  1  0  0  0
 75151  1  0  0  0
 75152  1  0  0  0
 76153  1  0  0  0
 76154  1  0  0  0
 76155  1  0  0  0
 76 83  1  0  0  0
 77 83  1  0  0  0
 77156  1  0  0  0
 77157  1  0  0  0
 77158  1  0  0  0
 78159  1  0  0  0
 78160  1  0  0  0
 78161  1  0  0  0
 78 85  1  0  0  0
 79 85  1  0  0  0
 79162  1  0  0  0
 79163  1  0  0  0
 79164  1  0  0  0
 80165  1  0  0  0
 80166  1  0  0  0
 81 84  1  0  0  0
 81 89  1  0  0  0
 81167  1  0  0  0
 81168  1  0  0  0
 82 84  1  0  0  0
 82 90  1  0  0  0
 82169  1  0  0  0
 82170  1  0  0  0
 83171  1  0  0  0
 84 88  1  0  0  0
 84172  1  0  0  0
 85 90  1  0  0  0
 86 87  1  0  0  0
 88173  1  0  0  0
 88174  1  0  0  0
 89175  1  0  0  0
 90176  1  0  0  0
 90177  1  0  0  0
M  CHG  1  90   1
M  ISO  4   1 100  68 101  80 101  89 100
M  END
> <chiral flag>
0

> <version>
0

> <s_m_source_file>
/data/baiqing/PycharmProjects/Reinvent-master-3.2/result/LINK_invent/BTK/process_docking_weight1_custom_sum_contain_oxygen_bond_distance_aromatic_linkinvent_7_9_3/rearranged_h_0095.sdf

> <i_m_source_file_index>
36

> <r_mmod_Potential_Energy-OPLS-2005>
-263.720550537109

> <r_mmod_Stretch_Energy-OPLS-2005>
51.8691329956055

> <r_mmod_Bend_Energy-OPLS-2005>
145.276885986328

> <r_mmod_Torsional_Energy-OPLS-2005>
246.039367675781

> <r_mmod_Improper_Torsional_Energy-OPLS-2005>
3.30736017227173

> <r_mmod_Van_der_Waal_Energy-OPLS-2005>
190.471328735352

> <r_mmod_Electrostatic_Energy-OPLS-2005>
-433.112365722656

> <r_mmod_Solvation_Energy-OPLS-2005>
-476.185577392578

> <b_mmod_Minimization_Converged-OPLS-2005>
0

> <r_mmod_RMS_Derivative-OPLS-2005>
2.29349160194397

$$$$
36
                    3D
 Structure written by MMmdl.
159166  0  0  1  0            999 V2000
  -30.6381  -14.6547   20.5658 C   0  0  0  0  0  0
  -30.4426  -12.4225   19.4563 C   0  0  0  0  0  0
  -29.5144  -12.5333   18.2241 C   0  0  0  0  0  0
  -28.0318  -12.3657   18.6208 C   0  0  0  0  0  0
  -27.6549  -13.2138   19.8643 C   0  0  2  0  0  0
  -28.6963  -13.0040   20.9799 C   0  0  0  0  0  0
  -25.2555  -13.8151   20.5635 C   0  0  0  0  0  0
  -24.1826  -13.0432   20.9167 C   0  0  0  0  0  0
  -24.6390  -11.6899   20.8711 C   0  0  0  0  0  0
  -23.9053  -10.4292   21.0392 C   0  0  0  0  0  0
  -24.3604   -9.4213   21.9176 C   0  0  0  0  0  0
  -23.6280   -8.2249   22.0751 C   0  0  0  0  0  0
  -22.4263   -8.0279   21.3538 C   0  0  0  0  0  0
  -21.9894   -9.0253   20.4641 C   0  0  0  0  0  0
  -22.7221  -10.2134   20.3048 C   0  0  0  0  0  0
  -21.6853   -6.0731   22.5276 C   0  0  0  0  0  0
  -21.4018   -6.5634   23.8211 C   0  0  0  0  0  0
  -21.3661   -5.6783   24.9172 C   0  0  0  0  0  0
  -21.6044   -4.3046   24.7216 C   0  0  0  0  0  0
  -21.8822   -3.8141   23.4336 C   0  0  0  0  0  0
  -21.9196   -4.6959   22.3396 C   0  0  0  0  0  0
  -22.7852  -13.5238   21.1841 C   0  0  0  0  0  0
  -22.1660   -4.2147   21.0970 F   0  0  0  0  0  0
  -21.5627   -3.4529   25.7729 F   0  0  0  0  0  0
  -30.0036  -13.4307   20.4549 N   0  0  0  0  0  0
  -26.2988  -12.9330   20.3277 N   0  0  0  0  0  0
  -25.9312  -11.6484   20.5700 N   0  0  0  0  0  0
  -22.0476  -12.8246   22.0392 N   0  0  0  0  0  0
  -25.4250  -15.1868   20.4013 N   0  0  0  0  0  0
  -31.7653  -14.7697   20.0740 O   0  0  0  0  0  0
  -21.6633   -6.8875   21.4237 O   0  0  0  0  0  0
  -22.3543  -14.5548   20.6691 O   0  0  0  0  0  0
  -24.6246  -31.8599   23.2006 C   0  0  0  0  0  0
  -25.9098  -32.4782   23.8340 C   0  0  1  0  0  0
  -27.2309  -27.3299   20.1274 C   0  0  0  0  0  0
  -25.5916  -33.8582   24.2274 N   0  0  0  0  0  0
  -23.4183  -30.4796   21.5433 C   0  0  2  0  0  0
  -24.8661  -28.9237   20.1200 C   0  0  0  0  0  0
  -22.7466  -29.4628   22.4958 C   0  0  0  0  0  0
  -18.0287  -28.1374   22.8489 C   0  0  0  0  0  0
  -24.1489  -36.7292   23.2639 C   0  0  0  0  0  0
  -25.9557  -30.7946   21.3669 C   0  0  0  0  0  0
  -26.0326  -29.4187   20.7170 C   0  0  0  0  0  0
  -27.2212  -28.6347   20.7046 C   0  0  0  0  0  0
  -26.0434  -26.8681   19.5268 C   0  0  0  0  0  0
  -24.8713  -27.6527   19.5177 C   0  0  0  0  0  0
  -23.6332  -29.8037   20.1623 C   0  0  0  0  0  0
  -25.4114  -36.3087   24.0330 C   0  0  1  0  0  0
  -20.5884  -28.3695   23.1303 C   0  0  2  0  0  0
  -20.6786  -26.9419   22.5431 C   0  0  0  0  0  0
  -19.5774  -26.6388   21.5223 C   0  0  0  0  0  0
  -18.1949  -26.7921   22.1625 C   0  0  0  0  0  0
  -19.1534  -28.8852   23.2888 C   0  0  0  0  0  0
  -18.9443  -30.1457   23.8891 C   0  0  0  0  0  0
  -17.6441  -30.6586   24.0543 C   0  0  0  0  0  0
  -25.9050  -34.9454   23.5104 C   0  0  0  0  0  0
  -16.5339  -29.9073   23.6311 C   0  0  0  0  0  0
  -16.7271  -28.6487   23.0344 C   0  0  0  0  0  0
  -26.4488  -31.6591   25.0708 C   0  0  0  0  0  0
  -25.3725  -31.3725   26.1440 C   0  0  0  0  0  0
  -27.0328  -30.3020   24.6143 C   0  0  0  0  0  0
  -27.6052  -32.4323   25.7479 C   0  0  0  0  0  0
  -27.5580  -37.1802   24.8465 C   0  0  0  0  0  0
  -21.4183  -29.3045   22.3693 N   0  0  0  0  0  0
  -26.4294  -37.3777   23.9409 N   0  0  0  0  0  0
  -24.6850  -31.0618   22.0944 N   0  0  0  0  0  0
  -23.4192  -28.8178   23.3047 O   0  0  0  0  0  0
  -28.3751  -26.5329   20.0819 O   0  0  0  0  0  0
  -26.5622  -34.8919   22.4671 O   0  0  0  0  0  0
  -23.5415  -32.1391   23.7344 O   0  0  0  0  0  0
  -28.8478  -15.8864   22.1550 C   0  0  0  0  0  0
  -27.2216  -20.8124   20.8473 C   0  0  0  0  0  0
  -28.3336  -23.8653   19.8933 C   0  0  0  0  0  0
  -29.0621  -22.5653   20.4865 C   0  0  0  0  0  0
  -29.9650  -17.3063   20.2684 C   0  0  0  0  0  0
  -29.2876  -18.6467   20.8382 C   0  0  0  0  0  0
  -28.3787  -25.2135   20.7399 C   0  0  0  0  0  0
  -30.0578  -16.0080   21.2115 C   0  0  2  0  0  0
  -28.5258  -21.1133   20.0807 C   0  0  1  0  0  0
  -29.5346  -19.9568   20.0932 N   0  3  0  0  0  0
  -31.4817  -12.5516   19.1501 H   0  0  0  0  0  0
  -30.4005  -11.4176   19.8789 H   0  0  0  0  0  0
  -29.7901  -11.7875   17.4773 H   0  0  0  0  0  0
  -29.6583  -13.5061   17.7511 H   0  0  0  0  0  0
  -27.8622  -11.3089   18.8316 H   0  0  0  0  0  0
  -27.3853  -12.6162   17.7788 H   0  0  0  0  0  0
  -27.6909  -14.2602   19.5608 H   0  0  0  0  0  0
  -28.7329  -11.9452   21.2410 H   0  0  0  0  0  0
  -28.3969  -13.4655   21.9096 H   0  0  0  0  0  0
  -25.2746   -9.5687   22.4754 H   0  0  0  0  0  0
  -23.9987   -7.4642   22.7471 H   0  0  0  0  0  0
  -21.0823   -8.8773   19.8950 H   0  0  0  0  0  0
  -22.3678  -10.9672   19.6154 H   0  0  0  0  0  0
  -21.2014   -7.6144   23.9716 H   0  0  0  0  0  0
  -21.1476   -6.0507   25.9077 H   0  0  0  0  0  0
  -22.0601   -2.7602   23.2831 H   0  0  0  0  0  0
  -22.4068  -11.9908   22.4799 H   0  0  0  0  0  0
  -21.1095  -13.1291   22.2572 H   0  0  0  0  0  0
  -24.6588  -15.8417   20.5103 H   0  0  0  0  0  0
  -26.2759  -15.6221   20.0705 H   0  0  0  0  0  0
  -26.7164  -32.5456   23.1094 H   0  0  0  0  0  0
  -25.0066  -33.9724   25.0420 H   0  0  0  0  0  0
  -22.7117  -31.2991   21.3954 H   0  0  0  0  0  0
  -23.3753  -35.9623   23.3310 H   0  0  0  0  0  0
  -24.3577  -36.8904   22.2051 H   0  0  0  0  0  0
  -23.7242  -37.6495   23.6656 H   0  0  0  0  0  0
  -26.0814  -31.5550   20.5950 H   0  0  0  0  0  0
  -26.8387  -30.8496   21.9925 H   0  0  0  0  0  0
  -28.1259  -29.0177   21.1562 H   0  0  0  0  0  0
  -26.0251  -25.8936   19.0593 H   0  0  0  0  0  0
  -23.9750  -27.2665   19.0521 H   0  0  0  0  0  0
  -23.7505  -30.5741   19.3991 H   0  0  0  0  0  0
  -22.7539  -29.2293   19.8652 H   0  0  0  0  0  0
  -25.1298  -36.1940   25.0822 H   0  0  0  0  0  0
  -20.9969  -28.3276   24.1425 H   0  0  0  0  0  0
  -20.5701  -26.2301   23.3628 H   0  0  0  0  0  0
  -21.6659  -26.7466   22.1223 H   0  0  0  0  0  0
  -19.6951  -25.6302   21.1248 H   0  0  0  0  0  0
  -19.6716  -27.3210   20.6760 H   0  0  0  0  0  0
  -17.4224  -26.6655   21.4024 H   0  0  0  0  0  0
  -18.0355  -26.0058   22.9017 H   0  0  0  0  0  0
  -19.7909  -30.7280   24.2267 H   0  0  0  0  0  0
  -17.4983  -31.6271   24.5128 H   0  0  0  0  0  0
  -15.5338  -30.2967   23.7619 H   0  0  0  0  0  0
  -15.8677  -28.0794   22.7060 H   0  0  0  0  0  0
  -24.5899  -30.7077   25.7769 H   0  0  0  0  0  0
  -24.8914  -32.2887   26.4871 H   0  0  0  0  0  0
  -25.8051  -30.8898   27.0212 H   0  0  0  0  0  0
  -26.2889  -29.6777   24.1177 H   0  0  0  0  0  0
  -27.4052  -29.7273   25.4633 H   0  0  0  0  0  0
  -27.8748  -30.4324   23.9340 H   0  0  0  0  0  0
  -27.2669  -33.3622   26.2064 H   0  0  0  0  0  0
  -28.3857  -32.6887   25.0303 H   0  0  0  0  0  0
  -28.0727  -31.8442   26.5387 H   0  0  0  0  0  0
  -28.2605  -38.0091   24.7507 H   0  0  0  0  0  0
  -28.1069  -36.2622   24.6304 H   0  0  0  0  0  0
  -27.2294  -37.1465   25.8867 H   0  0  0  0  0  0
  -20.9369  -29.8737   21.6875 H   0  0  0  0  0  0
  -26.0180  -38.2856   24.1400 H   0  0  0  0  0  0
  -28.6657  -16.8130   22.6969 H   0  0  0  0  0  0
  -29.0340  -15.1498   22.9357 H   0  0  0  0  0  0
  -27.9294  -15.6458   21.6230 H   0  0  0  0  0  0
  -26.5340  -21.6563   20.7939 H   0  0  0  0  0  0
  -27.4131  -20.6190   21.9030 H   0  0  0  0  0  0
  -26.6889  -19.9592   20.4271 H   0  0  0  0  0  0
  -27.2857  -23.6368   19.6984 H   0  0  0  0  0  0
  -28.7650  -24.0615   18.9114 H   0  0  0  0  0  0
  -29.0482  -22.6294   21.5754 H   0  0  0  0  0  0
  -30.1157  -22.6403   20.2164 H   0  0  0  0  0  0
  -29.4383  -17.0253   19.3557 H   0  0  0  0  0  0
  -30.9795  -17.5451   19.9468 H   0  0  0  0  0  0
  -29.6167  -18.8095   21.8653 H   0  0  0  0  0  0
  -28.2213  -18.4427   20.8958 H   0  0  0  0  0  0
  -29.3101  -25.1974   21.3062 H   0  0  0  0  0  0
  -27.5960  -25.1810   21.5000 H   0  0  0  0  0  0
  -30.8594  -16.2664   21.9051 H   0  0  0  0  0  0
  -28.2504  -21.1905   19.0282 H   0  0  0  0  0  0
  -29.6621  -19.7118   19.1238 H   0  0  0  0  0  0
  -30.4257  -20.3170   20.3950 H   0  0  0  0  0  0
  1 25  1  0  0  0
  1 30  2  0  0  0
  1 78  1  0  0  0
  2  3  1  0  0  0
  2 25  1  0  0  0
  2 81  1  0  0  0
  2 82  1  0  0  0
  3  4  1  0  0  0
  3 83  1  0  0  0
  3 84  1  0  0  0
  4  5  1  0  0  0
  4 85  1  0  0  0
  4 86  1  0  0  0
  5  6  1  0  0  0
  5 26  1  0  0  0
  5 87  1  0  0  0
  6 25  1  0  0  0
  6 88  1  0  0  0
  6 89  1  0  0  0
  7  8  2  0  0  0
  7 26  1  0  0  0
  7 29  1  0  0  0
  8  9  1  0  0  0
  8 22  1  0  0  0
  9 10  1  0  0  0
  9 27  2  0  0  0
 10 11  2  0  0  0
 10 15  1  0  0  0
 11 12  1  0  0  0
 11 90  1  0  0  0
 12 13  2  0  0  0
 12 91  1  0  0  0
 13 14  1  0  0  0
 13 31  1  0  0  0
 14 15  2  0  0  0
 14 92  1  0  0  0
 15 93  1  0  0  0
 16 17  2  0  0  0
 16 21  1  0  0  0
 16 31  1  0  0  0
 17 18  1  0  0  0
 17 94  1  0  0  0
 18 19  2  0  0  0
 18 95  1  0  0  0
 19 20  1  0  0  0
 19 24  1  0  0  0
 20 21  2  0  0  0
 20 96  1  0  0  0
 21 23  1  0  0  0
 22 28  1  0  0  0
 22 32  2  0  0  0
 26 27  1  0  0  0
 28 97  1  0  0  0
 28 98  1  0  0  0
 29 99  1  0  0  0
 29100  1  0  0  0
 33 34  1  0  0  0
 33 66  1  0  0  0
 33 70  2  0  0  0
 34 36  1  0  0  0
 34 59  1  0  0  0
 34101  1  0  0  0
 35 44  2  0  0  0
 35 45  1  0  0  0
 35 68  1  0  0  0
 36 56  1  0  0  0
 36102  1  0  0  0
 37 39  1  0  0  0
 37 47  1  0  0  0
 37 66  1  0  0  0
 37103  1  0  0  0
 38 43  2  0  0  0
 38 46  1  0  0  0
 38 47  1  0  0  0
 39 64  1  0  0  0
 39 67  2  0  0  0
 40 52  1  0  0  0
 40 53  2  0  0  0
 40 58  1  0  0  0
 41104  1  0  0  0
 41105  1  0  0  0
 41106  1  0  0  0
 41 48  1  0  0  0
 42 43  1  0  0  0
 42 66  1  0  0  0
 42107  1  0  0  0
 42108  1  0  0  0
 43 44  1  0  0  0
 44109  1  0  0  0
 45 46  2  0  0  0
 45110  1  0  0  0
 46111  1  0  0  0
 47112  1  0  0  0
 47113  1  0  0  0
 48 56  1  0  0  0
 48 65  1  0  0  0
 48114  1  0  0  0
 49 50  1  0  0  0
 49 53  1  0  0  0
 49 64  1  0  0  0
 49115  1  0  0  0
 50 51  1  0  0  0
 50116  1  0  0  0
 50117  1  0  0  0
 51 52  1  0  0  0
 51118  1  0  0  0
 51119  1  0  0  0
 52120  1  0  0  0
 52121  1  0  0  0
 53 54  1  0  0  0
 54 55  2  0  0  0
 54122  1  0  0  0
 55 57  1  0  0  0
 55123  1  0  0  0
 56 69  2  0  0  0
 57 58  2  0  0  0
 57124  1  0  0  0
 58125  1  0  0  0
 59 60  1  0  0  0
 59 61  1  0  0  0
 59 62  1  0  0  0
 60126  1  0  0  0
 60127  1  0  0  0
 60128  1  0  0  0
 61129  1  0  0  0
 61130  1  0  0  0
 61131  1  0  0  0
 62132  1  0  0  0
 62133  1  0  0  0
 62134  1  0  0  0
 63 65  1  0  0  0
 63135  1  0  0  0
 63136  1  0  0  0
 63137  1  0  0  0
 64138  1  0  0  0
 65139  1  0  0  0
 68 77  1  0  0  0
 71140  1  0  0  0
 71141  1  0  0  0
 71142  1  0  0  0
 71 78  1  0  0  0
 72143  1  0  0  0
 72144  1  0  0  0
 72145  1  0  0  0
 72 79  1  0  0  0
 73 74  1  0  0  0
 73 77  1  0  0  0
 73146  1  0  0  0
 73147  1  0  0  0
 74 79  1  0  0  0
 74148  1  0  0  0
 74149  1  0  0  0
 75 76  1  0  0  0
 75 78  1  0  0  0
 75150  1  0  0  0
 75151  1  0  0  0
 76 80  1  0  0  0
 76152  1  0  0  0
 76153  1  0  0  0
 77154  1  0  0  0
 77155  1  0  0  0
 78156  1  0  0  0
 79 80  1  0  0  0
 79157  1  0  0  0
 80158  1  0  0  0
 80159  1  0  0  0
M  CHG  1  80   1
M  ISO  4   1 100  68 101  77 101  78 100
M  END
> <chiral flag>
0

> <version>
0

> <s_m_source_file>
/data/baiqing/PycharmProjects/Reinvent-master-3.2/result/LINK_invent/BTK/process_docking_weight1_custom_sum_contain_oxygen_bond_distance_aromatic_linkinvent_7_9_3/rearranged_h_0095.sdf

> <i_m_source_file_index>
37

> <r_mmod_Potential_Energy-OPLS-2005>
24.7769889831543

> <r_mmod_Stretch_Energy-OPLS-2005>
95.5482482910156

> <r_mmod_Bend_Energy-OPLS-2005>
181.784194946289

> <r_mmod_Torsional_Energy-OPLS-2005>
241.015045166016

> <r_mmod_Improper_Torsional_Energy-OPLS-2005>
2.16715955734253

> <r_mmod_Van_der_Waal_Energy-OPLS-2005>
126.16771697998

> <r_mmod_Electrostatic_Energy-OPLS-2005>
-215.552368164062

> <r_mmod_Solvation_Energy-OPLS-2005>
-447.387847900391

> <b_mmod_Minimization_Converged-OPLS-2005>
0

> <r_mmod_RMS_Derivative-OPLS-2005>
0.986843109130859

$$$$
37
                    3D
 Structure written by MMmdl.
165173  0  0  1  0            999 V2000
  -30.6553  -14.5643   20.4945 C   0  0  0  0  0  0
  -30.4327  -12.3415   19.4464 C   0  0  0  0  0  0
  -29.5107  -12.5004   18.2183 C   0  0  0  0  0  0
  -28.0304  -12.3500   18.6233 C   0  0  0  0  0  0
  -27.6599  -13.2111   19.8620 C   0  0  2  0  0  0
  -28.7016  -13.0445   20.9947 C   0  0  0  0  0  0
  -25.2614  -13.8184   20.5677 C   0  0  0  0  0  0
  -24.1868  -13.0446   20.9156 C   0  0  0  0  0  0
  -24.6405  -11.6902   20.8699 C   0  0  0  0  0  0
  -23.9069  -10.4287   21.0396 C   0  0  0  0  0  0
  -24.3616   -9.4207   21.9179 C   0  0  0  0  0  0
  -23.6291   -8.2248   22.0753 C   0  0  0  0  0  0
  -22.4275   -8.0278   21.3548 C   0  0  0  0  0  0
  -21.9909   -9.0252   20.4655 C   0  0  0  0  0  0
  -22.7243  -10.2122   20.3060 C   0  0  0  0  0  0
  -21.6846   -6.0739   22.5277 C   0  0  0  0  0  0
  -21.4017   -6.5643   23.8214 C   0  0  0  0  0  0
  -21.3656   -5.6791   24.9178 C   0  0  0  0  0  0
  -21.6052   -4.3058   24.7220 C   0  0  0  0  0  0
  -21.8819   -3.8141   23.4343 C   0  0  0  0  0  0
  -21.9196   -4.6969   22.3400 C   0  0  0  0  0  0
  -22.7887  -13.5252   21.1796 C   0  0  0  0  0  0
  -22.1668   -4.2156   21.0979 F   0  0  0  0  0  0
  -21.5625   -3.4535   25.7729 F   0  0  0  0  0  0
  -30.0302  -13.3530   20.4387 N   0  0  0  0  0  0
  -26.3025  -12.9343   20.3291 N   0  0  0  0  0  0
  -25.9335  -11.6490   20.5706 N   0  0  0  0  0  0
  -22.0500  -12.8276   22.0349 N   0  0  0  0  0  0
  -25.4334  -15.1912   20.4110 N   0  0  0  0  0  0
  -31.7993  -14.7408   20.0682 O   0  0  0  0  0  0
  -21.6644   -6.8874   21.4233 O   0  0  0  0  0  0
  -22.3571  -14.5540   20.6598 O   0  0  0  0  0  0
  -24.6186  -31.8659   23.2043 C   0  0  0  0  0  0
  -25.9087  -32.4814   23.8330 C   0  0  1  0  0  0
  -27.2312  -27.3864   20.1177 C   0  0  0  0  0  0
  -25.5963  -33.8614   24.2291 N   0  0  0  0  0  0
  -23.4096  -30.4862   21.5440 C   0  0  2  0  0  0
  -24.8602  -28.9491   20.1126 C   0  0  0  0  0  0
  -22.7432  -29.4638   22.4947 C   0  0  0  0  0  0
  -18.0288  -28.1355   22.8473 C   0  0  0  0  0  0
  -24.1508  -36.7284   23.2619 C   0  0  0  0  0  0
  -25.9430  -30.8205   21.3659 C   0  0  0  0  0  0
  -26.0234  -29.4520   20.7108 C   0  0  0  0  0  0
  -27.2157  -28.6795   20.7019 C   0  0  0  0  0  0
  -26.0523  -26.9188   19.4974 C   0  0  0  0  0  0
  -24.8739  -27.6848   19.4993 C   0  0  0  0  0  0
  -23.6245  -29.8208   20.1587 C   0  0  0  0  0  0
  -25.4138  -36.3104   24.0323 C   0  0  1  0  0  0
  -20.5877  -28.3675   23.1307 C   0  0  2  0  0  0
  -20.6782  -26.9381   22.5458 C   0  0  0  0  0  0
  -19.5791  -26.6360   21.5215 C   0  0  0  0  0  0
  -18.1958  -26.7899   22.1603 C   0  0  0  0  0  0
  -19.1523  -28.8824   23.2887 C   0  0  0  0  0  0
  -18.9435  -30.1420   23.8918 C   0  0  0  0  0  0
  -17.6432  -30.6542   24.0570 C   0  0  0  0  0  0
  -25.9072  -34.9475   23.5088 C   0  0  0  0  0  0
  -16.5332  -29.9050   23.6312 C   0  0  0  0  0  0
  -16.7266  -28.6467   23.0326 C   0  0  0  0  0  0
  -26.4502  -31.6598   25.0669 C   0  0  0  0  0  0
  -25.3754  -31.3738   26.1402 C   0  0  0  0  0  0
  -27.0317  -30.3026   24.6075 C   0  0  0  0  0  0
  -27.6070  -32.4312   25.7445 C   0  0  0  0  0  0
  -27.5601  -37.1801   24.8453 C   0  0  0  0  0  0
  -21.4149  -29.3022   22.3672 N   0  0  0  0  0  0
  -26.4305  -37.3804   23.9410 N   0  0  0  0  0  0
  -24.6740  -31.0743   22.0954 N   0  0  0  0  0  0
  -23.4164  -28.8223   23.3041 O   0  0  0  0  0  0
  -28.3673  -26.5860   20.1309 O   0  0  0  0  0  0
  -26.5578  -34.8933   22.4631 O   0  0  0  0  0  0
  -23.5372  -32.1424   23.7436 O   0  0  0  0  0  0
  -29.8827  -20.5975   20.0985 C   0  0  0  0  0  0
  -28.8729  -21.5389   20.1795 C   0  0  0  0  0  0
  -27.9015  -20.8722   20.9914 C   0  0  0  0  0  0
  -26.3049  -21.2860   22.9133 C   0  0  0  0  0  0
  -25.4249  -20.6004   20.6332 C   0  0  0  0  0  0
  -28.3846  -25.4198   22.2295 C   0  0  0  0  0  0
  -28.7226  -22.9018   19.4656 C   0  0  0  0  0  0
  -29.2632  -24.2078   20.1589 C   0  0  0  0  0  0
  -30.2348  -18.1903   21.0894 C   0  0  0  0  0  0
  -29.8695  -16.9702   20.1757 C   0  0  0  0  0  0
  -26.5253  -21.3593   21.3927 C   0  0  0  0  0  0
  -28.2230  -25.2511   20.7084 C   0  0  2  0  0  0
  -28.2850  -19.6461   21.3478 N   0  0  0  0  0  0
  -29.5085  -19.4561   20.8076 N   0  0  0  0  0  0
  -29.8559  -15.6151   20.7991 N   0  0  0  0  0  0
  -31.4799  -12.4403   19.1532 H   0  0  0  0  0  0
  -30.3417  -11.3432   19.8749 H   0  0  0  0  0  0
  -29.7683  -11.7591   17.4606 H   0  0  0  0  0  0
  -29.6704  -13.4772   17.7559 H   0  0  0  0  0  0
  -27.8543  -11.2958   18.8401 H   0  0  0  0  0  0
  -27.3826  -12.5987   17.7811 H   0  0  0  0  0  0
  -27.6884  -14.2487   19.5274 H   0  0  0  0  0  0
  -28.6881  -12.0295   21.3930 H   0  0  0  0  0  0
  -28.4545  -13.6926   21.8366 H   0  0  0  0  0  0
  -25.2761   -9.5701   22.4749 H   0  0  0  0  0  0
  -24.0014   -7.4652   22.7487 H   0  0  0  0  0  0
  -21.0838   -8.8765   19.8965 H   0  0  0  0  0  0
  -22.3705  -10.9656   19.6162 H   0  0  0  0  0  0
  -21.2005   -7.6145   23.9727 H   0  0  0  0  0  0
  -21.1485   -6.0512   25.9084 H   0  0  0  0  0  0
  -22.0598   -2.7601   23.2829 H   0  0  0  0  0  0
  -22.4054  -11.9969   22.4848 H   0  0  0  0  0  0
  -21.1109  -13.1340   22.2459 H   0  0  0  0  0  0
  -24.6609  -15.8405   20.5139 H   0  0  0  0  0  0
  -26.2829  -15.6349   20.0813 H   0  0  0  0  0  0
  -26.7150  -32.5523   23.1075 H   0  0  0  0  0  0
  -25.0243  -33.9751   25.0526 H   0  0  0  0  0  0
  -22.6980  -31.3014   21.4031 H   0  0  0  0  0  0
  -23.3788  -35.9593   23.3266 H   0  0  0  0  0  0
  -24.3578  -36.8903   22.2027 H   0  0  0  0  0  0
  -23.7241  -37.6481   23.6634 H   0  0  0  0  0  0
  -26.0690  -31.5908   20.6031 H   0  0  0  0  0  0
  -26.8212  -30.8619   21.9984 H   0  0  0  0  0  0
  -28.1143  -29.0588   21.1667 H   0  0  0  0  0  0
  -26.0413  -25.9531   19.0120 H   0  0  0  0  0  0
  -23.9827  -27.2923   19.0283 H   0  0  0  0  0  0
  -23.7397  -30.5943   19.3978 H   0  0  0  0  0  0
  -22.7490  -29.2433   19.8570 H   0  0  0  0  0  0
  -25.1329  -36.1942   25.0811 H   0  0  0  0  0  0
  -20.9978  -28.3272   24.1426 H   0  0  0  0  0  0
  -20.5672  -26.2255   23.3655 H   0  0  0  0  0  0
  -21.6668  -26.7398   22.1292 H   0  0  0  0  0  0
  -19.6943  -25.6284   21.1205 H   0  0  0  0  0  0
  -19.6776  -27.3174   20.6759 H   0  0  0  0  0  0
  -17.4258  -26.6646   21.3975 H   0  0  0  0  0  0
  -18.0368  -26.0019   22.8985 H   0  0  0  0  0  0
  -19.7894  -30.7223   24.2323 H   0  0  0  0  0  0
  -17.4967  -31.6206   24.5196 H   0  0  0  0  0  0
  -15.5324  -30.2946   23.7629 H   0  0  0  0  0  0
  -15.8661  -28.0790   22.7047 H   0  0  0  0  0  0
  -24.5932  -30.7085   25.7718 H   0  0  0  0  0  0
  -24.8947  -32.2919   26.4803 H   0  0  0  0  0  0
  -25.8084  -30.8925   27.0187 H   0  0  0  0  0  0
  -26.2845  -29.6788   24.1154 H   0  0  0  0  0  0
  -27.4077  -29.7270   25.4547 H   0  0  0  0  0  0
  -27.8698  -30.4271   23.9209 H   0  0  0  0  0  0
  -27.2672  -33.3594   26.2052 H   0  0  0  0  0  0
  -28.3879  -32.6913   25.0284 H   0  0  0  0  0  0
  -28.0746  -31.8427   26.5351 H   0  0  0  0  0  0
  -28.2623  -38.0102   24.7561 H   0  0  0  0  0  0
  -28.1105  -36.2650   24.6238 H   0  0  0  0  0  0
  -27.2292  -37.1382   25.8840 H   0  0  0  0  0  0
  -20.9303  -29.8716   21.6882 H   0  0  0  0  0  0
  -26.0191  -38.2869   24.1457 H   0  0  0  0  0  0
  -30.8300  -20.6322   19.5779 H   0  0  0  0  0  0
  -27.0654  -21.8440   23.4593 H   0  0  0  0  0  0
  -26.3364  -20.2527   23.2597 H   0  0  0  0  0  0
  -25.3317  -21.6941   23.1892 H   0  0  0  0  0  0
  -25.5389  -20.7103   19.5549 H   0  0  0  0  0  0
  -24.4326  -20.9660   20.8986 H   0  0  0  0  0  0
  -25.4571  -19.5357   20.8625 H   0  0  0  0  0  0
  -28.3199  -24.4600   22.7449 H   0  0  0  0  0  0
  -27.6124  -26.0704   22.6435 H   0  0  0  0  0  0
  -29.3513  -25.8614   22.4760 H   0  0  0  0  0  0
  -27.6811  -23.0569   19.1801 H   0  0  0  0  0  0
  -29.2276  -22.8295   18.5002 H   0  0  0  0  0  0
  -29.8399  -24.7491   19.4065 H   0  0  0  0  0  0
  -30.0039  -23.9478   20.9161 H   0  0  0  0  0  0
  -31.3038  -18.3916   21.0182 H   0  0  0  0  0  0
  -30.0509  -17.9343   22.1335 H   0  0  0  0  0  0
  -30.5037  -16.9751   19.2871 H   0  0  0  0  0  0
  -28.8581  -17.1153   19.7978 H   0  0  0  0  0  0
  -26.4342  -22.4104   21.1188 H   0  0  0  0  0  0
  -27.2249  -24.8461   20.5384 H   0  0  0  0  0  0
  -28.9666  -15.3505   21.1959 H   0  0  0  0  0  0
  1 25  1  0  0  0
  1 30  2  0  0  0
  1 85  1  0  0  0
  2  3  1  0  0  0
  2 25  1  0  0  0
  2 86  1  0  0  0
  2 87  1  0  0  0
  3  4  1  0  0  0
  3 88  1  0  0  0
  3 89  1  0  0  0
  4  5  1  0  0  0
  4 90  1  0  0  0
  4 91  1  0  0  0
  5  6  1  0  0  0
  5 26  1  0  0  0
  5 92  1  0  0  0
  6 25  1  0  0  0
  6 93  1  0  0  0
  6 94  1  0  0  0
  7  8  2  0  0  0
  7 26  1  0  0  0
  7 29  1  0  0  0
  8  9  1  0  0  0
  8 22  1  0  0  0
  9 10  1  0  0  0
  9 27  2  0  0  0
 10 11  2  0  0  0
 10 15  1  0  0  0
 11 12  1  0  0  0
 11 95  1  0  0  0
 12 13  2  0  0  0
 12 96  1  0  0  0
 13 14  1  0  0  0
 13 31  1  0  0  0
 14 15  2  0  0  0
 14 97  1  0  0  0
 15 98  1  0  0  0
 16 17  2  0  0  0
 16 21  1  0  0  0
 16 31  1  0  0  0
 17 18  1  0  0  0
 17 99  1  0  0  0
 18 19  2  0  0  0
 18100  1  0  0  0
 19 20  1  0  0  0
 19 24  1  0  0  0
 20 21  2  0  0  0
 20101  1  0  0  0
 21 23  1  0  0  0
 22 28  1  0  0  0
 22 32  2  0  0  0
 26 27  1  0  0  0
 28102  1  0  0  0
 28103  1  0  0  0
 29104  1  0  0  0
 29105  1  0  0  0
 33 34  1  0  0  0
 33 66  1  0  0  0
 33 70  2  0  0  0
 34 36  1  0  0  0
 34 59  1  0  0  0
 34106  1  0  0  0
 35 44  2  0  0  0
 35 45  1  0  0  0
 35 68  1  0  0  0
 36 56  1  0  0  0
 36107  1  0  0  0
 37 39  1  0  0  0
 37 47  1  0  0  0
 37 66  1  0  0  0
 37108  1  0  0  0
 38 43  2  0  0  0
 38 46  1  0  0  0
 38 47  1  0  0  0
 39 64  1  0  0  0
 39 67  2  0  0  0
 40 52  1  0  0  0
 40 53  2  0  0  0
 40 58  1  0  0  0
 41109  1  0  0  0
 41110  1  0  0  0
 41111  1  0  0  0
 41 48  1  0  0  0
 42 43  1  0  0  0
 42 66  1  0  0  0
 42112  1  0  0  0
 42113  1  0  0  0
 43 44  1  0  0  0
 44114  1  0  0  0
 45 46  2  0  0  0
 45115  1  0  0  0
 46116  1  0  0  0
 47117  1  0  0  0
 47118  1  0  0  0
 48 56  1  0  0  0
 48 65  1  0  0  0
 48119  1  0  0  0
 49 50  1  0  0  0
 49 53  1  0  0  0
 49 64  1  0  0  0
 49120  1  0  0  0
 50 51  1  0  0  0
 50121  1  0  0  0
 50122  1  0  0  0
 51 52  1  0  0  0
 51123  1  0  0  0
 51124  1  0  0  0
 52125  1  0  0  0
 52126  1  0  0  0
 53 54  1  0  0  0
 54 55  2  0  0  0
 54127  1  0  0  0
 55 57  1  0  0  0
 55128  1  0  0  0
 56 69  2  0  0  0
 57 58  2  0  0  0
 57129  1  0  0  0
 58130  1  0  0  0
 59 60  1  0  0  0
 59 61  1  0  0  0
 59 62  1  0  0  0
 60131  1  0  0  0
 60132  1  0  0  0
 60133  1  0  0  0
 61134  1  0  0  0
 61135  1  0  0  0
 61136  1  0  0  0
 62137  1  0  0  0
 62138  1  0  0  0
 62139  1  0  0  0
 63 65  1  0  0  0
 63140  1  0  0  0
 63141  1  0  0  0
 63142  1  0  0  0
 64143  1  0  0  0
 65144  1  0  0  0
 68 82  1  0  0  0
 71 72  2  0  0  0
 71 84  1  0  0  0
 71145  1  0  0  0
 72 73  1  0  0  0
 72 77  1  0  0  0
 73 81  1  0  0  0
 73 83  2  0  0  0
 74146  1  0  0  0
 74147  1  0  0  0
 74148  1  0  0  0
 74 81  1  0  0  0
 75 81  1  0  0  0
 75149  1  0  0  0
 75150  1  0  0  0
 75151  1  0  0  0
 76152  1  0  0  0
 76153  1  0  0  0
 76154  1  0  0  0
 76 82  1  0  0  0
 77 78  1  0  0  0
 77155  1  0  0  0
 77156  1  0  0  0
 78 82  1  0  0  0
 78157  1  0  0  0
 78158  1  0  0  0
 79 80  1  0  0  0
 79 84  1  0  0  0
 79159  1  0  0  0
 79160  1  0  0  0
 80 85  1  0  0  0
 80161  1  0  0  0
 80162  1  0  0  0
 81163  1  0  0  0
 82164  1  0  0  0
 83 84  1  0  0  0
 85165  1  0  0  0
M  ISO  4   1 100  68 101  82 101  85 100
M  END
> <chiral flag>
0

> <version>
0

> <s_m_source_file>
/data/baiqing/PycharmProjects/Reinvent-master-3.2/result/LINK_invent/BTK/process_docking_weight1_custom_sum_contain_oxygen_bond_distance_aromatic_linkinvent_7_9_3/rearranged_h_0095.sdf

> <i_m_source_file_index>
38

> <r_mmod_Potential_Energy-OPLS-2005>
-55.0069694519043

> <r_mmod_Stretch_Energy-OPLS-2005>
52.7340316772461

> <r_mmod_Bend_Energy-OPLS-2005>
115.478607177734

> <r_mmod_Torsional_Energy-OPLS-2005>
254.421371459961

> <r_mmod_Improper_Torsional_Energy-OPLS-2005>
8.5664644241333

> <r_mmod_Van_der_Waal_Energy-OPLS-2005>
113.49292755127

> <r_mmod_Electrostatic_Energy-OPLS-2005>
-415.775695800781

> <r_mmod_Solvation_Energy-OPLS-2005>
-210.741897583008

> <b_mmod_Minimization_Converged-OPLS-2005>
0

> <r_mmod_RMS_Derivative-OPLS-2005>
3.52622485160828

$$$$
38
                    3D
 Structure written by MMmdl.
157164  0  0  1  0            999 V2000
  -30.7062  -14.4265   20.6332 C   0  0  0  0  0  0
  -30.4380  -12.2824   19.4271 C   0  0  0  0  0  0
  -29.5134  -12.5287   18.2148 C   0  0  0  0  0  0
  -28.0306  -12.3910   18.6191 C   0  0  0  0  0  0
  -27.6842  -13.1981   19.8970 C   0  0  2  0  0  0
  -28.7193  -12.9246   21.0139 C   0  0  0  0  0  0
  -25.2735  -13.8151   20.5727 C   0  0  0  0  0  0
  -24.1968  -13.0453   20.9201 C   0  0  0  0  0  0
  -24.6489  -11.6899   20.8711 C   0  0  0  0  0  0
  -23.9136  -10.4300   21.0360 C   0  0  0  0  0  0
  -24.3685   -9.4207   21.9140 C   0  0  0  0  0  0
  -23.6355   -8.2241   22.0712 C   0  0  0  0  0  0
  -22.4316   -8.0320   21.3533 C   0  0  0  0  0  0
  -21.9979   -9.0281   20.4615 C   0  0  0  0  0  0
  -22.7307  -10.2153   20.3013 C   0  0  0  0  0  0
  -21.6852   -6.0782   22.5285 C   0  0  0  0  0  0
  -21.3998   -6.5654   23.8226 C   0  0  0  0  0  0
  -21.3674   -5.6783   24.9168 C   0  0  0  0  0  0
  -21.6053   -4.3050   24.7188 C   0  0  0  0  0  0
  -21.8820   -3.8176   23.4297 C   0  0  0  0  0  0
  -21.9200   -4.7012   22.3371 C   0  0  0  0  0  0
  -22.7983  -13.5239   21.1893 C   0  0  0  0  0  0
  -22.1683   -4.2214   21.0943 F   0  0  0  0  0  0
  -21.5637   -3.4515   25.7686 F   0  0  0  0  0  0
  -30.0659  -13.2320   20.4869 N   0  0  0  0  0  0
  -26.3177  -12.9309   20.3449 N   0  0  0  0  0  0
  -25.9415  -11.6463   20.5754 N   0  0  0  0  0  0
  -22.0630  -12.8171   22.0405 N   0  0  0  0  0  0
  -25.4480  -15.1883   20.4143 N   0  0  0  0  0  0
  -31.7405  -14.7304   20.0353 O   0  0  0  0  0  0
  -21.6650   -6.8943   21.4257 O   0  0  0  0  0  0
  -22.3643  -14.5547   20.6753 O   0  0  0  0  0  0
  -24.6140  -31.8650   23.2075 C   0  0  0  0  0  0
  -25.9055  -32.4792   23.8350 C   0  0  1  0  0  0
  -27.2462  -27.4389   20.0708 C   0  0  0  0  0  0
  -25.5932  -33.8591   24.2274 N   0  0  0  0  0  0
  -23.4004  -30.4892   21.5480 C   0  0  2  0  0  0
  -24.8476  -28.9527   20.1186 C   0  0  0  0  0  0
  -22.7383  -29.4654   22.4973 C   0  0  0  0  0  0
  -18.0247  -28.1351   22.8490 C   0  0  0  0  0  0
  -24.1493  -36.7284   23.2633 C   0  0  0  0  0  0
  -25.9301  -30.8322   21.3622 C   0  0  0  0  0  0
  -26.0090  -29.4674   20.7057 C   0  0  0  0  0  0
  -27.2093  -28.7198   20.6732 C   0  0  0  0  0  0
  -26.0523  -26.9223   19.5131 C   0  0  0  0  0  0
  -24.8652  -27.6815   19.5225 C   0  0  0  0  0  0
  -23.6070  -29.8159   20.1646 C   0  0  0  0  0  0
  -25.4131  -36.3075   24.0303 C   0  0  1  0  0  0
  -20.5844  -28.3644   23.1322 C   0  0  2  0  0  0
  -20.6755  -26.9383   22.5422 C   0  0  0  0  0  0
  -19.5740  -26.6374   21.5205 C   0  0  0  0  0  0
  -18.1911  -26.7902   22.1615 C   0  0  0  0  0  0
  -19.1501  -28.8809   23.2906 C   0  0  0  0  0  0
  -18.9445  -30.1423   23.8905 C   0  0  0  0  0  0
  -17.6455  -30.6583   24.0545 C   0  0  0  0  0  0
  -25.9061  -34.9451   23.5078 C   0  0  0  0  0  0
  -16.5336  -29.9086   23.6325 C   0  0  0  0  0  0
  -16.7240  -28.6489   23.0358 C   0  0  0  0  0  0
  -26.4507  -31.6585   25.0675 C   0  0  0  0  0  0
  -25.3788  -31.3711   26.1428 C   0  0  0  0  0  0
  -27.0337  -30.3013   24.6090 C   0  0  0  0  0  0
  -27.6045  -32.4342   25.7457 C   0  0  0  0  0  0
  -27.5584  -37.1800   24.8462 C   0  0  0  0  0  0
  -21.4111  -29.3015   22.3717 N   0  0  0  0  0  0
  -26.4293  -37.3785   23.9402 N   0  0  0  0  0  0
  -24.6649  -31.0772   22.0960 N   0  0  0  0  0  0
  -23.4145  -28.8181   23.3006 O   0  0  0  0  0  0
  -28.4578  -26.7712   20.0300 O   0  0  0  0  0  0
  -26.5618  -34.8908   22.4630 O   0  0  0  0  0  0
  -23.5344  -32.1382   23.7512 O   0  0  0  0  0  0
  -30.8126  -20.2462   20.1317 C   0  0  0  0  0  0
  -31.0707  -21.4904   20.9917 C   0  0  0  0  0  0
  -29.9338  -19.1370   20.7251 C   0  0  0  0  0  0
  -30.1484  -22.7159   20.7526 C   0  0  0  0  0  0
  -30.6437  -17.7868   21.0165 C   0  0  0  0  0  0
  -30.3226  -23.4665   19.4100 C   0  0  0  0  0  0
  -29.9837  -24.9784   19.4773 C   0  0  0  0  0  0
  -29.6092  -16.6356   20.9939 C   0  0  0  0  0  0
  -28.5113  -25.3647   19.7534 C   0  0  0  0  0  0
  -30.0554  -15.2998   21.4145 N   0  0  0  0  0  0
  -31.2907  -20.1413   18.9999 O   0  0  0  0  0  0
  -31.4879  -12.3754   19.1416 H   0  0  0  0  0  0
  -30.3162  -11.2554   19.7775 H   0  0  0  0  0  0
  -29.7552  -11.8282   17.4149 H   0  0  0  0  0  0
  -29.6974  -13.5282   17.8128 H   0  0  0  0  0  0
  -27.8300  -11.3297   18.7778 H   0  0  0  0  0  0
  -27.3831  -12.7121   17.8037 H   0  0  0  0  0  0
  -27.7487  -14.2537   19.6330 H   0  0  0  0  0  0
  -28.6812  -11.8786   21.3209 H   0  0  0  0  0  0
  -28.4682  -13.4826   21.9173 H   0  0  0  0  0  0
  -25.2819   -9.5650   22.4731 H   0  0  0  0  0  0
  -24.0069   -7.4587   22.7358 H   0  0  0  0  0  0
  -21.0943   -8.8792   19.8879 H   0  0  0  0  0  0
  -22.3780  -10.9706   19.6132 H   0  0  0  0  0  0
  -21.1974   -7.6153   23.9752 H   0  0  0  0  0  0
  -21.1513   -6.0495   25.9086 H   0  0  0  0  0  0
  -22.0596   -2.7649   23.2738 H   0  0  0  0  0  0
  -22.4278  -11.9831   22.4762 H   0  0  0  0  0  0
  -21.1227  -13.1109   22.2607 H   0  0  0  0  0  0
  -24.6804  -15.8433   20.5188 H   0  0  0  0  0  0
  -26.3074  -15.6265   20.1079 H   0  0  0  0  0  0
  -26.7104  -32.5508   23.1092 H   0  0  0  0  0  0
  -25.0088  -33.9753   25.0425 H   0  0  0  0  0  0
  -22.6883  -31.3054   21.4072 H   0  0  0  0  0  0
  -23.3745  -35.9630   23.3312 H   0  0  0  0  0  0
  -24.3579  -36.8903   22.2046 H   0  0  0  0  0  0
  -23.7261  -37.6491   23.6658 H   0  0  0  0  0  0
  -26.0564  -31.6084   20.6046 H   0  0  0  0  0  0
  -26.8093  -30.8718   21.9924 H   0  0  0  0  0  0
  -28.1146  -29.1261   21.1042 H   0  0  0  0  0  0
  -26.0131  -25.9461   19.0523 H   0  0  0  0  0  0
  -23.9691  -27.2822   19.0679 H   0  0  0  0  0  0
  -23.7033  -30.5842   19.3959 H   0  0  0  0  0  0
  -22.7313  -29.2309   19.8768 H   0  0  0  0  0  0
  -25.1323  -36.1909   25.0798 H   0  0  0  0  0  0
  -20.9946  -28.3218   24.1439 H   0  0  0  0  0  0
  -20.5658  -26.2241   23.3600 H   0  0  0  0  0  0
  -21.6628  -26.7434   22.1217 H   0  0  0  0  0  0
  -19.6925  -25.6291   21.1220 H   0  0  0  0  0  0
  -19.6701  -27.3187   20.6732 H   0  0  0  0  0  0
  -17.4193  -26.6627   21.4009 H   0  0  0  0  0  0
  -18.0335  -26.0026   22.8989 H   0  0  0  0  0  0
  -19.7922  -30.7220   24.2296 H   0  0  0  0  0  0
  -17.5014  -31.6265   24.5130 H   0  0  0  0  0  0
  -15.5343  -30.2993   23.7663 H   0  0  0  0  0  0
  -15.8625  -28.0814   22.7102 H   0  0  0  0  0  0
  -24.5928  -30.7088   25.7781 H   0  0  0  0  0  0
  -24.9009  -32.2873   26.4901 H   0  0  0  0  0  0
  -25.8150  -30.8857   27.0160 H   0  0  0  0  0  0
  -26.2862  -29.6753   24.1183 H   0  0  0  0  0  0
  -27.4115  -29.7292   25.4575 H   0  0  0  0  0  0
  -27.8702  -30.4279   23.9211 H   0  0  0  0  0  0
  -27.2602  -33.3612   26.2059 H   0  0  0  0  0  0
  -28.3855  -32.6974   25.0310 H   0  0  0  0  0  0
  -28.0705  -31.8455   26.5375 H   0  0  0  0  0  0
  -28.2605  -38.0095   24.7524 H   0  0  0  0  0  0
  -28.1080  -36.2628   24.6281 H   0  0  0  0  0  0
  -27.2286  -37.1428   25.8860 H   0  0  0  0  0  0
  -20.9255  -29.8717   21.6935 H   0  0  0  0  0  0
  -26.0160  -38.2846   24.1443 H   0  0  0  0  0  0
  -32.1163  -21.7883   20.8927 H   0  0  0  0  0  0
  -30.9559  -21.1715   22.0273 H   0  0  0  0  0  0
  -29.1281  -18.9700   20.0106 H   0  0  0  0  0  0
  -29.4582  -19.5097   21.6318 H   0  0  0  0  0  0
  -30.3689  -23.4172   21.5595 H   0  0  0  0  0  0
  -29.1023  -22.4317   20.8763 H   0  0  0  0  0  0
  -31.1319  -17.8519   21.9907 H   0  0  0  0  0  0
  -31.4367  -17.5992   20.2876 H   0  0  0  0  0  0
  -29.7500  -22.9757   18.6215 H   0  0  0  0  0  0
  -31.3665  -23.3869   19.0956 H   0  0  0  0  0  0
  -30.2759  -25.4257   18.5241 H   0  0  0  0  0  0
  -30.6226  -25.4429   20.2293 H   0  0  0  0  0  0
  -29.1676  -16.5533   19.9957 H   0  0  0  0  0  0
  -28.7817  -16.8944   21.6578 H   0  0  0  0  0  0
  -28.1162  -24.8231   20.6163 H   0  0  0  0  0  0
  -27.9241  -25.0866   18.8787 H   0  0  0  0  0  0
  -29.3968  -14.8312   22.0200 H   0  0  0  0  0  0
  1 25  1  0  0  0
  1 30  2  0  0  0
  1 80  1  0  0  0
  2  3  1  0  0  0
  2 25  1  0  0  0
  2 82  1  0  0  0
  2 83  1  0  0  0
  3  4  1  0  0  0
  3 84  1  0  0  0
  3 85  1  0  0  0
  4  5  1  0  0  0
  4 86  1  0  0  0
  4 87  1  0  0  0
  5  6  1  0  0  0
  5 26  1  0  0  0
  5 88  1  0  0  0
  6 25  1  0  0  0
  6 89  1  0  0  0
  6 90  1  0  0  0
  7  8  2  0  0  0
  7 26  1  0  0  0
  7 29  1  0  0  0
  8  9  1  0  0  0
  8 22  1  0  0  0
  9 10  1  0  0  0
  9 27  2  0  0  0
 10 11  2  0  0  0
 10 15  1  0  0  0
 11 12  1  0  0  0
 11 91  1  0  0  0
 12 13  2  0  0  0
 12 92  1  0  0  0
 13 14  1  0  0  0
 13 31  1  0  0  0
 14 15  2  0  0  0
 14 93  1  0  0  0
 15 94  1  0  0  0
 16 17  2  0  0  0
 16 21  1  0  0  0
 16 31  1  0  0  0
 17 18  1  0  0  0
 17 95  1  0  0  0
 18 19  2  0  0  0
 18 96  1  0  0  0
 19 20  1  0  0  0
 19 24  1  0  0  0
 20 21  2  0  0  0
 20 97  1  0  0  0
 21 23  1  0  0  0
 22 28  1  0  0  0
 22 32  2  0  0  0
 26 27  1  0  0  0
 28 98  1  0  0  0
 28 99  1  0  0  0
 29100  1  0  0  0
 29101  1  0  0  0
 33 34  1  0  0  0
 33 66  1  0  0  0
 33 70  2  0  0  0
 34 36  1  0  0  0
 34 59  1  0  0  0
 34102  1  0  0  0
 35 44  2  0  0  0
 35 45  1  0  0  0
 35 68  1  0  0  0
 36 56  1  0  0  0
 36103  1  0  0  0
 37 39  1  0  0  0
 37 47  1  0  0  0
 37 66  1  0  0  0
 37104  1  0  0  0
 38 43  2  0  0  0
 38 46  1  0  0  0
 38 47  1  0  0  0
 39 64  1  0  0  0
 39 67  2  0  0  0
 40 52  1  0  0  0
 40 53  2  0  0  0
 40 58  1  0  0  0
 41105  1  0  0  0
 41106  1  0  0  0
 41107  1  0  0  0
 41 48  1  0  0  0
 42 43  1  0  0  0
 42 66  1  0  0  0
 42108  1  0  0  0
 42109  1  0  0  0
 43 44  1  0  0  0
 44110  1  0  0  0
 45 46  2  0  0  0
 45111  1  0  0  0
 46112  1  0  0  0
 47113  1  0  0  0
 47114  1  0  0  0
 48 56  1  0  0  0
 48 65  1  0  0  0
 48115  1  0  0  0
 49 50  1  0  0  0
 49 53  1  0  0  0
 49 64  1  0  0  0
 49116  1  0  0  0
 50 51  1  0  0  0
 50117  1  0  0  0
 50118  1  0  0  0
 51 52  1  0  0  0
 51119  1  0  0  0
 51120  1  0  0  0
 52121  1  0  0  0
 52122  1  0  0  0
 53 54  1  0  0  0
 54 55  2  0  0  0
 54123  1  0  0  0
 55 57  1  0  0  0
 55124  1  0  0  0
 56 69  2  0  0  0
 57 58  2  0  0  0
 57125  1  0  0  0
 58126  1  0  0  0
 59 60  1  0  0  0
 59 61  1  0  0  0
 59 62  1  0  0  0
 60127  1  0  0  0
 60128  1  0  0  0
 60129  1  0  0  0
 61130  1  0  0  0
 61131  1  0  0  0
 61132  1  0  0  0
 62133  1  0  0  0
 62134  1  0  0  0
 62135  1  0  0  0
 63 65  1  0  0  0
 63136  1  0  0  0
 63137  1  0  0  0
 63138  1  0  0  0
 64139  1  0  0  0
 65140  1  0  0  0
 68 79  1  0  0  0
 71 72  1  0  0  0
 71 73  1  0  0  0
 71 81  2  0  0  0
 72 74  1  0  0  0
 72141  1  0  0  0
 72142  1  0  0  0
 73 75  1  0  0  0
 73143  1  0  0  0
 73144  1  0  0  0
 74 76  1  0  0  0
 74145  1  0  0  0
 74146  1  0  0  0
 75 78  1  0  0  0
 75147  1  0  0  0
 75148  1  0  0  0
 76 77  1  0  0  0
 76149  1  0  0  0
 76150  1  0  0  0
 77 79  1  0  0  0
 77151  1  0  0  0
 77152  1  0  0  0
 78 80  1  0  0  0
 78153  1  0  0  0
 78154  1  0  0  0
 79155  1  0  0  0
 79156  1  0  0  0
 80157  1  0  0  0
M  ISO  4   1 100  68 101  79 101  80 100
M  END
> <chiral flag>
0

> <version>
0

> <s_m_source_file>
/data/baiqing/PycharmProjects/Reinvent-master-3.2/result/LINK_invent/BTK/process_docking_weight1_custom_sum_contain_oxygen_bond_distance_aromatic_linkinvent_7_9_3/rearranged_h_0095.sdf

> <i_m_source_file_index>
39

> <r_mmod_Potential_Energy-OPLS-2005>
-68.1498947143555

> <r_mmod_Stretch_Energy-OPLS-2005>
36.1363754272461

> <r_mmod_Bend_Energy-OPLS-2005>
112.788726806641

> <r_mmod_Torsional_Energy-OPLS-2005>
231.778900146484

> <r_mmod_Improper_Torsional_Energy-OPLS-2005>
5.96548318862915

> <r_mmod_Van_der_Waal_Energy-OPLS-2005>
127.133895874023

> <r_mmod_Electrostatic_Energy-OPLS-2005>
-364.406555175781

> <r_mmod_Solvation_Energy-OPLS-2005>
-227.898483276367

> <b_mmod_Minimization_Converged-OPLS-2005>
0

> <r_mmod_RMS_Derivative-OPLS-2005>
4.56410264968872

$$$$
39
                    3D
 Structure written by MMmdl.
181189  0  0  1  0            999 V2000
  -29.3019  -14.6425   21.4284 C   0  0  0  0  0  0
  -31.1735  -13.4552   19.0640 C   0  0  0  0  0  0
  -30.1306  -13.2902   17.3396 C   0  0  0  0  0  0
  -28.1544  -13.4178   17.5420 C   0  0  0  0  0  0
  -27.6153  -13.6871   19.3720 C   0  0  2  0  0  0
  -29.2134  -13.3308   20.9191 C   0  0  0  0  0  0
  -25.3293  -14.3574   20.7484 C   0  0  0  0  0  0
  -24.3809  -13.2971   21.6748 C   0  0  0  0  0  0
  -24.6353  -11.6113   21.1259 C   0  0  0  0  0  0
  -23.8577  -10.4031   21.2078 C   0  0  0  0  0  0
  -24.3264   -9.3643   22.0236 C   0  0  0  0  0  0
  -23.6030   -8.1676   22.1056 C   0  0  0  0  0  0
  -22.4096   -8.0065   21.3632 C   0  0  0  0  0  0
  -21.9869   -9.0275   20.4931 C   0  0  0  0  0  0
  -22.7158  -10.2252   20.4022 C   0  0  0  0  0  0
  -21.6652   -6.0593   22.5208 C   0  0  0  0  0  0
  -21.3876   -6.5558   23.8146 C   0  0  0  0  0  0
  -21.3600   -5.6762   24.9151 C   0  0  0  0  0  0
  -21.6004   -4.3013   24.7218 C   0  0  0  0  0  0
  -21.8827   -3.8087   23.4366 C   0  0  0  0  0  0
  -21.9147   -4.6851   22.3385 C   0  0  0  0  0  0
  -22.8970  -13.6397   21.6243 C   0  0  0  0  0  0
  -22.1654   -4.2044   21.0965 F   0  0  0  0  0  0
  -21.5658   -3.4534   25.7755 F   0  0  0  0  0  0
  -30.3477  -13.8010   20.6753 N   0  0  0  0  0  0
  -26.2380  -13.3604   19.4854 N   0  0  0  0  0  0
  -25.6414  -11.5760   19.7625 N   0  0  0  0  0  0
  -22.0656  -12.8389   22.2702 N   0  0  0  0  0  0
  -25.3893  -15.7196   20.6258 N   0  0  0  0  0  0
  -30.0897  -15.6287   21.4522 O   0  0  0  0  0  0
  -21.6463   -6.8694   21.4134 O   0  0  0  0  0  0
  -22.4606  -14.5355   20.8941 O   0  0  0  0  0  0
  -24.7198  -31.7584   23.1242 C   0  0  0  0  0  0
  -25.9612  -32.4266   23.7886 C   0  0  1  0  0  0
  -27.1300  -26.3656   20.0903 C   0  0  0  0  0  0
  -25.6021  -33.8102   24.1716 N   0  0  0  0  0  0
  -23.5443  -30.3646   21.4936 C   0  0  2  0  0  0
  -24.9609  -28.6336   20.1139 C   0  0  0  0  0  0
  -22.7857  -29.4170   22.4650 C   0  0  0  0  0  0
  -18.0354  -28.1455   22.8443 C   0  0  0  0  0  0
  -24.1462  -36.7031   23.2664 C   0  0  0  0  0  0
  -26.1415  -30.3723   21.4202 C   0  0  0  0  0  0
  -26.1772  -28.9069   20.7473 C   0  0  0  0  0  0
  -27.2461  -27.8096   20.6830 C   0  0  0  0  0  0
  -25.8657  -26.3781   19.4469 C   0  0  0  0  0  0
  -24.8583  -27.3992   19.4506 C   0  0  0  0  0  0
  -23.7931  -29.6484   20.1367 C   0  0  0  0  0  0
  -25.4138  -36.2765   24.0255 C   0  0  1  0  0  0
  -20.5986  -28.3812   23.1091 C   0  0  2  0  0  0
  -20.6795  -26.9444   22.5425 C   0  0  0  0  0  0
  -19.5781  -26.6349   21.5231 C   0  0  0  0  0  0
  -18.1964  -26.7970   22.1626 C   0  0  0  0  0  0
  -19.1629  -28.8964   23.2731 C   0  0  0  0  0  0
  -18.9532  -30.1538   23.8786 C   0  0  0  0  0  0
  -17.6524  -30.6628   24.0541 C   0  0  0  0  0  0
  -25.9163  -34.9178   23.4859 C   0  0  0  0  0  0
  -16.5406  -29.9107   23.6364 C   0  0  0  0  0  0
  -16.7332  -28.6534   23.0368 C   0  0  0  0  0  0
  -26.4655  -31.6474   25.0672 C   0  0  0  0  0  0
  -25.3605  -31.3913   26.1212 C   0  0  0  0  0  0
  -27.0686  -30.2790   24.6867 C   0  0  0  0  0  0
  -27.5990  -32.4460   25.7553 C   0  0  0  0  0  0
  -27.5538  -37.1655   24.8445 C   0  0  0  0  0  0
  -21.4476  -29.3011   22.3381 N   0  0  0  0  0  0
  -26.4191  -37.3604   23.9465 N   0  0  0  0  0  0
  -24.8339  -30.8717   22.0652 N   0  0  0  0  0  0
  -23.4188  -28.7781   23.3091 O   0  0  0  0  0  0
  -28.0523  -25.0243   19.9128 O   0  0  0  0  0  0
  -26.5870  -34.8838   22.4528 O   0  0  0  0  0  0
  -23.6148  -32.0824   23.6006 O   0  0  0  0  0  0
  -28.9558  -10.4998   20.8287 C   0  0  0  0  0  0
  -28.1736  -11.2035   19.3017 C   0  0  0  0  0  0
  -27.8173  -11.3449   20.6815 C   0  0  0  0  0  0
  -29.8903  -10.9288   19.8240 C   0  0  0  0  0  0
  -33.0491   -7.0742   20.7795 C   0  0  0  0  0  0
  -33.3225   -9.4878   19.1101 C   0  0  0  0  0  0
  -26.9725  -21.1335   18.3369 C   0  0  0  0  0  0
  -28.5962  -23.0620   21.4302 C   0  0  0  0  0  0
  -29.6104  -23.2037   19.1177 C   0  0  0  0  0  0
  -26.6805  -12.6735   21.5166 C   0  0  0  0  0  0
  -31.3381  -10.5754   20.2192 C   0  0  0  0  0  0
  -32.0628   -8.2383   20.9574 C   0  0  0  0  0  0
  -28.5503  -16.9323   19.2236 C   0  0  0  0  0  0
  -28.7876  -19.0618   19.2757 C   0  0  0  0  0  0
  -29.4052  -14.9954   18.8018 C   0  0  0  0  0  0
  -31.9494   -9.2268   19.7620 C   0  0  2  0  0  0
  -27.9605  -21.0302   19.5048 C   0  0  1  0  0  0
  -28.3068  -23.1015   19.9248 C   0  0  0  0  0  0
  -29.2657  -12.1090   19.0747 N   0  0  0  0  0  0
  -27.6653  -14.2622   21.9950 N   0  0  0  0  0  0
  -31.8904  -14.2672   18.9448 H   0  0  0  0  0  0
  -31.9583  -12.7313   18.9943 H   0  0  0  0  0  0
  -30.3763  -12.3365   16.8635 H   0  0  0  0  0  0
  -30.4984  -13.9933   16.5890 H   0  0  0  0  0  0
  -27.6611  -12.5836   17.0481 H   0  0  0  0  0  0
  -27.7552  -14.2404   16.9448 H   0  0  0  0  0  0
  -27.3292  -14.7293   19.4612 H   0  0  0  0  0  0
  -29.1336  -12.6197   21.8548 H   0  0  0  0  0  0
  -30.0555  -12.6310   21.1026 H   0  0  0  0  0  0
  -25.2367   -9.4904   22.5939 H   0  0  0  0  0  0
  -23.9684   -7.3781   22.7479 H   0  0  0  0  0  0
  -21.0954   -8.8947   19.8953 H   0  0  0  0  0  0
  -22.3909  -11.0120   19.7344 H   0  0  0  0  0  0
  -21.1833   -7.6078   23.9596 H   0  0  0  0  0  0
  -21.1419   -6.0544   25.9034 H   0  0  0  0  0  0
  -22.0675   -2.7551   23.2903 H   0  0  0  0  0  0
  -22.4142  -12.0951   22.8562 H   0  0  0  0  0  0
  -21.0709  -13.0085   22.2200 H   0  0  0  0  0  0
  -24.8368  -16.3531   21.1900 H   0  0  0  0  0  0
  -25.8659  -16.1905   19.8694 H   0  0  0  0  0  0
  -26.7710  -32.4616   23.0591 H   0  0  0  0  0  0
  -24.9993  -33.9076   24.9745 H   0  0  0  0  0  0
  -22.8891  -31.2165   21.2948 H   0  0  0  0  0  0
  -23.3802  -35.9267   23.3186 H   0  0  0  0  0  0
  -24.3504  -36.8872   22.2099 H   0  0  0  0  0  0
  -23.7110  -37.6103   23.6876 H   0  0  0  0  0  0
  -26.3947  -31.0909   20.6385 H   0  0  0  0  0  0
  -26.9732  -30.4162   22.1092 H   0  0  0  0  0  0
  -28.1866  -28.0404   21.1621 H   0  0  0  0  0  0
  -25.6030  -25.4782   18.9094 H   0  0  0  0  0  0
  -23.9371  -27.1851   18.9251 H   0  0  0  0  0  0
  -23.9998  -30.4022   19.3747 H   0  0  0  0  0  0
  -22.8759  -29.1563   19.8078 H   0  0  0  0  0  0
  -25.1348  -36.1450   25.0728 H   0  0  0  0  0  0
  -21.0053  -28.3484   24.1211 H   0  0  0  0  0  0
  -20.5613  -26.2462   23.3725 H   0  0  0  0  0  0
  -21.6662  -26.7330   22.1275 H   0  0  0  0  0  0
  -19.6924  -25.6215   21.1360 H   0  0  0  0  0  0
  -19.6740  -27.3062   20.6686 H   0  0  0  0  0  0
  -17.4224  -26.6684   21.4036 H   0  0  0  0  0  0
  -18.0352  -26.0151   22.9066 H   0  0  0  0  0  0
  -19.8006  -30.7388   24.2084 H   0  0  0  0  0  0
  -17.5084  -31.6298   24.5171 H   0  0  0  0  0  0
  -15.5407  -30.2985   23.7765 H   0  0  0  0  0  0
  -15.8725  -28.0831   22.7137 H   0  0  0  0  0  0
  -24.5796  -30.7283   25.7484 H   0  0  0  0  0  0
  -24.8800  -32.3182   26.4353 H   0  0  0  0  0  0
  -25.7656  -30.9227   27.0189 H   0  0  0  0  0  0
  -26.3465  -29.6245   24.1991 H   0  0  0  0  0  0
  -27.4108  -29.7463   25.5752 H   0  0  0  0  0  0
  -27.9429  -30.3879   24.0457 H   0  0  0  0  0  0
  -27.2435  -33.3874   26.1792 H   0  0  0  0  0  0
  -28.4001  -32.6879   25.0543 H   0  0  0  0  0  0
  -28.0459  -31.8838   26.5774 H   0  0  0  0  0  0
  -28.2416  -38.0091   24.7662 H   0  0  0  0  0  0
  -28.1179  -36.2620   24.6052 H   0  0  0  0  0  0
  -27.2291  -37.1008   25.8849 H   0  0  0  0  0  0
  -20.9834  -29.8664   21.6399 H   0  0  0  0  0  0
  -25.9975  -38.2594   24.1633 H   0  0  0  0  0  0
  -29.2552   -9.9934   21.7345 H   0  0  0  0  0  0
  -27.4838  -11.1924   18.4764 H   0  0  0  0  0  0
  -32.9528   -6.3545   21.5942 H   0  0  0  0  0  0
  -34.0802   -7.4302   20.8001 H   0  0  0  0  0  0
  -32.8876   -6.5457   19.8405 H   0  0  0  0  0  0
  -33.2474  -10.2082   18.2939 H   0  0  0  0  0  0
  -33.7511   -8.5749   18.6993 H   0  0  0  0  0  0
  -34.0365   -9.8788   19.8369 H   0  0  0  0  0  0
  -26.3548  -20.2377   18.2594 H   0  0  0  0  0  0
  -27.4794  -21.2897   17.3853 H   0  0  0  0  0  0
  -26.3044  -21.9791   18.4965 H   0  0  0  0  0  0
  -28.9076  -22.0739   21.7677 H   0  0  0  0  0  0
  -27.7040  -23.3376   21.9902 H   0  0  0  0  0  0
  -29.3823  -23.7662   21.7058 H   0  0  0  0  0  0
  -30.1928  -22.2841   19.1600 H   0  0  0  0  0  0
  -30.2588  -24.0090   19.4641 H   0  0  0  0  0  0
  -29.3830  -23.3922   18.0669 H   0  0  0  0  0  0
  -26.4682  -12.2459   22.5044 H   0  0  0  0  0  0
  -24.5197  -12.9796   19.8677 H   0  0  0  0  0  0
  -31.3141  -10.5369   21.3063 H   0  0  0  0  0  0
  -32.0938  -11.3377   20.2137 H   0  0  0  0  0  0
  -32.3721   -8.7619   21.8615 H   0  0  0  0  0  0
  -31.0708   -7.8422   21.1796 H   0  0  0  0  0  0
  -27.6929  -16.8791   18.5546 H   0  0  0  0  0  0
  -28.0934  -16.7894   20.1991 H   0  0  0  0  0  0
  -29.2113  -19.1901   18.2803 H   0  0  0  0  0  0
  -29.6620  -19.1309   19.9207 H   0  0  0  0  0  0
  -30.3581  -15.4865   19.0033 H   0  0  0  0  0  0
  -29.3972  -15.3406   17.7606 H   0  0  0  0  0  0
  -31.3008   -8.7939   19.0016 H   0  0  0  0  0  0
  -27.3064  -20.8155   20.3486 H   0  0  0  0  0  0
  -27.1606  -14.9988   22.4669 H   0  0  0  0  0  0
  1 25  1  0  0  0
  1 30  2  0  0  0
  1 90  1  0  0  0
  2  3  1  0  0  0
  2 25  1  0  0  0
  2 91  1  0  0  0
  2 92  1  0  0  0
  3  4  1  0  0  0
  3 93  1  0  0  0
  3 94  1  0  0  0
  4  5  1  0  0  0
  4 95  1  0  0  0
  4 96  1  0  0  0
  5  6  1  0  0  0
  5 26  1  0  0  0
  5 97  1  0  0  0
  6 25  1  0  0  0
  6 98  1  0  0  0
  6 99  1  0  0  0
  7  8  2  0  0  0
  7 26  1  0  0  0
  7 29  1  0  0  0
  8  9  1  0  0  0
  8 22  1  0  0  0
  9 10  1  0  0  0
  9 27  2  0  0  0
 10 11  2  0  0  0
 10 15  1  0  0  0
 11 12  1  0  0  0
 11100  1  0  0  0
 12 13  2  0  0  0
 12101  1  0  0  0
 13 14  1  0  0  0
 13 31  1  0  0  0
 14 15  2  0  0  0
 14102  1  0  0  0
 15103  1  0  0  0
 16 17  2  0  0  0
 16 21  1  0  0  0
 16 31  1  0  0  0
 17 18  1  0  0  0
 17104  1  0  0  0
 18 19  2  0  0  0
 18105  1  0  0  0
 19 20  1  0  0  0
 19 24  1  0  0  0
 20 21  2  0  0  0
 20106  1  0  0  0
 21 23  1  0  0  0
 22 28  1  0  0  0
 22 32  2  0  0  0
 26 27  1  0  0  0
 28107  1  0  0  0
 28108  1  0  0  0
 29109  1  0  0  0
 29110  1  0  0  0
 33 34  1  0  0  0
 33 66  1  0  0  0
 33 70  2  0  0  0
 34 36  1  0  0  0
 34 59  1  0  0  0
 34111  1  0  0  0
 35 44  2  0  0  0
 35 45  1  0  0  0
 35 68  1  0  0  0
 36 56  1  0  0  0
 36112  1  0  0  0
 37 39  1  0  0  0
 37 47  1  0  0  0
 37 66  1  0  0  0
 37113  1  0  0  0
 38 43  2  0  0  0
 38 46  1  0  0  0
 38 47  1  0  0  0
 39 64  1  0  0  0
 39 67  2  0  0  0
 40 52  1  0  0  0
 40 53  2  0  0  0
 40 58  1  0  0  0
 41114  1  0  0  0
 41115  1  0  0  0
 41116  1  0  0  0
 41 48  1  0  0  0
 42 43  1  0  0  0
 42 66  1  0  0  0
 42117  1  0  0  0
 42118  1  0  0  0
 43 44  1  0  0  0
 44119  1  0  0  0
 45 46  2  0  0  0
 45120  1  0  0  0
 46121  1  0  0  0
 47122  1  0  0  0
 47123  1  0  0  0
 48 56  1  0  0  0
 48 65  1  0  0  0
 48124  1  0  0  0
 49 50  1  0  0  0
 49 53  1  0  0  0
 49 64  1  0  0  0
 49125  1  0  0  0
 50 51  1  0  0  0
 50126  1  0  0  0
 50127  1  0  0  0
 51 52  1  0  0  0
 51128  1  0  0  0
 51129  1  0  0  0
 52130  1  0  0  0
 52131  1  0  0  0
 53 54  1  0  0  0
 54 55  2  0  0  0
 54132  1  0  0  0
 55 57  1  0  0  0
 55133  1  0  0  0
 56 69  2  0  0  0
 57 58  2  0  0  0
 57134  1  0  0  0
 58135  1  0  0  0
 59 60  1  0  0  0
 59 61  1  0  0  0
 59 62  1  0  0  0
 60136  1  0  0  0
 60137  1  0  0  0
 60138  1  0  0  0
 61139  1  0  0  0
 61140  1  0  0  0
 61141  1  0  0  0
 62142  1  0  0  0
 62143  1  0  0  0
 62144  1  0  0  0
 63 65  1  0  0  0
 63145  1  0  0  0
 63146  1  0  0  0
 63147  1  0  0  0
 64148  1  0  0  0
 65149  1  0  0  0
 68 88  1  0  0  0
 71 73  1  0  0  0
 71 74  2  0  0  0
 71150  1  0  0  0
 72 73  2  0  0  0
 72 89  1  0  0  0
 72151  1  0  0  0
 73 80  1  0  0  0
 74 81  1  0  0  0
 74 89  1  0  0  0
 75 82  1  0  0  0
 75152  1  0  0  0
 75153  1  0  0  0
 75154  1  0  0  0
 76155  1  0  0  0
 76156  1  0  0  0
 76157  1  0  0  0
 76 86  1  0  0  0
 77158  1  0  0  0
 77159  1  0  0  0
 77160  1  0  0  0
 77 87  1  0  0  0
 78161  1  0  0  0
 78162  1  0  0  0
 78163  1  0  0  0
 78 88  1  0  0  0
 79 88  1  0  0  0
 79164  1  0  0  0
 79165  1  0  0  0
 79166  1  0  0  0
 80 90  1  0  0  0
 80167  1  0  0  0
 80168  1  0  0  0
 81 86  1  0  0  0
 81169  1  0  0  0
 81170  1  0  0  0
 82 86  1  0  0  0
 82171  1  0  0  0
 82172  1  0  0  0
 83 84  1  0  0  0
 83 85  1  0  0  0
 83173  1  0  0  0
 83174  1  0  0  0
 84 87  1  0  0  0
 84175  1  0  0  0
 84176  1  0  0  0
 85 89  1  0  0  0
 85177  1  0  0  0
 85178  1  0  0  0
 86179  1  0  0  0
 87 88  1  0  0  0
 87180  1  0  0  0
 90181  1  0  0  0
M  ISO  4   1 100  68 101  88 101  90 100
M  END
> <chiral flag>
0

> <version>
0

> <s_m_source_file>
/data/baiqing/PycharmProjects/Reinvent-master-3.2/result/LINK_invent/BTK/process_docking_weight1_custom_sum_contain_oxygen_bond_distance_aromatic_linkinvent_7_9_3/rearranged_h_0095.sdf

> <i_m_source_file_index>
40

> <r_mmod_Potential_Energy-OPLS-2005>
23555.17578125

> <r_mmod_Stretch_Energy-OPLS-2005>
13415.6103515625

> <r_mmod_Bend_Energy-OPLS-2005>
2272.43041992188

> <r_mmod_Torsional_Energy-OPLS-2005>
812.967346191406

> <r_mmod_Improper_Torsional_Energy-OPLS-2005>
107.543113708496

> <r_mmod_Van_der_Waal_Energy-OPLS-2005>
4914.1943359375

> <r_mmod_Electrostatic_Energy-OPLS-2005>
-411.133422851562

> <r_mmod_Solvation_Energy-OPLS-2005>
-203.699996948242

> <b_mmod_Minimization_Converged-OPLS-2005>
0

> <r_mmod_RMS_Derivative-OPLS-2005>
10.1610870361328

$$$$
40
                    3D
 Structure written by MMmdl.
163171  0  0  1  0            999 V2000
  -30.6434  -14.3967   20.6363 C   0  0  0  0  0  0
  -30.4483  -12.2891   19.3636 C   0  0  0  0  0  0
  -29.4954  -12.5469   18.1737 C   0  0  0  0  0  0
  -28.0115  -12.4057   18.5839 C   0  0  0  0  0  0
  -27.6781  -13.1730   19.8899 C   0  0  2  0  0  0
  -28.7202  -12.8175   20.9752 C   0  0  0  0  0  0
  -25.2780  -13.8093   20.5757 C   0  0  0  0  0  0
  -24.1960  -13.0433   20.9267 C   0  0  0  0  0  0
  -24.6401  -11.6873   20.8704 C   0  0  0  0  0  0
  -23.9040  -10.4267   21.0369 C   0  0  0  0  0  0
  -24.3629   -9.4160   21.9106 C   0  0  0  0  0  0
  -23.6304   -8.2194   22.0704 C   0  0  0  0  0  0
  -22.4258   -8.0267   21.3535 C   0  0  0  0  0  0
  -21.9854   -9.0266   20.4684 C   0  0  0  0  0  0
  -22.7172  -10.2150   20.3085 C   0  0  0  0  0  0
  -21.6836   -6.0716   22.5252 C   0  0  0  0  0  0
  -21.4004   -6.5638   23.8182 C   0  0  0  0  0  0
  -21.3636   -5.6802   24.9144 C   0  0  0  0  0  0
  -21.6033   -4.3062   24.7226 C   0  0  0  0  0  0
  -21.8830   -3.8139   23.4358 C   0  0  0  0  0  0
  -21.9203   -4.6936   22.3407 C   0  0  0  0  0  0
  -22.7994  -13.5287   21.1900 C   0  0  0  0  0  0
  -22.1712   -4.2109   21.0997 F   0  0  0  0  0  0
  -21.5606   -3.4570   25.7758 F   0  0  0  0  0  0
  -30.0551  -13.1874   20.4560 N   0  0  0  0  0  0
  -26.3118  -12.9158   20.3394 N   0  0  0  0  0  0
  -25.9298  -11.6364   20.5643 N   0  0  0  0  0  0
  -22.0599  -12.8308   22.0467 N   0  0  0  0  0  0
  -25.4754  -15.1818   20.4264 N   0  0  0  0  0  0
  -31.6982  -14.7475   20.0971 O   0  0  0  0  0  0
  -21.6637   -6.8855   21.4216 O   0  0  0  0  0  0
  -22.3742  -14.5568   20.6672 O   0  0  0  0  0  0
  -24.6156  -31.8714   23.2183 C   0  0  0  0  0  0
  -25.9090  -32.4811   23.8452 C   0  0  1  0  0  0
  -27.2342  -27.4468   20.0972 C   0  0  0  0  0  0
  -25.5995  -33.8612   24.2386 N   0  0  0  0  0  0
  -23.3985  -30.4988   21.5576 C   0  0  2  0  0  0
  -24.8411  -28.9656   20.1239 C   0  0  0  0  0  0
  -22.7402  -29.4693   22.5033 C   0  0  0  0  0  0
  -18.0287  -28.1357   22.8486 C   0  0  0  0  0  0
  -24.1495  -36.7271   23.2635 C   0  0  0  0  0  0
  -25.9300  -30.8394   21.3733 C   0  0  0  0  0  0
  -26.0039  -29.4802   20.7091 C   0  0  0  0  0  0
  -27.1993  -28.7302   20.6883 C   0  0  0  0  0  0
  -26.0397  -26.9302   19.5367 C   0  0  0  0  0  0
  -24.8529  -27.6869   19.5417 C   0  0  0  0  0  0
  -23.6036  -29.8331   20.1719 C   0  0  0  0  0  0
  -25.4115  -36.3091   24.0346 C   0  0  1  0  0  0
  -20.5876  -28.3657   23.1318 C   0  0  2  0  0  0
  -20.6786  -26.9404   22.5404 C   0  0  0  0  0  0
  -19.5776  -26.6386   21.5190 C   0  0  0  0  0  0
  -18.1944  -26.7920   22.1590 C   0  0  0  0  0  0
  -19.1534  -28.8826   23.2892 C   0  0  0  0  0  0
  -18.9456  -30.1431   23.8907 C   0  0  0  0  0  0
  -17.6460  -30.6575   24.0549 C   0  0  0  0  0  0
  -25.9053  -34.9459   23.5139 C   0  0  0  0  0  0
  -16.5351  -29.9064   23.6328 C   0  0  0  0  0  0
  -16.7275  -28.6470   23.0364 C   0  0  0  0  0  0
  -26.4535  -31.6615   25.0793 C   0  0  0  0  0  0
  -25.3805  -31.3745   26.1547 C   0  0  0  0  0  0
  -27.0391  -30.3047   24.6236 C   0  0  0  0  0  0
  -27.6130  -32.4345   25.7520 C   0  0  0  0  0  0
  -27.5583  -37.1791   24.8472 C   0  0  0  0  0  0
  -21.4148  -29.3020   22.3729 N   0  0  0  0  0  0
  -26.4299  -37.3776   23.9420 N   0  0  0  0  0  0
  -24.6647  -31.0849   22.1062 N   0  0  0  0  0  0
  -23.4172  -28.8257   23.3088 O   0  0  0  0  0  0
  -28.4471  -26.7870   20.0787 O   0  0  0  0  0  0
  -26.5546  -34.8900   22.4659 O   0  0  0  0  0  0
  -23.5364  -32.1476   23.7602 O   0  0  0  0  0  0
  -26.8632  -19.1070   22.1007 C   0  0  0  0  0  0
  -29.0010  -19.7454   22.0591 C   0  0  0  0  0  0
  -28.2092  -18.6285   22.1189 C   0  0  0  0  0  0
  -26.8749  -20.4689   22.1601 C   0  0  0  0  0  0
  -25.7319  -21.4187   22.3381 C   0  0  0  0  0  0
  -28.4921  -23.0248   20.8056 C   0  0  0  0  0  0
  -28.4253  -24.5503   21.0359 C   0  0  0  0  0  0
  -28.6754  -22.2557   22.1337 C   0  0  0  0  0  0
  -29.7033  -16.6685   21.2590 C   0  0  0  0  0  0
  -28.5296  -25.3965   19.7553 C   0  0  0  0  0  0
  -28.6447  -17.1787   22.2805 C   0  0  2  0  0  0
  -28.1980  -20.8768   22.0894 N   0  0  0  0  0  0
  -29.8649  -15.2149   21.3546 N   0  0  0  0  0  0
  -27.4489  -16.3192   22.3747 N   0  3  0  0  0  0
  -31.4865  -12.4390   19.0596 H   0  0  0  0  0  0
  -30.3768  -11.2502   19.6895 H   0  0  0  0  0  0
  -29.7242  -11.8649   17.3537 H   0  0  0  0  0  0
  -29.6655  -13.5523   17.7849 H   0  0  0  0  0  0
  -27.7913  -11.3455   18.7083 H   0  0  0  0  0  0
  -27.3667  -12.7546   17.7750 H   0  0  0  0  0  0
  -27.7555  -14.2363   19.6706 H   0  0  0  0  0  0
  -28.6981  -11.7426   21.1640 H   0  0  0  0  0  0
  -28.4803  -13.2613   21.9416 H   0  0  0  0  0  0
  -25.2826   -9.5598   22.4602 H   0  0  0  0  0  0
  -24.0015   -7.4572   22.7407 H   0  0  0  0  0  0
  -21.0743   -8.8851   19.9035 H   0  0  0  0  0  0
  -22.3610  -10.9731   19.6259 H   0  0  0  0  0  0
  -21.1987   -7.6142   23.9676 H   0  0  0  0  0  0
  -21.1455   -6.0542   25.9049 H   0  0  0  0  0  0
  -22.0623   -2.7598   23.2886 H   0  0  0  0  0  0
  -21.1184  -13.1270   22.2623 H   0  0  0  0  0  0
  -22.4332  -12.0153   22.5081 H   0  0  0  0  0  0
  -24.5817  -15.6642   20.3753 H   0  0  0  0  0  0
  -26.0144  -15.3917   19.5937 H   0  0  0  0  0  0
  -26.7157  -32.5514   23.1211 H   0  0  0  0  0  0
  -25.0324  -33.9793   25.0651 H   0  0  0  0  0  0
  -22.6869  -31.3153   21.4213 H   0  0  0  0  0  0
  -23.3763  -35.9595   23.3325 H   0  0  0  0  0  0
  -24.3600  -36.8851   22.2045 H   0  0  0  0  0  0
  -23.7230  -37.6487   23.6610 H   0  0  0  0  0  0
  -26.0613  -31.6215   20.6236 H   0  0  0  0  0  0
  -26.8070  -30.8697   22.0070 H   0  0  0  0  0  0
  -28.1000  -29.1333   21.1301 H   0  0  0  0  0  0
  -25.9848  -25.9495   19.0913 H   0  0  0  0  0  0
  -23.9520  -27.2776   19.1043 H   0  0  0  0  0  0
  -23.7062  -30.6078   19.4114 H   0  0  0  0  0  0
  -22.7268  -29.2542   19.8775 H   0  0  0  0  0  0
  -25.1272  -36.1964   25.0834 H   0  0  0  0  0  0
  -20.9947  -28.3213   24.1447 H   0  0  0  0  0  0
  -20.5713  -26.2256   23.3581 H   0  0  0  0  0  0
  -21.6659  -26.7474   22.1186 H   0  0  0  0  0  0
  -19.6969  -25.6297   21.1224 H   0  0  0  0  0  0
  -19.6738  -27.3196   20.6719 H   0  0  0  0  0  0
  -17.4231  -26.6696   21.3968 H   0  0  0  0  0  0
  -18.0331  -26.0031   22.8945 H   0  0  0  0  0  0
  -19.7931  -30.7238   24.2294 H   0  0  0  0  0  0
  -17.5011  -31.6267   24.5126 H   0  0  0  0  0  0
  -15.5350  -30.2956   23.7664 H   0  0  0  0  0  0
  -15.8666  -28.0773   22.7107 H   0  0  0  0  0  0
  -24.5942  -30.7125   25.7906 H   0  0  0  0  0  0
  -24.9030  -32.2915   26.5018 H   0  0  0  0  0  0
  -25.8164  -30.8906   27.0295 H   0  0  0  0  0  0
  -26.2985  -29.6763   24.1270 H   0  0  0  0  0  0
  -27.4127  -29.7333   25.4750 H   0  0  0  0  0  0
  -27.8833  -30.4352   23.9450 H   0  0  0  0  0  0
  -27.2779  -33.3626   26.2150 H   0  0  0  0  0  0
  -28.3900  -32.6943   25.0319 H   0  0  0  0  0  0
  -28.0851  -31.8451   26.5387 H   0  0  0  0  0  0
  -28.2606  -38.0079   24.7490 H   0  0  0  0  0  0
  -28.1071  -36.2607   24.6317 H   0  0  0  0  0  0
  -27.2306  -37.1468   25.8879 H   0  0  0  0  0  0
  -20.9341  -29.8676   21.6876 H   0  0  0  0  0  0
  -26.0190  -38.2856   24.1419 H   0  0  0  0  0  0
  -25.9557  -18.5193   22.1282 H   0  0  0  0  0  0
  -30.0793  -19.8403   22.0552 H   0  0  0  0  0  0
  -24.7791  -20.8978   22.2406 H   0  0  0  0  0  0
  -25.7474  -22.2239   21.6057 H   0  0  0  0  0  0
  -25.7534  -21.8607   23.3363 H   0  0  0  0  0  0
  -29.3183  -22.7773   20.1368 H   0  0  0  0  0  0
  -27.5891  -22.7007   20.2882 H   0  0  0  0  0  0
  -29.2396  -24.8468   21.6973 H   0  0  0  0  0  0
  -27.5024  -24.7916   21.5652 H   0  0  0  0  0  0
  -28.1518  -22.7623   22.9440 H   0  0  0  0  0  0
  -29.7294  -22.2568   22.4145 H   0  0  0  0  0  0
  -30.6622  -17.1668   21.4038 H   0  0  0  0  0  0
  -29.3817  -16.9079   20.2448 H   0  0  0  0  0  0
  -27.8318  -25.0725   18.9858 H   0  0  0  0  0  0
  -29.5169  -25.2429   19.3179 H   0  0  0  0  0  0
  -29.1081  -17.1420   23.2684 H   0  0  0  0  0  0
  -29.1128  -14.7035   21.7811 H   0  0  0  0  0  0
  -26.9871  -16.1618   21.4886 H   0  0  0  0  0  0
  -26.7912  -16.8048   22.9570 H   0  0  0  0  0  0
  -27.6499  -15.4461   22.8196 H   0  0  0  0  0  0
  1 25  1  0  0  0
  1 30  2  0  0  0
  1 83  1  0  0  0
  2  3  1  0  0  0
  2 25  1  0  0  0
  2 85  1  0  0  0
  2 86  1  0  0  0
  3  4  1  0  0  0
  3 87  1  0  0  0
  3 88  1  0  0  0
  4  5  1  0  0  0
  4 89  1  0  0  0
  4 90  1  0  0  0
  5  6  1  0  0  0
  5 26  1  0  0  0
  5 91  1  0  0  0
  6 25  1  0  0  0
  6 92  1  0  0  0
  6 93  1  0  0  0
  7  8  2  0  0  0
  7 26  1  0  0  0
  7 29  1  0  0  0
  8  9  1  0  0  0
  8 22  1  0  0  0
  9 10  1  0  0  0
  9 27  2  0  0  0
 10 11  2  0  0  0
 10 15  1  0  0  0
 11 12  1  0  0  0
 11 94  1  0  0  0
 12 13  2  0  0  0
 12 95  1  0  0  0
 13 14  1  0  0  0
 13 31  1  0  0  0
 14 15  2  0  0  0
 14 96  1  0  0  0
 15 97  1  0  0  0
 16 17  2  0  0  0
 16 21  1  0  0  0
 16 31  1  0  0  0
 17 18  1  0  0  0
 17 98  1  0  0  0
 18 19  2  0  0  0
 18 99  1  0  0  0
 19 20  1  0  0  0
 19 24  1  0  0  0
 20 21  2  0  0  0
 20100  1  0  0  0
 21 23  1  0  0  0
 22 28  1  0  0  0
 22 32  2  0  0  0
 26 27  1  0  0  0
 28101  1  0  0  0
 28102  1  0  0  0
 29103  1  0  0  0
 29104  1  0  0  0
 33 34  1  0  0  0
 33 66  1  0  0  0
 33 70  2  0  0  0
 34 36  1  0  0  0
 34 59  1  0  0  0
 34105  1  0  0  0
 35 44  2  0  0  0
 35 45  1  0  0  0
 35 68  1  0  0  0
 36 56  1  0  0  0
 36106  1  0  0  0
 37 39  1  0  0  0
 37 47  1  0  0  0
 37 66  1  0  0  0
 37107  1  0  0  0
 38 43  2  0  0  0
 38 46  1  0  0  0
 38 47  1  0  0  0
 39 64  1  0  0  0
 39 67  2  0  0  0
 40 52  1  0  0  0
 40 53  2  0  0  0
 40 58  1  0  0  0
 41108  1  0  0  0
 41109  1  0  0  0
 41110  1  0  0  0
 41 48  1  0  0  0
 42 43  1  0  0  0
 42 66  1  0  0  0
 42111  1  0  0  0
 42112  1  0  0  0
 43 44  1  0  0  0
 44113  1  0  0  0
 45 46  2  0  0  0
 45114  1  0  0  0
 46115  1  0  0  0
 47116  1  0  0  0
 47117  1  0  0  0
 48 56  1  0  0  0
 48 65  1  0  0  0
 48118  1  0  0  0
 49 50  1  0  0  0
 49 53  1  0  0  0
 49 64  1  0  0  0
 49119  1  0  0  0
 50 51  1  0  0  0
 50120  1  0  0  0
 50121  1  0  0  0
 51 52  1  0  0  0
 51122  1  0  0  0
 51123  1  0  0  0
 52124  1  0  0  0
 52125  1  0  0  0
 53 54  1  0  0  0
 54 55  2  0  0  0
 54126  1  0  0  0
 55 57  1  0  0  0
 55127  1  0  0  0
 56 69  2  0  0  0
 57 58  2  0  0  0
 57128  1  0  0  0
 58129  1  0  0  0
 59 60  1  0  0  0
 59 61  1  0  0  0
 59 62  1  0  0  0
 60130  1  0  0  0
 60131  1  0  0  0
 60132  1  0  0  0
 61133  1  0  0  0
 61134  1  0  0  0
 61135  1  0  0  0
 62136  1  0  0  0
 62137  1  0  0  0
 62138  1  0  0  0
 63 65  1  0  0  0
 63139  1  0  0  0
 63140  1  0  0  0
 63141  1  0  0  0
 64142  1  0  0  0
 65143  1  0  0  0
 68 80  1  0  0  0
 71 73  1  0  0  0
 71 74  2  0  0  0
 71144  1  0  0  0
 72 73  2  0  0  0
 72 82  1  0  0  0
 72145  1  0  0  0
 73 81  1  0  0  0
 74 75  1  0  0  0
 74 82  1  0  0  0
 75146  1  0  0  0
 75147  1  0  0  0
 75148  1  0  0  0
 76 77  1  0  0  0
 76 78  1  0  0  0
 76149  1  0  0  0
 76150  1  0  0  0
 77 80  1  0  0  0
 77151  1  0  0  0
 77152  1  0  0  0
 78 82  1  0  0  0
 78153  1  0  0  0
 78154  1  0  0  0
 79 81  1  0  0  0
 79 83  1  0  0  0
 79155  1  0  0  0
 79156  1  0  0  0
 80157  1  0  0  0
 80158  1  0  0  0
 81 84  1  0  0  0
 81159  1  0  0  0
 83160  1  0  0  0
 84161  1  0  0  0
 84162  1  0  0  0
 84163  1  0  0  0
M  CHG  1  84   1
M  ISO  4   1 100  68 101  80 101  83 100
M  END
> <chiral flag>
0

> <version>
0

> <s_m_source_file>
/data/baiqing/PycharmProjects/Reinvent-master-3.2/result/LINK_invent/BTK/process_docking_weight1_custom_sum_contain_oxygen_bond_distance_aromatic_linkinvent_7_9_3/rearranged_h_0095.sdf

> <i_m_source_file_index>
41

> <r_mmod_Potential_Energy-OPLS-2005>
-385.089172363281

> <r_mmod_Stretch_Energy-OPLS-2005>
33.9084281921387

> <r_mmod_Bend_Energy-OPLS-2005>
107.314384460449

> <r_mmod_Torsional_Energy-OPLS-2005>
263.185089111328

> <r_mmod_Improper_Torsional_Energy-OPLS-2005>
11.3618011474609

> <r_mmod_Van_der_Waal_Energy-OPLS-2005>
134.104431152344

> <r_mmod_Electrostatic_Energy-OPLS-2005>
-470.720703125

> <r_mmod_Solvation_Energy-OPLS-2005>
-478.991302490234

> <b_mmod_Minimization_Converged-OPLS-2005>
0

> <r_mmod_RMS_Derivative-OPLS-2005>
3.67396926879883

$$$$
41
                    3D
 Structure written by MMmdl.
169177  0  0  1  0            999 V2000
  -30.6000  -14.7343   20.4999 C   0  0  0  0  0  0
  -30.4387  -12.4610   19.4690 C   0  0  0  0  0  0
  -29.5127  -12.5167   18.2327 C   0  0  0  0  0  0
  -28.0343  -12.3440   18.6372 C   0  0  0  0  0  0
  -27.6425  -13.2288   19.8507 C   0  0  2  0  0  0
  -28.6853  -13.1396   20.9854 C   0  0  0  0  0  0
  -25.2519  -13.8223   20.5653 C   0  0  0  0  0  0
  -24.1814  -13.0468   20.9192 C   0  0  0  0  0  0
  -24.6394  -11.6942   20.8736 C   0  0  0  0  0  0
  -23.9076  -10.4321   21.0403 C   0  0  0  0  0  0
  -24.3627   -9.4237   21.9173 C   0  0  0  0  0  0
  -23.6318   -8.2263   22.0740 C   0  0  0  0  0  0
  -22.4293   -8.0295   21.3534 C   0  0  0  0  0  0
  -21.9935   -9.0281   20.4638 C   0  0  0  0  0  0
  -22.7262  -10.2154   20.3052 C   0  0  0  0  0  0
  -21.6874   -6.0749   22.5276 C   0  0  0  0  0  0
  -21.4025   -6.5651   23.8205 C   0  0  0  0  0  0
  -21.3656   -5.6796   24.9168 C   0  0  0  0  0  0
  -21.6045   -4.3064   24.7201 C   0  0  0  0  0  0
  -21.8832   -3.8151   23.4334 C   0  0  0  0  0  0
  -21.9205   -4.6972   22.3387 C   0  0  0  0  0  0
  -22.7830  -13.5245   21.1858 C   0  0  0  0  0  0
  -22.1670   -4.2164   21.0962 F   0  0  0  0  0  0
  -21.5628   -3.4546   25.7720 F   0  0  0  0  0  0
  -29.9845  -13.5087   20.4095 N   0  0  0  0  0  0
  -26.2929  -12.9406   20.3240 N   0  0  0  0  0  0
  -25.9317  -11.6552   20.5729 N   0  0  0  0  0  0
  -22.0464  -12.8226   22.0401 N   0  0  0  0  0  0
  -25.4226  -15.1957   20.4076 N   0  0  0  0  0  0
  -31.7878  -14.8528   20.1895 O   0  0  0  0  0  0
  -21.6657   -6.8903   21.4238 O   0  0  0  0  0  0
  -22.3514  -14.5556   20.6720 O   0  0  0  0  0  0
  -24.6312  -31.8554   23.1991 C   0  0  0  0  0  0
  -25.9154  -32.4738   23.8322 C   0  0  1  0  0  0
  -27.2141  -27.2611   20.1292 C   0  0  0  0  0  0
  -25.5960  -33.8544   24.2243 N   0  0  0  0  0  0
  -23.4259  -30.4810   21.5416 C   0  0  2  0  0  0
  -24.8711  -28.9287   20.1104 C   0  0  0  0  0  0
  -22.7476  -29.4629   22.4901 C   0  0  0  0  0  0
  -18.0294  -28.1383   22.8489 C   0  0  0  0  0  0
  -24.1495  -36.7281   23.2635 C   0  0  0  0  0  0
  -25.9724  -30.7670   21.3819 C   0  0  0  0  0  0
  -26.0439  -29.3908   20.7222 C   0  0  0  0  0  0
  -27.2172  -28.5698   20.7210 C   0  0  0  0  0  0
  -26.0208  -26.8767   19.4742 C   0  0  0  0  0  0
  -24.8649  -27.6787   19.4759 C   0  0  0  0  0  0
  -23.6428  -29.8160   20.1574 C   0  0  0  0  0  0
  -25.4121  -36.3051   24.0317 C   0  0  1  0  0  0
  -20.5896  -28.3708   23.1254 C   0  0  2  0  0  0
  -20.6785  -26.9429   22.5399 C   0  0  0  0  0  0
  -19.5756  -26.6387   21.5202 C   0  0  0  0  0  0
  -18.1941  -26.7926   22.1620 C   0  0  0  0  0  0
  -19.1549  -28.8858   23.2868 C   0  0  0  0  0  0
  -18.9467  -30.1464   23.8893 C   0  0  0  0  0  0
  -17.6469  -30.6585   24.0567 C   0  0  0  0  0  0
  -25.9068  -34.9428   23.5072 C   0  0  0  0  0  0
  -16.5361  -29.9085   23.6334 C   0  0  0  0  0  0
  -16.7285  -28.6497   23.0360 C   0  0  0  0  0  0
  -26.4521  -31.6568   25.0719 C   0  0  0  0  0  0
  -25.3746  -31.3739   26.1440 C   0  0  0  0  0  0
  -27.0379  -30.2971   24.6239 C   0  0  0  0  0  0
  -27.6053  -32.4332   25.7510 C   0  0  0  0  0  0
  -27.5573  -37.1792   24.8458 C   0  0  0  0  0  0
  -21.4187  -29.3057   22.3635 N   0  0  0  0  0  0
  -26.4284  -37.3757   23.9406 N   0  0  0  0  0  0
  -24.6952  -31.0523   22.0968 N   0  0  0  0  0  0
  -23.4181  -28.8176   23.2999 O   0  0  0  0  0  0
  -28.3111  -26.3669   20.1692 O   0  0  0  0  0  0
  -26.5629  -34.8907   22.4637 O   0  0  0  0  0  0
  -23.5462  -32.1403   23.7285 O   0  0  0  0  0  0
  -31.1959  -21.6566   19.2748 C   0  0  0  0  0  0
  -31.9251  -20.6055   18.6668 C   0  0  0  0  0  0
  -30.0506  -21.1826   19.8563 C   0  0  0  0  0  0
  -31.2109  -19.4621   18.8966 C   0  0  0  0  0  0
  -31.4919  -18.0983   18.3190 C   0  0  0  0  0  0
  -34.6526  -19.6884   19.7636 C   0  0  0  0  0  0
  -28.9592  -22.1795   20.4012 C   0  0  0  0  0  0
  -34.4563  -20.8818   18.8143 C   0  0  0  0  0  0
  -29.1994  -23.7813   20.1517 C   0  0  0  0  0  0
  -29.3822  -18.5675   20.3942 C   0  0  0  0  0  0
  -30.2302  -17.3035   20.9927 C   0  0  0  0  0  0
  -28.0522  -24.8960   20.3884 C   0  0  0  0  0  0
  -33.2264  -20.7409   17.8901 C   0  0  2  0  0  0
  -30.1676  -19.7290   19.7993 N   0  0  0  0  0  0
  -29.8162  -15.8477   20.7607 N   0  0  0  0  0  0
  -33.1383  -21.8556   16.9388 N   0  3  0  0  0  0
  -31.4769  -12.6045   19.1640 H   0  0  0  0  0  0
  -30.3963  -11.4812   19.9460 H   0  0  0  0  0  0
  -29.7992  -11.7481   17.5148 H   0  0  0  0  0  0
  -29.6423  -13.4725   17.7232 H   0  0  0  0  0  0
  -27.8741  -11.2930   18.8775 H   0  0  0  0  0  0
  -27.3870  -12.5602   17.7848 H   0  0  0  0  0  0
  -27.6438  -14.2560   19.4860 H   0  0  0  0  0  0
  -28.7223  -12.1321   21.4040 H   0  0  0  0  0  0
  -28.4150  -13.8036   21.8084 H   0  0  0  0  0  0
  -25.2775   -9.5747   22.4736 H   0  0  0  0  0  0
  -24.0058   -7.4674   22.7464 H   0  0  0  0  0  0
  -21.0859   -8.8824   19.8946 H   0  0  0  0  0  0
  -22.3739  -10.9698   19.6163 H   0  0  0  0  0  0
  -21.2006   -7.6160   23.9730 H   0  0  0  0  0  0
  -21.1465   -6.0497   25.9069 H   0  0  0  0  0  0
  -22.0603   -2.7616   23.2817 H   0  0  0  0  0  0
  -22.4095  -11.9894   22.4806 H   0  0  0  0  0  0
  -21.1075  -13.1252   22.2599 H   0  0  0  0  0  0
  -24.6554  -15.8514   20.5157 H   0  0  0  0  0  0
  -26.2641  -15.6311   20.0529 H   0  0  0  0  0  0
  -26.7215  -32.5381   23.1052 H   0  0  0  0  0  0
  -25.0116  -33.9687   25.0389 H   0  0  0  0  0  0
  -22.7234  -31.3056   21.3949 H   0  0  0  0  0  0
  -23.3751  -35.9615   23.3284 H   0  0  0  0  0  0
  -24.3588  -36.8923   22.2052 H   0  0  0  0  0  0
  -23.7263  -37.6480   23.6680 H   0  0  0  0  0  0
  -26.1174  -31.5310   20.6182 H   0  0  0  0  0  0
  -26.8483  -30.8073   22.0192 H   0  0  0  0  0  0
  -28.1134  -28.9171   21.2156 H   0  0  0  0  0  0
  -25.9507  -25.9417   18.9422 H   0  0  0  0  0  0
  -23.9714  -27.3254   18.9797 H   0  0  0  0  0  0
  -23.7668  -30.5927   19.4006 H   0  0  0  0  0  0
  -22.7602  -29.2492   19.8525 H   0  0  0  0  0  0
  -25.1300  -36.1876   25.0807 H   0  0  0  0  0  0
  -21.0002  -28.3299   24.1368 H   0  0  0  0  0  0
  -20.5680  -26.2324   23.3610 H   0  0  0  0  0  0
  -21.6654  -26.7452   22.1192 H   0  0  0  0  0  0
  -19.6924  -25.6294   21.1244 H   0  0  0  0  0  0
  -19.6686  -27.3185   20.6726 H   0  0  0  0  0  0
  -17.4211  -26.6680   21.4032 H   0  0  0  0  0  0
  -18.0350  -26.0064   22.9008 H   0  0  0  0  0  0
  -19.7953  -30.7279   24.2248 H   0  0  0  0  0  0
  -17.5034  -31.6265   24.5168 H   0  0  0  0  0  0
  -15.5367  -30.2986   23.7662 H   0  0  0  0  0  0
  -15.8688  -28.0816   22.7083 H   0  0  0  0  0  0
  -24.5900  -30.7112   25.7773 H   0  0  0  0  0  0
  -24.8979  -32.2925   26.4863 H   0  0  0  0  0  0
  -25.8065  -30.8908   27.0212 H   0  0  0  0  0  0
  -26.2976  -29.6702   24.1253 H   0  0  0  0  0  0
  -27.4020  -29.7249   25.4783 H   0  0  0  0  0  0
  -27.8869  -30.4215   23.9518 H   0  0  0  0  0  0
  -27.2617  -33.3619   26.2074 H   0  0  0  0  0  0
  -28.3876  -32.6916   25.0366 H   0  0  0  0  0  0
  -28.0705  -31.8480   26.5446 H   0  0  0  0  0  0
  -28.2568  -38.0107   24.7507 H   0  0  0  0  0  0
  -28.1088  -36.2636   24.6269 H   0  0  0  0  0  0
  -27.2297  -37.1420   25.8861 H   0  0  0  0  0  0
  -20.9365  -29.8768   21.6836 H   0  0  0  0  0  0
  -26.0149  -38.2820   24.1412 H   0  0  0  0  0  0
  -31.4697  -22.7010   19.2344 H   0  0  0  0  0  0
  -32.3424  -17.6310   18.8153 H   0  0  0  0  0  0
  -31.7326  -18.1626   17.2581 H   0  0  0  0  0  0
  -30.6416  -17.4201   18.3822 H   0  0  0  0  0  0
  -35.5551  -19.8066   20.3615 H   0  0  0  0  0  0
  -34.7477  -18.7575   19.2042 H   0  0  0  0  0  0
  -33.8162  -19.5769   20.4550 H   0  0  0  0  0  0
  -28.8298  -22.0189   21.4712 H   0  0  0  0  0  0
  -28.0025  -21.9072   19.9531 H   0  0  0  0  0  0
  -35.3555  -20.9838   18.2028 H   0  0  0  0  0  0
  -34.3818  -21.7963   19.4042 H   0  0  0  0  0  0
  -29.4978  -23.9055   19.1101 H   0  0  0  0  0  0
  -30.0707  -24.0747   20.7383 H   0  0  0  0  0  0
  -28.7418  -18.9684   21.1818 H   0  0  0  0  0  0
  -28.6982  -18.2122   19.6227 H   0  0  0  0  0  0
  -30.2277  -17.4306   22.0757 H   0  0  0  0  0  0
  -31.2872  -17.4056   20.7591 H   0  0  0  0  0  0
  -27.7096  -24.7966   21.4194 H   0  0  0  0  0  0
  -27.2146  -24.5643   19.7826 H   0  0  0  0  0  0
  -33.3611  -19.8368   17.2931 H   0  0  0  0  0  0
  -28.8389  -15.6487   20.9105 H   0  0  0  0  0  0
  -33.0829  -22.7290   17.4272 H   0  0  0  0  0  0
  -32.3193  -21.7503   16.3679 H   0  0  0  0  0  0
  -33.9466  -21.8700   16.3457 H   0  0  0  0  0  0
  1 25  1  0  0  0
  1 30  2  0  0  0
  1 85  1  0  0  0
  2  3  1  0  0  0
  2 25  1  0  0  0
  2 87  1  0  0  0
  2 88  1  0  0  0
  3  4  1  0  0  0
  3 89  1  0  0  0
  3 90  1  0  0  0
  4  5  1  0  0  0
  4 91  1  0  0  0
  4 92  1  0  0  0
  5  6  1  0  0  0
  5 26  1  0  0  0
  5 93  1  0  0  0
  6 25  1  0  0  0
  6 94  1  0  0  0
  6 95  1  0  0  0
  7  8  2  0  0  0
  7 26  1  0  0  0
  7 29  1  0  0  0
  8  9  1  0  0  0
  8 22  1  0  0  0
  9 10  1  0  0  0
  9 27  2  0  0  0
 10 11  2  0  0  0
 10 15  1  0  0  0
 11 12  1  0  0  0
 11 96  1  0  0  0
 12 13  2  0  0  0
 12 97  1  0  0  0
 13 14  1  0  0  0
 13 31  1  0  0  0
 14 15  2  0  0  0
 14 98  1  0  0  0
 15 99  1  0  0  0
 16 17  2  0  0  0
 16 21  1  0  0  0
 16 31  1  0  0  0
 17 18  1  0  0  0
 17100  1  0  0  0
 18 19  2  0  0  0
 18101  1  0  0  0
 19 20  1  0  0  0
 19 24  1  0  0  0
 20 21  2  0  0  0
 20102  1  0  0  0
 21 23  1  0  0  0
 22 28  1  0  0  0
 22 32  2  0  0  0
 26 27  1  0  0  0
 28103  1  0  0  0
 28104  1  0  0  0
 29105  1  0  0  0
 29106  1  0  0  0
 33 34  1  0  0  0
 33 66  1  0  0  0
 33 70  2  0  0  0
 34 36  1  0  0  0
 34 59  1  0  0  0
 34107  1  0  0  0
 35 44  2  0  0  0
 35 45  1  0  0  0
 35 68  1  0  0  0
 36 56  1  0  0  0
 36108  1  0  0  0
 37 39  1  0  0  0
 37 47  1  0  0  0
 37 66  1  0  0  0
 37109  1  0  0  0
 38 43  2  0  0  0
 38 46  1  0  0  0
 38 47  1  0  0  0
 39 64  1  0  0  0
 39 67  2  0  0  0
 40 52  1  0  0  0
 40 53  2  0  0  0
 40 58  1  0  0  0
 41110  1  0  0  0
 41111  1  0  0  0
 41112  1  0  0  0
 41 48  1  0  0  0
 42 43  1  0  0  0
 42 66  1  0  0  0
 42113  1  0  0  0
 42114  1  0  0  0
 43 44  1  0  0  0
 44115  1  0  0  0
 45 46  2  0  0  0
 45116  1  0  0  0
 46117  1  0  0  0
 47118  1  0  0  0
 47119  1  0  0  0
 48 56  1  0  0  0
 48 65  1  0  0  0
 48120  1  0  0  0
 49 50  1  0  0  0
 49 53  1  0  0  0
 49 64  1  0  0  0
 49121  1  0  0  0
 50 51  1  0  0  0
 50122  1  0  0  0
 50123  1  0  0  0
 51 52  1  0  0  0
 51124  1  0  0  0
 51125  1  0  0  0
 52126  1  0  0  0
 52127  1  0  0  0
 53 54  1  0  0  0
 54 55  2  0  0  0
 54128  1  0  0  0
 55 57  1  0  0  0
 55129  1  0  0  0
 56 69  2  0  0  0
 57 58  2  0  0  0
 57130  1  0  0  0
 58131  1  0  0  0
 59 60  1  0  0  0
 59 61  1  0  0  0
 59 62  1  0  0  0
 60132  1  0  0  0
 60133  1  0  0  0
 60134  1  0  0  0
 61135  1  0  0  0
 61136  1  0  0  0
 61137  1  0  0  0
 62138  1  0  0  0
 62139  1  0  0  0
 62140  1  0  0  0
 63 65  1  0  0  0
 63141  1  0  0  0
 63142  1  0  0  0
 63143  1  0  0  0
 64144  1  0  0  0
 65145  1  0  0  0
 68 82  1  0  0  0
 71 72  1  0  0  0
 71 73  2  0  0  0
 71146  1  0  0  0
 72 74  2  0  0  0
 72 83  1  0  0  0
 73 77  1  0  0  0
 73 84  1  0  0  0
 74 75  1  0  0  0
 74 84  1  0  0  0
 75147  1  0  0  0
 75148  1  0  0  0
 75149  1  0  0  0
 76 78  1  0  0  0
 76150  1  0  0  0
 76151  1  0  0  0
 76152  1  0  0  0
 77 79  1  0  0  0
 77153  1  0  0  0
 77154  1  0  0  0
 78 83  1  0  0  0
 78155  1  0  0  0
 78156  1  0  0  0
 79 82  1  0  0  0
 79157  1  0  0  0
 79158  1  0  0  0
 80 81  1  0  0  0
 80 84  1  0  0  0
 80159  1  0  0  0
 80160  1  0  0  0
 81 85  1  0  0  0
 81161  1  0  0  0
 81162  1  0  0  0
 82163  1  0  0  0
 82164  1  0  0  0
 83 86  1  0  0  0
 83165  1  0  0  0
 85166  1  0  0  0
 86167  1  0  0  0
 86168  1  0  0  0
 86169  1  0  0  0
M  CHG  1  86   1
M  ISO  4   1 100  68 101  82 101  85 100
M  END
> <chiral flag>
0

> <version>
0

> <s_m_source_file>
/data/baiqing/PycharmProjects/Reinvent-master-3.2/result/LINK_invent/BTK/process_docking_weight1_custom_sum_contain_oxygen_bond_distance_aromatic_linkinvent_7_9_3/rearranged_h_0095.sdf

> <i_m_source_file_index>
42

> <r_mmod_Potential_Energy-OPLS-2005>
-104.402412414551

> <r_mmod_Stretch_Energy-OPLS-2005>
136.623199462891

> <r_mmod_Bend_Energy-OPLS-2005>
190.444107055664

> <r_mmod_Torsional_Energy-OPLS-2005>
243.047592163086

> <r_mmod_Improper_Torsional_Energy-OPLS-2005>
4.44108390808105

> <r_mmod_Van_der_Waal_Energy-OPLS-2005>
122.533355712891

> <r_mmod_Electrostatic_Energy-OPLS-2005>
-413.034515380859

> <r_mmod_Solvation_Energy-OPLS-2005>
-471.159942626953

> <b_mmod_Minimization_Converged-OPLS-2005>
0

> <r_mmod_RMS_Derivative-OPLS-2005>
2.98105883598328

$$$$
42
                    3D
 Structure written by MMmdl.
166174  0  0  1  0            999 V2000
  -30.8294  -14.3195   20.5113 C   0  0  0  0  0  0
  -30.3651  -12.2139   19.4014 C   0  0  0  0  0  0
  -29.4511  -12.4551   18.1883 C   0  0  0  0  0  0
  -27.9842  -12.3139   18.6274 C   0  0  0  0  0  0
  -27.6440  -13.2050   19.8542 C   0  0  2  0  0  0
  -28.6954  -13.0488   20.9793 C   0  0  0  0  0  0
  -25.2603  -13.8216   20.5770 C   0  0  0  0  0  0
  -24.1809  -13.0462   20.9188 C   0  0  0  0  0  0
  -24.6345  -11.6927   20.8721 C   0  0  0  0  0  0
  -23.8983  -10.4300   21.0389 C   0  0  0  0  0  0
  -24.3545   -9.4248   21.9165 C   0  0  0  0  0  0
  -23.6301   -8.2242   22.0743 C   0  0  0  0  0  0
  -22.4295   -8.0222   21.3531 C   0  0  0  0  0  0
  -21.9873   -9.0185   20.4638 C   0  0  0  0  0  0
  -22.7157  -10.2118   20.3058 C   0  0  0  0  0  0
  -21.6840   -6.0726   22.5256 C   0  0  0  0  0  0
  -21.4006   -6.5647   23.8189 C   0  0  0  0  0  0
  -21.3677   -5.6799   24.9157 C   0  0  0  0  0  0
  -21.6037   -4.3069   24.7207 C   0  0  0  0  0  0
  -21.8823   -3.8161   23.4346 C   0  0  0  0  0  0
  -21.9211   -4.6959   22.3399 C   0  0  0  0  0  0
  -22.7844  -13.5265   21.1852 C   0  0  0  0  0  0
  -22.1692   -4.2129   21.0989 F   0  0  0  0  0  0
  -21.5619   -3.4555   25.7754 F   0  0  0  0  0  0
  -30.0256  -13.2425   20.3913 N   0  0  0  0  0  0
  -26.2938  -12.9326   20.3343 N   0  0  0  0  0  0
  -25.9260  -11.6492   20.5766 N   0  0  0  0  0  0
  -22.0510  -12.8213   22.0401 N   0  0  0  0  0  0
  -25.4417  -15.1936   20.4410 N   0  0  0  0  0  0
  -32.0321  -14.2779   20.2590 O   0  0  0  0  0  0
  -21.6659   -6.8834   21.4216 O   0  0  0  0  0  0
  -22.3520  -14.5540   20.6721 O   0  0  0  0  0  0
  -24.6133  -31.8768   23.2307 C   0  0  0  0  0  0
  -25.9032  -32.4905   23.8529 C   0  0  1  0  0  0
  -27.1568  -27.4529   20.0488 C   0  0  0  0  0  0
  -25.5905  -33.8704   24.2447 N   0  0  0  0  0  0
  -23.3966  -30.5251   21.5715 C   0  0  2  0  0  0
  -24.8248  -29.0400   20.0907 C   0  0  0  0  0  0
  -22.7405  -29.4712   22.4973 C   0  0  0  0  0  0
  -18.0266  -28.1424   22.8468 C   0  0  0  0  0  0
  -24.1505  -36.7328   23.2602 C   0  0  0  0  0  0
  -25.9370  -30.8388   21.3961 C   0  0  0  0  0  0
  -25.9952  -29.4925   20.7174 C   0  0  0  0  0  0
  -27.1715  -28.6994   20.7112 C   0  0  0  0  0  0
  -25.9851  -27.0840   19.3369 C   0  0  0  0  0  0
  -24.8142  -27.8334   19.3911 C   0  0  0  0  0  0
  -23.5949  -29.9047   20.1695 C   0  0  0  0  0  0
  -25.4106  -36.3129   24.0331 C   0  0  1  0  0  0
  -20.5874  -28.3620   23.1344 C   0  0  2  0  0  0
  -20.6746  -26.9432   22.5275 C   0  0  0  0  0  0
  -19.5731  -26.6675   21.4984 C   0  0  0  0  0  0
  -18.1920  -26.8061   22.1454 C   0  0  0  0  0  0
  -19.1535  -28.8818   23.2952 C   0  0  0  0  0  0
  -18.9445  -30.1409   23.9039 C   0  0  0  0  0  0
  -17.6449  -30.6563   24.0614 C   0  0  0  0  0  0
  -25.9031  -34.9485   23.5185 C   0  0  0  0  0  0
  -16.5339  -29.9113   23.6353 C   0  0  0  0  0  0
  -16.7239  -28.6518   23.0390 C   0  0  0  0  0  0
  -26.4499  -31.6652   25.0843 C   0  0  0  0  0  0
  -25.3760  -31.3702   26.1573 C   0  0  0  0  0  0
  -27.0298  -30.3086   24.6207 C   0  0  0  0  0  0
  -27.6105  -32.4323   25.7598 C   0  0  0  0  0  0
  -27.5573  -37.1835   24.8436 C   0  0  0  0  0  0
  -21.4106  -29.3112   22.3829 N   0  0  0  0  0  0
  -26.4279  -37.3803   23.9389 N   0  0  0  0  0  0
  -24.6671  -31.0939   22.1183 N   0  0  0  0  0  0
  -23.4176  -28.8034   23.2804 O   0  0  0  0  0  0
  -28.2004  -26.5517   20.1683 O   0  0  0  0  0  0
  -26.5531  -34.8856   22.4720 O   0  0  0  0  0  0
  -23.5295  -32.1374   23.7752 O   0  0  0  0  0  0
  -29.9156  -18.8022   20.8882 C   0  0  0  0  0  0
  -30.4628  -17.9470   19.9809 C   0  0  0  0  0  0
  -30.2042  -19.9086   18.9707 C   0  0  0  0  0  0
  -30.2610  -20.9673   17.9046 C   0  0  0  0  0  0
  -25.6536  -22.0154   22.6827 C   0  0  0  0  0  0
  -31.0818  -16.6269   20.1426 C   0  0  0  0  0  0
  -26.9741  -22.7823   22.5042 C   0  0  0  0  0  0
  -27.9924  -21.5430   20.4966 C   0  0  0  0  0  0
  -28.4533  -24.0541   20.7864 C   0  0  0  0  0  0
  -29.4376  -21.2473   20.8907 C   0  0  0  0  0  0
  -27.6619  -25.2076   20.2170 C   0  0  0  0  0  0
  -27.4649  -22.8699   21.0369 C   0  0  1  0  0  0
  -29.8444  -20.0126   20.2639 N   0  0  0  0  0  0
  -30.5549  -18.6364   18.8028 N   0  3  0  0  0  0
  -30.2375  -15.5109   20.5603 N   0  0  0  0  0  0
  -31.4133  -12.2222   19.0929 H   0  0  0  0  0  0
  -30.1927  -11.2199   19.8213 H   0  0  0  0  0  0
  -29.6721  -11.7385   17.3942 H   0  0  0  0  0  0
  -29.6170  -13.4536   17.7786 H   0  0  0  0  0  0
  -27.8283  -11.2652   18.8853 H   0  0  0  0  0  0
  -27.3097  -12.5256   17.7968 H   0  0  0  0  0  0
  -27.6652  -14.2360   19.5008 H   0  0  0  0  0  0
  -28.6321  -12.0506   21.4222 H   0  0  0  0  0  0
  -28.5046  -13.7585   21.7860 H   0  0  0  0  0  0
  -25.2679   -9.5766   22.4746 H   0  0  0  0  0  0
  -24.0025   -7.4638   22.7493 H   0  0  0  0  0  0
  -21.0778   -8.8666   19.8946 H   0  0  0  0  0  0
  -22.3544  -10.9630   19.6172 H   0  0  0  0  0  0
  -21.1978   -7.6142   23.9666 H   0  0  0  0  0  0
  -21.1503   -6.0550   25.9044 H   0  0  0  0  0  0
  -22.0600   -2.7610   23.2849 H   0  0  0  0  0  0
  -22.4161  -11.9881   22.4751 H   0  0  0  0  0  0
  -21.1112  -13.1187   22.2591 H   0  0  0  0  0  0
  -24.6986  -15.8594   20.6215 H   0  0  0  0  0  0
  -26.3302  -15.6386   20.2414 H   0  0  0  0  0  0
  -26.7137  -32.5593   23.1293 H   0  0  0  0  0  0
  -25.0250  -33.9944   25.0717 H   0  0  0  0  0  0
  -22.6865  -31.3484   21.4765 H   0  0  0  0  0  0
  -23.3750  -35.9690   23.3317 H   0  0  0  0  0  0
  -24.3580  -36.8878   22.1993 H   0  0  0  0  0  0
  -23.7281  -37.6553   23.6619 H   0  0  0  0  0  0
  -26.0562  -31.6080   20.6314 H   0  0  0  0  0  0
  -26.8251  -30.8676   22.0172 H   0  0  0  0  0  0
  -28.0645  -29.0191   21.2305 H   0  0  0  0  0  0
  -25.9159  -26.1968   18.7363 H   0  0  0  0  0  0
  -23.9312  -27.4988   18.8602 H   0  0  0  0  0  0
  -23.7079  -30.6976   19.4253 H   0  0  0  0  0  0
  -22.7159  -29.3365   19.8627 H   0  0  0  0  0  0
  -25.1310  -36.2026   25.0830 H   0  0  0  0  0  0
  -20.9957  -28.3046   24.1476 H   0  0  0  0  0  0
  -20.5632  -26.2132   23.3313 H   0  0  0  0  0  0
  -21.6601  -26.7628   22.0959 H   0  0  0  0  0  0
  -19.6908  -25.6699   21.0746 H   0  0  0  0  0  0
  -19.6739  -27.3686   20.6650 H   0  0  0  0  0  0
  -17.4138  -26.6812   21.3901 H   0  0  0  0  0  0
  -18.0451  -26.0180   22.8826 H   0  0  0  0  0  0
  -19.7889  -30.7184   24.2578 H   0  0  0  0  0  0
  -17.4956  -31.6212   24.5290 H   0  0  0  0  0  0
  -15.5343  -30.3016   23.7756 H   0  0  0  0  0  0
  -15.8590  -28.0838   22.7178 H   0  0  0  0  0  0
  -24.5982  -30.7034   25.7871 H   0  0  0  0  0  0
  -24.8911  -32.2847   26.5018 H   0  0  0  0  0  0
  -25.8058  -30.8846   27.0347 H   0  0  0  0  0  0
  -26.2837  -29.6914   24.1197 H   0  0  0  0  0  0
  -27.3983  -29.7260   25.4668 H   0  0  0  0  0  0
  -27.8753  -30.4441   23.9430 H   0  0  0  0  0  0
  -27.2806  -33.3615   26.2262 H   0  0  0  0  0  0
  -28.3891  -32.6870   25.0395 H   0  0  0  0  0  0
  -28.0836  -31.8378   26.5426 H   0  0  0  0  0  0
  -28.2615  -38.0096   24.7502 H   0  0  0  0  0  0
  -28.1061  -36.2658   24.6350 H   0  0  0  0  0  0
  -27.2286  -37.1565   25.8817 H   0  0  0  0  0  0
  -20.9102  -29.9022   21.7334 H   0  0  0  0  0  0
  -26.0178  -38.2881   24.1418 H   0  0  0  0  0  0
  -29.6810  -18.6598   21.9347 H   0  0  0  0  0  0
  -31.0895  -20.7341   17.2364 H   0  0  0  0  0  0
  -30.4363  -21.9430   18.3517 H   0  0  0  0  0  0
  -29.3165  -20.9767   17.3588 H   0  0  0  0  0  0
  -25.6689  -21.0340   22.2130 H   0  0  0  0  0  0
  -24.8101  -22.5678   22.2593 H   0  0  0  0  0  0
  -25.4413  -21.8391   23.7370 H   0  0  0  0  0  0
  -31.5490  -16.3976   19.1803 H   0  0  0  0  0  0
  -31.8969  -16.7388   20.8573 H   0  0  0  0  0  0
  -27.7492  -22.3415   23.1334 H   0  0  0  0  0  0
  -26.8149  -23.7859   22.8963 H   0  0  0  0  0  0
  -27.3722  -20.7116   20.8304 H   0  0  0  0  0  0
  -27.8946  -21.5527   19.4086 H   0  0  0  0  0  0
  -28.9741  -24.3472   21.6990 H   0  0  0  0  0  0
  -29.2164  -23.8062   20.0465 H   0  0  0  0  0  0
  -29.5309  -21.1485   21.9721 H   0  0  0  0  0  0
  -30.1548  -22.0090   20.5802 H   0  0  0  0  0  0
  -26.7316  -25.2131   20.7921 H   0  0  0  0  0  0
  -27.4082  -24.8826   19.2122 H   0  0  0  0  0  0
  -26.5677  -23.0367   20.4369 H   0  0  0  0  0  0
  -30.9361  -18.2594   17.9413 H   0  0  0  0  0  0
  -29.2363  -15.6044   20.6191 H   0  0  0  0  0  0
  1 25  1  0  0  0
  1 30  2  0  0  0
  1 85  1  0  0  0
  2  3  1  0  0  0
  2 25  1  0  0  0
  2 86  1  0  0  0
  2 87  1  0  0  0
  3  4  1  0  0  0
  3 88  1  0  0  0
  3 89  1  0  0  0
  4  5  1  0  0  0
  4 90  1  0  0  0
  4 91  1  0  0  0
  5  6  1  0  0  0
  5 26  1  0  0  0
  5 92  1  0  0  0
  6 25  1  0  0  0
  6 93  1  0  0  0
  6 94  1  0  0  0
  7  8  2  0  0  0
  7 26  1  0  0  0
  7 29  1  0  0  0
  8  9  1  0  0  0
  8 22  1  0  0  0
  9 10  1  0  0  0
  9 27  2  0  0  0
 10 11  2  0  0  0
 10 15  1  0  0  0
 11 12  1  0  0  0
 11 95  1  0  0  0
 12 13  2  0  0  0
 12 96  1  0  0  0
 13 14  1  0  0  0
 13 31  1  0  0  0
 14 15  2  0  0  0
 14 97  1  0  0  0
 15 98  1  0  0  0
 16 17  2  0  0  0
 16 21  1  0  0  0
 16 31  1  0  0  0
 17 18  1  0  0  0
 17 99  1  0  0  0
 18 19  2  0  0  0
 18100  1  0  0  0
 19 20  1  0  0  0
 19 24  1  0  0  0
 20 21  2  0  0  0
 20101  1  0  0  0
 21 23  1  0  0  0
 22 28  1  0  0  0
 22 32  2  0  0  0
 26 27  1  0  0  0
 28102  1  0  0  0
 28103  1  0  0  0
 29104  1  0  0  0
 29105  1  0  0  0
 33 34  1  0  0  0
 33 66  1  0  0  0
 33 70  2  0  0  0
 34 36  1  0  0  0
 34 59  1  0  0  0
 34106  1  0  0  0
 35 44  2  0  0  0
 35 45  1  0  0  0
 35 68  1  0  0  0
 36 56  1  0  0  0
 36107  1  0  0  0
 37 39  1  0  0  0
 37 47  1  0  0  0
 37 66  1  0  0  0
 37108  1  0  0  0
 38 43  2  0  0  0
 38 46  1  0  0  0
 38 47  1  0  0  0
 39 64  1  0  0  0
 39 67  2  0  0  0
 40 52  1  0  0  0
 40 53  2  0  0  0
 40 58  1  0  0  0
 41109  1  0  0  0
 41110  1  0  0  0
 41111  1  0  0  0
 41 48  1  0  0  0
 42 43  1  0  0  0
 42 66  1  0  0  0
 42112  1  0  0  0
 42113  1  0  0  0
 43 44  1  0  0  0
 44114  1  0  0  0
 45 46  2  0  0  0
 45115  1  0  0  0
 46116  1  0  0  0
 47117  1  0  0  0
 47118  1  0  0  0
 48 56  1  0  0  0
 48 65  1  0  0  0
 48119  1  0  0  0
 49 50  1  0  0  0
 49 53  1  0  0  0
 49 64  1  0  0  0
 49120  1  0  0  0
 50 51  1  0  0  0
 50121  1  0  0  0
 50122  1  0  0  0
 51 52  1  0  0  0
 51123  1  0  0  0
 51124  1  0  0  0
 52125  1  0  0  0
 52126  1  0  0  0
 53 54  1  0  0  0
 54 55  2  0  0  0
 54127  1  0  0  0
 55 57  1  0  0  0
 55128  1  0  0  0
 56 69  2  0  0  0
 57 58  2  0  0  0
 57129  1  0  0  0
 58130  1  0  0  0
 59 60  1  0  0  0
 59 61  1  0  0  0
 59 62  1  0  0  0
 60131  1  0  0  0
 60132  1  0  0  0
 60133  1  0  0  0
 61134  1  0  0  0
 61135  1  0  0  0
 61136  1  0  0  0
 62137  1  0  0  0
 62138  1  0  0  0
 62139  1  0  0  0
 63 65  1  0  0  0
 63140  1  0  0  0
 63141  1  0  0  0
 63142  1  0  0  0
 64143  1  0  0  0
 65144  1  0  0  0
 68 81  1  0  0  0
 71 72  2  0  0  0
 71 83  1  0  0  0
 71145  1  0  0  0
 72 76  1  0  0  0
 72 84  1  0  0  0
 73 74  1  0  0  0
 73 83  1  0  0  0
 73 84  2  0  0  0
 74146  1  0  0  0
 74147  1  0  0  0
 74148  1  0  0  0
 75 77  1  0  0  0
 75149  1  0  0  0
 75150  1  0  0  0
 75151  1  0  0  0
 76 85  1  0  0  0
 76152  1  0  0  0
 76153  1  0  0  0
 77154  1  0  0  0
 77155  1  0  0  0
 77 82  1  0  0  0
 78 80  1  0  0  0
 78 82  1  0  0  0
 78156  1  0  0  0
 78157  1  0  0  0
 79 81  1  0  0  0
 79 82  1  0  0  0
 79158  1  0  0  0
 79159  1  0  0  0
 80 83  1  0  0  0
 80160  1  0  0  0
 80161  1  0  0  0
 81162  1  0  0  0
 81163  1  0  0  0
 82164  1  0  0  0
 84165  1  0  0  0
 85166  1  0  0  0
M  CHG  1  84   1
M  ISO  4   1 100  68 101  81 101  85 100
M  END
> <chiral flag>
0

> <version>
0

> <s_m_source_file>
/data/baiqing/PycharmProjects/Reinvent-master-3.2/result/LINK_invent/BTK/process_docking_weight1_custom_sum_contain_oxygen_bond_distance_aromatic_linkinvent_7_9_3/rearranged_h_0095.sdf

> <i_m_source_file_index>
43

> <r_mmod_Potential_Energy-OPLS-2005>
-40.9283294677734

> <r_mmod_Stretch_Energy-OPLS-2005>
34.2291526794434

> <r_mmod_Bend_Energy-OPLS-2005>
123.286277770996

> <r_mmod_Torsional_Energy-OPLS-2005>
263.391143798828

> <r_mmod_Improper_Torsional_Energy-OPLS-2005>
10.9347667694092

> <r_mmod_Van_der_Waal_Energy-OPLS-2005>
178.721145629883

> <r_mmod_Electrostatic_Energy-OPLS-2005>
-295.073974609375

> <r_mmod_Solvation_Energy-OPLS-2005>
-418.848693847656

> <b_mmod_Minimization_Converged-OPLS-2005>
0

> <r_mmod_RMS_Derivative-OPLS-2005>
9.28141403198242

$$$$
43
                    3D
 Structure written by MMmdl.
161168  0  0  1  0            999 V2000
  -30.5841  -14.9014   20.4635 C   0  0  0  0  0  0
  -30.4300  -12.5556   19.5224 C   0  0  0  0  0  0
  -29.5250  -12.5419   18.2689 C   0  0  0  0  0  0
  -28.0562  -12.3318   18.6792 C   0  0  0  0  0  0
  -27.6367  -13.2521   19.8567 C   0  0  2  0  0  0
  -28.6735  -13.2639   21.0026 C   0  0  0  0  0  0
  -25.2476  -13.8231   20.5758 C   0  0  0  0  0  0
  -24.1780  -13.0460   20.9214 C   0  0  0  0  0  0
  -24.6391  -11.6935   20.8733 C   0  0  0  0  0  0
  -23.9078  -10.4304   21.0389 C   0  0  0  0  0  0
  -24.3625   -9.4227   21.9181 C   0  0  0  0  0  0
  -23.6309   -8.2265   22.0753 C   0  0  0  0  0  0
  -22.4289   -8.0284   21.3542 C   0  0  0  0  0  0
  -21.9915   -9.0257   20.4645 C   0  0  0  0  0  0
  -22.7242  -10.2141   20.3052 C   0  0  0  0  0  0
  -21.6865   -6.0736   22.5282 C   0  0  0  0  0  0
  -21.4024   -6.5644   23.8210 C   0  0  0  0  0  0
  -21.3660   -5.6794   24.9172 C   0  0  0  0  0  0
  -21.6043   -4.3054   24.7218 C   0  0  0  0  0  0
  -21.8820   -3.8150   23.4339 C   0  0  0  0  0  0
  -21.9189   -4.6967   22.3395 C   0  0  0  0  0  0
  -22.7793  -13.5217   21.1873 C   0  0  0  0  0  0
  -22.1662   -4.2147   21.0971 F   0  0  0  0  0  0
  -21.5621   -3.4540   25.7734 F   0  0  0  0  0  0
  -29.9632  -13.6533   20.4201 N   0  0  0  0  0  0
  -26.2922  -12.9489   20.3341 N   0  0  0  0  0  0
  -25.9344  -11.6601   20.5778 N   0  0  0  0  0  0
  -22.0445  -12.8197   22.0416 N   0  0  0  0  0  0
  -25.4142  -15.1982   20.4234 N   0  0  0  0  0  0
  -31.7289  -14.9726   20.0017 O   0  0  0  0  0  0
  -21.6650   -6.8884   21.4243 O   0  0  0  0  0  0
  -22.3463  -14.5518   20.6706 O   0  0  0  0  0  0
  -24.6390  -31.8455   23.1862 C   0  0  0  0  0  0
  -25.9194  -32.4668   23.8270 C   0  0  1  0  0  0
  -27.2192  -27.1482   20.1505 C   0  0  0  0  0  0
  -25.5968  -33.8479   24.2193 N   0  0  0  0  0  0
  -23.4426  -30.4601   21.5266 C   0  0  2  0  0  0
  -24.8932  -28.8747   20.1117 C   0  0  0  0  0  0
  -22.7574  -29.4556   22.4842 C   0  0  0  0  0  0
  -18.0294  -28.1418   22.8402 C   0  0  0  0  0  0
  -24.1499  -36.7259   23.2634 C   0  0  0  0  0  0
  -25.9934  -30.7186   21.3820 C   0  0  0  0  0  0
  -26.0656  -29.3273   20.7284 C   0  0  0  0  0  0
  -27.2257  -28.4742   20.7356 C   0  0  0  0  0  0
  -26.0251  -26.7797   19.4971 C   0  0  0  0  0  0
  -24.8798  -27.6126   19.4894 C   0  0  0  0  0  0
  -23.6728  -29.7811   20.1476 C   0  0  0  0  0  0
  -25.4128  -36.3008   24.0292 C   0  0  1  0  0  0
  -20.5902  -28.3730   23.1217 C   0  0  2  0  0  0
  -20.6789  -26.9427   22.5413 C   0  0  0  0  0  0
  -19.5787  -26.6385   21.5186 C   0  0  0  0  0  0
  -18.1945  -26.7951   22.1562 C   0  0  0  0  0  0
  -19.1550  -28.8887   23.2789 C   0  0  0  0  0  0
  -18.9494  -30.1475   23.8826 C   0  0  0  0  0  0
  -17.6501  -30.6597   24.0538 C   0  0  0  0  0  0
  -25.9088  -34.9376   23.5051 C   0  0  0  0  0  0
  -16.5378  -29.9104   23.6317 C   0  0  0  0  0  0
  -16.7283  -28.6531   23.0306 C   0  0  0  0  0  0
  -26.4527  -31.6546   25.0728 C   0  0  0  0  0  0
  -25.3700  -31.3749   26.1429 C   0  0  0  0  0  0
  -27.0390  -30.2945   24.6290 C   0  0  0  0  0  0
  -27.6077  -32.4314   25.7517 C   0  0  0  0  0  0
  -27.5573  -37.1782   24.8464 C   0  0  0  0  0  0
  -21.4281  -29.3043   22.3611 N   0  0  0  0  0  0
  -26.4279  -37.3729   23.9408 N   0  0  0  0  0  0
  -24.7105  -31.0313   22.0867 N   0  0  0  0  0  0
  -23.4256  -28.8130   23.2987 O   0  0  0  0  0  0
  -28.3065  -26.2218   20.2847 O   0  0  0  0  0  0
  -26.5667  -34.8856   22.4629 O   0  0  0  0  0  0
  -23.5533  -32.1360   23.7091 O   0  0  0  0  0  0
  -27.8218  -19.4953   23.0783 C   0  0  0  0  0  0
  -29.1878  -20.2047   18.6263 C   0  0  0  0  0  0
  -30.3276  -16.2865   22.3669 C   0  0  0  0  0  0
  -27.9859  -18.5674   21.8672 C   0  0  0  0  0  0
  -28.0648  -23.2775   20.4015 C   0  0  0  0  0  0
  -29.0630  -21.9218   20.5750 C   0  0  0  0  0  0
  -29.6827  -17.4605   20.2191 C   0  0  0  0  0  0
  -28.4474  -24.7760   19.7466 C   0  0  0  0  0  0
  -28.7586  -20.3361   20.0921 C   0  0  2  0  0  0
  -29.1800  -18.9182   20.9316 C   0  0  1  0  0  0
  -29.9472  -16.0784   20.9591 N   0  0  0  0  0  0
  -31.4767  -12.6725   19.2394 H   0  0  0  0  0  0
  -30.3773  -11.5979   20.0427 H   0  0  0  0  0  0
  -29.8396  -11.7591   17.5783 H   0  0  0  0  0  0
  -29.6289  -13.4850   17.7289 H   0  0  0  0  0  0
  -27.9453  -11.2871   18.9715 H   0  0  0  0  0  0
  -27.3945  -12.4793   17.8253 H   0  0  0  0  0  0
  -27.6084  -14.2613   19.4456 H   0  0  0  0  0  0
  -28.7439  -12.2893   21.4881 H   0  0  0  0  0  0
  -28.3778  -13.9722   21.7782 H   0  0  0  0  0  0
  -25.2766   -9.5706   22.4758 H   0  0  0  0  0  0
  -24.0016   -7.4651   22.7474 H   0  0  0  0  0  0
  -21.0847   -8.8766   19.8956 H   0  0  0  0  0  0
  -22.3692  -10.9672   19.6157 H   0  0  0  0  0  0
  -21.2035   -7.6152   23.9708 H   0  0  0  0  0  0
  -21.1482   -6.0526   25.9068 H   0  0  0  0  0  0
  -22.0596   -2.7609   23.2837 H   0  0  0  0  0  0
  -22.4082  -11.9878   22.4824 H   0  0  0  0  0  0
  -21.1056  -13.1192   22.2614 H   0  0  0  0  0  0
  -24.6510  -15.8518   20.5595 H   0  0  0  0  0  0
  -26.2755  -15.6477   20.1423 H   0  0  0  0  0  0
  -26.7259  -32.5268   23.1004 H   0  0  0  0  0  0
  -25.0097  -33.9610   25.0334 H   0  0  0  0  0  0
  -22.7400  -31.2797   21.3650 H   0  0  0  0  0  0
  -23.3736  -35.9614   23.3279 H   0  0  0  0  0  0
  -24.3581  -36.8939   22.2054 H   0  0  0  0  0  0
  -23.7285  -37.6453   23.6706 H   0  0  0  0  0  0
  -26.1412  -31.4686   20.6054 H   0  0  0  0  0  0
  -26.8670  -30.7783   22.0180 H   0  0  0  0  0  0
  -28.1239  -28.8017   21.2400 H   0  0  0  0  0  0
  -25.9487  -25.8054   19.0329 H   0  0  0  0  0  0
  -23.9732  -27.2591   19.0179 H   0  0  0  0  0  0
  -23.8182  -30.5527   19.3893 H   0  0  0  0  0  0
  -22.7889  -29.2236   19.8301 H   0  0  0  0  0  0
  -25.1297  -36.1813   25.0773 H   0  0  0  0  0  0
  -20.9915  -28.3317   24.1368 H   0  0  0  0  0  0
  -20.5651  -26.2335   23.3648 H   0  0  0  0  0  0
  -21.6667  -26.7445   22.1229 H   0  0  0  0  0  0
  -19.6977  -25.6287   21.1252 H   0  0  0  0  0  0
  -19.6751  -27.3151   20.6684 H   0  0  0  0  0  0
  -17.4233  -26.6635   21.3960 H   0  0  0  0  0  0
  -18.0351  -26.0143   22.9010 H   0  0  0  0  0  0
  -19.7989  -30.7259   24.2199 H   0  0  0  0  0  0
  -17.5081  -31.6255   24.5193 H   0  0  0  0  0  0
  -15.5379  -30.2991   23.7715 H   0  0  0  0  0  0
  -15.8678  -28.0849   22.7046 H   0  0  0  0  0  0
  -24.5957  -30.6991   25.7779 H   0  0  0  0  0  0
  -24.8777  -32.2913   26.4696 H   0  0  0  0  0  0
  -25.7985  -30.9100   27.0318 H   0  0  0  0  0  0
  -26.3009  -29.6677   24.1278 H   0  0  0  0  0  0
  -27.3995  -29.7226   25.4852 H   0  0  0  0  0  0
  -27.8907  -30.4186   23.9593 H   0  0  0  0  0  0
  -27.2716  -33.3681   26.1970 H   0  0  0  0  0  0
  -28.3945  -32.6763   25.0367 H   0  0  0  0  0  0
  -28.0664  -31.8526   26.5543 H   0  0  0  0  0  0
  -28.2545  -38.0115   24.7480 H   0  0  0  0  0  0
  -28.1100  -36.2630   24.6293 H   0  0  0  0  0  0
  -27.2294  -37.1424   25.8869 H   0  0  0  0  0  0
  -20.9556  -29.8817   21.6803 H   0  0  0  0  0  0
  -26.0133  -38.2782   24.1433 H   0  0  0  0  0  0
  -28.6714  -19.4083   23.7558 H   0  0  0  0  0  0
  -26.9301  -19.2309   23.6508 H   0  0  0  0  0  0
  -27.7167  -20.5410   22.7877 H   0  0  0  0  0  0
  -28.9369  -21.1054   18.0634 H   0  0  0  0  0  0
  -28.6760  -19.3693   18.1434 H   0  0  0  0  0  0
  -30.2639  -20.0485   18.5396 H   0  0  0  0  0  0
  -29.6601  -15.7389   23.0329 H   0  0  0  0  0  0
  -30.3194  -17.3266   22.6839 H   0  0  0  0  0  0
  -31.3449  -15.9404   22.5698 H   0  0  0  0  0  0
  -27.0561  -18.5457   21.2982 H   0  0  0  0  0  0
  -28.0686  -17.5537   22.2550 H   0  0  0  0  0  0
  -27.6782  -23.4881   21.3993 H   0  0  0  0  0  0
  -27.1782  -22.9471   19.8577 H   0  0  0  0  0  0
  -30.0486  -22.1856   20.1923 H   0  0  0  0  0  0
  -29.2539  -21.8595   21.6460 H   0  0  0  0  0  0
  -30.5963  -17.6778   19.6657 H   0  0  0  0  0  0
  -28.9449  -17.2200   19.4534 H   0  0  0  0  0  0
  -28.0318  -24.7936   18.7411 H   0  0  0  0  0  0
  -29.5209  -24.7028   19.5662 H   0  0  0  0  0  0
  -27.6699  -20.3086   20.0439 H   0  0  0  0  0  0
  -30.0189  -19.2165   21.5616 H   0  0  0  0  0  0
  1 25  1  0  0  0
  1 30  2  0  0  0
  1 81  1  0  0  0
  2  3  1  0  0  0
  2 25  1  0  0  0
  2 82  1  0  0  0
  2 83  1  0  0  0
  3  4  1  0  0  0
  3 84  1  0  0  0
  3 85  1  0  0  0
  4  5  1  0  0  0
  4 86  1  0  0  0
  4 87  1  0  0  0
  5  6  1  0  0  0
  5 26  1  0  0  0
  5 88  1  0  0  0
  6 25  1  0  0  0
  6 89  1  0  0  0
  6 90  1  0  0  0
  7  8  2  0  0  0
  7 26  1  0  0  0
  7 29  1  0  0  0
  8  9  1  0  0  0
  8 22  1  0  0  0
  9 10  1  0  0  0
  9 27  2  0  0  0
 10 11  2  0  0  0
 10 15  1  0  0  0
 11 12  1  0  0  0
 11 91  1  0  0  0
 12 13  2  0  0  0
 12 92  1  0  0  0
 13 14  1  0  0  0
 13 31  1  0  0  0
 14 15  2  0  0  0
 14 93  1  0  0  0
 15 94  1  0  0  0
 16 17  2  0  0  0
 16 21  1  0  0  0
 16 31  1  0  0  0
 17 18  1  0  0  0
 17 95  1  0  0  0
 18 19  2  0  0  0
 18 96  1  0  0  0
 19 20  1  0  0  0
 19 24  1  0  0  0
 20 21  2  0  0  0
 20 97  1  0  0  0
 21 23  1  0  0  0
 22 28  1  0  0  0
 22 32  2  0  0  0
 26 27  1  0  0  0
 28 98  1  0  0  0
 28 99  1  0  0  0
 29100  1  0  0  0
 29101  1  0  0  0
 33 34  1  0  0  0
 33 66  1  0  0  0
 33 70  2  0  0  0
 34 36  1  0  0  0
 34 59  1  0  0  0
 34102  1  0  0  0
 35 44  2  0  0  0
 35 45  1  0  0  0
 35 68  1  0  0  0
 36 56  1  0  0  0
 36103  1  0  0  0
 37 39  1  0  0  0
 37 47  1  0  0  0
 37 66  1  0  0  0
 37104  1  0  0  0
 38 43  2  0  0  0
 38 46  1  0  0  0
 38 47  1  0  0  0
 39 64  1  0  0  0
 39 67  2  0  0  0
 40 52  1  0  0  0
 40 53  2  0  0  0
 40 58  1  0  0  0
 41105  1  0  0  0
 41106  1  0  0  0
 41107  1  0  0  0
 41 48  1  0  0  0
 42 43  1  0  0  0
 42 66  1  0  0  0
 42108  1  0  0  0
 42109  1  0  0  0
 43 44  1  0  0  0
 44110  1  0  0  0
 45 46  2  0  0  0
 45111  1  0  0  0
 46112  1  0  0  0
 47113  1  0  0  0
 47114  1  0  0  0
 48 56  1  0  0  0
 48 65  1  0  0  0
 48115  1  0  0  0
 49 50  1  0  0  0
 49 53  1  0  0  0
 49 64  1  0  0  0
 49116  1  0  0  0
 50 51  1  0  0  0
 50117  1  0  0  0
 50118  1  0  0  0
 51 52  1  0  0  0
 51119  1  0  0  0
 51120  1  0  0  0
 52121  1  0  0  0
 52122  1  0  0  0
 53 54  1  0  0  0
 54 55  2  0  0  0
 54123  1  0  0  0
 55 57  1  0  0  0
 55124  1  0  0  0
 56 69  2  0  0  0
 57 58  2  0  0  0
 57125  1  0  0  0
 58126  1  0  0  0
 59 60  1  0  0  0
 59 61  1  0  0  0
 59 62  1  0  0  0
 60127  1  0  0  0
 60128  1  0  0  0
 60129  1  0  0  0
 61130  1  0  0  0
 61131  1  0  0  0
 61132  1  0  0  0
 62133  1  0  0  0
 62134  1  0  0  0
 62135  1  0  0  0
 63 65  1  0  0  0
 63136  1  0  0  0
 63137  1  0  0  0
 63138  1  0  0  0
 64139  1  0  0  0
 65140  1  0  0  0
 68 78  1  0  0  0
 71 74  1  0  0  0
 71141  1  0  0  0
 71142  1  0  0  0
 71143  1  0  0  0
 72144  1  0  0  0
 72145  1  0  0  0
 72146  1  0  0  0
 72 79  1  0  0  0
 73 81  1  0  0  0
 73147  1  0  0  0
 73148  1  0  0  0
 73149  1  0  0  0
 74150  1  0  0  0
 74151  1  0  0  0
 74 80  1  0  0  0
 75 76  1  0  0  0
 75 78  1  0  0  0
 75152  1  0  0  0
 75153  1  0  0  0
 76 79  1  0  0  0
 76154  1  0  0  0
 76155  1  0  0  0
 77 80  1  0  0  0
 77 81  1  0  0  0
 77156  1  0  0  0
 77157  1  0  0  0
 78158  1  0  0  0
 78159  1  0  0  0
 79 80  1  0  0  0
 79160  1  0  0  0
 80161  1  0  0  0
M  ISO  4   1 100  68 101  78 101  81 100
M  END
> <chiral flag>
0

> <version>
0

> <s_m_source_file>
/data/baiqing/PycharmProjects/Reinvent-master-3.2/result/LINK_invent/BTK/process_docking_weight1_custom_sum_contain_oxygen_bond_distance_aromatic_linkinvent_7_9_3/rearranged_h_0095.sdf

> <i_m_source_file_index>
44

> <r_mmod_Potential_Energy-OPLS-2005>
750.532165527344

> <r_mmod_Stretch_Energy-OPLS-2005>
279.738555908203

> <r_mmod_Bend_Energy-OPLS-2005>
321.516082763672

> <r_mmod_Torsional_Energy-OPLS-2005>
335.908813476562

> <r_mmod_Improper_Torsional_Energy-OPLS-2005>
5.03548908233643

> <r_mmod_Van_der_Waal_Energy-OPLS-2005>
113.569969177246

> <r_mmod_Electrostatic_Energy-OPLS-2005>
-294.973266601562

> <r_mmod_Solvation_Energy-OPLS-2005>
-178.512741088867

> <b_mmod_Minimization_Converged-OPLS-2005>
0

> <r_mmod_RMS_Derivative-OPLS-2005>
3.92138147354126

$$$$
44
                    3D
 Structure written by MMmdl.
170178  0  0  1  0            999 V2000
  -30.6958  -14.4614   20.5175 C   0  0  0  0  0  0
  -30.4159  -12.2860   19.4188 C   0  0  0  0  0  0
  -29.4871  -12.4828   18.1983 C   0  0  0  0  0  0
  -28.0110  -12.3299   18.6304 C   0  0  0  0  0  0
  -27.6620  -13.1798   19.8829 C   0  0  2  0  0  0
  -28.7134  -12.9527   20.9947 C   0  0  0  0  0  0
  -25.2616  -13.8055   20.5594 C   0  0  0  0  0  0
  -24.1892  -13.0405   20.9189 C   0  0  0  0  0  0
  -24.6421  -11.6851   20.8826 C   0  0  0  0  0  0
  -23.9094  -10.4261   21.0480 C   0  0  0  0  0  0
  -24.3649   -9.4164   21.9233 C   0  0  0  0  0  0
  -23.6314   -8.2208   22.0765 C   0  0  0  0  0  0
  -22.4295   -8.0254   21.3546 C   0  0  0  0  0  0
  -21.9942   -9.0249   20.4656 C   0  0  0  0  0  0
  -22.7282  -10.2126   20.3108 C   0  0  0  0  0  0
  -21.6833   -6.0752   22.5289 C   0  0  0  0  0  0
  -21.3988   -6.5661   23.8223 C   0  0  0  0  0  0
  -21.3667   -5.6821   24.9195 C   0  0  0  0  0  0
  -21.6054   -4.3080   24.7239 C   0  0  0  0  0  0
  -21.8807   -3.8165   23.4353 C   0  0  0  0  0  0
  -21.9202   -4.6987   22.3416 C   0  0  0  0  0  0
  -22.7920  -13.5200   21.1876 C   0  0  0  0  0  0
  -22.1671   -4.2169   21.0992 F   0  0  0  0  0  0
  -21.5674   -3.4559   25.7758 F   0  0  0  0  0  0
  -30.0233  -13.2844   20.4205 N   0  0  0  0  0  0
  -26.3046  -12.9195   20.3442 N   0  0  0  0  0  0
  -25.9346  -11.6389   20.5899 N   0  0  0  0  0  0
  -22.0569  -12.8177   22.0418 N   0  0  0  0  0  0
  -25.4312  -15.1727   20.3627 N   0  0  0  0  0  0
  -31.8720  -14.5867   20.1795 O   0  0  0  0  0  0
  -21.6622   -6.8879   21.4244 O   0  0  0  0  0  0
  -22.3654  -14.5564   20.6762 O   0  0  0  0  0  0
  -24.6132  -31.8713   23.2099 C   0  0  0  0  0  0
  -25.9016  -32.4853   23.8414 C   0  0  1  0  0  0
  -27.2357  -27.4676   20.0536 C   0  0  0  0  0  0
  -25.5890  -33.8648   24.2314 N   0  0  0  0  0  0
  -23.3991  -30.4951   21.5558 C   0  0  2  0  0  0
  -24.8354  -28.9585   20.1261 C   0  0  0  0  0  0
  -22.7342  -29.4695   22.5047 C   0  0  0  0  0  0
  -18.0267  -28.1385   22.8503 C   0  0  0  0  0  0
  -24.1506  -36.7336   23.2633 C   0  0  0  0  0  0
  -25.9162  -30.8418   21.3575 C   0  0  0  0  0  0
  -25.9951  -29.4751   20.7137 C   0  0  0  0  0  0
  -27.1918  -28.7248   20.6920 C   0  0  0  0  0  0
  -26.0445  -26.9452   19.4974 C   0  0  0  0  0  0
  -24.8465  -27.6866   19.5339 C   0  0  0  0  0  0
  -23.6003  -29.8295   20.1687 C   0  0  0  0  0  0
  -25.4112  -36.3109   24.0323 C   0  0  1  0  0  0
  -20.5828  -28.3664   23.1325 C   0  0  2  0  0  0
  -20.6729  -26.9385   22.5450 C   0  0  0  0  0  0
  -19.5757  -26.6421   21.5192 C   0  0  0  0  0  0
  -18.1933  -26.7971   22.1612 C   0  0  0  0  0  0
  -19.1492  -28.8857   23.2941 C   0  0  0  0  0  0
  -18.9417  -30.1464   23.8947 C   0  0  0  0  0  0
  -17.6402  -30.6614   24.0576 C   0  0  0  0  0  0
  -25.9017  -34.9480   23.5090 C   0  0  0  0  0  0
  -16.5304  -29.9087   23.6308 C   0  0  0  0  0  0
  -16.7231  -28.6497   23.0324 C   0  0  0  0  0  0
  -26.4477  -31.6620   25.0726 C   0  0  0  0  0  0
  -25.3753  -31.3650   26.1472 C   0  0  0  0  0  0
  -27.0271  -30.3081   24.6011 C   0  0  0  0  0  0
  -27.6082  -32.4287   25.7494 C   0  0  0  0  0  0
  -27.5582  -37.1818   24.8461 C   0  0  0  0  0  0
  -21.4081  -29.3059   22.3741 N   0  0  0  0  0  0
  -26.4285  -37.3794   23.9395 N   0  0  0  0  0  0
  -24.6624  -31.0849   22.0995 N   0  0  0  0  0  0
  -23.4073  -28.8205   23.3075 O   0  0  0  0  0  0
  -28.4533  -26.8166   20.0015 O   0  0  0  0  0  0
  -26.5595  -34.8933   22.4666 O   0  0  0  0  0  0
  -23.5307  -32.1456   23.7486 O   0  0  0  0  0  0
  -28.2070  -21.3670   20.4383 C   0  0  0  0  0  0
  -26.1930  -22.5214   19.7449 C   0  0  0  0  0  0
  -27.5754  -22.3281   19.6168 C   0  0  0  0  0  0
  -27.4559  -20.7261   21.4556 C   0  0  0  0  0  0
  -26.1043  -21.1480   21.6089 C   0  0  0  0  0  0
  -25.5027  -22.2676   23.7468 C   0  0  0  0  0  0
  -26.5394  -17.8784   22.1779 C   0  0  0  0  0  0
  -28.3409  -23.2830   18.7139 C   0  0  0  0  0  0
  -28.1523  -19.7767   22.4554 C   0  0  0  0  0  0
  -25.3133  -20.9987   22.8984 C   0  0  0  0  0  0
  -28.8460  -24.4712   19.5642 C   0  0  0  0  0  0
  -29.1405  -16.1922   21.4991 C   0  0  0  0  0  0
  -28.8100  -17.6885   21.1901 C   0  0  0  0  0  0
  -28.7047  -25.8765   18.9476 C   0  0  0  0  0  0
  -25.4763  -21.9458   20.7224 N   0  0  0  0  0  0
  -29.9414  -15.5715   20.4393 N   0  0  0  0  0  0
  -27.9584  -18.3060   22.2449 N   0  3  1  0  0  0
  -31.4696  -12.3507   19.1403 H   0  0  0  0  0  0
  -30.2836  -11.2833   19.8282 H   0  0  0  0  0  0
  -29.7179  -11.7548   17.4184 H   0  0  0  0  0  0
  -29.6423  -13.4604   17.7397 H   0  0  0  0  0  0
  -27.8436  -11.2745   18.8532 H   0  0  0  0  0  0
  -27.3385  -12.5694   17.8074 H   0  0  0  0  0  0
  -27.7143  -14.2209   19.5797 H   0  0  0  0  0  0
  -28.6992  -11.9055   21.3092 H   0  0  0  0  0  0
  -28.5040  -13.5210   21.8997 H   0  0  0  0  0  0
  -25.2783   -9.5635   22.4835 H   0  0  0  0  0  0
  -24.0005   -7.4592   22.7467 H   0  0  0  0  0  0
  -21.0877   -8.8799   19.8940 H   0  0  0  0  0  0
  -22.3750  -10.9705   19.6241 H   0  0  0  0  0  0
  -21.1922   -7.6163   23.9735 H   0  0  0  0  0  0
  -21.1515   -6.0552   25.9104 H   0  0  0  0  0  0
  -22.0567   -2.7617   23.2872 H   0  0  0  0  0  0
  -22.4142  -11.9774   22.4728 H   0  0  0  0  0  0
  -21.1215  -13.1248   22.2713 H   0  0  0  0  0  0
  -24.6187  -15.7750   20.3341 H   0  0  0  0  0  0
  -26.2047  -15.5257   19.8180 H   0  0  0  0  0  0
  -26.7072  -32.5608   23.1166 H   0  0  0  0  0  0
  -25.0010  -33.9871   25.0431 H   0  0  0  0  0  0
  -22.6916  -31.3140   21.4199 H   0  0  0  0  0  0
  -23.3767  -35.9694   23.3325 H   0  0  0  0  0  0
  -24.3556  -36.8919   22.2040 H   0  0  0  0  0  0
  -23.7306  -37.6547   23.6647 H   0  0  0  0  0  0
  -26.0118  -31.6101   20.5890 H   0  0  0  0  0  0
  -26.8021  -30.9004   21.9753 H   0  0  0  0  0  0
  -28.0932  -29.1200   21.1387 H   0  0  0  0  0  0
  -26.0222  -25.9694   19.0359 H   0  0  0  0  0  0
  -23.9385  -27.2853   19.1057 H   0  0  0  0  0  0
  -23.7164  -30.6062   19.4115 H   0  0  0  0  0  0
  -22.7202  -29.2579   19.8752 H   0  0  0  0  0  0
  -25.1318  -36.1963   25.0822 H   0  0  0  0  0  0
  -20.9896  -28.3181   24.1445 H   0  0  0  0  0  0
  -20.5538  -26.2198   23.3588 H   0  0  0  0  0  0
  -21.6624  -26.7405   22.1342 H   0  0  0  0  0  0
  -19.6894  -25.6325   21.1265 H   0  0  0  0  0  0
  -19.6753  -27.3262   20.6732 H   0  0  0  0  0  0
  -17.4209  -26.6734   21.3995 H   0  0  0  0  0  0
  -18.0372  -26.0084   22.8982 H   0  0  0  0  0  0
  -19.7842  -30.7303   24.2331 H   0  0  0  0  0  0
  -17.4943  -31.6290   24.5186 H   0  0  0  0  0  0
  -15.5295  -30.2988   23.7611 H   0  0  0  0  0  0
  -15.8657  -28.0821   22.6952 H   0  0  0  0  0  0
  -24.6023  -30.6906   25.7767 H   0  0  0  0  0  0
  -24.8891  -32.2763   26.4955 H   0  0  0  0  0  0
  -25.8148  -30.8830   27.0221 H   0  0  0  0  0  0
  -26.2751  -29.6884   24.1099 H   0  0  0  0  0  0
  -27.4062  -29.7272   25.4433 H   0  0  0  0  0  0
  -27.8616  -30.4444   23.9119 H   0  0  0  0  0  0
  -27.2778  -33.3590   26.2128 H   0  0  0  0  0  0
  -28.3894  -32.6793   25.0305 H   0  0  0  0  0  0
  -28.0754  -31.8382   26.5388 H   0  0  0  0  0  0
  -28.2583  -38.0119   24.7460 H   0  0  0  0  0  0
  -28.1065  -36.2627   24.6339 H   0  0  0  0  0  0
  -27.2266  -37.1529   25.8849 H   0  0  0  0  0  0
  -20.9210  -29.8713   21.6937 H   0  0  0  0  0  0
  -26.0178  -38.2863   24.1407 H   0  0  0  0  0  0
  -29.2742  -21.2058   20.3569 H   0  0  0  0  0  0
  -25.6696  -23.2334   19.1211 H   0  0  0  0  0  0
  -24.9084  -22.2522   24.6605 H   0  0  0  0  0  0
  -25.2316  -23.1629   23.1822 H   0  0  0  0  0  0
  -26.5508  -22.3879   24.0226 H   0  0  0  0  0  0
  -26.0009  -18.3490   21.3541 H   0  0  0  0  0  0
  -26.0160  -18.1034   23.1063 H   0  0  0  0  0  0
  -26.4548  -16.8027   22.0500 H   0  0  0  0  0  0
  -27.6568  -23.6164   17.9287 H   0  0  0  0  0  0
  -29.1676  -22.7753   18.2142 H   0  0  0  0  0  0
  -29.2242  -19.9849   22.4693 H   0  0  0  0  0  0
  -27.8139  -20.0182   23.4651 H   0  0  0  0  0  0
  -25.5847  -20.1250   23.4817 H   0  0  0  0  0  0
  -24.2566  -20.8664   22.6580 H   0  0  0  0  0  0
  -29.8790  -24.2839   19.8623 H   0  0  0  0  0  0
  -28.2832  -24.4909   20.4999 H   0  0  0  0  0  0
  -28.2159  -15.6307   21.6097 H   0  0  0  0  0  0
  -29.6786  -16.1083   22.4462 H   0  0  0  0  0  0
  -28.3097  -17.7983   20.2267 H   0  0  0  0  0  0
  -29.7443  -18.2457   21.1055 H   0  0  0  0  0  0
  -27.9581  -25.9106   18.1555 H   0  0  0  0  0  0
  -29.6414  -26.1695   18.4697 H   0  0  0  0  0  0
  -30.4209  -16.2596   19.8781 H   0  0  0  0  0  0
  -28.3177  -17.9043   23.0979 H   0  0  0  0  0  0
  1 25  1  0  0  0
  1 30  2  0  0  0
  1 86  1  0  0  0
  2  3  1  0  0  0
  2 25  1  0  0  0
  2 88  1  0  0  0
  2 89  1  0  0  0
  3  4  1  0  0  0
  3 90  1  0  0  0
  3 91  1  0  0  0
  4  5  1  0  0  0
  4 92  1  0  0  0
  4 93  1  0  0  0
  5  6  1  0  0  0
  5 26  1  0  0  0
  5 94  1  0  0  0
  6 25  1  0  0  0
  6 95  1  0  0  0
  6 96  1  0  0  0
  7  8  2  0  0  0
  7 26  1  0  0  0
  7 29  1  0  0  0
  8  9  1  0  0  0
  8 22  1  0  0  0
  9 10  1  0  0  0
  9 27  2  0  0  0
 10 11  2  0  0  0
 10 15  1  0  0  0
 11 12  1  0  0  0
 11 97  1  0  0  0
 12 13  2  0  0  0
 12 98  1  0  0  0
 13 14  1  0  0  0
 13 31  1  0  0  0
 14 15  2  0  0  0
 14 99  1  0  0  0
 15100  1  0  0  0
 16 17  2  0  0  0
 16 21  1  0  0  0
 16 31  1  0  0  0
 17 18  1  0  0  0
 17101  1  0  0  0
 18 19  2  0  0  0
 18102  1  0  0  0
 19 20  1  0  0  0
 19 24  1  0  0  0
 20 21  2  0  0  0
 20103  1  0  0  0
 21 23  1  0  0  0
 22 28  1  0  0  0
 22 32  2  0  0  0
 26 27  1  0  0  0
 28104  1  0  0  0
 28105  1  0  0  0
 29106  1  0  0  0
 29107  1  0  0  0
 33 34  1  0  0  0
 33 66  1  0  0  0
 33 70  2  0  0  0
 34 36  1  0  0  0
 34 59  1  0  0  0
 34108  1  0  0  0
 35 44  2  0  0  0
 35 45  1  0  0  0
 35 68  1  0  0  0
 36 56  1  0  0  0
 36109  1  0  0  0
 37 39  1  0  0  0
 37 47  1  0  0  0
 37 66  1  0  0  0
 37110  1  0  0  0
 38 43  2  0  0  0
 38 46  1  0  0  0
 38 47  1  0  0  0
 39 64  1  0  0  0
 39 67  2  0  0  0
 40 52  1  0  0  0
 40 53  2  0  0  0
 40 58  1  0  0  0
 41111  1  0  0  0
 41112  1  0  0  0
 41113  1  0  0  0
 41 48  1  0  0  0
 42 43  1  0  0  0
 42 66  1  0  0  0
 42114  1  0  0  0
 42115  1  0  0  0
 43 44  1  0  0  0
 44116  1  0  0  0
 45 46  2  0  0  0
 45117  1  0  0  0
 46118  1  0  0  0
 47119  1  0  0  0
 47120  1  0  0  0
 48 56  1  0  0  0
 48 65  1  0  0  0
 48121  1  0  0  0
 49 50  1  0  0  0
 49 53  1  0  0  0
 49 64  1  0  0  0
 49122  1  0  0  0
 50 51  1  0  0  0
 50123  1  0  0  0
 50124  1  0  0  0
 51 52  1  0  0  0
 51125  1  0  0  0
 51126  1  0  0  0
 52127  1  0  0  0
 52128  1  0  0  0
 53 54  1  0  0  0
 54 55  2  0  0  0
 54129  1  0  0  0
 55 57  1  0  0  0
 55130  1  0  0  0
 56 69  2  0  0  0
 57 58  2  0  0  0
 57131  1  0  0  0
 58132  1  0  0  0
 59 60  1  0  0  0
 59 61  1  0  0  0
 59 62  1  0  0  0
 60133  1  0  0  0
 60134  1  0  0  0
 60135  1  0  0  0
 61136  1  0  0  0
 61137  1  0  0  0
 61138  1  0  0  0
 62139  1  0  0  0
 62140  1  0  0  0
 62141  1  0  0  0
 63 65  1  0  0  0
 63142  1  0  0  0
 63143  1  0  0  0
 63144  1  0  0  0
 64145  1  0  0  0
 65146  1  0  0  0
 68 84  1  0  0  0
 71 73  2  0  0  0
 71 74  1  0  0  0
 71147  1  0  0  0
 72 73  1  0  0  0
 72 85  2  0  0  0
 72148  1  0  0  0
 73 78  1  0  0  0
 74 75  2  0  0  0
 74 79  1  0  0  0
 75 80  1  0  0  0
 75 85  1  0  0  0
 76 80  1  0  0  0
 76149  1  0  0  0
 76150  1  0  0  0
 76151  1  0  0  0
 77152  1  0  0  0
 77153  1  0  0  0
 77154  1  0  0  0
 77 87  1  0  0  0
 78 81  1  0  0  0
 78155  1  0  0  0
 78156  1  0  0  0
 79 87  1  0  0  0
 79157  1  0  0  0
 79158  1  0  0  0
 80159  1  0  0  0
 80160  1  0  0  0
 81 84  1  0  0  0
 81161  1  0  0  0
 81162  1  0  0  0
 82 83  1  0  0  0
 82 86  1  0  0  0
 82163  1  0  0  0
 82164  1  0  0  0
 83 87  1  0  0  0
 83165  1  0  0  0
 83166  1  0  0  0
 84167  1  0  0  0
 84168  1  0  0  0
 86169  1  0  0  0
 87170  1  0  0  0
M  CHG  1  87   1
M  ISO  4   1 100  68 101  84 101  86 100
M  END
> <chiral flag>
0

> <version>
0

> <s_m_source_file>
/data/baiqing/PycharmProjects/Reinvent-master-3.2/result/LINK_invent/BTK/process_docking_weight1_custom_sum_contain_oxygen_bond_distance_aromatic_linkinvent_7_9_3/rearranged_h_0095.sdf

> <i_m_source_file_index>
45

> <r_mmod_Potential_Energy-OPLS-2005>
-239.504440307617

> <r_mmod_Stretch_Energy-OPLS-2005>
37.564136505127

> <r_mmod_Bend_Energy-OPLS-2005>
126.858573913574

> <r_mmod_Torsional_Energy-OPLS-2005>
286.222229003906

> <r_mmod_Improper_Torsional_Energy-OPLS-2005>
26.9037818908691

> <r_mmod_Van_der_Waal_Energy-OPLS-2005>
154.988006591797

> <r_mmod_Electrostatic_Energy-OPLS-2005>
-417.779693603516

> <r_mmod_Solvation_Energy-OPLS-2005>
-470.975433349609

> <b_mmod_Minimization_Converged-OPLS-2005>
0

> <r_mmod_RMS_Derivative-OPLS-2005>
7.13812589645386

$$$$
45
                    3D
 Structure written by MMmdl.
175183  0  0  1  0            999 V2000
  -31.1551  -14.7873   19.4014 C   0  0  0  0  0  0
  -30.8344  -12.7406   20.3538 C   0  0  0  0  0  0
  -29.6499  -11.4168   19.8772 C   0  0  0  0  0  0
  -28.0213  -11.7097   19.2216 C   0  0  0  0  0  0
  -27.2791  -13.3374   19.2842 C   0  0  2  0  0  0
  -28.4257  -14.8740   19.5855 C   0  0  0  0  0  0
  -25.1100  -13.9298   20.5408 C   0  0  0  0  0  0
  -24.0880  -13.1244   20.9591 C   0  0  0  0  0  0
  -24.5418  -11.7763   20.9030 C   0  0  0  0  0  0
  -23.8638  -10.4778   21.0610 C   0  0  0  0  0  0
  -24.3406   -9.4645   21.9282 C   0  0  0  0  0  0
  -23.6335   -8.2542   22.0845 C   0  0  0  0  0  0
  -22.4355   -8.0376   21.3618 C   0  0  0  0  0  0
  -21.9937   -9.0233   20.4655 C   0  0  0  0  0  0
  -22.7018  -10.2267   20.3108 C   0  0  0  0  0  0
  -21.6903   -6.0852   22.5382 C   0  0  0  0  0  0
  -21.4016   -6.5708   23.8330 C   0  0  0  0  0  0
  -21.3648   -5.6808   24.9243 C   0  0  0  0  0  0
  -21.6046   -4.3097   24.7236 C   0  0  0  0  0  0
  -21.8797   -3.8249   23.4333 C   0  0  0  0  0  0
  -21.9195   -4.7090   22.3439 C   0  0  0  0  0  0
  -22.6947  -13.5626   21.2307 C   0  0  0  0  0  0
  -22.1675   -4.2301   21.1025 F   0  0  0  0  0  0
  -21.5635   -3.4538   25.7738 F   0  0  0  0  0  0
  -30.2690  -14.4546   20.1739 N   0  0  0  0  0  0
  -26.1007  -13.0844   20.1492 N   0  0  0  0  0  0
  -25.7801  -11.7981   20.5120 N   0  0  0  0  0  0
  -21.9821  -12.8428   22.0794 N   0  0  0  0  0  0
  -25.2766  -15.2929   20.3701 N   0  0  0  0  0  0
  -32.2864  -15.0948   19.7365 O   0  0  0  0  0  0
  -21.6738   -6.8985   21.4355 O   0  0  0  0  0  0
  -22.2470  -14.5776   20.6960 O   0  0  0  0  0  0
  -24.6589  -31.8284   23.1717 C   0  0  0  0  0  0
  -25.9290  -32.4610   23.8175 C   0  0  1  0  0  0
  -27.1242  -26.8745   20.3178 C   0  0  0  0  0  0
  -25.5983  -33.8416   24.2100 N   0  0  0  0  0  0
  -23.4726  -30.4432   21.5173 C   0  0  2  0  0  0
  -24.9207  -28.8304   20.1096 C   0  0  0  0  0  0
  -22.7657  -29.4455   22.4726 C   0  0  0  0  0  0
  -18.0341  -28.1422   22.8457 C   0  0  0  0  0  0
  -24.1493  -36.7214   23.2648 C   0  0  0  0  0  0
  -26.0388  -30.6291   21.4042 C   0  0  0  0  0  0
  -26.0933  -29.2142   20.7692 C   0  0  0  0  0  0
  -27.1971  -28.2538   20.8465 C   0  0  0  0  0  0
  -25.9637  -26.6684   19.5411 C   0  0  0  0  0  0
  -24.8873  -27.5877   19.4584 C   0  0  0  0  0  0
  -23.7112  -29.7609   20.1391 C   0  0  0  0  0  0
  -25.4136  -36.2979   24.0303 C   0  0  1  0  0  0
  -20.5955  -28.3771   23.1168 C   0  0  2  0  0  0
  -20.6801  -26.9447   22.5404 C   0  0  0  0  0  0
  -19.5773  -26.6381   21.5211 C   0  0  0  0  0  0
  -18.1958  -26.7955   22.1616 C   0  0  0  0  0  0
  -19.1600  -28.8915   23.2804 C   0  0  0  0  0  0
  -18.9507  -30.1496   23.8849 C   0  0  0  0  0  0
  -17.6494  -30.6598   24.0562 C   0  0  0  0  0  0
  -25.9102  -34.9361   23.5027 C   0  0  0  0  0  0
  -16.5388  -29.9090   23.6335 C   0  0  0  0  0  0
  -16.7322  -28.6520   23.0344 C   0  0  0  0  0  0
  -26.4570  -31.6530   25.0677 C   0  0  0  0  0  0
  -25.3708  -31.3758   26.1331 C   0  0  0  0  0  0
  -27.0471  -30.2911   24.6377 C   0  0  0  0  0  0
  -27.6090  -32.4311   25.7477 C   0  0  0  0  0  0
  -27.5577  -37.1755   24.8469 C   0  0  0  0  0  0
  -21.4333  -29.3057   22.3496 N   0  0  0  0  0  0
  -26.4294  -37.3708   23.9406 N   0  0  0  0  0  0
  -24.7447  -30.9958   22.0845 N   0  0  0  0  0  0
  -23.4214  -28.7990   23.2940 O   0  0  0  0  0  0
  -28.0249  -25.7142   20.5664 O   0  0  0  0  0  0
  -26.5699  -34.8901   22.4617 O   0  0  0  0  0  0
  -23.5667  -32.1229   23.6842 O   0  0  0  0  0  0
  -27.6308  -16.6958   23.3506 C   0  0  0  0  0  0
  -28.8569  -16.4048   21.7411 C   0  0  0  0  0  0
  -28.2149  -17.5574   22.3293 C   0  0  0  0  0  0
  -27.8533  -15.2957   23.2783 C   0  0  0  0  0  0
  -26.8216  -13.0216   24.0103 C   0  0  0  0  0  0
  -27.0281  -14.9246   25.6619 C   0  0  0  0  0  0
  -26.9334  -19.7061   23.1437 C   0  0  0  0  0  0
  -29.4116  -19.7396   23.1632 C   0  0  0  0  0  0
  -31.3400  -14.4868   16.9400 C   0  0  0  0  0  0
  -28.1562  -22.5755   21.3935 C   0  0  0  0  0  0
  -28.0706  -20.7574   21.1436 C   0  0  0  0  0  0
  -28.6633  -13.3006   21.2153 C   0  0  0  0  0  0
  -29.5813  -13.2982   18.4637 C   0  0  0  0  0  0
  -27.6923  -24.0825   20.4806 C   0  0  0  0  0  0
  -27.6090  -14.2830   24.3866 C   0  0  0  0  0  0
  -28.1868  -19.3715   22.3161 C   0  0  0  0  0  0
  -28.4589  -14.9297   22.0617 N   0  0  0  0  0  0
  -30.6959  -14.3073   18.2367 N   0  0  0  0  0  0
  -31.7578  -12.5122   19.8094 H   0  0  0  0  0  0
  -31.2007  -12.6028   21.3753 H   0  0  0  0  0  0
  -29.5055  -10.7996   20.7698 H   0  0  0  0  0  0
  -30.1639  -10.7194   19.2089 H   0  0  0  0  0  0
  -27.4630  -10.8041   19.4498 H   0  0  0  0  0  0
  -28.0528  -11.4723   18.1498 H   0  0  0  0  0  0
  -26.8147  -13.5214   18.3148 H   0  0  0  0  0  0
  -27.7871  -15.6867   19.9085 H   0  0  0  0  0  0
  -28.5316  -15.4160   18.6391 H   0  0  0  0  0  0
  -25.2495   -9.6305   22.4874 H   0  0  0  0  0  0
  -24.0232   -7.5074   22.7638 H   0  0  0  0  0  0
  -21.0980   -8.8566   19.8819 H   0  0  0  0  0  0
  -22.3257  -10.9725   19.6263 H   0  0  0  0  0  0
  -21.1988   -7.6193   23.9945 H   0  0  0  0  0  0
  -21.1467   -6.0430   25.9166 H   0  0  0  0  0  0
  -22.0544   -2.7709   23.2774 H   0  0  0  0  0  0
  -22.3631  -12.0203   22.5198 H   0  0  0  0  0  0
  -21.0377  -13.1275   22.3018 H   0  0  0  0  0  0
  -24.5992  -15.9693   20.6961 H   0  0  0  0  0  0
  -26.1896  -15.7019   20.2191 H   0  0  0  0  0  0
  -26.7342  -32.5141   23.0872 H   0  0  0  0  0  0
  -25.0081  -33.9485   25.0215 H   0  0  0  0  0  0
  -22.7862  -31.2759   21.3474 H   0  0  0  0  0  0
  -23.3774  -35.9529   23.3295 H   0  0  0  0  0  0
  -24.3585  -36.8873   22.2068 H   0  0  0  0  0  0
  -23.7226  -37.6392   23.6708 H   0  0  0  0  0  0
  -26.2101  -31.3528   20.6073 H   0  0  0  0  0  0
  -26.9069  -30.6983   22.0475 H   0  0  0  0  0  0
  -28.0626  -28.5267   21.4319 H   0  0  0  0  0  0
  -25.8282  -25.7124   19.0588 H   0  0  0  0  0  0
  -23.9948  -27.2964   18.9226 H   0  0  0  0  0  0
  -23.8791  -30.5265   19.3828 H   0  0  0  0  0  0
  -22.8180  -29.2212   19.8159 H   0  0  0  0  0  0
  -25.1329  -36.1816   25.0800 H   0  0  0  0  0  0
  -21.0083  -28.3410   24.1268 H   0  0  0  0  0  0
  -20.5682  -26.2392   23.3655 H   0  0  0  0  0  0
  -21.6659  -26.7401   22.1199 H   0  0  0  0  0  0
  -19.6939  -25.6281   21.1255 H   0  0  0  0  0  0
  -19.6718  -27.3175   20.6731 H   0  0  0  0  0  0
  -17.4227  -26.6705   21.4025 H   0  0  0  0  0  0
  -18.0362  -26.0118   22.9036 H   0  0  0  0  0  0
  -19.7986  -30.7336   24.2192 H   0  0  0  0  0  0
  -17.5049  -31.6272   24.5194 H   0  0  0  0  0  0
  -15.5389  -30.2978   23.7690 H   0  0  0  0  0  0
  -15.8719  -28.0832   22.7057 H   0  0  0  0  0  0
  -24.5919  -30.7080   25.7630 H   0  0  0  0  0  0
  -24.8853  -32.2944   26.4631 H   0  0  0  0  0  0
  -25.7938  -30.8995   27.0189 H   0  0  0  0  0  0
  -26.3134  -29.6579   24.1373 H   0  0  0  0  0  0
  -27.4028  -29.7285   25.5022 H   0  0  0  0  0  0
  -27.9068  -30.4125   23.9783 H   0  0  0  0  0  0
  -27.2703  -33.3662   26.1962 H   0  0  0  0  0  0
  -28.3968  -32.6788   25.0343 H   0  0  0  0  0  0
  -28.0708  -31.8487   26.5465 H   0  0  0  0  0  0
  -28.2581  -38.0060   24.7521 H   0  0  0  0  0  0
  -28.1082  -36.2583   24.6306 H   0  0  0  0  0  0
  -27.2287  -37.1422   25.8870 H   0  0  0  0  0  0
  -20.9595  -29.8767   21.6628 H   0  0  0  0  0  0
  -26.0152  -38.2779   24.1408 H   0  0  0  0  0  0
  -27.1322  -17.1193   24.2080 H   0  0  0  0  0  0
  -29.5442  -16.5964   20.9317 H   0  0  0  0  0  0
  -25.9757  -13.2356   23.3605 H   0  0  0  0  0  0
  -26.4480  -12.5056   24.8983 H   0  0  0  0  0  0
  -27.4639  -12.2837   23.5337 H   0  0  0  0  0  0
  -27.7151  -15.6618   26.0864 H   0  0  0  0  0  0
  -26.8469  -14.1900   26.4440 H   0  0  0  0  0  0
  -26.0761  -15.4215   25.4648 H   0  0  0  0  0  0
  -26.9472  -19.2673   24.1351 H   0  0  0  0  0  0
  -26.0302  -19.3640   22.6344 H   0  0  0  0  0  0
  -26.8274  -20.7813   23.2939 H   0  0  0  0  0  0
  -29.4223  -19.1842   24.1029 H   0  0  0  0  0  0
  -29.4250  -20.8012   23.4165 H   0  0  0  0  0  0
  -30.3393  -19.5195   22.6316 H   0  0  0  0  0  0
  -31.1091  -15.4882   16.5680 H   0  0  0  0  0  0
  -30.9738  -13.7584   16.2099 H   0  0  0  0  0  0
  -32.4243  -14.3933   17.0121 H   0  0  0  0  0  0
  -27.6526  -22.7215   22.3456 H   0  0  0  0  0  0
  -29.2050  -22.7412   21.6404 H   0  0  0  0  0  0
  -28.8283  -20.5606   20.3853 H   0  0  0  0  0  0
  -27.1319  -20.5949   20.6114 H   0  0  0  0  0  0
  -29.2836  -12.8328   21.9857 H   0  0  0  0  0  0
  -27.8828  -12.6226   21.5138 H   0  0  0  0  0  0
  -28.8991  -13.5585   17.6418 H   0  0  0  0  0  0
  -30.0499  -12.4550   17.9432 H   0  0  0  0  0  0
  -26.6031  -24.0367   20.4721 H   0  0  0  0  0  0
  -27.9648  -23.8602   19.4484 H   0  0  0  0  0  0
  -28.5937  -13.9186   24.6911 H   0  0  0  0  0  0
  1 25  1  0  0  0
  1 30  2  0  0  0
  1 88  1  0  0  0
  2  3  1  0  0  0
  2 25  1  0  0  0
  2 89  1  0  0  0
  2 90  1  0  0  0
  3  4  1  0  0  0
  3 91  1  0  0  0
  3 92  1  0  0  0
  4  5  1  0  0  0
  4 93  1  0  0  0
  4 94  1  0  0  0
  5  6  1  0  0  0
  5 26  1  0  0  0
  5 95  1  0  0  0
  6 25  1  0  0  0
  6 96  1  0  0  0
  6 97  1  0  0  0
  7  8  2  0  0  0
  7 26  1  0  0  0
  7 29  1  0  0  0
  8  9  1  0  0  0
  8 22  1  0  0  0
  9 10  1  0  0  0
  9 27  2  0  0  0
 10 11  2  0  0  0
 10 15  1  0  0  0
 11 12  1  0  0  0
 11 98  1  0  0  0
 12 13  2  0  0  0
 12 99  1  0  0  0
 13 14  1  0  0  0
 13 31  1  0  0  0
 14 15  2  0  0  0
 14100  1  0  0  0
 15101  1  0  0  0
 16 17  2  0  0  0
 16 21  1  0  0  0
 16 31  1  0  0  0
 17 18  1  0  0  0
 17102  1  0  0  0
 18 19  2  0  0  0
 18103  1  0  0  0
 19 20  1  0  0  0
 19 24  1  0  0  0
 20 21  2  0  0  0
 20104  1  0  0  0
 21 23  1  0  0  0
 22 28  1  0  0  0
 22 32  2  0  0  0
 26 27  1  0  0  0
 28105  1  0  0  0
 28106  1  0  0  0
 29107  1  0  0  0
 29108  1  0  0  0
 33 34  1  0  0  0
 33 66  1  0  0  0
 33 70  2  0  0  0
 34 36  1  0  0  0
 34 59  1  0  0  0
 34109  1  0  0  0
 35 44  2  0  0  0
 35 45  1  0  0  0
 35 68  1  0  0  0
 36 56  1  0  0  0
 36110  1  0  0  0
 37 39  1  0  0  0
 37 47  1  0  0  0
 37 66  1  0  0  0
 37111  1  0  0  0
 38 43  2  0  0  0
 38 46  1  0  0  0
 38 47  1  0  0  0
 39 64  1  0  0  0
 39 67  2  0  0  0
 40 52  1  0  0  0
 40 53  2  0  0  0
 40 58  1  0  0  0
 41112  1  0  0  0
 41113  1  0  0  0
 41114  1  0  0  0
 41 48  1  0  0  0
 42 43  1  0  0  0
 42 66  1  0  0  0
 42115  1  0  0  0
 42116  1  0  0  0
 43 44  1  0  0  0
 44117  1  0  0  0
 45 46  2  0  0  0
 45118  1  0  0  0
 46119  1  0  0  0
 47120  1  0  0  0
 47121  1  0  0  0
 48 56  1  0  0  0
 48 65  1  0  0  0
 48122  1  0  0  0
 49 50  1  0  0  0
 49 53  1  0  0  0
 49 64  1  0  0  0
 49123  1  0  0  0
 50 51  1  0  0  0
 50124  1  0  0  0
 50125  1  0  0  0
 51 52  1  0  0  0
 51126  1  0  0  0
 51127  1  0  0  0
 52128  1  0  0  0
 52129  1  0  0  0
 53 54  1  0  0  0
 54 55  2  0  0  0
 54130  1  0  0  0
 55 57  1  0  0  0
 55131  1  0  0  0
 56 69  2  0  0  0
 57 58  2  0  0  0
 57132  1  0  0  0
 58133  1  0  0  0
 59 60  1  0  0  0
 59 61  1  0  0  0
 59 62  1  0  0  0
 60134  1  0  0  0
 60135  1  0  0  0
 60136  1  0  0  0
 61137  1  0  0  0
 61138  1  0  0  0
 61139  1  0  0  0
 62140  1  0  0  0
 62141  1  0  0  0
 62142  1  0  0  0
 63 65  1  0  0  0
 63143  1  0  0  0
 63144  1  0  0  0
 63145  1  0  0  0
 64146  1  0  0  0
 65147  1  0  0  0
 68 84  1  0  0  0
 71 73  1  0  0  0
 71 74  2  0  0  0
 71148  1  0  0  0
 72 73  2  0  0  0
 72 87  1  0  0  0
 72149  1  0  0  0
 73 86  1  0  0  0
 74 85  1  0  0  0
 74 87  1  0  0  0
 75150  1  0  0  0
 75151  1  0  0  0
 75152  1  0  0  0
 75 85  1  0  0  0
 76 85  1  0  0  0
 76153  1  0  0  0
 76154  1  0  0  0
 76155  1  0  0  0
 77156  1  0  0  0
 77157  1  0  0  0
 77158  1  0  0  0
 77 86  1  0  0  0
 78 86  1  0  0  0
 78159  1  0  0  0
 78160  1  0  0  0
 78161  1  0  0  0
 79 88  1  0  0  0
 79162  1  0  0  0
 79163  1  0  0  0
 79164  1  0  0  0
 80 81  1  0  0  0
 80 84  1  0  0  0
 80165  1  0  0  0
 80166  1  0  0  0
 81 86  1  0  0  0
 81167  1  0  0  0
 81168  1  0  0  0
 82 83  1  0  0  0
 82 87  1  0  0  0
 82169  1  0  0  0
 82170  1  0  0  0
 83 88  1  0  0  0
 83171  1  0  0  0
 83172  1  0  0  0
 84173  1  0  0  0
 84174  1  0  0  0
 85175  1  0  0  0
M  ISO  4   1 100  68 101  84 101  88 100
M  END
> <chiral flag>
0

> <version>
0

> <s_m_source_file>
/data/baiqing/PycharmProjects/Reinvent-master-3.2/result/LINK_invent/BTK/process_docking_weight1_custom_sum_contain_oxygen_bond_distance_aromatic_linkinvent_7_9_3/rearranged_h_0095.sdf

> <i_m_source_file_index>
46

> <r_mmod_Potential_Energy-OPLS-2005>
8599.1904296875

> <r_mmod_Stretch_Energy-OPLS-2005>
4066.51440429688

> <r_mmod_Bend_Energy-OPLS-2005>
788.3662109375

> <r_mmod_Torsional_Energy-OPLS-2005>
426.372222900391

> <r_mmod_Improper_Torsional_Energy-OPLS-2005>
23.9479122161865

> <r_mmod_Van_der_Waal_Energy-OPLS-2005>
1884.376953125

> <r_mmod_Electrostatic_Energy-OPLS-2005>
-384.939270019531

> <r_mmod_Solvation_Energy-OPLS-2005>
-182.830139160156

> <b_mmod_Minimization_Converged-OPLS-2005>
0

> <r_mmod_RMS_Derivative-OPLS-2005>
9.60789108276367

$$$$
46
                    3D
 Structure written by MMmdl.
172180  0  0  1  0            999 V2000
  -30.6224  -14.7387   20.4979 C   0  0  0  0  0  0
  -30.4319  -12.4535   19.4880 C   0  0  0  0  0  0
  -29.5114  -12.5015   18.2474 C   0  0  0  0  0  0
  -28.0386  -12.3221   18.6623 C   0  0  0  0  0  0
  -27.6438  -13.2285   19.8581 C   0  0  2  0  0  0
  -28.6836  -13.1529   20.9967 C   0  0  0  0  0  0
  -25.2521  -13.8195   20.5735 C   0  0  0  0  0  0
  -24.1795  -13.0448   20.9210 C   0  0  0  0  0  0
  -24.6380  -11.6925   20.8738 C   0  0  0  0  0  0
  -23.9054  -10.4298   21.0402 C   0  0  0  0  0  0
  -24.3613   -9.4220   21.9176 C   0  0  0  0  0  0
  -23.6302   -8.2247   22.0752 C   0  0  0  0  0  0
  -22.4279   -8.0285   21.3551 C   0  0  0  0  0  0
  -21.9911   -9.0248   20.4641 C   0  0  0  0  0  0
  -22.7234  -10.2127   20.3052 C   0  0  0  0  0  0
  -21.6854   -6.0742   22.5295 C   0  0  0  0  0  0
  -21.4014   -6.5638   23.8230 C   0  0  0  0  0  0
  -21.3655   -5.6793   24.9189 C   0  0  0  0  0  0
  -21.6041   -4.3055   24.7235 C   0  0  0  0  0  0
  -21.8821   -3.8148   23.4357 C   0  0  0  0  0  0
  -21.9197   -4.6972   22.3419 C   0  0  0  0  0  0
  -22.7824  -13.5235   21.1886 C   0  0  0  0  0  0
  -22.1666   -4.2163   21.0991 F   0  0  0  0  0  0
  -21.5623   -3.4533   25.7738 F   0  0  0  0  0  0
  -29.9900  -13.5122   20.4279 N   0  0  0  0  0  0
  -26.2934  -12.9398   20.3320 N   0  0  0  0  0  0
  -25.9307  -11.6544   20.5760 N   0  0  0  0  0  0
  -22.0469  -12.8203   22.0428 N   0  0  0  0  0  0
  -25.4267  -15.1920   20.4217 N   0  0  0  0  0  0
  -31.7651  -14.8545   20.0419 O   0  0  0  0  0  0
  -21.6645   -6.8887   21.4254 O   0  0  0  0  0  0
  -22.3514  -14.5551   20.6762 O   0  0  0  0  0  0
  -24.6281  -31.8562   23.1973 C   0  0  0  0  0  0
  -25.9110  -32.4766   23.8313 C   0  0  1  0  0  0
  -27.2153  -27.2693   20.1442 C   0  0  0  0  0  0
  -25.5921  -33.8572   24.2260 N   0  0  0  0  0  0
  -23.4229  -30.4781   21.5410 C   0  0  2  0  0  0
  -24.8696  -28.9193   20.1129 C   0  0  0  0  0  0
  -22.7475  -29.4616   22.4916 C   0  0  0  0  0  0
  -18.0295  -28.1382   22.8491 C   0  0  0  0  0  0
  -24.1479  -36.7277   23.2637 C   0  0  0  0  0  0
  -25.9664  -30.7736   21.3688 C   0  0  0  0  0  0
  -26.0385  -29.3929   20.7225 C   0  0  0  0  0  0
  -27.2159  -28.5805   20.7256 C   0  0  0  0  0  0
  -26.0265  -26.8586   19.5041 C   0  0  0  0  0  0
  -24.8669  -27.6596   19.4930 C   0  0  0  0  0  0
  -23.6403  -29.8068   20.1570 C   0  0  0  0  0  0
  -25.4106  -36.3079   24.0333 C   0  0  1  0  0  0
  -20.5898  -28.3681   23.1281 C   0  0  2  0  0  0
  -20.6807  -26.9407   22.5407 C   0  0  0  0  0  0
  -19.5775  -26.6382   21.5207 C   0  0  0  0  0  0
  -18.1946  -26.7939   22.1605 C   0  0  0  0  0  0
  -19.1551  -28.8848   23.2884 C   0  0  0  0  0  0
  -18.9481  -30.1454   23.8896 C   0  0  0  0  0  0
  -17.6490  -30.6592   24.0566 C   0  0  0  0  0  0
  -25.9043  -34.9462   23.5106 C   0  0  0  0  0  0
  -16.5368  -29.9098   23.6330 C   0  0  0  0  0  0
  -16.7282  -28.6509   23.0358 C   0  0  0  0  0  0
  -26.4503  -31.6584   25.0683 C   0  0  0  0  0  0
  -25.3750  -31.3775   26.1427 C   0  0  0  0  0  0
  -27.0287  -30.2996   24.6099 C   0  0  0  0  0  0
  -27.6066  -32.4314   25.7442 C   0  0  0  0  0  0
  -27.5592  -37.1773   24.8462 C   0  0  0  0  0  0
  -21.4189  -29.3036   22.3672 N   0  0  0  0  0  0
  -26.4274  -37.3785   23.9455 N   0  0  0  0  0  0
  -24.6927  -31.0553   22.0923 N   0  0  0  0  0  0
  -23.4197  -28.8159   23.2998 O   0  0  0  0  0  0
  -28.3153  -26.3881   20.1656 O   0  0  0  0  0  0
  -26.5600  -34.8939   22.4662 O   0  0  0  0  0  0
  -23.5446  -32.1374   23.7299 O   0  0  0  0  0  0
  -27.2817  -20.0448   17.9193 C   0  0  0  0  0  0
  -28.2062  -19.1701   18.3884 C   0  0  0  0  0  0
  -27.2233  -21.1437   18.8095 C   0  0  0  0  0  0
  -28.2760  -21.0192   19.6958 C   0  0  0  0  0  0
  -22.3229  -22.0727   19.6797 C   0  0  0  0  0  0
  -24.0386  -23.5197   20.8072 C   0  0  0  0  0  0
  -29.6776  -16.1322   22.2819 C   0  0  0  0  0  0
  -26.1507  -22.2184   18.7492 C   0  0  0  0  0  0
  -28.6921  -22.2030   20.6340 C   0  0  0  0  0  0
  -24.7774  -21.6693   19.1916 C   0  0  0  0  0  0
  -28.8248  -23.7055   20.0014 C   0  0  0  0  0  0
  -29.5028  -18.6531   20.4780 C   0  0  0  0  0  0
  -29.6265  -17.0919   19.9629 C   0  0  0  0  0  0
  -28.1127  -24.9908   20.6774 C   0  0  0  0  0  0
  -23.7038  -22.7320   19.5279 C   0  0  0  0  0  0
  -28.7121  -19.6251   19.5990 N   0  0  0  0  0  0
  -29.8926  -15.8747   20.8574 N   0  0  0  0  0  0
  -31.4739  -12.5732   19.1848 H   0  0  0  0  0  0
  -30.3782  -11.4766   19.9723 H   0  0  0  0  0  0
  -29.7946  -11.7215   17.5394 H   0  0  0  0  0  0
  -29.6369  -13.4529   17.7275 H   0  0  0  0  0  0
  -27.9034  -11.2754   18.9383 H   0  0  0  0  0  0
  -27.3775  -12.4994   17.8134 H   0  0  0  0  0  0
  -27.6428  -14.2505   19.4788 H   0  0  0  0  0  0
  -28.7172  -12.1517   21.4272 H   0  0  0  0  0  0
  -28.3985  -13.8186   21.8108 H   0  0  0  0  0  0
  -25.2763   -9.5709   22.4753 H   0  0  0  0  0  0
  -24.0021   -7.4642   22.7467 H   0  0  0  0  0  0
  -21.0848   -8.8757   19.8946 H   0  0  0  0  0  0
  -22.3686  -10.9666   19.6156 H   0  0  0  0  0  0
  -21.1998   -7.6148   23.9748 H   0  0  0  0  0  0
  -21.1469   -6.0510   25.9098 H   0  0  0  0  0  0
  -22.0598   -2.7613   23.2850 H   0  0  0  0  0  0
  -22.4070  -11.9822   22.4762 H   0  0  0  0  0  0
  -21.1106  -13.1243   22.2683 H   0  0  0  0  0  0
  -24.6708  -15.8546   20.5572 H   0  0  0  0  0  0
  -26.2926  -15.6319   20.1397 H   0  0  0  0  0  0
  -26.7155  -32.5427   23.1043 H   0  0  0  0  0  0
  -25.0145  -33.9737   25.0455 H   0  0  0  0  0  0
  -22.7174  -31.2996   21.3957 H   0  0  0  0  0  0
  -23.3771  -35.9571   23.3236 H   0  0  0  0  0  0
  -24.3596  -36.8949   22.2063 H   0  0  0  0  0  0
  -23.7179  -37.6448   23.6682 H   0  0  0  0  0  0
  -26.0938  -31.5256   20.5895 H   0  0  0  0  0  0
  -26.8506  -30.8336   21.9926 H   0  0  0  0  0  0
  -28.1136  -28.9405   21.2085 H   0  0  0  0  0  0
  -25.9858  -25.8921   19.0213 H   0  0  0  0  0  0
  -23.9711  -27.2903   19.0114 H   0  0  0  0  0  0
  -23.7653  -30.5819   19.3988 H   0  0  0  0  0  0
  -22.7556  -29.2420   19.8522 H   0  0  0  0  0  0
  -25.1286  -36.1901   25.0817 H   0  0  0  0  0  0
  -20.9998  -28.3240   24.1399 H   0  0  0  0  0  0
  -20.5713  -26.2280   23.3597 H   0  0  0  0  0  0
  -21.6669  -26.7458   22.1186 H   0  0  0  0  0  0
  -19.6939  -25.6289   21.1236 H   0  0  0  0  0  0
  -19.6717  -27.3191   20.6730 H   0  0  0  0  0  0
  -17.4231  -26.6689   21.3989 H   0  0  0  0  0  0
  -18.0331  -26.0101   22.9005 H   0  0  0  0  0  0
  -19.7955  -30.7269   24.2258 H   0  0  0  0  0  0
  -17.5041  -31.6269   24.5164 H   0  0  0  0  0  0
  -15.5370  -30.3000   23.7673 H   0  0  0  0  0  0
  -15.8675  -28.0823   22.7089 H   0  0  0  0  0  0
  -24.5904  -30.7120   25.7806 H   0  0  0  0  0  0
  -24.8972  -32.2970   26.4810 H   0  0  0  0  0  0
  -25.8096  -30.9005   27.0209 H   0  0  0  0  0  0
  -26.2809  -29.6786   24.1146 H   0  0  0  0  0  0
  -27.4021  -29.7209   25.4551 H   0  0  0  0  0  0
  -27.8678  -30.4287   23.9263 H   0  0  0  0  0  0
  -27.2693  -33.3664   26.1929 H   0  0  0  0  0  0
  -28.3924  -32.6774   25.0285 H   0  0  0  0  0  0
  -28.0649  -31.8465   26.5430 H   0  0  0  0  0  0
  -28.2563  -38.0119   24.7610 H   0  0  0  0  0  0
  -28.1130  -36.2666   24.6142 H   0  0  0  0  0  0
  -27.2344  -37.1251   25.8868 H   0  0  0  0  0  0
  -20.9348  -29.8750   21.6891 H   0  0  0  0  0  0
  -26.0141  -38.2835   24.1519 H   0  0  0  0  0  0
  -26.6553  -19.8747   17.0552 H   0  0  0  0  0  0
  -28.4672  -18.2087   17.9734 H   0  0  0  0  0  0
  -21.5509  -22.8101   19.9067 H   0  0  0  0  0  0
  -22.3198  -21.3378   20.4865 H   0  0  0  0  0  0
  -22.0237  -21.5617   18.7646 H   0  0  0  0  0  0
  -23.2292  -24.1984   21.0805 H   0  0  0  0  0  0
  -24.9279  -24.1313   20.6842 H   0  0  0  0  0  0
  -24.2070  -22.8527   21.6537 H   0  0  0  0  0  0
  -28.6146  -16.2590   22.4886 H   0  0  0  0  0  0
  -30.1988  -17.0357   22.5953 H   0  0  0  0  0  0
  -30.0443  -15.3203   22.9123 H   0  0  0  0  0  0
  -26.0922  -22.6184   17.7352 H   0  0  0  0  0  0
  -26.4114  -23.0518   19.3898 H   0  0  0  0  0  0
  -29.6318  -21.9509   21.1287 H   0  0  0  0  0  0
  -27.9616  -22.2517   21.4418 H   0  0  0  0  0  0
  -24.9137  -21.0379   20.0711 H   0  0  0  0  0  0
  -24.4074  -21.0080   18.4069 H   0  0  0  0  0  0
  -28.5029  -23.6727   18.9621 H   0  0  0  0  0  0
  -29.8887  -23.9282   19.9278 H   0  0  0  0  0  0
  -30.4989  -19.0692   20.6332 H   0  0  0  0  0  0
  -29.0161  -18.6729   21.4524 H   0  0  0  0  0  0
  -30.3277  -17.0642   19.1267 H   0  0  0  0  0  0
  -28.6620  -16.8156   19.5403 H   0  0  0  0  0  0
  -28.4386  -25.0242   21.7174 H   0  0  0  0  0  0
  -27.0500  -24.7788   20.7488 H   0  0  0  0  0  0
  -23.6411  -23.4386   18.6983 H   0  0  0  0  0  0
  1 25  1  0  0  0
  1 30  2  0  0  0
  1 87  1  0  0  0
  2  3  1  0  0  0
  2 25  1  0  0  0
  2 88  1  0  0  0
  2 89  1  0  0  0
  3  4  1  0  0  0
  3 90  1  0  0  0
  3 91  1  0  0  0
  4  5  1  0  0  0
  4 92  1  0  0  0
  4 93  1  0  0  0
  5  6  1  0  0  0
  5 26  1  0  0  0
  5 94  1  0  0  0
  6 25  1  0  0  0
  6 95  1  0  0  0
  6 96  1  0  0  0
  7  8  2  0  0  0
  7 26  1  0  0  0
  7 29  1  0  0  0
  8  9  1  0  0  0
  8 22  1  0  0  0
  9 10  1  0  0  0
  9 27  2  0  0  0
 10 11  2  0  0  0
 10 15  1  0  0  0
 11 12  1  0  0  0
 11 97  1  0  0  0
 12 13  2  0  0  0
 12 98  1  0  0  0
 13 14  1  0  0  0
 13 31  1  0  0  0
 14 15  2  0  0  0
 14 99  1  0  0  0
 15100  1  0  0  0
 16 17  2  0  0  0
 16 21  1  0  0  0
 16 31  1  0  0  0
 17 18  1  0  0  0
 17101  1  0  0  0
 18 19  2  0  0  0
 18102  1  0  0  0
 19 20  1  0  0  0
 19 24  1  0  0  0
 20 21  2  0  0  0
 20103  1  0  0  0
 21 23  1  0  0  0
 22 28  1  0  0  0
 22 32  2  0  0  0
 26 27  1  0  0  0
 28104  1  0  0  0
 28105  1  0  0  0
 29106  1  0  0  0
 29107  1  0  0  0
 33 34  1  0  0  0
 33 66  1  0  0  0
 33 70  2  0  0  0
 34 36  1  0  0  0
 34 59  1  0  0  0
 34108  1  0  0  0
 35 44  2  0  0  0
 35 45  1  0  0  0
 35 68  1  0  0  0
 36 56  1  0  0  0
 36109  1  0  0  0
 37 39  1  0  0  0
 37 47  1  0  0  0
 37 66  1  0  0  0
 37110  1  0  0  0
 38 43  2  0  0  0
 38 46  1  0  0  0
 38 47  1  0  0  0
 39 64  1  0  0  0
 39 67  2  0  0  0
 40 52  1  0  0  0
 40 53  2  0  0  0
 40 58  1  0  0  0
 41111  1  0  0  0
 41112  1  0  0  0
 41113  1  0  0  0
 41 48  1  0  0  0
 42 43  1  0  0  0
 42 66  1  0  0  0
 42114  1  0  0  0
 42115  1  0  0  0
 43 44  1  0  0  0
 44116  1  0  0  0
 45 46  2  0  0  0
 45117  1  0  0  0
 46118  1  0  0  0
 47119  1  0  0  0
 47120  1  0  0  0
 48 56  1  0  0  0
 48 65  1  0  0  0
 48121  1  0  0  0
 49 50  1  0  0  0
 49 53  1  0  0  0
 49 64  1  0  0  0
 49122  1  0  0  0
 50 51  1  0  0  0
 50123  1  0  0  0
 50124  1  0  0  0
 51 52  1  0  0  0
 51125  1  0  0  0
 51126  1  0  0  0
 52127  1  0  0  0
 52128  1  0  0  0
 53 54  1  0  0  0
 54 55  2  0  0  0
 54129  1  0  0  0
 55 57  1  0  0  0
 55130  1  0  0  0
 56 69  2  0  0  0
 57 58  2  0  0  0
 57131  1  0  0  0
 58132  1  0  0  0
 59 60  1  0  0  0
 59 61  1  0  0  0
 59 62  1  0  0  0
 60133  1  0  0  0
 60134  1  0  0  0
 60135  1  0  0  0
 61136  1  0  0  0
 61137  1  0  0  0
 61138  1  0  0  0
 62139  1  0  0  0
 62140  1  0  0  0
 62141  1  0  0  0
 63 65  1  0  0  0
 63142  1  0  0  0
 63143  1  0  0  0
 63144  1  0  0  0
 64145  1  0  0  0
 65146  1  0  0  0
 68 84  1  0  0  0
 71 72  2  0  0  0
 71 73  1  0  0  0
 71147  1  0  0  0
 72 86  1  0  0  0
 72148  1  0  0  0
 73 74  2  0  0  0
 73 78  1  0  0  0
 74 79  1  0  0  0
 74 86  1  0  0  0
 75149  1  0  0  0
 75150  1  0  0  0
 75151  1  0  0  0
 75 85  1  0  0  0
 76 85  1  0  0  0
 76152  1  0  0  0
 76153  1  0  0  0
 76154  1  0  0  0
 77 87  1  0  0  0
 77155  1  0  0  0
 77156  1  0  0  0
 77157  1  0  0  0
 78 80  1  0  0  0
 78158  1  0  0  0
 78159  1  0  0  0
 79 81  1  0  0  0
 79160  1  0  0  0
 79161  1  0  0  0
 80 85  1  0  0  0
 80162  1  0  0  0
 80163  1  0  0  0
 81 84  1  0  0  0
 81164  1  0  0  0
 81165  1  0  0  0
 82 83  1  0  0  0
 82 86  1  0  0  0
 82166  1  0  0  0
 82167  1  0  0  0
 83 87  1  0  0  0
 83168  1  0  0  0
 83169  1  0  0  0
 84170  1  0  0  0
 84171  1  0  0  0
 85172  1  0  0  0
M  ISO  4   1 100  68 101  84 101  87 100
M  END
> <chiral flag>
0

> <version>
0

> <s_m_source_file>
/data/baiqing/PycharmProjects/Reinvent-master-3.2/result/LINK_invent/BTK/process_docking_weight1_custom_sum_contain_oxygen_bond_distance_aromatic_linkinvent_7_9_3/rearranged_h_0095.sdf

> <i_m_source_file_index>
47

> <r_mmod_Potential_Energy-OPLS-2005>
385.074432373047

> <r_mmod_Stretch_Energy-OPLS-2005>
141.725982666016

> <r_mmod_Bend_Energy-OPLS-2005>
198.490219116211

> <r_mmod_Torsional_Energy-OPLS-2005>
364.655944824219

> <r_mmod_Improper_Torsional_Energy-OPLS-2005>
6.44739580154419

> <r_mmod_Van_der_Waal_Energy-OPLS-2005>
112.940986633301

> <r_mmod_Electrostatic_Energy-OPLS-2005>
-323.415985107422

> <r_mmod_Solvation_Energy-OPLS-2005>
-194.876617431641

> <b_mmod_Minimization_Converged-OPLS-2005>
0

> <r_mmod_RMS_Derivative-OPLS-2005>
2.98519110679626

$$$$
47
                    3D
 Structure written by MMmdl.
155162  0  0  1  0            999 V2000
  -30.5049  -14.9643   20.3959 C   0  0  0  0  0  0
  -30.4429  -12.5989   19.4708 C   0  0  0  0  0  0
  -29.5169  -12.5245   18.2368 C   0  0  0  0  0  0
  -28.0527  -12.2983   18.6643 C   0  0  0  0  0  0
  -27.6234  -13.2376   19.8217 C   0  0  2  0  0  0
  -28.6700  -13.2743   20.9520 C   0  0  0  0  0  0
  -25.2449  -13.8203   20.5656 C   0  0  0  0  0  0
  -24.1777  -13.0435   20.9244 C   0  0  0  0  0  0
  -24.6393  -11.6922   20.8768 C   0  0  0  0  0  0
  -23.9072  -10.4298   21.0417 C   0  0  0  0  0  0
  -24.3628   -9.4204   21.9169 C   0  0  0  0  0  0
  -23.6316   -8.2233   22.0736 C   0  0  0  0  0  0
  -22.4279   -8.0274   21.3544 C   0  0  0  0  0  0
  -21.9930   -9.0239   20.4634 C   0  0  0  0  0  0
  -22.7249  -10.2124   20.3053 C   0  0  0  0  0  0
  -21.6851   -6.0739   22.5292 C   0  0  0  0  0  0
  -21.4013   -6.5643   23.8224 C   0  0  0  0  0  0
  -21.3669   -5.6789   24.9179 C   0  0  0  0  0  0
  -21.6057   -4.3058   24.7229 C   0  0  0  0  0  0
  -21.8818   -3.8157   23.4354 C   0  0  0  0  0  0
  -21.9195   -4.6968   22.3406 C   0  0  0  0  0  0
  -22.7797  -13.5203   21.1912 C   0  0  0  0  0  0
  -22.1653   -4.2163   21.0977 F   0  0  0  0  0  0
  -21.5641   -3.4540   25.7740 F   0  0  0  0  0  0
  -29.9322  -13.6960   20.3338 N   0  0  0  0  0  0
  -26.2843  -12.9398   20.3155 N   0  0  0  0  0  0
  -25.9310  -11.6551   20.5726 N   0  0  0  0  0  0
  -22.0415  -12.8199   22.0447 N   0  0  0  0  0  0
  -25.4106  -15.1935   20.4001 N   0  0  0  0  0  0
  -31.7278  -15.0473   20.2563 O   0  0  0  0  0  0
  -21.6647   -6.8871   21.4247 O   0  0  0  0  0  0
  -22.3465  -14.5488   20.6733 O   0  0  0  0  0  0
  -24.6432  -31.8402   23.1839 C   0  0  0  0  0  0
  -25.9188  -32.4672   23.8246 C   0  0  1  0  0  0
  -27.2222  -27.1239   20.1720 C   0  0  0  0  0  0
  -25.5927  -33.8479   24.2170 N   0  0  0  0  0  0
  -23.4488  -30.4567   21.5263 C   0  0  2  0  0  0
  -24.9009  -28.8670   20.1186 C   0  0  0  0  0  0
  -22.7561  -29.4529   22.4827 C   0  0  0  0  0  0
  -18.0302  -28.1379   22.8453 C   0  0  0  0  0  0
  -24.1493  -36.7272   23.2642 C   0  0  0  0  0  0
  -26.0040  -30.7109   21.3809 C   0  0  0  0  0  0
  -26.0758  -29.3151   20.7370 C   0  0  0  0  0  0
  -27.2408  -28.4607   20.7393 C   0  0  0  0  0  0
  -26.0242  -26.7654   19.5268 C   0  0  0  0  0  0
  -24.8885  -27.6066   19.4960 C   0  0  0  0  0  0
  -23.6803  -29.7744   20.1499 C   0  0  0  0  0  0
  -25.4120  -36.3026   24.0315 C   0  0  1  0  0  0
  -20.5903  -28.3719   23.1213 C   0  0  2  0  0  0
  -20.6776  -26.9418   22.5389 C   0  0  0  0  0  0
  -19.5761  -26.6371   21.5187 C   0  0  0  0  0  0
  -18.1942  -26.7921   22.1595 C   0  0  0  0  0  0
  -19.1549  -28.8869   23.2829 C   0  0  0  0  0  0
  -18.9479  -30.1455   23.8868 C   0  0  0  0  0  0
  -17.6472  -30.6577   24.0560 C   0  0  0  0  0  0
  -25.9070  -34.9400   23.5069 C   0  0  0  0  0  0
  -16.5365  -29.9077   23.6323 C   0  0  0  0  0  0
  -16.7279  -28.6494   23.0346 C   0  0  0  0  0  0
  -26.4527  -31.6535   25.0686 C   0  0  0  0  0  0
  -25.3731  -31.3699   26.1397 C   0  0  0  0  0  0
  -27.0373  -30.2926   24.6246 C   0  0  0  0  0  0
  -27.6043  -32.4302   25.7478 C   0  0  0  0  0  0
  -27.5589  -37.1777   24.8448 C   0  0  0  0  0  0
  -21.4251  -29.3048   22.3590 N   0  0  0  0  0  0
  -26.4276  -37.3749   23.9421 N   0  0  0  0  0  0
  -24.7183  -31.0251   22.0865 N   0  0  0  0  0  0
  -23.4207  -28.8066   23.2972 O   0  0  0  0  0  0
  -28.3212  -26.1986   20.0992 O   0  0  0  0  0  0
  -26.5672  -34.8905   22.4653 O   0  0  0  0  0  0
  -23.5544  -32.1261   23.7070 O   0  0  0  0  0  0
  -26.7681  -22.7270   20.4029 C   0  0  0  0  0  0
  -28.5392  -18.6275   18.7053 C   0  0  0  0  0  0
  -29.7369  -17.6399   20.8281 C   0  0  0  0  0  0
  -29.2481  -21.8718   20.1397 C   0  0  0  0  0  0
  -28.3980  -24.7572   20.6918 C   0  0  0  0  0  0
  -28.1844  -23.2039   20.0377 C   0  0  2  0  0  0
  -29.4158  -19.0238   19.9021 C   0  0  2  0  0  0
  -29.6612  -16.1123   20.3921 N   0  0  0  0  0  0
  -28.8526  -20.3781   20.5378 N   0  3  0  0  0  0
  -31.4688  -12.7847   19.1526 H   0  0  0  0  0  0
  -30.4537  -11.6476   20.0089 H   0  0  0  0  0  0
  -29.8411  -11.7285   17.5645 H   0  0  0  0  0  0
  -29.5928  -13.4518   17.6677 H   0  0  0  0  0  0
  -27.9593  -11.2571   18.9798 H   0  0  0  0  0  0
  -27.3844  -12.4180   17.8104 H   0  0  0  0  0  0
  -27.5799  -14.2368   19.3852 H   0  0  0  0  0  0
  -28.7749  -12.3013   21.4345 H   0  0  0  0  0  0
  -28.3710  -13.9806   21.7274 H   0  0  0  0  0  0
  -25.2770   -9.5717   22.4738 H   0  0  0  0  0  0
  -24.0061   -7.4645   22.7457 H   0  0  0  0  0  0
  -21.0860   -8.8740   19.8936 H   0  0  0  0  0  0
  -22.3688  -10.9659   19.6174 H   0  0  0  0  0  0
  -21.1978   -7.6147   23.9728 H   0  0  0  0  0  0
  -21.1494   -6.0511   25.9074 H   0  0  0  0  0  0
  -22.0584   -2.7626   23.2839 H   0  0  0  0  0  0
  -22.4031  -11.9899   22.4914 H   0  0  0  0  0  0
  -21.1006  -13.1194   22.2598 H   0  0  0  0  0  0
  -24.6379  -15.8420   20.5008 H   0  0  0  0  0  0
  -26.2446  -15.6322   20.0346 H   0  0  0  0  0  0
  -26.7256  -32.5279   23.0970 H   0  0  0  0  0  0
  -25.0042  -33.9588   25.0304 H   0  0  0  0  0  0
  -22.7504  -31.2811   21.3615 H   0  0  0  0  0  0
  -23.3760  -35.9595   23.3237 H   0  0  0  0  0  0
  -24.3609  -36.8973   22.2071 H   0  0  0  0  0  0
  -23.7220  -37.6441   23.6722 H   0  0  0  0  0  0
  -26.1506  -31.4544   20.5962 H   0  0  0  0  0  0
  -26.8786  -30.7730   22.0178 H   0  0  0  0  0  0
  -28.1487  -28.8108   21.2114 H   0  0  0  0  0  0
  -25.9665  -25.8044   19.0356 H   0  0  0  0  0  0
  -23.9964  -27.2601   18.9941 H   0  0  0  0  0  0
  -23.8254  -30.5407   19.3870 H   0  0  0  0  0  0
  -22.7959  -29.2157   19.8393 H   0  0  0  0  0  0
  -25.1304  -36.1849   25.0804 H   0  0  0  0  0  0
  -21.0006  -28.3310   24.1328 H   0  0  0  0  0  0
  -20.5624  -26.2351   23.3623 H   0  0  0  0  0  0
  -21.6655  -26.7386   22.1213 H   0  0  0  0  0  0
  -19.6934  -25.6275   21.1245 H   0  0  0  0  0  0
  -19.6705  -27.3165   20.6704 H   0  0  0  0  0  0
  -17.4211  -26.6645   21.4004 H   0  0  0  0  0  0
  -18.0348  -26.0066   22.8996 H   0  0  0  0  0  0
  -19.7960  -30.7267   24.2240 H   0  0  0  0  0  0
  -17.5035  -31.6263   24.5155 H   0  0  0  0  0  0
  -15.5368  -30.2983   23.7659 H   0  0  0  0  0  0
  -15.8675  -28.0815   22.7081 H   0  0  0  0  0  0
  -24.5890  -30.7078   25.7715 H   0  0  0  0  0  0
  -24.8967  -32.2876   26.4851 H   0  0  0  0  0  0
  -25.8048  -30.8835   27.0157 H   0  0  0  0  0  0
  -26.2968  -29.6635   24.1293 H   0  0  0  0  0  0
  -27.4023  -29.7228   25.4802 H   0  0  0  0  0  0
  -27.8867  -30.4146   23.9520 H   0  0  0  0  0  0
  -27.2610  -33.3584   26.2060 H   0  0  0  0  0  0
  -28.3867  -32.6889   25.0329 H   0  0  0  0  0  0
  -28.0711  -31.8430   26.5400 H   0  0  0  0  0  0
  -28.2532  -38.0150   24.7576 H   0  0  0  0  0  0
  -28.1155  -36.2673   24.6154 H   0  0  0  0  0  0
  -27.2333  -37.1287   25.8858 H   0  0  0  0  0  0
  -20.9468  -29.8816   21.6806 H   0  0  0  0  0  0
  -26.0134  -38.2805   24.1468 H   0  0  0  0  0  0
  -26.4634  -21.8694   19.8011 H   0  0  0  0  0  0
  -26.0301  -23.5121   20.2349 H   0  0  0  0  0  0
  -26.7071  -22.4418   21.4547 H   0  0  0  0  0  0
  -28.9527  -17.7630   18.1858 H   0  0  0  0  0  0
  -28.4700  -19.4374   17.9775 H   0  0  0  0  0  0
  -27.5298  -18.3628   19.0193 H   0  0  0  0  0  0
  -29.0408  -17.6837   21.6656 H   0  0  0  0  0  0
  -30.7178  -17.7778   21.2833 H   0  0  0  0  0  0
  -30.0705  -22.1481   20.7974 H   0  0  0  0  0  0
  -29.7206  -21.7949   19.1598 H   0  0  0  0  0  0
  -29.4154  -24.7328   21.0791 H   0  0  0  0  0  0
  -27.8002  -24.7977   21.6033 H   0  0  0  0  0  0
  -28.1495  -23.4059   18.9672 H   0  0  0  0  0  0
  -30.3857  -19.3026   19.4878 H   0  0  0  0  0  0
  -28.7065  -15.8280   20.2398 H   0  0  0  0  0  0
  -27.8523  -20.3175   20.4455 H   0  0  0  0  0  0
  -29.0325  -20.3216   21.5277 H   0  0  0  0  0  0
  1 25  1  0  0  0
  1 30  2  0  0  0
  1 78  1  0  0  0
  2  3  1  0  0  0
  2 25  1  0  0  0
  2 80  1  0  0  0
  2 81  1  0  0  0
  3  4  1  0  0  0
  3 82  1  0  0  0
  3 83  1  0  0  0
  4  5  1  0  0  0
  4 84  1  0  0  0
  4 85  1  0  0  0
  5  6  1  0  0  0
  5 26  1  0  0  0
  5 86  1  0  0  0
  6 25  1  0  0  0
  6 87  1  0  0  0
  6 88  1  0  0  0
  7  8  2  0  0  0
  7 26  1  0  0  0
  7 29  1  0  0  0
  8  9  1  0  0  0
  8 22  1  0  0  0
  9 10  1  0  0  0
  9 27  2  0  0  0
 10 11  2  0  0  0
 10 15  1  0  0  0
 11 12  1  0  0  0
 11 89  1  0  0  0
 12 13  2  0  0  0
 12 90  1  0  0  0
 13 14  1  0  0  0
 13 31  1  0  0  0
 14 15  2  0  0  0
 14 91  1  0  0  0
 15 92  1  0  0  0
 16 17  2  0  0  0
 16 21  1  0  0  0
 16 31  1  0  0  0
 17 18  1  0  0  0
 17 93  1  0  0  0
 18 19  2  0  0  0
 18 94  1  0  0  0
 19 20  1  0  0  0
 19 24  1  0  0  0
 20 21  2  0  0  0
 20 95  1  0  0  0
 21 23  1  0  0  0
 22 28  1  0  0  0
 22 32  2  0  0  0
 26 27  1  0  0  0
 28 96  1  0  0  0
 28 97  1  0  0  0
 29 98  1  0  0  0
 29 99  1  0  0  0
 33 34  1  0  0  0
 33 66  1  0  0  0
 33 70  2  0  0  0
 34 36  1  0  0  0
 34 59  1  0  0  0
 34100  1  0  0  0
 35 44  2  0  0  0
 35 45  1  0  0  0
 35 68  1  0  0  0
 36 56  1  0  0  0
 36101  1  0  0  0
 37 39  1  0  0  0
 37 47  1  0  0  0
 37 66  1  0  0  0
 37102  1  0  0  0
 38 43  2  0  0  0
 38 46  1  0  0  0
 38 47  1  0  0  0
 39 64  1  0  0  0
 39 67  2  0  0  0
 40 52  1  0  0  0
 40 53  2  0  0  0
 40 58  1  0  0  0
 41103  1  0  0  0
 41104  1  0  0  0
 41105  1  0  0  0
 41 48  1  0  0  0
 42 43  1  0  0  0
 42 66  1  0  0  0
 42106  1  0  0  0
 42107  1  0  0  0
 43 44  1  0  0  0
 44108  1  0  0  0
 45 46  2  0  0  0
 45109  1  0  0  0
 46110  1  0  0  0
 47111  1  0  0  0
 47112  1  0  0  0
 48 56  1  0  0  0
 48 65  1  0  0  0
 48113  1  0  0  0
 49 50  1  0  0  0
 49 53  1  0  0  0
 49 64  1  0  0  0
 49114  1  0  0  0
 50 51  1  0  0  0
 50115  1  0  0  0
 50116  1  0  0  0
 51 52  1  0  0  0
 51117  1  0  0  0
 51118  1  0  0  0
 52119  1  0  0  0
 52120  1  0  0  0
 53 54  1  0  0  0
 54 55  2  0  0  0
 54121  1  0  0  0
 55 57  1  0  0  0
 55122  1  0  0  0
 56 69  2  0  0  0
 57 58  2  0  0  0
 57123  1  0  0  0
 58124  1  0  0  0
 59 60  1  0  0  0
 59 61  1  0  0  0
 59 62  1  0  0  0
 60125  1  0  0  0
 60126  1  0  0  0
 60127  1  0  0  0
 61128  1  0  0  0
 61129  1  0  0  0
 61130  1  0  0  0
 62131  1  0  0  0
 62132  1  0  0  0
 62133  1  0  0  0
 63 65  1  0  0  0
 63134  1  0  0  0
 63135  1  0  0  0
 63136  1  0  0  0
 64137  1  0  0  0
 65138  1  0  0  0
 68 75  1  0  0  0
 71139  1  0  0  0
 71140  1  0  0  0
 71141  1  0  0  0
 71 76  1  0  0  0
 72142  1  0  0  0
 72143  1  0  0  0
 72144  1  0  0  0
 72 77  1  0  0  0
 73 77  1  0  0  0
 73 78  1  0  0  0
 73145  1  0  0  0
 73146  1  0  0  0
 74 76  1  0  0  0
 74 79  1  0  0  0
 74147  1  0  0  0
 74148  1  0  0  0
 75 76  1  0  0  0
 75149  1  0  0  0
 75150  1  0  0  0
 76151  1  0  0  0
 77 79  1  0  0  0
 77152  1  0  0  0
 78153  1  0  0  0
 79154  1  0  0  0
 79155  1  0  0  0
M  CHG  1  79   1
M  ISO  4   1 100  68 101  75 101  78 100
M  END
> <chiral flag>
0

> <version>
0

> <s_m_source_file>
/data/baiqing/PycharmProjects/Reinvent-master-3.2/result/LINK_invent/BTK/process_docking_weight1_custom_sum_contain_oxygen_bond_distance_aromatic_linkinvent_7_9_3/rearranged_h_0095.sdf

> <i_m_source_file_index>
48

> <r_mmod_Potential_Energy-OPLS-2005>
431.036285400391

> <r_mmod_Stretch_Energy-OPLS-2005>
282.8173828125

> <r_mmod_Bend_Energy-OPLS-2005>
326.088043212891

> <r_mmod_Torsional_Energy-OPLS-2005>
302.300231933594

> <r_mmod_Improper_Torsional_Energy-OPLS-2005>
5.5903844833374

> <r_mmod_Van_der_Waal_Energy-OPLS-2005>
102.673126220703

> <r_mmod_Electrostatic_Energy-OPLS-2005>
-300.662109375

> <r_mmod_Solvation_Energy-OPLS-2005>
-488.129150390625

> <b_mmod_Minimization_Converged-OPLS-2005>
0

> <r_mmod_RMS_Derivative-OPLS-2005>
3.66290903091431

$$$$
48
                    3D
 Structure written by MMmdl.
174182  0  0  1  0            999 V2000
  -30.6707  -14.5473   20.5590 C   0  0  0  0  0  0
  -30.4302  -12.3552   19.4293 C   0  0  0  0  0  0
  -29.4969  -12.5067   18.2095 C   0  0  0  0  0  0
  -28.0203  -12.3535   18.6257 C   0  0  0  0  0  0
  -27.6552  -13.2116   19.8662 C   0  0  2  0  0  0
  -28.6991  -13.0314   20.9903 C   0  0  0  0  0  0
  -25.2566  -13.8165   20.5680 C   0  0  0  0  0  0
  -24.1830  -13.0434   20.9184 C   0  0  0  0  0  0
  -24.6394  -11.6905   20.8736 C   0  0  0  0  0  0
  -23.9064  -10.4290   21.0405 C   0  0  0  0  0  0
  -24.3616   -9.4207   21.9182 C   0  0  0  0  0  0
  -23.6293   -8.2241   22.0753 C   0  0  0  0  0  0
  -22.4274   -8.0279   21.3544 C   0  0  0  0  0  0
  -21.9910   -9.0252   20.4645 C   0  0  0  0  0  0
  -22.7237  -10.2132   20.3054 C   0  0  0  0  0  0
  -21.6852   -6.0735   22.5281 C   0  0  0  0  0  0
  -21.4012   -6.5640   23.8213 C   0  0  0  0  0  0
  -21.3658   -5.6792   24.9175 C   0  0  0  0  0  0
  -21.6045   -4.3056   24.7227 C   0  0  0  0  0  0
  -21.8819   -3.8148   23.4348 C   0  0  0  0  0  0
  -21.9193   -4.6963   22.3403 C   0  0  0  0  0  0
  -22.7855  -13.5230   21.1853 C   0  0  0  0  0  0
  -22.1662   -4.2151   21.0980 F   0  0  0  0  0  0
  -21.5629   -3.4539   25.7739 F   0  0  0  0  0  0
  -30.0193  -13.3564   20.4287 N   0  0  0  0  0  0
  -26.2994  -12.9340   20.3327 N   0  0  0  0  0  0
  -25.9319  -11.6497   20.5754 N   0  0  0  0  0  0
  -22.0501  -12.8214   22.0407 N   0  0  0  0  0  0
  -25.4281  -15.1884   20.4100 N   0  0  0  0  0  0
  -31.8139  -14.7240   20.1399 O   0  0  0  0  0  0
  -21.6638   -6.8878   21.4243 O   0  0  0  0  0  0
  -22.3541  -14.5541   20.6712 O   0  0  0  0  0  0
  -24.6194  -31.8636   23.2046 C   0  0  0  0  0  0
  -25.9067  -32.4798   23.8361 C   0  0  1  0  0  0
  -27.2335  -27.3840   20.1153 C   0  0  0  0  0  0
  -25.5907  -33.8594   24.2292 N   0  0  0  0  0  0
  -23.4102  -30.4846   21.5460 C   0  0  2  0  0  0
  -24.8588  -28.9397   20.1164 C   0  0  0  0  0  0
  -22.7436  -29.4636   22.4969 C   0  0  0  0  0  0
  -18.0275  -28.1375   22.8487 C   0  0  0  0  0  0
  -24.1492  -36.7304   23.2636 C   0  0  0  0  0  0
  -25.9429  -30.8156   21.3634 C   0  0  0  0  0  0
  -26.0221  -29.4447   20.7120 C   0  0  0  0  0  0
  -27.2165  -28.6777   20.6999 C   0  0  0  0  0  0
  -26.0525  -26.9012   19.5160 C   0  0  0  0  0  0
  -24.8709  -27.6693   19.5130 C   0  0  0  0  0  0
  -23.6225  -29.8125   20.1628 C   0  0  0  0  0  0
  -25.4114  -36.3094   24.0333 C   0  0  1  0  0  0
  -20.5869  -28.3670   23.1306 C   0  0  2  0  0  0
  -20.6770  -26.9402   22.5416 C   0  0  0  0  0  0
  -19.5749  -26.6381   21.5211 C   0  0  0  0  0  0
  -18.1921  -26.7919   22.1616 C   0  0  0  0  0  0
  -19.1525  -28.8838   23.2888 C   0  0  0  0  0  0
  -18.9457  -30.1442   23.8904 C   0  0  0  0  0  0
  -17.6460  -30.6585   24.0561 C   0  0  0  0  0  0
  -25.9045  -34.9464   23.5109 C   0  0  0  0  0  0
  -16.5349  -29.9086   23.6328 C   0  0  0  0  0  0
  -16.7263  -28.6501   23.0349 C   0  0  0  0  0  0
  -26.4478  -31.6591   25.0708 C   0  0  0  0  0  0
  -25.3734  -31.3715   26.1452 C   0  0  0  0  0  0
  -27.0311  -30.3028   24.6108 C   0  0  0  0  0  0
  -27.6040  -32.4320   25.7478 C   0  0  0  0  0  0
  -27.5582  -37.1802   24.8460 C   0  0  0  0  0  0
  -21.4158  -29.3030   22.3710 N   0  0  0  0  0  0
  -26.4292  -37.3787   23.9410 N   0  0  0  0  0  0
  -24.6758  -31.0700   22.0962 N   0  0  0  0  0  0
  -23.4187  -28.8187   23.3034 O   0  0  0  0  0  0
  -28.3771  -26.6008   20.1013 O   0  0  0  0  0  0
  -26.5614  -34.8922   22.4677 O   0  0  0  0  0  0
  -23.5376  -32.1409   23.7415 O   0  0  0  0  0  0
  -27.8730  -21.0733   19.0831 C   0  0  0  0  0  0
  -27.8640  -19.8190   18.4474 C   0  0  0  0  0  0
  -29.6375  -20.2805   20.5521 C   0  0  0  0  0  0
  -28.7656  -21.3367   20.1395 C   0  0  0  0  0  0
  -28.7614  -18.7962   18.8240 C   0  0  0  0  0  0
  -29.6948  -19.0139   19.8745 C   0  0  0  0  0  0
  -28.6912  -17.4776   18.0682 C   0  0  0  0  0  0
  -34.3668  -18.2675   21.4954 C   0  0  0  0  0  0
  -33.9117  -17.0598   19.3053 C   0  0  0  0  0  0
  -32.4749  -19.5658   19.2985 C   0  0  0  0  0  0
  -28.7251  -22.7146   20.8563 C   0  0  0  0  0  0
  -28.5778  -24.0222   19.9846 C   0  0  0  0  0  0
  -30.3760  -16.9654   21.3846 C   0  0  0  0  0  0
  -28.3106  -25.3310   20.8109 C   0  0  0  0  0  0
  -30.7893  -17.9311   20.1992 C   0  0  2  0  0  0
  -33.2888  -17.6268   20.6011 C   0  0  0  0  0  0
  -29.9385  -15.5807   21.0421 N   0  0  0  0  0  0
  -32.1455  -18.5751   20.3684 N   0  3  1  0  0  0
  -31.4718  -12.4742   19.1250 H   0  0  0  0  0  0
  -30.3546  -11.3513   19.8499 H   0  0  0  0  0  0
  -29.7482  -11.7661   17.4490 H   0  0  0  0  0  0
  -29.6487  -13.4836   17.7473 H   0  0  0  0  0  0
  -27.8480  -11.2989   18.8436 H   0  0  0  0  0  0
  -27.3649  -12.6006   17.7900 H   0  0  0  0  0  0
  -27.6854  -14.2528   19.5449 H   0  0  0  0  0  0
  -28.6945  -12.0027   21.3530 H   0  0  0  0  0  0
  -28.4531  -13.6492   21.8551 H   0  0  0  0  0  0
  -25.2763   -9.5680   22.4754 H   0  0  0  0  0  0
  -24.0004   -7.4631   22.7472 H   0  0  0  0  0  0
  -21.0841   -8.8772   19.8949 H   0  0  0  0  0  0
  -22.3700  -10.9670   19.6161 H   0  0  0  0  0  0
  -21.2004   -7.6148   23.9718 H   0  0  0  0  0  0
  -21.1479   -6.0521   25.9078 H   0  0  0  0  0  0
  -22.0600   -2.7612   23.2848 H   0  0  0  0  0  0
  -22.4117  -11.9865   22.4776 H   0  0  0  0  0  0
  -21.1122  -13.1236   22.2628 H   0  0  0  0  0  0
  -24.6594  -15.8406   20.5200 H   0  0  0  0  0  0
  -26.2755  -15.6309   20.0792 H   0  0  0  0  0  0
  -26.7137  -32.5508   23.1121 H   0  0  0  0  0  0
  -25.0057  -33.9741   25.0436 H   0  0  0  0  0  0
  -22.7008  -31.3023   21.4022 H   0  0  0  0  0  0
  -23.3751  -35.9641   23.3303 H   0  0  0  0  0  0
  -24.3581  -36.8924   22.2049 H   0  0  0  0  0  0
  -23.7251  -37.6510   23.6659 H   0  0  0  0  0  0
  -26.0601  -31.5799   20.5932 H   0  0  0  0  0  0
  -26.8280  -30.8697   21.9865 H   0  0  0  0  0  0
  -28.1164  -29.0639   21.1579 H   0  0  0  0  0  0
  -26.0482  -25.9245   19.0528 H   0  0  0  0  0  0
  -23.9771  -27.2737   19.0494 H   0  0  0  0  0  0
  -23.7331  -30.5855   19.4014 H   0  0  0  0  0  0
  -22.7454  -29.2340   19.8675 H   0  0  0  0  0  0
  -25.1291  -36.1949   25.0827 H   0  0  0  0  0  0
  -20.9946  -28.3247   24.1433 H   0  0  0  0  0  0
  -20.5673  -26.2279   23.3609 H   0  0  0  0  0  0
  -21.6640  -26.7452   22.1205 H   0  0  0  0  0  0
  -19.6917  -25.6295   21.1236 H   0  0  0  0  0  0
  -19.6693  -27.3195   20.6745 H   0  0  0  0  0  0
  -17.4193  -26.6666   21.4013 H   0  0  0  0  0  0
  -18.0321  -26.0057   22.9010 H   0  0  0  0  0  0
  -19.7937  -30.7243   24.2284 H   0  0  0  0  0  0
  -17.5021  -31.6270   24.5156 H   0  0  0  0  0  0
  -15.5348  -30.2991   23.7656 H   0  0  0  0  0  0
  -15.8661  -28.0828   22.7064 H   0  0  0  0  0  0
  -24.5907  -30.7057   25.7795 H   0  0  0  0  0  0
  -24.8917  -32.2871   26.4891 H   0  0  0  0  0  0
  -25.8071  -30.8894   27.0221 H   0  0  0  0  0  0
  -26.2860  -29.6785   24.1158 H   0  0  0  0  0  0
  -27.4066  -29.7275   25.4580 H   0  0  0  0  0  0
  -27.8702  -30.4335   23.9271 H   0  0  0  0  0  0
  -27.2654  -33.3623   26.2058 H   0  0  0  0  0  0
  -28.3852  -32.6883   25.0304 H   0  0  0  0  0  0
  -28.0708  -31.8443   26.5396 H   0  0  0  0  0  0
  -28.2591  -38.0107   24.7524 H   0  0  0  0  0  0
  -28.1086  -36.2639   24.6267 H   0  0  0  0  0  0
  -27.2298  -37.1433   25.8861 H   0  0  0  0  0  0
  -20.9329  -29.8759   21.6934 H   0  0  0  0  0  0
  -26.0179  -38.2863   24.1415 H   0  0  0  0  0  0
  -27.1689  -21.8252   18.7571 H   0  0  0  0  0  0
  -27.1565  -19.6505   17.6468 H   0  0  0  0  0  0
  -30.3117  -20.4728   21.3751 H   0  0  0  0  0  0
  -27.8114  -17.4346   17.4254 H   0  0  0  0  0  0
  -28.6257  -16.6337   18.7549 H   0  0  0  0  0  0
  -29.5671  -17.3473   17.4321 H   0  0  0  0  0  0
  -35.1414  -17.5404   21.7415 H   0  0  0  0  0  0
  -33.9480  -18.6178   22.4393 H   0  0  0  0  0  0
  -34.8625  -19.1113   21.0161 H   0  0  0  0  0  0
  -34.6179  -16.2633   19.5417 H   0  0  0  0  0  0
  -34.4635  -17.8115   18.7407 H   0  0  0  0  0  0
  -33.1571  -16.6287   18.6474 H   0  0  0  0  0  0
  -31.8611  -20.4628   19.3321 H   0  0  0  0  0  0
  -32.3558  -19.1278   18.3069 H   0  0  0  0  0  0
  -33.5010  -19.9217   19.3799 H   0  0  0  0  0  0
  -29.6191  -22.8085   21.4742 H   0  0  0  0  0  0
  -27.8910  -22.6716   21.5575 H   0  0  0  0  0  0
  -27.7589  -23.9103   19.2760 H   0  0  0  0  0  0
  -29.4795  -24.1482   19.3852 H   0  0  0  0  0  0
  -29.5387  -17.4260   21.9101 H   0  0  0  0  0  0
  -31.1348  -16.9001   22.1621 H   0  0  0  0  0  0
  -29.0627  -25.3929   21.5985 H   0  0  0  0  0  0
  -27.3599  -25.2295   21.3380 H   0  0  0  0  0  0
  -30.9193  -17.3099   19.3150 H   0  0  0  0  0  0
  -32.9514  -16.7629   21.1646 H   0  0  0  0  0  0
  -28.9921  -15.3456   21.3016 H   0  0  0  0  0  0
  -32.0721  -19.1074   21.2218 H   0  0  0  0  0  0
  1 25  1  0  0  0
  1 30  2  0  0  0
  1 87  1  0  0  0
  2  3  1  0  0  0
  2 25  1  0  0  0
  2 89  1  0  0  0
  2 90  1  0  0  0
  3  4  1  0  0  0
  3 91  1  0  0  0
  3 92  1  0  0  0
  4  5  1  0  0  0
  4 93  1  0  0  0
  4 94  1  0  0  0
  5  6  1  0  0  0
  5 26  1  0  0  0
  5 95  1  0  0  0
  6 25  1  0  0  0
  6 96  1  0  0  0
  6 97  1  0  0  0
  7  8  2  0  0  0
  7 26  1  0  0  0
  7 29  1  0  0  0
  8  9  1  0  0  0
  8 22  1  0  0  0
  9 10  1  0  0  0
  9 27  2  0  0  0
 10 11  2  0  0  0
 10 15  1  0  0  0
 11 12  1  0  0  0
 11 98  1  0  0  0
 12 13  2  0  0  0
 12 99  1  0  0  0
 13 14  1  0  0  0
 13 31  1  0  0  0
 14 15  2  0  0  0
 14100  1  0  0  0
 15101  1  0  0  0
 16 17  2  0  0  0
 16 21  1  0  0  0
 16 31  1  0  0  0
 17 18  1  0  0  0
 17102  1  0  0  0
 18 19  2  0  0  0
 18103  1  0  0  0
 19 20  1  0  0  0
 19 24  1  0  0  0
 20 21  2  0  0  0
 20104  1  0  0  0
 21 23  1  0  0  0
 22 28  1  0  0  0
 22 32  2  0  0  0
 26 27  1  0  0  0
 28105  1  0  0  0
 28106  1  0  0  0
 29107  1  0  0  0
 29108  1  0  0  0
 33 34  1  0  0  0
 33 66  1  0  0  0
 33 70  2  0  0  0
 34 36  1  0  0  0
 34 59  1  0  0  0
 34109  1  0  0  0
 35 44  2  0  0  0
 35 45  1  0  0  0
 35 68  1  0  0  0
 36 56  1  0  0  0
 36110  1  0  0  0
 37 39  1  0  0  0
 37 47  1  0  0  0
 37 66  1  0  0  0
 37111  1  0  0  0
 38 43  2  0  0  0
 38 46  1  0  0  0
 38 47  1  0  0  0
 39 64  1  0  0  0
 39 67  2  0  0  0
 40 52  1  0  0  0
 40 53  2  0  0  0
 40 58  1  0  0  0
 41112  1  0  0  0
 41113  1  0  0  0
 41114  1  0  0  0
 41 48  1  0  0  0
 42 43  1  0  0  0
 42 66  1  0  0  0
 42115  1  0  0  0
 42116  1  0  0  0
 43 44  1  0  0  0
 44117  1  0  0  0
 45 46  2  0  0  0
 45118  1  0  0  0
 46119  1  0  0  0
 47120  1  0  0  0
 47121  1  0  0  0
 48 56  1  0  0  0
 48 65  1  0  0  0
 48122  1  0  0  0
 49 50  1  0  0  0
 49 53  1  0  0  0
 49 64  1  0  0  0
 49123  1  0  0  0
 50 51  1  0  0  0
 50124  1  0  0  0
 50125  1  0  0  0
 51 52  1  0  0  0
 51126  1  0  0  0
 51127  1  0  0  0
 52128  1  0  0  0
 52129  1  0  0  0
 53 54  1  0  0  0
 54 55  2  0  0  0
 54130  1  0  0  0
 55 57  1  0  0  0
 55131  1  0  0  0
 56 69  2  0  0  0
 57 58  2  0  0  0
 57132  1  0  0  0
 58133  1  0  0  0
 59 60  1  0  0  0
 59 61  1  0  0  0
 59 62  1  0  0  0
 60134  1  0  0  0
 60135  1  0  0  0
 60136  1  0  0  0
 61137  1  0  0  0
 61138  1  0  0  0
 61139  1  0  0  0
 62140  1  0  0  0
 62141  1  0  0  0
 62142  1  0  0  0
 63 65  1  0  0  0
 63143  1  0  0  0
 63144  1  0  0  0
 63145  1  0  0  0
 64146  1  0  0  0
 65147  1  0  0  0
 68 84  1  0  0  0
 71 72  2  0  0  0
 71 74  1  0  0  0
 71148  1  0  0  0
 72 75  1  0  0  0
 72149  1  0  0  0
 73 74  2  0  0  0
 73 76  1  0  0  0
 73150  1  0  0  0
 74 81  1  0  0  0
 75 76  2  0  0  0
 75 77  1  0  0  0
 76 85  1  0  0  0
 77151  1  0  0  0
 77152  1  0  0  0
 77153  1  0  0  0
 78154  1  0  0  0
 78155  1  0  0  0
 78156  1  0  0  0
 78 86  1  0  0  0
 79 86  1  0  0  0
 79157  1  0  0  0
 79158  1  0  0  0
 79159  1  0  0  0
 80160  1  0  0  0
 80161  1  0  0  0
 80162  1  0  0  0
 80 88  1  0  0  0
 81 82  1  0  0  0
 81163  1  0  0  0
 81164  1  0  0  0
 82 84  1  0  0  0
 82165  1  0  0  0
 82166  1  0  0  0
 83 87  1  0  0  0
 83167  1  0  0  0
 83168  1  0  0  0
 83 85  1  0  0  0
 84169  1  0  0  0
 84170  1  0  0  0
 85 88  1  0  0  0
 85171  1  0  0  0
 86 88  1  0  0  0
 86172  1  0  0  0
 87173  1  0  0  0
 88174  1  0  0  0
M  CHG  1  88   1
M  ISO  4   1 100  68 101  84 101  87 100
M  END
> <chiral flag>
0

> <version>
0

> <s_m_source_file>
/data/baiqing/PycharmProjects/Reinvent-master-3.2/result/LINK_invent/BTK/process_docking_weight1_custom_sum_contain_oxygen_bond_distance_aromatic_linkinvent_7_9_3/rearranged_h_0095.sdf

> <i_m_source_file_index>
49

> <r_mmod_Potential_Energy-OPLS-2005>
-109.492835998535

> <r_mmod_Stretch_Energy-OPLS-2005>
65.4454803466797

> <r_mmod_Bend_Energy-OPLS-2005>
122.589859008789

> <r_mmod_Torsional_Energy-OPLS-2005>
270.352081298828

> <r_mmod_Improper_Torsional_Energy-OPLS-2005>
3.55891537666321

> <r_mmod_Van_der_Waal_Energy-OPLS-2005>
148.348831176758

> <r_mmod_Electrostatic_Energy-OPLS-2005>
-347.528747558594

> <r_mmod_Solvation_Energy-OPLS-2005>
-395.880737304688

> <b_mmod_Minimization_Converged-OPLS-2005>
0

> <r_mmod_RMS_Derivative-OPLS-2005>
0.871253430843353

$$$$
49
                    3D
 Structure written by MMmdl.
173181  0  0  1  0            999 V2000
  -30.6550  -14.5425   20.5407 C   0  0  0  0  0  0
  -30.4297  -12.3413   19.4434 C   0  0  0  0  0  0
  -29.5056  -12.5039   18.2188 C   0  0  0  0  0  0
  -28.0246  -12.3481   18.6217 C   0  0  0  0  0  0
  -27.6484  -13.2074   19.8567 C   0  0  2  0  0  0
  -28.6866  -13.0311   20.9888 C   0  0  0  0  0  0
  -25.2535  -13.8175   20.5685 C   0  0  0  0  0  0
  -24.1822  -13.0460   20.9319 C   0  0  0  0  0  0
  -24.6350  -11.6931   20.8775 C   0  0  0  0  0  0
  -23.9007  -10.4312   21.0406 C   0  0  0  0  0  0
  -24.3573   -9.4237   21.9171 C   0  0  0  0  0  0
  -23.6264   -8.2253   22.0740 C   0  0  0  0  0  0
  -22.4248   -8.0302   21.3540 C   0  0  0  0  0  0
  -21.9872   -9.0255   20.4636 C   0  0  0  0  0  0
  -22.7193  -10.2145   20.3038 C   0  0  0  0  0  0
  -21.6868   -6.0728   22.5285 C   0  0  0  0  0  0
  -21.4028   -6.5615   23.8221 C   0  0  0  0  0  0
  -21.3663   -5.6778   24.9177 C   0  0  0  0  0  0
  -21.6040   -4.3039   24.7224 C   0  0  0  0  0  0
  -21.8821   -3.8144   23.4347 C   0  0  0  0  0  0
  -21.9195   -4.6950   22.3411 C   0  0  0  0  0  0
  -22.7838  -13.5290   21.1916 C   0  0  0  0  0  0
  -22.1653   -4.2146   21.0984 F   0  0  0  0  0  0
  -21.5610   -3.4522   25.7729 F   0  0  0  0  0  0
  -30.0165  -13.3426   20.4416 N   0  0  0  0  0  0
  -26.2911  -12.9310   20.3217 N   0  0  0  0  0  0
  -25.9256  -11.6487   20.5698 N   0  0  0  0  0  0
  -22.0371  -12.8291   22.0411 N   0  0  0  0  0  0
  -25.4302  -15.1870   20.3966 N   0  0  0  0  0  0
  -31.8049  -14.7177   20.1307 O   0  0  0  0  0  0
  -21.6637   -6.8880   21.4248 O   0  0  0  0  0  0
  -22.3595  -14.5604   20.6753 O   0  0  0  0  0  0
  -24.6125  -31.8642   23.2029 C   0  0  0  0  0  0
  -25.9037  -32.4784   23.8317 C   0  0  1  0  0  0
  -27.2617  -27.4210   20.0863 C   0  0  0  0  0  0
  -25.5878  -33.8580   24.2241 N   0  0  0  0  0  0
  -23.3996  -30.4882   21.5423 C   0  0  2  0  0  0
  -24.8516  -28.9402   20.1158 C   0  0  0  0  0  0
  -22.7342  -29.4697   22.4941 C   0  0  0  0  0  0
  -18.0272  -28.1392   22.8489 C   0  0  0  0  0  0
  -24.1485  -36.7299   23.2652 C   0  0  0  0  0  0
  -25.9294  -30.8287   21.3541 C   0  0  0  0  0  0
  -26.0123  -29.4607   20.7013 C   0  0  0  0  0  0
  -27.2107  -28.7086   20.6830 C   0  0  0  0  0  0
  -26.0707  -26.9046   19.5236 C   0  0  0  0  0  0
  -24.8783  -27.6593   19.5337 C   0  0  0  0  0  0
  -23.6070  -29.8043   20.1624 C   0  0  0  0  0  0
  -25.4105  -36.3074   24.0328 C   0  0  1  0  0  0
  -20.5851  -28.3703   23.1293 C   0  0  2  0  0  0
  -20.6753  -26.9426   22.5417 C   0  0  0  0  0  0
  -19.5740  -26.6391   21.5214 C   0  0  0  0  0  0
  -18.1929  -26.7929   22.1630 C   0  0  0  0  0  0
  -19.1518  -28.8852   23.2906 C   0  0  0  0  0  0
  -18.9460  -30.1465   23.8909 C   0  0  0  0  0  0
  -17.6468  -30.6601   24.0584 C   0  0  0  0  0  0
  -25.9044  -34.9455   23.5088 C   0  0  0  0  0  0
  -16.5357  -29.9112   23.6327 C   0  0  0  0  0  0
  -16.7264  -28.6529   23.0336 C   0  0  0  0  0  0
  -26.4451  -31.6575   25.0649 C   0  0  0  0  0  0
  -25.3693  -31.3745   26.1375 C   0  0  0  0  0  0
  -27.0271  -30.2994   24.6079 C   0  0  0  0  0  0
  -27.5997  -32.4311   25.7436 C   0  0  0  0  0  0
  -27.5558  -37.1796   24.8456 C   0  0  0  0  0  0
  -21.4082  -29.3081   22.3671 N   0  0  0  0  0  0
  -26.4262  -37.3771   23.9411 N   0  0  0  0  0  0
  -24.6669  -31.0719   22.0940 N   0  0  0  0  0  0
  -23.4102  -28.8250   23.3000 O   0  0  0  0  0  0
  -28.4761  -26.7445   20.1138 O   0  0  0  0  0  0
  -26.5635  -34.8926   22.4670 O   0  0  0  0  0  0
  -23.5329  -32.1425   23.7415 O   0  0  0  0  0  0
  -29.5542  -20.7198   20.5286 C   0  0  0  0  0  0
  -29.5215  -21.8067   19.6164 C   0  0  0  0  0  0
  -29.1175  -21.5336   18.2757 C   0  0  0  0  0  0
  -29.2095  -19.4192   20.0951 C   0  0  0  0  0  0
  -28.6870  -20.2080   17.9368 C   0  0  0  0  0  0
  -29.2342  -22.6455   17.2354 C   0  0  0  0  0  0
  -29.3764  -18.7619   15.9891 C   0  0  0  0  0  0
  -27.9156  -20.6739   15.4284 C   0  0  0  0  0  0
  -26.9670  -18.8115   16.6614 C   0  0  0  0  0  0
  -30.0319  -23.1986   20.0685 C   0  0  0  0  0  0
  -28.9770  -24.2961   20.4520 C   0  0  0  0  0  0
  -30.1680  -17.0101   20.5220 C   0  0  0  0  0  0
  -28.7267  -25.4788   19.4523 C   0  0  0  0  0  0
  -29.1908  -18.1609   20.9973 C   0  0  2  0  0  0
  -28.2560  -19.6555   16.5370 C   0  0  0  0  0  0
  -28.7378  -19.2112   18.8507 N   0  0  0  0  0  0
  -29.8742  -15.5927   20.9006 N   0  0  0  0  0  0
  -27.7906  -17.7314   21.0252 N   0  3  0  0  0  0
  -31.4719  -12.4519   19.1410 H   0  0  0  0  0  0
  -30.3472  -11.3366   19.8620 H   0  0  0  0  0  0
  -29.7679  -11.7688   17.4566 H   0  0  0  0  0  0
  -29.6631  -13.4867   17.7701 H   0  0  0  0  0  0
  -27.8463  -11.2950   18.8428 H   0  0  0  0  0  0
  -27.3788  -12.6003   17.7815 H   0  0  0  0  0  0
  -27.6691  -14.2429   19.5204 H   0  0  0  0  0  0
  -28.6703  -12.0068   21.3640 H   0  0  0  0  0  0
  -28.4389  -13.6672   21.8382 H   0  0  0  0  0  0
  -25.2664   -9.5782   22.4792 H   0  0  0  0  0  0
  -24.0011   -7.4657   22.7444 H   0  0  0  0  0  0
  -21.0833   -8.8770   19.8922 H   0  0  0  0  0  0
  -22.3626  -10.9688   19.6188 H   0  0  0  0  0  0
  -21.2027   -7.6126   23.9733 H   0  0  0  0  0  0
  -21.1485   -6.0486   25.9073 H   0  0  0  0  0  0
  -22.0604   -2.7604   23.2848 H   0  0  0  0  0  0
  -22.3842  -11.9975   22.4968 H   0  0  0  0  0  0
  -21.0986  -13.1432   22.2450 H   0  0  0  0  0  0
  -24.5697  -15.7282   20.3899 H   0  0  0  0  0  0
  -26.0298  -15.4472   19.6258 H   0  0  0  0  0  0
  -26.7095  -32.5474   23.1065 H   0  0  0  0  0  0
  -24.9885  -33.9723   25.0286 H   0  0  0  0  0  0
  -22.6955  -31.3104   21.3956 H   0  0  0  0  0  0
  -23.3719  -35.9653   23.3308 H   0  0  0  0  0  0
  -24.3599  -36.8918   22.2066 H   0  0  0  0  0  0
  -23.7246  -37.6514   23.6671 H   0  0  0  0  0  0
  -26.0347  -31.6000   20.5902 H   0  0  0  0  0  0
  -26.8192  -30.8851   21.9697 H   0  0  0  0  0  0
  -28.1061  -29.1120   21.1361 H   0  0  0  0  0  0
  -26.0282  -25.9131   19.0979 H   0  0  0  0  0  0
  -23.9788  -27.2356   19.1092 H   0  0  0  0  0  0
  -23.6979  -30.5720   19.3909 H   0  0  0  0  0  0
  -22.7290  -29.2167   19.8809 H   0  0  0  0  0  0
  -25.1288  -36.1927   25.0815 H   0  0  0  0  0  0
  -20.9998  -28.3321   24.1393 H   0  0  0  0  0  0
  -20.5634  -26.2339   23.3633 H   0  0  0  0  0  0
  -21.6639  -26.7449   22.1252 H   0  0  0  0  0  0
  -19.6914  -25.6302   21.1263 H   0  0  0  0  0  0
  -19.6685  -27.3184   20.6738 H   0  0  0  0  0  0
  -17.4190  -26.6662   21.4051 H   0  0  0  0  0  0
  -18.0359  -26.0079   22.9042 H   0  0  0  0  0  0
  -19.7953  -30.7278   24.2259 H   0  0  0  0  0  0
  -17.5043  -31.6279   24.5189 H   0  0  0  0  0  0
  -15.5364  -30.3032   23.7652 H   0  0  0  0  0  0
  -15.8664  -28.0882   22.7002 H   0  0  0  0  0  0
  -24.5824  -30.7150   25.7694 H   0  0  0  0  0  0
  -24.8937  -32.2942   26.4798 H   0  0  0  0  0  0
  -25.7998  -30.8891   27.0138 H   0  0  0  0  0  0
  -26.2832  -29.6771   24.1080 H   0  0  0  0  0  0
  -27.3938  -29.7228   25.4587 H   0  0  0  0  0  0
  -27.8712  -30.4256   23.9288 H   0  0  0  0  0  0
  -27.2566  -33.3581   26.2055 H   0  0  0  0  0  0
  -28.3801  -32.6935   25.0276 H   0  0  0  0  0  0
  -28.0672  -31.8409   26.5331 H   0  0  0  0  0  0
  -28.2577  -38.0099   24.7493 H   0  0  0  0  0  0
  -28.1051  -36.2618   24.6279 H   0  0  0  0  0  0
  -27.2283  -37.1446   25.8867 H   0  0  0  0  0  0
  -20.9195  -29.8804   21.6923 H   0  0  0  0  0  0
  -26.0136  -38.2836   24.1443 H   0  0  0  0  0  0
  -29.8788  -20.8768   21.5504 H   0  0  0  0  0  0
  -28.2833  -22.8275   16.7433 H   0  0  0  0  0  0
  -29.9954  -22.3840   16.4987 H   0  0  0  0  0  0
  -29.5289  -23.6171   17.6177 H   0  0  0  0  0  0
  -30.3150  -19.3134   15.9329 H   0  0  0  0  0  0
  -29.1299  -18.4010   14.9918 H   0  0  0  0  0  0
  -29.5412  -17.8906   16.6209 H   0  0  0  0  0  0
  -28.7678  -21.2686   15.1159 H   0  0  0  0  0  0
  -27.0933  -21.3213   15.7267 H   0  0  0  0  0  0
  -27.5813  -20.1739   14.5180 H   0  0  0  0  0  0
  -27.0655  -17.9897   17.3680 H   0  0  0  0  0  0
  -26.6904  -18.3697   15.7028 H   0  0  0  0  0  0
  -26.1300  -19.4272   16.9875 H   0  0  0  0  0  0
  -30.7608  -23.5888   19.3581 H   0  0  0  0  0  0
  -30.6427  -23.0265   20.9564 H   0  0  0  0  0  0
  -29.3805  -24.7530   21.3585 H   0  0  0  0  0  0
  -28.0373  -23.8361   20.7637 H   0  0  0  0  0  0
  -31.1856  -17.2654   20.8235 H   0  0  0  0  0  0
  -30.1750  -17.0213   19.4327 H   0  0  0  0  0  0
  -27.9881  -25.2100   18.6986 H   0  0  0  0  0  0
  -29.6403  -25.6554   18.8800 H   0  0  0  0  0  0
  -29.4731  -18.4546   22.0127 H   0  0  0  0  0  0
  -28.9587  -15.3414   21.2353 H   0  0  0  0  0  0
  -27.6369  -16.8701   21.5100 H   0  0  0  0  0  0
  -27.5068  -17.6709   20.0616 H   0  0  0  0  0  0
  -27.2432  -18.4560   21.4494 H   0  0  0  0  0  0
  1 25  1  0  0  0
  1 30  2  0  0  0
  1 87  1  0  0  0
  2  3  1  0  0  0
  2 25  1  0  0  0
  2 89  1  0  0  0
  2 90  1  0  0  0
  3  4  1  0  0  0
  3 91  1  0  0  0
  3 92  1  0  0  0
  4  5  1  0  0  0
  4 93  1  0  0  0
  4 94  1  0  0  0
  5  6  1  0  0  0
  5 26  1  0  0  0
  5 95  1  0  0  0
  6 25  1  0  0  0
  6 96  1  0  0  0
  6 97  1  0  0  0
  7  8  2  0  0  0
  7 26  1  0  0  0
  7 29  1  0  0  0
  8  9  1  0  0  0
  8 22  1  0  0  0
  9 10  1  0  0  0
  9 27  2  0  0  0
 10 11  2  0  0  0
 10 15  1  0  0  0
 11 12  1  0  0  0
 11 98  1  0  0  0
 12 13  2  0  0  0
 12 99  1  0  0  0
 13 14  1  0  0  0
 13 31  1  0  0  0
 14 15  2  0  0  0
 14100  1  0  0  0
 15101  1  0  0  0
 16 17  2  0  0  0
 16 21  1  0  0  0
 16 31  1  0  0  0
 17 18  1  0  0  0
 17102  1  0  0  0
 18 19  2  0  0  0
 18103  1  0  0  0
 19 20  1  0  0  0
 19 24  1  0  0  0
 20 21  2  0  0  0
 20104  1  0  0  0
 21 23  1  0  0  0
 22 28  1  0  0  0
 22 32  2  0  0  0
 26 27  1  0  0  0
 28105  1  0  0  0
 28106  1  0  0  0
 29107  1  0  0  0
 29108  1  0  0  0
 33 34  1  0  0  0
 33 66  1  0  0  0
 33 70  2  0  0  0
 34 36  1  0  0  0
 34 59  1  0  0  0
 34109  1  0  0  0
 35 44  2  0  0  0
 35 45  1  0  0  0
 35 68  1  0  0  0
 36 56  1  0  0  0
 36110  1  0  0  0
 37 39  1  0  0  0
 37 47  1  0  0  0
 37 66  1  0  0  0
 37111  1  0  0  0
 38 43  2  0  0  0
 38 46  1  0  0  0
 38 47  1  0  0  0
 39 64  1  0  0  0
 39 67  2  0  0  0
 40 52  1  0  0  0
 40 53  2  0  0  0
 40 58  1  0  0  0
 41112  1  0  0  0
 41113  1  0  0  0
 41114  1  0  0  0
 41 48  1  0  0  0
 42 43  1  0  0  0
 42 66  1  0  0  0
 42115  1  0  0  0
 42116  1  0  0  0
 43 44  1  0  0  0
 44117  1  0  0  0
 45 46  2  0  0  0
 45118  1  0  0  0
 46119  1  0  0  0
 47120  1  0  0  0
 47121  1  0  0  0
 48 56  1  0  0  0
 48 65  1  0  0  0
 48122  1  0  0  0
 49 50  1  0  0  0
 49 53  1  0  0  0
 49 64  1  0  0  0
 49123  1  0  0  0
 50 51  1  0  0  0
 50124  1  0  0  0
 50125  1  0  0  0
 51 52  1  0  0  0
 51126  1  0  0  0
 51127  1  0  0  0
 52128  1  0  0  0
 52129  1  0  0  0
 53 54  1  0  0  0
 54 55  2  0  0  0
 54130  1  0  0  0
 55 57  1  0  0  0
 55131  1  0  0  0
 56 69  2  0  0  0
 57 58  2  0  0  0
 57132  1  0  0  0
 58133  1  0  0  0
 59 60  1  0  0  0
 59 61  1  0  0  0
 59 62  1  0  0  0
 60134  1  0  0  0
 60135  1  0  0  0
 60136  1  0  0  0
 61137  1  0  0  0
 61138  1  0  0  0
 61139  1  0  0  0
 62140  1  0  0  0
 62141  1  0  0  0
 62142  1  0  0  0
 63 65  1  0  0  0
 63143  1  0  0  0
 63144  1  0  0  0
 63145  1  0  0  0
 64146  1  0  0  0
 65147  1  0  0  0
 68 83  1  0  0  0
 71 72  2  0  0  0
 71 74  1  0  0  0
 71148  1  0  0  0
 72 73  1  0  0  0
 72 80  1  0  0  0
 73 75  2  0  0  0
 73 76  1  0  0  0
 74 84  1  0  0  0
 74 86  2  0  0  0
 75 85  1  0  0  0
 75 86  1  0  0  0
 76149  1  0  0  0
 76150  1  0  0  0
 76151  1  0  0  0
 77152  1  0  0  0
 77153  1  0  0  0
 77154  1  0  0  0
 77 85  1  0  0  0
 78 85  1  0  0  0
 78155  1  0  0  0
 78156  1  0  0  0
 78157  1  0  0  0
 79 85  1  0  0  0
 79158  1  0  0  0
 79159  1  0  0  0
 79160  1  0  0  0
 80 81  1  0  0  0
 80161  1  0  0  0
 80162  1  0  0  0
 81 83  1  0  0  0
 81163  1  0  0  0
 81164  1  0  0  0
 82 84  1  0  0  0
 82 87  1  0  0  0
 82165  1  0  0  0
 82166  1  0  0  0
 83167  1  0  0  0
 83168  1  0  0  0
 84 88  1  0  0  0
 84169  1  0  0  0
 87170  1  0  0  0
 88171  1  0  0  0
 88172  1  0  0  0
 88173  1  0  0  0
M  CHG  1  88   1
M  ISO  4   1 100  68 101  83 101  87 100
M  END
> <chiral flag>
0

> <version>
0

> <s_m_source_file>
/data/baiqing/PycharmProjects/Reinvent-master-3.2/result/LINK_invent/BTK/process_docking_weight1_custom_sum_contain_oxygen_bond_distance_aromatic_linkinvent_7_9_3/rearranged_h_0095.sdf

> <i_m_source_file_index>
50

> <r_mmod_Potential_Energy-OPLS-2005>
-560.491516113281

> <r_mmod_Stretch_Energy-OPLS-2005>
59.6786117553711

> <r_mmod_Bend_Energy-OPLS-2005>
158.932403564453

> <r_mmod_Torsional_Energy-OPLS-2005>
241.53466796875

> <r_mmod_Improper_Torsional_Energy-OPLS-2005>
11.8397769927979

> <r_mmod_Van_der_Waal_Energy-OPLS-2005>
171.131622314453

> <r_mmod_Electrostatic_Energy-OPLS-2005>
-740.603271484375

> <r_mmod_Solvation_Energy-OPLS-2005>
-484.042022705078

> <b_mmod_Minimization_Converged-OPLS-2005>
0

> <r_mmod_RMS_Derivative-OPLS-2005>
5.3122935295105

$$$$
50
                    3D
 Structure written by MMmdl.
169177  0  0  1  0            999 V2000
  -30.7168  -14.5681   20.6452 C   0  0  0  0  0  0
  -30.4221  -12.3842   19.4657 C   0  0  0  0  0  0
  -29.5067  -12.5167   18.2283 C   0  0  0  0  0  0
  -28.0273  -12.3456   18.6259 C   0  0  0  0  0  0
  -27.6519  -13.2141   19.8551 C   0  0  2  0  0  0
  -28.6829  -13.0295   20.9867 C   0  0  0  0  0  0
  -25.2552  -13.8166   20.5630 C   0  0  0  0  0  0
  -24.1808  -13.0419   20.9155 C   0  0  0  0  0  0
  -24.6369  -11.6901   20.8700 C   0  0  0  0  0  0
  -23.9049  -10.4272   21.0385 C   0  0  0  0  0  0
  -24.3604   -9.4197   21.9182 C   0  0  0  0  0  0
  -23.6267   -8.2229   22.0758 C   0  0  0  0  0  0
  -22.4259   -8.0268   21.3531 C   0  0  0  0  0  0
  -21.9885   -9.0242   20.4643 C   0  0  0  0  0  0
  -22.7219  -10.2115   20.3036 C   0  0  0  0  0  0
  -21.6846   -6.0737   22.5280 C   0  0  0  0  0  0
  -21.4007   -6.5644   23.8214 C   0  0  0  0  0  0
  -21.3648   -5.6793   24.9176 C   0  0  0  0  0  0
  -21.6049   -4.3058   24.7231 C   0  0  0  0  0  0
  -21.8811   -3.8152   23.4347 C   0  0  0  0  0  0
  -21.9181   -4.6962   22.3406 C   0  0  0  0  0  0
  -22.7845  -13.5212   21.1859 C   0  0  0  0  0  0
  -22.1654   -4.2152   21.0978 F   0  0  0  0  0  0
  -21.5629   -3.4542   25.7740 F   0  0  0  0  0  0
  -30.0137  -13.3946   20.4730 N   0  0  0  0  0  0
  -26.2955  -12.9341   20.3216 N   0  0  0  0  0  0
  -25.9289  -11.6506   20.5672 N   0  0  0  0  0  0
  -22.0489  -12.8178   22.0420 N   0  0  0  0  0  0
  -25.4320  -15.1872   20.4102 N   0  0  0  0  0  0
  -31.7817  -14.7149   20.0384 O   0  0  0  0  0  0
  -21.6620   -6.8871   21.4236 O   0  0  0  0  0  0
  -22.3513  -14.5523   20.6742 O   0  0  0  0  0  0
  -24.6198  -31.8647   23.2047 C   0  0  0  0  0  0
  -25.9074  -32.4798   23.8382 C   0  0  1  0  0  0
  -27.2254  -27.3639   20.1283 C   0  0  0  0  0  0
  -25.5907  -33.8596   24.2325 N   0  0  0  0  0  0
  -23.4109  -30.4874   21.5453 C   0  0  2  0  0  0
  -24.8571  -28.9389   20.1184 C   0  0  0  0  0  0
  -22.7441  -29.4660   22.4950 C   0  0  0  0  0  0
  -18.0299  -28.1361   22.8513 C   0  0  0  0  0  0
  -24.1490  -36.7289   23.2643 C   0  0  0  0  0  0
  -25.9454  -30.8083   21.3682 C   0  0  0  0  0  0
  -26.0215  -29.4366   20.7170 C   0  0  0  0  0  0
  -27.2089  -28.6579   20.7164 C   0  0  0  0  0  0
  -26.0462  -26.9008   19.5073 C   0  0  0  0  0  0
  -24.8661  -27.6725   19.5106 C   0  0  0  0  0  0
  -23.6220  -29.8139   20.1624 C   0  0  0  0  0  0
  -25.4115  -36.3093   24.0347 C   0  0  1  0  0  0
  -20.5893  -28.3673   23.1303 C   0  0  2  0  0  0
  -20.6776  -26.9403   22.5407 C   0  0  0  0  0  0
  -19.5741  -26.6379   21.5217 C   0  0  0  0  0  0
  -18.1933  -26.7910   22.1643 C   0  0  0  0  0  0
  -19.1545  -28.8832   23.2910 C   0  0  0  0  0  0
  -18.9468  -30.1441   23.8918 C   0  0  0  0  0  0
  -17.6462  -30.6574   24.0566 C   0  0  0  0  0  0
  -25.9043  -34.9457   23.5141 C   0  0  0  0  0  0
  -16.5360  -29.9070   23.6322 C   0  0  0  0  0  0
  -16.7286  -28.6476   23.0372 C   0  0  0  0  0  0
  -26.4473  -31.6568   25.0718 C   0  0  0  0  0  0
  -25.3695  -31.3626   26.1428 C   0  0  0  0  0  0
  -27.0369  -30.3042   24.6100 C   0  0  0  0  0  0
  -27.6030  -32.4289   25.7507 C   0  0  0  0  0  0
  -27.5582  -37.1797   24.8474 C   0  0  0  0  0  0
  -21.4161  -29.3041   22.3692 N   0  0  0  0  0  0
  -26.4299  -37.3779   23.9411 N   0  0  0  0  0  0
  -24.6771  -31.0696   22.0968 N   0  0  0  0  0  0
  -23.4189  -28.8211   23.3019 O   0  0  0  0  0  0
  -28.3636  -26.5660   20.1326 O   0  0  0  0  0  0
  -26.5609  -34.8915   22.4700 O   0  0  0  0  0  0
  -23.5372  -32.1429   23.7402 O   0  0  0  0  0  0
  -30.4554  -21.8903   20.0601 C   0  0  0  0  0  0
  -28.0835  -21.7397   20.8855 C   0  0  0  0  0  0
  -30.3039  -20.3325   20.0643 C   0  0  0  0  0  0
  -29.2904  -22.7029   20.7200 C   0  0  1  0  0  0
  -28.3980  -20.4088   21.6837 C   0  0  0  0  0  0
  -28.3309  -20.7399   23.1937 C   0  0  0  0  0  0
  -27.3037  -19.3760   21.3508 C   0  0  0  0  0  0
  -29.5060  -15.5105   22.8389 C   0  0  0  0  0  0
  -28.9984  -24.0793   19.9769 C   0  0  0  0  0  0
  -29.9600  -17.1868   20.8700 C   0  0  0  0  0  0
  -30.1268  -18.4492   21.8154 C   0  0  0  0  0  0
  -28.2543  -25.2381   20.7420 C   0  0  0  0  0  0
  -30.3255  -15.8018   21.5678 C   0  0  2  0  0  0
  -29.7626  -19.8533   21.3578 N   0  3  1  0  0  0
  -31.4679  -12.4743   19.1679 H   0  0  0  0  0  0
  -30.3399  -11.3865   19.8981 H   0  0  0  0  0  0
  -29.7775  -11.7711   17.4799 H   0  0  0  0  0  0
  -29.6599  -13.4911   17.7603 H   0  0  0  0  0  0
  -27.8626  -11.2909   18.8578 H   0  0  0  0  0  0
  -27.3751  -12.5656   17.7807 H   0  0  0  0  0  0
  -27.6858  -14.2555   19.5367 H   0  0  0  0  0  0
  -28.6826  -11.9868   21.3035 H   0  0  0  0  0  0
  -28.3626  -13.5733   21.8624 H   0  0  0  0  0  0
  -25.2748   -9.5675   22.4766 H   0  0  0  0  0  0
  -23.9974   -7.4610   22.7472 H   0  0  0  0  0  0
  -21.0820   -8.8753   19.8944 H   0  0  0  0  0  0
  -22.3677  -10.9649   19.6134 H   0  0  0  0  0  0
  -21.2001   -7.6154   23.9718 H   0  0  0  0  0  0
  -21.1487   -6.0530   25.9076 H   0  0  0  0  0  0
  -22.0602   -2.7614   23.2854 H   0  0  0  0  0  0
  -22.4075  -11.9793   22.4748 H   0  0  0  0  0  0
  -21.1120  -13.1214   22.2678 H   0  0  0  0  0  0
  -24.6780  -15.8553   20.5262 H   0  0  0  0  0  0
  -26.3001  -15.6134   20.1098 H   0  0  0  0  0  0
  -26.7136  -32.5489   23.1127 H   0  0  0  0  0  0
  -25.0058  -33.9751   25.0470 H   0  0  0  0  0  0
  -22.7035  -31.3060   21.4017 H   0  0  0  0  0  0
  -23.3757  -35.9611   23.3321 H   0  0  0  0  0  0
  -24.3587  -36.8883   22.2049 H   0  0  0  0  0  0
  -23.7224  -37.6496   23.6646 H   0  0  0  0  0  0
  -26.0693  -31.5712   20.5994 H   0  0  0  0  0  0
  -26.8285  -30.8600   21.9921 H   0  0  0  0  0  0
  -28.1025  -29.0346   21.1924 H   0  0  0  0  0  0
  -26.0321  -25.9332   19.0244 H   0  0  0  0  0  0
  -23.9683  -27.2827   19.0505 H   0  0  0  0  0  0
  -23.7345  -30.5856   19.4001 H   0  0  0  0  0  0
  -22.7432  -29.2357   19.8685 H   0  0  0  0  0  0
  -25.1281  -36.1966   25.0837 H   0  0  0  0  0  0
  -21.0020  -28.3238   24.1415 H   0  0  0  0  0  0
  -20.5693  -26.2283   23.3604 H   0  0  0  0  0  0
  -21.6643  -26.7435   22.1193 H   0  0  0  0  0  0
  -19.6898  -25.6296   21.1231 H   0  0  0  0  0  0
  -19.6659  -27.3207   20.6760 H   0  0  0  0  0  0
  -17.4206  -26.6699   21.4045 H   0  0  0  0  0  0
  -18.0325  -26.0039   22.9021 H   0  0  0  0  0  0
  -19.7944  -30.7259   24.2293 H   0  0  0  0  0  0
  -17.5017  -31.6264   24.5146 H   0  0  0  0  0  0
  -15.5359  -30.2971   23.7618 H   0  0  0  0  0  0
  -15.8699  -28.0778   22.7088 H   0  0  0  0  0  0
  -24.5870  -30.7007   25.7693 H   0  0  0  0  0  0
  -24.8887  -32.2771   26.4932 H   0  0  0  0  0  0
  -25.8019  -30.8711   27.0166 H   0  0  0  0  0  0
  -26.2958  -29.6750   24.1159 H   0  0  0  0  0  0
  -27.4200  -29.7314   25.4558 H   0  0  0  0  0  0
  -27.8745  -30.4435   23.9261 H   0  0  0  0  0  0
  -27.2654  -33.3592   26.2091 H   0  0  0  0  0  0
  -28.3841  -32.6841   25.0334 H   0  0  0  0  0  0
  -28.0691  -31.8405   26.5409 H   0  0  0  0  0  0
  -28.2612  -38.0086   24.7526 H   0  0  0  0  0  0
  -28.1072  -36.2621   24.6306 H   0  0  0  0  0  0
  -27.2309  -37.1448   25.8882 H   0  0  0  0  0  0
  -20.9325  -29.8734   21.6884 H   0  0  0  0  0  0
  -26.0197  -38.2867   24.1382 H   0  0  0  0  0  0
  -30.6076  -22.2166   19.0308 H   0  0  0  0  0  0
  -31.3805  -22.1415   20.5807 H   0  0  0  0  0  0
  -27.7107  -21.4877   19.8919 H   0  0  0  0  0  0
  -27.2572  -22.2725   21.3566 H   0  0  0  0  0  0
  -31.2738  -19.8684   19.8746 H   0  0  0  0  0  0
  -29.6476  -20.0038   19.2566 H   0  0  0  0  0  0
  -29.6257  -22.9609   21.7252 H   0  0  0  0  0  0
  -28.4327  -19.8560   23.8264 H   0  0  0  0  0  0
  -27.3724  -21.1970   23.4444 H   0  0  0  0  0  0
  -29.1072  -21.4446   23.4941 H   0  0  0  0  0  0
  -26.3081  -19.7841   21.5311 H   0  0  0  0  0  0
  -27.3870  -18.4736   21.9588 H   0  0  0  0  0  0
  -27.3488  -19.0829   20.3015 H   0  0  0  0  0  0
  -28.4335  -15.5637   22.6554 H   0  0  0  0  0  0
  -29.7582  -14.5405   23.2644 H   0  0  0  0  0  0
  -29.7217  -16.2354   23.6241 H   0  0  0  0  0  0
  -28.4661  -23.8780   19.0469 H   0  0  0  0  0  0
  -29.9639  -24.4862   19.6759 H   0  0  0  0  0  0
  -30.6139  -17.3145   20.0058 H   0  0  0  0  0  0
  -28.9468  -17.1381   20.4726 H   0  0  0  0  0  0
  -31.1766  -18.4955   22.1070 H   0  0  0  0  0  0
  -29.5964  -18.2663   22.7475 H   0  0  0  0  0  0
  -28.6890  -25.3298   21.7379 H   0  0  0  0  0  0
  -27.2154  -24.9481   20.9092 H   0  0  0  0  0  0
  -31.3048  -16.0089   22.0030 H   0  0  0  0  0  0
  -30.3338  -20.3907   21.9933 H   0  0  0  0  0  0
  1 25  1  0  0  0
  1 30  2  0  0  0
  1 83  1  0  0  0
  2  3  1  0  0  0
  2 25  1  0  0  0
  2 85  1  0  0  0
  2 86  1  0  0  0
  3  4  1  0  0  0
  3 87  1  0  0  0
  3 88  1  0  0  0
  4  5  1  0  0  0
  4 89  1  0  0  0
  4 90  1  0  0  0
  5  6  1  0  0  0
  5 26  1  0  0  0
  5 91  1  0  0  0
  6 25  1  0  0  0
  6 92  1  0  0  0
  6 93  1  0  0  0
  7  8  2  0  0  0
  7 26  1  0  0  0
  7 29  1  0  0  0
  8  9  1  0  0  0
  8 22  1  0  0  0
  9 10  1  0  0  0
  9 27  2  0  0  0
 10 11  2  0  0  0
 10 15  1  0  0  0
 11 12  1  0  0  0
 11 94  1  0  0  0
 12 13  2  0  0  0
 12 95  1  0  0  0
 13 14  1  0  0  0
 13 31  1  0  0  0
 14 15  2  0  0  0
 14 96  1  0  0  0
 15 97  1  0  0  0
 16 17  2  0  0  0
 16 21  1  0  0  0
 16 31  1  0  0  0
 17 18  1  0  0  0
 17 98  1  0  0  0
 18 19  2  0  0  0
 18 99  1  0  0  0
 19 20  1  0  0  0
 19 24  1  0  0  0
 20 21  2  0  0  0
 20100  1  0  0  0
 21 23  1  0  0  0
 22 28  1  0  0  0
 22 32  2  0  0  0
 26 27  1  0  0  0
 28101  1  0  0  0
 28102  1  0  0  0
 29103  1  0  0  0
 29104  1  0  0  0
 33 34  1  0  0  0
 33 66  1  0  0  0
 33 70  2  0  0  0
 34 36  1  0  0  0
 34 59  1  0  0  0
 34105  1  0  0  0
 35 44  2  0  0  0
 35 45  1  0  0  0
 35 68  1  0  0  0
 36 56  1  0  0  0
 36106  1  0  0  0
 37 39  1  0  0  0
 37 47  1  0  0  0
 37 66  1  0  0  0
 37107  1  0  0  0
 38 43  2  0  0  0
 38 46  1  0  0  0
 38 47  1  0  0  0
 39 64  1  0  0  0
 39 67  2  0  0  0
 40 52  1  0  0  0
 40 53  2  0  0  0
 40 58  1  0  0  0
 41108  1  0  0  0
 41109  1  0  0  0
 41110  1  0  0  0
 41 48  1  0  0  0
 42 43  1  0  0  0
 42 66  1  0  0  0
 42111  1  0  0  0
 42112  1  0  0  0
 43 44  1  0  0  0
 44113  1  0  0  0
 45 46  2  0  0  0
 45114  1  0  0  0
 46115  1  0  0  0
 47116  1  0  0  0
 47117  1  0  0  0
 48 56  1  0  0  0
 48 65  1  0  0  0
 48118  1  0  0  0
 49 50  1  0  0  0
 49 53  1  0  0  0
 49 64  1  0  0  0
 49119  1  0  0  0
 50 51  1  0  0  0
 50120  1  0  0  0
 50121  1  0  0  0
 51 52  1  0  0  0
 51122  1  0  0  0
 51123  1  0  0  0
 52124  1  0  0  0
 52125  1  0  0  0
 53 54  1  0  0  0
 54 55  2  0  0  0
 54126  1  0  0  0
 55 57  1  0  0  0
 55127  1  0  0  0
 56 69  2  0  0  0
 57 58  2  0  0  0
 57128  1  0  0  0
 58129  1  0  0  0
 59 60  1  0  0  0
 59 61  1  0  0  0
 59 62  1  0  0  0
 60130  1  0  0  0
 60131  1  0  0  0
 60132  1  0  0  0
 61133  1  0  0  0
 61134  1  0  0  0
 61135  1  0  0  0
 62136  1  0  0  0
 62137  1  0  0  0
 62138  1  0  0  0
 63 65  1  0  0  0
 63139  1  0  0  0
 63140  1  0  0  0
 63141  1  0  0  0
 64142  1  0  0  0
 65143  1  0  0  0
 68 82  1  0  0  0
 71 73  1  0  0  0
 71 74  1  0  0  0
 71144  1  0  0  0
 71145  1  0  0  0
 72 74  1  0  0  0
 72 75  1  0  0  0
 72146  1  0  0  0
 72147  1  0  0  0
 73 84  1  0  0  0
 73148  1  0  0  0
 73149  1  0  0  0
 74 79  1  0  0  0
 74150  1  0  0  0
 75 76  1  0  0  0
 75 77  1  0  0  0
 75 84  1  0  0  0
 76151  1  0  0  0
 76152  1  0  0  0
 76153  1  0  0  0
 77154  1  0  0  0
 77155  1  0  0  0
 77156  1  0  0  0
 78157  1  0  0  0
 78158  1  0  0  0
 78159  1  0  0  0
 78 83  1  0  0  0
 79 82  1  0  0  0
 79160  1  0  0  0
 79161  1  0  0  0
 80 81  1  0  0  0
 80 83  1  0  0  0
 80162  1  0  0  0
 80163  1  0  0  0
 81164  1  0  0  0
 81165  1  0  0  0
 81 84  1  0  0  0
 82166  1  0  0  0
 82167  1  0  0  0
 83168  1  0  0  0
 84169  1  0  0  0
M  CHG  1  84   1
M  ISO  4   1 100  68 101  82 101  83 100
M  END
> <chiral flag>
0

> <version>
0

> <s_m_source_file>
/data/baiqing/PycharmProjects/Reinvent-master-3.2/result/LINK_invent/BTK/process_docking_weight1_custom_sum_contain_oxygen_bond_distance_aromatic_linkinvent_7_9_3/rearranged_h_0095.sdf

> <i_m_source_file_index>
51

> <r_mmod_Potential_Energy-OPLS-2005>
111.056259155273

> <r_mmod_Stretch_Energy-OPLS-2005>
74.9230270385742

> <r_mmod_Bend_Energy-OPLS-2005>
181.073776245117

> <r_mmod_Torsional_Energy-OPLS-2005>
274.885162353516

> <r_mmod_Improper_Torsional_Energy-OPLS-2005>
1.53856408596039

> <r_mmod_Van_der_Waal_Energy-OPLS-2005>
133.911361694336

> <r_mmod_Electrostatic_Energy-OPLS-2005>
-176.878204345703

> <r_mmod_Solvation_Energy-OPLS-2005>
-406.063110351562

> <b_mmod_Minimization_Converged-OPLS-2005>
0

> <r_mmod_RMS_Derivative-OPLS-2005>
3.84706878662109

$$$$
51
                    3D
 Structure written by MMmdl.
166174  0  0  1  0            999 V2000
  -30.6335  -14.6918   20.4560 C   0  0  0  0  0  0
  -30.4190  -12.4133   19.4652 C   0  0  0  0  0  0
  -29.4972  -12.4765   18.2278 C   0  0  0  0  0  0
  -28.0252  -12.3008   18.6491 C   0  0  0  0  0  0
  -27.6347  -13.2182   19.8391 C   0  0  2  0  0  0
  -28.6754  -13.1588   20.9770 C   0  0  0  0  0  0
  -25.2458  -13.8193   20.5620 C   0  0  0  0  0  0
  -24.1755  -13.0426   20.9179 C   0  0  0  0  0  0
  -24.6349  -11.6907   20.8746 C   0  0  0  0  0  0
  -23.9051  -10.4278   21.0419 C   0  0  0  0  0  0
  -24.3608   -9.4201   21.9196 C   0  0  0  0  0  0
  -23.6271   -8.2247   22.0766 C   0  0  0  0  0  0
  -22.4262   -8.0282   21.3544 C   0  0  0  0  0  0
  -21.9903   -9.0259   20.4649 C   0  0  0  0  0  0
  -22.7234  -10.2134   20.3060 C   0  0  0  0  0  0
  -21.6858   -6.0736   22.5277 C   0  0  0  0  0  0
  -21.4020   -6.5634   23.8213 C   0  0  0  0  0  0
  -21.3656   -5.6785   24.9181 C   0  0  0  0  0  0
  -21.6039   -4.3042   24.7224 C   0  0  0  0  0  0
  -21.8826   -3.8139   23.4338 C   0  0  0  0  0  0
  -21.9184   -4.6960   22.3395 C   0  0  0  0  0  0
  -22.7776  -13.5203   21.1845 C   0  0  0  0  0  0
  -22.1652   -4.2137   21.0975 F   0  0  0  0  0  0
  -21.5618   -3.4534   25.7743 F   0  0  0  0  0  0
  -29.9823  -13.4822   20.3913 N   0  0  0  0  0  0
  -26.2870  -12.9370   20.3231 N   0  0  0  0  0  0
  -25.9267  -11.6525   20.5746 N   0  0  0  0  0  0
  -22.0456  -12.8199   22.0436 N   0  0  0  0  0  0
  -25.4140  -15.1923   20.3992 N   0  0  0  0  0  0
  -31.8312  -14.7466   20.1613 O   0  0  0  0  0  0
  -21.6635   -6.8880   21.4235 O   0  0  0  0  0  0
  -22.3473  -14.5528   20.6715 O   0  0  0  0  0  0
  -24.6278  -31.8592   23.2013 C   0  0  0  0  0  0
  -25.9139  -32.4749   23.8346 C   0  0  1  0  0  0
  -27.2056  -27.2824   20.1258 C   0  0  0  0  0  0
  -25.5967  -33.8554   24.2263 N   0  0  0  0  0  0
  -23.4244  -30.4818   21.5451 C   0  0  2  0  0  0
  -24.8689  -28.9388   20.1078 C   0  0  0  0  0  0
  -22.7487  -29.4586   22.4915 C   0  0  0  0  0  0
  -18.0279  -28.1350   22.8476 C   0  0  0  0  0  0
  -24.1499  -36.7271   23.2635 C   0  0  0  0  0  0
  -25.9687  -30.7726   21.3877 C   0  0  0  0  0  0
  -26.0395  -29.4005   20.7251 C   0  0  0  0  0  0
  -27.2127  -28.5836   20.7270 C   0  0  0  0  0  0
  -26.0189  -26.8931   19.4647 C   0  0  0  0  0  0
  -24.8625  -27.6893   19.4684 C   0  0  0  0  0  0
  -23.6437  -29.8263   20.1568 C   0  0  0  0  0  0
  -25.4118  -36.3035   24.0307 C   0  0  1  0  0  0
  -20.5888  -28.3663   23.1249 C   0  0  2  0  0  0
  -20.6782  -26.9395   22.5382 C   0  0  0  0  0  0
  -19.5756  -26.6364   21.5185 C   0  0  0  0  0  0
  -18.1935  -26.7892   22.1593 C   0  0  0  0  0  0
  -19.1551  -28.8817   23.2841 C   0  0  0  0  0  0
  -18.9489  -30.1419   23.8870 C   0  0  0  0  0  0
  -17.6497  -30.6574   24.0539 C   0  0  0  0  0  0
  -25.9079  -34.9417   23.5065 C   0  0  0  0  0  0
  -16.5382  -29.9075   23.6312 C   0  0  0  0  0  0
  -16.7276  -28.6472   23.0373 C   0  0  0  0  0  0
  -26.4527  -31.6600   25.0755 C   0  0  0  0  0  0
  -25.3725  -31.3774   26.1451 C   0  0  0  0  0  0
  -27.0420  -30.3012   24.6301 C   0  0  0  0  0  0
  -27.6098  -32.4342   25.7529 C   0  0  0  0  0  0
  -27.5588  -37.1764   24.8440 C   0  0  0  0  0  0
  -21.4207  -29.3011   22.3668 N   0  0  0  0  0  0
  -26.4286  -37.3746   23.9407 N   0  0  0  0  0  0
  -24.6908  -31.0563   22.0992 N   0  0  0  0  0  0
  -23.4195  -28.8161   23.3025 O   0  0  0  0  0  0
  -28.2855  -26.3830   20.1652 O   0  0  0  0  0  0
  -26.5662  -34.8907   22.4649 O   0  0  0  0  0  0
  -23.5444  -32.1450   23.7310 O   0  0  0  0  0  0
  -29.4179  -18.3608   20.3467 C   0  0  0  0  0  0
  -29.8995  -19.7323   20.3526 C   0  0  0  0  0  0
  -31.2724  -19.8630   20.7001 C   0  0  0  0  0  0
  -30.2962  -17.2438   20.6442 C   0  0  0  0  0  0
  -32.7875  -21.4628   21.9983 C   0  0  0  0  0  0
  -35.0763  -20.6395   18.3163 C   0  0  0  0  0  0
  -29.0729  -20.9723   19.8032 C   0  0  0  0  0  0
  -28.7180  -22.2750   20.6778 C   0  0  0  0  0  0
  -28.8899  -23.7484   20.0377 C   0  0  0  0  0  0
  -32.9626  -21.3571   19.4285 C   0  0  0  0  0  0
  -27.9924  -24.9681   20.5645 C   0  0  0  0  0  0
  -32.0461  -21.1902   20.6711 C   0  0  1  0  0  0
  -32.0418  -18.7890   21.0080 N   0  0  0  0  0  0
  -31.5735  -17.5398   20.9860 N   0  0  0  0  0  0
  -29.8685  -15.8374   20.5883 N   0  0  0  0  0  0
  -34.0759  -20.3785   19.3727 N   0  3  0  0  0  0
  -31.4618  -12.5170   19.1605 H   0  0  0  0  0  0
  -30.3456  -11.4364   19.9487 H   0  0  0  0  0  0
  -29.7731  -11.7010   17.5108 H   0  0  0  0  0  0
  -29.6241  -13.4321   17.7159 H   0  0  0  0  0  0
  -27.8901  -11.2553   18.9304 H   0  0  0  0  0  0
  -27.3634  -12.4701   17.7994 H   0  0  0  0  0  0
  -27.6288  -14.2340   19.4443 H   0  0  0  0  0  0
  -28.6942  -12.1690   21.4372 H   0  0  0  0  0  0
  -28.4154  -13.8580   21.7720 H   0  0  0  0  0  0
  -25.2758   -9.5673   22.4754 H   0  0  0  0  0  0
  -23.9971   -7.4653   22.7499 H   0  0  0  0  0  0
  -21.0839   -8.8781   19.8961 H   0  0  0  0  0  0
  -22.3708  -10.9658   19.6156 H   0  0  0  0  0  0
  -21.2044   -7.6148   23.9715 H   0  0  0  0  0  0
  -21.1459   -6.0517   25.9076 H   0  0  0  0  0  0
  -22.0608   -2.7600   23.2854 H   0  0  0  0  0  0
  -22.4042  -11.9834   22.4772 H   0  0  0  0  0  0
  -21.1095  -13.1247   22.2699 H   0  0  0  0  0  0
  -24.6370  -15.8375   20.4906 H   0  0  0  0  0  0
  -26.2551  -15.6384   20.0538 H   0  0  0  0  0  0
  -26.7232  -32.5410   23.1126 H   0  0  0  0  0  0
  -25.0037  -33.9693   25.0349 H   0  0  0  0  0  0
  -22.7160  -31.3004   21.4054 H   0  0  0  0  0  0
  -23.3764  -35.9597   23.3240 H   0  0  0  0  0  0
  -24.3581  -36.8961   22.2061 H   0  0  0  0  0  0
  -23.7252  -37.6438   23.6724 H   0  0  0  0  0  0
  -26.1187  -31.5460   20.6315 H   0  0  0  0  0  0
  -26.8322  -30.7999   22.0392 H   0  0  0  0  0  0
  -28.1069  -28.9220   21.2366 H   0  0  0  0  0  0
  -25.9628  -25.9473   18.9464 H   0  0  0  0  0  0
  -23.9708  -27.3338   18.9678 H   0  0  0  0  0  0
  -23.7696  -30.6075   19.4051 H   0  0  0  0  0  0
  -22.7605  -29.2616   19.8497 H   0  0  0  0  0  0
  -25.1297  -36.1885   25.0797 H   0  0  0  0  0  0
  -20.9930  -28.3292   24.1380 H   0  0  0  0  0  0
  -20.5677  -26.2307   23.3606 H   0  0  0  0  0  0
  -21.6671  -26.7450   22.1188 H   0  0  0  0  0  0
  -19.6942  -25.6263   21.1230 H   0  0  0  0  0  0
  -19.6708  -27.3166   20.6714 H   0  0  0  0  0  0
  -17.4209  -26.6627   21.3995 H   0  0  0  0  0  0
  -18.0331  -26.0046   22.8997 H   0  0  0  0  0  0
  -19.8002  -30.7187   24.2283 H   0  0  0  0  0  0
  -17.5085  -31.6263   24.5144 H   0  0  0  0  0  0
  -15.5375  -30.2978   23.7642 H   0  0  0  0  0  0
  -15.8677  -28.0753   22.7141 H   0  0  0  0  0  0
  -24.5908  -30.7132   25.7768 H   0  0  0  0  0  0
  -24.8913  -32.2944   26.4845 H   0  0  0  0  0  0
  -25.7986  -30.8970   27.0269 H   0  0  0  0  0  0
  -26.3053  -29.6694   24.1334 H   0  0  0  0  0  0
  -27.4075  -29.7352   25.4884 H   0  0  0  0  0  0
  -27.8927  -30.4236   23.9596 H   0  0  0  0  0  0
  -27.2724  -33.3660   26.2072 H   0  0  0  0  0  0
  -28.3925  -32.6855   25.0364 H   0  0  0  0  0  0
  -28.0739  -31.8478   26.5468 H   0  0  0  0  0  0
  -28.2529  -38.0151   24.7584 H   0  0  0  0  0  0
  -28.1161  -36.2663   24.6134 H   0  0  0  0  0  0
  -27.2297  -37.1244   25.8843 H   0  0  0  0  0  0
  -20.9420  -29.8783   21.6897 H   0  0  0  0  0  0
  -26.0153  -38.2790   24.1504 H   0  0  0  0  0  0
  -28.3945  -18.1641   20.0615 H   0  0  0  0  0  0
  -32.0889  -21.5302   22.8329 H   0  0  0  0  0  0
  -33.3372  -22.4013   21.9544 H   0  0  0  0  0  0
  -33.5042  -20.6758   22.2382 H   0  0  0  0  0  0
  -35.8166  -19.8379   18.2888 H   0  0  0  0  0  0
  -35.6077  -21.5744   18.5086 H   0  0  0  0  0  0
  -34.6168  -20.6997   17.3269 H   0  0  0  0  0  0
  -28.1345  -20.5759   19.4138 H   0  0  0  0  0  0
  -29.6017  -21.3179   18.9157 H   0  0  0  0  0  0
  -29.2758  -22.2400   21.6133 H   0  0  0  0  0  0
  -27.6790  -22.1646   20.9921 H   0  0  0  0  0  0
  -28.7354  -23.6797   18.9606 H   0  0  0  0  0  0
  -29.9335  -24.0321   20.1616 H   0  0  0  0  0  0
  -33.3755  -22.3683   19.4293 H   0  0  0  0  0  0
  -32.3638  -21.2801   18.5167 H   0  0  0  0  0  0
  -28.0097  -24.9525   21.6527 H   0  0  0  0  0  0
  -26.9672  -24.6947   20.3178 H   0  0  0  0  0  0
  -31.3213  -21.9959   20.5967 H   0  0  0  0  0  0
  -28.8754  -15.6886   20.6199 H   0  0  0  0  0  0
  -34.5561  -20.3816   20.2599 H   0  0  0  0  0  0
  -33.6943  -19.4537   19.2428 H   0  0  0  0  0  0
  1 25  1  0  0  0
  1 30  2  0  0  0
  1 85  1  0  0  0
  2  3  1  0  0  0
  2 25  1  0  0  0
  2 87  1  0  0  0
  2 88  1  0  0  0
  3  4  1  0  0  0
  3 89  1  0  0  0
  3 90  1  0  0  0
  4  5  1  0  0  0
  4 91  1  0  0  0
  4 92  1  0  0  0
  5  6  1  0  0  0
  5 26  1  0  0  0
  5 93  1  0  0  0
  6 25  1  0  0  0
  6 94  1  0  0  0
  6 95  1  0  0  0
  7  8  2  0  0  0
  7 26  1  0  0  0
  7 29  1  0  0  0
  8  9  1  0  0  0
  8 22  1  0  0  0
  9 10  1  0  0  0
  9 27  2  0  0  0
 10 11  2  0  0  0
 10 15  1  0  0  0
 11 12  1  0  0  0
 11 96  1  0  0  0
 12 13  2  0  0  0
 12 97  1  0  0  0
 13 14  1  0  0  0
 13 31  1  0  0  0
 14 15  2  0  0  0
 14 98  1  0  0  0
 15 99  1  0  0  0
 16 17  2  0  0  0
 16 21  1  0  0  0
 16 31  1  0  0  0
 17 18  1  0  0  0
 17100  1  0  0  0
 18 19  2  0  0  0
 18101  1  0  0  0
 19 20  1  0  0  0
 19 24  1  0  0  0
 20 21  2  0  0  0
 20102  1  0  0  0
 21 23  1  0  0  0
 22 28  1  0  0  0
 22 32  2  0  0  0
 26 27  1  0  0  0
 28103  1  0  0  0
 28104  1  0  0  0
 29105  1  0  0  0
 29106  1  0  0  0
 33 34  1  0  0  0
 33 66  1  0  0  0
 33 70  2  0  0  0
 34 36  1  0  0  0
 34 59  1  0  0  0
 34107  1  0  0  0
 35 44  2  0  0  0
 35 45  1  0  0  0
 35 68  1  0  0  0
 36 56  1  0  0  0
 36108  1  0  0  0
 37 39  1  0  0  0
 37 47  1  0  0  0
 37 66  1  0  0  0
 37109  1  0  0  0
 38 43  2  0  0  0
 38 46  1  0  0  0
 38 47  1  0  0  0
 39 64  1  0  0  0
 39 67  2  0  0  0
 40 52  1  0  0  0
 40 53  2  0  0  0
 40 58  1  0  0  0
 41110  1  0  0  0
 41111  1  0  0  0
 41112  1  0  0  0
 41 48  1  0  0  0
 42 43  1  0  0  0
 42 66  1  0  0  0
 42113  1  0  0  0
 42114  1  0  0  0
 43 44  1  0  0  0
 44115  1  0  0  0
 45 46  2  0  0  0
 45116  1  0  0  0
 46117  1  0  0  0
 47118  1  0  0  0
 47119  1  0  0  0
 48 56  1  0  0  0
 48 65  1  0  0  0
 48120  1  0  0  0
 49 50  1  0  0  0
 49 53  1  0  0  0
 49 64  1  0  0  0
 49121  1  0  0  0
 50 51  1  0  0  0
 50122  1  0  0  0
 50123  1  0  0  0
 51 52  1  0  0  0
 51124  1  0  0  0
 51125  1  0  0  0
 52126  1  0  0  0
 52127  1  0  0  0
 53 54  1  0  0  0
 54 55  2  0  0  0
 54128  1  0  0  0
 55 57  1  0  0  0
 55129  1  0  0  0
 56 69  2  0  0  0
 57 58  2  0  0  0
 57130  1  0  0  0
 58131  1  0  0  0
 59 60  1  0  0  0
 59 61  1  0  0  0
 59 62  1  0  0  0
 60132  1  0  0  0
 60133  1  0  0  0
 60134  1  0  0  0
 61135  1  0  0  0
 61136  1  0  0  0
 61137  1  0  0  0
 62138  1  0  0  0
 62139  1  0  0  0
 62140  1  0  0  0
 63 65  1  0  0  0
 63141  1  0  0  0
 63142  1  0  0  0
 63143  1  0  0  0
 64144  1  0  0  0
 65145  1  0  0  0
 68 81  1  0  0  0
 71 72  2  0  0  0
 71 74  1  0  0  0
 71146  1  0  0  0
 72 73  1  0  0  0
 72 77  1  0  0  0
 73 82  1  0  0  0
 73 83  2  0  0  0
 74 84  2  0  0  0
 74 85  1  0  0  0
 75147  1  0  0  0
 75148  1  0  0  0
 75149  1  0  0  0
 75 82  1  0  0  0
 76 86  1  0  0  0
 76150  1  0  0  0
 76151  1  0  0  0
 76152  1  0  0  0
 77 78  1  0  0  0
 77153  1  0  0  0
 77154  1  0  0  0
 78 79  1  0  0  0
 78155  1  0  0  0
 78156  1  0  0  0
 79 81  1  0  0  0
 79157  1  0  0  0
 79158  1  0  0  0
 80 82  1  0  0  0
 80 86  1  0  0  0
 80159  1  0  0  0
 80160  1  0  0  0
 81161  1  0  0  0
 81162  1  0  0  0
 82163  1  0  0  0
 83 84  1  0  0  0
 85164  1  0  0  0
 86165  1  0  0  0
 86166  1  0  0  0
M  CHG  1  86   1
M  ISO  4   1 100  68 101  81 101  85 100
M  END
> <chiral flag>
0

> <version>
0

> <s_m_source_file>
/data/baiqing/PycharmProjects/Reinvent-master-3.2/result/LINK_invent/BTK/process_docking_weight1_custom_sum_contain_oxygen_bond_distance_aromatic_linkinvent_7_9_3/rearranged_h_0095.sdf

> <i_m_source_file_index>
52

> <r_mmod_Potential_Energy-OPLS-2005>
-78.1964721679688

> <r_mmod_Stretch_Energy-OPLS-2005>
106.970268249512

> <r_mmod_Bend_Energy-OPLS-2005>
161.493591308594

> <r_mmod_Torsional_Energy-OPLS-2005>
244.628082275391

> <r_mmod_Improper_Torsional_Energy-OPLS-2005>
7.51635789871216

> <r_mmod_Van_der_Waal_Energy-OPLS-2005>
146.122314453125

> <r_mmod_Electrostatic_Energy-OPLS-2005>
-351.308532714844

> <r_mmod_Solvation_Energy-OPLS-2005>
-466.751373291016

> <b_mmod_Minimization_Converged-OPLS-2005>
0

> <r_mmod_RMS_Derivative-OPLS-2005>
4.5196681022644

$$$$
52
                    3D
 Structure written by MMmdl.
190199  0  0  1  0            999 V2000
  -30.6334  -14.6035   20.5201 C   0  0  0  0  0  0
  -30.4389  -12.3828   19.4333 C   0  0  0  0  0  0
  -29.5017  -12.5139   18.2122 C   0  0  0  0  0  0
  -28.0261  -12.3465   18.6300 C   0  0  0  0  0  0
  -27.6516  -13.2099   19.8641 C   0  0  2  0  0  0
  -28.6993  -13.0480   20.9879 C   0  0  0  0  0  0
  -25.2590  -13.8017   20.5854 C   0  0  0  0  0  0
  -24.1812  -13.0332   20.9232 C   0  0  0  0  0  0
  -24.6370  -11.6820   20.8709 C   0  0  0  0  0  0
  -23.9039  -10.4227   21.0371 C   0  0  0  0  0  0
  -24.3594   -9.4169   21.9166 C   0  0  0  0  0  0
  -23.6271   -8.2208   22.0745 C   0  0  0  0  0  0
  -22.4258   -8.0244   21.3539 C   0  0  0  0  0  0
  -21.9886   -9.0203   20.4629 C   0  0  0  0  0  0
  -22.7211  -10.2074   20.3020 C   0  0  0  0  0  0
  -21.6838   -6.0710   22.5277 C   0  0  0  0  0  0
  -21.4001   -6.5624   23.8205 C   0  0  0  0  0  0
  -21.3656   -5.6779   24.9170 C   0  0  0  0  0  0
  -21.6050   -4.3046   24.7230 C   0  0  0  0  0  0
  -21.8821   -3.8129   23.4351 C   0  0  0  0  0  0
  -21.9194   -4.6934   22.3402 C   0  0  0  0  0  0
  -22.7855  -13.5180   21.1887 C   0  0  0  0  0  0
  -22.1662   -4.2128   21.0987 F   0  0  0  0  0  0
  -21.5638   -3.4529   25.7736 F   0  0  0  0  0  0
  -30.0130  -13.3889   20.4220 N   0  0  0  0  0  0
  -26.2985  -12.9237   20.3321 N   0  0  0  0  0  0
  -25.9301  -11.6398   20.5684 N   0  0  0  0  0  0
  -22.0467  -12.8155   22.0398 N   0  0  0  0  0  0
  -25.4350  -15.1676   20.4580 N   0  0  0  0  0  0
  -31.7932  -14.7775   20.1384 O   0  0  0  0  0  0
  -21.6627   -6.8846   21.4235 O   0  0  0  0  0  0
  -22.3582  -14.5520   20.6760 O   0  0  0  0  0  0
  -24.6183  -31.8638   23.2047 C   0  0  0  0  0  0
  -25.9060  -32.4812   23.8345 C   0  0  1  0  0  0
  -27.2410  -27.3865   20.1074 C   0  0  0  0  0  0
  -25.5876  -33.8601   24.2278 N   0  0  0  0  0  0
  -23.4108  -30.4868   21.5445 C   0  0  2  0  0  0
  -24.8569  -28.9392   20.1162 C   0  0  0  0  0  0
  -22.7432  -29.4655   22.4946 C   0  0  0  0  0  0
  -18.0282  -28.1401   22.8533 C   0  0  0  0  0  0
  -24.1463  -36.7275   23.2648 C   0  0  0  0  0  0
  -25.9408  -30.8181   21.3587 C   0  0  0  0  0  0
  -26.0187  -29.4458   20.7098 C   0  0  0  0  0  0
  -27.2139  -28.6798   20.6949 C   0  0  0  0  0  0
  -26.0555  -26.9015   19.5111 C   0  0  0  0  0  0
  -24.8714  -27.6687   19.5120 C   0  0  0  0  0  0
  -23.6226  -29.8161   20.1607 C   0  0  0  0  0  0
  -25.4088  -36.3086   24.0347 C   0  0  1  0  0  0
  -20.5874  -28.3689   23.1316 C   0  0  2  0  0  0
  -20.6782  -26.9431   22.5410 C   0  0  0  0  0  0
  -19.5739  -26.6403   21.5230 C   0  0  0  0  0  0
  -18.1914  -26.7962   22.1630 C   0  0  0  0  0  0
  -19.1539  -28.8849   23.2929 C   0  0  0  0  0  0
  -18.9468  -30.1448   23.8947 C   0  0  0  0  0  0
  -17.6475  -30.6618   24.0574 C   0  0  0  0  0  0
  -25.9027  -34.9468   23.5116 C   0  0  0  0  0  0
  -16.5366  -29.9141   23.6327 C   0  0  0  0  0  0
  -16.7266  -28.6540   23.0388 C   0  0  0  0  0  0
  -26.4470  -31.6617   25.0691 C   0  0  0  0  0  0
  -25.3721  -31.3727   26.1419 C   0  0  0  0  0  0
  -27.0333  -30.3079   24.6041 C   0  0  0  0  0  0
  -27.5999  -32.4374   25.7497 C   0  0  0  0  0  0
  -27.5576  -37.1775   24.8463 C   0  0  0  0  0  0
  -21.4150  -29.3061   22.3707 N   0  0  0  0  0  0
  -26.4262  -37.3784   23.9453 N   0  0  0  0  0  0
  -24.6766  -31.0708   22.0957 N   0  0  0  0  0  0
  -23.4191  -28.8191   23.2992 O   0  0  0  0  0  0
  -28.4272  -26.6636   20.0775 O   0  0  0  0  0  0
  -26.5602  -34.8949   22.4678 O   0  0  0  0  0  0
  -23.5365  -32.1382   23.7427 O   0  0  0  0  0  0
  -27.6573  -17.2996   18.5240 C   0  0  0  0  0  0
  -26.2894  -17.2974   18.1967 C   0  0  0  0  0  0
  -27.1421  -18.4597   20.6037 C   0  0  0  0  0  0
  -28.0952  -17.8997   19.7220 C   0  0  0  0  0  0
  -25.3381  -17.8825   19.0607 C   0  0  0  0  0  0
  -25.7706  -18.4800   20.2731 C   0  0  0  0  0  0
  -31.4867  -21.4947   20.7953 C   0  0  0  0  0  0
  -30.4858  -22.6831   20.8737 C   0  0  0  0  0  0
  -28.8241  -21.8246   19.1851 C   0  0  0  0  0  0
  -30.9759  -20.0291   20.9637 C   0  0  0  0  0  0
  -29.5086  -20.4327   18.9445 C   0  0  0  0  0  0
  -29.8124  -22.9698   19.5131 C   0  0  1  0  0  0
  -23.4203  -18.9635   17.7932 C   0  0  0  0  0  0
  -23.3948  -18.8717   23.3541 C   0  0  0  0  0  0
  -30.5908  -25.3207   18.8751 C   0  0  0  0  0  0
  -23.8686  -17.7929   18.6726 C   0  0  0  0  0  0
  -24.8058  -19.1527   21.2420 C   0  0  0  0  0  0
  -24.3986  -18.2220   22.3942 C   0  0  0  0  0  0
  -30.1860  -17.1033   21.0453 C   0  0  0  0  0  0
  -28.4460  -25.2165   20.2720 C   0  0  0  0  0  0
  -29.5875  -18.1132   19.9710 C   0  0  2  0  0  0
  -29.3497  -24.4663   19.2284 C   0  0  2  0  0  0
  -29.8443  -15.6501   20.8907 N   0  0  0  0  0  0
  -29.7739  -19.6130   20.1798 N   0  3  1  0  0  0
  -31.4773  -12.5171   19.1268 H   0  0  0  0  0  0
  -30.3802  -11.3813   19.8625 H   0  0  0  0  0  0
  -29.7637  -11.7739   17.4556 H   0  0  0  0  0  0
  -29.6377  -13.4908   17.7436 H   0  0  0  0  0  0
  -27.8653  -11.2916   18.8563 H   0  0  0  0  0  0
  -27.3668  -12.5802   17.7933 H   0  0  0  0  0  0
  -27.6696  -14.2487   19.5340 H   0  0  0  0  0  0
  -28.7093  -12.0185   21.3512 H   0  0  0  0  0  0
  -28.4491  -13.6656   21.8520 H   0  0  0  0  0  0
  -25.2746   -9.5646   22.4733 H   0  0  0  0  0  0
  -23.9977   -7.4597   22.7460 H   0  0  0  0  0  0
  -21.0825   -8.8713   19.8928 H   0  0  0  0  0  0
  -22.3692  -10.9605   19.6109 H   0  0  0  0  0  0
  -21.1982   -7.6129   23.9698 H   0  0  0  0  0  0
  -21.1482   -6.0515   25.9077 H   0  0  0  0  0  0
  -22.0610   -2.7592   23.2853 H   0  0  0  0  0  0
  -22.4067  -11.9759   22.4711 H   0  0  0  0  0  0
  -21.1079  -13.1157   22.2595 H   0  0  0  0  0  0
  -24.6666  -15.8175   20.5677 H   0  0  0  0  0  0
  -26.2538  -15.6239   20.0750 H   0  0  0  0  0  0
  -26.7137  -32.5517   23.1116 H   0  0  0  0  0  0
  -25.0044  -33.9729   25.0432 H   0  0  0  0  0  0
  -22.7038  -31.3058   21.4003 H   0  0  0  0  0  0
  -23.3760  -35.9569   23.3274 H   0  0  0  0  0  0
  -24.3579  -36.8901   22.2067 H   0  0  0  0  0  0
  -23.7160  -37.6445   23.6679 H   0  0  0  0  0  0
  -26.0463  -31.5819   20.5866 H   0  0  0  0  0  0
  -26.8303  -30.8773   21.9730 H   0  0  0  0  0  0
  -28.1138  -29.0756   21.1428 H   0  0  0  0  0  0
  -26.0418  -25.9353   19.0281 H   0  0  0  0  0  0
  -23.9804  -27.2746   19.0428 H   0  0  0  0  0  0
  -23.7410  -30.5932   19.4039 H   0  0  0  0  0  0
  -22.7435  -29.2428   19.8603 H   0  0  0  0  0  0
  -25.1265  -36.1915   25.0833 H   0  0  0  0  0  0
  -20.9972  -28.3251   24.1431 H   0  0  0  0  0  0
  -20.5699  -26.2300   23.3594 H   0  0  0  0  0  0
  -21.6643  -26.7492   22.1166 H   0  0  0  0  0  0
  -19.6917  -25.6322   21.1236 H   0  0  0  0  0  0
  -19.6701  -27.3246   20.6788 H   0  0  0  0  0  0
  -17.4205  -26.6774   21.4002 H   0  0  0  0  0  0
  -18.0278  -26.0076   22.8979 H   0  0  0  0  0  0
  -19.7954  -30.7246   24.2340 H   0  0  0  0  0  0
  -17.5055  -31.6318   24.5156 H   0  0  0  0  0  0
  -15.5365  -30.3078   23.7616 H   0  0  0  0  0  0
  -15.8663  -28.0855   22.7107 H   0  0  0  0  0  0
  -24.5890  -30.7078   25.7763 H   0  0  0  0  0  0
  -24.8913  -32.2881   26.4869 H   0  0  0  0  0  0
  -25.8036  -30.8905   27.0185 H   0  0  0  0  0  0
  -26.2887  -29.6836   24.1082 H   0  0  0  0  0  0
  -27.4141  -29.7302   25.4467 H   0  0  0  0  0  0
  -27.8691  -30.4463   23.9180 H   0  0  0  0  0  0
  -27.2573  -33.3688   26.2025 H   0  0  0  0  0  0
  -28.3852  -32.6909   25.0371 H   0  0  0  0  0  0
  -28.0613  -31.8529   26.5458 H   0  0  0  0  0  0
  -28.2517  -38.0150   24.7605 H   0  0  0  0  0  0
  -28.1120  -36.2668   24.6137 H   0  0  0  0  0  0
  -27.2305  -37.1234   25.8863 H   0  0  0  0  0  0
  -20.9286  -29.8815   21.6983 H   0  0  0  0  0  0
  -26.0126  -38.2832   24.1516 H   0  0  0  0  0  0
  -28.3687  -16.8718   17.8315 H   0  0  0  0  0  0
  -25.9723  -16.8374   17.2706 H   0  0  0  0  0  0
  -27.4638  -18.9294   21.5235 H   0  0  0  0  0  0
  -32.2315  -21.6492   21.5764 H   0  0  0  0  0  0
  -32.0601  -21.5667   19.8708 H   0  0  0  0  0  0
  -31.0494  -23.5692   21.1731 H   0  0  0  0  0  0
  -29.7469  -22.5297   21.6615 H   0  0  0  0  0  0
  -28.0328  -21.7560   19.9324 H   0  0  0  0  0  0
  -28.3176  -22.0895   18.2568 H   0  0  0  0  0  0
  -30.7751  -19.8341   22.0181 H   0  0  0  0  0  0
  -31.8073  -19.3769   20.6898 H   0  0  0  0  0  0
  -30.4200  -20.5356   18.3559 H   0  0  0  0  0  0
  -28.8337  -19.8854   18.2867 H   0  0  0  0  0  0
  -30.5935  -22.8308   18.7660 H   0  0  0  0  0  0
  -22.3737  -18.8510   17.5084 H   0  0  0  0  0  0
  -24.0105  -19.0151   16.8787 H   0  0  0  0  0  0
  -23.5242  -19.9156   18.3124 H   0  0  0  0  0  0
  -23.1830  -18.2143   24.1982 H   0  0  0  0  0  0
  -22.4488  -19.0805   22.8536 H   0  0  0  0  0  0
  -23.7754  -19.8121   23.7541 H   0  0  0  0  0  0
  -31.1687  -24.8733   18.0663 H   0  0  0  0  0  0
  -31.2558  -25.4431   19.7296 H   0  0  0  0  0  0
  -30.3144  -26.3167   18.5285 H   0  0  0  0  0  0
  -23.2386  -17.7167   19.5589 H   0  0  0  0  0  0
  -23.7100  -16.8565   18.1368 H   0  0  0  0  0  0
  -23.9255  -19.5244   20.7177 H   0  0  0  0  0  0
  -25.2843  -20.0456   21.6478 H   0  0  0  0  0  0
  -23.9684  -17.3025   21.9954 H   0  0  0  0  0  0
  -25.2874  -17.9240   22.9532 H   0  0  0  0  0  0
  -29.8234  -17.3942   22.0317 H   0  0  0  0  0  0
  -31.2705  -17.2002   21.0900 H   0  0  0  0  0  0
  -28.8468  -25.0489   21.2719 H   0  0  0  0  0  0
  -27.4512  -24.7726   20.2858 H   0  0  0  0  0  0
  -30.1140  -17.8833   19.0415 H   0  0  0  0  0  0
  -28.7680  -24.4391   18.3074 H   0  0  0  0  0  0
  -28.8972  -15.4001   21.1314 H   0  0  0  0  0  0
  -28.9971  -19.8397   20.7813 H   0  0  0  0  0  0
  1 25  1  0  0  0
  1 30  2  0  0  0
  1 93  1  0  0  0
  2  3  1  0  0  0
  2 25  1  0  0  0
  2 95  1  0  0  0
  2 96  1  0  0  0
  3  4  1  0  0  0
  3 97  1  0  0  0
  3 98  1  0  0  0
  4  5  1  0  0  0
  4 99  1  0  0  0
  4100  1  0  0  0
  5  6  1  0  0  0
  5 26  1  0  0  0
  5101  1  0  0  0
  6 25  1  0  0  0
  6102  1  0  0  0
  6103  1  0  0  0
  7  8  2  0  0  0
  7 26  1  0  0  0
  7 29  1  0  0  0
  8  9  1  0  0  0
  8 22  1  0  0  0
  9 10  1  0  0  0
  9 27  2  0  0  0
 10 11  2  0  0  0
 10 15  1  0  0  0
 11 12  1  0  0  0
 11104  1  0  0  0
 12 13  2  0  0  0
 12105  1  0  0  0
 13 14  1  0  0  0
 13 31  1  0  0  0
 14 15  2  0  0  0
 14106  1  0  0  0
 15107  1  0  0  0
 16 17  2  0  0  0
 16 21  1  0  0  0
 16 31  1  0  0  0
 17 18  1  0  0  0
 17108  1  0  0  0
 18 19  2  0  0  0
 18109  1  0  0  0
 19 20  1  0  0  0
 19 24  1  0  0  0
 20 21  2  0  0  0
 20110  1  0  0  0
 21 23  1  0  0  0
 22 28  1  0  0  0
 22 32  2  0  0  0
 26 27  1  0  0  0
 28111  1  0  0  0
 28112  1  0  0  0
 29113  1  0  0  0
 29114  1  0  0  0
 33 34  1  0  0  0
 33 66  1  0  0  0
 33 70  2  0  0  0
 34 36  1  0  0  0
 34 59  1  0  0  0
 34115  1  0  0  0
 35 44  2  0  0  0
 35 45  1  0  0  0
 35 68  1  0  0  0
 36 56  1  0  0  0
 36116  1  0  0  0
 37 39  1  0  0  0
 37 47  1  0  0  0
 37 66  1  0  0  0
 37117  1  0  0  0
 38 43  2  0  0  0
 38 46  1  0  0  0
 38 47  1  0  0  0
 39 64  1  0  0  0
 39 67  2  0  0  0
 40 52  1  0  0  0
 40 53  2  0  0  0
 40 58  1  0  0  0
 41118  1  0  0  0
 41119  1  0  0  0
 41120  1  0  0  0
 41 48  1  0  0  0
 42 43  1  0  0  0
 42 66  1  0  0  0
 42121  1  0  0  0
 42122  1  0  0  0
 43 44  1  0  0  0
 44123  1  0  0  0
 45 46  2  0  0  0
 45124  1  0  0  0
 46125  1  0  0  0
 47126  1  0  0  0
 47127  1  0  0  0
 48 56  1  0  0  0
 48 65  1  0  0  0
 48128  1  0  0  0
 49 50  1  0  0  0
 49 53  1  0  0  0
 49 64  1  0  0  0
 49129  1  0  0  0
 50 51  1  0  0  0
 50130  1  0  0  0
 50131  1  0  0  0
 51 52  1  0  0  0
 51132  1  0  0  0
 51133  1  0  0  0
 52134  1  0  0  0
 52135  1  0  0  0
 53 54  1  0  0  0
 54 55  2  0  0  0
 54136  1  0  0  0
 55 57  1  0  0  0
 55137  1  0  0  0
 56 69  2  0  0  0
 57 58  2  0  0  0
 57138  1  0  0  0
 58139  1  0  0  0
 59 60  1  0  0  0
 59 61  1  0  0  0
 59 62  1  0  0  0
 60140  1  0  0  0
 60141  1  0  0  0
 60142  1  0  0  0
 61143  1  0  0  0
 61144  1  0  0  0
 61145  1  0  0  0
 62146  1  0  0  0
 62147  1  0  0  0
 62148  1  0  0  0
 63 65  1  0  0  0
 63149  1  0  0  0
 63150  1  0  0  0
 63151  1  0  0  0
 64152  1  0  0  0
 65153  1  0  0  0
 68 90  1  0  0  0
 71 72  2  0  0  0
 71 74  1  0  0  0
 71154  1  0  0  0
 72 75  1  0  0  0
 72155  1  0  0  0
 73 74  2  0  0  0
 73 76  1  0  0  0
 73156  1  0  0  0
 74 91  1  0  0  0
 75 76  2  0  0  0
 75 86  1  0  0  0
 76 87  1  0  0  0
 77 78  1  0  0  0
 77 80  1  0  0  0
 77157  1  0  0  0
 77158  1  0  0  0
 78159  1  0  0  0
 78160  1  0  0  0
 78 82  1  0  0  0
 79 81  1  0  0  0
 79 82  1  0  0  0
 79161  1  0  0  0
 79162  1  0  0  0
 80163  1  0  0  0
 80164  1  0  0  0
 80 94  1  0  0  0
 81 94  1  0  0  0
 81165  1  0  0  0
 81166  1  0  0  0
 82 92  1  0  0  0
 82167  1  0  0  0
 83 86  1  0  0  0
 83168  1  0  0  0
 83169  1  0  0  0
 83170  1  0  0  0
 84 88  1  0  0  0
 84171  1  0  0  0
 84172  1  0  0  0
 84173  1  0  0  0
 85174  1  0  0  0
 85175  1  0  0  0
 85176  1  0  0  0
 85 92  1  0  0  0
 86177  1  0  0  0
 86178  1  0  0  0
 87 88  1  0  0  0
 87179  1  0  0  0
 87180  1  0  0  0
 88181  1  0  0  0
 88182  1  0  0  0
 89 93  1  0  0  0
 89183  1  0  0  0
 89184  1  0  0  0
 89 91  1  0  0  0
 90 92  1  0  0  0
 90185  1  0  0  0
 90186  1  0  0  0
 91 94  1  0  0  0
 91187  1  0  0  0
 92188  1  0  0  0
 93189  1  0  0  0
 94190  1  0  0  0
M  CHG  1  94   1
M  ISO  4   1 100  68 101  90 101  93 100
M  END
> <chiral flag>
0

> <version>
0

> <s_m_source_file>
/data/baiqing/PycharmProjects/Reinvent-master-3.2/result/LINK_invent/BTK/process_docking_weight1_custom_sum_contain_oxygen_bond_distance_aromatic_linkinvent_7_9_3/rearranged_h_0095.sdf

> <i_m_source_file_index>
53

> <r_mmod_Potential_Energy-OPLS-2005>
-51.6642417907715

> <r_mmod_Stretch_Energy-OPLS-2005>
66.8081970214844

> <r_mmod_Bend_Energy-OPLS-2005>
164.197799682617

> <r_mmod_Torsional_Energy-OPLS-2005>
282.305755615234

> <r_mmod_Improper_Torsional_Energy-OPLS-2005>
5.00918388366699

> <r_mmod_Van_der_Waal_Energy-OPLS-2005>
134.062896728516

> <r_mmod_Electrostatic_Energy-OPLS-2005>
-329.311676025391

> <r_mmod_Solvation_Energy-OPLS-2005>
-404.260803222656

> <b_mmod_Minimization_Converged-OPLS-2005>
0

> <r_mmod_RMS_Derivative-OPLS-2005>
2.8890061378479

$$$$
53
                    3D
 Structure written by MMmdl.
169177  0  0  1  0            999 V2000
  -30.6516  -14.5869   20.4923 C   0  0  0  0  0  0
  -30.4243  -12.3527   19.4600 C   0  0  0  0  0  0
  -29.5017  -12.4859   18.2283 C   0  0  0  0  0  0
  -28.0242  -12.3357   18.6388 C   0  0  0  0  0  0
  -27.6515  -13.2133   19.8637 C   0  0  2  0  0  0
  -28.6924  -13.0703   20.9983 C   0  0  0  0  0  0
  -25.2548  -13.8172   20.5695 C   0  0  0  0  0  0
  -24.1812  -13.0442   20.9193 C   0  0  0  0  0  0
  -24.6373  -11.6907   20.8736 C   0  0  0  0  0  0
  -23.9047  -10.4293   21.0406 C   0  0  0  0  0  0
  -24.3602   -9.4213   21.9188 C   0  0  0  0  0  0
  -23.6287   -8.2242   22.0748 C   0  0  0  0  0  0
  -22.4271   -8.0274   21.3544 C   0  0  0  0  0  0
  -21.9908   -9.0242   20.4642 C   0  0  0  0  0  0
  -22.7220  -10.2131   20.3055 C   0  0  0  0  0  0
  -21.6857   -6.0734   22.5275 C   0  0  0  0  0  0
  -21.4013   -6.5638   23.8209 C   0  0  0  0  0  0
  -21.3659   -5.6795   24.9173 C   0  0  0  0  0  0
  -21.6039   -4.3053   24.7230 C   0  0  0  0  0  0
  -21.8822   -3.8145   23.4351 C   0  0  0  0  0  0
  -21.9190   -4.6963   22.3401 C   0  0  0  0  0  0
  -22.7838  -13.5231   21.1855 C   0  0  0  0  0  0
  -22.1661   -4.2145   21.0984 F   0  0  0  0  0  0
  -21.5628   -3.4536   25.7743 F   0  0  0  0  0  0
  -30.0143  -13.3799   20.4364 N   0  0  0  0  0  0
  -26.2967  -12.9349   20.3327 N   0  0  0  0  0  0
  -25.9298  -11.6502   20.5766 N   0  0  0  0  0  0
  -22.0480  -12.8218   22.0405 N   0  0  0  0  0  0
  -25.4286  -15.1892   20.4117 N   0  0  0  0  0  0
  -31.8148  -14.7201   20.1027 O   0  0  0  0  0  0
  -21.6633   -6.8876   21.4238 O   0  0  0  0  0  0
  -22.3530  -14.5542   20.6708 O   0  0  0  0  0  0
  -24.6222  -31.8625   23.2054 C   0  0  0  0  0  0
  -25.9085  -32.4794   23.8372 C   0  0  1  0  0  0
  -27.2221  -27.3521   20.1251 C   0  0  0  0  0  0
  -25.5910  -33.8595   24.2295 N   0  0  0  0  0  0
  -23.4145  -30.4853   21.5475 C   0  0  2  0  0  0
  -24.8602  -28.9378   20.1183 C   0  0  0  0  0  0
  -22.7460  -29.4637   22.4975 C   0  0  0  0  0  0
  -18.0275  -28.1372   22.8486 C   0  0  0  0  0  0
  -24.1498  -36.7303   23.2643 C   0  0  0  0  0  0
  -25.9509  -30.8011   21.3748 C   0  0  0  0  0  0
  -26.0246  -29.4276   20.7260 C   0  0  0  0  0  0
  -27.2101  -28.6432   20.7243 C   0  0  0  0  0  0
  -26.0508  -26.9123   19.4783 C   0  0  0  0  0  0
  -24.8720  -27.6811   19.4887 C   0  0  0  0  0  0
  -23.6281  -29.8163   20.1628 C   0  0  0  0  0  0
  -25.4120  -36.3091   24.0323 C   0  0  1  0  0  0
  -20.5878  -28.3685   23.1290 C   0  0  2  0  0  0
  -20.6772  -26.9415   22.5418 C   0  0  0  0  0  0
  -19.5751  -26.6379   21.5206 C   0  0  0  0  0  0
  -18.1931  -26.7917   22.1617 C   0  0  0  0  0  0
  -19.1528  -28.8843   23.2886 C   0  0  0  0  0  0
  -18.9460  -30.1446   23.8901 C   0  0  0  0  0  0
  -17.6462  -30.6586   24.0563 C   0  0  0  0  0  0
  -25.9050  -34.9459   23.5112 C   0  0  0  0  0  0
  -16.5354  -29.9084   23.6328 C   0  0  0  0  0  0
  -16.7266  -28.6496   23.0347 C   0  0  0  0  0  0
  -26.4479  -31.6600   25.0735 C   0  0  0  0  0  0
  -25.3718  -31.3717   26.1465 C   0  0  0  0  0  0
  -27.0333  -30.3036   24.6158 C   0  0  0  0  0  0
  -27.6046  -32.4344   25.7483 C   0  0  0  0  0  0
  -27.5579  -37.1797   24.8456 C   0  0  0  0  0  0
  -21.4182  -29.3041   22.3697 N   0  0  0  0  0  0
  -26.4300  -37.3772   23.9397 N   0  0  0  0  0  0
  -24.6809  -31.0668   22.0992 N   0  0  0  0  0  0
  -23.4204  -28.8200   23.3057 O   0  0  0  0  0  0
  -28.3640  -26.5626   20.0833 O   0  0  0  0  0  0
  -26.5632  -34.8922   22.4688 O   0  0  0  0  0  0
  -23.5396  -32.1429   23.7390 O   0  0  0  0  0  0
  -29.3775  -18.3593   22.3335 C   0  0  0  0  0  0
  -29.4811  -19.5817   20.4913 C   0  0  0  0  0  0
  -29.6534  -18.2859   20.9451 C   0  0  0  0  0  0
  -29.0943  -19.6538   22.7065 C   0  0  0  0  0  0
  -26.3351  -23.7078   20.6711 C   0  0  0  0  0  0
  -29.1230  -19.0462   25.1562 C   0  0  0  0  0  0
  -27.2887  -20.4574   24.2944 C   0  0  0  0  0  0
  -29.6360  -21.3712   24.5371 C   0  0  0  0  0  0
  -30.0972  -17.0337   20.1518 C   0  0  0  0  0  0
  -28.5679  -22.6128   20.1057 C   0  0  0  0  0  0
  -28.9205  -21.9303   21.4718 C   0  0  0  0  0  0
  -28.3957  -25.2636   20.7682 C   0  0  0  0  0  0
  -27.7485  -23.9785   20.1105 C   0  0  2  0  0  0
  -28.7901  -20.1467   24.1221 C   0  0  0  0  0  0
  -29.1282  -20.4449   21.5401 N   0  0  0  0  0  0
  -29.8719  -15.6770   20.7362 N   0  0  0  0  0  0
  -31.4693  -12.4536   19.1608 H   0  0  0  0  0  0
  -30.3377  -11.3587   19.9020 H   0  0  0  0  0  0
  -29.7581  -11.7327   17.4821 H   0  0  0  0  0  0
  -29.6551  -13.4551   17.7508 H   0  0  0  0  0  0
  -27.8550  -11.2843   18.8740 H   0  0  0  0  0  0
  -27.3714  -12.5646   17.7957 H   0  0  0  0  0  0
  -27.6718  -14.2469   19.5167 H   0  0  0  0  0  0
  -28.6859  -12.0556   21.3992 H   0  0  0  0  0  0
  -28.4491  -13.7263   21.8355 H   0  0  0  0  0  0
  -25.2751   -9.5688   22.4764 H   0  0  0  0  0  0
  -23.9994   -7.4637   22.7469 H   0  0  0  0  0  0
  -21.0845   -8.8763   19.8947 H   0  0  0  0  0  0
  -22.3685  -10.9669   19.6159 H   0  0  0  0  0  0
  -21.2008   -7.6148   23.9716 H   0  0  0  0  0  0
  -21.1476   -6.0523   25.9080 H   0  0  0  0  0  0
  -22.0602   -2.7605   23.2852 H   0  0  0  0  0  0
  -22.4105  -11.9873   22.4782 H   0  0  0  0  0  0
  -21.1094  -13.1236   22.2604 H   0  0  0  0  0  0
  -24.6679  -15.8487   20.5330 H   0  0  0  0  0  0
  -26.2831  -15.6291   20.0944 H   0  0  0  0  0  0
  -26.7168  -32.5480   23.1133 H   0  0  0  0  0  0
  -25.0015  -33.9739   25.0409 H   0  0  0  0  0  0
  -22.7071  -31.3054   21.4034 H   0  0  0  0  0  0
  -23.3746  -35.9648   23.3306 H   0  0  0  0  0  0
  -24.3590  -36.8930   22.2059 H   0  0  0  0  0  0
  -23.7274  -37.6508   23.6679 H   0  0  0  0  0  0
  -26.0798  -31.5622   20.6054 H   0  0  0  0  0  0
  -26.8315  -30.8519   22.0010 H   0  0  0  0  0  0
  -28.1086  -29.0137   21.1993 H   0  0  0  0  0  0
  -26.0471  -25.9711   18.9488 H   0  0  0  0  0  0
  -23.9834  -27.3061   18.9992 H   0  0  0  0  0  0
  -23.7486  -30.5913   19.4049 H   0  0  0  0  0  0
  -22.7485  -29.2442   19.8622 H   0  0  0  0  0  0
  -25.1303  -36.1939   25.0812 H   0  0  0  0  0  0
  -20.9956  -28.3251   24.1413 H   0  0  0  0  0  0
  -20.5686  -26.2291   23.3614 H   0  0  0  0  0  0
  -21.6649  -26.7468   22.1202 H   0  0  0  0  0  0
  -19.6937  -25.6289   21.1236 H   0  0  0  0  0  0
  -19.6678  -27.3200   20.6746 H   0  0  0  0  0  0
  -17.4206  -26.6665   21.4010 H   0  0  0  0  0  0
  -18.0322  -26.0058   22.9005 H   0  0  0  0  0  0
  -19.7945  -30.7242   24.2284 H   0  0  0  0  0  0
  -17.5028  -31.6266   24.5170 H   0  0  0  0  0  0
  -15.5356  -30.2986   23.7658 H   0  0  0  0  0  0
  -15.8663  -28.0825   22.7049 H   0  0  0  0  0  0
  -24.5906  -30.7045   25.7797 H   0  0  0  0  0  0
  -24.8872  -32.2867   26.4889 H   0  0  0  0  0  0
  -25.8046  -30.8911   27.0249 H   0  0  0  0  0  0
  -26.2902  -29.6763   24.1218 H   0  0  0  0  0  0
  -27.4097  -29.7312   25.4643 H   0  0  0  0  0  0
  -27.8736  -30.4337   23.9332 H   0  0  0  0  0  0
  -27.2675  -33.3670   26.2017 H   0  0  0  0  0  0
  -28.3851  -32.6866   25.0295 H   0  0  0  0  0  0
  -28.0715  -31.8500   26.5417 H   0  0  0  0  0  0
  -28.2591  -38.0101   24.7512 H   0  0  0  0  0  0
  -28.1085  -36.2627   24.6282 H   0  0  0  0  0  0
  -27.2287  -37.1440   25.8858 H   0  0  0  0  0  0
  -20.9380  -29.8774   21.6905 H   0  0  0  0  0  0
  -26.0178  -38.2846   24.1393 H   0  0  0  0  0  0
  -29.4237  -17.5170   23.0097 H   0  0  0  0  0  0
  -29.6008  -19.9806   19.4926 H   0  0  0  0  0  0
  -25.8561  -22.8802   20.1467 H   0  0  0  0  0  0
  -25.6696  -24.5622   20.5837 H   0  0  0  0  0  0
  -26.3654  -23.4561   21.7302 H   0  0  0  0  0  0
  -28.5198  -18.1502   25.0071 H   0  0  0  0  0  0
  -28.9338  -19.3816   26.1767 H   0  0  0  0  0  0
  -30.1725  -18.7505   25.1042 H   0  0  0  0  0  0
  -26.6816  -19.5772   24.0775 H   0  0  0  0  0  0
  -26.9349  -21.2555   23.6467 H   0  0  0  0  0  0
  -27.0643  -20.7600   25.3177 H   0  0  0  0  0  0
  -30.6968  -21.2003   24.3498 H   0  0  0  0  0  0
  -29.5306  -21.5826   25.6021 H   0  0  0  0  0  0
  -29.3499  -22.2897   24.0335 H   0  0  0  0  0  0
  -31.1540  -17.1668   19.9166 H   0  0  0  0  0  0
  -29.5795  -17.0542   19.1917 H   0  0  0  0  0  0
  -27.9862  -21.8978   19.5213 H   0  0  0  0  0  0
  -29.4900  -22.7487   19.5405 H   0  0  0  0  0  0
  -28.1307  -22.1840   22.1678 H   0  0  0  0  0  0
  -29.8245  -22.4070   21.8528 H   0  0  0  0  0  0
  -29.4564  -25.0507   20.9044 H   0  0  0  0  0  0
  -28.0126  -25.3889   21.7810 H   0  0  0  0  0  0
  -27.6262  -24.2245   19.0547 H   0  0  0  0  0  0
  -28.9377  -15.4878   21.0651 H   0  0  0  0  0  0
  1 25  1  0  0  0
  1 30  2  0  0  0
  1 86  1  0  0  0
  2  3  1  0  0  0
  2 25  1  0  0  0
  2 87  1  0  0  0
  2 88  1  0  0  0
  3  4  1  0  0  0
  3 89  1  0  0  0
  3 90  1  0  0  0
  4  5  1  0  0  0
  4 91  1  0  0  0
  4 92  1  0  0  0
  5  6  1  0  0  0
  5 26  1  0  0  0
  5 93  1  0  0  0
  6 25  1  0  0  0
  6 94  1  0  0  0
  6 95  1  0  0  0
  7  8  2  0  0  0
  7 26  1  0  0  0
  7 29  1  0  0  0
  8  9  1  0  0  0
  8 22  1  0  0  0
  9 10  1  0  0  0
  9 27  2  0  0  0
 10 11  2  0  0  0
 10 15  1  0  0  0
 11 12  1  0  0  0
 11 96  1  0  0  0
 12 13  2  0  0  0
 12 97  1  0  0  0
 13 14  1  0  0  0
 13 31  1  0  0  0
 14 15  2  0  0  0
 14 98  1  0  0  0
 15 99  1  0  0  0
 16 17  2  0  0  0
 16 21  1  0  0  0
 16 31  1  0  0  0
 17 18  1  0  0  0
 17100  1  0  0  0
 18 19  2  0  0  0
 18101  1  0  0  0
 19 20  1  0  0  0
 19 24  1  0  0  0
 20 21  2  0  0  0
 20102  1  0  0  0
 21 23  1  0  0  0
 22 28  1  0  0  0
 22 32  2  0  0  0
 26 27  1  0  0  0
 28103  1  0  0  0
 28104  1  0  0  0
 29105  1  0  0  0
 29106  1  0  0  0
 33 34  1  0  0  0
 33 66  1  0  0  0
 33 70  2  0  0  0
 34 36  1  0  0  0
 34 59  1  0  0  0
 34107  1  0  0  0
 35 44  2  0  0  0
 35 45  1  0  0  0
 35 68  1  0  0  0
 36 56  1  0  0  0
 36108  1  0  0  0
 37 39  1  0  0  0
 37 47  1  0  0  0
 37 66  1  0  0  0
 37109  1  0  0  0
 38 43  2  0  0  0
 38 46  1  0  0  0
 38 47  1  0  0  0
 39 64  1  0  0  0
 39 67  2  0  0  0
 40 52  1  0  0  0
 40 53  2  0  0  0
 40 58  1  0  0  0
 41110  1  0  0  0
 41111  1  0  0  0
 41112  1  0  0  0
 41 48  1  0  0  0
 42 43  1  0  0  0
 42 66  1  0  0  0
 42113  1  0  0  0
 42114  1  0  0  0
 43 44  1  0  0  0
 44115  1  0  0  0
 45 46  2  0  0  0
 45116  1  0  0  0
 46117  1  0  0  0
 47118  1  0  0  0
 47119  1  0  0  0
 48 56  1  0  0  0
 48 65  1  0  0  0
 48120  1  0  0  0
 49 50  1  0  0  0
 49 53  1  0  0  0
 49 64  1  0  0  0
 49121  1  0  0  0
 50 51  1  0  0  0
 50122  1  0  0  0
 50123  1  0  0  0
 51 52  1  0  0  0
 51124  1  0  0  0
 51125  1  0  0  0
 52126  1  0  0  0
 52127  1  0  0  0
 53 54  1  0  0  0
 54 55  2  0  0  0
 54128  1  0  0  0
 55 57  1  0  0  0
 55129  1  0  0  0
 56 69  2  0  0  0
 57 58  2  0  0  0
 57130  1  0  0  0
 58131  1  0  0  0
 59 60  1  0  0  0
 59 61  1  0  0  0
 59 62  1  0  0  0
 60132  1  0  0  0
 60133  1  0  0  0
 60134  1  0  0  0
 61135  1  0  0  0
 61136  1  0  0  0
 61137  1  0  0  0
 62138  1  0  0  0
 62139  1  0  0  0
 62140  1  0  0  0
 63 65  1  0  0  0
 63141  1  0  0  0
 63142  1  0  0  0
 63143  1  0  0  0
 64144  1  0  0  0
 65145  1  0  0  0
 68 82  1  0  0  0
 71 73  1  0  0  0
 71 74  2  0  0  0
 71146  1  0  0  0
 72 73  2  0  0  0
 72 85  1  0  0  0
 72147  1  0  0  0
 73 79  1  0  0  0
 74 84  1  0  0  0
 74 85  1  0  0  0
 75148  1  0  0  0
 75149  1  0  0  0
 75150  1  0  0  0
 75 83  1  0  0  0
 76151  1  0  0  0
 76152  1  0  0  0
 76153  1  0  0  0
 76 84  1  0  0  0
 77 84  1  0  0  0
 77154  1  0  0  0
 77155  1  0  0  0
 77156  1  0  0  0
 78 84  1  0  0  0
 78157  1  0  0  0
 78158  1  0  0  0
 78159  1  0  0  0
 79 86  1  0  0  0
 79160  1  0  0  0
 79161  1  0  0  0
 80 81  1  0  0  0
 80 83  1  0  0  0
 80162  1  0  0  0
 80163  1  0  0  0
 81 85  1  0  0  0
 81164  1  0  0  0
 81165  1  0  0  0
 82 83  1  0  0  0
 82166  1  0  0  0
 82167  1  0  0  0
 83168  1  0  0  0
 86169  1  0  0  0
M  ISO  4   1 100  68 101  82 101  86 100
M  END
> <chiral flag>
0

> <version>
0

> <s_m_source_file>
/data/baiqing/PycharmProjects/Reinvent-master-3.2/result/LINK_invent/BTK/process_docking_weight1_custom_sum_contain_oxygen_bond_distance_aromatic_linkinvent_7_9_3/rearranged_h_0095.sdf

> <i_m_source_file_index>
54

> <r_mmod_Potential_Energy-OPLS-2005>
-12.910044670105

> <r_mmod_Stretch_Energy-OPLS-2005>
64.6961135864258

> <r_mmod_Bend_Energy-OPLS-2005>
149.335479736328

> <r_mmod_Torsional_Energy-OPLS-2005>
261.697113037109

> <r_mmod_Improper_Torsional_Energy-OPLS-2005>
7.92373514175415

> <r_mmod_Van_der_Waal_Energy-OPLS-2005>
126.001564025879

> <r_mmod_Electrostatic_Energy-OPLS-2005>
-457.093566894531

> <r_mmod_Solvation_Energy-OPLS-2005>
-198.096725463867

> <b_mmod_Minimization_Converged-OPLS-2005>
0

> <r_mmod_RMS_Derivative-OPLS-2005>
1.96649050712585

$$$$
54
                    3D
 Structure written by MMmdl.
167174  0  0  1  0            999 V2000
  -30.5470  -14.9155   20.4900 C   0  0  0  0  0  0
  -30.4334  -12.5807   19.4977 C   0  0  0  0  0  0
  -29.5149  -12.5670   18.2518 C   0  0  0  0  0  0
  -28.0425  -12.3611   18.6494 C   0  0  0  0  0  0
  -27.6313  -13.2524   19.8488 C   0  0  2  0  0  0
  -28.6679  -13.2122   20.9883 C   0  0  0  0  0  0
  -25.2443  -13.8222   20.5734 C   0  0  0  0  0  0
  -24.1761  -13.0447   20.9225 C   0  0  0  0  0  0
  -24.6386  -11.6931   20.8743 C   0  0  0  0  0  0
  -23.9093  -10.4297   21.0409 C   0  0  0  0  0  0
  -24.3646   -9.4217   21.9187 C   0  0  0  0  0  0
  -23.6320   -8.2252   22.0745 C   0  0  0  0  0  0
  -22.4304   -8.0286   21.3537 C   0  0  0  0  0  0
  -21.9946   -9.0262   20.4643 C   0  0  0  0  0  0
  -22.7268  -10.2144   20.3057 C   0  0  0  0  0  0
  -21.6860   -6.0764   22.5285 C   0  0  0  0  0  0
  -21.4020   -6.5664   23.8219 C   0  0  0  0  0  0
  -21.3660   -5.6808   24.9177 C   0  0  0  0  0  0
  -21.6036   -4.3067   24.7219 C   0  0  0  0  0  0
  -21.8818   -3.8170   23.4337 C   0  0  0  0  0  0
  -21.9200   -4.6994   22.3400 C   0  0  0  0  0  0
  -22.7780  -13.5210   21.1902 C   0  0  0  0  0  0
  -22.1669   -4.2181   21.0976 F   0  0  0  0  0  0
  -21.5621   -3.4548   25.7734 F   0  0  0  0  0  0
  -29.9547  -13.6507   20.4251 N   0  0  0  0  0  0
  -26.2874  -12.9466   20.3257 N   0  0  0  0  0  0
  -25.9323  -11.6585   20.5711 N   0  0  0  0  0  0
  -22.0439  -12.8188   22.0454 N   0  0  0  0  0  0
  -25.4114  -15.1954   20.4229 N   0  0  0  0  0  0
  -31.6887  -15.0213   20.0245 O   0  0  0  0  0  0
  -21.6649   -6.8899   21.4245 O   0  0  0  0  0  0
  -22.3467  -14.5514   20.6748 O   0  0  0  0  0  0
  -24.6407  -31.8414   23.1863 C   0  0  0  0  0  0
  -25.9187  -32.4665   23.8242 C   0  0  1  0  0  0
  -27.2347  -27.1699   20.1496 C   0  0  0  0  0  0
  -25.5934  -33.8471   24.2156 N   0  0  0  0  0  0
  -23.4437  -30.4585   21.5263 C   0  0  2  0  0  0
  -24.8965  -28.8858   20.0979 C   0  0  0  0  0  0
  -22.7548  -29.4521   22.4800 C   0  0  0  0  0  0
  -18.0294  -28.1366   22.8420 C   0  0  0  0  0  0
  -24.1498  -36.7271   23.2650 C   0  0  0  0  0  0
  -25.9920  -30.7291   21.3754 C   0  0  0  0  0  0
  -26.0632  -29.3406   20.7215 C   0  0  0  0  0  0
  -27.2270  -28.4936   20.7371 C   0  0  0  0  0  0
  -26.0484  -26.8023   19.4834 C   0  0  0  0  0  0
  -24.8985  -27.6296   19.4638 C   0  0  0  0  0  0
  -23.6691  -29.7833   20.1437 C   0  0  0  0  0  0
  -25.4122  -36.3001   24.0312 C   0  0  1  0  0  0
  -20.5906  -28.3688   23.1194 C   0  0  2  0  0  0
  -20.6774  -26.9382   22.5385 C   0  0  0  0  0  0
  -19.5764  -26.6347   21.5172 C   0  0  0  0  0  0
  -18.1937  -26.7892   22.1577 C   0  0  0  0  0  0
  -19.1561  -28.8838   23.2791 C   0  0  0  0  0  0
  -18.9491  -30.1420   23.8828 C   0  0  0  0  0  0
  -17.6502  -30.6553   24.0534 C   0  0  0  0  0  0
  -25.9067  -34.9383   23.5040 C   0  0  0  0  0  0
  -16.5372  -29.9073   23.6320 C   0  0  0  0  0  0
  -16.7284  -28.6498   23.0319 C   0  0  0  0  0  0
  -26.4536  -31.6549   25.0685 C   0  0  0  0  0  0
  -25.3752  -31.3759   26.1415 C   0  0  0  0  0  0
  -27.0419  -30.2951   24.6252 C   0  0  0  0  0  0
  -27.6033  -32.4357   25.7475 C   0  0  0  0  0  0
  -27.5562  -37.1784   24.8462 C   0  0  0  0  0  0
  -21.4241  -29.3040   22.3585 N   0  0  0  0  0  0
  -26.4270  -37.3729   23.9424 N   0  0  0  0  0  0
  -24.7115  -31.0318   22.0862 N   0  0  0  0  0  0
  -23.4208  -28.8054   23.2926 O   0  0  0  0  0  0
  -28.3258  -26.2514   20.2905 O   0  0  0  0  0  0
  -26.5651  -34.8902   22.4615 O   0  0  0  0  0  0
  -23.5536  -32.1278   23.7108 O   0  0  0  0  0  0
  -32.0836  -19.4975   22.0281 C   0  0  0  0  0  0
  -31.9694  -19.7977   19.4581 C   0  0  0  0  0  0
  -30.2587  -22.3816   21.4682 C   0  0  0  0  0  0
  -26.9025  -22.8101   19.6114 C   0  0  0  0  0  0
  -29.4360  -16.1624   22.3048 C   0  0  0  0  0  0
  -28.9588  -20.3734   20.2770 C   0  0  0  0  0  0
  -29.4948  -17.4484   20.1713 C   0  0  0  0  0  0
  -28.5053  -24.8402   19.6945 C   0  0  0  0  0  0
  -31.4053  -19.0928   20.7017 C   0  0  0  0  0  0
  -29.3025  -22.0417   20.3201 C   0  0  1  0  0  0
  -28.1813  -23.3040   20.3011 C   0  0  2  0  0  0
  -29.8472  -18.9927   20.7492 C   0  0  1  0  0  0
  -29.8152  -16.0761   20.8908 N   0  0  0  0  0  0
  -31.4673  -12.7370   19.1846 H   0  0  0  0  0  0
  -30.4189  -11.6090   19.9937 H   0  0  0  0  0  0
  -29.8268  -11.7873   17.5575 H   0  0  0  0  0  0
  -29.6144  -13.5102   17.7108 H   0  0  0  0  0  0
  -27.9052  -11.3097   18.9031 H   0  0  0  0  0  0
  -27.3923  -12.5574   17.7956 H   0  0  0  0  0  0
  -27.6141  -14.2760   19.4717 H   0  0  0  0  0  0
  -28.7490  -12.2080   21.4066 H   0  0  0  0  0  0
  -28.3324  -13.8483   21.8044 H   0  0  0  0  0  0
  -25.2780   -9.5715   22.4776 H   0  0  0  0  0  0
  -24.0042   -7.4648   22.7459 H   0  0  0  0  0  0
  -21.0872   -8.8781   19.8953 H   0  0  0  0  0  0
  -22.3703  -10.9698   19.6184 H   0  0  0  0  0  0
  -21.2010   -7.6170   23.9734 H   0  0  0  0  0  0
  -21.1480   -6.0534   25.9080 H   0  0  0  0  0  0
  -22.0593   -2.7633   23.2822 H   0  0  0  0  0  0
  -22.4069  -11.9871   22.4863 H   0  0  0  0  0  0
  -21.1047  -13.1181   22.2645 H   0  0  0  0  0  0
  -24.6447  -15.8483   20.5422 H   0  0  0  0  0  0
  -26.2707  -15.6438   20.1333 H   0  0  0  0  0  0
  -26.7230  -32.5272   23.0949 H   0  0  0  0  0  0
  -25.0090  -33.9575   25.0306 H   0  0  0  0  0  0
  -22.7433  -31.2809   21.3682 H   0  0  0  0  0  0
  -23.3721  -35.9638   23.3290 H   0  0  0  0  0  0
  -24.3590  -36.8953   22.2073 H   0  0  0  0  0  0
  -23.7305  -37.6482   23.6713 H   0  0  0  0  0  0
  -26.1357  -31.4849   20.6010 H   0  0  0  0  0  0
  -26.8640  -30.7822   22.0149 H   0  0  0  0  0  0
  -28.1168  -28.8337   21.2479 H   0  0  0  0  0  0
  -25.9839  -25.8353   19.0075 H   0  0  0  0  0  0
  -24.0081  -27.2728   18.9655 H   0  0  0  0  0  0
  -23.8017  -30.5566   19.3860 H   0  0  0  0  0  0
  -22.7862  -29.2217   19.8319 H   0  0  0  0  0  0
  -25.1308  -36.1807   25.0800 H   0  0  0  0  0  0
  -20.9962  -28.3279   24.1330 H   0  0  0  0  0  0
  -20.5630  -26.2306   23.3616 H   0  0  0  0  0  0
  -21.6650  -26.7377   22.1208 H   0  0  0  0  0  0
  -19.6955  -25.6262   21.1215 H   0  0  0  0  0  0
  -19.6712  -27.3130   20.6670 H   0  0  0  0  0  0
  -17.4210  -26.6576   21.3975 H   0  0  0  0  0  0
  -18.0356  -26.0033   22.8984 H   0  0  0  0  0  0
  -19.7989  -30.7205   24.2181 H   0  0  0  0  0  0
  -17.5091  -31.6233   24.5142 H   0  0  0  0  0  0
  -15.5384  -30.2973   23.7694 H   0  0  0  0  0  0
  -15.8663  -28.0827   22.7055 H   0  0  0  0  0  0
  -24.5891  -30.7134   25.7781 H   0  0  0  0  0  0
  -24.9000  -32.2973   26.4798 H   0  0  0  0  0  0
  -25.8084  -30.8982   27.0213 H   0  0  0  0  0  0
  -26.3045  -29.6631   24.1286 H   0  0  0  0  0  0
  -27.4084  -29.7283   25.4817 H   0  0  0  0  0  0
  -27.8919  -30.4190   23.9530 H   0  0  0  0  0  0
  -27.2550  -33.3651   26.1994 H   0  0  0  0  0  0
  -28.3865  -32.6939   25.0334 H   0  0  0  0  0  0
  -28.0670  -31.8544   26.5461 H   0  0  0  0  0  0
  -28.2534  -38.0111   24.7476 H   0  0  0  0  0  0
  -28.1075  -36.2620   24.6279 H   0  0  0  0  0  0
  -27.2273  -37.1450   25.8862 H   0  0  0  0  0  0
  -20.9432  -29.8842   21.6848 H   0  0  0  0  0  0
  -26.0106  -38.2782   24.1446 H   0  0  0  0  0  0
  -33.1661  -19.3659   21.9669 H   0  0  0  0  0  0
  -31.7368  -18.8663   22.8475 H   0  0  0  0  0  0
  -31.8999  -20.5186   22.3396 H   0  0  0  0  0  0
  -33.0543  -19.6939   19.4195 H   0  0  0  0  0  0
  -31.7435  -20.8602   19.4303 H   0  0  0  0  0  0
  -31.5750  -19.3495   18.5442 H   0  0  0  0  0  0
  -31.2854  -22.1468   21.2039 H   0  0  0  0  0  0
  -29.9886  -21.8660   22.3898 H   0  0  0  0  0  0
  -30.2673  -23.4496   21.6835 H   0  0  0  0  0  0
  -26.1279  -23.5762   19.6292 H   0  0  0  0  0  0
  -26.4918  -21.9283   20.0994 H   0  0  0  0  0  0
  -27.0954  -22.5483   18.5710 H   0  0  0  0  0  0
  -28.3662  -16.3486   22.4051 H   0  0  0  0  0  0
  -29.9640  -16.9754   22.8029 H   0  0  0  0  0  0
  -29.6725  -15.2579   22.8667 H   0  0  0  0  0  0
  -28.6585  -20.1771   19.2479 H   0  0  0  0  0  0
  -28.0264  -20.2713   20.8325 H   0  0  0  0  0  0
  -29.9141  -17.3716   19.1654 H   0  0  0  0  0  0
  -28.4168  -17.4220   20.0066 H   0  0  0  0  0  0
  -28.1070  -24.8885   18.6804 H   0  0  0  0  0  0
  -29.5826  -24.8212   19.5213 H   0  0  0  0  0  0
  -31.7644  -18.0690   20.5922 H   0  0  0  0  0  0
  -29.8582  -22.2126   19.3977 H   0  0  0  0  0  0
  -27.8968  -23.4627   21.3417 H   0  0  0  0  0  0
  -29.5968  -18.9362   21.8079 H   0  0  0  0  0  0
  1 25  1  0  0  0
  1 30  2  0  0  0
  1 83  1  0  0  0
  2  3  1  0  0  0
  2 25  1  0  0  0
  2 84  1  0  0  0
  2 85  1  0  0  0
  3  4  1  0  0  0
  3 86  1  0  0  0
  3 87  1  0  0  0
  4  5  1  0  0  0
  4 88  1  0  0  0
  4 89  1  0  0  0
  5  6  1  0  0  0
  5 26  1  0  0  0
  5 90  1  0  0  0
  6 25  1  0  0  0
  6 91  1  0  0  0
  6 92  1  0  0  0
  7  8  2  0  0  0
  7 26  1  0  0  0
  7 29  1  0  0  0
  8  9  1  0  0  0
  8 22  1  0  0  0
  9 10  1  0  0  0
  9 27  2  0  0  0
 10 11  2  0  0  0
 10 15  1  0  0  0
 11 12  1  0  0  0
 11 93  1  0  0  0
 12 13  2  0  0  0
 12 94  1  0  0  0
 13 14  1  0  0  0
 13 31  1  0  0  0
 14 15  2  0  0  0
 14 95  1  0  0  0
 15 96  1  0  0  0
 16 17  2  0  0  0
 16 21  1  0  0  0
 16 31  1  0  0  0
 17 18  1  0  0  0
 17 97  1  0  0  0
 18 19  2  0  0  0
 18 98  1  0  0  0
 19 20  1  0  0  0
 19 24  1  0  0  0
 20 21  2  0  0  0
 20 99  1  0  0  0
 21 23  1  0  0  0
 22 28  1  0  0  0
 22 32  2  0  0  0
 26 27  1  0  0  0
 28100  1  0  0  0
 28101  1  0  0  0
 29102  1  0  0  0
 29103  1  0  0  0
 33 34  1  0  0  0
 33 66  1  0  0  0
 33 70  2  0  0  0
 34 36  1  0  0  0
 34 59  1  0  0  0
 34104  1  0  0  0
 35 44  2  0  0  0
 35 45  1  0  0  0
 35 68  1  0  0  0
 36 56  1  0  0  0
 36105  1  0  0  0
 37 39  1  0  0  0
 37 47  1  0  0  0
 37 66  1  0  0  0
 37106  1  0  0  0
 38 43  2  0  0  0
 38 46  1  0  0  0
 38 47  1  0  0  0
 39 64  1  0  0  0
 39 67  2  0  0  0
 40 52  1  0  0  0
 40 53  2  0  0  0
 40 58  1  0  0  0
 41107  1  0  0  0
 41108  1  0  0  0
 41109  1  0  0  0
 41 48  1  0  0  0
 42 43  1  0  0  0
 42 66  1  0  0  0
 42110  1  0  0  0
 42111  1  0  0  0
 43 44  1  0  0  0
 44112  1  0  0  0
 45 46  2  0  0  0
 45113  1  0  0  0
 46114  1  0  0  0
 47115  1  0  0  0
 47116  1  0  0  0
 48 56  1  0  0  0
 48 65  1  0  0  0
 48117  1  0  0  0
 49 50  1  0  0  0
 49 53  1  0  0  0
 49 64  1  0  0  0
 49118  1  0  0  0
 50 51  1  0  0  0
 50119  1  0  0  0
 50120  1  0  0  0
 51 52  1  0  0  0
 51121  1  0  0  0
 51122  1  0  0  0
 52123  1  0  0  0
 52124  1  0  0  0
 53 54  1  0  0  0
 54 55  2  0  0  0
 54125  1  0  0  0
 55 57  1  0  0  0
 55126  1  0  0  0
 56 69  2  0  0  0
 57 58  2  0  0  0
 57127  1  0  0  0
 58128  1  0  0  0
 59 60  1  0  0  0
 59 61  1  0  0  0
 59 62  1  0  0  0
 60129  1  0  0  0
 60130  1  0  0  0
 60131  1  0  0  0
 61132  1  0  0  0
 61133  1  0  0  0
 61134  1  0  0  0
 62135  1  0  0  0
 62136  1  0  0  0
 62137  1  0  0  0
 63 65  1  0  0  0
 63138  1  0  0  0
 63139  1  0  0  0
 63140  1  0  0  0
 64141  1  0  0  0
 65142  1  0  0  0
 68 78  1  0  0  0
 71143  1  0  0  0
 71144  1  0  0  0
 71145  1  0  0  0
 71 79  1  0  0  0
 72 79  1  0  0  0
 72146  1  0  0  0
 72147  1  0  0  0
 72148  1  0  0  0
 73149  1  0  0  0
 73150  1  0  0  0
 73151  1  0  0  0
 73 80  1  0  0  0
 74152  1  0  0  0
 74153  1  0  0  0
 74154  1  0  0  0
 74 81  1  0  0  0
 75 83  1  0  0  0
 75155  1  0  0  0
 75156  1  0  0  0
 75157  1  0  0  0
 76 80  1  0  0  0
 76158  1  0  0  0
 76159  1  0  0  0
 76 82  1  0  0  0
 77 82  1  0  0  0
 77 83  1  0  0  0
 77160  1  0  0  0
 77161  1  0  0  0
 78 81  1  0  0  0
 78162  1  0  0  0
 78163  1  0  0  0
 79 82  1  0  0  0
 79164  1  0  0  0
 80 81  1  0  0  0
 80165  1  0  0  0
 81166  1  0  0  0
 82167  1  0  0  0
M  ISO  4   1 100  68 101  78 101  83 100
M  END
> <chiral flag>
0

> <version>
0

> <s_m_source_file>
/data/baiqing/PycharmProjects/Reinvent-master-3.2/result/LINK_invent/BTK/process_docking_weight1_custom_sum_contain_oxygen_bond_distance_aromatic_linkinvent_7_9_3/rearranged_h_0095.sdf

> <i_m_source_file_index>
55

> <r_mmod_Potential_Energy-OPLS-2005>
770.146484375

> <r_mmod_Stretch_Energy-OPLS-2005>
280.239471435547

> <r_mmod_Bend_Energy-OPLS-2005>
332.898834228516

> <r_mmod_Torsional_Energy-OPLS-2005>
347.722442626953

> <r_mmod_Improper_Torsional_Energy-OPLS-2005>
4.29616355895996

> <r_mmod_Van_der_Waal_Energy-OPLS-2005>
112.080375671387

> <r_mmod_Electrostatic_Energy-OPLS-2005>
-292.410430908203

> <r_mmod_Solvation_Energy-OPLS-2005>
-177.868515014648

> <b_mmod_Minimization_Converged-OPLS-2005>
0

> <r_mmod_RMS_Derivative-OPLS-2005>
3.57975459098816

$$$$
55
                    3D
 Structure written by MMmdl.
178186  0  0  1  0            999 V2000
  -30.7679  -14.3752   20.6791 C   0  0  0  0  0  0
  -30.4133  -12.2979   19.3938 C   0  0  0  0  0  0
  -29.4804  -12.5288   18.1912 C   0  0  0  0  0  0
  -28.0064  -12.3803   18.6101 C   0  0  0  0  0  0
  -27.6641  -13.2059   19.8776 C   0  0  2  0  0  0
  -28.7024  -12.9564   20.9932 C   0  0  0  0  0  0
  -25.2593  -13.8165   20.5675 C   0  0  0  0  0  0
  -24.1839  -13.0443   20.9161 C   0  0  0  0  0  0
  -24.6391  -11.6910   20.8720 C   0  0  0  0  0  0
  -23.9060  -10.4297   21.0396 C   0  0  0  0  0  0
  -24.3613   -9.4214   21.9179 C   0  0  0  0  0  0
  -23.6290   -8.2248   22.0753 C   0  0  0  0  0  0
  -22.4273   -8.0281   21.3543 C   0  0  0  0  0  0
  -21.9908   -9.0253   20.4643 C   0  0  0  0  0  0
  -22.7233  -10.2133   20.3049 C   0  0  0  0  0  0
  -21.6854   -6.0736   22.5279 C   0  0  0  0  0  0
  -21.4015   -6.5638   23.8213 C   0  0  0  0  0  0
  -21.3658   -5.6792   24.9175 C   0  0  0  0  0  0
  -21.6045   -4.3055   24.7227 C   0  0  0  0  0  0
  -21.8817   -3.8148   23.4346 C   0  0  0  0  0  0
  -21.9193   -4.6964   22.3401 C   0  0  0  0  0  0
  -22.7864  -13.5241   21.1836 C   0  0  0  0  0  0
  -22.1662   -4.2151   21.0978 F   0  0  0  0  0  0
  -21.5630   -3.4538   25.7739 F   0  0  0  0  0  0
  -30.0438  -13.2481   20.4535 N   0  0  0  0  0  0
  -26.3033  -12.9337   20.3372 N   0  0  0  0  0  0
  -25.9317  -11.6495   20.5754 N   0  0  0  0  0  0
  -22.0510  -12.8223   22.0390 N   0  0  0  0  0  0
  -25.4331  -15.1882   20.4106 N   0  0  0  0  0  0
  -31.7955  -14.6542   20.0552 O   0  0  0  0  0  0
  -21.6638   -6.8879   21.4241 O   0  0  0  0  0  0
  -22.3546  -14.5552   20.6701 O   0  0  0  0  0  0
  -24.6132  -31.8690   23.2120 C   0  0  0  0  0  0
  -25.9028  -32.4827   23.8411 C   0  0  1  0  0  0
  -27.2315  -27.4504   20.0898 C   0  0  0  0  0  0
  -25.5887  -33.8626   24.2344 N   0  0  0  0  0  0
  -23.3992  -30.4940   21.5531 C   0  0  2  0  0  0
  -24.8438  -28.9620   20.1169 C   0  0  0  0  0  0
  -22.7393  -29.4675   22.5010 C   0  0  0  0  0  0
  -18.0266  -28.1380   22.8494 C   0  0  0  0  0  0
  -24.1482  -36.7326   23.2639 C   0  0  0  0  0  0
  -25.9264  -30.8414   21.3595 C   0  0  0  0  0  0
  -26.0047  -29.4774   20.7065 C   0  0  0  0  0  0
  -27.2038  -28.7307   20.6855 C   0  0  0  0  0  0
  -26.0511  -26.9456   19.5001 C   0  0  0  0  0  0
  -24.8610  -27.6946   19.5112 C   0  0  0  0  0  0
  -23.6048  -29.8261   20.1679 C   0  0  0  0  0  0
  -25.4101  -36.3117   24.0340 C   0  0  1  0  0  0
  -20.5853  -28.3667   23.1328 C   0  0  2  0  0  0
  -20.6759  -26.9408   22.5419 C   0  0  0  0  0  0
  -19.5739  -26.6393   21.5214 C   0  0  0  0  0  0
  -18.1915  -26.7929   22.1623 C   0  0  0  0  0  0
  -19.1513  -28.8840   23.2908 C   0  0  0  0  0  0
  -18.9441  -30.1447   23.8920 C   0  0  0  0  0  0
  -17.6444  -30.6587   24.0574 C   0  0  0  0  0  0
  -25.9027  -34.9477   23.5138 C   0  0  0  0  0  0
  -16.5337  -29.9092   23.6332 C   0  0  0  0  0  0
  -16.7257  -28.6509   23.0352 C   0  0  0  0  0  0
  -26.4463  -31.6598   25.0730 C   0  0  0  0  0  0
  -25.3742  -31.3666   26.1484 C   0  0  0  0  0  0
  -27.0303  -30.3053   24.6081 C   0  0  0  0  0  0
  -27.6042  -32.4315   25.7491 C   0  0  0  0  0  0
  -27.5575  -37.1816   24.8465 C   0  0  0  0  0  0
  -21.4125  -29.3041   22.3744 N   0  0  0  0  0  0
  -26.4287  -37.3798   23.9410 N   0  0  0  0  0  0
  -24.6649  -31.0810   22.1008 N   0  0  0  0  0  0
  -23.4172  -28.8212   23.3042 O   0  0  0  0  0  0
  -28.4045  -26.7282   20.0866 O   0  0  0  0  0  0
  -26.5592  -34.8920   22.4702 O   0  0  0  0  0  0
  -23.5331  -32.1438   23.7526 O   0  0  0  0  0  0
  -27.1277  -21.0090   18.4556 C   0  0  0  0  0  0
  -28.0828  -21.4310   20.6340 C   0  0  0  0  0  0
  -27.4299  -21.9208   19.4847 C   0  0  0  0  0  0
  -27.4664  -19.6535   18.6255 C   0  0  0  0  0  0
  -28.3908  -20.0600   20.7168 C   0  0  0  0  0  0
  -31.5588  -16.2682   16.7114 C   0  0  0  0  0  0
  -31.1400  -18.3429   15.3380 C   0  0  0  0  0  0
  -27.0077  -23.3791   19.3757 C   0  0  0  0  0  0
  -27.1177  -18.6271   17.5597 C   0  0  0  0  0  0
  -28.1761  -24.3871   19.2672 C   0  0  0  0  0  0
  -28.2468  -18.3642   16.5461 C   0  0  0  0  0  0
  -29.4621  -17.6189   17.1312 C   0  0  0  0  0  0
  -30.6171  -17.6598   21.6479 C   0  0  0  0  0  0
  -29.2265  -18.1387   22.1062 C   0  0  0  0  0  0
  -31.0434  -16.2998   22.2398 C   0  0  0  0  0  0
  -28.2984  -25.3510   20.4696 C   0  0  0  0  0  0
  -30.4854  -17.1614   16.0729 C   0  0  0  0  0  0
  -28.0865  -19.1914   19.7332 N   0  0  0  0  0  0
  -29.0215  -19.5672   21.8635 N   0  0  0  0  0  0
  -30.3275  -15.1517   21.6791 N   0  0  0  0  0  0
  -31.4560  -12.3977   19.0867 H   0  0  0  0  0  0
  -30.3124  -11.2766   19.7646 H   0  0  0  0  0  0
  -29.7141  -11.8253   17.3911 H   0  0  0  0  0  0
  -29.6455  -13.5261   17.7811 H   0  0  0  0  0  0
  -27.8167  -11.3223   18.7941 H   0  0  0  0  0  0
  -27.3509  -12.6678   17.7870 H   0  0  0  0  0  0
  -27.7201  -14.2589   19.6000 H   0  0  0  0  0  0
  -28.6662  -11.9147   21.3158 H   0  0  0  0  0  0
  -28.4482  -13.5396   21.8783 H   0  0  0  0  0  0
  -25.2760   -9.5694   22.4751 H   0  0  0  0  0  0
  -24.0005   -7.4643   22.7476 H   0  0  0  0  0  0
  -21.0843   -8.8767   19.8948 H   0  0  0  0  0  0
  -22.3692  -10.9670   19.6153 H   0  0  0  0  0  0
  -21.2004   -7.6147   23.9718 H   0  0  0  0  0  0
  -21.1483   -6.0520   25.9078 H   0  0  0  0  0  0
  -22.0596   -2.7611   23.2846 H   0  0  0  0  0  0
  -22.4125  -11.9871   22.4755 H   0  0  0  0  0  0
  -21.1131  -13.1247   22.2613 H   0  0  0  0  0  0
  -24.6736  -15.8491   20.5307 H   0  0  0  0  0  0
  -26.2996  -15.6280   20.1266 H   0  0  0  0  0  0
  -26.7101  -32.5550   23.1180 H   0  0  0  0  0  0
  -25.0035  -33.9789   25.0483 H   0  0  0  0  0  0
  -22.6872  -31.3104   21.4154 H   0  0  0  0  0  0
  -23.3729  -35.9672   23.3312 H   0  0  0  0  0  0
  -24.3577  -36.8938   22.2053 H   0  0  0  0  0  0
  -23.7249  -37.6539   23.6649 H   0  0  0  0  0  0
  -26.0311  -31.6065   20.5892 H   0  0  0  0  0  0
  -26.8173  -30.8985   21.9734 H   0  0  0  0  0  0
  -28.1028  -29.1258   21.1380 H   0  0  0  0  0  0
  -26.0378  -25.9805   19.0194 H   0  0  0  0  0  0
  -23.9678  -27.2926   19.0528 H   0  0  0  0  0  0
  -23.7091  -30.5998   19.4062 H   0  0  0  0  0  0
  -22.7290  -29.2438   19.8760 H   0  0  0  0  0  0
  -25.1272  -36.1986   25.0833 H   0  0  0  0  0  0
  -20.9945  -28.3231   24.1450 H   0  0  0  0  0  0
  -20.5676  -26.2271   23.3601 H   0  0  0  0  0  0
  -21.6629  -26.7464   22.1207 H   0  0  0  0  0  0
  -19.6903  -25.6309   21.1234 H   0  0  0  0  0  0
  -19.6675  -27.3211   20.6748 H   0  0  0  0  0  0
  -17.4186  -26.6682   21.4023 H   0  0  0  0  0  0
  -18.0315  -26.0065   22.9012 H   0  0  0  0  0  0
  -19.7914  -30.7258   24.2304 H   0  0  0  0  0  0
  -17.4997  -31.6273   24.5166 H   0  0  0  0  0  0
  -15.5338  -30.3000   23.7646 H   0  0  0  0  0  0
  -15.8655  -28.0841   22.7054 H   0  0  0  0  0  0
  -24.5935  -30.6989   25.7820 H   0  0  0  0  0  0
  -24.8898  -32.2796   26.4956 H   0  0  0  0  0  0
  -25.8118  -30.8832   27.0228 H   0  0  0  0  0  0
  -26.2844  -29.6805   24.1155 H   0  0  0  0  0  0
  -27.4118  -29.7292   25.4520 H   0  0  0  0  0  0
  -27.8647  -30.4397   23.9195 H   0  0  0  0  0  0
  -27.2677  -33.3614   26.2085 H   0  0  0  0  0  0
  -28.3840  -32.6880   25.0307 H   0  0  0  0  0  0
  -28.0719  -31.8428   26.5394 H   0  0  0  0  0  0
  -28.2596  -38.0109   24.7510 H   0  0  0  0  0  0
  -28.1070  -36.2642   24.6292 H   0  0  0  0  0  0
  -27.2297  -37.1477   25.8869 H   0  0  0  0  0  0
  -20.9281  -29.8770   21.6975 H   0  0  0  0  0  0
  -26.0179  -38.2878   24.1400 H   0  0  0  0  0  0
  -26.6217  -21.3363   17.5568 H   0  0  0  0  0  0
  -28.3240  -22.1063   21.4445 H   0  0  0  0  0  0
  -32.2594  -15.8950   15.9635 H   0  0  0  0  0  0
  -31.1141  -15.4009   17.2001 H   0  0  0  0  0  0
  -32.1329  -16.8107   17.4637 H   0  0  0  0  0  0
  -31.8822  -17.9956   14.6183 H   0  0  0  0  0  0
  -31.6434  -19.0156   16.0332 H   0  0  0  0  0  0
  -30.4088  -18.9273   14.7797 H   0  0  0  0  0  0
  -26.3575  -23.6076   20.2205 H   0  0  0  0  0  0
  -26.3692  -23.4888   18.4981 H   0  0  0  0  0  0
  -26.2341  -18.9781   17.0251 H   0  0  0  0  0  0
  -26.8173  -17.6934   18.0375 H   0  0  0  0  0  0
  -28.0397  -24.9731   18.3580 H   0  0  0  0  0  0
  -29.1197  -23.8617   19.1149 H   0  0  0  0  0  0
  -28.5547  -19.3129   16.1065 H   0  0  0  0  0  0
  -27.8349  -17.7694   15.7304 H   0  0  0  0  0  0
  -29.1019  -16.7427   17.6729 H   0  0  0  0  0  0
  -29.9574  -18.2459   17.8741 H   0  0  0  0  0  0
  -31.3579  -18.3955   21.9655 H   0  0  0  0  0  0
  -30.6698  -17.6364   20.5579 H   0  0  0  0  0  0
  -29.1281  -17.9798   23.1807 H   0  0  0  0  0  0
  -28.4409  -17.5399   21.6429 H   0  0  0  0  0  0
  -30.8940  -16.3049   23.3202 H   0  0  0  0  0  0
  -32.1183  -16.1697   22.0995 H   0  0  0  0  0  0
  -29.2003  -25.0972   21.0275 H   0  0  0  0  0  0
  -27.4849  -25.2210   21.1859 H   0  0  0  0  0  0
  -29.9597  -16.5563   15.3319 H   0  0  0  0  0  0
  -29.1862  -20.2060   22.6345 H   0  0  0  0  0  0
  -29.4903  -14.8455   22.1530 H   0  0  0  0  0  0
  1 25  1  0  0  0
  1 30  2  0  0  0
  1 90  1  0  0  0
  2  3  1  0  0  0
  2 25  1  0  0  0
  2 91  1  0  0  0
  2 92  1  0  0  0
  3  4  1  0  0  0
  3 93  1  0  0  0
  3 94  1  0  0  0
  4  5  1  0  0  0
  4 95  1  0  0  0
  4 96  1  0  0  0
  5  6  1  0  0  0
  5 26  1  0  0  0
  5 97  1  0  0  0
  6 25  1  0  0  0
  6 98  1  0  0  0
  6 99  1  0  0  0
  7  8  2  0  0  0
  7 26  1  0  0  0
  7 29  1  0  0  0
  8  9  1  0  0  0
  8 22  1  0  0  0
  9 10  1  0  0  0
  9 27  2  0  0  0
 10 11  2  0  0  0
 10 15  1  0  0  0
 11 12  1  0  0  0
 11100  1  0  0  0
 12 13  2  0  0  0
 12101  1  0  0  0
 13 14  1  0  0  0
 13 31  1  0  0  0
 14 15  2  0  0  0
 14102  1  0  0  0
 15103  1  0  0  0
 16 17  2  0  0  0
 16 21  1  0  0  0
 16 31  1  0  0  0
 17 18  1  0  0  0
 17104  1  0  0  0
 18 19  2  0  0  0
 18105  1  0  0  0
 19 20  1  0  0  0
 19 24  1  0  0  0
 20 21  2  0  0  0
 20106  1  0  0  0
 21 23  1  0  0  0
 22 28  1  0  0  0
 22 32  2  0  0  0
 26 27  1  0  0  0
 28107  1  0  0  0
 28108  1  0  0  0
 29109  1  0  0  0
 29110  1  0  0  0
 33 34  1  0  0  0
 33 66  1  0  0  0
 33 70  2  0  0  0
 34 36  1  0  0  0
 34 59  1  0  0  0
 34111  1  0  0  0
 35 44  2  0  0  0
 35 45  1  0  0  0
 35 68  1  0  0  0
 36 56  1  0  0  0
 36112  1  0  0  0
 37 39  1  0  0  0
 37 47  1  0  0  0
 37 66  1  0  0  0
 37113  1  0  0  0
 38 43  2  0  0  0
 38 46  1  0  0  0
 38 47  1  0  0  0
 39 64  1  0  0  0
 39 67  2  0  0  0
 40 52  1  0  0  0
 40 53  2  0  0  0
 40 58  1  0  0  0
 41114  1  0  0  0
 41115  1  0  0  0
 41116  1  0  0  0
 41 48  1  0  0  0
 42 43  1  0  0  0
 42 66  1  0  0  0
 42117  1  0  0  0
 42118  1  0  0  0
 43 44  1  0  0  0
 44119  1  0  0  0
 45 46  2  0  0  0
 45120  1  0  0  0
 46121  1  0  0  0
 47122  1  0  0  0
 47123  1  0  0  0
 48 56  1  0  0  0
 48 65  1  0  0  0
 48124  1  0  0  0
 49 50  1  0  0  0
 49 53  1  0  0  0
 49 64  1  0  0  0
 49125  1  0  0  0
 50 51  1  0  0  0
 50126  1  0  0  0
 50127  1  0  0  0
 51 52  1  0  0  0
 51128  1  0  0  0
 51129  1  0  0  0
 52130  1  0  0  0
 52131  1  0  0  0
 53 54  1  0  0  0
 54 55  2  0  0  0
 54132  1  0  0  0
 55 57  1  0  0  0
 55133  1  0  0  0
 56 69  2  0  0  0
 57 58  2  0  0  0
 57134  1  0  0  0
 58135  1  0  0  0
 59 60  1  0  0  0
 59 61  1  0  0  0
 59 62  1  0  0  0
 60136  1  0  0  0
 60137  1  0  0  0
 60138  1  0  0  0
 61139  1  0  0  0
 61140  1  0  0  0
 61141  1  0  0  0
 62142  1  0  0  0
 62143  1  0  0  0
 62144  1  0  0  0
 63 65  1  0  0  0
 63145  1  0  0  0
 63146  1  0  0  0
 63147  1  0  0  0
 64148  1  0  0  0
 65149  1  0  0  0
 68 86  1  0  0  0
 71 73  2  0  0  0
 71 74  1  0  0  0
 71150  1  0  0  0
 72 73  1  0  0  0
 72 75  2  0  0  0
 72151  1  0  0  0
 73 78  1  0  0  0
 74 79  1  0  0  0
 74 88  2  0  0  0
 75 88  1  0  0  0
 75 89  1  0  0  0
 76152  1  0  0  0
 76153  1  0  0  0
 76154  1  0  0  0
 76 87  1  0  0  0
 77 87  1  0  0  0
 77155  1  0  0  0
 77156  1  0  0  0
 77157  1  0  0  0
 78 80  1  0  0  0
 78158  1  0  0  0
 78159  1  0  0  0
 79 81  1  0  0  0
 79160  1  0  0  0
 79161  1  0  0  0
 80 86  1  0  0  0
 80162  1  0  0  0
 80163  1  0  0  0
 81 82  1  0  0  0
 81164  1  0  0  0
 81165  1  0  0  0
 82 87  1  0  0  0
 82166  1  0  0  0
 82167  1  0  0  0
 83 84  1  0  0  0
 83 85  1  0  0  0
 83168  1  0  0  0
 83169  1  0  0  0
 84 89  1  0  0  0
 84170  1  0  0  0
 84171  1  0  0  0
 85 90  1  0  0  0
 85172  1  0  0  0
 85173  1  0  0  0
 86174  1  0  0  0
 86175  1  0  0  0
 87176  1  0  0  0
 89177  1  0  0  0
 90178  1  0  0  0
M  ISO  4   1 100  68 101  86 101  90 100
M  END
> <chiral flag>
0

> <version>
0

> <s_m_source_file>
/data/baiqing/PycharmProjects/Reinvent-master-3.2/result/LINK_invent/BTK/process_docking_weight1_custom_sum_contain_oxygen_bond_distance_aromatic_linkinvent_7_9_3/rearranged_h_0095.sdf

> <i_m_source_file_index>
56

> <r_mmod_Potential_Energy-OPLS-2005>
-303.650543212891

> <r_mmod_Stretch_Energy-OPLS-2005>
33.3102226257324

> <r_mmod_Bend_Energy-OPLS-2005>
107.153114318848

> <r_mmod_Torsional_Energy-OPLS-2005>
221.871276855469

> <r_mmod_Improper_Torsional_Energy-OPLS-2005>
2.37851738929749

> <r_mmod_Van_der_Waal_Energy-OPLS-2005>
143.082229614258

> <r_mmod_Electrostatic_Energy-OPLS-2005>
-594.307189941406

> <r_mmod_Solvation_Energy-OPLS-2005>
-224.689727783203

> <b_mmod_Minimization_Converged-OPLS-2005>
0

> <r_mmod_RMS_Derivative-OPLS-2005>
0.651190459728241

$$$$
56
                    3D
 Structure written by MMmdl.
164171  0  0  1  0            999 V2000
  -30.5475  -14.9275   20.4173 C   0  0  0  0  0  0
  -30.4370  -12.5724   19.5051 C   0  0  0  0  0  0
  -29.5226  -12.5282   18.2585 C   0  0  0  0  0  0
  -28.0524  -12.3213   18.6678 C   0  0  0  0  0  0
  -27.6298  -13.2467   19.8397 C   0  0  2  0  0  0
  -28.6698  -13.2682   20.9806 C   0  0  0  0  0  0
  -25.2455  -13.8219   20.5695 C   0  0  0  0  0  0
  -24.1770  -13.0445   20.9210 C   0  0  0  0  0  0
  -24.6383  -11.6927   20.8737 C   0  0  0  0  0  0
  -23.9077  -10.4295   21.0375 C   0  0  0  0  0  0
  -24.3630   -9.4218   21.9157 C   0  0  0  0  0  0
  -23.6303   -8.2253   22.0744 C   0  0  0  0  0  0
  -22.4287   -8.0276   21.3535 C   0  0  0  0  0  0
  -21.9916   -9.0240   20.4644 C   0  0  0  0  0  0
  -22.7238  -10.2122   20.3039 C   0  0  0  0  0  0
  -21.6872   -6.0732   22.5265 C   0  0  0  0  0  0
  -21.4024   -6.5629   23.8202 C   0  0  0  0  0  0
  -21.3662   -5.6786   24.9163 C   0  0  0  0  0  0
  -21.6038   -4.3049   24.7216 C   0  0  0  0  0  0
  -21.8823   -3.8141   23.4341 C   0  0  0  0  0  0
  -21.9204   -4.6952   22.3393 C   0  0  0  0  0  0
  -22.7786  -13.5215   21.1847 C   0  0  0  0  0  0
  -22.1667   -4.2140   21.0968 F   0  0  0  0  0  0
  -21.5635   -3.4534   25.7730 F   0  0  0  0  0  0
  -29.9494  -13.6705   20.3852 N   0  0  0  0  0  0
  -26.2883  -12.9444   20.3234 N   0  0  0  0  0  0
  -25.9320  -11.6577   20.5738 N   0  0  0  0  0  0
  -22.0447  -12.8214   22.0419 N   0  0  0  0  0  0
  -25.4129  -15.1951   20.4130 N   0  0  0  0  0  0
  -31.7494  -14.9918   20.1378 O   0  0  0  0  0  0
  -21.6651   -6.8864   21.4226 O   0  0  0  0  0  0
  -22.3464  -14.5503   20.6681 O   0  0  0  0  0  0
  -24.6437  -31.8443   23.1893 C   0  0  0  0  0  0
  -25.9220  -32.4686   23.8265 C   0  0  1  0  0  0
  -27.2168  -27.1455   20.1453 C   0  0  0  0  0  0
  -25.5978  -33.8497   24.2182 N   0  0  0  0  0  0
  -23.4446  -30.4633   21.5372 C   0  0  2  0  0  0
  -24.8910  -28.8890   20.1126 C   0  0  0  0  0  0
  -22.7561  -29.4548   22.4901 C   0  0  0  0  0  0
  -18.0301  -28.1404   22.8484 C   0  0  0  0  0  0
  -24.1494  -36.7258   23.2638 C   0  0  0  0  0  0
  -25.9994  -30.7193   21.3863 C   0  0  0  0  0  0
  -26.0695  -29.3322   20.7266 C   0  0  0  0  0  0
  -27.2339  -28.4780   20.7229 C   0  0  0  0  0  0
  -26.0088  -26.7968   19.5014 C   0  0  0  0  0  0
  -24.8725  -27.6351   19.4847 C   0  0  0  0  0  0
  -23.6673  -29.7910   20.1569 C   0  0  0  0  0  0
  -25.4132  -36.3027   24.0302 C   0  0  1  0  0  0
  -20.5909  -28.3723   23.1255 C   0  0  2  0  0  0
  -20.6790  -26.9435   22.5414 C   0  0  0  0  0  0
  -19.5764  -26.6390   21.5220 C   0  0  0  0  0  0
  -18.1944  -26.7945   22.1626 C   0  0  0  0  0  0
  -19.1556  -28.8886   23.2857 C   0  0  0  0  0  0
  -18.9478  -30.1486   23.8872 C   0  0  0  0  0  0
  -17.6471  -30.6601   24.0566 C   0  0  0  0  0  0
  -25.9089  -34.9402   23.5049 C   0  0  0  0  0  0
  -16.5363  -29.9093   23.6339 C   0  0  0  0  0  0
  -16.7284  -28.6516   23.0356 C   0  0  0  0  0  0
  -26.4532  -31.6545   25.0711 C   0  0  0  0  0  0
  -25.3701  -31.3711   26.1383 C   0  0  0  0  0  0
  -27.0420  -30.2947   24.6287 C   0  0  0  0  0  0
  -27.6035  -32.4321   25.7528 C   0  0  0  0  0  0
  -27.5582  -37.1771   24.8455 C   0  0  0  0  0  0
  -21.4263  -29.3037   22.3630 N   0  0  0  0  0  0
  -26.4291  -37.3749   23.9406 N   0  0  0  0  0  0
  -24.7159  -31.0295   22.0927 N   0  0  0  0  0  0
  -23.4203  -28.8095   23.3053 O   0  0  0  0  0  0
  -28.2846  -26.1808   20.1945 O   0  0  0  0  0  0
  -26.5670  -34.8899   22.4626 O   0  0  0  0  0  0
  -23.5563  -32.1319   23.7131 O   0  0  0  0  0  0
  -31.3426  -25.6024   20.9721 C   0  0  0  0  0  0
  -31.0197  -22.7142   22.1824 C   0  0  0  0  0  0
  -27.4048  -21.6789   19.6160 C   0  0  0  0  0  0
  -30.3563  -25.1098   22.0452 C   0  0  0  0  0  0
  -29.1492  -18.9695   20.4967 C   0  0  0  0  0  0
  -30.1652  -17.6329   20.3203 C   0  0  0  0  0  0
  -29.5793  -20.5740   20.1657 C   0  0  0  0  0  0
  -28.0334  -24.6414   20.1596 C   0  0  0  0  0  0
  -29.8449  -23.6578   21.8480 C   0  0  1  0  0  0
  -29.1216  -23.3664   20.4748 C   0  0  1  0  0  0
  -29.7788  -16.1156   20.5439 N   0  0  0  0  0  0
  -28.6297  -21.8319   20.4359 N   0  3  1  0  0  0
  -31.4717  -12.7264   19.1965 H   0  0  0  0  0  0
  -30.4247  -11.6193   20.0369 H   0  0  0  0  0  0
  -29.8409  -11.7340   17.5820 H   0  0  0  0  0  0
  -29.6194  -13.4623   17.7023 H   0  0  0  0  0  0
  -27.9395  -11.2779   18.9618 H   0  0  0  0  0  0
  -27.3968  -12.4700   17.8092 H   0  0  0  0  0  0
  -27.5977  -14.2518   19.4191 H   0  0  0  0  0  0
  -28.7500  -12.2932   21.4640 H   0  0  0  0  0  0
  -28.3706  -13.9741   21.7571 H   0  0  0  0  0  0
  -25.2770   -9.5710   22.4726 H   0  0  0  0  0  0
  -24.0020   -7.4660   22.7479 H   0  0  0  0  0  0
  -21.0836   -8.8743   19.8960 H   0  0  0  0  0  0
  -22.3668  -10.9652   19.6150 H   0  0  0  0  0  0
  -21.2011   -7.6138   23.9700 H   0  0  0  0  0  0
  -21.1481   -6.0513   25.9067 H   0  0  0  0  0  0
  -22.0603   -2.7603   23.2835 H   0  0  0  0  0  0
  -22.4112  -11.9923   22.4846 H   0  0  0  0  0  0
  -21.1044  -13.1198   22.2588 H   0  0  0  0  0  0
  -24.6404  -15.8446   20.5185 H   0  0  0  0  0  0
  -26.2515  -15.6360   20.0591 H   0  0  0  0  0  0
  -26.7281  -32.5287   23.0980 H   0  0  0  0  0  0
  -25.0089  -33.9601   25.0304 H   0  0  0  0  0  0
  -22.7465  -31.2894   21.3862 H   0  0  0  0  0  0
  -23.3762  -35.9583   23.3297 H   0  0  0  0  0  0
  -24.3557  -36.8902   22.2055 H   0  0  0  0  0  0
  -23.7252  -37.6447   23.6689 H   0  0  0  0  0  0
  -26.1552  -31.4749   20.6153 H   0  0  0  0  0  0
  -26.8708  -30.7662   22.0283 H   0  0  0  0  0  0
  -28.1339  -28.8160   21.2182 H   0  0  0  0  0  0
  -25.9094  -25.8385   19.0144 H   0  0  0  0  0  0
  -23.9709  -27.2941   18.9945 H   0  0  0  0  0  0
  -23.8017  -30.5651   19.4009 H   0  0  0  0  0  0
  -22.7795  -29.2340   19.8511 H   0  0  0  0  0  0
  -25.1320  -36.1845   25.0794 H   0  0  0  0  0  0
  -20.9987  -28.3312   24.1381 H   0  0  0  0  0  0
  -20.5708  -26.2334   23.3632 H   0  0  0  0  0  0
  -21.6656  -26.7467   22.1194 H   0  0  0  0  0  0
  -19.6933  -25.6296   21.1264 H   0  0  0  0  0  0
  -19.6696  -27.3191   20.6746 H   0  0  0  0  0  0
  -17.4218  -26.6701   21.4024 H   0  0  0  0  0  0
  -18.0337  -26.0088   22.9023 H   0  0  0  0  0  0
  -19.7956  -30.7319   24.2216 H   0  0  0  0  0  0
  -17.5030  -31.6275   24.5185 H   0  0  0  0  0  0
  -15.5368  -30.2989   23.7689 H   0  0  0  0  0  0
  -15.8685  -28.0832   22.7072 H   0  0  0  0  0  0
  -24.5875  -30.7089   25.7664 H   0  0  0  0  0  0
  -24.8902  -32.2895   26.4772 H   0  0  0  0  0  0
  -25.7944  -30.8871   27.0185 H   0  0  0  0  0  0
  -26.3044  -29.6657   24.1286 H   0  0  0  0  0  0
  -27.4040  -29.7250   25.4856 H   0  0  0  0  0  0
  -27.8936  -30.4196   23.9593 H   0  0  0  0  0  0
  -27.2590  -33.3618   26.2066 H   0  0  0  0  0  0
  -28.3877  -32.6895   25.0398 H   0  0  0  0  0  0
  -28.0672  -31.8487   26.5492 H   0  0  0  0  0  0
  -28.2602  -38.0064   24.7509 H   0  0  0  0  0  0
  -28.1072  -36.2601   24.6272 H   0  0  0  0  0  0
  -27.2296  -37.1416   25.8853 H   0  0  0  0  0  0
  -20.9491  -29.8712   21.6765 H   0  0  0  0  0  0
  -26.0156  -38.2813   24.1410 H   0  0  0  0  0  0
  -31.6809  -26.6136   21.1983 H   0  0  0  0  0  0
  -30.8944  -25.6290   19.9788 H   0  0  0  0  0  0
  -32.2295  -24.9706   20.9195 H   0  0  0  0  0  0
  -31.6173  -23.0903   23.0143 H   0  0  0  0  0  0
  -31.6998  -22.5931   21.3382 H   0  0  0  0  0  0
  -30.6734  -21.7355   22.5097 H   0  0  0  0  0  0
  -27.6121  -21.8580   18.5604 H   0  0  0  0  0  0
  -26.6150  -22.3555   19.9369 H   0  0  0  0  0  0
  -26.9971  -20.6719   19.7062 H   0  0  0  0  0  0
  -29.5248  -25.8039   22.1449 H   0  0  0  0  0  0
  -30.8512  -25.1874   23.0145 H   0  0  0  0  0  0
  -28.7954  -18.9528   21.5284 H   0  0  0  0  0  0
  -28.2641  -18.7547   19.8977 H   0  0  0  0  0  0
  -31.0342  -17.8083   20.9554 H   0  0  0  0  0  0
  -30.5554  -17.6733   19.3025 H   0  0  0  0  0  0
  -29.8339  -20.6182   19.1060 H   0  0  0  0  0  0
  -30.5369  -20.7249   20.6485 H   0  0  0  0  0  0
  -27.1838  -24.4826   20.8240 H   0  0  0  0  0  0
  -27.6564  -24.4516   19.1554 H   0  0  0  0  0  0
  -29.1033  -23.5073   22.6346 H   0  0  0  0  0  0
  -29.8691  -23.4352   19.6837 H   0  0  0  0  0  0
  -28.8048  -15.9512   20.7505 H   0  0  0  0  0  0
  -28.2995  -21.6761   21.3771 H   0  0  0  0  0  0
  1 25  1  0  0  0
  1 30  2  0  0  0
  1 81  1  0  0  0
  2  3  1  0  0  0
  2 25  1  0  0  0
  2 83  1  0  0  0
  2 84  1  0  0  0
  3  4  1  0  0  0
  3 85  1  0  0  0
  3 86  1  0  0  0
  4  5  1  0  0  0
  4 87  1  0  0  0
  4 88  1  0  0  0
  5  6  1  0  0  0
  5 26  1  0  0  0
  5 89  1  0  0  0
  6 25  1  0  0  0
  6 90  1  0  0  0
  6 91  1  0  0  0
  7  8  2  0  0  0
  7 26  1  0  0  0
  7 29  1  0  0  0
  8  9  1  0  0  0
  8 22  1  0  0  0
  9 10  1  0  0  0
  9 27  2  0  0  0
 10 11  2  0  0  0
 10 15  1  0  0  0
 11 12  1  0  0  0
 11 92  1  0  0  0
 12 13  2  0  0  0
 12 93  1  0  0  0
 13 14  1  0  0  0
 13 31  1  0  0  0
 14 15  2  0  0  0
 14 94  1  0  0  0
 15 95  1  0  0  0
 16 17  2  0  0  0
 16 21  1  0  0  0
 16 31  1  0  0  0
 17 18  1  0  0  0
 17 96  1  0  0  0
 18 19  2  0  0  0
 18 97  1  0  0  0
 19 20  1  0  0  0
 19 24  1  0  0  0
 20 21  2  0  0  0
 20 98  1  0  0  0
 21 23  1  0  0  0
 22 28  1  0  0  0
 22 32  2  0  0  0
 26 27  1  0  0  0
 28 99  1  0  0  0
 28100  1  0  0  0
 29101  1  0  0  0
 29102  1  0  0  0
 33 34  1  0  0  0
 33 66  1  0  0  0
 33 70  2  0  0  0
 34 36  1  0  0  0
 34 59  1  0  0  0
 34103  1  0  0  0
 35 44  2  0  0  0
 35 45  1  0  0  0
 35 68  1  0  0  0
 36 56  1  0  0  0
 36104  1  0  0  0
 37 39  1  0  0  0
 37 47  1  0  0  0
 37 66  1  0  0  0
 37105  1  0  0  0
 38 43  2  0  0  0
 38 46  1  0  0  0
 38 47  1  0  0  0
 39 64  1  0  0  0
 39 67  2  0  0  0
 40 52  1  0  0  0
 40 53  2  0  0  0
 40 58  1  0  0  0
 41106  1  0  0  0
 41107  1  0  0  0
 41108  1  0  0  0
 41 48  1  0  0  0
 42 43  1  0  0  0
 42 66  1  0  0  0
 42109  1  0  0  0
 42110  1  0  0  0
 43 44  1  0  0  0
 44111  1  0  0  0
 45 46  2  0  0  0
 45112  1  0  0  0
 46113  1  0  0  0
 47114  1  0  0  0
 47115  1  0  0  0
 48 56  1  0  0  0
 48 65  1  0  0  0
 48116  1  0  0  0
 49 50  1  0  0  0
 49 53  1  0  0  0
 49 64  1  0  0  0
 49117  1  0  0  0
 50 51  1  0  0  0
 50118  1  0  0  0
 50119  1  0  0  0
 51 52  1  0  0  0
 51120  1  0  0  0
 51121  1  0  0  0
 52122  1  0  0  0
 52123  1  0  0  0
 53 54  1  0  0  0
 54 55  2  0  0  0
 54124  1  0  0  0
 55 57  1  0  0  0
 55125  1  0  0  0
 56 69  2  0  0  0
 57 58  2  0  0  0
 57126  1  0  0  0
 58127  1  0  0  0
 59 60  1  0  0  0
 59 61  1  0  0  0
 59 62  1  0  0  0
 60128  1  0  0  0
 60129  1  0  0  0
 60130  1  0  0  0
 61131  1  0  0  0
 61132  1  0  0  0
 61133  1  0  0  0
 62134  1  0  0  0
 62135  1  0  0  0
 62136  1  0  0  0
 63 65  1  0  0  0
 63137  1  0  0  0
 63138  1  0  0  0
 63139  1  0  0  0
 64140  1  0  0  0
 65141  1  0  0  0
 68 78  1  0  0  0
 71 74  1  0  0  0
 71142  1  0  0  0
 71143  1  0  0  0
 71144  1  0  0  0
 72145  1  0  0  0
 72146  1  0  0  0
 72147  1  0  0  0
 72 79  1  0  0  0
 73148  1  0  0  0
 73149  1  0  0  0
 73150  1  0  0  0
 73 82  1  0  0  0
 74 79  1  0  0  0
 74151  1  0  0  0
 74152  1  0  0  0
 75 76  1  0  0  0
 75 77  1  0  0  0
 75153  1  0  0  0
 75154  1  0  0  0
 76 81  1  0  0  0
 76155  1  0  0  0
 76156  1  0  0  0
 77 82  1  0  0  0
 77157  1  0  0  0
 77158  1  0  0  0
 78159  1  0  0  0
 78160  1  0  0  0
 78 80  1  0  0  0
 79 80  1  0  0  0
 79161  1  0  0  0
 80 82  1  0  0  0
 80162  1  0  0  0
 81163  1  0  0  0
 82164  1  0  0  0
M  CHG  1  82   1
M  ISO  4   1 100  68 101  78 101  81 100
M  END
> <chiral flag>
0

> <version>
0

> <s_m_source_file>
/data/baiqing/PycharmProjects/Reinvent-master-3.2/result/LINK_invent/BTK/process_docking_weight1_custom_sum_contain_oxygen_bond_distance_aromatic_linkinvent_7_9_3/rearranged_h_0095.sdf

> <i_m_source_file_index>
57

> <r_mmod_Potential_Energy-OPLS-2005>
459.935668945312

> <r_mmod_Stretch_Energy-OPLS-2005>
282.786987304688

> <r_mmod_Bend_Energy-OPLS-2005>
261.578887939453

> <r_mmod_Torsional_Energy-OPLS-2005>
240.769226074219

> <r_mmod_Improper_Torsional_Energy-OPLS-2005>
4.7450385093689

> <r_mmod_Van_der_Waal_Energy-OPLS-2005>
122.429458618164

> <r_mmod_Electrostatic_Energy-OPLS-2005>
-195.646545410156

> <r_mmod_Solvation_Energy-OPLS-2005>
-435.332946777344

> <b_mmod_Minimization_Converged-OPLS-2005>
0

> <r_mmod_RMS_Derivative-OPLS-2005>
2.05113339424133

$$$$
57
                    3D
 Structure written by MMmdl.
172180  0  0  1  0            999 V2000
  -30.7248  -14.5198   20.5173 C   0  0  0  0  0  0
  -30.4172  -12.3245   19.4441 C   0  0  0  0  0  0
  -29.4999  -12.4862   18.2163 C   0  0  0  0  0  0
  -28.0168  -12.3789   18.6220 C   0  0  0  0  0  0
  -27.6543  -13.2357   19.8662 C   0  0  2  0  0  0
  -28.7002  -13.0807   20.9935 C   0  0  0  0  0  0
  -25.2513  -13.8236   20.5722 C   0  0  0  0  0  0
  -24.1831  -13.0459   20.9223 C   0  0  0  0  0  0
  -24.6448  -11.6945   20.8751 C   0  0  0  0  0  0
  -23.9134  -10.4299   21.0407 C   0  0  0  0  0  0
  -24.3667   -9.4186   21.9180 C   0  0  0  0  0  0
  -23.6323   -8.2224   22.0750 C   0  0  0  0  0  0
  -22.4297   -8.0286   21.3552 C   0  0  0  0  0  0
  -21.9961   -9.0267   20.4650 C   0  0  0  0  0  0
  -22.7299  -10.2141   20.3056 C   0  0  0  0  0  0
  -21.6850   -6.0755   22.5290 C   0  0  0  0  0  0
  -21.3995   -6.5643   23.8218 C   0  0  0  0  0  0
  -21.3659   -5.6787   24.9183 C   0  0  0  0  0  0
  -21.6052   -4.3046   24.7219 C   0  0  0  0  0  0
  -21.8821   -3.8154   23.4332 C   0  0  0  0  0  0
  -21.9189   -4.6983   22.3392 C   0  0  0  0  0  0
  -22.7821  -13.5177   21.1901 C   0  0  0  0  0  0
  -22.1656   -4.2176   21.0964 F   0  0  0  0  0  0
  -21.5650   -3.4521   25.7725 F   0  0  0  0  0  0
  -30.0211  -13.3573   20.4212 N   0  0  0  0  0  0
  -26.3003  -12.9482   20.3358 N   0  0  0  0  0  0
  -25.9381  -11.6607   20.5783 N   0  0  0  0  0  0
  -22.0491  -12.8132   22.0443 N   0  0  0  0  0  0
  -25.4122  -15.1989   20.4136 N   0  0  0  0  0  0
  -31.8950  -14.5910   20.1365 O   0  0  0  0  0  0
  -21.6630   -6.8902   21.4253 O   0  0  0  0  0  0
  -22.3455  -14.5452   20.6727 O   0  0  0  0  0  0
  -24.6196  -31.8643   23.2037 C   0  0  0  0  0  0
  -25.9034  -32.4815   23.8394 C   0  0  1  0  0  0
  -27.2267  -27.3785   20.1142 C   0  0  0  0  0  0
  -25.5884  -33.8627   24.2302 N   0  0  0  0  0  0
  -23.4137  -30.4820   21.5477 C   0  0  2  0  0  0
  -24.8584  -28.9391   20.1158 C   0  0  0  0  0  0
  -22.7467  -29.4609   22.4977 C   0  0  0  0  0  0
  -18.0302  -28.1379   22.8493 C   0  0  0  0  0  0
  -24.1490  -36.7338   23.2638 C   0  0  0  0  0  0
  -25.9463  -30.8081   21.3673 C   0  0  0  0  0  0
  -26.0220  -29.4382   20.7159 C   0  0  0  0  0  0
  -27.2130  -28.6689   20.7077 C   0  0  0  0  0  0
  -26.0509  -26.9077   19.5004 C   0  0  0  0  0  0
  -24.8695  -27.6756   19.5007 C   0  0  0  0  0  0
  -23.6252  -29.8130   20.1632 C   0  0  0  0  0  0
  -25.4121  -36.3123   24.0316 C   0  0  1  0  0  0
  -20.5896  -28.3670   23.1300 C   0  0  2  0  0  0
  -20.6819  -26.9397   22.5414 C   0  0  0  0  0  0
  -19.5776  -26.6373   21.5240 C   0  0  0  0  0  0
  -18.1946  -26.7921   22.1628 C   0  0  0  0  0  0
  -19.1550  -28.8841   23.2886 C   0  0  0  0  0  0
  -18.9472  -30.1464   23.8874 C   0  0  0  0  0  0
  -17.6452  -30.6576   24.0570 C   0  0  0  0  0  0
  -25.9037  -34.9484   23.5107 C   0  0  0  0  0  0
  -16.5360  -29.9063   23.6339 C   0  0  0  0  0  0
  -16.7288  -28.6498   23.0344 C   0  0  0  0  0  0
  -26.4435  -31.6621   25.0750 C   0  0  0  0  0  0
  -25.3689  -31.3737   26.1499 C   0  0  0  0  0  0
  -27.0274  -30.3059   24.6153 C   0  0  0  0  0  0
  -27.6002  -32.4389   25.7484 C   0  0  0  0  0  0
  -27.5594  -37.1812   24.8453 C   0  0  0  0  0  0
  -21.4195  -29.3005   22.3695 N   0  0  0  0  0  0
  -26.4322  -37.3789   23.9368 N   0  0  0  0  0  0
  -24.6790  -31.0667   22.0990 N   0  0  0  0  0  0
  -23.4199  -28.8187   23.3074 O   0  0  0  0  0  0
  -28.3748  -26.6104   20.0522 O   0  0  0  0  0  0
  -26.5618  -34.8924   22.4683 O   0  0  0  0  0  0
  -23.5353  -32.1461   23.7349 O   0  0  0  0  0  0
  -31.1206  -21.4505   18.9707 C   0  0  0  0  0  0
  -32.2696  -20.7355   18.8497 C   0  0  0  0  0  0
  -32.0996  -19.5561   19.6362 C   0  0  0  0  0  0
  -30.7872  -19.5125   20.0895 C   0  0  0  0  0  0
  -33.2260  -18.5686   19.8727 C   0  0  0  0  0  0
  -33.4970  -22.6088   17.6251 C   0  0  0  0  0  0
  -33.6513  -20.2096   16.8295 C   0  0  0  0  0  0
  -26.7533  -23.5566   20.6801 C   0  0  0  0  0  0
  -29.2032  -22.9256   20.7744 C   0  0  0  0  0  0
  -29.0020  -21.4484   20.2391 C   0  0  0  0  0  0
  -30.7080  -16.9621   20.5269 C   0  0  0  0  0  0
  -28.4720  -25.4520   20.9198 C   0  0  0  0  0  0
  -33.4984  -21.1281   18.0504 C   0  0  0  0  0  0
  -28.1777  -24.0228   20.3158 C   0  0  2  0  0  0
  -30.0158  -18.3537   20.7643 C   0  0  0  0  0  0
  -30.2579  -20.7997   19.8282 N   0  0  0  0  0  0
  -30.0534  -15.6595   20.8167 N   0  0  0  0  0  0
  -29.9227  -18.5387   22.0809 F   0  0  0  0  0  0
  -28.7771  -18.2627   20.2787 F   0  0  0  0  0  0
  -31.4634  -12.3971   19.1390 H   0  0  0  0  0  0
  -30.3131  -11.3299   19.8818 H   0  0  0  0  0  0
  -29.7375  -11.7262   17.4708 H   0  0  0  0  0  0
  -29.6841  -13.4489   17.7382 H   0  0  0  0  0  0
  -27.8054  -11.3273   18.8159 H   0  0  0  0  0  0
  -27.3826  -12.6659   17.7817 H   0  0  0  0  0  0
  -27.6754  -14.2768   19.5366 H   0  0  0  0  0  0
  -28.6818  -12.0674   21.3978 H   0  0  0  0  0  0
  -28.4826  -13.7538   21.8246 H   0  0  0  0  0  0
  -25.2841   -9.5613   22.4733 H   0  0  0  0  0  0
  -24.0045   -7.4586   22.7443 H   0  0  0  0  0  0
  -21.0913   -8.8771   19.8932 H   0  0  0  0  0  0
  -22.3789  -10.9668   19.6132 H   0  0  0  0  0  0
  -21.1953   -7.6146   23.9725 H   0  0  0  0  0  0
  -21.1503   -6.0515   25.9086 H   0  0  0  0  0  0
  -22.0613   -2.7622   23.2805 H   0  0  0  0  0  0
  -22.4132  -11.9804   22.4831 H   0  0  0  0  0  0
  -21.1087  -13.1090   22.2659 H   0  0  0  0  0  0
  -24.6386  -15.8445   20.5289 H   0  0  0  0  0  0
  -26.2536  -15.6520   20.0822 H   0  0  0  0  0  0
  -26.7115  -32.5478   23.1175 H   0  0  0  0  0  0
  -25.0052  -33.9819   25.0451 H   0  0  0  0  0  0
  -22.7045  -31.2998   21.4022 H   0  0  0  0  0  0
  -23.3745  -35.9682   23.3332 H   0  0  0  0  0  0
  -24.3585  -36.8949   22.2050 H   0  0  0  0  0  0
  -23.7252  -37.6546   23.6665 H   0  0  0  0  0  0
  -26.0617  -31.5652   20.5924 H   0  0  0  0  0  0
  -26.8360  -30.8702   21.9829 H   0  0  0  0  0  0
  -28.1164  -29.0573   21.1572 H   0  0  0  0  0  0
  -26.0486  -25.9456   19.0074 H   0  0  0  0  0  0
  -23.9792  -27.2855   19.0245 H   0  0  0  0  0  0
  -23.7385  -30.5903   19.4059 H   0  0  0  0  0  0
  -22.7507  -29.2345   19.8639 H   0  0  0  0  0  0
  -25.1290  -36.2027   25.0810 H   0  0  0  0  0  0
  -20.9987  -28.3243   24.1421 H   0  0  0  0  0  0
  -20.5795  -26.2258   23.3608 H   0  0  0  0  0  0
  -21.6680  -26.7490   22.1143 H   0  0  0  0  0  0
  -19.6960  -25.6291   21.1254 H   0  0  0  0  0  0
  -19.6725  -27.3211   20.6788 H   0  0  0  0  0  0
  -17.4243  -26.6700   21.4001 H   0  0  0  0  0  0
  -18.0311  -26.0054   22.9000 H   0  0  0  0  0  0
  -19.7932  -30.7321   24.2191 H   0  0  0  0  0  0
  -17.4998  -31.6255   24.5193 H   0  0  0  0  0  0
  -15.5343  -30.2959   23.7686 H   0  0  0  0  0  0
  -15.8695  -28.0841   22.7016 H   0  0  0  0  0  0
  -24.5865  -30.7068   25.7857 H   0  0  0  0  0  0
  -24.8854  -32.2889   26.4931 H   0  0  0  0  0  0
  -25.8041  -30.8932   27.0274 H   0  0  0  0  0  0
  -26.2822  -29.6825   24.1198 H   0  0  0  0  0  0
  -27.4024  -29.7296   25.4623 H   0  0  0  0  0  0
  -27.8666  -30.4390   23.9326 H   0  0  0  0  0  0
  -27.2615  -33.3722   26.2016 H   0  0  0  0  0  0
  -28.3802  -32.6936   25.0289 H   0  0  0  0  0  0
  -28.0694  -31.8559   26.5427 H   0  0  0  0  0  0
  -28.2602  -38.0117   24.7531 H   0  0  0  0  0  0
  -28.1109  -36.2652   24.6277 H   0  0  0  0  0  0
  -27.2305  -37.1456   25.8853 H   0  0  0  0  0  0
  -20.9393  -29.8672   21.6853 H   0  0  0  0  0  0
  -26.0227  -38.2868   24.1378 H   0  0  0  0  0  0
  -30.8521  -22.4116   18.5502 H   0  0  0  0  0  0
  -34.1802  -18.9675   19.5343 H   0  0  0  0  0  0
  -33.0814  -17.6247   19.3495 H   0  0  0  0  0  0
  -33.3420  -18.3773   20.9395 H   0  0  0  0  0  0
  -33.3445  -23.2734   18.4774 H   0  0  0  0  0  0
  -32.7151  -22.8127   16.8907 H   0  0  0  0  0  0
  -34.4490  -22.8846   17.1700 H   0  0  0  0  0  0
  -33.7265  -19.1585   17.1122 H   0  0  0  0  0  0
  -34.5459  -20.4524   16.2572 H   0  0  0  0  0  0
  -32.7879  -20.3072   16.1703 H   0  0  0  0  0  0
  -26.4484  -22.6987   20.0809 H   0  0  0  0  0  0
  -26.0081  -24.3353   20.5396 H   0  0  0  0  0  0
  -26.6974  -23.2556   21.7270 H   0  0  0  0  0  0
  -30.2015  -23.2942   20.5379 H   0  0  0  0  0  0
  -29.2010  -22.8895   21.8630 H   0  0  0  0  0  0
  -28.3426  -21.4475   19.3704 H   0  0  0  0  0  0
  -28.5156  -20.8359   20.9966 H   0  0  0  0  0  0
  -31.6353  -16.9460   21.0964 H   0  0  0  0  0  0
  -30.9679  -16.9363   19.4668 H   0  0  0  0  0  0
  -29.5038  -25.4746   21.2690 H   0  0  0  0  0  0
  -27.8765  -25.6044   21.8207 H   0  0  0  0  0  0
  -34.3619  -20.9911   18.7020 H   0  0  0  0  0  0
  -28.2603  -24.0983   19.2302 H   0  0  0  0  0  0
  -29.0758  -15.6271   21.0610 H   0  0  0  0  0  0
  1 25  1  0  0  0
  1 30  2  0  0  0
  1 87  1  0  0  0
  2  3  1  0  0  0
  2 25  1  0  0  0
  2 90  1  0  0  0
  2 91  1  0  0  0
  3  4  1  0  0  0
  3 92  1  0  0  0
  3 93  1  0  0  0
  4  5  1  0  0  0
  4 94  1  0  0  0
  4 95  1  0  0  0
  5  6  1  0  0  0
  5 26  1  0  0  0
  5 96  1  0  0  0
  6 25  1  0  0  0
  6 97  1  0  0  0
  6 98  1  0  0  0
  7  8  2  0  0  0
  7 26  1  0  0  0
  7 29  1  0  0  0
  8  9  1  0  0  0
  8 22  1  0  0  0
  9 10  1  0  0  0
  9 27  2  0  0  0
 10 11  2  0  0  0
 10 15  1  0  0  0
 11 12  1  0  0  0
 11 99  1  0  0  0
 12 13  2  0  0  0
 12100  1  0  0  0
 13 14  1  0  0  0
 13 31  1  0  0  0
 14 15  2  0  0  0
 14101  1  0  0  0
 15102  1  0  0  0
 16 17  2  0  0  0
 16 21  1  0  0  0
 16 31  1  0  0  0
 17 18  1  0  0  0
 17103  1  0  0  0
 18 19  2  0  0  0
 18104  1  0  0  0
 19 20  1  0  0  0
 19 24  1  0  0  0
 20 21  2  0  0  0
 20105  1  0  0  0
 21 23  1  0  0  0
 22 28  1  0  0  0
 22 32  2  0  0  0
 26 27  1  0  0  0
 28106  1  0  0  0
 28107  1  0  0  0
 29108  1  0  0  0
 29109  1  0  0  0
 33 34  1  0  0  0
 33 66  1  0  0  0
 33 70  2  0  0  0
 34 36  1  0  0  0
 34 59  1  0  0  0
 34110  1  0  0  0
 35 44  2  0  0  0
 35 45  1  0  0  0
 35 68  1  0  0  0
 36 56  1  0  0  0
 36111  1  0  0  0
 37 39  1  0  0  0
 37 47  1  0  0  0
 37 66  1  0  0  0
 37112  1  0  0  0
 38 43  2  0  0  0
 38 46  1  0  0  0
 38 47  1  0  0  0
 39 64  1  0  0  0
 39 67  2  0  0  0
 40 52  1  0  0  0
 40 53  2  0  0  0
 40 58  1  0  0  0
 41113  1  0  0  0
 41114  1  0  0  0
 41115  1  0  0  0
 41 48  1  0  0  0
 42 43  1  0  0  0
 42 66  1  0  0  0
 42116  1  0  0  0
 42117  1  0  0  0
 43 44  1  0  0  0
 44118  1  0  0  0
 45 46  2  0  0  0
 45119  1  0  0  0
 46120  1  0  0  0
 47121  1  0  0  0
 47122  1  0  0  0
 48 56  1  0  0  0
 48 65  1  0  0  0
 48123  1  0  0  0
 49 50  1  0  0  0
 49 53  1  0  0  0
 49 64  1  0  0  0
 49124  1  0  0  0
 50 51  1  0  0  0
 50125  1  0  0  0
 50126  1  0  0  0
 51 52  1  0  0  0
 51127  1  0  0  0
 51128  1  0  0  0
 52129  1  0  0  0
 52130  1  0  0  0
 53 54  1  0  0  0
 54 55  2  0  0  0
 54131  1  0  0  0
 55 57  1  0  0  0
 55132  1  0  0  0
 56 69  2  0  0  0
 57 58  2  0  0  0
 57133  1  0  0  0
 58134  1  0  0  0
 59 60  1  0  0  0
 59 61  1  0  0  0
 59 62  1  0  0  0
 60135  1  0  0  0
 60136  1  0  0  0
 60137  1  0  0  0
 61138  1  0  0  0
 61139  1  0  0  0
 61140  1  0  0  0
 62141  1  0  0  0
 62142  1  0  0  0
 62143  1  0  0  0
 63 65  1  0  0  0
 63144  1  0  0  0
 63145  1  0  0  0
 63146  1  0  0  0
 64147  1  0  0  0
 65148  1  0  0  0
 68 82  1  0  0  0
 71 72  2  0  0  0
 71 86  1  0  0  0
 71149  1  0  0  0
 72 73  1  0  0  0
 72 83  1  0  0  0
 73 74  2  0  0  0
 73 75  1  0  0  0
 74 85  1  0  0  0
 74 86  1  0  0  0
 75150  1  0  0  0
 75151  1  0  0  0
 75152  1  0  0  0
 76153  1  0  0  0
 76154  1  0  0  0
 76155  1  0  0  0
 76 83  1  0  0  0
 77 83  1  0  0  0
 77156  1  0  0  0
 77157  1  0  0  0
 77158  1  0  0  0
 78159  1  0  0  0
 78160  1  0  0  0
 78161  1  0  0  0
 78 84  1  0  0  0
 79 80  1  0  0  0
 79 84  1  0  0  0
 79162  1  0  0  0
 79163  1  0  0  0
 80 86  1  0  0  0
 80164  1  0  0  0
 80165  1  0  0  0
 81 85  1  0  0  0
 81 87  1  0  0  0
 81166  1  0  0  0
 81167  1  0  0  0
 82 84  1  0  0  0
 82168  1  0  0  0
 82169  1  0  0  0
 83170  1  0  0  0
 84171  1  0  0  0
 85 88  1  0  0  0
 85 89  1  0  0  0
 87172  1  0  0  0
M  ISO  4   1 100  68 101  82 101  87 100
M  END
> <chiral flag>
0

> <version>
0

> <s_m_source_file>
/data/baiqing/PycharmProjects/Reinvent-master-3.2/result/LINK_invent/BTK/process_docking_weight1_custom_sum_contain_oxygen_bond_distance_aromatic_linkinvent_7_9_3/rearranged_h_0095.sdf

> <i_m_source_file_index>
58

> <r_mmod_Potential_Energy-OPLS-2005>
-18.1924133300781

> <r_mmod_Stretch_Energy-OPLS-2005>
56.4659843444824

> <r_mmod_Bend_Energy-OPLS-2005>
141.523773193359

> <r_mmod_Torsional_Energy-OPLS-2005>
280.347076416016

> <r_mmod_Improper_Torsional_Energy-OPLS-2005>
5.77886629104614

> <r_mmod_Van_der_Waal_Energy-OPLS-2005>
134.810409545898

> <r_mmod_Electrostatic_Energy-OPLS-2005>
-472.082275390625

> <r_mmod_Solvation_Energy-OPLS-2005>
-190.040023803711

> <b_mmod_Minimization_Converged-OPLS-2005>
0

> <r_mmod_RMS_Derivative-OPLS-2005>
4.46112442016602

$$$$
58
                    3D
 Structure written by MMmdl.
179187  0  0  1  0            999 V2000
  -30.7701  -14.3866   20.6761 C   0  0  0  0  0  0
  -30.4148  -12.3007   19.3994 C   0  0  0  0  0  0
  -29.4833  -12.5225   18.1936 C   0  0  0  0  0  0
  -28.0094  -12.3646   18.6107 C   0  0  0  0  0  0
  -27.6626  -13.1945   19.8729 C   0  0  2  0  0  0
  -28.7031  -12.9512   20.9913 C   0  0  0  0  0  0
  -25.2608  -13.8137   20.5663 C   0  0  0  0  0  0
  -24.1850  -13.0436   20.9172 C   0  0  0  0  0  0
  -24.6383  -11.6893   20.8734 C   0  0  0  0  0  0
  -23.9046  -10.4289   21.0408 C   0  0  0  0  0  0
  -24.3604   -9.4205   21.9183 C   0  0  0  0  0  0
  -23.6283   -8.2240   22.0753 C   0  0  0  0  0  0
  -22.4266   -8.0278   21.3544 C   0  0  0  0  0  0
  -21.9896   -9.0250   20.4648 C   0  0  0  0  0  0
  -22.7219  -10.2131   20.3056 C   0  0  0  0  0  0
  -21.6851   -6.0731   22.5279 C   0  0  0  0  0  0
  -21.4013   -6.5636   23.8212 C   0  0  0  0  0  0
  -21.3659   -5.6791   24.9175 C   0  0  0  0  0  0
  -21.6045   -4.3053   24.7227 C   0  0  0  0  0  0
  -21.8819   -3.8143   23.4348 C   0  0  0  0  0  0
  -21.9192   -4.6959   22.3404 C   0  0  0  0  0  0
  -22.7875  -13.5245   21.1840 C   0  0  0  0  0  0
  -22.1660   -4.2144   21.0982 F   0  0  0  0  0  0
  -21.5631   -3.4538   25.7740 F   0  0  0  0  0  0
  -30.0411  -13.2570   20.4549 N   0  0  0  0  0  0
  -26.3026  -12.9280   20.3343 N   0  0  0  0  0  0
  -25.9303  -11.6454   20.5752 N   0  0  0  0  0  0
  -22.0510  -12.8245   22.0398 N   0  0  0  0  0  0
  -25.4350  -15.1852   20.4052 N   0  0  0  0  0  0
  -31.8205  -14.6213   20.0676 O   0  0  0  0  0  0
  -21.6635   -6.8872   21.4239 O   0  0  0  0  0  0
  -22.3565  -14.5557   20.6692 O   0  0  0  0  0  0
  -24.6089  -31.8710   23.2131 C   0  0  0  0  0  0
  -25.8999  -32.4843   23.8425 C   0  0  1  0  0  0
  -27.2422  -27.4728   20.0987 C   0  0  0  0  0  0
  -25.5875  -33.8647   24.2347 N   0  0  0  0  0  0
  -23.3974  -30.4906   21.5520 C   0  0  2  0  0  0
  -24.8476  -28.9586   20.1181 C   0  0  0  0  0  0
  -22.7390  -29.4649   22.5015 C   0  0  0  0  0  0
  -18.0264  -28.1378   22.8493 C   0  0  0  0  0  0
  -24.1482  -36.7329   23.2636 C   0  0  0  0  0  0
  -25.9213  -30.8445   21.3654 C   0  0  0  0  0  0
  -26.0002  -29.4793   20.7203 C   0  0  0  0  0  0
  -27.2001  -28.7406   20.7164 C   0  0  0  0  0  0
  -26.0825  -26.9598   19.4854 C   0  0  0  0  0  0
  -24.8803  -27.6944   19.5009 C   0  0  0  0  0  0
  -23.6055  -29.8188   20.1674 C   0  0  0  0  0  0
  -25.4104  -36.3132   24.0338 C   0  0  1  0  0  0
  -20.5850  -28.3650   23.1341 C   0  0  2  0  0  0
  -20.6756  -26.9392   22.5427 C   0  0  0  0  0  0
  -19.5738  -26.6385   21.5218 C   0  0  0  0  0  0
  -18.1914  -26.7926   22.1624 C   0  0  0  0  0  0
  -19.1512  -28.8832   23.2912 C   0  0  0  0  0  0
  -18.9441  -30.1442   23.8913 C   0  0  0  0  0  0
  -17.6444  -30.6585   24.0565 C   0  0  0  0  0  0
  -25.9025  -34.9492   23.5140 C   0  0  0  0  0  0
  -16.5336  -29.9087   23.6324 C   0  0  0  0  0  0
  -16.7253  -28.6504   23.0344 C   0  0  0  0  0  0
  -26.4439  -31.6623   25.0751 C   0  0  0  0  0  0
  -25.3707  -31.3749   26.1506 C   0  0  0  0  0  0
  -27.0267  -30.3065   24.6123 C   0  0  0  0  0  0
  -27.6025  -32.4344   25.7501 C   0  0  0  0  0  0
  -27.5584  -37.1814   24.8460 C   0  0  0  0  0  0
  -21.4121  -29.3020   22.3758 N   0  0  0  0  0  0
  -26.4296  -37.3811   23.9406 N   0  0  0  0  0  0
  -24.6601  -31.0835   22.1019 N   0  0  0  0  0  0
  -23.4178  -28.8194   23.3048 O   0  0  0  0  0  0
  -28.4009  -26.7421   20.0423 O   0  0  0  0  0  0
  -26.5587  -34.8927   22.4701 O   0  0  0  0  0  0
  -23.5288  -32.1450   23.7533 O   0  0  0  0  0  0
  -29.4653  -18.6485   21.6315 C   0  0  0  0  0  0
  -30.1115  -17.4759   19.6213 C   0  0  0  0  0  0
  -29.6373  -17.4287   20.9477 C   0  0  0  0  0  0
  -29.7665  -19.8509   20.9655 C   0  0  0  0  0  0
  -30.4175  -18.7216   19.0451 C   0  0  0  0  0  0
  -32.3718  -19.4283   17.5945 C   0  0  0  0  0  0
  -29.9857  -19.5449   16.6895 C   0  0  0  0  0  0
  -31.4348  -15.5820   22.6761 C   0  0  0  0  0  0
  -30.6300  -23.7455   24.5194 C   0  0  0  0  0  0
  -29.2866  -16.1054   21.6195 C   0  0  0  0  0  0
  -29.5747  -21.2030   21.6302 C   0  0  0  0  0  0
  -30.8939  -21.7827   22.1765 C   0  0  0  0  0  0
  -28.3946  -24.8753   21.5665 C   0  0  0  0  0  0
  -31.0336  -23.3230   22.1012 C   0  0  0  0  0  0
  -28.8230  -24.2647   22.9213 C   0  0  0  0  0  0
  -28.9038  -26.3033   21.3013 C   0  0  0  0  0  0
  -30.9622  -18.8151   17.6247 C   0  0  0  0  0  0
  -30.2428  -19.8867   19.7045 N   0  0  0  0  0  0
  -30.4029  -15.1511   21.7282 N   0  0  0  0  0  0
  -30.2921  -24.1162   23.1247 N   0  3  1  0  0  0
  -31.4578  -12.3959   19.0920 H   0  0  0  0  0  0
  -30.3148  -11.2807   19.7741 H   0  0  0  0  0  0
  -29.7235  -11.8171   17.3969 H   0  0  0  0  0  0
  -29.6452  -13.5191   17.7797 H   0  0  0  0  0  0
  -27.8275  -11.3060   18.8009 H   0  0  0  0  0  0
  -27.3526  -12.6417   17.7853 H   0  0  0  0  0  0
  -27.7101  -14.2395   19.5714 H   0  0  0  0  0  0
  -28.6754  -11.9069   21.3061 H   0  0  0  0  0  0
  -28.4545  -13.5192   21.8872 H   0  0  0  0  0  0
  -25.2754   -9.5682   22.4750 H   0  0  0  0  0  0
  -23.9997   -7.4631   22.7470 H   0  0  0  0  0  0
  -21.0827   -8.8765   19.8955 H   0  0  0  0  0  0
  -22.3678  -10.9668   19.6163 H   0  0  0  0  0  0
  -21.2003   -7.6144   23.9713 H   0  0  0  0  0  0
  -21.1483   -6.0523   25.9078 H   0  0  0  0  0  0
  -22.0599   -2.7605   23.2851 H   0  0  0  0  0  0
  -22.4114  -11.9898   22.4782 H   0  0  0  0  0  0
  -21.1133  -13.1282   22.2608 H   0  0  0  0  0  0
  -24.6674  -15.8401   20.5076 H   0  0  0  0  0  0
  -26.2810  -15.6206   20.0611 H   0  0  0  0  0  0
  -26.7081  -32.5564   23.1206 H   0  0  0  0  0  0
  -25.0051  -33.9835   25.0507 H   0  0  0  0  0  0
  -22.6835  -31.3043   21.4115 H   0  0  0  0  0  0
  -23.3743  -35.9663   23.3319 H   0  0  0  0  0  0
  -24.3576  -36.8921   22.2046 H   0  0  0  0  0  0
  -23.7232  -37.6540   23.6635 H   0  0  0  0  0  0
  -26.0301  -31.6086   20.5942 H   0  0  0  0  0  0
  -26.8108  -30.9011   21.9810 H   0  0  0  0  0  0
  -28.0930  -29.1465   21.1706 H   0  0  0  0  0  0
  -26.1137  -25.9943   19.0005 H   0  0  0  0  0  0
  -23.9953  -27.2889   19.0296 H   0  0  0  0  0  0
  -23.7061  -30.5906   19.4035 H   0  0  0  0  0  0
  -22.7333  -29.2298   19.8777 H   0  0  0  0  0  0
  -25.1275  -36.2011   25.0831 H   0  0  0  0  0  0
  -20.9930  -28.3205   24.1467 H   0  0  0  0  0  0
  -20.5670  -26.2249   23.3604 H   0  0  0  0  0  0
  -21.6627  -26.7450   22.1209 H   0  0  0  0  0  0
  -19.6902  -25.6298   21.1240 H   0  0  0  0  0  0
  -19.6690  -27.3203   20.6755 H   0  0  0  0  0  0
  -17.4188  -26.6675   21.4023 H   0  0  0  0  0  0
  -18.0308  -26.0071   22.9019 H   0  0  0  0  0  0
  -19.7916  -30.7255   24.2291 H   0  0  0  0  0  0
  -17.4998  -31.6265   24.5164 H   0  0  0  0  0  0
  -15.5337  -30.2995   23.7646 H   0  0  0  0  0  0
  -15.8650  -28.0835   22.7052 H   0  0  0  0  0  0
  -24.5860  -30.7113   25.7857 H   0  0  0  0  0  0
  -24.8914  -32.2917   26.4953 H   0  0  0  0  0  0
  -25.8048  -30.8922   27.0269 H   0  0  0  0  0  0
  -26.2829  -29.6862   24.1110 H   0  0  0  0  0  0
  -27.3967  -29.7267   25.4588 H   0  0  0  0  0  0
  -27.8689  -30.4398   23.9330 H   0  0  0  0  0  0
  -27.2654  -33.3635   26.2110 H   0  0  0  0  0  0
  -28.3810  -32.6923   25.0311 H   0  0  0  0  0  0
  -28.0723  -31.8456   26.5388 H   0  0  0  0  0  0
  -28.2605  -38.0109   24.7515 H   0  0  0  0  0  0
  -28.1075  -36.2641   24.6274 H   0  0  0  0  0  0
  -27.2306  -37.1453   25.8864 H   0  0  0  0  0  0
  -20.9277  -29.8746   21.6986 H   0  0  0  0  0  0
  -26.0193  -38.2894   24.1406 H   0  0  0  0  0  0
  -29.0962  -18.6658   22.6482 H   0  0  0  0  0  0
  -30.2455  -16.5743   19.0416 H   0  0  0  0  0  0
  -33.0595  -18.8505   18.2130 H   0  0  0  0  0  0
  -32.3685  -20.4514   17.9714 H   0  0  0  0  0  0
  -32.7731  -19.4468   16.5813 H   0  0  0  0  0  0
  -29.0160  -19.0463   16.6786 H   0  0  0  0  0  0
  -30.3590  -19.5665   15.6658 H   0  0  0  0  0  0
  -29.8251  -20.5748   17.0092 H   0  0  0  0  0  0
  -30.9931  -15.9490   23.6029 H   0  0  0  0  0  0
  -32.0440  -16.3806   22.2495 H   0  0  0  0  0  0
  -32.0984  -14.7557   22.9375 H   0  0  0  0  0  0
  -31.7084  -23.6478   24.6523 H   0  0  0  0  0  0
  -30.1631  -22.8038   24.8089 H   0  0  0  0  0  0
  -30.2868  -24.5112   25.2150 H   0  0  0  0  0  0
  -28.4553  -15.6801   21.0638 H   0  0  0  0  0  0
  -28.8882  -16.2948   22.6171 H   0  0  0  0  0  0
  -28.8365  -21.1161   22.4273 H   0  0  0  0  0  0
  -29.1419  -21.8736   20.8872 H   0  0  0  0  0  0
  -31.6999  -21.3962   21.5513 H   0  0  0  0  0  0
  -31.1047  -21.3871   23.1694 H   0  0  0  0  0  0
  -28.6751  -24.2256   20.7385 H   0  0  0  0  0  0
  -27.3046  -24.8962   21.5501 H   0  0  0  0  0  0
  -30.8100  -23.6742   21.0943 H   0  0  0  0  0  0
  -32.0896  -23.5604   22.2384 H   0  0  0  0  0  0
  -28.3392  -23.2967   23.0488 H   0  0  0  0  0  0
  -28.4249  -24.8934   23.7194 H   0  0  0  0  0  0
  -29.9923  -26.3139   21.2483 H   0  0  0  0  0  0
  -28.6273  -26.9694   22.1209 H   0  0  0  0  0  0
  -31.0575  -17.7961   17.2462 H   0  0  0  0  0  0
  -30.6677  -25.0488   23.0323 H   0  0  0  0  0  0
  1 25  1  0  0  0
  1 30  2  0  0  0
  1 89  1  0  0  0
  2  3  1  0  0  0
  2 25  1  0  0  0
  2 91  1  0  0  0
  2 92  1  0  0  0
  3  4  1  0  0  0
  3 93  1  0  0  0
  3 94  1  0  0  0
  4  5  1  0  0  0
  4 95  1  0  0  0
  4 96  1  0  0  0
  5  6  1  0  0  0
  5 26  1  0  0  0
  5 97  1  0  0  0
  6 25  1  0  0  0
  6 98  1  0  0  0
  6 99  1  0  0  0
  7  8  2  0  0  0
  7 26  1  0  0  0
  7 29  1  0  0  0
  8  9  1  0  0  0
  8 22  1  0  0  0
  9 10  1  0  0  0
  9 27  2  0  0  0
 10 11  2  0  0  0
 10 15  1  0  0  0
 11 12  1  0  0  0
 11100  1  0  0  0
 12 13  2  0  0  0
 12101  1  0  0  0
 13 14  1  0  0  0
 13 31  1  0  0  0
 14 15  2  0  0  0
 14102  1  0  0  0
 15103  1  0  0  0
 16 17  2  0  0  0
 16 21  1  0  0  0
 16 31  1  0  0  0
 17 18  1  0  0  0
 17104  1  0  0  0
 18 19  2  0  0  0
 18105  1  0  0  0
 19 20  1  0  0  0
 19 24  1  0  0  0
 20 21  2  0  0  0
 20106  1  0  0  0
 21 23  1  0  0  0
 22 28  1  0  0  0
 22 32  2  0  0  0
 26 27  1  0  0  0
 28107  1  0  0  0
 28108  1  0  0  0
 29109  1  0  0  0
 29110  1  0  0  0
 33 34  1  0  0  0
 33 66  1  0  0  0
 33 70  2  0  0  0
 34 36  1  0  0  0
 34 59  1  0  0  0
 34111  1  0  0  0
 35 44  2  0  0  0
 35 45  1  0  0  0
 35 68  1  0  0  0
 36 56  1  0  0  0
 36112  1  0  0  0
 37 39  1  0  0  0
 37 47  1  0  0  0
 37 66  1  0  0  0
 37113  1  0  0  0
 38 43  2  0  0  0
 38 46  1  0  0  0
 38 47  1  0  0  0
 39 64  1  0  0  0
 39 67  2  0  0  0
 40 52  1  0  0  0
 40 53  2  0  0  0
 40 58  1  0  0  0
 41114  1  0  0  0
 41115  1  0  0  0
 41116  1  0  0  0
 41 48  1  0  0  0
 42 43  1  0  0  0
 42 66  1  0  0  0
 42117  1  0  0  0
 42118  1  0  0  0
 43 44  1  0  0  0
 44119  1  0  0  0
 45 46  2  0  0  0
 45120  1  0  0  0
 46121  1  0  0  0
 47122  1  0  0  0
 47123  1  0  0  0
 48 56  1  0  0  0
 48 65  1  0  0  0
 48124  1  0  0  0
 49 50  1  0  0  0
 49 53  1  0  0  0
 49 64  1  0  0  0
 49125  1  0  0  0
 50 51  1  0  0  0
 50126  1  0  0  0
 50127  1  0  0  0
 51 52  1  0  0  0
 51128  1  0  0  0
 51129  1  0  0  0
 52130  1  0  0  0
 52131  1  0  0  0
 53 54  1  0  0  0
 54 55  2  0  0  0
 54132  1  0  0  0
 55 57  1  0  0  0
 55133  1  0  0  0
 56 69  2  0  0  0
 57 58  2  0  0  0
 57134  1  0  0  0
 58135  1  0  0  0
 59 60  1  0  0  0
 59 61  1  0  0  0
 59 62  1  0  0  0
 60136  1  0  0  0
 60137  1  0  0  0
 60138  1  0  0  0
 61139  1  0  0  0
 61140  1  0  0  0
 61141  1  0  0  0
 62142  1  0  0  0
 62143  1  0  0  0
 62144  1  0  0  0
 63 65  1  0  0  0
 63145  1  0  0  0
 63146  1  0  0  0
 63147  1  0  0  0
 64148  1  0  0  0
 65149  1  0  0  0
 68 86  1  0  0  0
 71 73  2  0  0  0
 71 74  1  0  0  0
 71150  1  0  0  0
 72 73  1  0  0  0
 72 75  2  0  0  0
 72151  1  0  0  0
 73 80  1  0  0  0
 74 81  1  0  0  0
 74 88  2  0  0  0
 75 87  1  0  0  0
 75 88  1  0  0  0
 76152  1  0  0  0
 76153  1  0  0  0
 76154  1  0  0  0
 76 87  1  0  0  0
 77 87  1  0  0  0
 77155  1  0  0  0
 77156  1  0  0  0
 77157  1  0  0  0
 78 89  1  0  0  0
 78158  1  0  0  0
 78159  1  0  0  0
 78160  1  0  0  0
 79161  1  0  0  0
 79162  1  0  0  0
 79163  1  0  0  0
 79 90  1  0  0  0
 80 89  1  0  0  0
 80164  1  0  0  0
 80165  1  0  0  0
 81 82  1  0  0  0
 81166  1  0  0  0
 81167  1  0  0  0
 82 84  1  0  0  0
 82168  1  0  0  0
 82169  1  0  0  0
 83 85  1  0  0  0
 83 86  1  0  0  0
 83170  1  0  0  0
 83171  1  0  0  0
 84 90  1  0  0  0
 84172  1  0  0  0
 84173  1  0  0  0
 85 90  1  0  0  0
 85174  1  0  0  0
 85175  1  0  0  0
 86176  1  0  0  0
 86177  1  0  0  0
 87178  1  0  0  0
 90179  1  0  0  0
M  CHG  1  90   1
M  ISO  4   1 100  68 101  86 101  89 100
M  END
> <chiral flag>
0

> <version>
0

> <s_m_source_file>
/data/baiqing/PycharmProjects/Reinvent-master-3.2/result/LINK_invent/BTK/process_docking_weight1_custom_sum_contain_oxygen_bond_distance_aromatic_linkinvent_7_9_3/rearranged_h_0095.sdf

> <i_m_source_file_index>
59

> <r_mmod_Potential_Energy-OPLS-2005>
-290.908264160156

> <r_mmod_Stretch_Energy-OPLS-2005>
34.9789695739746

> <r_mmod_Bend_Energy-OPLS-2005>
107.67896270752

> <r_mmod_Torsional_Energy-OPLS-2005>
285.223358154297

> <r_mmod_Improper_Torsional_Energy-OPLS-2005>
6.35741758346558

> <r_mmod_Van_der_Waal_Energy-OPLS-2005>
149.98616027832

> <r_mmod_Electrostatic_Energy-OPLS-2005>
-448.153503417969

> <r_mmod_Solvation_Energy-OPLS-2005>
-433.968444824219

> <b_mmod_Minimization_Converged-OPLS-2005>
0

> <r_mmod_RMS_Derivative-OPLS-2005>
0.849241137504578

$$$$
59
                    3D
 Structure written by MMmdl.
187195  0  0  1  0            999 V2000
  -30.7063  -14.3500   20.6991 C   0  0  0  0  0  0
  -30.4304  -12.2793   19.3813 C   0  0  0  0  0  0
  -29.4854  -12.5368   18.1894 C   0  0  0  0  0  0
  -28.0111  -12.3696   18.6072 C   0  0  0  0  0  0
  -27.6722  -13.1781   19.8874 C   0  0  2  0  0  0
  -28.7037  -12.8607   20.9929 C   0  0  0  0  0  0
  -25.2653  -13.8110   20.5648 C   0  0  0  0  0  0
  -24.1866  -13.0413   20.9153 C   0  0  0  0  0  0
  -24.6385  -11.6876   20.8730 C   0  0  0  0  0  0
  -23.9052  -10.4284   21.0429 C   0  0  0  0  0  0
  -24.3616   -9.4206   21.9201 C   0  0  0  0  0  0
  -23.6280   -8.2246   22.0771 C   0  0  0  0  0  0
  -22.4265   -8.0295   21.3567 C   0  0  0  0  0  0
  -21.9926   -9.0263   20.4655 C   0  0  0  0  0  0
  -22.7245  -10.2137   20.3055 C   0  0  0  0  0  0
  -21.6830   -6.0753   22.5289 C   0  0  0  0  0  0
  -21.4003   -6.5659   23.8226 C   0  0  0  0  0  0
  -21.3637   -5.6813   24.9186 C   0  0  0  0  0  0
  -21.6027   -4.3074   24.7220 C   0  0  0  0  0  0
  -21.8817   -3.8175   23.4333 C   0  0  0  0  0  0
  -21.9195   -4.6994   22.3398 C   0  0  0  0  0  0
  -22.7904  -13.5253   21.1831 C   0  0  0  0  0  0
  -22.1678   -4.2198   21.0970 F   0  0  0  0  0  0
  -21.5628   -3.4543   25.7724 F   0  0  0  0  0  0
  -30.0548  -13.1803   20.4799 N   0  0  0  0  0  0
  -26.3064  -12.9214   20.3390 N   0  0  0  0  0  0
  -25.9302  -11.6409   20.5778 N   0  0  0  0  0  0
  -22.0535  -12.8201   22.0350 N   0  0  0  0  0  0
  -25.4475  -15.1814   20.4094 N   0  0  0  0  0  0
  -31.6991  -14.7230   20.0648 O   0  0  0  0  0  0
  -21.6620   -6.8895   21.4258 O   0  0  0  0  0  0
  -22.3611  -14.5597   20.6743 O   0  0  0  0  0  0
  -24.6077  -31.8717   23.2130 C   0  0  0  0  0  0
  -25.8984  -32.4839   23.8411 C   0  0  1  0  0  0
  -27.2539  -27.4993   20.0899 C   0  0  0  0  0  0
  -25.5874  -33.8640   24.2349 N   0  0  0  0  0  0
  -23.3928  -30.4897   21.5530 C   0  0  2  0  0  0
  -24.8422  -28.9578   20.1197 C   0  0  0  0  0  0
  -22.7370  -29.4645   22.5046 C   0  0  0  0  0  0
  -18.0268  -28.1363   22.8487 C   0  0  0  0  0  0
  -24.1475  -36.7318   23.2640 C   0  0  0  0  0  0
  -25.9108  -30.8577   21.3530 C   0  0  0  0  0  0
  -25.9939  -29.4927   20.7094 C   0  0  0  0  0  0
  -27.2003  -28.7704   20.6942 C   0  0  0  0  0  0
  -26.0919  -26.9658   19.4921 C   0  0  0  0  0  0
  -24.8808  -27.6877   19.5149 C   0  0  0  0  0  0
  -23.5971  -29.8146   20.1693 C   0  0  0  0  0  0
  -25.4107  -36.3130   24.0340 C   0  0  1  0  0  0
  -20.5852  -28.3638   23.1351 C   0  0  2  0  0  0
  -20.6754  -26.9377   22.5445 C   0  0  0  0  0  0
  -19.5748  -26.6379   21.5210 C   0  0  0  0  0  0
  -18.1914  -26.7925   22.1594 C   0  0  0  0  0  0
  -19.1518  -28.8819   23.2909 C   0  0  0  0  0  0
  -18.9447  -30.1432   23.8914 C   0  0  0  0  0  0
  -17.6449  -30.6576   24.0573 C   0  0  0  0  0  0
  -25.9031  -34.9488   23.5146 C   0  0  0  0  0  0
  -16.5340  -29.9085   23.6329 C   0  0  0  0  0  0
  -16.7256  -28.6504   23.0343 C   0  0  0  0  0  0
  -26.4442  -31.6603   25.0718 C   0  0  0  0  0  0
  -25.3712  -31.3698   26.1465 C   0  0  0  0  0  0
  -27.0267  -30.3062   24.6033 C   0  0  0  0  0  0
  -27.6035  -32.4306   25.7474 C   0  0  0  0  0  0
  -27.5591  -37.1815   24.8456 C   0  0  0  0  0  0
  -21.4109  -29.3001   22.3761 N   0  0  0  0  0  0
  -26.4295  -37.3813   23.9407 N   0  0  0  0  0  0
  -24.6549  -31.0866   22.0994 N   0  0  0  0  0  0
  -23.4155  -28.8211   23.3084 O   0  0  0  0  0  0
  -28.4246  -26.7837   20.0609 O   0  0  0  0  0  0
  -26.5605  -34.8935   22.4710 O   0  0  0  0  0  0
  -23.5270  -32.1442   23.7552 O   0  0  0  0  0  0
  -29.4443  -21.8187   20.2515 C   0  0  0  0  0  0
  -29.0480  -20.5155   20.3279 C   0  0  0  0  0  0
  -27.6152  -20.5182   20.4582 C   0  0  0  0  0  0
  -27.2139  -21.8353   20.5204 C   0  0  0  0  0  0
  -24.5241  -24.1566   22.1056 C   0  0  0  0  0  0
  -26.4939  -19.5111   17.8545 C   0  0  0  0  0  0
  -25.9170  -19.1260   21.7478 C   0  0  0  0  0  0
  -29.9503  -27.1202   21.9302 C   0  0  0  0  0  0
  -31.6391  -19.8141   21.9758 C   0  0  0  0  0  0
  -29.9878  -19.3331   20.1994 C   0  0  0  0  0  0
  -25.8556  -22.4699   20.6958 C   0  0  0  0  0  0
  -25.7000  -23.1738   22.0576 C   0  0  0  0  0  0
  -25.7797  -19.2826   19.1970 C   0  0  0  0  0  0
  -29.2697  -24.7993   21.1438 C   0  0  0  0  0  0
  -28.3720  -24.0664   20.1409 C   0  0  0  0  0  0
  -29.8043  -16.5155   21.5272 C   0  0  0  0  0  0
  -31.0014  -17.4865   21.5260 C   0  0  0  0  0  0
  -26.7036  -19.2973   20.4379 C   0  0  1  0  0  0
  -28.8266  -26.2619   21.3306 C   0  0  2  0  0  0
  -28.3372  -22.6262   20.3252 N   0  0  0  0  0  0
  -30.1367  -15.0994   21.6499 N   0  0  0  0  0  0
  -30.5623  -18.9097   21.5048 N   0  3  1  0  0  0
  -31.4745  -12.3988   19.0817 H   0  0  0  0  0  0
  -30.3339  -11.2458   19.7110 H   0  0  0  0  0  0
  -29.7198  -11.8582   17.3678 H   0  0  0  0  0  0
  -29.6444  -13.5473   17.8088 H   0  0  0  0  0  0
  -27.8340  -11.3080   18.7845 H   0  0  0  0  0  0
  -27.3464  -12.6500   17.7880 H   0  0  0  0  0  0
  -27.7487  -14.2367   19.6433 H   0  0  0  0  0  0
  -28.6622  -11.7979   21.2389 H   0  0  0  0  0  0
  -28.4386  -13.3619   21.9237 H   0  0  0  0  0  0
  -25.2776   -9.5683   22.4745 H   0  0  0  0  0  0
  -24.0009   -7.4639   22.7484 H   0  0  0  0  0  0
  -21.0883   -8.8778   19.8917 H   0  0  0  0  0  0
  -22.3757  -10.9680   19.6144 H   0  0  0  0  0  0
  -21.1987   -7.6157   23.9742 H   0  0  0  0  0  0
  -21.1454   -6.0539   25.9093 H   0  0  0  0  0  0
  -22.0599   -2.7644   23.2821 H   0  0  0  0  0  0
  -22.4150  -11.9815   22.4661 H   0  0  0  0  0  0
  -21.1163  -13.1227   22.2586 H   0  0  0  0  0  0
  -24.6864  -15.8401   20.5294 H   0  0  0  0  0  0
  -26.3089  -15.6205   20.1135 H   0  0  0  0  0  0
  -26.7064  -32.5590   23.1196 H   0  0  0  0  0  0
  -25.0031  -33.9821   25.0496 H   0  0  0  0  0  0
  -22.6754  -31.3017   21.4125 H   0  0  0  0  0  0
  -23.3760  -35.9627   23.3283 H   0  0  0  0  0  0
  -24.3566  -36.8969   22.2060 H   0  0  0  0  0  0
  -23.7193  -37.6497   23.6679 H   0  0  0  0  0  0
  -26.0049  -31.6183   20.5773 H   0  0  0  0  0  0
  -26.8045  -30.9205   21.9621 H   0  0  0  0  0  0
  -28.0899  -29.2041   21.1279 H   0  0  0  0  0  0
  -26.1216  -25.9993   19.0116 H   0  0  0  0  0  0
  -23.9946  -27.2655   19.0619 H   0  0  0  0  0  0
  -23.6909  -30.5837   19.4011 H   0  0  0  0  0  0
  -22.7253  -29.2225   19.8869 H   0  0  0  0  0  0
  -25.1271  -36.2019   25.0835 H   0  0  0  0  0  0
  -20.9940  -28.3204   24.1477 H   0  0  0  0  0  0
  -20.5648  -26.2235   23.3616 H   0  0  0  0  0  0
  -21.6627  -26.7401   22.1269 H   0  0  0  0  0  0
  -19.6910  -25.6298   21.1228 H   0  0  0  0  0  0
  -19.6728  -27.3189   20.6748 H   0  0  0  0  0  0
  -17.4216  -26.6733   21.3954 H   0  0  0  0  0  0
  -18.0247  -26.0035   22.8944 H   0  0  0  0  0  0
  -19.7922  -30.7232   24.2301 H   0  0  0  0  0  0
  -17.5012  -31.6256   24.5174 H   0  0  0  0  0  0
  -15.5346  -30.2995   23.7637 H   0  0  0  0  0  0
  -15.8661  -28.0835   22.7039 H   0  0  0  0  0  0
  -24.5926  -30.6988   25.7822 H   0  0  0  0  0  0
  -24.8831  -32.2830   26.4871 H   0  0  0  0  0  0
  -25.8071  -30.8931   27.0250 H   0  0  0  0  0  0
  -26.2797  -29.6847   24.1077 H   0  0  0  0  0  0
  -27.4057  -29.7283   25.4474 H   0  0  0  0  0  0
  -27.8620  -30.4429   23.9160 H   0  0  0  0  0  0
  -27.2703  -33.3646   26.2019 H   0  0  0  0  0  0
  -28.3860  -32.6787   25.0291 H   0  0  0  0  0  0
  -28.0659  -31.8417   26.5407 H   0  0  0  0  0  0
  -28.2602  -38.0123   24.7530 H   0  0  0  0  0  0
  -28.1095  -36.2649   24.6245 H   0  0  0  0  0  0
  -27.2311  -37.1447   25.8862 H   0  0  0  0  0  0
  -20.9261  -29.8736   21.7009 H   0  0  0  0  0  0
  -26.0190  -38.2896   24.1425 H   0  0  0  0  0  0
  -30.4287  -22.2471   20.1093 H   0  0  0  0  0  0
  -24.5208  -24.6989   23.0514 H   0  0  0  0  0  0
  -23.5653  -23.6465   22.0101 H   0  0  0  0  0  0
  -24.5939  -24.8987   21.3088 H   0  0  0  0  0  0
  -25.7639  -19.6993   17.0672 H   0  0  0  0  0  0
  -27.0845  -18.6418   17.5643 H   0  0  0  0  0  0
  -27.1581  -20.3757   17.8839 H   0  0  0  0  0  0
  -26.5886  -18.9415   22.5865 H   0  0  0  0  0  0
  -25.2353  -18.2769   21.6841 H   0  0  0  0  0  0
  -25.3166  -20.0017   21.9932 H   0  0  0  0  0  0
  -30.3361  -26.6742   22.8463 H   0  0  0  0  0  0
  -29.6104  -28.1191   22.1897 H   0  0  0  0  0  0
  -30.7810  -27.2245   21.2315 H   0  0  0  0  0  0
  -31.3004  -20.8478   22.0511 H   0  0  0  0  0  0
  -32.4959  -19.7873   21.3003 H   0  0  0  0  0  0
  -31.9848  -19.5212   22.9668 H   0  0  0  0  0  0
  -30.7916  -19.5830   19.5064 H   0  0  0  0  0  0
  -29.4412  -18.5336   19.7100 H   0  0  0  0  0  0
  -25.0581  -21.7408   20.5907 H   0  0  0  0  0  0
  -25.6759  -23.1728   19.8813 H   0  0  0  0  0  0
  -25.6019  -22.4281   22.8480 H   0  0  0  0  0  0
  -26.6039  -23.7377   22.2894 H   0  0  0  0  0  0
  -25.2402  -18.3366   19.1508 H   0  0  0  0  0  0
  -25.0103  -20.0451   19.2957 H   0  0  0  0  0  0
  -30.3040  -24.7461   20.7979 H   0  0  0  0  0  0
  -29.2433  -24.2982   22.1138 H   0  0  0  0  0  0
  -28.7183  -24.2653   19.1262 H   0  0  0  0  0  0
  -27.3672  -24.4702   20.1942 H   0  0  0  0  0  0
  -29.2084  -16.6155   20.6200 H   0  0  0  0  0  0
  -29.1352  -16.7590   22.3538 H   0  0  0  0  0  0
  -31.6617  -17.3042   20.6765 H   0  0  0  0  0  0
  -31.5916  -17.2996   22.4245 H   0  0  0  0  0  0
  -27.3353  -18.4144   20.3553 H   0  0  0  0  0  0
  -27.9759  -26.2573   22.0204 H   0  0  0  0  0  0
  -29.4857  -14.5767   22.2175 H   0  0  0  0  0  0
  -29.8191  -18.9977   22.1797 H   0  0  0  0  0  0
  1 25  1  0  0  0
  1 30  2  0  0  0
  1 91  1  0  0  0
  2  3  1  0  0  0
  2 25  1  0  0  0
  2 93  1  0  0  0
  2 94  1  0  0  0
  3  4  1  0  0  0
  3 95  1  0  0  0
  3 96  1  0  0  0
  4  5  1  0  0  0
  4 97  1  0  0  0
  4 98  1  0  0  0
  5  6  1  0  0  0
  5 26  1  0  0  0
  5 99  1  0  0  0
  6 25  1  0  0  0
  6100  1  0  0  0
  6101  1  0  0  0
  7  8  2  0  0  0
  7 26  1  0  0  0
  7 29  1  0  0  0
  8  9  1  0  0  0
  8 22  1  0  0  0
  9 10  1  0  0  0
  9 27  2  0  0  0
 10 11  2  0  0  0
 10 15  1  0  0  0
 11 12  1  0  0  0
 11102  1  0  0  0
 12 13  2  0  0  0
 12103  1  0  0  0
 13 14  1  0  0  0
 13 31  1  0  0  0
 14 15  2  0  0  0
 14104  1  0  0  0
 15105  1  0  0  0
 16 17  2  0  0  0
 16 21  1  0  0  0
 16 31  1  0  0  0
 17 18  1  0  0  0
 17106  1  0  0  0
 18 19  2  0  0  0
 18107  1  0  0  0
 19 20  1  0  0  0
 19 24  1  0  0  0
 20 21  2  0  0  0
 20108  1  0  0  0
 21 23  1  0  0  0
 22 28  1  0  0  0
 22 32  2  0  0  0
 26 27  1  0  0  0
 28109  1  0  0  0
 28110  1  0  0  0
 29111  1  0  0  0
 29112  1  0  0  0
 33 34  1  0  0  0
 33 66  1  0  0  0
 33 70  2  0  0  0
 34 36  1  0  0  0
 34 59  1  0  0  0
 34113  1  0  0  0
 35 44  2  0  0  0
 35 45  1  0  0  0
 35 68  1  0  0  0
 36 56  1  0  0  0
 36114  1  0  0  0
 37 39  1  0  0  0
 37 47  1  0  0  0
 37 66  1  0  0  0
 37115  1  0  0  0
 38 43  2  0  0  0
 38 46  1  0  0  0
 38 47  1  0  0  0
 39 64  1  0  0  0
 39 67  2  0  0  0
 40 52  1  0  0  0
 40 53  2  0  0  0
 40 58  1  0  0  0
 41116  1  0  0  0
 41117  1  0  0  0
 41118  1  0  0  0
 41 48  1  0  0  0
 42 43  1  0  0  0
 42 66  1  0  0  0
 42119  1  0  0  0
 42120  1  0  0  0
 43 44  1  0  0  0
 44121  1  0  0  0
 45 46  2  0  0  0
 45122  1  0  0  0
 46123  1  0  0  0
 47124  1  0  0  0
 47125  1  0  0  0
 48 56  1  0  0  0
 48 65  1  0  0  0
 48126  1  0  0  0
 49 50  1  0  0  0
 49 53  1  0  0  0
 49 64  1  0  0  0
 49127  1  0  0  0
 50 51  1  0  0  0
 50128  1  0  0  0
 50129  1  0  0  0
 51 52  1  0  0  0
 51130  1  0  0  0
 51131  1  0  0  0
 52132  1  0  0  0
 52133  1  0  0  0
 53 54  1  0  0  0
 54 55  2  0  0  0
 54134  1  0  0  0
 55 57  1  0  0  0
 55135  1  0  0  0
 56 69  2  0  0  0
 57 58  2  0  0  0
 57136  1  0  0  0
 58137  1  0  0  0
 59 60  1  0  0  0
 59 61  1  0  0  0
 59 62  1  0  0  0
 60138  1  0  0  0
 60139  1  0  0  0
 60140  1  0  0  0
 61141  1  0  0  0
 61142  1  0  0  0
 61143  1  0  0  0
 62144  1  0  0  0
 62145  1  0  0  0
 62146  1  0  0  0
 63 65  1  0  0  0
 63147  1  0  0  0
 63148  1  0  0  0
 63149  1  0  0  0
 64150  1  0  0  0
 65151  1  0  0  0
 68 89  1  0  0  0
 71 72  2  0  0  0
 71 90  1  0  0  0
 71152  1  0  0  0
 72 73  1  0  0  0
 72 80  1  0  0  0
 73 74  2  0  0  0
 73 88  1  0  0  0
 74 81  1  0  0  0
 74 90  1  0  0  0
 75 82  1  0  0  0
 75153  1  0  0  0
 75154  1  0  0  0
 75155  1  0  0  0
 76 83  1  0  0  0
 76156  1  0  0  0
 76157  1  0  0  0
 76158  1  0  0  0
 77159  1  0  0  0
 77160  1  0  0  0
 77161  1  0  0  0
 77 88  1  0  0  0
 78162  1  0  0  0
 78163  1  0  0  0
 78164  1  0  0  0
 78 89  1  0  0  0
 79165  1  0  0  0
 79166  1  0  0  0
 79167  1  0  0  0
 79 92  1  0  0  0
 80 92  1  0  0  0
 80168  1  0  0  0
 80169  1  0  0  0
 81 82  1  0  0  0
 81170  1  0  0  0
 81171  1  0  0  0
 82172  1  0  0  0
 82173  1  0  0  0
 83 88  1  0  0  0
 83174  1  0  0  0
 83175  1  0  0  0
 84 85  1  0  0  0
 84 89  1  0  0  0
 84176  1  0  0  0
 84177  1  0  0  0
 85 90  1  0  0  0
 85178  1  0  0  0
 85179  1  0  0  0
 86 87  1  0  0  0
 86 91  1  0  0  0
 86180  1  0  0  0
 86181  1  0  0  0
 87 92  1  0  0  0
 87182  1  0  0  0
 87183  1  0  0  0
 88184  1  0  0  0
 89185  1  0  0  0
 91186  1  0  0  0
 92187  1  0  0  0
M  CHG  1  92   1
M  ISO  4   1 100  68 101  89 101  91 100
M  END
> <chiral flag>
0

> <version>
0

> <s_m_source_file>
/data/baiqing/PycharmProjects/Reinvent-master-3.2/result/LINK_invent/BTK/process_docking_weight1_custom_sum_contain_oxygen_bond_distance_aromatic_linkinvent_7_9_3/rearranged_h_0095.sdf

> <i_m_source_file_index>
60

> <r_mmod_Potential_Energy-OPLS-2005>
-251.8759765625

> <r_mmod_Stretch_Energy-OPLS-2005>
33.8191947937012

> <r_mmod_Bend_Energy-OPLS-2005>
103.267204284668

> <r_mmod_Torsional_Energy-OPLS-2005>
269.746612548828

> <r_mmod_Improper_Torsional_Energy-OPLS-2005>
5.38168144226074

> <r_mmod_Van_der_Waal_Energy-OPLS-2005>
116.899993896484

> <r_mmod_Electrostatic_Energy-OPLS-2005>
-383.067474365234

> <r_mmod_Solvation_Energy-OPLS-2005>
-406.479125976562

> <b_mmod_Minimization_Converged-OPLS-2005>
0

> <r_mmod_RMS_Derivative-OPLS-2005>
3.69453358650208

$$$$
60
                    3D
 Structure written by MMmdl.
187195  0  0  1  0            999 V2000
  -30.4119  -14.9108   20.5327 C   0  0  0  0  0  0
  -30.3986  -12.5846   19.5332 C   0  0  0  0  0  0
  -29.5129  -12.5617   18.2722 C   0  0  0  0  0  0
  -28.0342  -12.3443   18.6589 C   0  0  0  0  0  0
  -27.5986  -13.2452   19.8493 C   0  0  2  0  0  0
  -28.6031  -13.2060   21.0017 C   0  0  0  0  0  0
  -25.2178  -13.8152   20.5540 C   0  0  0  0  0  0
  -24.1656  -13.0396   20.9253 C   0  0  0  0  0  0
  -24.6286  -11.6844   20.8758 C   0  0  0  0  0  0
  -23.9020  -10.4269   21.0482 C   0  0  0  0  0  0
  -24.3609   -9.4159   21.9215 C   0  0  0  0  0  0
  -23.6277   -8.2198   22.0762 C   0  0  0  0  0  0
  -22.4284   -8.0248   21.3523 C   0  0  0  0  0  0
  -21.9908   -9.0222   20.4655 C   0  0  0  0  0  0
  -22.7223  -10.2078   20.3072 C   0  0  0  0  0  0
  -21.6817   -6.0716   22.5282 C   0  0  0  0  0  0
  -21.4019   -6.5631   23.8225 C   0  0  0  0  0  0
  -21.3673   -5.6783   24.9192 C   0  0  0  0  0  0
  -21.6051   -4.3053   24.7239 C   0  0  0  0  0  0
  -21.8811   -3.8126   23.4373 C   0  0  0  0  0  0
  -21.9190   -4.6947   22.3409 C   0  0  0  0  0  0
  -22.7672  -13.5134   21.1872 C   0  0  0  0  0  0
  -22.1652   -4.2126   21.0990 F   0  0  0  0  0  0
  -21.5636   -3.4534   25.7758 F   0  0  0  0  0  0
  -29.8673  -13.6418   20.4389 N   0  0  0  0  0  0
  -26.2620  -12.9401   20.3067 N   0  0  0  0  0  0
  -25.9143  -11.6536   20.5599 N   0  0  0  0  0  0
  -22.0370  -12.8144   22.0551 N   0  0  0  0  0  0
  -25.3653  -15.1819   20.3713 N   0  0  0  0  0  0
  -31.6046  -15.0213   20.2228 O   0  0  0  0  0  0
  -21.6608   -6.8840   21.4250 O   0  0  0  0  0  0
  -22.3382  -14.5448   20.6709 O   0  0  0  0  0  0
  -24.6334  -31.8488   23.1968 C   0  0  0  0  0  0
  -25.9158  -32.4719   23.8300 C   0  0  1  0  0  0
  -27.1342  -27.1739   20.1865 C   0  0  0  0  0  0
  -25.6015  -33.8534   24.2252 N   0  0  0  0  0  0
  -23.4265  -30.4731   21.5403 C   0  0  2  0  0  0
  -24.8799  -28.9328   20.0957 C   0  0  0  0  0  0
  -22.7488  -29.4459   22.4775 C   0  0  0  0  0  0
  -18.0454  -28.1457   22.8380 C   0  0  0  0  0  0
  -24.1494  -36.7284   23.2633 C   0  0  0  0  0  0
  -25.9832  -30.7415   21.3919 C   0  0  0  0  0  0
  -26.0443  -29.3551   20.7386 C   0  0  0  0  0  0
  -27.1913  -28.4876   20.7644 C   0  0  0  0  0  0
  -25.9680  -26.8509   19.4673 C   0  0  0  0  0  0
  -24.8451  -27.6902   19.4405 C   0  0  0  0  0  0
  -23.6611  -29.8358   20.1438 C   0  0  0  0  0  0
  -25.4119  -36.3058   24.0303 C   0  0  1  0  0  0
  -20.5821  -28.4063   23.1788 C   0  0  2  0  0  0
  -20.6467  -26.9247   22.7524 C   0  0  0  0  0  0
  -19.6667  -26.5652   21.6177 C   0  0  0  0  0  0
  -18.2399  -26.8015   22.1368 C   0  0  0  0  0  0
  -19.1495  -28.9181   23.2789 C   0  0  0  0  0  0
  -18.9119  -30.1742   23.8745 C   0  0  0  0  0  0
  -17.6113  -30.6703   24.0224 C   0  0  0  0  0  0
  -25.9077  -34.9426   23.5061 C   0  0  0  0  0  0
  -16.5193  -29.9118   23.5870 C   0  0  0  0  0  0
  -16.7340  -28.6438   23.0010 C   0  0  0  0  0  0
  -26.4541  -31.6570   25.0701 C   0  0  0  0  0  0
  -25.3713  -31.3757   26.1385 C   0  0  0  0  0  0
  -27.0411  -30.2987   24.6226 C   0  0  0  0  0  0
  -27.6077  -32.4320   25.7488 C   0  0  0  0  0  0
  -27.5587  -37.1820   24.8471 C   0  0  0  0  0  0
  -21.4154  -29.2786   22.3560 N   0  0  0  0  0  0
  -26.4286  -37.3765   23.9408 N   0  0  0  0  0  0
  -24.6952  -31.0378   22.0989 N   0  0  0  0  0  0
  -23.4135  -28.8237   23.3179 O   0  0  0  0  0  0
  -28.0702  -26.1163   20.3376 O   0  0  0  0  0  0
  -26.5632  -34.8920   22.4612 O   0  0  0  0  0  0
  -23.5485  -32.1325   23.7253 O   0  0  0  0  0  0
  -24.8284  -19.0446   20.2031 C   0  0  0  0  0  0
  -25.4962  -18.8657   21.4283 C   0  0  0  0  0  0
  -25.0456  -20.3751   20.0551 C   0  0  0  0  0  0
  -26.7641  -19.3239   21.0786 C   0  0  0  0  0  0
  -21.6391  -22.9378   17.2048 C   0  0  0  0  0  0
  -21.9198  -20.4351   16.8653 C   0  0  0  0  0  0
  -20.9029  -21.8784   24.6323 C   0  0  0  0  0  0
  -20.1452  -20.3454   22.7930 C   0  0  0  0  0  0
  -24.7043  -18.6900   22.7514 C   0  0  0  0  0  0
  -23.9185  -21.3317   19.7026 C   0  0  0  0  0  0
  -28.1618  -18.5199   21.2928 C   0  0  0  0  0  0
  -23.2094  -19.2403   22.6792 C   0  0  0  0  0  0
  -23.6730  -21.7303   18.2373 C   0  0  0  0  0  0
  -22.5028  -19.9862   23.8563 C   0  0  0  0  0  0
  -27.8833  -23.2094   20.7087 C   0  0  0  0  0  0
  -26.6028  -22.2074   20.6554 C   0  0  0  0  0  0
  -28.4248  -16.9305   20.7433 C   0  0  0  0  0  0
  -27.5218  -24.8195   20.9500 C   0  0  0  0  0  0
  -22.1696  -21.6287   17.8041 C   0  0  0  0  0  0
  -21.3737  -21.0055   23.4504 C   0  0  0  0  0  0
  -26.3355  -20.6625   20.5740 N   0  0  0  0  0  0
  -29.7147  -16.0672   21.0232 N   0  0  0  0  0  0
  -31.4269  -12.7677   19.2444 H   0  0  0  0  0  0
  -30.4008  -11.6142   20.0234 H   0  0  0  0  0  0
  -29.8296  -11.7811   17.5788 H   0  0  0  0  0  0
  -29.6189  -13.5047   17.7284 H   0  0  0  0  0  0
  -27.9203  -11.2920   18.9279 H   0  0  0  0  0  0
  -27.3850  -12.5193   17.7953 H   0  0  0  0  0  0
  -27.5802  -14.2649   19.4669 H   0  0  0  0  0  0
  -28.6616  -12.2120   21.4356 H   0  0  0  0  0  0
  -28.2719  -13.8600   21.8044 H   0  0  0  0  0  0
  -25.2748   -9.5629   22.4818 H   0  0  0  0  0  0
  -23.9991   -7.4579   22.7448 H   0  0  0  0  0  0
  -21.0854   -8.8746   19.8927 H   0  0  0  0  0  0
  -22.3713  -10.9646   19.6205 H   0  0  0  0  0  0
  -21.2014   -7.6135   23.9720 H   0  0  0  0  0  0
  -21.1512   -6.0519   25.9082 H   0  0  0  0  0  0
  -22.0578   -2.7597   23.2863 H   0  0  0  0  0  0
  -22.3994  -11.9755   22.4929 H   0  0  0  0  0  0
  -21.0925  -13.1066   22.2699 H   0  0  0  0  0  0
  -24.5566  -15.7883   20.4471 H   0  0  0  0  0  0
  -26.1108  -15.5913   19.8338 H   0  0  0  0  0  0
  -26.7186  -32.5358   23.0998 H   0  0  0  0  0  0
  -25.0232  -33.9615   25.0462 H   0  0  0  0  0  0
  -22.7247  -31.2985   21.3973 H   0  0  0  0  0  0
  -23.3762  -35.9625   23.3269 H   0  0  0  0  0  0
  -24.3592  -36.8930   22.2070 H   0  0  0  0  0  0
  -23.7269  -37.6477   23.6662 H   0  0  0  0  0  0
  -26.1312  -31.4996   20.6198 H   0  0  0  0  0  0
  -26.8626  -30.7871   22.0155 H   0  0  0  0  0  0
  -28.0772  -28.7796   21.3135 H   0  0  0  0  0  0
  -25.8877  -25.8888   18.9866 H   0  0  0  0  0  0
  -23.9521  -27.3647   18.9308 H   0  0  0  0  0  0
  -23.8229  -30.6362   19.4266 H   0  0  0  0  0  0
  -22.7742  -29.3021   19.7985 H   0  0  0  0  0  0
  -25.1297  -36.1868   25.0793 H   0  0  0  0  0  0
  -20.9675  -28.4900   24.1964 H   0  0  0  0  0  0
  -20.3567  -26.3508   23.6431 H   0  0  0  0  0  0
  -21.6750  -26.6190   22.6052 H   0  0  0  0  0  0
  -19.7776  -25.5177   21.3277 H   0  0  0  0  0  0
  -19.8874  -27.1900   20.7470 H   0  0  0  0  0  0
  -17.5605  -26.6822   21.2958 H   0  0  0  0  0  0
  -17.9672  -26.0330   22.8600 H   0  0  0  0  0  0
  -19.7341  -30.7731   24.2509 H   0  0  0  0  0  0
  -17.4252  -31.6361   24.4575 H   0  0  0  0  0  0
  -15.5090  -30.2741   23.6967 H   0  0  0  0  0  0
  -15.9073  -28.0625   22.6535 H   0  0  0  0  0  0
  -24.5887  -30.7098   25.7709 H   0  0  0  0  0  0
  -24.8872  -32.2950   26.4720 H   0  0  0  0  0  0
  -25.7956  -30.9000   27.0238 H   0  0  0  0  0  0
  -26.3036  -29.6712   24.1203 H   0  0  0  0  0  0
  -27.4070  -29.7246   25.4752 H   0  0  0  0  0  0
  -27.8916  -30.4270   23.9515 H   0  0  0  0  0  0
  -27.2690  -33.3629   26.2056 H   0  0  0  0  0  0
  -28.3929  -32.6891   25.0351 H   0  0  0  0  0  0
  -28.0741  -31.8469   26.5429 H   0  0  0  0  0  0
  -28.2579  -38.0145   24.7518 H   0  0  0  0  0  0
  -28.1101  -36.2666   24.6266 H   0  0  0  0  0  0
  -27.2305  -37.1457   25.8878 H   0  0  0  0  0  0
  -20.9279  -29.8175   21.6604 H   0  0  0  0  0  0
  -26.0144  -38.2807   24.1468 H   0  0  0  0  0  0
  -23.8504  -18.6509   19.9431 H   0  0  0  0  0  0
  -20.6063  -22.8230   16.8757 H   0  0  0  0  0  0
  -22.2329  -23.2523   16.3519 H   0  0  0  0  0  0
  -21.6510  -23.7314   17.9531 H   0  0  0  0  0  0
  -21.0877  -20.6154   16.1877 H   0  0  0  0  0  0
  -21.6803  -19.5356   17.4363 H   0  0  0  0  0  0
  -22.7940  -20.2131   16.2537 H   0  0  0  0  0  0
  -20.3388  -22.7337   24.2669 H   0  0  0  0  0  0
  -21.7398  -22.2893   25.2014 H   0  0  0  0  0  0
  -20.2616  -21.3370   25.3289 H   0  0  0  0  0  0
  -19.7307  -19.5930   23.4428 H   0  0  0  0  0  0
  -20.3885  -19.8690   21.8652 H   0  0  0  0  0  0
  -19.3426  -21.0486   22.5859 H   0  0  0  0  0  0
  -24.7075  -17.6489   23.0504 H   0  0  0  0  0  0
  -25.2508  -19.2176   23.5418 H   0  0  0  0  0  0
  -23.9230  -22.2117   20.3373 H   0  0  0  0  0  0
  -23.0075  -20.8177   20.0112 H   0  0  0  0  0  0
  -28.3619  -18.5190   22.3629 H   0  0  0  0  0  0
  -28.9229  -19.1565   20.8618 H   0  0  0  0  0  0
  -22.5316  -18.5182   22.2290 H   0  0  0  0  0  0
  -23.1947  -20.0492   21.9543 H   0  0  0  0  0  0
  -24.2980  -21.1178   17.5888 H   0  0  0  0  0  0
  -24.0340  -22.7553   18.1037 H   0  0  0  0  0  0
  -23.2657  -20.5563   24.3716 H   0  0  0  0  0  0
  -22.0910  -19.2746   24.5687 H   0  0  0  0  0  0
  -28.4961  -23.0965   19.8126 H   0  0  0  0  0  0
  -28.5083  -22.8852   21.5489 H   0  0  0  0  0  0
  -26.1550  -22.5807   19.7320 H   0  0  0  0  0  0
  -25.9394  -22.5564   21.4550 H   0  0  0  0  0  0
  -28.2894  -16.9514   19.6576 H   0  0  0  0  0  0
  -27.6075  -16.3088   21.1179 H   0  0  0  0  0  0
  -27.7292  -24.9683   22.0064 H   0  0  0  0  0  0
  -26.4338  -24.8639   20.9565 H   0  0  0  0  0  0
  -21.5154  -21.4648   18.6681 H   0  0  0  0  0  0
  -21.8378  -21.7218   22.7513 H   0  0  0  0  0  0
  -30.4336  -16.6854   21.3779 H   0  0  0  0  0  0
  1 25  1  0  0  0
  1 30  2  0  0  0
  1 92  1  0  0  0
  2  3  1  0  0  0
  2 25  1  0  0  0
  2 93  1  0  0  0
  2 94  1  0  0  0
  3  4  1  0  0  0
  3 95  1  0  0  0
  3 96  1  0  0  0
  4  5  1  0  0  0
  4 97  1  0  0  0
  4 98  1  0  0  0
  5  6  1  0  0  0
  5 26  1  0  0  0
  5 99  1  0  0  0
  6 25  1  0  0  0
  6100  1  0  0  0
  6101  1  0  0  0
  7  8  2  0  0  0
  7 26  1  0  0  0
  7 29  1  0  0  0
  8  9  1  0  0  0
  8 22  1  0  0  0
  9 10  1  0  0  0
  9 27  2  0  0  0
 10 11  2  0  0  0
 10 15  1  0  0  0
 11 12  1  0  0  0
 11102  1  0  0  0
 12 13  2  0  0  0
 12103  1  0  0  0
 13 14  1  0  0  0
 13 31  1  0  0  0
 14 15  2  0  0  0
 14104  1  0  0  0
 15105  1  0  0  0
 16 17  2  0  0  0
 16 21  1  0  0  0
 16 31  1  0  0  0
 17 18  1  0  0  0
 17106  1  0  0  0
 18 19  2  0  0  0
 18107  1  0  0  0
 19 20  1  0  0  0
 19 24  1  0  0  0
 20 21  2  0  0  0
 20108  1  0  0  0
 21 23  1  0  0  0
 22 28  1  0  0  0
 22 32  2  0  0  0
 26 27  1  0  0  0
 28109  1  0  0  0
 28110  1  0  0  0
 29111  1  0  0  0
 29112  1  0  0  0
 33 34  1  0  0  0
 33 66  1  0  0  0
 33 70  2  0  0  0
 34 36  1  0  0  0
 34 59  1  0  0  0
 34113  1  0  0  0
 35 44  2  0  0  0
 35 45  1  0  0  0
 35 68  1  0  0  0
 36 56  1  0  0  0
 36114  1  0  0  0
 37 39  1  0  0  0
 37 47  1  0  0  0
 37 66  1  0  0  0
 37115  1  0  0  0
 38 43  2  0  0  0
 38 46  1  0  0  0
 38 47  1  0  0  0
 39 64  1  0  0  0
 39 67  2  0  0  0
 40 52  1  0  0  0
 40 53  2  0  0  0
 40 58  1  0  0  0
 41116  1  0  0  0
 41117  1  0  0  0
 41118  1  0  0  0
 41 48  1  0  0  0
 42 43  1  0  0  0
 42 66  1  0  0  0
 42119  1  0  0  0
 42120  1  0  0  0
 43 44  1  0  0  0
 44121  1  0  0  0
 45 46  2  0  0  0
 45122  1  0  0  0
 46123  1  0  0  0
 47124  1  0  0  0
 47125  1  0  0  0
 48 56  1  0  0  0
 48 65  1  0  0  0
 48126  1  0  0  0
 49 50  1  0  0  0
 49 53  1  0  0  0
 49 64  1  0  0  0
 49127  1  0  0  0
 50 51  1  0  0  0
 50128  1  0  0  0
 50129  1  0  0  0
 51 52  1  0  0  0
 51130  1  0  0  0
 51131  1  0  0  0
 52132  1  0  0  0
 52133  1  0  0  0
 53 54  1  0  0  0
 54 55  2  0  0  0
 54134  1  0  0  0
 55 57  1  0  0  0
 55135  1  0  0  0
 56 69  2  0  0  0
 57 58  2  0  0  0
 57136  1  0  0  0
 58137  1  0  0  0
 59 60  1  0  0  0
 59 61  1  0  0  0
 59 62  1  0  0  0
 60138  1  0  0  0
 60139  1  0  0  0
 60140  1  0  0  0
 61141  1  0  0  0
 61142  1  0  0  0
 61143  1  0  0  0
 62144  1  0  0  0
 62145  1  0  0  0
 62146  1  0  0  0
 63 65  1  0  0  0
 63147  1  0  0  0
 63148  1  0  0  0
 63149  1  0  0  0
 64150  1  0  0  0
 65151  1  0  0  0
 68 88  1  0  0  0
 71 72  1  0  0  0
 71 73  2  0  0  0
 71152  1  0  0  0
 72 74  2  0  0  0
 72 79  1  0  0  0
 73 80  1  0  0  0
 73 91  1  0  0  0
 74 81  1  0  0  0
 74 91  1  0  0  0
 75153  1  0  0  0
 75154  1  0  0  0
 75155  1  0  0  0
 75 89  1  0  0  0
 76 89  1  0  0  0
 76156  1  0  0  0
 76157  1  0  0  0
 76158  1  0  0  0
 77159  1  0  0  0
 77160  1  0  0  0
 77161  1  0  0  0
 77 90  1  0  0  0
 78 90  1  0  0  0
 78162  1  0  0  0
 78163  1  0  0  0
 78164  1  0  0  0
 79 82  1  0  0  0
 79165  1  0  0  0
 79166  1  0  0  0
 80 83  1  0  0  0
 80167  1  0  0  0
 80168  1  0  0  0
 81 87  1  0  0  0
 81169  1  0  0  0
 81170  1  0  0  0
 82 84  1  0  0  0
 82171  1  0  0  0
 82172  1  0  0  0
 83 89  1  0  0  0
 83173  1  0  0  0
 83174  1  0  0  0
 84 90  1  0  0  0
 84175  1  0  0  0
 84176  1  0  0  0
 85 86  1  0  0  0
 85 88  1  0  0  0
 85177  1  0  0  0
 85178  1  0  0  0
 86 91  1  0  0  0
 86179  1  0  0  0
 86180  1  0  0  0
 87 92  1  0  0  0
 87181  1  0  0  0
 87182  1  0  0  0
 88183  1  0  0  0
 88184  1  0  0  0
 89185  1  0  0  0
 90186  1  0  0  0
 92187  1  0  0  0
M  ISO  4   1 100  68 101  88 101  92 100
M  END
> <chiral flag>
0

> <version>
0

> <s_m_source_file>
/data/baiqing/PycharmProjects/Reinvent-master-3.2/result/LINK_invent/BTK/process_docking_weight1_custom_sum_contain_oxygen_bond_distance_aromatic_linkinvent_7_9_3/rearranged_h_0095.sdf

> <i_m_source_file_index>
61

> <r_mmod_Potential_Energy-OPLS-2005>
1072.90087890625

> <r_mmod_Stretch_Energy-OPLS-2005>
268.219451904297

> <r_mmod_Bend_Energy-OPLS-2005>
480.226287841797

> <r_mmod_Torsional_Energy-OPLS-2005>
584.186096191406

> <r_mmod_Improper_Torsional_Energy-OPLS-2005>
24.3559894561768

> <r_mmod_Van_der_Waal_Energy-OPLS-2005>
114.066848754883

> <r_mmod_Electrostatic_Energy-OPLS-2005>
-425.316833496094

> <r_mmod_Solvation_Energy-OPLS-2005>
-188.48600769043

> <b_mmod_Minimization_Converged-OPLS-2005>
0

> <r_mmod_RMS_Derivative-OPLS-2005>
20.5454349517822

$$$$
61
                    3D
 Structure written by MMmdl.
178186  0  0  1  0            999 V2000
  -30.6228  -14.7447   20.4538 C   0  0  0  0  0  0
  -30.4319  -12.4563   19.4709 C   0  0  0  0  0  0
  -29.5089  -12.5018   18.2338 C   0  0  0  0  0  0
  -28.0363  -12.3253   18.6515 C   0  0  0  0  0  0
  -27.6404  -13.2331   19.8468 C   0  0  2  0  0  0
  -28.6873  -13.1799   20.9816 C   0  0  0  0  0  0
  -25.2508  -13.8209   20.5690 C   0  0  0  0  0  0
  -24.1812  -13.0453   20.9230 C   0  0  0  0  0  0
  -24.6398  -11.6926   20.8762 C   0  0  0  0  0  0
  -23.9077  -10.4297   21.0416 C   0  0  0  0  0  0
  -24.3635   -9.4207   21.9193 C   0  0  0  0  0  0
  -23.6304   -8.2243   22.0757 C   0  0  0  0  0  0
  -22.4280   -8.0288   21.3548 C   0  0  0  0  0  0
  -21.9919   -9.0264   20.4651 C   0  0  0  0  0  0
  -22.7250  -10.2144   20.3060 C   0  0  0  0  0  0
  -21.6858   -6.0737   22.5279 C   0  0  0  0  0  0
  -21.4014   -6.5643   23.8215 C   0  0  0  0  0  0
  -21.3658   -5.6795   24.9182 C   0  0  0  0  0  0
  -21.6047   -4.3058   24.7229 C   0  0  0  0  0  0
  -21.8821   -3.8145   23.4352 C   0  0  0  0  0  0
  -21.9196   -4.6962   22.3406 C   0  0  0  0  0  0
  -22.7836  -13.5235   21.1877 C   0  0  0  0  0  0
  -22.1657   -4.2144   21.0983 F   0  0  0  0  0  0
  -21.5630   -3.4543   25.7745 F   0  0  0  0  0  0
  -29.9871  -13.5255   20.3937 N   0  0  0  0  0  0
  -26.2938  -12.9415   20.3273 N   0  0  0  0  0  0
  -25.9329  -11.6559   20.5764 N   0  0  0  0  0  0
  -22.0476  -12.8223   22.0430 N   0  0  0  0  0  0
  -25.4174  -15.1929   20.4050 N   0  0  0  0  0  0
  -31.8165  -14.8288   20.1568 O   0  0  0  0  0  0
  -21.6645   -6.8882   21.4243 O   0  0  0  0  0  0
  -22.3503  -14.5520   20.6698 O   0  0  0  0  0  0
  -24.6318  -31.8554   23.1985 C   0  0  0  0  0  0
  -25.9144  -32.4753   23.8330 C   0  0  1  0  0  0
  -27.2179  -27.2606   20.1222 C   0  0  0  0  0  0
  -25.5942  -33.8552   24.2256 N   0  0  0  0  0  0
  -23.4288  -30.4789   21.5424 C   0  0  2  0  0  0
  -24.8749  -28.9291   20.1075 C   0  0  0  0  0  0
  -22.7508  -29.4603   22.4906 C   0  0  0  0  0  0
  -18.0297  -28.1385   22.8480 C   0  0  0  0  0  0
  -24.1494  -36.7280   23.2639 C   0  0  0  0  0  0
  -25.9748  -30.7676   21.3797 C   0  0  0  0  0  0
  -26.0472  -29.3913   20.7189 C   0  0  0  0  0  0
  -27.2213  -28.5699   20.7151 C   0  0  0  0  0  0
  -26.0216  -26.8727   19.4754 C   0  0  0  0  0  0
  -24.8682  -27.6782   19.4749 C   0  0  0  0  0  0
  -23.6462  -29.8160   20.1576 C   0  0  0  0  0  0
  -25.4119  -36.3067   24.0326 C   0  0  1  0  0  0
  -20.5902  -28.3695   23.1268 C   0  0  2  0  0  0
  -20.6783  -26.9411   22.5408 C   0  0  0  0  0  0
  -19.5760  -26.6379   21.5213 C   0  0  0  0  0  0
  -18.1941  -26.7928   22.1621 C   0  0  0  0  0  0
  -19.1550  -28.8858   23.2870 C   0  0  0  0  0  0
  -18.9468  -30.1456   23.8891 C   0  0  0  0  0  0
  -17.6466  -30.6585   24.0564 C   0  0  0  0  0  0
  -25.9059  -34.9437   23.5092 C   0  0  0  0  0  0
  -16.5357  -29.9080   23.6332 C   0  0  0  0  0  0
  -16.7282  -28.6500   23.0351 C   0  0  0  0  0  0
  -26.4508  -31.6574   25.0715 C   0  0  0  0  0  0
  -25.3730  -31.3724   26.1435 C   0  0  0  0  0  0
  -27.0352  -30.2989   24.6200 C   0  0  0  0  0  0
  -27.6062  -32.4311   25.7492 C   0  0  0  0  0  0
  -27.5581  -37.1795   24.8464 C   0  0  0  0  0  0
  -21.4214  -29.3043   22.3659 N   0  0  0  0  0  0
  -26.4291  -37.3767   23.9410 N   0  0  0  0  0  0
  -24.6979  -31.0519   22.0968 N   0  0  0  0  0  0
  -23.4204  -28.8135   23.3005 O   0  0  0  0  0  0
  -28.3064  -26.3558   20.1885 O   0  0  0  0  0  0
  -26.5627  -34.8915   22.4658 O   0  0  0  0  0  0
  -23.5470  -32.1367   23.7285 O   0  0  0  0  0  0
  -28.2368  -21.4632   22.3828 C   0  0  0  0  0  0
  -27.9782  -20.3249   23.1796 C   0  0  0  0  0  0
  -28.7464  -21.0953   21.1704 C   0  0  0  0  0  0
  -28.3620  -19.2335   22.4494 C   0  0  0  0  0  0
  -28.2083  -17.7905   22.8328 C   0  0  0  0  0  0
  -23.7493  -19.4369   21.0764 C   0  0  0  0  0  0
  -22.4000  -18.0177   22.6615 C   0  0  0  0  0  0
  -27.3410  -20.3499   24.5556 C   0  0  0  0  0  0
  -28.9737  -22.1641   20.0482 C   0  0  0  0  0  0
  -29.1225  -23.7507   20.4325 C   0  0  0  0  0  0
  -23.6347  -20.0462   23.5611 C   0  0  0  0  0  0
  -29.3678  -18.6068   20.2008 C   0  0  0  0  0  0
  -30.3286  -17.3570   20.6404 C   0  0  0  0  0  0
  -24.9958  -20.7436   23.7702 C   0  0  0  0  0  0
  -28.0611  -24.8823   19.9739 C   0  0  0  0  0  0
  -23.6459  -18.9046   22.5162 C   0  0  0  0  0  0
  -28.8997  -19.6426   21.2188 N   0  0  0  0  0  0
  -29.8642  -15.8923   20.6393 N   0  0  0  0  0  0
  -25.9401  -19.8852   24.5193 N   0  3  0  0  0  0
  -31.4724  -12.5789   19.1658 H   0  0  0  0  0  0
  -30.3759  -11.4827   19.9609 H   0  0  0  0  0  0
  -29.7945  -11.7257   17.5222 H   0  0  0  0  0  0
  -29.6309  -13.4536   17.7138 H   0  0  0  0  0  0
  -27.8985  -11.2785   18.9240 H   0  0  0  0  0  0
  -27.3778  -12.5070   17.8017 H   0  0  0  0  0  0
  -27.6306  -14.2509   19.4571 H   0  0  0  0  0  0
  -28.7239  -12.1871   21.4318 H   0  0  0  0  0  0
  -28.4250  -13.8741   21.7816 H   0  0  0  0  0  0
  -25.2783   -9.5695   22.4765 H   0  0  0  0  0  0
  -24.0027   -7.4635   22.7472 H   0  0  0  0  0  0
  -21.0850   -8.8782   19.8951 H   0  0  0  0  0  0
  -22.3706  -10.9691   19.6170 H   0  0  0  0  0  0
  -21.2001   -7.6150   23.9718 H   0  0  0  0  0  0
  -21.1478   -6.0526   25.9085 H   0  0  0  0  0  0
  -22.0601   -2.7605   23.2858 H   0  0  0  0  0  0
  -22.4094  -11.9897   22.4834 H   0  0  0  0  0  0
  -21.1088  -13.1240   22.2602 H   0  0  0  0  0  0
  -24.6374  -15.8351   20.4881 H   0  0  0  0  0  0
  -26.2415  -15.6225   20.0074 H   0  0  0  0  0  0
  -26.7207  -32.5402   23.1071 H   0  0  0  0  0  0
  -25.0096  -33.9696   25.0408 H   0  0  0  0  0  0
  -22.7246  -31.3010   21.3983 H   0  0  0  0  0  0
  -23.3763  -35.9606   23.3293 H   0  0  0  0  0  0
  -24.3589  -36.8908   22.2056 H   0  0  0  0  0  0
  -23.7242  -37.6475   23.6665 H   0  0  0  0  0  0
  -26.1160  -31.5314   20.6136 H   0  0  0  0  0  0
  -26.8513  -30.8144   22.0138 H   0  0  0  0  0  0
  -28.1168  -28.9184   21.2104 H   0  0  0  0  0  0
  -25.9448  -25.9200   18.9741 H   0  0  0  0  0  0
  -23.9732  -27.3216   18.9839 H   0  0  0  0  0  0
  -23.7709  -30.5942   19.4039 H   0  0  0  0  0  0
  -22.7642  -29.2509   19.8510 H   0  0  0  0  0  0
  -25.1306  -36.1915   25.0818 H   0  0  0  0  0  0
  -20.9992  -28.3276   24.1391 H   0  0  0  0  0  0
  -20.5689  -26.2306   23.3614 H   0  0  0  0  0  0
  -21.6649  -26.7438   22.1200 H   0  0  0  0  0  0
  -19.6923  -25.6291   21.1245 H   0  0  0  0  0  0
  -19.6700  -27.3189   20.6744 H   0  0  0  0  0  0
  -17.4212  -26.6681   21.4022 H   0  0  0  0  0  0
  -18.0333  -26.0072   22.9016 H   0  0  0  0  0  0
  -19.7942  -30.7276   24.2258 H   0  0  0  0  0  0
  -17.5018  -31.6267   24.5161 H   0  0  0  0  0  0
  -15.5356  -30.2978   23.7660 H   0  0  0  0  0  0
  -15.8682  -28.0817   22.7063 H   0  0  0  0  0  0
  -24.5918  -30.7059   25.7762 H   0  0  0  0  0  0
  -24.8907  -32.2891   26.4836 H   0  0  0  0  0  0
  -25.8047  -30.8919   27.0225 H   0  0  0  0  0  0
  -26.2929  -29.6735   24.1224 H   0  0  0  0  0  0
  -27.4035  -29.7255   25.4718 H   0  0  0  0  0  0
  -27.8812  -30.4264   23.9443 H   0  0  0  0  0  0
  -27.2672  -33.3622   26.2051 H   0  0  0  0  0  0
  -28.3884  -32.6853   25.0324 H   0  0  0  0  0  0
  -28.0716  -31.8443   26.5424 H   0  0  0  0  0  0
  -28.2592  -38.0097   24.7516 H   0  0  0  0  0  0
  -28.1085  -36.2628   24.6288 H   0  0  0  0  0  0
  -27.2300  -37.1441   25.8867 H   0  0  0  0  0  0
  -20.9397  -29.8770   21.6870 H   0  0  0  0  0  0
  -26.0173  -38.2842   24.1409 H   0  0  0  0  0  0
  -28.0052  -22.4802   22.6693 H   0  0  0  0  0  0
  -27.4993  -17.6658   23.6489 H   0  0  0  0  0  0
  -29.1526  -17.3671   23.1731 H   0  0  0  0  0  0
  -27.8271  -17.1950   22.0046 H   0  0  0  0  0  0
  -23.7315  -18.6214   20.3523 H   0  0  0  0  0  0
  -24.6731  -19.9905   20.9085 H   0  0  0  0  0  0
  -22.9170  -20.1005   20.8390 H   0  0  0  0  0  0
  -22.4015  -17.2090   21.9296 H   0  0  0  0  0  0
  -21.4837  -18.5914   22.5177 H   0  0  0  0  0  0
  -22.3527  -17.5572   23.6492 H   0  0  0  0  0  0
  -27.3890  -21.3572   24.9713 H   0  0  0  0  0  0
  -27.9158  -19.7079   25.2235 H   0  0  0  0  0  0
  -28.1633  -22.0720   19.3243 H   0  0  0  0  0  0
  -29.8660  -21.8747   19.4916 H   0  0  0  0  0  0
  -30.0721  -24.0649   19.9994 H   0  0  0  0  0  0
  -29.2937  -23.8512   21.5026 H   0  0  0  0  0  0
  -22.9001  -20.7931   23.2568 H   0  0  0  0  0  0
  -23.2782  -19.6720   24.5222 H   0  0  0  0  0  0
  -28.4820  -18.2139   19.7013 H   0  0  0  0  0  0
  -29.8926  -19.1669   19.4263 H   0  0  0  0  0  0
  -30.7821  -17.5732   21.6072 H   0  0  0  0  0  0
  -31.1751  -17.3922   19.9531 H   0  0  0  0  0  0
  -24.8521  -21.6671   24.3337 H   0  0  0  0  0  0
  -25.4122  -21.0357   22.8063 H   0  0  0  0  0  0
  -27.1208  -24.6214   20.4620 H   0  0  0  0  0  0
  -27.8941  -24.7461   18.9052 H   0  0  0  0  0  0
  -24.5102  -18.2643   22.6971 H   0  0  0  0  0  0
  -28.8834  -15.7352   20.8095 H   0  0  0  0  0  0
  -25.6175  -19.8051   25.4705 H   0  0  0  0  0  0
  -25.9367  -18.9653   24.1153 H   0  0  0  0  0  0
  1 25  1  0  0  0
  1 30  2  0  0  0
  1 88  1  0  0  0
  2  3  1  0  0  0
  2 25  1  0  0  0
  2 90  1  0  0  0
  2 91  1  0  0  0
  3  4  1  0  0  0
  3 92  1  0  0  0
  3 93  1  0  0  0
  4  5  1  0  0  0
  4 94  1  0  0  0
  4 95  1  0  0  0
  5  6  1  0  0  0
  5 26  1  0  0  0
  5 96  1  0  0  0
  6 25  1  0  0  0
  6 97  1  0  0  0
  6 98  1  0  0  0
  7  8  2  0  0  0
  7 26  1  0  0  0
  7 29  1  0  0  0
  8  9  1  0  0  0
  8 22  1  0  0  0
  9 10  1  0  0  0
  9 27  2  0  0  0
 10 11  2  0  0  0
 10 15  1  0  0  0
 11 12  1  0  0  0
 11 99  1  0  0  0
 12 13  2  0  0  0
 12100  1  0  0  0
 13 14  1  0  0  0
 13 31  1  0  0  0
 14 15  2  0  0  0
 14101  1  0  0  0
 15102  1  0  0  0
 16 17  2  0  0  0
 16 21  1  0  0  0
 16 31  1  0  0  0
 17 18  1  0  0  0
 17103  1  0  0  0
 18 19  2  0  0  0
 18104  1  0  0  0
 19 20  1  0  0  0
 19 24  1  0  0  0
 20 21  2  0  0  0
 20105  1  0  0  0
 21 23  1  0  0  0
 22 28  1  0  0  0
 22 32  2  0  0  0
 26 27  1  0  0  0
 28106  1  0  0  0
 28107  1  0  0  0
 29108  1  0  0  0
 29109  1  0  0  0
 33 34  1  0  0  0
 33 66  1  0  0  0
 33 70  2  0  0  0
 34 36  1  0  0  0
 34 59  1  0  0  0
 34110  1  0  0  0
 35 44  2  0  0  0
 35 45  1  0  0  0
 35 68  1  0  0  0
 36 56  1  0  0  0
 36111  1  0  0  0
 37 39  1  0  0  0
 37 47  1  0  0  0
 37 66  1  0  0  0
 37112  1  0  0  0
 38 43  2  0  0  0
 38 46  1  0  0  0
 38 47  1  0  0  0
 39 64  1  0  0  0
 39 67  2  0  0  0
 40 52  1  0  0  0
 40 53  2  0  0  0
 40 58  1  0  0  0
 41113  1  0  0  0
 41114  1  0  0  0
 41115  1  0  0  0
 41 48  1  0  0  0
 42 43  1  0  0  0
 42 66  1  0  0  0
 42116  1  0  0  0
 42117  1  0  0  0
 43 44  1  0  0  0
 44118  1  0  0  0
 45 46  2  0  0  0
 45119  1  0  0  0
 46120  1  0  0  0
 47121  1  0  0  0
 47122  1  0  0  0
 48 56  1  0  0  0
 48 65  1  0  0  0
 48123  1  0  0  0
 49 50  1  0  0  0
 49 53  1  0  0  0
 49 64  1  0  0  0
 49124  1  0  0  0
 50 51  1  0  0  0
 50125  1  0  0  0
 50126  1  0  0  0
 51 52  1  0  0  0
 51127  1  0  0  0
 51128  1  0  0  0
 52129  1  0  0  0
 52130  1  0  0  0
 53 54  1  0  0  0
 54 55  2  0  0  0
 54131  1  0  0  0
 55 57  1  0  0  0
 55132  1  0  0  0
 56 69  2  0  0  0
 57 58  2  0  0  0
 57133  1  0  0  0
 58134  1  0  0  0
 59 60  1  0  0  0
 59 61  1  0  0  0
 59 62  1  0  0  0
 60135  1  0  0  0
 60136  1  0  0  0
 60137  1  0  0  0
 61138  1  0  0  0
 61139  1  0  0  0
 61140  1  0  0  0
 62141  1  0  0  0
 62142  1  0  0  0
 62143  1  0  0  0
 63 65  1  0  0  0
 63144  1  0  0  0
 63145  1  0  0  0
 63146  1  0  0  0
 64147  1  0  0  0
 65148  1  0  0  0
 68 85  1  0  0  0
 71 72  1  0  0  0
 71 73  2  0  0  0
 71149  1  0  0  0
 72 74  2  0  0  0
 72 78  1  0  0  0
 73 79  1  0  0  0
 73 87  1  0  0  0
 74 75  1  0  0  0
 74 87  1  0  0  0
 75150  1  0  0  0
 75151  1  0  0  0
 75152  1  0  0  0
 76153  1  0  0  0
 76154  1  0  0  0
 76155  1  0  0  0
 76 86  1  0  0  0
 77 86  1  0  0  0
 77156  1  0  0  0
 77157  1  0  0  0
 77158  1  0  0  0
 78 89  1  0  0  0
 78159  1  0  0  0
 78160  1  0  0  0
 79 80  1  0  0  0
 79161  1  0  0  0
 79162  1  0  0  0
 80 85  1  0  0  0
 80163  1  0  0  0
 80164  1  0  0  0
 81 84  1  0  0  0
 81 86  1  0  0  0
 81165  1  0  0  0
 81166  1  0  0  0
 82 83  1  0  0  0
 82 87  1  0  0  0
 82167  1  0  0  0
 82168  1  0  0  0
 83 88  1  0  0  0
 83169  1  0  0  0
 83170  1  0  0  0
 84 89  1  0  0  0
 84171  1  0  0  0
 84172  1  0  0  0
 85173  1  0  0  0
 85174  1  0  0  0
 86175  1  0  0  0
 88176  1  0  0  0
 89177  1  0  0  0
 89178  1  0  0  0
M  CHG  1  89   1
M  ISO  4   1 100  68 101  85 101  88 100
M  END
> <chiral flag>
0

> <version>
0

> <s_m_source_file>
/data/baiqing/PycharmProjects/Reinvent-master-3.2/result/LINK_invent/BTK/process_docking_weight1_custom_sum_contain_oxygen_bond_distance_aromatic_linkinvent_7_9_3/rearranged_h_0095.sdf

> <i_m_source_file_index>
62

> <r_mmod_Potential_Energy-OPLS-2005>
-0.596785187721252

> <r_mmod_Stretch_Energy-OPLS-2005>
139.037551879883

> <r_mmod_Bend_Energy-OPLS-2005>
200.899002075195

> <r_mmod_Torsional_Energy-OPLS-2005>
242.845855712891

> <r_mmod_Improper_Torsional_Energy-OPLS-2005>
5.70085668563843

> <r_mmod_Van_der_Waal_Energy-OPLS-2005>
108.629943847656

> <r_mmod_Electrostatic_Energy-OPLS-2005>
-333.312591552734

> <r_mmod_Solvation_Energy-OPLS-2005>
-452.31298828125

> <b_mmod_Minimization_Converged-OPLS-2005>
0

> <r_mmod_RMS_Derivative-OPLS-2005>
1.36237609386444

$$$$
62
                    3D
 Structure written by MMmdl.
170177  0  0  1  0            999 V2000
  -30.7289  -14.3841   20.6404 C   0  0  0  0  0  0
  -30.4237  -12.2698   19.4105 C   0  0  0  0  0  0
  -29.4955  -12.5134   18.2037 C   0  0  0  0  0  0
  -28.0145  -12.3796   18.6131 C   0  0  0  0  0  0
  -27.6707  -13.1961   19.8876 C   0  0  2  0  0  0
  -28.7095  -12.9202   20.9999 C   0  0  0  0  0  0
  -25.2632  -13.8153   20.5658 C   0  0  0  0  0  0
  -24.1864  -13.0435   20.9160 C   0  0  0  0  0  0
  -24.6400  -11.6898   20.8725 C   0  0  0  0  0  0
  -23.9049  -10.4288   21.0386 C   0  0  0  0  0  0
  -24.3595   -9.4222   21.9178 C   0  0  0  0  0  0
  -23.6266   -8.2252   22.0758 C   0  0  0  0  0  0
  -22.4260   -8.0269   21.3530 C   0  0  0  0  0  0
  -21.9891   -9.0247   20.4638 C   0  0  0  0  0  0
  -22.7215  -10.2127   20.3050 C   0  0  0  0  0  0
  -21.6849   -6.0721   22.5271 C   0  0  0  0  0  0
  -21.4017   -6.5629   23.8205 C   0  0  0  0  0  0
  -21.3663   -5.6784   24.9165 C   0  0  0  0  0  0
  -21.6046   -4.3041   24.7226 C   0  0  0  0  0  0
  -21.8817   -3.8136   23.4347 C   0  0  0  0  0  0
  -21.9190   -4.6950   22.3400 C   0  0  0  0  0  0
  -22.7890  -13.5247   21.1795 C   0  0  0  0  0  0
  -22.1657   -4.2140   21.0970 F   0  0  0  0  0  0
  -21.5635   -3.4531   25.7739 F   0  0  0  0  0  0
  -30.0515  -13.2208   20.4671 N   0  0  0  0  0  0
  -26.3069  -12.9299   20.3419 N   0  0  0  0  0  0
  -25.9328  -11.6461   20.5787 N   0  0  0  0  0  0
  -22.0485  -12.8244   22.0334 N   0  0  0  0  0  0
  -25.4353  -15.1873   20.4001 N   0  0  0  0  0  0
  -31.7917  -14.6489   20.0697 O   0  0  0  0  0  0
  -21.6635   -6.8857   21.4226 O   0  0  0  0  0  0
  -22.3591  -14.5568   20.6657 O   0  0  0  0  0  0
  -24.6117  -31.8702   23.2122 C   0  0  0  0  0  0
  -25.9016  -32.4837   23.8416 C   0  0  1  0  0  0
  -27.2424  -27.4530   20.0856 C   0  0  0  0  0  0
  -25.5891  -33.8637   24.2358 N   0  0  0  0  0  0
  -23.3973  -30.4917   21.5540 C   0  0  2  0  0  0
  -24.8410  -28.9579   20.1221 C   0  0  0  0  0  0
  -22.7398  -29.4659   22.5042 C   0  0  0  0  0  0
  -18.0278  -28.1346   22.8508 C   0  0  0  0  0  0
  -24.1496  -36.7296   23.2641 C   0  0  0  0  0  0
  -25.9249  -30.8389   21.3628 C   0  0  0  0  0  0
  -26.0010  -29.4757   20.7083 C   0  0  0  0  0  0
  -27.1994  -28.7320   20.6835 C   0  0  0  0  0  0
  -26.0523  -26.9352   19.5200 C   0  0  0  0  0  0
  -24.8600  -27.6839   19.5311 C   0  0  0  0  0  0
  -23.6001  -29.8199   20.1706 C   0  0  0  0  0  0
  -25.4118  -36.3121   24.0356 C   0  0  1  0  0  0
  -20.5866  -28.3623   23.1339 C   0  0  2  0  0  0
  -20.6782  -26.9371   22.5426 C   0  0  0  0  0  0
  -19.5751  -26.6377   21.5231 C   0  0  0  0  0  0
  -18.1924  -26.7910   22.1625 C   0  0  0  0  0  0
  -19.1529  -28.8811   23.2910 C   0  0  0  0  0  0
  -18.9456  -30.1425   23.8910 C   0  0  0  0  0  0
  -17.6459  -30.6573   24.0558 C   0  0  0  0  0  0
  -25.9042  -34.9486   23.5159 C   0  0  0  0  0  0
  -16.5344  -29.9072   23.6328 C   0  0  0  0  0  0
  -16.7273  -28.6472   23.0383 C   0  0  0  0  0  0
  -26.4454  -31.6606   25.0736 C   0  0  0  0  0  0
  -25.3719  -31.3701   26.1486 C   0  0  0  0  0  0
  -27.0312  -30.3061   24.6091 C   0  0  0  0  0  0
  -27.6051  -32.4318   25.7477 C   0  0  0  0  0  0
  -27.5590  -37.1803   24.8475 C   0  0  0  0  0  0
  -21.4140  -29.2993   22.3755 N   0  0  0  0  0  0
  -26.4309  -37.3790   23.9417 N   0  0  0  0  0  0
  -24.6625  -31.0818   22.1006 N   0  0  0  0  0  0
  -23.4179  -28.8224   23.3094 O   0  0  0  0  0  0
  -28.4622  -26.8044   20.0657 O   0  0  0  0  0  0
  -26.5604  -34.8925   22.4720 O   0  0  0  0  0  0
  -23.5320  -32.1440   23.7529 O   0  0  0  0  0  0
  -29.7724  -24.5499   21.6599 C   0  0  0  0  0  0
  -28.8581  -22.4408   19.3440 C   0  0  0  0  0  0
  -26.5148  -23.0718   20.0564 C   0  0  0  0  0  0
  -26.9381  -18.8409   23.1837 C   0  0  0  0  0  0
  -29.4091  -17.5006   22.2965 C   0  0  0  0  0  0
  -28.1569  -22.0664   21.7289 C   0  0  0  0  0  0
  -30.3794  -16.7239   21.3790 C   0  0  0  0  0  0
  -28.9492  -18.8433   21.6784 C   0  0  0  0  0  0
  -27.3646  -20.7354   21.6717 C   0  0  0  0  0  0
  -28.5726  -25.4456   19.6395 C   0  0  0  0  0  0
  -28.4576  -24.4776   20.8529 C   0  0  1  0  0  0
  -28.0013  -23.0165   20.4954 C   0  0  0  0  0  0
  -30.1051  -15.2892   21.4025 N   0  0  0  0  0  0
  -27.9739  -19.6441   22.4854 N   0  3  1  0  0  0
  -31.4730  -12.3617   19.1214 H   0  0  0  0  0  0
  -30.3082  -11.2480   19.7771 H   0  0  0  0  0  0
  -29.7252  -11.8089   17.4042 H   0  0  0  0  0  0
  -29.6750  -13.5098   17.7976 H   0  0  0  0  0  0
  -27.8075  -11.3226   18.7854 H   0  0  0  0  0  0
  -27.3695  -12.6834   17.7886 H   0  0  0  0  0  0
  -27.7324  -14.2507   19.6187 H   0  0  0  0  0  0
  -28.6754  -11.8705   21.2946 H   0  0  0  0  0  0
  -28.4703  -13.4725   21.9087 H   0  0  0  0  0  0
  -25.2730   -9.5711   22.4769 H   0  0  0  0  0  0
  -23.9968   -7.4657   22.7490 H   0  0  0  0  0  0
  -21.0828   -8.8769   19.8942 H   0  0  0  0  0  0
  -22.3669  -10.9669   19.6174 H   0  0  0  0  0  0
  -21.2017   -7.6135   23.9724 H   0  0  0  0  0  0
  -21.1488   -6.0492   25.9066 H   0  0  0  0  0  0
  -22.0598   -2.7600   23.2842 H   0  0  0  0  0  0
  -22.4027  -11.9867   22.4714 H   0  0  0  0  0  0
  -21.1132  -13.1350   22.2541 H   0  0  0  0  0  0
  -24.6571  -15.8317   20.4787 H   0  0  0  0  0  0
  -26.2734  -15.6194   20.0315 H   0  0  0  0  0  0
  -26.7075  -32.5539   23.1171 H   0  0  0  0  0  0
  -25.0093  -33.9822   25.0537 H   0  0  0  0  0  0
  -22.6819  -31.3050   21.4167 H   0  0  0  0  0  0
  -23.3779  -35.9601   23.3334 H   0  0  0  0  0  0
  -24.3583  -36.8879   22.2045 H   0  0  0  0  0  0
  -23.7223  -37.6504   23.6628 H   0  0  0  0  0  0
  -26.0463  -31.6082   20.5983 H   0  0  0  0  0  0
  -26.8092  -30.8797   21.9885 H   0  0  0  0  0  0
  -28.1004  -29.1449   21.1157 H   0  0  0  0  0  0
  -26.0104  -25.9634   19.0595 H   0  0  0  0  0  0
  -23.9626  -27.2746   19.0898 H   0  0  0  0  0  0
  -23.6908  -30.5888   19.4011 H   0  0  0  0  0  0
  -22.7265  -29.2263   19.8945 H   0  0  0  0  0  0
  -25.1287  -36.1998   25.0846 H   0  0  0  0  0  0
  -20.9945  -28.3182   24.1462 H   0  0  0  0  0  0
  -20.5721  -26.2226   23.3596 H   0  0  0  0  0  0
  -21.6645  -26.7453   22.1178 H   0  0  0  0  0  0
  -19.6912  -25.6303   21.1231 H   0  0  0  0  0  0
  -19.6698  -27.3212   20.6780 H   0  0  0  0  0  0
  -17.4208  -26.6701   21.4005 H   0  0  0  0  0  0
  -18.0279  -26.0035   22.8990 H   0  0  0  0  0  0
  -19.7932  -30.7246   24.2276 H   0  0  0  0  0  0
  -17.5011  -31.6264   24.5140 H   0  0  0  0  0  0
  -15.5337  -30.2974   23.7653 H   0  0  0  0  0  0
  -15.8671  -28.0785   22.7121 H   0  0  0  0  0  0
  -24.5886  -30.7058   25.7810 H   0  0  0  0  0  0
  -24.8916  -32.2865   26.4927 H   0  0  0  0  0  0
  -25.8063  -30.8862   27.0245 H   0  0  0  0  0  0
  -26.2868  -29.6795   24.1153 H   0  0  0  0  0  0
  -27.4144  -29.7299   25.4528 H   0  0  0  0  0  0
  -27.8672  -30.4443   23.9224 H   0  0  0  0  0  0
  -27.2696  -33.3620   26.2075 H   0  0  0  0  0  0
  -28.3826  -32.6870   25.0262 H   0  0  0  0  0  0
  -28.0749  -31.8421   26.5362 H   0  0  0  0  0  0
  -28.2628  -38.0082   24.7528 H   0  0  0  0  0  0
  -28.1079  -36.2627   24.6312 H   0  0  0  0  0  0
  -27.2316  -37.1455   25.8880 H   0  0  0  0  0  0
  -20.9300  -29.8658   21.6930 H   0  0  0  0  0  0
  -26.0225  -38.2884   24.1381 H   0  0  0  0  0  0
  -30.0686  -25.5869   21.8245 H   0  0  0  0  0  0
  -30.5976  -24.0623   21.1409 H   0  0  0  0  0  0
  -29.6787  -24.0982   22.6469 H   0  0  0  0  0  0
  -28.5459  -21.4327   19.0738 H   0  0  0  0  0  0
  -29.9116  -22.3797   19.6189 H   0  0  0  0  0  0
  -28.7935  -23.0413   18.4369 H   0  0  0  0  0  0
  -26.1204  -22.1007   19.7585 H   0  0  0  0  0  0
  -26.3608  -23.7151   19.1927 H   0  0  0  0  0  0
  -25.8792  -23.4483   20.8592 H   0  0  0  0  0  0
  -27.3758  -18.1636   23.9185 H   0  0  0  0  0  0
  -26.3468  -18.2548   22.4786 H   0  0  0  0  0  0
  -26.2634  -19.4855   23.7485 H   0  0  0  0  0  0
  -29.8771  -17.6653   23.2692 H   0  0  0  0  0  0
  -28.5347  -16.8764   22.4768 H   0  0  0  0  0  0
  -29.2179  -21.8493   21.8655 H   0  0  0  0  0  0
  -27.8503  -22.5864   22.6385 H   0  0  0  0  0  0
  -31.4156  -16.9180   21.6603 H   0  0  0  0  0  0
  -30.2719  -17.0558   20.3432 H   0  0  0  0  0  0
  -28.5000  -18.6108   20.7115 H   0  0  0  0  0  0
  -29.8212  -19.4649   21.4678 H   0  0  0  0  0  0
  -27.2424  -20.3882   20.6456 H   0  0  0  0  0  0
  -26.3486  -20.9483   22.0109 H   0  0  0  0  0  0
  -27.9068  -25.2120   18.8139 H   0  0  0  0  0  0
  -29.5646  -25.3377   19.1986 H   0  0  0  0  0  0
  -27.6853  -24.8843   21.5067 H   0  0  0  0  0  0
  -29.2545  -14.9831   21.8488 H   0  0  0  0  0  0
  -28.4947  -20.0882   23.2277 H   0  0  0  0  0  0
  1 25  1  0  0  0
  1 30  2  0  0  0
  1 83  1  0  0  0
  2  3  1  0  0  0
  2 25  1  0  0  0
  2 85  1  0  0  0
  2 86  1  0  0  0
  3  4  1  0  0  0
  3 87  1  0  0  0
  3 88  1  0  0  0
  4  5  1  0  0  0
  4 89  1  0  0  0
  4 90  1  0  0  0
  5  6  1  0  0  0
  5 26  1  0  0  0
  5 91  1  0  0  0
  6 25  1  0  0  0
  6 92  1  0  0  0
  6 93  1  0  0  0
  7  8  2  0  0  0
  7 26  1  0  0  0
  7 29  1  0  0  0
  8  9  1  0  0  0
  8 22  1  0  0  0
  9 10  1  0  0  0
  9 27  2  0  0  0
 10 11  2  0  0  0
 10 15  1  0  0  0
 11 12  1  0  0  0
 11 94  1  0  0  0
 12 13  2  0  0  0
 12 95  1  0  0  0
 13 14  1  0  0  0
 13 31  1  0  0  0
 14 15  2  0  0  0
 14 96  1  0  0  0
 15 97  1  0  0  0
 16 17  2  0  0  0
 16 21  1  0  0  0
 16 31  1  0  0  0
 17 18  1  0  0  0
 17 98  1  0  0  0
 18 19  2  0  0  0
 18 99  1  0  0  0
 19 20  1  0  0  0
 19 24  1  0  0  0
 20 21  2  0  0  0
 20100  1  0  0  0
 21 23  1  0  0  0
 22 28  1  0  0  0
 22 32  2  0  0  0
 26 27  1  0  0  0
 28101  1  0  0  0
 28102  1  0  0  0
 29103  1  0  0  0
 29104  1  0  0  0
 33 34  1  0  0  0
 33 66  1  0  0  0
 33 70  2  0  0  0
 34 36  1  0  0  0
 34 59  1  0  0  0
 34105  1  0  0  0
 35 44  2  0  0  0
 35 45  1  0  0  0
 35 68  1  0  0  0
 36 56  1  0  0  0
 36106  1  0  0  0
 37 39  1  0  0  0
 37 47  1  0  0  0
 37 66  1  0  0  0
 37107  1  0  0  0
 38 43  2  0  0  0
 38 46  1  0  0  0
 38 47  1  0  0  0
 39 64  1  0  0  0
 39 67  2  0  0  0
 40 52  1  0  0  0
 40 53  2  0  0  0
 40 58  1  0  0  0
 41108  1  0  0  0
 41109  1  0  0  0
 41110  1  0  0  0
 41 48  1  0  0  0
 42 43  1  0  0  0
 42 66  1  0  0  0
 42111  1  0  0  0
 42112  1  0  0  0
 43 44  1  0  0  0
 44113  1  0  0  0
 45 46  2  0  0  0
 45114  1  0  0  0
 46115  1  0  0  0
 47116  1  0  0  0
 47117  1  0  0  0
 48 56  1  0  0  0
 48 65  1  0  0  0
 48118  1  0  0  0
 49 50  1  0  0  0
 49 53  1  0  0  0
 49 64  1  0  0  0
 49119  1  0  0  0
 50 51  1  0  0  0
 50120  1  0  0  0
 50121  1  0  0  0
 51 52  1  0  0  0
 51122  1  0  0  0
 51123  1  0  0  0
 52124  1  0  0  0
 52125  1  0  0  0
 53 54  1  0  0  0
 54 55  2  0  0  0
 54126  1  0  0  0
 55 57  1  0  0  0
 55127  1  0  0  0
 56 69  2  0  0  0
 57 58  2  0  0  0
 57128  1  0  0  0
 58129  1  0  0  0
 59 60  1  0  0  0
 59 61  1  0  0  0
 59 62  1  0  0  0
 60130  1  0  0  0
 60131  1  0  0  0
 60132  1  0  0  0
 61133  1  0  0  0
 61134  1  0  0  0
 61135  1  0  0  0
 62136  1  0  0  0
 62137  1  0  0  0
 62138  1  0  0  0
 63 65  1  0  0  0
 63139  1  0  0  0
 63140  1  0  0  0
 63141  1  0  0  0
 64142  1  0  0  0
 65143  1  0  0  0
 68 80  1  0  0  0
 71144  1  0  0  0
 71145  1  0  0  0
 71146  1  0  0  0
 71 81  1  0  0  0
 72147  1  0  0  0
 72148  1  0  0  0
 72149  1  0  0  0
 72 82  1  0  0  0
 73 82  1  0  0  0
 73150  1  0  0  0
 73151  1  0  0  0
 73152  1  0  0  0
 74153  1  0  0  0
 74154  1  0  0  0
 74155  1  0  0  0
 74 84  1  0  0  0
 75 77  1  0  0  0
 75 78  1  0  0  0
 75156  1  0  0  0
 75157  1  0  0  0
 76 79  1  0  0  0
 76 82  1  0  0  0
 76158  1  0  0  0
 76159  1  0  0  0
 77 83  1  0  0  0
 77160  1  0  0  0
 77161  1  0  0  0
 78 84  1  0  0  0
 78162  1  0  0  0
 78163  1  0  0  0
 79 84  1  0  0  0
 79164  1  0  0  0
 79165  1  0  0  0
 80 81  1  0  0  0
 80166  1  0  0  0
 80167  1  0  0  0
 81 82  1  0  0  0
 81168  1  0  0  0
 83169  1  0  0  0
 84170  1  0  0  0
M  CHG  1  84   1
M  ISO  4   1 100  68 101  80 101  83 100
M  END
> <chiral flag>
0

> <version>
0

> <s_m_source_file>
/data/baiqing/PycharmProjects/Reinvent-master-3.2/result/LINK_invent/BTK/process_docking_weight1_custom_sum_contain_oxygen_bond_distance_aromatic_linkinvent_7_9_3/rearranged_h_0095.sdf

> <i_m_source_file_index>
63

> <r_mmod_Potential_Energy-OPLS-2005>
-107.73210144043

> <r_mmod_Stretch_Energy-OPLS-2005>
38.7763404846191

> <r_mmod_Bend_Energy-OPLS-2005>
114.971176147461

> <r_mmod_Torsional_Energy-OPLS-2005>
241.665328979492

> <r_mmod_Improper_Torsional_Energy-OPLS-2005>
3.47728943824768

> <r_mmod_Van_der_Waal_Energy-OPLS-2005>
153.113830566406

> <r_mmod_Electrostatic_Energy-OPLS-2005>
-220.554824829102

> <r_mmod_Solvation_Energy-OPLS-2005>
-447.617340087891

> <b_mmod_Minimization_Converged-OPLS-2005>
0

> <r_mmod_RMS_Derivative-OPLS-2005>
2.93354249000549

$$$$
63
                    3D
 Structure written by MMmdl.
185193  0  0  1  0            999 V2000
  -30.6603  -14.6048   20.5624 C   0  0  0  0  0  0
  -30.4280  -12.3908   19.4495 C   0  0  0  0  0  0
  -29.4948  -12.5038   18.2236 C   0  0  0  0  0  0
  -28.0223  -12.3355   18.6452 C   0  0  0  0  0  0
  -27.6473  -13.2150   19.8681 C   0  0  2  0  0  0
  -28.6938  -13.0678   20.9953 C   0  0  0  0  0  0
  -25.2503  -13.8171   20.5708 C   0  0  0  0  0  0
  -24.1761  -13.0430   20.9226 C   0  0  0  0  0  0
  -24.6329  -11.6900   20.8705 C   0  0  0  0  0  0
  -23.8993  -10.4289   21.0367 C   0  0  0  0  0  0
  -24.3545   -9.4220   21.9180 C   0  0  0  0  0  0
  -23.6250   -8.2242   22.0754 C   0  0  0  0  0  0
  -22.4241   -8.0253   21.3536 C   0  0  0  0  0  0
  -21.9850   -9.0200   20.4625 C   0  0  0  0  0  0
  -22.7147  -10.2104   20.3044 C   0  0  0  0  0  0
  -21.6850   -6.0712   22.5287 C   0  0  0  0  0  0
  -21.4000   -6.5640   23.8198 C   0  0  0  0  0  0
  -21.3660   -5.6786   24.9155 C   0  0  0  0  0  0
  -21.6044   -4.3049   24.7225 C   0  0  0  0  0  0
  -21.8808   -3.8117   23.4352 C   0  0  0  0  0  0
  -21.9185   -4.6935   22.3418 C   0  0  0  0  0  0
  -22.7779  -13.5214   21.1907 C   0  0  0  0  0  0
  -22.1642   -4.2107   21.1006 F   0  0  0  0  0  0
  -21.5647   -3.4553   25.7743 F   0  0  0  0  0  0
  -30.0063  -13.4107   20.4306 N   0  0  0  0  0  0
  -26.2931  -12.9343   20.3364 N   0  0  0  0  0  0
  -25.9270  -11.6496   20.5763 N   0  0  0  0  0  0
  -22.0423  -12.8178   22.0448 N   0  0  0  0  0  0
  -25.4246  -15.1902   20.4119 N   0  0  0  0  0  0
  -31.8249  -14.7412   20.1854 O   0  0  0  0  0  0
  -21.6647   -6.8830   21.4231 O   0  0  0  0  0  0
  -22.3464  -14.5526   20.6784 O   0  0  0  0  0  0
  -24.6291  -31.8563   23.1983 C   0  0  0  0  0  0
  -25.9155  -32.4724   23.8314 C   0  0  1  0  0  0
  -27.2285  -27.3490   20.1250 C   0  0  0  0  0  0
  -25.5966  -33.8507   24.2213 N   0  0  0  0  0  0
  -23.4182  -30.4879   21.5332 C   0  0  2  0  0  0
  -24.8741  -28.9536   20.1081 C   0  0  0  0  0  0
  -22.7483  -29.4632   22.4801 C   0  0  0  0  0  0
  -18.0295  -28.1365   22.8430 C   0  0  0  0  0  0
  -24.1542  -36.7263   23.2647 C   0  0  0  0  0  0
  -25.9602  -30.8089   21.3671 C   0  0  0  0  0  0
  -26.0401  -29.4407   20.7107 C   0  0  0  0  0  0
  -27.2312  -28.6514   20.7075 C   0  0  0  0  0  0
  -26.0442  -26.9114   19.5017 C   0  0  0  0  0  0
  -24.8773  -27.6944   19.4933 C   0  0  0  0  0  0
  -23.6386  -29.8259   20.1503 C   0  0  0  0  0  0
  -25.4125  -36.2948   24.0292 C   0  0  1  0  0  0
  -20.5905  -28.3671   23.1209 C   0  0  2  0  0  0
  -20.6791  -26.9382   22.5353 C   0  0  0  0  0  0
  -19.5778  -26.6332   21.5167 C   0  0  0  0  0  0
  -18.1938  -26.7888   22.1555 C   0  0  0  0  0  0
  -19.1557  -28.8819   23.2830 C   0  0  0  0  0  0
  -18.9494  -30.1408   23.8875 C   0  0  0  0  0  0
  -17.6510  -30.6572   24.0547 C   0  0  0  0  0  0
  -25.9049  -34.9372   23.5015 C   0  0  0  0  0  0
  -16.5381  -29.9071   23.6324 C   0  0  0  0  0  0
  -16.7308  -28.6489   23.0332 C   0  0  0  0  0  0
  -26.4545  -31.6527   25.0691 C   0  0  0  0  0  0
  -25.3784  -31.3687   26.1445 C   0  0  0  0  0  0
  -27.0455  -30.2962   24.6100 C   0  0  0  0  0  0
  -27.5995  -32.4356   25.7520 C   0  0  0  0  0  0
  -27.5527  -37.1763   24.8450 C   0  0  0  0  0  0
  -21.4178  -29.3053   22.3599 N   0  0  0  0  0  0
  -26.4247  -37.3654   23.9385 N   0  0  0  0  0  0
  -24.6866  -31.0658   22.0897 N   0  0  0  0  0  0
  -23.4252  -28.8132   23.2835 O   0  0  0  0  0  0
  -28.3134  -26.4612   20.1100 O   0  0  0  0  0  0
  -26.5589  -34.8854   22.4565 O   0  0  0  0  0  0
  -23.5434  -32.1345   23.7300 O   0  0  0  0  0  0
  -29.4968  -22.0548   22.2123 C   0  0  0  0  0  0
  -29.4535  -21.1733   21.1142 C   0  0  0  0  0  0
  -29.0155  -21.7797   19.8903 C   0  0  0  0  0  0
  -28.7105  -23.2004   19.8564 C   0  0  0  0  0  0
  -28.8346  -23.9972   21.0384 C   0  0  0  0  0  0
  -27.2236  -20.0809   16.8670 C   0  0  0  0  0  0
  -27.4826  -25.7110   22.3548 C   0  0  0  0  0  0
  -29.8890  -26.2090   21.7624 C   0  0  0  0  0  0
  -28.4260  -23.8980   15.4658 C   0  0  0  0  0  0
  -30.4044  -25.4212   15.6462 C   0  0  0  0  0  0
  -28.1468  -26.2208   16.3789 C   0  0  0  0  0  0
  -30.0363  -19.7166   21.4030 C   0  0  0  0  0  0
  -28.8924  -20.9475   18.6091 C   0  0  0  0  0  0
  -28.2668  -23.8620   18.5463 C   0  0  0  0  0  0
  -27.4555  -20.4548   18.3404 C   0  0  0  0  0  0
  -29.6168  -18.3328   20.7288 C   0  0  0  0  0  0
  -29.4329  -24.4730   17.7482 C   0  0  0  0  0  0
  -30.3717  -17.0643   21.3531 C   0  0  0  0  0  0
  -28.5768  -25.5670   21.2626 C   0  0  0  0  0  0
  -29.0871  -24.9963   16.3237 C   0  0  0  0  0  0
  -29.2078  -23.3724   22.1830 N   0  0  0  0  0  0
  -29.9190  -15.6746   20.9927 N   0  0  0  0  0  0
  -31.4708  -12.5076   19.1453 H   0  0  0  0  0  0
  -30.3546  -11.3970   19.8921 H   0  0  0  0  0  0
  -29.7560  -11.7430   17.4879 H   0  0  0  0  0  0
  -29.6245  -13.4696   17.7366 H   0  0  0  0  0  0
  -27.8668  -11.2811   18.8844 H   0  0  0  0  0  0
  -27.3619  -12.5505   17.8047 H   0  0  0  0  0  0
  -27.6628  -14.2503   19.5280 H   0  0  0  0  0  0
  -28.7075  -12.0411   21.3679 H   0  0  0  0  0  0
  -28.4395  -13.6908   21.8541 H   0  0  0  0  0  0
  -25.2665   -9.5762   22.4778 H   0  0  0  0  0  0
  -23.9955   -7.4657   22.7494 H   0  0  0  0  0  0
  -21.0794   -8.8688   19.8927 H   0  0  0  0  0  0
  -22.3563  -10.9645   19.6178 H   0  0  0  0  0  0
  -21.1988   -7.6153   23.9686 H   0  0  0  0  0  0
  -21.1513   -6.0536   25.9051 H   0  0  0  0  0  0
  -22.0599   -2.7566   23.2876 H   0  0  0  0  0  0
  -22.4023  -11.9803   22.4776 H   0  0  0  0  0  0
  -21.1053  -13.1198   22.2719 H   0  0  0  0  0  0
  -24.6558  -15.8447   20.5135 H   0  0  0  0  0  0
  -26.2734  -15.6305   20.0828 H   0  0  0  0  0  0
  -26.7241  -32.5421   23.1062 H   0  0  0  0  0  0
  -25.0288  -33.9665   25.0466 H   0  0  0  0  0  0
  -22.7076  -31.3039   21.3763 H   0  0  0  0  0  0
  -23.3751  -35.9656   23.3279 H   0  0  0  0  0  0
  -24.3668  -36.8916   22.2075 H   0  0  0  0  0  0
  -23.7450  -37.6487   23.6767 H   0  0  0  0  0  0
  -26.0975  -31.5825   20.6102 H   0  0  0  0  0  0
  -26.8387  -30.8449   21.9997 H   0  0  0  0  0  0
  -28.1297  -29.0314   21.1688 H   0  0  0  0  0  0
  -25.9964  -25.9431   19.0395 H   0  0  0  0  0  0
  -23.9817  -27.3131   19.0275 H   0  0  0  0  0  0
  -23.7522  -30.6102   19.4009 H   0  0  0  0  0  0
  -22.7657  -29.2482   19.8414 H   0  0  0  0  0  0
  -25.1313  -36.1677   25.0768 H   0  0  0  0  0  0
  -20.9942  -28.3251   24.1356 H   0  0  0  0  0  0
  -20.5668  -26.2264   23.3556 H   0  0  0  0  0  0
  -21.6651  -26.7383   22.1117 H   0  0  0  0  0  0
  -19.6964  -25.6245   21.1192 H   0  0  0  0  0  0
  -19.6758  -27.3131   20.6695 H   0  0  0  0  0  0
  -17.4173  -26.6640   21.3991 H   0  0  0  0  0  0
  -18.0347  -26.0021   22.8936 H   0  0  0  0  0  0
  -19.8009  -30.7197   24.2213 H   0  0  0  0  0  0
  -17.5094  -31.6266   24.5142 H   0  0  0  0  0  0
  -15.5392  -30.2991   23.7706 H   0  0  0  0  0  0
  -15.8680  -28.0854   22.7049 H   0  0  0  0  0  0
  -24.5990  -30.6951   25.7849 H   0  0  0  0  0  0
  -24.9005  -32.2901   26.4781 H   0  0  0  0  0  0
  -25.8118  -30.9009   27.0297 H   0  0  0  0  0  0
  -26.3069  -29.6640   24.1152 H   0  0  0  0  0  0
  -27.4320  -29.7189   25.4508 H   0  0  0  0  0  0
  -27.8787  -30.4336   23.9204 H   0  0  0  0  0  0
  -27.2484  -33.3689   26.1942 H   0  0  0  0  0  0
  -28.3924  -32.6873   25.0463 H   0  0  0  0  0  0
  -28.0545  -31.8643   26.5624 H   0  0  0  0  0  0
  -28.2409  -38.0154   24.7387 H   0  0  0  0  0  0
  -28.1120  -36.2621   24.6344 H   0  0  0  0  0  0
  -27.2230  -37.1446   25.8852 H   0  0  0  0  0  0
  -20.9298  -29.8954   21.7016 H   0  0  0  0  0  0
  -26.0055  -38.2683   24.1393 H   0  0  0  0  0  0
  -29.8189  -21.6921   23.1806 H   0  0  0  0  0  0
  -26.1891  -19.7707   16.7031 H   0  0  0  0  0  0
  -27.8792  -19.2695   16.5456 H   0  0  0  0  0  0
  -27.4128  -20.9333   16.2152 H   0  0  0  0  0  0
  -27.7545  -25.1828   23.2700 H   0  0  0  0  0  0
  -26.5383  -25.2910   22.0119 H   0  0  0  0  0  0
  -27.3071  -26.7410   22.6544 H   0  0  0  0  0  0
  -30.2243  -25.7821   22.7082 H   0  0  0  0  0  0
  -29.7839  -27.2864   21.9060 H   0  0  0  0  0  0
  -30.6842  -26.0474   21.0346 H   0  0  0  0  0  0
  -28.4295  -24.1609   14.4068 H   0  0  0  0  0  0
  -27.3816  -23.7383   15.7415 H   0  0  0  0  0  0
  -28.9447  -22.9420   15.5681 H   0  0  0  0  0  0
  -30.2284  -25.8741   14.6684 H   0  0  0  0  0  0
  -31.0629  -24.5631   15.4941 H   0  0  0  0  0  0
  -30.9499  -26.1474   16.2514 H   0  0  0  0  0  0
  -27.9684  -26.6236   15.3788 H   0  0  0  0  0  0
  -28.5611  -27.0262   16.9867 H   0  0  0  0  0  0
  -27.1737  -25.9624   16.7971 H   0  0  0  0  0  0
  -29.8695  -19.5550   22.4739 H   0  0  0  0  0  0
  -31.1212  -19.8132   21.3230 H   0  0  0  0  0  0
  -29.5847  -20.1131   18.6124 H   0  0  0  0  0  0
  -29.2372  -21.5396   17.7651 H   0  0  0  0  0  0
  -27.5328  -24.6205   18.7723 H   0  0  0  0  0  0
  -27.7139  -23.1569   17.9337 H   0  0  0  0  0  0
  -27.2235  -19.6102   18.9861 H   0  0  0  0  0  0
  -26.7430  -21.2380   18.6027 H   0  0  0  0  0  0
  -29.8519  -18.3399   19.6643 H   0  0  0  0  0  0
  -28.5372  -18.1888   20.8162 H   0  0  0  0  0  0
  -30.2143  -23.7191   17.6568 H   0  0  0  0  0  0
  -29.8869  -25.2769   18.3341 H   0  0  0  0  0  0
  -30.2741  -17.1226   22.4385 H   0  0  0  0  0  0
  -31.4429  -17.1598   21.1653 H   0  0  0  0  0  0
  -28.9578  -15.4570   21.2093 H   0  0  0  0  0  0
  1 25  1  0  0  0
  1 30  2  0  0  0
  1 92  1  0  0  0
  2  3  1  0  0  0
  2 25  1  0  0  0
  2 93  1  0  0  0
  2 94  1  0  0  0
  3  4  1  0  0  0
  3 95  1  0  0  0
  3 96  1  0  0  0
  4  5  1  0  0  0
  4 97  1  0  0  0
  4 98  1  0  0  0
  5  6  1  0  0  0
  5 26  1  0  0  0
  5 99  1  0  0  0
  6 25  1  0  0  0
  6100  1  0  0  0
  6101  1  0  0  0
  7  8  2  0  0  0
  7 26  1  0  0  0
  7 29  1  0  0  0
  8  9  1  0  0  0
  8 22  1  0  0  0
  9 10  1  0  0  0
  9 27  2  0  0  0
 10 11  2  0  0  0
 10 15  1  0  0  0
 11 12  1  0  0  0
 11102  1  0  0  0
 12 13  2  0  0  0
 12103  1  0  0  0
 13 14  1  0  0  0
 13 31  1  0  0  0
 14 15  2  0  0  0
 14104  1  0  0  0
 15105  1  0  0  0
 16 17  2  0  0  0
 16 21  1  0  0  0
 16 31  1  0  0  0
 17 18  1  0  0  0
 17106  1  0  0  0
 18 19  2  0  0  0
 18107  1  0  0  0
 19 20  1  0  0  0
 19 24  1  0  0  0
 20 21  2  0  0  0
 20108  1  0  0  0
 21 23  1  0  0  0
 22 28  1  0  0  0
 22 32  2  0  0  0
 26 27  1  0  0  0
 28109  1  0  0  0
 28110  1  0  0  0
 29111  1  0  0  0
 29112  1  0  0  0
 33 34  1  0  0  0
 33 66  1  0  0  0
 33 70  2  0  0  0
 34 36  1  0  0  0
 34 59  1  0  0  0
 34113  1  0  0  0
 35 44  2  0  0  0
 35 45  1  0  0  0
 35 68  1  0  0  0
 36 56  1  0  0  0
 36114  1  0  0  0
 37 39  1  0  0  0
 37 47  1  0  0  0
 37 66  1  0  0  0
 37115  1  0  0  0
 38 43  2  0  0  0
 38 46  1  0  0  0
 38 47  1  0  0  0
 39 64  1  0  0  0
 39 67  2  0  0  0
 40 52  1  0  0  0
 40 53  2  0  0  0
 40 58  1  0  0  0
 41116  1  0  0  0
 41117  1  0  0  0
 41118  1  0  0  0
 41 48  1  0  0  0
 42 43  1  0  0  0
 42 66  1  0  0  0
 42119  1  0  0  0
 42120  1  0  0  0
 43 44  1  0  0  0
 44121  1  0  0  0
 45 46  2  0  0  0
 45122  1  0  0  0
 46123  1  0  0  0
 47124  1  0  0  0
 47125  1  0  0  0
 48 56  1  0  0  0
 48 65  1  0  0  0
 48126  1  0  0  0
 49 50  1  0  0  0
 49 53  1  0  0  0
 49 64  1  0  0  0
 49127  1  0  0  0
 50 51  1  0  0  0
 50128  1  0  0  0
 50129  1  0  0  0
 51 52  1  0  0  0
 51130  1  0  0  0
 51131  1  0  0  0
 52132  1  0  0  0
 52133  1  0  0  0
 53 54  1  0  0  0
 54 55  2  0  0  0
 54134  1  0  0  0
 55 57  1  0  0  0
 55135  1  0  0  0
 56 69  2  0  0  0
 57 58  2  0  0  0
 57136  1  0  0  0
 58137  1  0  0  0
 59 60  1  0  0  0
 59 61  1  0  0  0
 59 62  1  0  0  0
 60138  1  0  0  0
 60139  1  0  0  0
 60140  1  0  0  0
 61141  1  0  0  0
 61142  1  0  0  0
 61143  1  0  0  0
 62144  1  0  0  0
 62145  1  0  0  0
 62146  1  0  0  0
 63 65  1  0  0  0
 63147  1  0  0  0
 63148  1  0  0  0
 63149  1  0  0  0
 64150  1  0  0  0
 65151  1  0  0  0
 68 89  1  0  0  0
 71 72  2  0  0  0
 71 91  1  0  0  0
 71152  1  0  0  0
 72 73  1  0  0  0
 72 82  1  0  0  0
 73 74  2  0  0  0
 73 83  1  0  0  0
 74 75  1  0  0  0
 74 84  1  0  0  0
 75 89  1  0  0  0
 75 91  2  0  0  0
 76 85  1  0  0  0
 76153  1  0  0  0
 76154  1  0  0  0
 76155  1  0  0  0
 77156  1  0  0  0
 77157  1  0  0  0
 77158  1  0  0  0
 77 89  1  0  0  0
 78 89  1  0  0  0
 78159  1  0  0  0
 78160  1  0  0  0
 78161  1  0  0  0
 79162  1  0  0  0
 79163  1  0  0  0
 79164  1  0  0  0
 79 90  1  0  0  0
 80 90  1  0  0  0
 80165  1  0  0  0
 80166  1  0  0  0
 80167  1  0  0  0
 81 90  1  0  0  0
 81168  1  0  0  0
 81169  1  0  0  0
 81170  1  0  0  0
 82 86  1  0  0  0
 82171  1  0  0  0
 82172  1  0  0  0
 83 85  1  0  0  0
 83173  1  0  0  0
 83174  1  0  0  0
 84 87  1  0  0  0
 84175  1  0  0  0
 84176  1  0  0  0
 85177  1  0  0  0
 85178  1  0  0  0
 86 88  1  0  0  0
 86179  1  0  0  0
 86180  1  0  0  0
 87 90  1  0  0  0
 87181  1  0  0  0
 87182  1  0  0  0
 88 92  1  0  0  0
 88183  1  0  0  0
 88184  1  0  0  0
 92185  1  0  0  0
M  ISO  4   1 100  68 101  89 101  92 100
M  END
> <chiral flag>
0

> <version>
0

> <s_m_source_file>
/data/baiqing/PycharmProjects/Reinvent-master-3.2/result/LINK_invent/BTK/process_docking_weight1_custom_sum_contain_oxygen_bond_distance_aromatic_linkinvent_7_9_3/rearranged_h_0095.sdf

> <i_m_source_file_index>
64

> <r_mmod_Potential_Energy-OPLS-2005>
3.32355284690857

> <r_mmod_Stretch_Energy-OPLS-2005>
98.2733612060547

> <r_mmod_Bend_Energy-OPLS-2005>
199.907623291016

> <r_mmod_Torsional_Energy-OPLS-2005>
237.001541137695

> <r_mmod_Improper_Torsional_Energy-OPLS-2005>
3.73386645317078

> <r_mmod_Van_der_Waal_Energy-OPLS-2005>
145.909759521484

> <r_mmod_Electrostatic_Energy-OPLS-2005>
-525.181762695312

> <r_mmod_Solvation_Energy-OPLS-2005>
-197.58268737793

> <b_mmod_Minimization_Converged-OPLS-2005>
0

> <r_mmod_RMS_Derivative-OPLS-2005>
6.45052909851074

$$$$
64
                    3D
 Structure written by MMmdl.
167175  0  0  1  0            999 V2000
  -30.7446  -14.3974   20.6588 C   0  0  0  0  0  0
  -30.4215  -12.3035   19.3943 C   0  0  0  0  0  0
  -29.4841  -12.5160   18.1902 C   0  0  0  0  0  0
  -28.0082  -12.3744   18.6098 C   0  0  0  0  0  0
  -27.6630  -13.2027   19.8755 C   0  0  2  0  0  0
  -28.7017  -12.9515   20.9882 C   0  0  0  0  0  0
  -25.2595  -13.8158   20.5663 C   0  0  0  0  0  0
  -24.1832  -13.0440   20.9143 C   0  0  0  0  0  0
  -24.6386  -11.6904   20.8720 C   0  0  0  0  0  0
  -23.9061  -10.4290   21.0397 C   0  0  0  0  0  0
  -24.3614   -9.4210   21.9185 C   0  0  0  0  0  0
  -23.6282   -8.2250   22.0760 C   0  0  0  0  0  0
  -22.4269   -8.0288   21.3548 C   0  0  0  0  0  0
  -21.9900   -9.0262   20.4653 C   0  0  0  0  0  0
  -22.7236  -10.2135   20.3048 C   0  0  0  0  0  0
  -21.6854   -6.0733   22.5282 C   0  0  0  0  0  0
  -21.4010   -6.5642   23.8210 C   0  0  0  0  0  0
  -21.3653   -5.6793   24.9171 C   0  0  0  0  0  0
  -21.6035   -4.3051   24.7218 C   0  0  0  0  0  0
  -21.8823   -3.8148   23.4342 C   0  0  0  0  0  0
  -21.9198   -4.6966   22.3400 C   0  0  0  0  0  0
  -22.7862  -13.5259   21.1818 C   0  0  0  0  0  0
  -22.1669   -4.2153   21.0969 F   0  0  0  0  0  0
  -21.5625   -3.4533   25.7730 F   0  0  0  0  0  0
  -30.0361  -13.2602   20.4425 N   0  0  0  0  0  0
  -26.3027  -12.9319   20.3370 N   0  0  0  0  0  0
  -25.9316  -11.6476   20.5764 N   0  0  0  0  0  0
  -22.0504  -12.8244   22.0370 N   0  0  0  0  0  0
  -25.4332  -15.1876   20.4080 N   0  0  0  0  0  0
  -31.8260  -14.6275   20.1127 O   0  0  0  0  0  0
  -21.6641   -6.8882   21.4239 O   0  0  0  0  0  0
  -22.3550  -14.5578   20.6691 O   0  0  0  0  0  0
  -24.6132  -31.8682   23.2110 C   0  0  0  0  0  0
  -25.9056  -32.4808   23.8395 C   0  0  1  0  0  0
  -27.2414  -27.4562   20.0772 C   0  0  0  0  0  0
  -25.5939  -33.8607   24.2342 N   0  0  0  0  0  0
  -23.3986  -30.4921   21.5510 C   0  0  2  0  0  0
  -24.8423  -28.9561   20.1151 C   0  0  0  0  0  0
  -22.7392  -29.4669   22.5001 C   0  0  0  0  0  0
  -18.0262  -28.1374   22.8489 C   0  0  0  0  0  0
  -24.1481  -36.7285   23.2633 C   0  0  0  0  0  0
  -25.9242  -30.8386   21.3598 C   0  0  0  0  0  0
  -25.9993  -29.4732   20.7085 C   0  0  0  0  0  0
  -27.1968  -28.7281   20.6897 C   0  0  0  0  0  0
  -26.0613  -26.9421   19.4901 C   0  0  0  0  0  0
  -24.8663  -27.6878   19.5073 C   0  0  0  0  0  0
  -23.6039  -29.8215   20.1655 C   0  0  0  0  0  0
  -25.4096  -36.3088   24.0347 C   0  0  1  0  0  0
  -20.5851  -28.3658   23.1320 C   0  0  2  0  0  0
  -20.6752  -26.9397   22.5415 C   0  0  0  0  0  0
  -19.5743  -26.6381   21.5209 C   0  0  0  0  0  0
  -18.1914  -26.7931   22.1602 C   0  0  0  0  0  0
  -19.1511  -28.8835   23.2899 C   0  0  0  0  0  0
  -18.9442  -30.1443   23.8911 C   0  0  0  0  0  0
  -17.6442  -30.6585   24.0563 C   0  0  0  0  0  0
  -25.9046  -34.9464   23.5134 C   0  0  0  0  0  0
  -16.5332  -29.9083   23.6337 C   0  0  0  0  0  0
  -16.7250  -28.6503   23.0347 C   0  0  0  0  0  0
  -26.4508  -31.6574   25.0709 C   0  0  0  0  0  0
  -25.3800  -31.3629   26.1466 C   0  0  0  0  0  0
  -27.0329  -30.3028   24.6052 C   0  0  0  0  0  0
  -27.6112  -32.4265   25.7463 C   0  0  0  0  0  0
  -27.5582  -37.1772   24.8456 C   0  0  0  0  0  0
  -21.4127  -29.3026   22.3733 N   0  0  0  0  0  0
  -26.4261  -37.3793   23.9447 N   0  0  0  0  0  0
  -24.6635  -31.0807   22.0994 N   0  0  0  0  0  0
  -23.4167  -28.8221   23.3054 O   0  0  0  0  0  0
  -28.4471  -26.7894   20.0790 O   0  0  0  0  0  0
  -26.5587  -34.8924   22.4684 O   0  0  0  0  0  0
  -23.5340  -32.1421   23.7534 O   0  0  0  0  0  0
  -31.9406  -17.8268   20.4083 C   0  0  0  0  0  0
  -30.1927  -18.8239   21.7259 C   0  0  0  0  0  0
  -30.9622  -17.6918   21.4079 C   0  0  0  0  0  0
  -32.1399  -19.0669   19.7605 C   0  0  0  0  0  0
  -31.2910  -20.1453   20.1447 C   0  0  0  0  0  0
  -34.4269  -18.2138   18.9033 C   0  0  0  0  0  0
  -32.6828  -19.0283   17.2807 C   0  0  0  0  0  0
  -30.8307  -16.3888   22.1978 C   0  0  0  0  0  0
  -31.4385  -21.5523   19.5527 C   0  0  0  0  0  0
  -30.2507  -22.5305   19.7201 C   0  0  0  0  0  0
  -30.4493  -23.8054   18.8647 C   0  0  0  0  0  0
  -30.0478  -25.1339   19.5342 C   0  0  0  0  0  0
  -28.5561  -25.5003   19.4796 C   0  0  0  0  0  0
  -33.2517  -19.1908   18.6976 C   0  0  0  0  0  0
  -30.3553  -20.0170   21.1165 N   0  0  0  0  0  0
  -30.1838  -15.2651   21.5153 N   0  0  0  0  0  0
  -33.8257  -20.3906   18.7749 F   0  0  0  0  0  0
  -31.4608  -12.4178   19.0812 H   0  0  0  0  0  0
  -30.3392  -11.2837   19.7739 H   0  0  0  0  0  0
  -29.7165  -11.7979   17.4020 H   0  0  0  0  0  0
  -29.6520  -13.5053   17.7626 H   0  0  0  0  0  0
  -27.8154  -11.3175   18.7959 H   0  0  0  0  0  0
  -27.3549  -12.6612   17.7849 H   0  0  0  0  0  0
  -27.7198  -14.2560   19.5977 H   0  0  0  0  0  0
  -28.6722  -11.9068   21.3010 H   0  0  0  0  0  0
  -28.4518  -13.5214   21.8833 H   0  0  0  0  0  0
  -25.2762   -9.5686   22.4754 H   0  0  0  0  0  0
  -23.9989   -7.4642   22.7486 H   0  0  0  0  0  0
  -21.0828   -8.8785   19.8968 H   0  0  0  0  0  0
  -22.3709  -10.9664   19.6142 H   0  0  0  0  0  0
  -21.1998   -7.6151   23.9711 H   0  0  0  0  0  0
  -21.1462   -6.0523   25.9072 H   0  0  0  0  0  0
  -22.0606   -2.7612   23.2839 H   0  0  0  0  0  0
  -22.4126  -11.9901   22.4738 H   0  0  0  0  0  0
  -21.1130  -13.1269   22.2598 H   0  0  0  0  0  0
  -24.6702  -15.8463   20.5183 H   0  0  0  0  0  0
  -26.2950  -15.6253   20.1048 H   0  0  0  0  0  0
  -26.7130  -32.5517   23.1158 H   0  0  0  0  0  0
  -25.0187  -33.9786   25.0558 H   0  0  0  0  0  0
  -22.6868  -31.3089   21.4127 H   0  0  0  0  0  0
  -23.3782  -35.9576   23.3217 H   0  0  0  0  0  0
  -24.3607  -36.8971   22.2065 H   0  0  0  0  0  0
  -23.7173  -37.6441   23.6696 H   0  0  0  0  0  0
  -26.0356  -31.6058   20.5914 H   0  0  0  0  0  0
  -26.8128  -30.8900   21.9763 H   0  0  0  0  0  0
  -28.0952  -29.1305   21.1373 H   0  0  0  0  0  0
  -26.0451  -25.9748   19.0105 H   0  0  0  0  0  0
  -23.9746  -27.2824   19.0484 H   0  0  0  0  0  0
  -23.7109  -30.5958   19.4051 H   0  0  0  0  0  0
  -22.7282  -29.2404   19.8704 H   0  0  0  0  0  0
  -25.1264  -36.1923   25.0837 H   0  0  0  0  0  0
  -20.9944  -28.3202   24.1441 H   0  0  0  0  0  0
  -20.5640  -26.2268   23.3599 H   0  0  0  0  0  0
  -21.6620  -26.7432   22.1207 H   0  0  0  0  0  0
  -19.6904  -25.6296   21.1226 H   0  0  0  0  0  0
  -19.6701  -27.3200   20.6749 H   0  0  0  0  0  0
  -17.4197  -26.6706   21.3985 H   0  0  0  0  0  0
  -18.0291  -26.0051   22.8964 H   0  0  0  0  0  0
  -19.7922  -30.7258   24.2265 H   0  0  0  0  0  0
  -17.5004  -31.6272   24.5155 H   0  0  0  0  0  0
  -15.5333  -30.2987   23.7676 H   0  0  0  0  0  0
  -15.8643  -28.0833   22.7056 H   0  0  0  0  0  0
  -24.6040  -30.6896   25.7809 H   0  0  0  0  0  0
  -24.8919  -32.2740   26.4930 H   0  0  0  0  0  0
  -25.8196  -30.8817   27.0212 H   0  0  0  0  0  0
  -26.2832  -29.6751   24.1216 H   0  0  0  0  0  0
  -27.4231  -29.7299   25.4472 H   0  0  0  0  0  0
  -27.8620  -30.4352   23.9096 H   0  0  0  0  0  0
  -27.2798  -33.3601   26.2023 H   0  0  0  0  0  0
  -28.3948  -32.6734   25.0286 H   0  0  0  0  0  0
  -28.0754  -31.8373   26.5382 H   0  0  0  0  0  0
  -28.2519  -38.0149   24.7619 H   0  0  0  0  0  0
  -28.1148  -36.2686   24.6105 H   0  0  0  0  0  0
  -27.2333  -37.1188   25.8862 H   0  0  0  0  0  0
  -20.9283  -29.8745   21.6955 H   0  0  0  0  0  0
  -26.0129  -38.2840   24.1547 H   0  0  0  0  0  0
  -32.5580  -16.9770   20.1739 H   0  0  0  0  0  0
  -29.4464  -18.7818   22.5053 H   0  0  0  0  0  0
  -34.1411  -17.1758   18.7283 H   0  0  0  0  0  0
  -34.8382  -18.2905   19.9108 H   0  0  0  0  0  0
  -35.2384  -18.4285   18.2073 H   0  0  0  0  0  0
  -32.2414  -18.0399   17.1490 H   0  0  0  0  0  0
  -33.4634  -19.1460   16.5282 H   0  0  0  0  0  0
  -31.9081  -19.7609   17.0602 H   0  0  0  0  0  0
  -30.2664  -16.5854   23.1108 H   0  0  0  0  0  0
  -31.8244  -16.0826   22.5312 H   0  0  0  0  0  0
  -31.6260  -21.4524   18.4851 H   0  0  0  0  0  0
  -32.3331  -22.0068   19.9817 H   0  0  0  0  0  0
  -30.1516  -22.7860   20.7761 H   0  0  0  0  0  0
  -29.3186  -22.0413   19.4342 H   0  0  0  0  0  0
  -29.9534  -23.6937   17.8995 H   0  0  0  0  0  0
  -31.5103  -23.8941   18.6263 H   0  0  0  0  0  0
  -30.5944  -25.9317   19.0291 H   0  0  0  0  0  0
  -30.4006  -25.1523   20.5664 H   0  0  0  0  0  0
  -27.9566  -24.7670   20.0210 H   0  0  0  0  0  0
  -28.2209  -25.5264   18.4416 H   0  0  0  0  0  0
  -29.2784  -14.9924   21.8694 H   0  0  0  0  0  0
  1 25  1  0  0  0
  1 30  2  0  0  0
  1 86  1  0  0  0
  2  3  1  0  0  0
  2 25  1  0  0  0
  2 88  1  0  0  0
  2 89  1  0  0  0
  3  4  1  0  0  0
  3 90  1  0  0  0
  3 91  1  0  0  0
  4  5  1  0  0  0
  4 92  1  0  0  0
  4 93  1  0  0  0
  5  6  1  0  0  0
  5 26  1  0  0  0
  5 94  1  0  0  0
  6 25  1  0  0  0
  6 95  1  0  0  0
  6 96  1  0  0  0
  7  8  2  0  0  0
  7 26  1  0  0  0
  7 29  1  0  0  0
  8  9  1  0  0  0
  8 22  1  0  0  0
  9 10  1  0  0  0
  9 27  2  0  0  0
 10 11  2  0  0  0
 10 15  1  0  0  0
 11 12  1  0  0  0
 11 97  1  0  0  0
 12 13  2  0  0  0
 12 98  1  0  0  0
 13 14  1  0  0  0
 13 31  1  0  0  0
 14 15  2  0  0  0
 14 99  1  0  0  0
 15100  1  0  0  0
 16 17  2  0  0  0
 16 21  1  0  0  0
 16 31  1  0  0  0
 17 18  1  0  0  0
 17101  1  0  0  0
 18 19  2  0  0  0
 18102  1  0  0  0
 19 20  1  0  0  0
 19 24  1  0  0  0
 20 21  2  0  0  0
 20103  1  0  0  0
 21 23  1  0  0  0
 22 28  1  0  0  0
 22 32  2  0  0  0
 26 27  1  0  0  0
 28104  1  0  0  0
 28105  1  0  0  0
 29106  1  0  0  0
 29107  1  0  0  0
 33 34  1  0  0  0
 33 66  1  0  0  0
 33 70  2  0  0  0
 34 36  1  0  0  0
 34 59  1  0  0  0
 34108  1  0  0  0
 35 44  2  0  0  0
 35 45  1  0  0  0
 35 68  1  0  0  0
 36 56  1  0  0  0
 36109  1  0  0  0
 37 39  1  0  0  0
 37 47  1  0  0  0
 37 66  1  0  0  0
 37110  1  0  0  0
 38 43  2  0  0  0
 38 46  1  0  0  0
 38 47  1  0  0  0
 39 64  1  0  0  0
 39 67  2  0  0  0
 40 52  1  0  0  0
 40 53  2  0  0  0
 40 58  1  0  0  0
 41111  1  0  0  0
 41112  1  0  0  0
 41113  1  0  0  0
 41 48  1  0  0  0
 42 43  1  0  0  0
 42 66  1  0  0  0
 42114  1  0  0  0
 42115  1  0  0  0
 43 44  1  0  0  0
 44116  1  0  0  0
 45 46  2  0  0  0
 45117  1  0  0  0
 46118  1  0  0  0
 47119  1  0  0  0
 47120  1  0  0  0
 48 56  1  0  0  0
 48 65  1  0  0  0
 48121  1  0  0  0
 49 50  1  0  0  0
 49 53  1  0  0  0
 49 64  1  0  0  0
 49122  1  0  0  0
 50 51  1  0  0  0
 50123  1  0  0  0
 50124  1  0  0  0
 51 52  1  0  0  0
 51125  1  0  0  0
 51126  1  0  0  0
 52127  1  0  0  0
 52128  1  0  0  0
 53 54  1  0  0  0
 54 55  2  0  0  0
 54129  1  0  0  0
 55 57  1  0  0  0
 55130  1  0  0  0
 56 69  2  0  0  0
 57 58  2  0  0  0
 57131  1  0  0  0
 58132  1  0  0  0
 59 60  1  0  0  0
 59 61  1  0  0  0
 59 62  1  0  0  0
 60133  1  0  0  0
 60134  1  0  0  0
 60135  1  0  0  0
 61136  1  0  0  0
 61137  1  0  0  0
 61138  1  0  0  0
 62139  1  0  0  0
 62140  1  0  0  0
 62141  1  0  0  0
 63 65  1  0  0  0
 63142  1  0  0  0
 63143  1  0  0  0
 63144  1  0  0  0
 64145  1  0  0  0
 65146  1  0  0  0
 68 83  1  0  0  0
 71 73  2  0  0  0
 71 74  1  0  0  0
 71147  1  0  0  0
 72 73  1  0  0  0
 72 85  2  0  0  0
 72148  1  0  0  0
 73 78  1  0  0  0
 74 75  2  0  0  0
 74 84  1  0  0  0
 75 79  1  0  0  0
 75 85  1  0  0  0
 76149  1  0  0  0
 76150  1  0  0  0
 76151  1  0  0  0
 76 84  1  0  0  0
 77 84  1  0  0  0
 77152  1  0  0  0
 77153  1  0  0  0
 77154  1  0  0  0
 78 86  1  0  0  0
 78155  1  0  0  0
 78156  1  0  0  0
 79 80  1  0  0  0
 79157  1  0  0  0
 79158  1  0  0  0
 80 81  1  0  0  0
 80159  1  0  0  0
 80160  1  0  0  0
 81 82  1  0  0  0
 81161  1  0  0  0
 81162  1  0  0  0
 82 83  1  0  0  0
 82163  1  0  0  0
 82164  1  0  0  0
 83165  1  0  0  0
 83166  1  0  0  0
 84 87  1  0  0  0
 86167  1  0  0  0
M  ISO  4   1 100  68 101  83 101  86 100
M  END
> <chiral flag>
0

> <version>
0

> <s_m_source_file>
/data/baiqing/PycharmProjects/Reinvent-master-3.2/result/LINK_invent/BTK/process_docking_weight1_custom_sum_contain_oxygen_bond_distance_aromatic_linkinvent_7_9_3/rearranged_h_0095.sdf

> <i_m_source_file_index>
65

> <r_mmod_Potential_Energy-OPLS-2005>
-164.96174621582

> <r_mmod_Stretch_Energy-OPLS-2005>
36.2348442077637

> <r_mmod_Bend_Energy-OPLS-2005>
110.075286865234

> <r_mmod_Torsional_Energy-OPLS-2005>
206.880386352539

> <r_mmod_Improper_Torsional_Energy-OPLS-2005>
2.45339059829712

> <r_mmod_Van_der_Waal_Energy-OPLS-2005>
166.537445068359

> <r_mmod_Electrostatic_Energy-OPLS-2005>
-485.351135253906

> <r_mmod_Solvation_Energy-OPLS-2005>
-210.801284790039

> <b_mmod_Minimization_Converged-OPLS-2005>
0

> <r_mmod_RMS_Derivative-OPLS-2005>
1.68523740768433

$$$$
65
                    3D
 Structure written by MMmdl.
166174  0  0  1  0            999 V2000
  -30.5130  -14.9953   20.4233 C   0  0  0  0  0  0
  -30.4397  -12.6198   19.5079 C   0  0  0  0  0  0
  -29.5239  -12.5344   18.2633 C   0  0  0  0  0  0
  -28.0585  -12.3109   18.6819 C   0  0  0  0  0  0
  -27.6234  -13.2539   19.8339 C   0  0  2  0  0  0
  -28.6625  -13.2943   20.9742 C   0  0  0  0  0  0
  -25.2355  -13.8195   20.5570 C   0  0  0  0  0  0
  -24.1738  -13.0414   20.9253 C   0  0  0  0  0  0
  -24.6395  -11.6921   20.8805 C   0  0  0  0  0  0
  -23.9087  -10.4289   21.0441 C   0  0  0  0  0  0
  -24.3636   -9.4203   21.9208 C   0  0  0  0  0  0
  -23.6311   -8.2236   22.0759 C   0  0  0  0  0  0
  -22.4293   -8.0283   21.3544 C   0  0  0  0  0  0
  -21.9935   -9.0258   20.4647 C   0  0  0  0  0  0
  -22.7273  -10.2137   20.3069 C   0  0  0  0  0  0
  -21.6857   -6.0741   22.5282 C   0  0  0  0  0  0
  -21.4013   -6.5640   23.8218 C   0  0  0  0  0  0
  -21.3657   -5.6795   24.9180 C   0  0  0  0  0  0
  -21.6046   -4.3058   24.7230 C   0  0  0  0  0  0
  -21.8821   -3.8152   23.4349 C   0  0  0  0  0  0
  -21.9196   -4.6967   22.3406 C   0  0  0  0  0  0
  -22.7762  -13.5177   21.1918 C   0  0  0  0  0  0
  -22.1669   -4.2152   21.0982 F   0  0  0  0  0  0
  -21.5622   -3.4544   25.7742 F   0  0  0  0  0  0
  -29.9352  -13.7228   20.3792 N   0  0  0  0  0  0
  -26.2831  -12.9471   20.3197 N   0  0  0  0  0  0
  -25.9326  -11.6598   20.5772 N   0  0  0  0  0  0
  -22.0429  -12.8146   22.0481 N   0  0  0  0  0  0
  -25.3821  -15.1887   20.3673 N   0  0  0  0  0  0
  -31.7184  -15.0642   20.1584 O   0  0  0  0  0  0
  -21.6647   -6.8887   21.4247 O   0  0  0  0  0  0
  -22.3436  -14.5486   20.6790 O   0  0  0  0  0  0
  -24.6440  -31.8410   23.1843 C   0  0  0  0  0  0
  -25.9204  -32.4685   23.8232 C   0  0  1  0  0  0
  -27.2154  -27.1064   20.1736 C   0  0  0  0  0  0
  -25.5941  -33.8486   24.2169 N   0  0  0  0  0  0
  -23.4480  -30.4586   21.5300 C   0  0  2  0  0  0
  -24.8987  -28.8730   20.1143 C   0  0  0  0  0  0
  -22.7567  -29.4530   22.4838 C   0  0  0  0  0  0
  -18.0302  -28.1408   22.8479 C   0  0  0  0  0  0
  -24.1479  -36.7249   23.2645 C   0  0  0  0  0  0
  -26.0037  -30.7082   21.3833 C   0  0  0  0  0  0
  -26.0759  -29.3124   20.7341 C   0  0  0  0  0  0
  -27.2366  -28.4481   20.7401 C   0  0  0  0  0  0
  -26.0162  -26.7709   19.5131 C   0  0  0  0  0  0
  -24.8836  -27.6170   19.4853 C   0  0  0  0  0  0
  -23.6773  -29.7814   20.1509 C   0  0  0  0  0  0
  -25.4110  -36.3027   24.0321 C   0  0  1  0  0  0
  -20.5918  -28.3723   23.1245 C   0  0  2  0  0  0
  -20.6779  -26.9424   22.5414 C   0  0  0  0  0  0
  -19.5753  -26.6392   21.5218 C   0  0  0  0  0  0
  -18.1940  -26.7948   22.1630 C   0  0  0  0  0  0
  -19.1561  -28.8882   23.2858 C   0  0  0  0  0  0
  -18.9477  -30.1478   23.8873 C   0  0  0  0  0  0
  -17.6479  -30.6603   24.0567 C   0  0  0  0  0  0
  -25.9058  -34.9405   23.5061 C   0  0  0  0  0  0
  -16.5367  -29.9099   23.6346 C   0  0  0  0  0  0
  -16.7291  -28.6527   23.0351 C   0  0  0  0  0  0
  -26.4518  -31.6550   25.0675 C   0  0  0  0  0  0
  -25.3710  -31.3745   26.1380 C   0  0  0  0  0  0
  -27.0382  -30.2940   24.6257 C   0  0  0  0  0  0
  -27.6047  -32.4304   25.7473 C   0  0  0  0  0  0
  -27.5572  -37.1776   24.8470 C   0  0  0  0  0  0
  -21.4257  -29.3048   22.3607 N   0  0  0  0  0  0
  -26.4274  -37.3749   23.9421 N   0  0  0  0  0  0
  -24.7188  -31.0241   22.0887 N   0  0  0  0  0  0
  -23.4209  -28.8098   23.3004 O   0  0  0  0  0  0
  -28.2870  -26.1324   20.1760 O   0  0  0  0  0  0
  -26.5659  -34.8923   22.4647 O   0  0  0  0  0  0
  -23.5559  -32.1285   23.7064 O   0  0  0  0  0  0
  -27.2562  -20.5693   21.2780 C   0  0  0  0  0  0
  -26.7511  -19.4498   21.8540 C   0  0  0  0  0  0
  -27.7377  -18.4300   21.7245 C   0  0  0  0  0  0
  -28.7755  -18.8622   20.9140 C   0  0  0  0  0  0
  -27.6133  -17.0905   22.4179 C   0  0  0  0  0  0
  -24.2870  -20.0253   21.7613 C   0  0  0  0  0  0
  -25.4949  -19.9114   23.9902 C   0  0  0  0  0  0
  -27.0387  -24.5161   21.6629 C   0  0  0  0  0  0
  -29.9210  -17.7575   20.4572 C   0  0  0  0  0  0
  -28.4471  -23.1705   19.8731 C   0  0  0  0  0  0
  -29.2237  -21.6940   20.3143 C   0  0  0  0  0  0
  -25.4111  -19.3515   22.5631 C   0  0  0  0  0  0
  -28.2336  -24.6444   20.7042 C   0  0  1  0  0  0
  -28.5174  -20.3534   20.7610 N   0  0  0  0  0  0
  -29.7091  -16.1713   20.5600 N   0  0  0  0  0  0
  -31.4732  -12.7861   19.1988 H   0  0  0  0  0  0
  -30.4415  -11.6743   20.0521 H   0  0  0  0  0  0
  -29.8528  -11.7289   17.6050 H   0  0  0  0  0  0
  -29.6028  -13.4560   17.6843 H   0  0  0  0  0  0
  -27.9694  -11.2740   19.0074 H   0  0  0  0  0  0
  -27.3931  -12.4192   17.8245 H   0  0  0  0  0  0
  -27.5824  -14.2517   19.3961 H   0  0  0  0  0  0
  -28.7583  -12.3175   21.4501 H   0  0  0  0  0  0
  -28.3527  -13.9898   21.7556 H   0  0  0  0  0  0
  -25.2776   -9.5680   22.4788 H   0  0  0  0  0  0
  -24.0019   -7.4623   22.7477 H   0  0  0  0  0  0
  -21.0866   -8.8788   19.8944 H   0  0  0  0  0  0
  -22.3746  -10.9676   19.6171 H   0  0  0  0  0  0
  -21.2008   -7.6148   23.9723 H   0  0  0  0  0  0
  -21.1472   -6.0524   25.9083 H   0  0  0  0  0  0
  -22.0599   -2.7613   23.2854 H   0  0  0  0  0  0
  -22.4059  -11.9806   22.4850 H   0  0  0  0  0  0
  -21.1034  -13.1133   22.2677 H   0  0  0  0  0  0
  -24.5907  -15.8175   20.4531 H   0  0  0  0  0  0
  -26.1763  -15.6173   19.9106 H   0  0  0  0  0  0
  -26.7270  -32.5278   23.0956 H   0  0  0  0  0  0
  -25.0069  -33.9581   25.0306 H   0  0  0  0  0  0
  -22.7509  -31.2847   21.3721 H   0  0  0  0  0  0
  -23.3749  -35.9572   23.3286 H   0  0  0  0  0  0
  -24.3572  -36.8892   22.2066 H   0  0  0  0  0  0
  -23.7228  -37.6441   23.6682 H   0  0  0  0  0  0
  -26.1514  -31.4555   20.6025 H   0  0  0  0  0  0
  -26.8768  -30.7695   22.0210 H   0  0  0  0  0  0
  -28.1378  -28.7865   21.2324 H   0  0  0  0  0  0
  -25.9458  -25.8074   19.0289 H   0  0  0  0  0  0
  -23.9891  -27.2781   18.9809 H   0  0  0  0  0  0
  -23.8177  -30.5510   19.3915 H   0  0  0  0  0  0
  -22.7907  -29.2262   19.8387 H   0  0  0  0  0  0
  -25.1295  -36.1850   25.0813 H   0  0  0  0  0  0
  -21.0008  -28.3319   24.1366 H   0  0  0  0  0  0
  -20.5666  -26.2333   23.3636 H   0  0  0  0  0  0
  -21.6652  -26.7429   22.1212 H   0  0  0  0  0  0
  -19.6903  -25.6300   21.1250 H   0  0  0  0  0  0
  -19.6688  -27.3208   20.6755 H   0  0  0  0  0  0
  -17.4202  -26.6697   21.4037 H   0  0  0  0  0  0
  -18.0331  -26.0099   22.9033 H   0  0  0  0  0  0
  -19.7951  -30.7305   24.2226 H   0  0  0  0  0  0
  -17.5032  -31.6276   24.5181 H   0  0  0  0  0  0
  -15.5367  -30.2996   23.7681 H   0  0  0  0  0  0
  -15.8695  -28.0855   22.7057 H   0  0  0  0  0  0
  -24.5931  -30.7025   25.7738 H   0  0  0  0  0  0
  -24.8851  -32.2925   26.4694 H   0  0  0  0  0  0
  -25.8021  -30.9035   27.0225 H   0  0  0  0  0  0
  -26.3008  -29.6653   24.1254 H   0  0  0  0  0  0
  -27.3989  -29.7241   25.4830 H   0  0  0  0  0  0
  -27.8908  -30.4158   23.9571 H   0  0  0  0  0  0
  -27.2647  -33.3642   26.1954 H   0  0  0  0  0  0
  -28.3925  -32.6781   25.0352 H   0  0  0  0  0  0
  -28.0619  -31.8472   26.5473 H   0  0  0  0  0  0
  -28.2578  -38.0088   24.7550 H   0  0  0  0  0  0
  -28.1080  -36.2624   24.6250 H   0  0  0  0  0  0
  -27.2295  -37.1383   25.8875 H   0  0  0  0  0  0
  -20.9460  -29.8784   21.6817 H   0  0  0  0  0  0
  -26.0131  -38.2806   24.1458 H   0  0  0  0  0  0
  -26.8158  -21.5558   21.2456 H   0  0  0  0  0  0
  -26.9090  -17.1271   23.2481 H   0  0  0  0  0  0
  -28.5683  -16.7865   22.8475 H   0  0  0  0  0  0
  -27.2750  -16.3219   21.7307 H   0  0  0  0  0  0
  -24.2024  -19.5829   20.7685 H   0  0  0  0  0  0
  -24.4560  -21.0966   21.6424 H   0  0  0  0  0  0
  -23.3243  -19.8986   22.2582 H   0  0  0  0  0  0
  -26.2675  -19.4050   24.5685 H   0  0  0  0  0  0
  -24.5506  -19.7740   24.5198 H   0  0  0  0  0  0
  -25.7258  -20.9772   23.9899 H   0  0  0  0  0  0
  -27.0014  -25.3471   22.3676 H   0  0  0  0  0  0
  -27.1007  -23.6017   22.2514 H   0  0  0  0  0  0
  -26.0932  -24.4934   21.1200 H   0  0  0  0  0  0
  -30.8328  -17.9788   21.0139 H   0  0  0  0  0  0
  -30.1806  -17.9569   19.4162 H   0  0  0  0  0  0
  -27.4921  -22.9106   19.4182 H   0  0  0  0  0  0
  -29.0390  -23.4873   19.0143 H   0  0  0  0  0  0
  -29.9484  -21.9328   21.0930 H   0  0  0  0  0  0
  -29.8396  -21.4054   19.4625 H   0  0  0  0  0  0
  -25.1434  -18.2969   22.6303 H   0  0  0  0  0  0
  -29.1056  -24.6516   21.3590 H   0  0  0  0  0  0
  -28.7412  -15.9374   20.7097 H   0  0  0  0  0  0
  1 25  1  0  0  0
  1 30  2  0  0  0
  1 85  1  0  0  0
  2  3  1  0  0  0
  2 25  1  0  0  0
  2 86  1  0  0  0
  2 87  1  0  0  0
  3  4  1  0  0  0
  3 88  1  0  0  0
  3 89  1  0  0  0
  4  5  1  0  0  0
  4 90  1  0  0  0
  4 91  1  0  0  0
  5  6  1  0  0  0
  5 26  1  0  0  0
  5 92  1  0  0  0
  6 25  1  0  0  0
  6 93  1  0  0  0
  6 94  1  0  0  0
  7  8  2  0  0  0
  7 26  1  0  0  0
  7 29  1  0  0  0
  8  9  1  0  0  0
  8 22  1  0  0  0
  9 10  1  0  0  0
  9 27  2  0  0  0
 10 11  2  0  0  0
 10 15  1  0  0  0
 11 12  1  0  0  0
 11 95  1  0  0  0
 12 13  2  0  0  0
 12 96  1  0  0  0
 13 14  1  0  0  0
 13 31  1  0  0  0
 14 15  2  0  0  0
 14 97  1  0  0  0
 15 98  1  0  0  0
 16 17  2  0  0  0
 16 21  1  0  0  0
 16 31  1  0  0  0
 17 18  1  0  0  0
 17 99  1  0  0  0
 18 19  2  0  0  0
 18100  1  0  0  0
 19 20  1  0  0  0
 19 24  1  0  0  0
 20 21  2  0  0  0
 20101  1  0  0  0
 21 23  1  0  0  0
 22 28  1  0  0  0
 22 32  2  0  0  0
 26 27  1  0  0  0
 28102  1  0  0  0
 28103  1  0  0  0
 29104  1  0  0  0
 29105  1  0  0  0
 33 34  1  0  0  0
 33 66  1  0  0  0
 33 70  2  0  0  0
 34 36  1  0  0  0
 34 59  1  0  0  0
 34106  1  0  0  0
 35 44  2  0  0  0
 35 45  1  0  0  0
 35 68  1  0  0  0
 36 56  1  0  0  0
 36107  1  0  0  0
 37 39  1  0  0  0
 37 47  1  0  0  0
 37 66  1  0  0  0
 37108  1  0  0  0
 38 43  2  0  0  0
 38 46  1  0  0  0
 38 47  1  0  0  0
 39 64  1  0  0  0
 39 67  2  0  0  0
 40 52  1  0  0  0
 40 53  2  0  0  0
 40 58  1  0  0  0
 41109  1  0  0  0
 41110  1  0  0  0
 41111  1  0  0  0
 41 48  1  0  0  0
 42 43  1  0  0  0
 42 66  1  0  0  0
 42112  1  0  0  0
 42113  1  0  0  0
 43 44  1  0  0  0
 44114  1  0  0  0
 45 46  2  0  0  0
 45115  1  0  0  0
 46116  1  0  0  0
 47117  1  0  0  0
 47118  1  0  0  0
 48 56  1  0  0  0
 48 65  1  0  0  0
 48119  1  0  0  0
 49 50  1  0  0  0
 49 53  1  0  0  0
 49 64  1  0  0  0
 49120  1  0  0  0
 50 51  1  0  0  0
 50121  1  0  0  0
 50122  1  0  0  0
 51 52  1  0  0  0
 51123  1  0  0  0
 51124  1  0  0  0
 52125  1  0  0  0
 52126  1  0  0  0
 53 54  1  0  0  0
 54 55  2  0  0  0
 54127  1  0  0  0
 55 57  1  0  0  0
 55128  1  0  0  0
 56 69  2  0  0  0
 57 58  2  0  0  0
 57129  1  0  0  0
 58130  1  0  0  0
 59 60  1  0  0  0
 59 61  1  0  0  0
 59 62  1  0  0  0
 60131  1  0  0  0
 60132  1  0  0  0
 60133  1  0  0  0
 61134  1  0  0  0
 61135  1  0  0  0
 61136  1  0  0  0
 62137  1  0  0  0
 62138  1  0  0  0
 62139  1  0  0  0
 63 65  1  0  0  0
 63140  1  0  0  0
 63141  1  0  0  0
 63142  1  0  0  0
 64143  1  0  0  0
 65144  1  0  0  0
 68 83  1  0  0  0
 71 72  2  0  0  0
 71 84  1  0  0  0
 71145  1  0  0  0
 72 73  1  0  0  0
 72 82  1  0  0  0
 73 74  2  0  0  0
 73 75  1  0  0  0
 74 79  1  0  0  0
 74 84  1  0  0  0
 75146  1  0  0  0
 75147  1  0  0  0
 75148  1  0  0  0
 76149  1  0  0  0
 76150  1  0  0  0
 76151  1  0  0  0
 76 82  1  0  0  0
 77 82  1  0  0  0
 77152  1  0  0  0
 77153  1  0  0  0
 77154  1  0  0  0
 78155  1  0  0  0
 78156  1  0  0  0
 78157  1  0  0  0
 78 83  1  0  0  0
 79 85  1  0  0  0
 79158  1  0  0  0
 79159  1  0  0  0
 80 81  1  0  0  0
 80 83  1  0  0  0
 80160  1  0  0  0
 80161  1  0  0  0
 81 84  1  0  0  0
 81162  1  0  0  0
 81163  1  0  0  0
 82164  1  0  0  0
 83165  1  0  0  0
 85166  1  0  0  0
M  ISO  4   1 100  68 101  83 101  85 100
M  END
> <chiral flag>
0

> <version>
0

> <s_m_source_file>
/data/baiqing/PycharmProjects/Reinvent-master-3.2/result/LINK_invent/BTK/process_docking_weight1_custom_sum_contain_oxygen_bond_distance_aromatic_linkinvent_7_9_3/rearranged_h_0095.sdf

> <i_m_source_file_index>
66

> <r_mmod_Potential_Energy-OPLS-2005>
607.959289550781

> <r_mmod_Stretch_Energy-OPLS-2005>
331.598907470703

> <r_mmod_Bend_Energy-OPLS-2005>
356.559173583984

> <r_mmod_Torsional_Energy-OPLS-2005>
257.992462158203

> <r_mmod_Improper_Torsional_Energy-OPLS-2005>
5.61731147766113

> <r_mmod_Van_der_Waal_Energy-OPLS-2005>
104.688552856445

> <r_mmod_Electrostatic_Energy-OPLS-2005>
-467.163787841797

> <r_mmod_Solvation_Energy-OPLS-2005>
-200.256469726562

> <b_mmod_Minimization_Converged-OPLS-2005>
0

> <r_mmod_RMS_Derivative-OPLS-2005>
1.80095839500427

$$$$
66
                    3D
 Structure written by MMmdl.
148156  0  0  1  0            999 V2000
  -30.4287  -15.2867   20.3708 C   0  0  0  0  0  0
  -30.4385  -12.8282   19.5171 C   0  0  0  0  0  0
  -29.5343  -12.5778   18.2840 C   0  0  0  0  0  0
  -28.0847  -12.2966   18.7165 C   0  0  0  0  0  0
  -27.6092  -13.2755   19.8186 C   0  0  2  0  0  0
  -28.6438  -13.4620   20.9480 C   0  0  0  0  0  0
  -25.2384  -13.8245   20.5748 C   0  0  0  0  0  0
  -24.1739  -13.0433   20.9262 C   0  0  0  0  0  0
  -24.6396  -11.6931   20.8764 C   0  0  0  0  0  0
  -23.9093  -10.4291   21.0407 C   0  0  0  0  0  0
  -24.3637   -9.4204   21.9185 C   0  0  0  0  0  0
  -23.6304   -8.2243   22.0755 C   0  0  0  0  0  0
  -22.4285   -8.0283   21.3545 C   0  0  0  0  0  0
  -21.9927   -9.0258   20.4646 C   0  0  0  0  0  0
  -22.7263  -10.2133   20.3055 C   0  0  0  0  0  0
  -21.6856   -6.0738   22.5279 C   0  0  0  0  0  0
  -21.4016   -6.5641   23.8213 C   0  0  0  0  0  0
  -21.3660   -5.6793   24.9174 C   0  0  0  0  0  0
  -21.6044   -4.3056   24.7224 C   0  0  0  0  0  0
  -21.8819   -3.8148   23.4345 C   0  0  0  0  0  0
  -21.9193   -4.6965   22.3402 C   0  0  0  0  0  0
  -22.7756  -13.5186   21.1908 C   0  0  0  0  0  0
  -22.1662   -4.2151   21.0979 F   0  0  0  0  0  0
  -21.5628   -3.4539   25.7737 F   0  0  0  0  0  0
  -29.8675  -13.9777   20.3121 N   0  0  0  0  0  0
  -26.2808  -12.9519   20.3209 N   0  0  0  0  0  0
  -25.9332  -11.6625   20.5717 N   0  0  0  0  0  0
  -22.0415  -12.8167   22.0461 N   0  0  0  0  0  0
  -25.4009  -15.1981   20.4183 N   0  0  0  0  0  0
  -31.6558  -15.2853   20.2000 O   0  0  0  0  0  0
  -21.6644   -6.8883   21.4242 O   0  0  0  0  0  0
  -22.3436  -14.5487   20.6746 O   0  0  0  0  0  0
  -24.6646  -31.8221   23.1691 C   0  0  0  0  0  0
  -25.9319  -32.4580   23.8162 C   0  0  1  0  0  0
  -27.2177  -26.9104   20.1921 C   0  0  0  0  0  0
  -25.5979  -33.8395   24.2066 N   0  0  0  0  0  0
  -23.4798  -30.4329   21.5193 C   0  0  2  0  0  0
  -24.9326  -28.8142   20.1176 C   0  0  0  0  0  0
  -22.7673  -29.4434   22.4784 C   0  0  0  0  0  0
  -18.0323  -28.1410   22.8466 C   0  0  0  0  0  0
  -24.1494  -36.7204   23.2648 C   0  0  0  0  0  0
  -26.0501  -30.6238   21.4012 C   0  0  0  0  0  0
  -26.1182  -29.2105   20.7490 C   0  0  0  0  0  0
  -27.2570  -28.2822   20.7563 C   0  0  0  0  0  0
  -26.0015  -26.6699   19.5138 C   0  0  0  0  0  0
  -24.9004  -27.5645   19.4790 C   0  0  0  0  0  0
  -23.7208  -29.7455   20.1474 C   0  0  0  0  0  0
  -25.4136  -36.2963   24.0298 C   0  0  1  0  0  0
  -20.5948  -28.3756   23.1186 C   0  0  2  0  0  0
  -20.6800  -26.9436   22.5402 C   0  0  0  0  0  0
  -19.5773  -26.6378   21.5214 C   0  0  0  0  0  0
  -18.1956  -26.7942   22.1622 C   0  0  0  0  0  0
  -19.1585  -28.8904   23.2812 C   0  0  0  0  0  0
  -18.9495  -30.1493   23.8848 C   0  0  0  0  0  0
  -17.6487  -30.6599   24.0555 C   0  0  0  0  0  0
  -25.9101  -34.9345   23.5005 C   0  0  0  0  0  0
  -16.5378  -29.9085   23.6344 C   0  0  0  0  0  0
  -16.7305  -28.6506   23.0363 C   0  0  0  0  0  0
  -26.4564  -31.6532   25.0698 C   0  0  0  0  0  0
  -25.3684  -31.3786   26.1350 C   0  0  0  0  0  0
  -27.0465  -30.2897   24.6444 C   0  0  0  0  0  0
  -27.6050  -32.4348   25.7503 C   0  0  0  0  0  0
  -27.5568  -37.1762   24.8468 C   0  0  0  0  0  0
  -21.4342  -29.3043   22.3533 N   0  0  0  0  0  0
  -26.4281  -37.3699   23.9405 N   0  0  0  0  0  0
  -24.7531  -30.9870   22.0835 N   0  0  0  0  0  0
  -23.4213  -28.8008   23.3034 O   0  0  0  0  0  0
  -28.2288  -25.8064   20.2230 O   0  0  0  0  0  0
  -26.5715  -34.8884   22.4603 O   0  0  0  0  0  0
  -23.5712  -32.1198   23.6775 O   0  0  0  0  0  0
  -29.1354  -20.3776   18.8157 C   0  0  0  0  0  0
  -28.4565  -21.8060   18.8061 C   0  0  0  0  0  0
  -29.0074  -19.7350   20.2192 C   0  0  1  0  0  0
  -28.8415  -22.5969   20.0837 C   0  0  1  0  0  0
  -29.9548  -18.2142   20.5443 C   0  0  0  0  0  0
  -27.9695  -24.1727   20.3899 C   0  0  0  0  0  0
  -29.6627  -16.5634   20.4227 N   0  0  0  0  0  0
  -29.0023  -21.2046   20.8742 O   0  0  0  0  0  0
  -31.4532  -13.0438   19.1798 H   0  0  0  0  0  0
  -30.5186  -11.9297   20.1311 H   0  0  0  0  0  0
  -29.9185  -11.7469   17.6907 H   0  0  0  0  0  0
  -29.5567  -13.4548   17.6353 H   0  0  0  0  0  0
  -28.0471  -11.2747   19.0957 H   0  0  0  0  0  0
  -27.4145  -12.3291   17.8566 H   0  0  0  0  0  0
  -27.5193  -14.2384   19.3143 H   0  0  0  0  0  0
  -28.8214  -12.5316   21.4893 H   0  0  0  0  0  0
  -28.2803  -14.1850   21.6799 H   0  0  0  0  0  0
  -25.2778   -9.5680   22.4767 H   0  0  0  0  0  0
  -24.0008   -7.4634   22.7477 H   0  0  0  0  0  0
  -21.0858   -8.8783   19.8951 H   0  0  0  0  0  0
  -22.3722  -10.9675   19.6167 H   0  0  0  0  0  0
  -21.2010   -7.6149   23.9716 H   0  0  0  0  0  0
  -21.1481   -6.0523   25.9077 H   0  0  0  0  0  0
  -22.0597   -2.7610   23.2845 H   0  0  0  0  0  0
  -22.4048  -11.9838   22.4853 H   0  0  0  0  0  0
  -21.1025  -13.1173   22.2662 H   0  0  0  0  0  0
  -24.6291  -15.8463   20.5320 H   0  0  0  0  0  0
  -26.2391  -15.6406   20.0656 H   0  0  0  0  0  0
  -26.7390  -32.5114   23.0877 H   0  0  0  0  0  0
  -25.0069  -33.9469   25.0178 H   0  0  0  0  0  0
  -22.7940  -31.2649   21.3463 H   0  0  0  0  0  0
  -23.3765  -35.9525   23.3286 H   0  0  0  0  0  0
  -24.3567  -36.8877   22.2067 H   0  0  0  0  0  0
  -23.7244  -37.6382   23.6723 H   0  0  0  0  0  0
  -26.2305  -31.3626   20.6192 H   0  0  0  0  0  0
  -26.9101  -30.6833   22.0564 H   0  0  0  0  0  0
  -28.1584  -28.5889   21.2680 H   0  0  0  0  0  0
  -25.8731  -25.7212   19.0139 H   0  0  0  0  0  0
  -24.0013  -27.2558   18.9635 H   0  0  0  0  0  0
  -23.8798  -30.5122   19.3881 H   0  0  0  0  0  0
  -22.8298  -29.2016   19.8289 H   0  0  0  0  0  0
  -25.1336  -36.1758   25.0789 H   0  0  0  0  0  0
  -21.0034  -28.3364   24.1310 H   0  0  0  0  0  0
  -20.5681  -26.2374   23.3643 H   0  0  0  0  0  0
  -21.6663  -26.7411   22.1208 H   0  0  0  0  0  0
  -19.6932  -25.6276   21.1276 H   0  0  0  0  0  0
  -19.6712  -27.3161   20.6723 H   0  0  0  0  0  0
  -17.4224  -26.6684   21.4027 H   0  0  0  0  0  0
  -18.0350  -26.0096   22.9030 H   0  0  0  0  0  0
  -19.7970  -30.7323   24.2196 H   0  0  0  0  0  0
  -17.5039  -31.6273   24.5166 H   0  0  0  0  0  0
  -15.5376  -30.2970   23.7697 H   0  0  0  0  0  0
  -15.8706  -28.0807   22.7106 H   0  0  0  0  0  0
  -24.5884  -30.7117   25.7658 H   0  0  0  0  0  0
  -24.8854  -32.2987   26.4646 H   0  0  0  0  0  0
  -25.7912  -30.9038   27.0214 H   0  0  0  0  0  0
  -26.3138  -29.6565   24.1430 H   0  0  0  0  0  0
  -27.3970  -29.7271   25.5107 H   0  0  0  0  0  0
  -27.9088  -30.4075   23.9878 H   0  0  0  0  0  0
  -27.2613  -33.3694   26.1948 H   0  0  0  0  0  0
  -28.3930  -32.6836   25.0383 H   0  0  0  0  0  0
  -28.0642  -31.8564   26.5530 H   0  0  0  0  0  0
  -28.2574  -38.0067   24.7501 H   0  0  0  0  0  0
  -28.1075  -36.2592   24.6315 H   0  0  0  0  0  0
  -27.2280  -37.1427   25.8870 H   0  0  0  0  0  0
  -20.9601  -29.8726   21.6652 H   0  0  0  0  0  0
  -26.0128  -38.2758   24.1405 H   0  0  0  0  0  0
  -30.1939  -20.4896   18.5778 H   0  0  0  0  0  0
  -28.7113  -19.7292   18.0483 H   0  0  0  0  0  0
  -27.3734  -21.6795   18.7877 H   0  0  0  0  0  0
  -28.7186  -22.3646   17.9070 H   0  0  0  0  0  0
  -27.9678  -19.4252   20.3307 H   0  0  0  0  0  0
  -29.8797  -22.9061   19.9582 H   0  0  0  0  0  0
  -30.2040  -18.3051   21.6017 H   0  0  0  0  0  0
  -30.9165  -18.3585   20.0509 H   0  0  0  0  0  0
  -27.7791  -24.1210   21.4618 H   0  0  0  0  0  0
  -26.9804  -24.0101   19.9648 H   0  0  0  0  0  0
  -28.6724  -16.3676   20.4580 H   0  0  0  0  0  0
  1 25  1  0  0  0
  1 30  2  0  0  0
  1 77  1  0  0  0
  2  3  1  0  0  0
  2 25  1  0  0  0
  2 79  1  0  0  0
  2 80  1  0  0  0
  3  4  1  0  0  0
  3 81  1  0  0  0
  3 82  1  0  0  0
  4  5  1  0  0  0
  4 83  1  0  0  0
  4 84  1  0  0  0
  5  6  1  0  0  0
  5 26  1  0  0  0
  5 85  1  0  0  0
  6 25  1  0  0  0
  6 86  1  0  0  0
  6 87  1  0  0  0
  7  8  2  0  0  0
  7 26  1  0  0  0
  7 29  1  0  0  0
  8  9  1  0  0  0
  8 22  1  0  0  0
  9 10  1  0  0  0
  9 27  2  0  0  0
 10 11  2  0  0  0
 10 15  1  0  0  0
 11 12  1  0  0  0
 11 88  1  0  0  0
 12 13  2  0  0  0
 12 89  1  0  0  0
 13 14  1  0  0  0
 13 31  1  0  0  0
 14 15  2  0  0  0
 14 90  1  0  0  0
 15 91  1  0  0  0
 16 17  2  0  0  0
 16 21  1  0  0  0
 16 31  1  0  0  0
 17 18  1  0  0  0
 17 92  1  0  0  0
 18 19  2  0  0  0
 18 93  1  0  0  0
 19 20  1  0  0  0
 19 24  1  0  0  0
 20 21  2  0  0  0
 20 94  1  0  0  0
 21 23  1  0  0  0
 22 28  1  0  0  0
 22 32  2  0  0  0
 26 27  1  0  0  0
 28 95  1  0  0  0
 28 96  1  0  0  0
 29 97  1  0  0  0
 29 98  1  0  0  0
 33 34  1  0  0  0
 33 66  1  0  0  0
 33 70  2  0  0  0
 34 36  1  0  0  0
 34 59  1  0  0  0
 34 99  1  0  0  0
 35 44  2  0  0  0
 35 45  1  0  0  0
 35 68  1  0  0  0
 36 56  1  0  0  0
 36100  1  0  0  0
 37 39  1  0  0  0
 37 47  1  0  0  0
 37 66  1  0  0  0
 37101  1  0  0  0
 38 43  2  0  0  0
 38 46  1  0  0  0
 38 47  1  0  0  0
 39 64  1  0  0  0
 39 67  2  0  0  0
 40 52  1  0  0  0
 40 53  2  0  0  0
 40 58  1  0  0  0
 41102  1  0  0  0
 41103  1  0  0  0
 41104  1  0  0  0
 41 48  1  0  0  0
 42 43  1  0  0  0
 42 66  1  0  0  0
 42105  1  0  0  0
 42106  1  0  0  0
 43 44  1  0  0  0
 44107  1  0  0  0
 45 46  2  0  0  0
 45108  1  0  0  0
 46109  1  0  0  0
 47110  1  0  0  0
 47111  1  0  0  0
 48 56  1  0  0  0
 48 65  1  0  0  0
 48112  1  0  0  0
 49 50  1  0  0  0
 49 53  1  0  0  0
 49 64  1  0  0  0
 49113  1  0  0  0
 50 51  1  0  0  0
 50114  1  0  0  0
 50115  1  0  0  0
 51 52  1  0  0  0
 51116  1  0  0  0
 51117  1  0  0  0
 52118  1  0  0  0
 52119  1  0  0  0
 53 54  1  0  0  0
 54 55  2  0  0  0
 54120  1  0  0  0
 55 57  1  0  0  0
 55121  1  0  0  0
 56 69  2  0  0  0
 57 58  2  0  0  0
 57122  1  0  0  0
 58123  1  0  0  0
 59 60  1  0  0  0
 59 61  1  0  0  0
 59 62  1  0  0  0
 60124  1  0  0  0
 60125  1  0  0  0
 60126  1  0  0  0
 61127  1  0  0  0
 61128  1  0  0  0
 61129  1  0  0  0
 62130  1  0  0  0
 62131  1  0  0  0
 62132  1  0  0  0
 63 65  1  0  0  0
 63133  1  0  0  0
 63134  1  0  0  0
 63135  1  0  0  0
 64136  1  0  0  0
 65137  1  0  0  0
 68 76  1  0  0  0
 71 72  1  0  0  0
 71 73  1  0  0  0
 71138  1  0  0  0
 71139  1  0  0  0
 72 74  1  0  0  0
 72140  1  0  0  0
 72141  1  0  0  0
 73 75  1  0  0  0
 73 78  1  0  0  0
 73142  1  0  0  0
 74 76  1  0  0  0
 74 78  1  0  0  0
 74143  1  0  0  0
 75 77  1  0  0  0
 75144  1  0  0  0
 75145  1  0  0  0
 76146  1  0  0  0
 76147  1  0  0  0
 77148  1  0  0  0
M  ISO  4   1 100  68 101  76 101  77 100
M  END
> <chiral flag>
0

> <version>
0

> <s_m_source_file>
/data/baiqing/PycharmProjects/Reinvent-master-3.2/result/LINK_invent/BTK/process_docking_weight1_custom_sum_contain_oxygen_bond_distance_aromatic_linkinvent_7_9_3/rearranged_h_0095.sdf

> <i_m_source_file_index>
67

> <r_mmod_Potential_Energy-OPLS-2005>
1371.10266113281

> <r_mmod_Stretch_Energy-OPLS-2005>
630.810913085938

> <r_mmod_Bend_Energy-OPLS-2005>
506.168792724609

> <r_mmod_Torsional_Energy-OPLS-2005>
260.087066650391

> <r_mmod_Improper_Torsional_Energy-OPLS-2005>
3.8679883480072

> <r_mmod_Van_der_Waal_Energy-OPLS-2005>
107.63020324707

> <r_mmod_Electrostatic_Energy-OPLS-2005>
-396.710540771484

> <r_mmod_Solvation_Energy-OPLS-2005>
-221.301406860352

> <b_mmod_Minimization_Converged-OPLS-2005>
0

> <r_mmod_RMS_Derivative-OPLS-2005>
0.0773629695177078

$$$$
67
                    3D
 Structure written by MMmdl.
182190  0  0  1  0            999 V2000
  -30.9319  -13.9228   20.4648 C   0  0  0  0  0  0
  -31.0466  -11.7651   18.9666 C   0  0  0  0  0  0
  -29.7862  -12.4027   17.5705 C   0  0  0  0  0  0
  -28.2911  -13.5736   18.0793 C   0  0  0  0  0  0
  -27.9127  -14.0535   19.9812 C   0  0  2  0  0  0
  -28.9883  -13.3658   21.4017 C   0  0  0  0  0  0
  -25.8387  -14.3539   20.9904 C   0  0  0  0  0  0
  -24.1149  -13.6658   20.7860 C   0  0  0  0  0  0
  -24.0078  -12.3618   20.4739 C   0  0  0  0  0  0
  -23.6630  -10.8387   20.9408 C   0  0  0  0  0  0
  -24.2260   -9.8161   21.8216 C   0  0  0  0  0  0
  -23.6490   -8.5074   22.0190 C   0  0  0  0  0  0
  -22.4564   -8.1450   21.3490 C   0  0  0  0  0  0
  -21.9329   -9.0882   20.4537 C   0  0  0  0  0  0
  -22.5297  -10.3516   20.2495 C   0  0  0  0  0  0
  -21.7588   -6.1141   22.5268 C   0  0  0  0  0  0
  -21.4620   -6.5976   23.8213 C   0  0  0  0  0  0
  -21.3839   -5.7005   24.9107 C   0  0  0  0  0  0
  -21.5981   -4.3236   24.7135 C   0  0  0  0  0  0
  -21.8714   -3.8342   23.4241 C   0  0  0  0  0  0
  -21.9418   -4.7255   22.3362 C   0  0  0  0  0  0
  -22.5367  -13.9458   21.1510 C   0  0  0  0  0  0
  -22.1776   -4.2359   21.0944 F   0  0  0  0  0  0
  -21.5403   -3.4655   25.7606 F   0  0  0  0  0  0
  -30.5562  -12.7175   20.5912 N   0  0  0  0  0  0
  -26.7116  -13.9924   20.8482 N   0  0  0  0  0  0
  -24.8742  -13.6061   20.7384 N   0  0  0  0  0  0
  -21.9243  -13.0980   22.0052 N   0  0  0  0  0  0
  -26.6947  -15.4818   21.4942 N   0  0  0  0  0  0
  -31.9025  -14.5534   20.0388 O   0  0  0  0  0  0
  -21.7906   -6.9306   21.4155 O   0  0  0  0  0  0
  -21.9546  -14.8637   20.6103 O   0  0  0  0  0  0
  -24.7254  -31.7543   23.1238 C   0  0  0  0  0  0
  -25.9670  -32.4225   23.7863 C   0  0  1  0  0  0
  -26.5232  -26.0488   20.2583 C   0  0  0  0  0  0
  -25.6094  -33.8119   24.1674 N   0  0  0  0  0  0
  -23.5266  -30.3775   21.5098 C   0  0  2  0  0  0
  -24.8518  -28.6493   20.0686 C   0  0  0  0  0  0
  -22.7771  -29.4081   22.4666 C   0  0  0  0  0  0
  -18.0271  -28.1449   22.8394 C   0  0  0  0  0  0
  -24.1482  -36.7059   23.2644 C   0  0  0  0  0  0
  -26.1049  -30.2263   21.4850 C   0  0  0  0  0  0
  -26.0220  -28.7520   20.8148 C   0  0  0  0  0  0
  -26.8713  -27.4703   20.8746 C   0  0  0  0  0  0
  -25.5160  -26.3497   19.3348 C   0  0  0  0  0  0
  -24.6947  -27.5058   19.2808 C   0  0  0  0  0  0
  -23.7575  -29.7236   20.1201 C   0  0  0  0  0  0
  -25.4170  -36.2799   24.0217 C   0  0  1  0  0  0
  -20.5913  -28.3784   23.1107 C   0  0  2  0  0  0
  -20.6774  -26.9433   22.5412 C   0  0  0  0  0  0
  -19.5779  -26.6344   21.5212 C   0  0  0  0  0  0
  -18.1930  -26.7956   22.1571 C   0  0  0  0  0  0
  -19.1549  -28.8943   23.2717 C   0  0  0  0  0  0
  -18.9467  -30.1531   23.8763 C   0  0  0  0  0  0
  -17.6470  -30.6643   24.0525 C   0  0  0  0  0  0
  -25.9206  -34.9201   23.4812 C   0  0  0  0  0  0
  -16.5345  -29.9109   23.6397 C   0  0  0  0  0  0
  -16.7242  -28.6541   23.0366 C   0  0  0  0  0  0
  -26.4671  -31.6506   25.0712 C   0  0  0  0  0  0
  -25.3564  -31.4012   26.1198 C   0  0  0  0  0  0
  -27.0686  -30.2785   24.7056 C   0  0  0  0  0  0
  -27.6055  -32.4482   25.7518 C   0  0  0  0  0  0
  -27.5560  -37.1686   24.8455 C   0  0  0  0  0  0
  -21.4408  -29.2968   22.3395 N   0  0  0  0  0  0
  -26.4262  -37.3612   23.9409 N   0  0  0  0  0  0
  -24.8248  -30.8388   22.0866 N   0  0  0  0  0  0
  -23.4093  -28.7669   23.3104 O   0  0  0  0  0  0
  -26.8610  -24.4128   20.3583 O   0  0  0  0  0  0
  -26.5897  -34.8865   22.4472 O   0  0  0  0  0  0
  -23.6204  -32.1029   23.5867 O   0  0  0  0  0  0
  -25.4520  -14.5110   18.7757 C   0  0  0  0  0  0
  -24.7034  -16.1206   20.2362 C   0  0  0  0  0  0
  -24.4616  -15.4301   22.3426 C   0  0  0  0  0  0
  -26.1476  -12.3769   19.4474 C   0  0  0  0  0  0
  -25.2575  -13.4389   22.9667 C   0  0  0  0  0  0
  -23.2138  -16.1235   24.5491 C   0  0  0  0  0  0
  -26.8702  -12.9481   24.8268 C   0  0  0  0  0  0
  -24.5340  -11.9056   24.8540 C   0  0  0  0  0  0
  -25.3458   -8.2260   17.6590 C   0  0  0  0  0  0
  -25.3449  -10.5595   16.7600 C   0  0  0  0  0  0
  -24.9045  -18.2538   20.0126 C   0  0  0  0  0  0
  -24.0047  -16.5264   23.2990 C   0  0  0  0  0  0
  -25.8734  -20.2972   20.3443 C   0  0  0  0  0  0
  -26.7514   -9.9627   18.9257 C   0  0  0  0  0  0
  -28.7401  -11.7549   19.6498 C   0  0  0  0  0  0
  -25.9842  -22.5723   20.1575 C   0  0  0  0  0  0
  -27.2461  -11.4299   18.9340 C   0  0  2  0  0  0
  -25.3948  -13.1020   24.4363 C   0  0  0  0  0  0
  -25.4788   -9.7053   18.0429 C   0  0  0  0  0  0
  -26.0814  -11.9945   21.6312 N   0  0  0  0  0  0
  -30.0975  -13.5491   19.5747 N   0  0  0  0  0  0
  -32.0671  -12.0382   18.6772 H   0  0  0  0  0  0
  -31.1007  -10.6861   19.0955 H   0  0  0  0  0  0
  -29.4279  -11.5336   17.0123 H   0  0  0  0  0  0
  -30.3692  -12.9430   16.8209 H   0  0  0  0  0  0
  -27.4250  -13.4728   17.4316 H   0  0  0  0  0  0
  -28.6208  -14.5264   17.6641 H   0  0  0  0  0  0
  -28.2059  -15.1032   19.8516 H   0  0  0  0  0  0
  -28.5043  -12.6425   22.0524 H   0  0  0  0  0  0
  -29.1719  -14.1803   22.1094 H   0  0  0  0  0  0
  -25.1161  -10.0110   22.3885 H   0  0  0  0  0  0
  -24.1322   -7.8050   22.6837 H   0  0  0  0  0  0
  -21.0316   -8.8427   19.9086 H   0  0  0  0  0  0
  -22.0537  -11.0006   19.5289 H   0  0  0  0  0  0
  -21.2962   -7.6532   23.9826 H   0  0  0  0  0  0
  -21.1693   -6.0736   25.9040 H   0  0  0  0  0  0
  -22.0235   -2.7766   23.2694 H   0  0  0  0  0  0
  -22.4359  -12.3357   22.4272 H   0  0  0  0  0  0
  -20.9473  -13.2202   22.2308 H   0  0  0  0  0  0
  -25.9045  -15.7682   22.0852 H   0  0  0  0  0  0
  -26.7473  -16.1877   20.7767 H   0  0  0  0  0  0
  -26.7803  -32.4487   23.0587 H   0  0  0  0  0  0
  -25.0055  -33.9133   24.9694 H   0  0  0  0  0  0
  -22.8725  -31.2356   21.3446 H   0  0  0  0  0  0
  -23.3829  -35.9302   23.3212 H   0  0  0  0  0  0
  -24.3499  -36.8868   22.2072 H   0  0  0  0  0  0
  -23.7140  -37.6139   23.6841 H   0  0  0  0  0  0
  -26.4222  -30.9043   20.6925 H   0  0  0  0  0  0
  -26.9343  -30.2211   22.1786 H   0  0  0  0  0  0
  -27.7253  -27.5010   21.5372 H   0  0  0  0  0  0
  -25.1819  -25.5335   18.7105 H   0  0  0  0  0  0
  -23.8406  -27.4641   18.6208 H   0  0  0  0  0  0
  -24.0245  -30.4977   19.3985 H   0  0  0  0  0  0
  -22.8204  -29.2956   19.7615 H   0  0  0  0  0  0
  -25.1403  -36.1515   25.0702 H   0  0  0  0  0  0
  -20.9920  -28.3431   24.1265 H   0  0  0  0  0  0
  -20.5706  -26.2380   23.3671 H   0  0  0  0  0  0
  -21.6627  -26.7437   22.1193 H   0  0  0  0  0  0
  -19.6999  -25.6225   21.1334 H   0  0  0  0  0  0
  -19.6809  -27.3075   20.6687 H   0  0  0  0  0  0
  -17.4227  -26.6603   21.3956 H   0  0  0  0  0  0
  -18.0339  -26.0153   22.9029 H   0  0  0  0  0  0
  -19.7950  -30.7358   24.2083 H   0  0  0  0  0  0
  -17.5036  -31.6325   24.5131 H   0  0  0  0  0  0
  -15.5354  -30.2997   23.7864 H   0  0  0  0  0  0
  -15.8590  -28.0871   22.7199 H   0  0  0  0  0  0
  -24.5744  -30.7427   25.7398 H   0  0  0  0  0  0
  -24.8773  -32.3313   26.4267 H   0  0  0  0  0  0
  -25.7514  -30.9316   27.0216 H   0  0  0  0  0  0
  -26.3435  -29.6144   24.2343 H   0  0  0  0  0  0
  -27.4130  -29.7578   25.6007 H   0  0  0  0  0  0
  -27.9431  -30.3791   24.0621 H   0  0  0  0  0  0
  -27.2584  -33.3941   26.1702 H   0  0  0  0  0  0
  -28.4014  -32.6800   25.0424 H   0  0  0  0  0  0
  -28.0577  -31.8902   26.5729 H   0  0  0  0  0  0
  -28.2525  -38.0038   24.7592 H   0  0  0  0  0  0
  -28.1130  -36.2577   24.6215 H   0  0  0  0  0  0
  -27.2289  -37.1215   25.8857 H   0  0  0  0  0  0
  -20.9770  -29.8594   21.6410 H   0  0  0  0  0  0
  -26.0073  -38.2656   24.1446 H   0  0  0  0  0  0
  -25.7113  -14.8399   17.7788 H   0  0  0  0  0  0
  -22.8628  -17.0348   25.0370 H   0  0  0  0  0  0
  -23.8112  -15.6012   25.2923 H   0  0  0  0  0  0
  -22.3400  -15.5182   24.3101 H   0  0  0  0  0  0
  -27.4345  -13.8428   24.5713 H   0  0  0  0  0  0
  -27.3366  -12.1093   24.3103 H   0  0  0  0  0  0
  -26.9808  -12.7933   25.9000 H   0  0  0  0  0  0
  -23.4875  -12.0675   24.5974 H   0  0  0  0  0  0
  -24.5840  -11.7560   25.9320 H   0  0  0  0  0  0
  -24.8644  -10.9835   24.3790 H   0  0  0  0  0  0
  -24.4336   -8.0421   17.0884 H   0  0  0  0  0  0
  -25.3187   -7.5728   18.5307 H   0  0  0  0  0  0
  -26.1816   -7.9176   17.0322 H   0  0  0  0  0  0
  -24.4546  -10.2813   16.1963 H   0  0  0  0  0  0
  -26.2001  -10.4289   16.0967 H   0  0  0  0  0  0
  -25.2387  -11.6259   16.9638 H   0  0  0  0  0  0
  -23.8902  -18.5008   20.3301 H   0  0  0  0  0  0
  -24.8454  -18.2745   18.9258 H   0  0  0  0  0  0
  -23.3555  -17.1653   22.6944 H   0  0  0  0  0  0
  -24.8549  -17.1536   23.5734 H   0  0  0  0  0  0
  -26.8487  -20.0617   19.9205 H   0  0  0  0  0  0
  -26.0250  -20.2305   21.4209 H   0  0  0  0  0  0
  -26.5617   -9.6315   19.9477 H   0  0  0  0  0  0
  -27.5646   -9.3317   18.5612 H   0  0  0  0  0  0
  -29.1022  -10.8096   19.2501 H   0  0  0  0  0  0
  -28.6158  -11.2630   20.6225 H   0  0  0  0  0  0
  -25.0574  -22.8288   20.6726 H   0  0  0  0  0  0
  -25.7171  -22.6676   19.1049 H   0  0  0  0  0  0
  -27.3358  -11.4959   17.8586 H   0  0  0  0  0  0
  -25.0322  -13.9664   24.9795 H   0  0  0  0  0  0
  -24.6059   -9.9474   18.6424 H   0  0  0  0  0  0
  -30.1093  -14.0627   18.7080 H   0  0  0  0  0  0
  1 25  1  0  0  0
  1 30  2  0  0  0
  1 91  1  0  0  0
  2  3  1  0  0  0
  2 25  1  0  0  0
  2 92  1  0  0  0
  2 93  1  0  0  0
  3  4  1  0  0  0
  3 94  1  0  0  0
  3 95  1  0  0  0
  4  5  1  0  0  0
  4 96  1  0  0  0
  4 97  1  0  0  0
  5  6  1  0  0  0
  5 26  1  0  0  0
  5 98  1  0  0  0
  6 25  1  0  0  0
  6 99  1  0  0  0
  6100  1  0  0  0
  7  8  2  0  0  0
  7 26  1  0  0  0
  7 29  1  0  0  0
  8  9  1  0  0  0
  8 22  1  0  0  0
  9 10  1  0  0  0
  9 27  2  0  0  0
 10 11  2  0  0  0
 10 15  1  0  0  0
 11 12  1  0  0  0
 11101  1  0  0  0
 12 13  2  0  0  0
 12102  1  0  0  0
 13 14  1  0  0  0
 13 31  1  0  0  0
 14 15  2  0  0  0
 14103  1  0  0  0
 15104  1  0  0  0
 16 17  2  0  0  0
 16 21  1  0  0  0
 16 31  1  0  0  0
 17 18  1  0  0  0
 17105  1  0  0  0
 18 19  2  0  0  0
 18106  1  0  0  0
 19 20  1  0  0  0
 19 24  1  0  0  0
 20 21  2  0  0  0
 20107  1  0  0  0
 21 23  1  0  0  0
 22 28  1  0  0  0
 22 32  2  0  0  0
 26 27  1  0  0  0
 28108  1  0  0  0
 28109  1  0  0  0
 29110  1  0  0  0
 29111  1  0  0  0
 33 34  1  0  0  0
 33 66  1  0  0  0
 33 70  2  0  0  0
 34 36  1  0  0  0
 34 59  1  0  0  0
 34112  1  0  0  0
 35 44  2  0  0  0
 35 45  1  0  0  0
 35 68  1  0  0  0
 36 56  1  0  0  0
 36113  1  0  0  0
 37 39  1  0  0  0
 37 47  1  0  0  0
 37 66  1  0  0  0
 37114  1  0  0  0
 38 43  2  0  0  0
 38 46  1  0  0  0
 38 47  1  0  0  0
 39 64  1  0  0  0
 39 67  2  0  0  0
 40 52  1  0  0  0
 40 53  2  0  0  0
 40 58  1  0  0  0
 41115  1  0  0  0
 41116  1  0  0  0
 41117  1  0  0  0
 41 48  1  0  0  0
 42 43  1  0  0  0
 42 66  1  0  0  0
 42118  1  0  0  0
 42119  1  0  0  0
 43 44  1  0  0  0
 44120  1  0  0  0
 45 46  2  0  0  0
 45121  1  0  0  0
 46122  1  0  0  0
 47123  1  0  0  0
 47124  1  0  0  0
 48 56  1  0  0  0
 48 65  1  0  0  0
 48125  1  0  0  0
 49 50  1  0  0  0
 49 53  1  0  0  0
 49 64  1  0  0  0
 49126  1  0  0  0
 50 51  1  0  0  0
 50127  1  0  0  0
 50128  1  0  0  0
 51 52  1  0  0  0
 51129  1  0  0  0
 51130  1  0  0  0
 52131  1  0  0  0
 52132  1  0  0  0
 53 54  1  0  0  0
 54 55  2  0  0  0
 54133  1  0  0  0
 55 57  1  0  0  0
 55134  1  0  0  0
 56 69  2  0  0  0
 57 58  2  0  0  0
 57135  1  0  0  0
 58136  1  0  0  0
 59 60  1  0  0  0
 59 61  1  0  0  0
 59 62  1  0  0  0
 60137  1  0  0  0
 60138  1  0  0  0
 60139  1  0  0  0
 61140  1  0  0  0
 61141  1  0  0  0
 61142  1  0  0  0
 62143  1  0  0  0
 62144  1  0  0  0
 62145  1  0  0  0
 63 65  1  0  0  0
 63146  1  0  0  0
 63147  1  0  0  0
 63148  1  0  0  0
 64149  1  0  0  0
 65150  1  0  0  0
 68 86  1  0  0  0
 71 72  2  0  0  0
 71 74  1  0  0  0
 71151  1  0  0  0
 72 73  1  0  0  0
 72 81  1  0  0  0
 73 75  2  0  0  0
 73 82  1  0  0  0
 74 87  1  0  0  0
 74 90  2  0  0  0
 75 88  1  0  0  0
 75 90  1  0  0  0
 76 82  1  0  0  0
 76152  1  0  0  0
 76153  1  0  0  0
 76154  1  0  0  0
 77155  1  0  0  0
 77156  1  0  0  0
 77157  1  0  0  0
 77 88  1  0  0  0
 78 88  1  0  0  0
 78158  1  0  0  0
 78159  1  0  0  0
 78160  1  0  0  0
 79161  1  0  0  0
 79162  1  0  0  0
 79163  1  0  0  0
 79 89  1  0  0  0
 80 89  1  0  0  0
 80164  1  0  0  0
 80165  1  0  0  0
 80166  1  0  0  0
 81 83  1  0  0  0
 81167  1  0  0  0
 81168  1  0  0  0
 82169  1  0  0  0
 82170  1  0  0  0
 83 86  1  0  0  0
 83171  1  0  0  0
 83172  1  0  0  0
 84 89  1  0  0  0
 84173  1  0  0  0
 84174  1  0  0  0
 84 87  1  0  0  0
 85 87  1  0  0  0
 85 91  1  0  0  0
 85175  1  0  0  0
 85176  1  0  0  0
 86177  1  0  0  0
 86178  1  0  0  0
 87179  1  0  0  0
 88180  1  0  0  0
 89181  1  0  0  0
 91182  1  0  0  0
M  ISO  4   1 100  68 101  86 101  91 100
M  END
> <chiral flag>
0

> <version>
0

> <s_m_source_file>
/data/baiqing/PycharmProjects/Reinvent-master-3.2/result/LINK_invent/BTK/process_docking_weight1_custom_sum_contain_oxygen_bond_distance_aromatic_linkinvent_7_9_3/rearranged_h_0095.sdf

> <i_m_source_file_index>
68

> <r_mmod_Potential_Energy-OPLS-2005>
27815.904296875

> <r_mmod_Stretch_Energy-OPLS-2005>
15612.7626953125

> <r_mmod_Bend_Energy-OPLS-2005>
3196.15356445312

> <r_mmod_Torsional_Energy-OPLS-2005>
580.4453125

> <r_mmod_Improper_Torsional_Energy-OPLS-2005>
126.041732788086

> <r_mmod_Van_der_Waal_Energy-OPLS-2005>
5773.84765625

> <r_mmod_Electrostatic_Energy-OPLS-2005>
-521.309692382812

> <r_mmod_Solvation_Energy-OPLS-2005>
-210.152191162109

> <b_mmod_Minimization_Converged-OPLS-2005>
0

> <r_mmod_RMS_Derivative-OPLS-2005>
11.6853046417236

$$$$
68
                    3D
 Structure written by MMmdl.
168176  0  0  1  0            999 V2000
  -30.6807  -14.5368   20.5514 C   0  0  0  0  0  0
  -30.4211  -12.3414   19.4373 C   0  0  0  0  0  0
  -29.4949  -12.5019   18.2136 C   0  0  0  0  0  0
  -28.0185  -12.3472   18.6257 C   0  0  0  0  0  0
  -27.6519  -13.2114   19.8615 C   0  0  2  0  0  0
  -28.6938  -13.0406   20.9898 C   0  0  0  0  0  0
  -25.2556  -13.8185   20.5665 C   0  0  0  0  0  0
  -24.1819  -13.0460   20.9191 C   0  0  0  0  0  0
  -24.6372  -11.6924   20.8737 C   0  0  0  0  0  0
  -23.9049  -10.4306   21.0410 C   0  0  0  0  0  0
  -24.3620   -9.4229   21.9185 C   0  0  0  0  0  0
  -23.6301   -8.2260   22.0762 C   0  0  0  0  0  0
  -22.4280   -8.0292   21.3553 C   0  0  0  0  0  0
  -21.9911   -9.0265   20.4658 C   0  0  0  0  0  0
  -22.7225  -10.2149   20.3060 C   0  0  0  0  0  0
  -21.6856   -6.0751   22.5281 C   0  0  0  0  0  0
  -21.4020   -6.5657   23.8216 C   0  0  0  0  0  0
  -21.3661   -5.6806   24.9177 C   0  0  0  0  0  0
  -21.6040   -4.3069   24.7218 C   0  0  0  0  0  0
  -21.8822   -3.8165   23.4339 C   0  0  0  0  0  0
  -21.9193   -4.6981   22.3400 C   0  0  0  0  0  0
  -22.7843  -13.5259   21.1860 C   0  0  0  0  0  0
  -22.1661   -4.2175   21.0974 F   0  0  0  0  0  0
  -21.5617   -3.4551   25.7731 F   0  0  0  0  0  0
  -30.0158  -13.3515   20.4287 N   0  0  0  0  0  0
  -26.2963  -12.9345   20.3289 N   0  0  0  0  0  0
  -25.9291  -11.6507   20.5756 N   0  0  0  0  0  0
  -22.0490  -12.8245   22.0415 N   0  0  0  0  0  0
  -25.4295  -15.1899   20.4038 N   0  0  0  0  0  0
  -31.8306  -14.6906   20.1320 O   0  0  0  0  0  0
  -21.6644   -6.8889   21.4241 O   0  0  0  0  0  0
  -22.3527  -14.5559   20.6697 O   0  0  0  0  0  0
  -24.6202  -31.8663   23.2081 C   0  0  0  0  0  0
  -25.9081  -32.4805   23.8394 C   0  0  1  0  0  0
  -27.2232  -27.3969   20.1035 C   0  0  0  0  0  0
  -25.5915  -33.8609   24.2312 N   0  0  0  0  0  0
  -23.4101  -30.4917   21.5486 C   0  0  2  0  0  0
  -24.8558  -28.9579   20.1127 C   0  0  0  0  0  0
  -22.7431  -29.4693   22.4977 C   0  0  0  0  0  0
  -18.0310  -28.1356   22.8486 C   0  0  0  0  0  0
  -24.1503  -36.7309   23.2635 C   0  0  0  0  0  0
  -25.9453  -30.8209   21.3691 C   0  0  0  0  0  0
  -26.0213  -29.4543   20.7132 C   0  0  0  0  0  0
  -27.2133  -28.6842   20.7008 C   0  0  0  0  0  0
  -26.0441  -26.9354   19.4844 C   0  0  0  0  0  0
  -24.8648  -27.7005   19.4893 C   0  0  0  0  0  0
  -23.6187  -29.8255   20.1638 C   0  0  0  0  0  0
  -25.4118  -36.3093   24.0331 C   0  0  1  0  0  0
  -20.5892  -28.3691   23.1332 C   0  0  2  0  0  0
  -20.6818  -26.9433   22.5423 C   0  0  0  0  0  0
  -19.5855  -26.6454   21.5161 C   0  0  0  0  0  0
  -18.2029  -26.7920   22.1581 C   0  0  0  0  0  0
  -19.1542  -28.8836   23.2917 C   0  0  0  0  0  0
  -18.9430  -30.1433   23.8926 C   0  0  0  0  0  0
  -17.6426  -30.6556   24.0552 C   0  0  0  0  0  0
  -25.9041  -34.9459   23.5120 C   0  0  0  0  0  0
  -16.5331  -29.9039   23.6299 C   0  0  0  0  0  0
  -16.7286  -28.6466   23.0314 C   0  0  0  0  0  0
  -26.4481  -31.6581   25.0724 C   0  0  0  0  0  0
  -25.3752  -31.3691   26.1472 C   0  0  0  0  0  0
  -27.0301  -30.3022   24.6100 C   0  0  0  0  0  0
  -27.6061  -32.4308   25.7480 C   0  0  0  0  0  0
  -27.5579  -37.1802   24.8453 C   0  0  0  0  0  0
  -21.4150  -29.3089   22.3730 N   0  0  0  0  0  0
  -26.4296  -37.3775   23.9391 N   0  0  0  0  0  0
  -24.6769  -31.0747   22.0993 N   0  0  0  0  0  0
  -23.4176  -28.8210   23.3016 O   0  0  0  0  0  0
  -28.3461  -26.5843   20.1154 O   0  0  0  0  0  0
  -26.5597  -34.8912   22.4674 O   0  0  0  0  0  0
  -23.5387  -32.1416   23.7454 O   0  0  0  0  0  0
  -25.6399  -21.0664   21.2604 C   0  0  0  0  0  0
  -26.0863  -20.1136   22.3796 C   0  0  0  0  0  0
  -26.6253  -21.0290   20.0755 C   0  0  0  0  0  0
  -27.5708  -20.3248   22.7499 C   0  0  0  0  0  0
  -28.1048  -21.2439   20.5173 C   0  0  1  0  0  0
  -27.6819  -23.8907   18.7762 C   0  0  0  0  0  0
  -28.3483  -22.7314   21.0358 C   0  0  0  0  0  0
  -29.9039  -18.1920   20.6210 C   0  0  0  0  0  0
  -30.4970  -16.9378   21.3663 C   0  0  0  0  0  0
  -28.5242  -18.7373   21.1095 C   0  0  0  0  0  0
  -28.1886  -25.3272   20.8311 C   0  0  0  0  0  0
  -28.4990  -23.9806   20.0720 C   0  0  2  0  0  0
  -29.9671  -15.5862   21.0347 N   0  0  0  0  0  0
  -28.4561  -20.1893   21.5551 N   0  3  2  0  0  0
  -31.4651  -12.4459   19.1369 H   0  0  0  0  0  0
  -30.3316  -11.3412   19.8652 H   0  0  0  0  0  0
  -29.7502  -11.7658   17.4502 H   0  0  0  0  0  0
  -29.6479  -13.4829   17.7610 H   0  0  0  0  0  0
  -27.8480  -11.2931   18.8502 H   0  0  0  0  0  0
  -27.3646  -12.5904   17.7872 H   0  0  0  0  0  0
  -27.6821  -14.2508   19.5326 H   0  0  0  0  0  0
  -28.6861  -12.0179   21.3700 H   0  0  0  0  0  0
  -28.4495  -13.6762   21.8426 H   0  0  0  0  0  0
  -25.2772   -9.5727   22.4739 H   0  0  0  0  0  0
  -24.0040   -7.4653   22.7470 H   0  0  0  0  0  0
  -21.0851   -8.8764   19.8952 H   0  0  0  0  0  0
  -22.3678  -10.9682   19.6168 H   0  0  0  0  0  0
  -21.2018   -7.6169   23.9732 H   0  0  0  0  0  0
  -21.1471   -6.0531   25.9082 H   0  0  0  0  0  0
  -22.0595   -2.7631   23.2820 H   0  0  0  0  0  0
  -22.4128  -11.9894   22.4755 H   0  0  0  0  0  0
  -21.1113  -13.1255   22.2654 H   0  0  0  0  0  0
  -24.6608  -15.8442   20.4983 H   0  0  0  0  0  0
  -26.2677  -15.6142   20.0275 H   0  0  0  0  0  0
  -26.7165  -32.5476   23.1160 H   0  0  0  0  0  0
  -25.0048  -33.9772   25.0449 H   0  0  0  0  0  0
  -22.7022  -31.3111   21.4072 H   0  0  0  0  0  0
  -23.3752  -35.9654   23.3307 H   0  0  0  0  0  0
  -24.3603  -36.8911   22.2047 H   0  0  0  0  0  0
  -23.7285  -37.6526   23.6656 H   0  0  0  0  0  0
  -26.0637  -31.5881   20.6026 H   0  0  0  0  0  0
  -26.8321  -30.8718   21.9895 H   0  0  0  0  0  0
  -28.1128  -29.0594   21.1696 H   0  0  0  0  0  0
  -26.0236  -25.9773   18.9954 H   0  0  0  0  0  0
  -23.9722  -27.3179   19.0131 H   0  0  0  0  0  0
  -23.7269  -30.5990   19.4024 H   0  0  0  0  0  0
  -22.7431  -29.2429   19.8725 H   0  0  0  0  0  0
  -25.1317  -36.1942   25.0830 H   0  0  0  0  0  0
  -20.9997  -28.3258   24.1457 H   0  0  0  0  0  0
  -20.5654  -26.2274   23.3575 H   0  0  0  0  0  0
  -21.6714  -26.7470   22.1272 H   0  0  0  0  0  0
  -19.7064  -25.6422   21.1066 H   0  0  0  0  0  0
  -19.6812  -27.3352   20.6768 H   0  0  0  0  0  0
  -17.4298  -26.6634   21.3985 H   0  0  0  0  0  0
  -18.0511  -26.0029   22.8967 H   0  0  0  0  0  0
  -19.7881  -30.7251   24.2346 H   0  0  0  0  0  0
  -17.4954  -31.6229   24.5143 H   0  0  0  0  0  0
  -15.5325  -30.2924   23.7612 H   0  0  0  0  0  0
  -15.8707  -28.0770   22.6999 H   0  0  0  0  0  0
  -24.5923  -30.7033   25.7812 H   0  0  0  0  0  0
  -24.8940  -32.2850   26.4928 H   0  0  0  0  0  0
  -25.8105  -30.8854   27.0227 H   0  0  0  0  0  0
  -26.2838  -29.6784   24.1154 H   0  0  0  0  0  0
  -27.4075  -29.7242   25.4541 H   0  0  0  0  0  0
  -27.8685  -30.4329   23.9247 H   0  0  0  0  0  0
  -27.2677  -33.3596   26.2086 H   0  0  0  0  0  0
  -28.3843  -32.6886   25.0289 H   0  0  0  0  0  0
  -28.0762  -31.8420   26.5356 H   0  0  0  0  0  0
  -28.2599  -38.0093   24.7497 H   0  0  0  0  0  0
  -28.1071  -36.2626   24.6305 H   0  0  0  0  0  0
  -27.2285  -37.1488   25.8849 H   0  0  0  0  0  0
  -20.9285  -29.8784   21.6941 H   0  0  0  0  0  0
  -26.0175  -38.2850   24.1387 H   0  0  0  0  0  0
  -25.5514  -22.0800   21.6528 H   0  0  0  0  0  0
  -24.6391  -20.7999   20.9198 H   0  0  0  0  0  0
  -25.9171  -19.0810   22.0720 H   0  0  0  0  0  0
  -25.4620  -20.2667   23.2602 H   0  0  0  0  0  0
  -26.3123  -21.7540   19.3324 H   0  0  0  0  0  0
  -26.5190  -20.0766   19.5589 H   0  0  0  0  0  0
  -27.8659  -19.6211   23.5280 H   0  0  0  0  0  0
  -27.7007  -21.3062   23.2077 H   0  0  0  0  0  0
  -28.7640  -21.0834   19.6635 H   0  0  0  0  0  0
  -27.9299  -22.9954   18.2052 H   0  0  0  0  0  0
  -27.8871  -24.7431   18.1276 H   0  0  0  0  0  0
  -26.6123  -23.8851   18.9765 H   0  0  0  0  0  0
  -29.2486  -22.7233   21.6511 H   0  0  0  0  0  0
  -27.5562  -22.9821   21.7384 H   0  0  0  0  0  0
  -29.8512  -17.9844   19.5519 H   0  0  0  0  0  0
  -30.6376  -18.9949   20.7107 H   0  0  0  0  0  0
  -30.3885  -17.0765   22.4419 H   0  0  0  0  0  0
  -31.5755  -16.9465   21.2010 H   0  0  0  0  0  0
  -28.2376  -18.1020   21.9482 H   0  0  0  0  0  0
  -27.7682  -18.5197   20.3573 H   0  0  0  0  0  0
  -28.8591  -25.3903   21.6895 H   0  0  0  0  0  0
  -27.1902  -25.2579   21.2689 H   0  0  0  0  0  0
  -29.5459  -24.0174   19.7669 H   0  0  0  0  0  0
  -29.0214  -15.3756   21.3185 H   0  0  0  0  0  0
  -29.3832  -20.4074   21.8877 H   0  0  0  0  0  0
  1 25  1  0  0  0
  1 30  2  0  0  0
  1 83  1  0  0  0
  2  3  1  0  0  0
  2 25  1  0  0  0
  2 85  1  0  0  0
  2 86  1  0  0  0
  3  4  1  0  0  0
  3 87  1  0  0  0
  3 88  1  0  0  0
  4  5  1  0  0  0
  4 89  1  0  0  0
  4 90  1  0  0  0
  5  6  1  0  0  0
  5 26  1  0  0  0
  5 91  1  0  0  0
  6 25  1  0  0  0
  6 92  1  0  0  0
  6 93  1  0  0  0
  7  8  2  0  0  0
  7 26  1  0  0  0
  7 29  1  0  0  0
  8  9  1  0  0  0
  8 22  1  0  0  0
  9 10  1  0  0  0
  9 27  2  0  0  0
 10 11  2  0  0  0
 10 15  1  0  0  0
 11 12  1  0  0  0
 11 94  1  0  0  0
 12 13  2  0  0  0
 12 95  1  0  0  0
 13 14  1  0  0  0
 13 31  1  0  0  0
 14 15  2  0  0  0
 14 96  1  0  0  0
 15 97  1  0  0  0
 16 17  2  0  0  0
 16 21  1  0  0  0
 16 31  1  0  0  0
 17 18  1  0  0  0
 17 98  1  0  0  0
 18 19  2  0  0  0
 18 99  1  0  0  0
 19 20  1  0  0  0
 19 24  1  0  0  0
 20 21  2  0  0  0
 20100  1  0  0  0
 21 23  1  0  0  0
 22 28  1  0  0  0
 22 32  2  0  0  0
 26 27  1  0  0  0
 28101  1  0  0  0
 28102  1  0  0  0
 29103  1  0  0  0
 29104  1  0  0  0
 33 34  1  0  0  0
 33 66  1  0  0  0
 33 70  2  0  0  0
 34 36  1  0  0  0
 34 59  1  0  0  0
 34105  1  0  0  0
 35 44  2  0  0  0
 35 45  1  0  0  0
 35 68  1  0  0  0
 36 56  1  0  0  0
 36106  1  0  0  0
 37 39  1  0  0  0
 37 47  1  0  0  0
 37 66  1  0  0  0
 37107  1  0  0  0
 38 43  2  0  0  0
 38 46  1  0  0  0
 38 47  1  0  0  0
 39 64  1  0  0  0
 39 67  2  0  0  0
 40 52  1  0  0  0
 40 53  2  0  0  0
 40 58  1  0  0  0
 41108  1  0  0  0
 41109  1  0  0  0
 41110  1  0  0  0
 41 48  1  0  0  0
 42 43  1  0  0  0
 42 66  1  0  0  0
 42111  1  0  0  0
 42112  1  0  0  0
 43 44  1  0  0  0
 44113  1  0  0  0
 45 46  2  0  0  0
 45114  1  0  0  0
 46115  1  0  0  0
 47116  1  0  0  0
 47117  1  0  0  0
 48 56  1  0  0  0
 48 65  1  0  0  0
 48118  1  0  0  0
 49 50  1  0  0  0
 49 53  1  0  0  0
 49 64  1  0  0  0
 49119  1  0  0  0
 50 51  1  0  0  0
 50120  1  0  0  0
 50121  1  0  0  0
 51 52  1  0  0  0
 51122  1  0  0  0
 51123  1  0  0  0
 52124  1  0  0  0
 52125  1  0  0  0
 53 54  1  0  0  0
 54 55  2  0  0  0
 54126  1  0  0  0
 55 57  1  0  0  0
 55127  1  0  0  0
 56 69  2  0  0  0
 57 58  2  0  0  0
 57128  1  0  0  0
 58129  1  0  0  0
 59 60  1  0  0  0
 59 61  1  0  0  0
 59 62  1  0  0  0
 60130  1  0  0  0
 60131  1  0  0  0
 60132  1  0  0  0
 61133  1  0  0  0
 61134  1  0  0  0
 61135  1  0  0  0
 62136  1  0  0  0
 62137  1  0  0  0
 62138  1  0  0  0
 63 65  1  0  0  0
 63139  1  0  0  0
 63140  1  0  0  0
 63141  1  0  0  0
 64142  1  0  0  0
 65143  1  0  0  0
 68 81  1  0  0  0
 71 72  1  0  0  0
 71 73  1  0  0  0
 71144  1  0  0  0
 71145  1  0  0  0
 72 74  1  0  0  0
 72146  1  0  0  0
 72147  1  0  0  0
 73 75  1  0  0  0
 73148  1  0  0  0
 73149  1  0  0  0
 74 84  1  0  0  0
 74150  1  0  0  0
 74151  1  0  0  0
 75 77  1  0  0  0
 75 84  1  0  0  0
 75152  1  0  0  0
 76153  1  0  0  0
 76154  1  0  0  0
 76155  1  0  0  0
 76 82  1  0  0  0
 77 82  1  0  0  0
 77156  1  0  0  0
 77157  1  0  0  0
 78 79  1  0  0  0
 78 80  1  0  0  0
 78158  1  0  0  0
 78159  1  0  0  0
 79 83  1  0  0  0
 79160  1  0  0  0
 79161  1  0  0  0
 80162  1  0  0  0
 80163  1  0  0  0
 80 84  1  0  0  0
 81 82  1  0  0  0
 81164  1  0  0  0
 81165  1  0  0  0
 82166  1  0  0  0
 83167  1  0  0  0
 84168  1  0  0  0
M  CHG  1  84   1
M  ISO  4   1 100  68 101  81 101  83 100
M  END
> <chiral flag>
0

> <version>
0

> <s_m_source_file>
/data/baiqing/PycharmProjects/Reinvent-master-3.2/result/LINK_invent/BTK/process_docking_weight1_custom_sum_contain_oxygen_bond_distance_aromatic_linkinvent_7_9_3/rearranged_h_0095.sdf

> <i_m_source_file_index>
69

> <r_mmod_Potential_Energy-OPLS-2005>
18.4405422210693

> <r_mmod_Stretch_Energy-OPLS-2005>
61.3022994995117

> <r_mmod_Bend_Energy-OPLS-2005>
132.15007019043

> <r_mmod_Torsional_Energy-OPLS-2005>
302.829895019531

> <r_mmod_Improper_Torsional_Energy-OPLS-2005>
3.33191323280334

> <r_mmod_Van_der_Waal_Energy-OPLS-2005>
142.116592407227

> <r_mmod_Electrostatic_Energy-OPLS-2005>
-201.166091918945

> <r_mmod_Solvation_Energy-OPLS-2005>
-445.433929443359

> <b_mmod_Minimization_Converged-OPLS-2005>
0

> <r_mmod_RMS_Derivative-OPLS-2005>
2.57859539985657

$$$$
69
                    3D
 Structure written by MMmdl.
174182  0  0  1  0            999 V2000
  -30.6399  -14.5834   20.4950 C   0  0  0  0  0  0
  -30.4412  -12.3579   19.4469 C   0  0  0  0  0  0
  -29.5060  -12.4820   18.2260 C   0  0  0  0  0  0
  -28.0324  -12.3238   18.6439 C   0  0  0  0  0  0
  -27.6594  -13.2041   19.8667 C   0  0  2  0  0  0
  -28.7016  -13.0605   20.9995 C   0  0  0  0  0  0
  -25.2622  -13.8151   20.5682 C   0  0  0  0  0  0
  -24.1866  -13.0430   20.9202 C   0  0  0  0  0  0
  -24.6416  -11.6884   20.8748 C   0  0  0  0  0  0
  -23.9061  -10.4268   21.0374 C   0  0  0  0  0  0
  -24.3612   -9.4177   21.9150 C   0  0  0  0  0  0
  -23.6306   -8.2199   22.0720 C   0  0  0  0  0  0
  -22.4282   -8.0232   21.3509 C   0  0  0  0  0  0
  -21.9905   -9.0199   20.4618 C   0  0  0  0  0  0
  -22.7228  -10.2091   20.3025 C   0  0  0  0  0  0
  -21.6854   -6.0710   22.5251 C   0  0  0  0  0  0
  -21.4028   -6.5627   23.8176 C   0  0  0  0  0  0
  -21.3678   -5.6771   24.9131 C   0  0  0  0  0  0
  -21.6041   -4.3046   24.7168 C   0  0  0  0  0  0
  -21.8854   -3.8134   23.4304 C   0  0  0  0  0  0
  -21.9228   -4.6945   22.3360 C   0  0  0  0  0  0
  -22.7902  -13.5196   21.1849 C   0  0  0  0  0  0
  -22.1690   -4.2139   21.0932 F   0  0  0  0  0  0
  -21.5611   -3.4534   25.7691 F   0  0  0  0  0  0
  -30.0234  -13.3685   20.4358 N   0  0  0  0  0  0
  -26.3035  -12.9305   20.3342 N   0  0  0  0  0  0
  -25.9348  -11.6481   20.5794 N   0  0  0  0  0  0
  -22.0579  -12.8189   22.0427 N   0  0  0  0  0  0
  -25.4347  -15.1871   20.4084 N   0  0  0  0  0  0
  -31.8034  -14.7498   20.1196 O   0  0  0  0  0  0
  -21.6648   -6.8842   21.4200 O   0  0  0  0  0  0
  -22.3561  -14.5473   20.6670 O   0  0  0  0  0  0
  -24.6173  -31.8605   23.2067 C   0  0  0  0  0  0
  -25.9055  -32.4787   23.8357 C   0  0  1  0  0  0
  -27.2255  -27.3658   20.0970 C   0  0  0  0  0  0
  -25.5915  -33.8585   24.2312 N   0  0  0  0  0  0
  -23.4057  -30.4829   21.5496 C   0  0  2  0  0  0
  -24.8487  -28.9371   20.1081 C   0  0  0  0  0  0
  -22.7400  -29.4628   22.5012 C   0  0  0  0  0  0
  -18.0274  -28.1387   22.8480 C   0  0  0  0  0  0
  -24.1482  -36.7294   23.2654 C   0  0  0  0  0  0
  -25.9371  -30.8021   21.3666 C   0  0  0  0  0  0
  -26.0095  -29.4298   20.7170 C   0  0  0  0  0  0
  -27.1900  -28.6418   20.7207 C   0  0  0  0  0  0
  -26.0470  -26.9060   19.4674 C   0  0  0  0  0  0
  -24.8645  -27.6769   19.4847 C   0  0  0  0  0  0
  -23.6146  -29.8103   20.1637 C   0  0  0  0  0  0
  -25.4103  -36.3088   24.0355 C   0  0  1  0  0  0
  -20.5849  -28.3676   23.1324 C   0  0  2  0  0  0
  -20.6752  -26.9426   22.5411 C   0  0  0  0  0  0
  -19.5742  -26.6392   21.5202 C   0  0  0  0  0  0
  -18.1923  -26.7930   22.1612 C   0  0  0  0  0  0
  -19.1511  -28.8853   23.2887 C   0  0  0  0  0  0
  -18.9449  -30.1472   23.8880 C   0  0  0  0  0  0
  -17.6447  -30.6587   24.0588 C   0  0  0  0  0  0
  -25.9019  -34.9467   23.5131 C   0  0  0  0  0  0
  -16.5340  -29.9093   23.6334 C   0  0  0  0  0  0
  -16.7258  -28.6516   23.0333 C   0  0  0  0  0  0
  -26.4472  -31.6579   25.0691 C   0  0  0  0  0  0
  -25.3769  -31.3657   26.1467 C   0  0  0  0  0  0
  -27.0325  -30.3040   24.6054 C   0  0  0  0  0  0
  -27.6050  -32.4316   25.7423 C   0  0  0  0  0  0
  -27.5575  -37.1795   24.8484 C   0  0  0  0  0  0
  -21.4114  -29.3026   22.3736 N   0  0  0  0  0  0
  -26.4283  -37.3785   23.9429 N   0  0  0  0  0  0
  -24.6734  -31.0645   22.0994 N   0  0  0  0  0  0
  -23.4137  -28.8199   23.3105 O   0  0  0  0  0  0
  -28.3816  -26.5936   20.1800 O   0  0  0  0  0  0
  -26.5587  -34.8924   22.4685 O   0  0  0  0  0  0
  -23.5358  -32.1388   23.7450 O   0  0  0  0  0  0
  -30.9252  -22.3051   19.8443 C   0  0  0  0  0  0
  -29.4211  -20.6510   20.7796 C   0  0  0  0  0  0
  -29.6742  -22.0148   20.4230 C   0  0  0  0  0  0
  -31.9058  -21.3055   19.6569 C   0  0  0  0  0  0
  -30.3960  -19.6161   20.6201 C   0  0  0  0  0  0
  -31.6577  -19.9668   20.0643 C   0  0  0  0  0  0
  -33.2486  -21.7278   19.0655 C   0  0  0  0  0  0
  -35.4203  -17.8979   22.7112 C   0  0  0  0  0  0
  -27.4910  -22.7828   21.5738 C   0  0  0  0  0  0
  -30.1371  -18.1847   21.1882 C   0  0  0  0  0  0
  -32.7900  -18.9409   20.0037 C   0  0  0  0  0  0
  -34.3542  -17.7597   21.6204 C   0  0  0  0  0  0
  -33.7683  -19.1042   21.1752 C   0  0  0  0  0  0
  -28.2148  -24.0264   19.4796 C   0  0  0  0  0  0
  -29.9136  -17.0158   20.1637 C   0  0  0  0  0  0
  -28.6800  -25.5177   19.2499 C   0  0  0  0  0  0
  -28.7086  -23.2083   20.7289 C   0  0  2  0  0  0
  -29.8162  -15.6378   20.7324 N   0  0  0  0  0  0
  -31.4775  -12.4935   19.1330 H   0  0  0  0  0  0
  -30.3781  -11.3568   19.8785 H   0  0  0  0  0  0
  -29.7650  -11.7235   17.4866 H   0  0  0  0  0  0
  -29.6551  -13.4491   17.7452 H   0  0  0  0  0  0
  -27.8797  -11.2716   18.8888 H   0  0  0  0  0  0
  -27.3738  -12.5368   17.8018 H   0  0  0  0  0  0
  -27.6830  -14.2380   19.5235 H   0  0  0  0  0  0
  -28.6981  -12.0488   21.4072 H   0  0  0  0  0  0
  -28.4542  -13.7176   21.8358 H   0  0  0  0  0  0
  -25.2741   -9.5687   22.4735 H   0  0  0  0  0  0
  -24.0048   -7.4588   22.7436 H   0  0  0  0  0  0
  -21.0828   -8.8675   19.8939 H   0  0  0  0  0  0
  -22.3636  -10.9601   19.6144 H   0  0  0  0  0  0
  -21.2013   -7.6135   23.9676 H   0  0  0  0  0  0
  -21.1488   -6.0494   25.9036 H   0  0  0  0  0  0
  -22.0650   -2.7600   23.2774 H   0  0  0  0  0  0
  -22.4236  -11.9868   22.4809 H   0  0  0  0  0  0
  -21.1169  -13.1117   22.2558 H   0  0  0  0  0  0
  -24.6587  -15.8342   20.4953 H   0  0  0  0  0  0
  -26.2713  -15.6227   20.0418 H   0  0  0  0  0  0
  -26.7103  -32.5457   23.1087 H   0  0  0  0  0  0
  -25.0105  -33.9750   25.0490 H   0  0  0  0  0  0
  -22.7003  -31.3027   21.4063 H   0  0  0  0  0  0
  -23.3744  -35.9630   23.3312 H   0  0  0  0  0  0
  -24.3591  -36.8882   22.2067 H   0  0  0  0  0  0
  -23.7196  -37.6492   23.6644 H   0  0  0  0  0  0
  -26.0471  -31.5606   20.5905 H   0  0  0  0  0  0
  -26.8273  -30.8631   21.9804 H   0  0  0  0  0  0
  -28.0753  -29.0024   21.2273 H   0  0  0  0  0  0
  -26.0112  -25.9384   18.9892 H   0  0  0  0  0  0
  -23.9709  -27.2861   19.0168 H   0  0  0  0  0  0
  -23.7333  -30.5834   19.4034 H   0  0  0  0  0  0
  -22.7340  -29.2361   19.8633 H   0  0  0  0  0  0
  -25.1276  -36.1956   25.0851 H   0  0  0  0  0  0
  -20.9911  -28.3218   24.1456 H   0  0  0  0  0  0
  -20.5665  -26.2284   23.3584 H   0  0  0  0  0  0
  -21.6636  -26.7507   22.1216 H   0  0  0  0  0  0
  -19.6935  -25.6298   21.1241 H   0  0  0  0  0  0
  -19.6687  -27.3202   20.6724 H   0  0  0  0  0  0
  -17.4198  -26.6676   21.4011 H   0  0  0  0  0  0
  -18.0366  -26.0072   22.9005 H   0  0  0  0  0  0
  -19.7933  -30.7305   24.2202 H   0  0  0  0  0  0
  -17.5010  -31.6259   24.5217 H   0  0  0  0  0  0
  -15.5345  -30.3008   23.7648 H   0  0  0  0  0  0
  -15.8650  -28.0847   22.7032 H   0  0  0  0  0  0
  -24.5935  -30.7014   25.7794 H   0  0  0  0  0  0
  -24.8988  -32.2800   26.4989 H   0  0  0  0  0  0
  -25.8157  -30.8758   27.0164 H   0  0  0  0  0  0
  -26.2851  -29.6766   24.1176 H   0  0  0  0  0  0
  -27.4182  -29.7311   25.4482 H   0  0  0  0  0  0
  -27.8644  -30.4390   23.9145 H   0  0  0  0  0  0
  -27.2671  -33.3627   26.1987 H   0  0  0  0  0  0
  -28.3821  -32.6843   25.0204 H   0  0  0  0  0  0
  -28.0749  -31.8442   26.5313 H   0  0  0  0  0  0
  -28.2618  -38.0073   24.7533 H   0  0  0  0  0  0
  -28.1019  -36.2598   24.6282 H   0  0  0  0  0  0
  -27.2313  -37.1446   25.8896 H   0  0  0  0  0  0
  -20.9297  -29.8705   21.6913 H   0  0  0  0  0  0
  -26.0163  -38.2866   24.1404 H   0  0  0  0  0  0
  -31.1530  -23.3290   19.5783 H   0  0  0  0  0  0
  -28.4869  -20.3819   21.2487 H   0  0  0  0  0  0
  -33.1999  -22.7404   18.6647 H   0  0  0  0  0  0
  -33.5557  -21.0799   18.2453 H   0  0  0  0  0  0
  -34.0375  -21.7146   19.8164 H   0  0  0  0  0  0
  -35.8077  -16.9140   22.9787 H   0  0  0  0  0  0
  -35.0086  -18.3554   23.6129 H   0  0  0  0  0  0
  -36.2633  -18.5079   22.3773 H   0  0  0  0  0  0
  -27.7870  -22.2953   22.5056 H   0  0  0  0  0  0
  -26.8509  -22.0951   21.0195 H   0  0  0  0  0  0
  -26.8797  -23.6447   21.8421 H   0  0  0  0  0  0
  -29.2697  -18.2375   21.8421 H   0  0  0  0  0  0
  -30.9647  -17.9362   21.8535 H   0  0  0  0  0  0
  -33.3136  -18.9963   19.0497 H   0  0  0  0  0  0
  -32.4154  -17.9238   20.0215 H   0  0  0  0  0  0
  -33.5460  -17.1244   21.9915 H   0  0  0  0  0  0
  -34.7789  -17.2507   20.7546 H   0  0  0  0  0  0
  -33.2524  -19.5542   22.0275 H   0  0  0  0  0  0
  -34.5621  -19.7925   20.8881 H   0  0  0  0  0  0
  -28.5330  -23.4659   18.5983 H   0  0  0  0  0  0
  -27.1281  -23.9872   19.4179 H   0  0  0  0  0  0
  -30.6536  -17.0160   19.3658 H   0  0  0  0  0  0
  -28.9677  -17.2070   19.6562 H   0  0  0  0  0  0
  -28.3558  -25.8284   18.2553 H   0  0  0  0  0  0
  -29.7677  -25.4987   19.1832 H   0  0  0  0  0  0
  -29.2785  -23.8992   21.3539 H   0  0  0  0  0  0
  -28.9000  -15.3807   21.0642 H   0  0  0  0  0  0
  1 25  1  0  0  0
  1 30  2  0  0  0
  1 88  1  0  0  0
  2  3  1  0  0  0
  2 25  1  0  0  0
  2 89  1  0  0  0
  2 90  1  0  0  0
  3  4  1  0  0  0
  3 91  1  0  0  0
  3 92  1  0  0  0
  4  5  1  0  0  0
  4 93  1  0  0  0
  4 94  1  0  0  0
  5  6  1  0  0  0
  5 26  1  0  0  0
  5 95  1  0  0  0
  6 25  1  0  0  0
  6 96  1  0  0  0
  6 97  1  0  0  0
  7  8  2  0  0  0
  7 26  1  0  0  0
  7 29  1  0  0  0
  8  9  1  0  0  0
  8 22  1  0  0  0
  9 10  1  0  0  0
  9 27  2  0  0  0
 10 11  2  0  0  0
 10 15  1  0  0  0
 11 12  1  0  0  0
 11 98  1  0  0  0
 12 13  2  0  0  0
 12 99  1  0  0  0
 13 14  1  0  0  0
 13 31  1  0  0  0
 14 15  2  0  0  0
 14100  1  0  0  0
 15101  1  0  0  0
 16 17  2  0  0  0
 16 21  1  0  0  0
 16 31  1  0  0  0
 17 18  1  0  0  0
 17102  1  0  0  0
 18 19  2  0  0  0
 18103  1  0  0  0
 19 20  1  0  0  0
 19 24  1  0  0  0
 20 21  2  0  0  0
 20104  1  0  0  0
 21 23  1  0  0  0
 22 28  1  0  0  0
 22 32  2  0  0  0
 26 27  1  0  0  0
 28105  1  0  0  0
 28106  1  0  0  0
 29107  1  0  0  0
 29108  1  0  0  0
 33 34  1  0  0  0
 33 66  1  0  0  0
 33 70  2  0  0  0
 34 36  1  0  0  0
 34 59  1  0  0  0
 34109  1  0  0  0
 35 44  2  0  0  0
 35 45  1  0  0  0
 35 68  1  0  0  0
 36 56  1  0  0  0
 36110  1  0  0  0
 37 39  1  0  0  0
 37 47  1  0  0  0
 37 66  1  0  0  0
 37111  1  0  0  0
 38 43  2  0  0  0
 38 46  1  0  0  0
 38 47  1  0  0  0
 39 64  1  0  0  0
 39 67  2  0  0  0
 40 52  1  0  0  0
 40 53  2  0  0  0
 40 58  1  0  0  0
 41112  1  0  0  0
 41113  1  0  0  0
 41114  1  0  0  0
 41 48  1  0  0  0
 42 43  1  0  0  0
 42 66  1  0  0  0
 42115  1  0  0  0
 42116  1  0  0  0
 43 44  1  0  0  0
 44117  1  0  0  0
 45 46  2  0  0  0
 45118  1  0  0  0
 46119  1  0  0  0
 47120  1  0  0  0
 47121  1  0  0  0
 48 56  1  0  0  0
 48 65  1  0  0  0
 48122  1  0  0  0
 49 50  1  0  0  0
 49 53  1  0  0  0
 49 64  1  0  0  0
 49123  1  0  0  0
 50 51  1  0  0  0
 50124  1  0  0  0
 50125  1  0  0  0
 51 52  1  0  0  0
 51126  1  0  0  0
 51127  1  0  0  0
 52128  1  0  0  0
 52129  1  0  0  0
 53 54  1  0  0  0
 54 55  2  0  0  0
 54130  1  0  0  0
 55 57  1  0  0  0
 55131  1  0  0  0
 56 69  2  0  0  0
 57 58  2  0  0  0
 57132  1  0  0  0
 58133  1  0  0  0
 59 60  1  0  0  0
 59 61  1  0  0  0
 59 62  1  0  0  0
 60134  1  0  0  0
 60135  1  0  0  0
 60136  1  0  0  0
 61137  1  0  0  0
 61138  1  0  0  0
 61139  1  0  0  0
 62140  1  0  0  0
 62141  1  0  0  0
 62142  1  0  0  0
 63 65  1  0  0  0
 63143  1  0  0  0
 63144  1  0  0  0
 63145  1  0  0  0
 64146  1  0  0  0
 65147  1  0  0  0
 68 86  1  0  0  0
 71 73  2  0  0  0
 71 74  1  0  0  0
 71148  1  0  0  0
 72 73  1  0  0  0
 72 75  2  0  0  0
 72149  1  0  0  0
 73 87  1  0  0  0
 74 76  2  0  0  0
 74 77  1  0  0  0
 75 76  1  0  0  0
 75 80  1  0  0  0
 76 81  1  0  0  0
 77150  1  0  0  0
 77151  1  0  0  0
 77152  1  0  0  0
 78 82  1  0  0  0
 78153  1  0  0  0
 78154  1  0  0  0
 78155  1  0  0  0
 79156  1  0  0  0
 79157  1  0  0  0
 79158  1  0  0  0
 79 87  1  0  0  0
 80 85  1  0  0  0
 80159  1  0  0  0
 80160  1  0  0  0
 81 83  1  0  0  0
 81161  1  0  0  0
 81162  1  0  0  0
 82 83  1  0  0  0
 82163  1  0  0  0
 82164  1  0  0  0
 83165  1  0  0  0
 83166  1  0  0  0
 84 86  1  0  0  0
 84 87  1  0  0  0
 84167  1  0  0  0
 84168  1  0  0  0
 85 88  1  0  0  0
 85169  1  0  0  0
 85170  1  0  0  0
 86171  1  0  0  0
 86172  1  0  0  0
 87173  1  0  0  0
 88174  1  0  0  0
M  ISO  4   1 100  68 101  86 101  88 100
M  END
> <chiral flag>
0

> <version>
0

> <s_m_source_file>
/data/baiqing/PycharmProjects/Reinvent-master-3.2/result/LINK_invent/BTK/process_docking_weight1_custom_sum_contain_oxygen_bond_distance_aromatic_linkinvent_7_9_3/rearranged_h_0095.sdf

> <i_m_source_file_index>
70

> <r_mmod_Potential_Energy-OPLS-2005>
20.3672866821289

> <r_mmod_Stretch_Energy-OPLS-2005>
60.9253578186035

> <r_mmod_Bend_Energy-OPLS-2005>
138.093200683594

> <r_mmod_Torsional_Energy-OPLS-2005>
232.102676391602

> <r_mmod_Improper_Torsional_Energy-OPLS-2005>
8.95907974243164

> <r_mmod_Van_der_Waal_Energy-OPLS-2005>
146.229217529297

> <r_mmod_Electrostatic_Energy-OPLS-2005>
-401.709259033203

> <r_mmod_Solvation_Energy-OPLS-2005>
-197.6650390625

> <b_mmod_Minimization_Converged-OPLS-2005>
0

> <r_mmod_RMS_Derivative-OPLS-2005>
5.06595993041992

$$$$
70
                    3D
 Structure written by MMmdl.
172180  0  0  1  0            999 V2000
  -30.6994  -14.4859   20.5111 C   0  0  0  0  0  0
  -30.4222  -12.2914   19.4288 C   0  0  0  0  0  0
  -29.4935  -12.4654   18.2089 C   0  0  0  0  0  0
  -28.0132  -12.3416   18.6229 C   0  0  0  0  0  0
  -27.6547  -13.1872   19.8765 C   0  0  2  0  0  0
  -28.7073  -13.0157   20.9957 C   0  0  0  0  0  0
  -25.2606  -13.8074   20.5763 C   0  0  0  0  0  0
  -24.1820  -13.0381   20.9222 C   0  0  0  0  0  0
  -24.6362  -11.6850   20.8798 C   0  0  0  0  0  0
  -23.9022  -10.4259   21.0458 C   0  0  0  0  0  0
  -24.3581   -9.4175   21.9222 C   0  0  0  0  0  0
  -23.6255   -8.2212   22.0775 C   0  0  0  0  0  0
  -22.4248   -8.0257   21.3549 C   0  0  0  0  0  0
  -21.9880   -9.0241   20.4667 C   0  0  0  0  0  0
  -22.7209  -10.2115   20.3095 C   0  0  0  0  0  0
  -21.6835   -6.0724   22.5285 C   0  0  0  0  0  0
  -21.3991   -6.5637   23.8218 C   0  0  0  0  0  0
  -21.3661   -5.6793   24.9188 C   0  0  0  0  0  0
  -21.6047   -4.3058   24.7256 C   0  0  0  0  0  0
  -21.8807   -3.8144   23.4379 C   0  0  0  0  0  0
  -21.9177   -4.6948   22.3422 C   0  0  0  0  0  0
  -22.7858  -13.5232   21.1850 C   0  0  0  0  0  0
  -22.1634   -4.2126   21.0996 F   0  0  0  0  0  0
  -21.5668   -3.4546   25.7782 F   0  0  0  0  0  0
  -30.0306  -13.3044   20.4184 N   0  0  0  0  0  0
  -26.3001  -12.9194   20.3450 N   0  0  0  0  0  0
  -25.9277  -11.6378   20.5813 N   0  0  0  0  0  0
  -22.0465  -12.8262   22.0407 N   0  0  0  0  0  0
  -25.4420  -15.1778   20.4211 N   0  0  0  0  0  0
  -31.8819  -14.6165   20.1788 O   0  0  0  0  0  0
  -21.6615   -6.8856   21.4237 O   0  0  0  0  0  0
  -22.3578  -14.5546   20.6695 O   0  0  0  0  0  0
  -24.6134  -31.8686   23.2107 C   0  0  0  0  0  0
  -25.9030  -32.4831   23.8399 C   0  0  1  0  0  0
  -27.2362  -27.4442   20.0972 C   0  0  0  0  0  0
  -25.5894  -33.8632   24.2329 N   0  0  0  0  0  0
  -23.4012  -30.4918   21.5507 C   0  0  2  0  0  0
  -24.8474  -28.9582   20.1143 C   0  0  0  0  0  0
  -22.7402  -29.4663   22.4996 C   0  0  0  0  0  0
  -18.0270  -28.1378   22.8497 C   0  0  0  0  0  0
  -24.1485  -36.7317   23.2639 C   0  0  0  0  0  0
  -25.9283  -30.8372   21.3613 C   0  0  0  0  0  0
  -26.0064  -29.4728   20.7081 C   0  0  0  0  0  0
  -27.2048  -28.7244   20.6925 C   0  0  0  0  0  0
  -26.0624  -26.9455   19.4883 C   0  0  0  0  0  0
  -24.8695  -27.6937   19.5009 C   0  0  0  0  0  0
  -23.6083  -29.8233   20.1657 C   0  0  0  0  0  0
  -25.4108  -36.3119   24.0340 C   0  0  1  0  0  0
  -20.5857  -28.3660   23.1329 C   0  0  2  0  0  0
  -20.6761  -26.9396   22.5426 C   0  0  0  0  0  0
  -19.5742  -26.6382   21.5222 C   0  0  0  0  0  0
  -18.1917  -26.7927   22.1626 C   0  0  0  0  0  0
  -19.1520  -28.8836   23.2910 C   0  0  0  0  0  0
  -18.9451  -30.1440   23.8921 C   0  0  0  0  0  0
  -17.6458  -30.6587   24.0567 C   0  0  0  0  0  0
  -25.9035  -34.9484   23.5132 C   0  0  0  0  0  0
  -16.5346  -29.9094   23.6324 C   0  0  0  0  0  0
  -16.7263  -28.6508   23.0349 C   0  0  0  0  0  0
  -26.4459  -31.6613   25.0727 C   0  0  0  0  0  0
  -25.3734  -31.3725   26.1485 C   0  0  0  0  0  0
  -27.0281  -30.3058   24.6093 C   0  0  0  0  0  0
  -27.6041  -32.4331   25.7482 C   0  0  0  0  0  0
  -27.5584  -37.1812   24.8463 C   0  0  0  0  0  0
  -21.4132  -29.3035   22.3738 N   0  0  0  0  0  0
  -26.4296  -37.3801   23.9412 N   0  0  0  0  0  0
  -24.6657  -31.0795   22.0998 N   0  0  0  0  0  0
  -23.4177  -28.8206   23.3040 O   0  0  0  0  0  0
  -28.4082  -26.7189   20.1074 O   0  0  0  0  0  0
  -26.5592  -34.8927   22.4691 O   0  0  0  0  0  0
  -23.5327  -32.1435   23.7507 O   0  0  0  0  0  0
  -30.5038  -18.9556   20.8478 C   0  0  0  0  0  0
  -28.5375  -19.8427   21.4118 C   0  0  0  0  0  0
  -29.8133  -17.9888   21.5359 C   0  0  0  0  0  0
  -28.5530  -18.5637   21.9038 C   0  0  0  0  0  0
  -26.0492  -18.4646   22.2844 C   0  0  0  0  0  0
  -27.6533  -17.8795   24.1547 C   0  0  0  0  0  0
  -31.2048  -23.6296   18.5356 C   0  0  0  0  0  0
  -29.3797  -16.1820   19.4724 C   0  0  0  0  0  0
  -30.2717  -16.5496   21.7693 C   0  0  0  0  0  0
  -30.2215  -22.5522   20.6581 C   0  0  0  0  0  0
  -28.9344  -24.4204   19.3886 C   0  0  0  0  0  0
  -29.9778  -21.2400   19.8762 C   0  0  0  0  0  0
  -28.3049  -25.3316   20.4642 C   0  0  0  0  0  0
  -27.4225  -17.8696   22.6388 C   0  0  0  0  0  0
  -30.3171  -23.8342   19.7775 C   0  0  2  0  0  0
  -29.7007  -20.0725   20.7078 N   0  0  0  0  0  0
  -29.9249  -15.5813   20.7026 N   0  0  0  0  0  0
  -31.4668  -12.3866   19.1253 H   0  0  0  0  0  0
  -30.3191  -11.2906   19.8532 H   0  0  0  0  0  0
  -29.7271  -11.7191   17.4503 H   0  0  0  0  0  0
  -29.6713  -13.4335   17.7406 H   0  0  0  0  0  0
  -27.8178  -11.2870   18.8246 H   0  0  0  0  0  0
  -27.3664  -12.6131   17.7873 H   0  0  0  0  0  0
  -27.6613  -14.2220   19.5581 H   0  0  0  0  0  0
  -28.6909  -11.9983   21.3867 H   0  0  0  0  0  0
  -28.4882  -13.6664   21.8439 H   0  0  0  0  0  0
  -25.2715   -9.5648   22.4811 H   0  0  0  0  0  0
  -23.9966   -7.4594   22.7478 H   0  0  0  0  0  0
  -21.0821   -8.8765   19.8960 H   0  0  0  0  0  0
  -22.3677  -10.9669   19.6230 H   0  0  0  0  0  0
  -21.1950   -7.6138   23.9738 H   0  0  0  0  0  0
  -21.1505   -6.0519   25.9091 H   0  0  0  0  0  0
  -22.0586   -2.7599   23.2909 H   0  0  0  0  0  0
  -22.4027  -11.9876   22.4748 H   0  0  0  0  0  0
  -21.1125  -13.1380   22.2672 H   0  0  0  0  0  0
  -24.6933  -15.8449   20.5648 H   0  0  0  0  0  0
  -26.3190  -15.6098   20.1635 H   0  0  0  0  0  0
  -26.7105  -32.5542   23.1169 H   0  0  0  0  0  0
  -25.0055  -33.9799   25.0481 H   0  0  0  0  0  0
  -22.6896  -31.3080   21.4122 H   0  0  0  0  0  0
  -23.3742  -35.9656   23.3321 H   0  0  0  0  0  0
  -24.3574  -36.8908   22.2049 H   0  0  0  0  0  0
  -23.7244  -37.6533   23.6635 H   0  0  0  0  0  0
  -26.0382  -31.6038   20.5929 H   0  0  0  0  0  0
  -26.8171  -30.8910   21.9790 H   0  0  0  0  0  0
  -28.1005  -29.1188   21.1514 H   0  0  0  0  0  0
  -26.0640  -25.9819   18.9980 H   0  0  0  0  0  0
  -23.9790  -27.2938   19.0349 H   0  0  0  0  0  0
  -23.7146  -30.5973   19.4050 H   0  0  0  0  0  0
  -22.7329  -29.2415   19.8715 H   0  0  0  0  0  0
  -25.1283  -36.1988   25.0833 H   0  0  0  0  0  0
  -20.9952  -28.3225   24.1449 H   0  0  0  0  0  0
  -20.5668  -26.2269   23.3611 H   0  0  0  0  0  0
  -21.6634  -26.7445   22.1220 H   0  0  0  0  0  0
  -19.6905  -25.6298   21.1244 H   0  0  0  0  0  0
  -19.6690  -27.3197   20.6755 H   0  0  0  0  0  0
  -17.4193  -26.6684   21.4018 H   0  0  0  0  0  0
  -18.0309  -26.0061   22.9012 H   0  0  0  0  0  0
  -19.7927  -30.7246   24.2308 H   0  0  0  0  0  0
  -17.5014  -31.6269   24.5164 H   0  0  0  0  0  0
  -15.5348  -30.3008   23.7636 H   0  0  0  0  0  0
  -15.8657  -28.0838   22.7058 H   0  0  0  0  0  0
  -24.5899  -30.7079   25.7830 H   0  0  0  0  0  0
  -24.8935  -32.2887   26.4940 H   0  0  0  0  0  0
  -25.8095  -30.8893   27.0238 H   0  0  0  0  0  0
  -26.2818  -29.6839   24.1140 H   0  0  0  0  0  0
  -27.4047  -29.7279   25.4541 H   0  0  0  0  0  0
  -27.8651  -30.4380   23.9235 H   0  0  0  0  0  0
  -27.2666  -33.3624   26.2081 H   0  0  0  0  0  0
  -28.3834  -32.6907   25.0299 H   0  0  0  0  0  0
  -28.0724  -31.8447   26.5381 H   0  0  0  0  0  0
  -28.2608  -38.0101   24.7509 H   0  0  0  0  0  0
  -28.1072  -36.2638   24.6287 H   0  0  0  0  0  0
  -27.2303  -37.1462   25.8864 H   0  0  0  0  0  0
  -20.9286  -29.8762   21.6967 H   0  0  0  0  0  0
  -26.0187  -38.2881   24.1412 H   0  0  0  0  0  0
  -31.4759  -18.9150   20.3725 H   0  0  0  0  0  0
  -27.7612  -20.5957   21.4417 H   0  0  0  0  0  0
  -25.8742  -18.4377   21.2073 H   0  0  0  0  0  0
  -25.9631  -19.5007   22.6122 H   0  0  0  0  0  0
  -25.2449  -17.9042   22.7606 H   0  0  0  0  0  0
  -28.5830  -17.3775   24.4210 H   0  0  0  0  0  0
  -26.8453  -17.3652   24.6768 H   0  0  0  0  0  0
  -27.7067  -18.8974   24.5389 H   0  0  0  0  0  0
  -32.1737  -23.2100   18.8064 H   0  0  0  0  0  0
  -31.3926  -24.5768   18.0273 H   0  0  0  0  0  0
  -30.7416  -22.9624   17.8078 H   0  0  0  0  0  0
  -28.4311  -16.6850   19.6647 H   0  0  0  0  0  0
  -29.2028  -15.4575   18.6800 H   0  0  0  0  0  0
  -30.0799  -16.9053   19.0546 H   0  0  0  0  0  0
  -29.8377  -16.1937   22.7037 H   0  0  0  0  0  0
  -31.3502  -16.5670   21.9343 H   0  0  0  0  0  0
  -31.1485  -22.4383   21.2208 H   0  0  0  0  0  0
  -29.4419  -22.6875   21.4072 H   0  0  0  0  0  0
  -29.0119  -24.9910   18.4617 H   0  0  0  0  0  0
  -28.2470  -23.6058   19.1587 H   0  0  0  0  0  0
  -30.8421  -21.0112   19.2505 H   0  0  0  0  0  0
  -29.1382  -21.3636   19.1929 H   0  0  0  0  0  0
  -28.8153  -25.1984   21.4191 H   0  0  0  0  0  0
  -27.2811  -25.0122   20.6591 H   0  0  0  0  0  0
  -27.4181  -16.8307   22.3057 H   0  0  0  0  0  0
  -30.8239  -24.5940   20.3748 H   0  0  0  0  0  0
  1 25  1  0  0  0
  1 30  2  0  0  0
  1 87  1  0  0  0
  2  3  1  0  0  0
  2 25  1  0  0  0
  2 88  1  0  0  0
  2 89  1  0  0  0
  3  4  1  0  0  0
  3 90  1  0  0  0
  3 91  1  0  0  0
  4  5  1  0  0  0
  4 92  1  0  0  0
  4 93  1  0  0  0
  5  6  1  0  0  0
  5 26  1  0  0  0
  5 94  1  0  0  0
  6 25  1  0  0  0
  6 95  1  0  0  0
  6 96  1  0  0  0
  7  8  2  0  0  0
  7 26  1  0  0  0
  7 29  1  0  0  0
  8  9  1  0  0  0
  8 22  1  0  0  0
  9 10  1  0  0  0
  9 27  2  0  0  0
 10 11  2  0  0  0
 10 15  1  0  0  0
 11 12  1  0  0  0
 11 97  1  0  0  0
 12 13  2  0  0  0
 12 98  1  0  0  0
 13 14  1  0  0  0
 13 31  1  0  0  0
 14 15  2  0  0  0
 14 99  1  0  0  0
 15100  1  0  0  0
 16 17  2  0  0  0
 16 21  1  0  0  0
 16 31  1  0  0  0
 17 18  1  0  0  0
 17101  1  0  0  0
 18 19  2  0  0  0
 18102  1  0  0  0
 19 20  1  0  0  0
 19 24  1  0  0  0
 20 21  2  0  0  0
 20103  1  0  0  0
 21 23  1  0  0  0
 22 28  1  0  0  0
 22 32  2  0  0  0
 26 27  1  0  0  0
 28104  1  0  0  0
 28105  1  0  0  0
 29106  1  0  0  0
 29107  1  0  0  0
 33 34  1  0  0  0
 33 66  1  0  0  0
 33 70  2  0  0  0
 34 36  1  0  0  0
 34 59  1  0  0  0
 34108  1  0  0  0
 35 44  2  0  0  0
 35 45  1  0  0  0
 35 68  1  0  0  0
 36 56  1  0  0  0
 36109  1  0  0  0
 37 39  1  0  0  0
 37 47  1  0  0  0
 37 66  1  0  0  0
 37110  1  0  0  0
 38 43  2  0  0  0
 38 46  1  0  0  0
 38 47  1  0  0  0
 39 64  1  0  0  0
 39 67  2  0  0  0
 40 52  1  0  0  0
 40 53  2  0  0  0
 40 58  1  0  0  0
 41111  1  0  0  0
 41112  1  0  0  0
 41113  1  0  0  0
 41 48  1  0  0  0
 42 43  1  0  0  0
 42 66  1  0  0  0
 42114  1  0  0  0
 42115  1  0  0  0
 43 44  1  0  0  0
 44116  1  0  0  0
 45 46  2  0  0  0
 45117  1  0  0  0
 46118  1  0  0  0
 47119  1  0  0  0
 47120  1  0  0  0
 48 56  1  0  0  0
 48 65  1  0  0  0
 48121  1  0  0  0
 49 50  1  0  0  0
 49 53  1  0  0  0
 49 64  1  0  0  0
 49122  1  0  0  0
 50 51  1  0  0  0
 50123  1  0  0  0
 50124  1  0  0  0
 51 52  1  0  0  0
 51125  1  0  0  0
 51126  1  0  0  0
 52127  1  0  0  0
 52128  1  0  0  0
 53 54  1  0  0  0
 54 55  2  0  0  0
 54129  1  0  0  0
 55 57  1  0  0  0
 55130  1  0  0  0
 56 69  2  0  0  0
 57 58  2  0  0  0
 57131  1  0  0  0
 58132  1  0  0  0
 59 60  1  0  0  0
 59 61  1  0  0  0
 59 62  1  0  0  0
 60133  1  0  0  0
 60134  1  0  0  0
 60135  1  0  0  0
 61136  1  0  0  0
 61137  1  0  0  0
 61138  1  0  0  0
 62139  1  0  0  0
 62140  1  0  0  0
 62141  1  0  0  0
 63 65  1  0  0  0
 63142  1  0  0  0
 63143  1  0  0  0
 63144  1  0  0  0
 64145  1  0  0  0
 65146  1  0  0  0
 68 83  1  0  0  0
 71 73  2  0  0  0
 71 86  1  0  0  0
 71147  1  0  0  0
 72 74  2  0  0  0
 72 86  1  0  0  0
 72148  1  0  0  0
 73 74  1  0  0  0
 73 79  1  0  0  0
 74 84  1  0  0  0
 75149  1  0  0  0
 75150  1  0  0  0
 75151  1  0  0  0
 75 84  1  0  0  0
 76 84  1  0  0  0
 76152  1  0  0  0
 76153  1  0  0  0
 76154  1  0  0  0
 77155  1  0  0  0
 77156  1  0  0  0
 77157  1  0  0  0
 77 85  1  0  0  0
 78 87  1  0  0  0
 78158  1  0  0  0
 78159  1  0  0  0
 78160  1  0  0  0
 79 87  1  0  0  0
 79161  1  0  0  0
 79162  1  0  0  0
 80 82  1  0  0  0
 80 85  1  0  0  0
 80163  1  0  0  0
 80164  1  0  0  0
 81 83  1  0  0  0
 81 85  1  0  0  0
 81165  1  0  0  0
 81166  1  0  0  0
 82 86  1  0  0  0
 82167  1  0  0  0
 82168  1  0  0  0
 83169  1  0  0  0
 83170  1  0  0  0
 84171  1  0  0  0
 85172  1  0  0  0
M  ISO  4   1 100  68 101  83 101  87 100
M  END
> <chiral flag>
0

> <version>
0

> <s_m_source_file>
/data/baiqing/PycharmProjects/Reinvent-master-3.2/result/LINK_invent/BTK/process_docking_weight1_custom_sum_contain_oxygen_bond_distance_aromatic_linkinvent_7_9_3/rearranged_h_0095.sdf

> <i_m_source_file_index>
71

> <r_mmod_Potential_Energy-OPLS-2005>
116.018371582031

> <r_mmod_Stretch_Energy-OPLS-2005>
37.2558364868164

> <r_mmod_Bend_Energy-OPLS-2005>
102.598075866699

> <r_mmod_Torsional_Energy-OPLS-2005>
336.380493164062

> <r_mmod_Improper_Torsional_Energy-OPLS-2005>
10.5785427093506

> <r_mmod_Van_der_Waal_Energy-OPLS-2005>
128.708648681641

> <r_mmod_Electrostatic_Energy-OPLS-2005>
-335.245300292969

> <r_mmod_Solvation_Energy-OPLS-2005>
-181.982986450195

> <b_mmod_Minimization_Converged-OPLS-2005>
0

> <r_mmod_RMS_Derivative-OPLS-2005>
2.18281316757202

$$$$
71
                    3D
 Structure written by MMmdl.
160168  0  0  1  0            999 V2000
  -30.6475  -14.5467   20.5342 C   0  0  0  0  0  0
  -30.4430  -12.3460   19.4219 C   0  0  0  0  0  0
  -29.5007  -12.4971   18.2068 C   0  0  0  0  0  0
  -28.0232  -12.3482   18.6261 C   0  0  0  0  0  0
  -27.6612  -13.2025   19.8698 C   0  0  2  0  0  0
  -28.7091  -13.0021   20.9888 C   0  0  0  0  0  0
  -25.2601  -13.8136   20.5671 C   0  0  0  0  0  0
  -24.1854  -13.0428   20.9191 C   0  0  0  0  0  0
  -24.6399  -11.6894   20.8741 C   0  0  0  0  0  0
  -23.9056  -10.4284   21.0413 C   0  0  0  0  0  0
  -24.3609   -9.4202   21.9191 C   0  0  0  0  0  0
  -23.6287   -8.2238   22.0756 C   0  0  0  0  0  0
  -22.4271   -8.0272   21.3550 C   0  0  0  0  0  0
  -21.9906   -9.0249   20.4647 C   0  0  0  0  0  0
  -22.7230  -10.2127   20.3062 C   0  0  0  0  0  0
  -21.6853   -6.0729   22.5282 C   0  0  0  0  0  0
  -21.4001   -6.5633   23.8212 C   0  0  0  0  0  0
  -21.3657   -5.6795   24.9174 C   0  0  0  0  0  0
  -21.6044   -4.3052   24.7232 C   0  0  0  0  0  0
  -21.8820   -3.8146   23.4354 C   0  0  0  0  0  0
  -21.9187   -4.6961   22.3407 C   0  0  0  0  0  0
  -22.7872  -13.5230   21.1847 C   0  0  0  0  0  0
  -22.1663   -4.2144   21.0984 F   0  0  0  0  0  0
  -21.5634   -3.4537   25.7747 F   0  0  0  0  0  0
  -30.0312  -13.3349   20.4298 N   0  0  0  0  0  0
  -26.3031  -12.9301   20.3349 N   0  0  0  0  0  0
  -25.9327  -11.6463   20.5772 N   0  0  0  0  0  0
  -22.0502  -12.8226   22.0399 N   0  0  0  0  0  0
  -25.4315  -15.1852   20.4054 N   0  0  0  0  0  0
  -31.7820  -14.7725   20.1049 O   0  0  0  0  0  0
  -21.6633   -6.8873   21.4245 O   0  0  0  0  0  0
  -22.3568  -14.5546   20.6706 O   0  0  0  0  0  0
  -24.6192  -31.8646   23.2050 C   0  0  0  0  0  0
  -25.9059  -32.4796   23.8375 C   0  0  1  0  0  0
  -27.2361  -27.3861   20.1130 C   0  0  0  0  0  0
  -25.5898  -33.8600   24.2295 N   0  0  0  0  0  0
  -23.4105  -30.4857   21.5461 C   0  0  2  0  0  0
  -24.8604  -28.9425   20.1153 C   0  0  0  0  0  0
  -22.7441  -29.4646   22.4966 C   0  0  0  0  0  0
  -18.0288  -28.1372   22.8497 C   0  0  0  0  0  0
  -24.1486  -36.7315   23.2639 C   0  0  0  0  0  0
  -25.9435  -30.8150   21.3640 C   0  0  0  0  0  0
  -26.0236  -29.4451   20.7132 C   0  0  0  0  0  0
  -27.2178  -28.6777   20.7024 C   0  0  0  0  0  0
  -26.0545  -26.9078   19.5081 C   0  0  0  0  0  0
  -24.8724  -27.6743   19.5082 C   0  0  0  0  0  0
  -23.6223  -29.8139   20.1626 C   0  0  0  0  0  0
  -25.4109  -36.3094   24.0327 C   0  0  1  0  0  0
  -20.5883  -28.3682   23.1302 C   0  0  2  0  0  0
  -20.6780  -26.9411   22.5419 C   0  0  0  0  0  0
  -19.5755  -26.6386   21.5217 C   0  0  0  0  0  0
  -18.1929  -26.7923   22.1621 C   0  0  0  0  0  0
  -19.1540  -28.8845   23.2892 C   0  0  0  0  0  0
  -18.9459  -30.1443   23.8915 C   0  0  0  0  0  0
  -17.6465  -30.6582   24.0568 C   0  0  0  0  0  0
  -25.9039  -34.9455   23.5107 C   0  0  0  0  0  0
  -16.5356  -29.9085   23.6326 C   0  0  0  0  0  0
  -16.7280  -28.6495   23.0360 C   0  0  0  0  0  0
  -26.4468  -31.6599   25.0728 C   0  0  0  0  0  0
  -25.3731  -31.3706   26.1475 C   0  0  0  0  0  0
  -27.0299  -30.3040   24.6123 C   0  0  0  0  0  0
  -27.6030  -32.4335   25.7498 C   0  0  0  0  0  0
  -27.5575  -37.1798   24.8460 C   0  0  0  0  0  0
  -21.4163  -29.3036   22.3697 N   0  0  0  0  0  0
  -26.4290  -37.3780   23.9405 N   0  0  0  0  0  0
  -24.6758  -31.0695   22.0970 N   0  0  0  0  0  0
  -23.4191  -28.8207   23.3045 O   0  0  0  0  0  0
  -28.3789  -26.5996   20.1031 O   0  0  0  0  0  0
  -26.5614  -34.8914   22.4680 O   0  0  0  0  0  0
  -23.5368  -32.1441   23.7406 O   0  0  0  0  0  0
  -28.1285  -19.6647   19.2613 C   0  0  0  0  0  0
  -29.8351  -20.3878   20.4807 C   0  0  0  0  0  0
  -29.3616  -19.2535   19.8476 C   0  0  0  0  0  0
  -27.8629  -20.9689   19.5823 C   0  0  0  0  0  0
  -26.6463  -21.7830   19.2689 C   0  0  0  0  0  0
  -28.9054  -24.0751   20.0594 C   0  0  0  0  0  0
  -29.0221  -22.7920   20.9674 C   0  0  0  0  0  0
  -30.0766  -17.0142   21.0620 C   0  0  0  0  0  0
  -28.2862  -25.3190   20.7882 C   0  0  0  0  0  0
  -29.9426  -17.8208   19.7280 C   0  0  2  0  0  0
  -28.9334  -21.4538   20.3234 N   0  0  0  0  0  0
  -29.8467  -15.5490   20.9567 N   0  0  0  0  0  0
  -31.2092  -17.8483   18.9881 N   0  3  0  0  0  0
  -31.4825  -12.4784   19.1148 H   0  0  0  0  0  0
  -30.3800  -11.3390   19.8366 H   0  0  0  0  0  0
  -29.7455  -11.7526   17.4476 H   0  0  0  0  0  0
  -29.6529  -13.4711   17.7386 H   0  0  0  0  0  0
  -27.8476  -11.2940   18.8429 H   0  0  0  0  0  0
  -27.3664  -12.5983   17.7915 H   0  0  0  0  0  0
  -27.6954  -14.2450   19.5531 H   0  0  0  0  0  0
  -28.7056  -11.9660   21.3299 H   0  0  0  0  0  0
  -28.4679  -13.5988   21.8703 H   0  0  0  0  0  0
  -25.2750   -9.5674   22.4770 H   0  0  0  0  0  0
  -23.9988   -7.4628   22.7482 H   0  0  0  0  0  0
  -21.0832   -8.8773   19.8959 H   0  0  0  0  0  0
  -22.3688  -10.9674   19.6177 H   0  0  0  0  0  0
  -21.1987   -7.6140   23.9715 H   0  0  0  0  0  0
  -21.1477   -6.0519   25.9076 H   0  0  0  0  0  0
  -22.0600   -2.7608   23.2859 H   0  0  0  0  0  0
  -22.4101  -11.9869   22.4774 H   0  0  0  0  0  0
  -21.1131  -13.1269   22.2620 H   0  0  0  0  0  0
  -24.6610  -15.8365   20.5051 H   0  0  0  0  0  0
  -26.2733  -15.6212   20.0540 H   0  0  0  0  0  0
  -26.7141  -32.5498   23.1148 H   0  0  0  0  0  0
  -25.0019  -33.9767   25.0417 H   0  0  0  0  0  0
  -22.7013  -31.3035   21.4021 H   0  0  0  0  0  0
  -23.3727  -35.9665   23.3314 H   0  0  0  0  0  0
  -24.3571  -36.8935   22.2049 H   0  0  0  0  0  0
  -23.7269  -37.6531   23.6674 H   0  0  0  0  0  0
  -26.0580  -31.5754   20.5906 H   0  0  0  0  0  0
  -26.8299  -30.8724   21.9846 H   0  0  0  0  0  0
  -28.1156  -29.0607   21.1658 H   0  0  0  0  0  0
  -26.0481  -25.9343   19.0384 H   0  0  0  0  0  0
  -23.9791  -27.2816   19.0407 H   0  0  0  0  0  0
  -23.7288  -30.5890   19.4021 H   0  0  0  0  0  0
  -22.7462  -29.2335   19.8695 H   0  0  0  0  0  0
  -25.1279  -36.1947   25.0818 H   0  0  0  0  0  0
  -20.9973  -28.3263   24.1425 H   0  0  0  0  0  0
  -20.5690  -26.2288   23.3612 H   0  0  0  0  0  0
  -21.6640  -26.7456   22.1191 H   0  0  0  0  0  0
  -19.6913  -25.6301   21.1238 H   0  0  0  0  0  0
  -19.6691  -27.3200   20.6751 H   0  0  0  0  0  0
  -17.4197  -26.6695   21.4017 H   0  0  0  0  0  0
  -18.0313  -26.0057   22.9008 H   0  0  0  0  0  0
  -19.7942  -30.7246   24.2301 H   0  0  0  0  0  0
  -17.5023  -31.6270   24.5156 H   0  0  0  0  0  0
  -15.5351  -30.2986   23.7646 H   0  0  0  0  0  0
  -15.8684  -28.0819   22.7070 H   0  0  0  0  0  0
  -24.5915  -30.7043   25.7829 H   0  0  0  0  0  0
  -24.8895  -32.2840   26.4939 H   0  0  0  0  0  0
  -25.8065  -30.8887   27.0244 H   0  0  0  0  0  0
  -26.2849  -29.6800   24.1183 H   0  0  0  0  0  0
  -27.4069  -29.7285   25.4587 H   0  0  0  0  0  0
  -27.8682  -30.4353   23.9277 H   0  0  0  0  0  0
  -27.2657  -33.3650   26.2067 H   0  0  0  0  0  0
  -28.3849  -32.6884   25.0332 H   0  0  0  0  0  0
  -28.0698  -31.8472   26.5430 H   0  0  0  0  0  0
  -28.2575  -38.0107   24.7501 H   0  0  0  0  0  0
  -28.1075  -36.2627   24.6282 H   0  0  0  0  0  0
  -27.2285  -37.1458   25.8860 H   0  0  0  0  0  0
  -20.9337  -29.8766   21.6919 H   0  0  0  0  0  0
  -26.0165  -38.2854   24.1405 H   0  0  0  0  0  0
  -27.4611  -19.0385   18.6835 H   0  0  0  0  0  0
  -30.7372  -20.5308   21.0627 H   0  0  0  0  0  0
  -25.7750  -21.1426   19.1322 H   0  0  0  0  0  0
  -26.7799  -22.3521   18.3489 H   0  0  0  0  0  0
  -26.4037  -22.4792   20.0715 H   0  0  0  0  0  0
  -28.3178  -23.8709   19.1675 H   0  0  0  0  0  0
  -29.9015  -24.3287   19.6964 H   0  0  0  0  0  0
  -28.2330  -22.8169   21.7198 H   0  0  0  0  0  0
  -29.9529  -22.8432   21.5343 H   0  0  0  0  0  0
  -29.2940  -17.3681   21.7340 H   0  0  0  0  0  0
  -31.0163  -17.2310   21.5711 H   0  0  0  0  0  0
  -28.7937  -25.4485   21.7450 H   0  0  0  0  0  0
  -27.2539  -25.0788   21.0502 H   0  0  0  0  0  0
  -29.2374  -17.2768   19.0966 H   0  0  0  0  0  0
  -28.9296  -15.2429   21.2462 H   0  0  0  0  0  0
  -31.8865  -18.4126   19.4672 H   0  0  0  0  0  0
  -31.0571  -18.2378   18.0752 H   0  0  0  0  0  0
  -31.5744  -16.9174   18.8888 H   0  0  0  0  0  0
  1 25  1  0  0  0
  1 30  2  0  0  0
  1 82  1  0  0  0
  2  3  1  0  0  0
  2 25  1  0  0  0
  2 84  1  0  0  0
  2 85  1  0  0  0
  3  4  1  0  0  0
  3 86  1  0  0  0
  3 87  1  0  0  0
  4  5  1  0  0  0
  4 88  1  0  0  0
  4 89  1  0  0  0
  5  6  1  0  0  0
  5 26  1  0  0  0
  5 90  1  0  0  0
  6 25  1  0  0  0
  6 91  1  0  0  0
  6 92  1  0  0  0
  7  8  2  0  0  0
  7 26  1  0  0  0
  7 29  1  0  0  0
  8  9  1  0  0  0
  8 22  1  0  0  0
  9 10  1  0  0  0
  9 27  2  0  0  0
 10 11  2  0  0  0
 10 15  1  0  0  0
 11 12  1  0  0  0
 11 93  1  0  0  0
 12 13  2  0  0  0
 12 94  1  0  0  0
 13 14  1  0  0  0
 13 31  1  0  0  0
 14 15  2  0  0  0
 14 95  1  0  0  0
 15 96  1  0  0  0
 16 17  2  0  0  0
 16 21  1  0  0  0
 16 31  1  0  0  0
 17 18  1  0  0  0
 17 97  1  0  0  0
 18 19  2  0  0  0
 18 98  1  0  0  0
 19 20  1  0  0  0
 19 24  1  0  0  0
 20 21  2  0  0  0
 20 99  1  0  0  0
 21 23  1  0  0  0
 22 28  1  0  0  0
 22 32  2  0  0  0
 26 27  1  0  0  0
 28100  1  0  0  0
 28101  1  0  0  0
 29102  1  0  0  0
 29103  1  0  0  0
 33 34  1  0  0  0
 33 66  1  0  0  0
 33 70  2  0  0  0
 34 36  1  0  0  0
 34 59  1  0  0  0
 34104  1  0  0  0
 35 44  2  0  0  0
 35 45  1  0  0  0
 35 68  1  0  0  0
 36 56  1  0  0  0
 36105  1  0  0  0
 37 39  1  0  0  0
 37 47  1  0  0  0
 37 66  1  0  0  0
 37106  1  0  0  0
 38 43  2  0  0  0
 38 46  1  0  0  0
 38 47  1  0  0  0
 39 64  1  0  0  0
 39 67  2  0  0  0
 40 52  1  0  0  0
 40 53  2  0  0  0
 40 58  1  0  0  0
 41107  1  0  0  0
 41108  1  0  0  0
 41109  1  0  0  0
 41 48  1  0  0  0
 42 43  1  0  0  0
 42 66  1  0  0  0
 42110  1  0  0  0
 42111  1  0  0  0
 43 44  1  0  0  0
 44112  1  0  0  0
 45 46  2  0  0  0
 45113  1  0  0  0
 46114  1  0  0  0
 47115  1  0  0  0
 47116  1  0  0  0
 48 56  1  0  0  0
 48 65  1  0  0  0
 48117  1  0  0  0
 49 50  1  0  0  0
 49 53  1  0  0  0
 49 64  1  0  0  0
 49118  1  0  0  0
 50 51  1  0  0  0
 50119  1  0  0  0
 50120  1  0  0  0
 51 52  1  0  0  0
 51121  1  0  0  0
 51122  1  0  0  0
 52123  1  0  0  0
 52124  1  0  0  0
 53 54  1  0  0  0
 54 55  2  0  0  0
 54125  1  0  0  0
 55 57  1  0  0  0
 55126  1  0  0  0
 56 69  2  0  0  0
 57 58  2  0  0  0
 57127  1  0  0  0
 58128  1  0  0  0
 59 60  1  0  0  0
 59 61  1  0  0  0
 59 62  1  0  0  0
 60129  1  0  0  0
 60130  1  0  0  0
 60131  1  0  0  0
 61132  1  0  0  0
 61133  1  0  0  0
 61134  1  0  0  0
 62135  1  0  0  0
 62136  1  0  0  0
 62137  1  0  0  0
 63 65  1  0  0  0
 63138  1  0  0  0
 63139  1  0  0  0
 63140  1  0  0  0
 64141  1  0  0  0
 65142  1  0  0  0
 68 79  1  0  0  0
 71 73  1  0  0  0
 71 74  2  0  0  0
 71143  1  0  0  0
 72 73  2  0  0  0
 72 81  1  0  0  0
 72144  1  0  0  0
 73 80  1  0  0  0
 74 75  1  0  0  0
 74 81  1  0  0  0
 75145  1  0  0  0
 75146  1  0  0  0
 75147  1  0  0  0
 76 77  1  0  0  0
 76 79  1  0  0  0
 76148  1  0  0  0
 76149  1  0  0  0
 77 81  1  0  0  0
 77150  1  0  0  0
 77151  1  0  0  0
 78 80  1  0  0  0
 78 82  1  0  0  0
 78152  1  0  0  0
 78153  1  0  0  0
 79154  1  0  0  0
 79155  1  0  0  0
 80 83  1  0  0  0
 80156  1  0  0  0
 82157  1  0  0  0
 83158  1  0  0  0
 83159  1  0  0  0
 83160  1  0  0  0
M  CHG  1  83   1
M  ISO  4   1 100  68 101  79 101  82 100
M  END
> <chiral flag>
0

> <version>
0

> <s_m_source_file>
/data/baiqing/PycharmProjects/Reinvent-master-3.2/result/LINK_invent/BTK/process_docking_weight1_custom_sum_contain_oxygen_bond_distance_aromatic_linkinvent_7_9_3/rearranged_h_0095.sdf

> <i_m_source_file_index>
72

> <r_mmod_Potential_Energy-OPLS-2005>
-369.694396972656

> <r_mmod_Stretch_Energy-OPLS-2005>
50.432559967041

> <r_mmod_Bend_Energy-OPLS-2005>
115.558029174805

> <r_mmod_Torsional_Energy-OPLS-2005>
269.434326171875

> <r_mmod_Improper_Torsional_Energy-OPLS-2005>
5.39657497406006

> <r_mmod_Van_der_Waal_Energy-OPLS-2005>
117.423973083496

> <r_mmod_Electrostatic_Energy-OPLS-2005>
-493.500518798828

> <r_mmod_Solvation_Energy-OPLS-2005>
-458.127807617188

> <b_mmod_Minimization_Converged-OPLS-2005>
0

> <r_mmod_RMS_Derivative-OPLS-2005>
2.07012510299683

$$$$
72
                    3D
 Structure written by MMmdl.
158165  0  0  1  0            999 V2000
  -30.5908  -14.6678   20.5338 C   0  0  0  0  0  0
  -30.4330  -12.4223   19.4477 C   0  0  0  0  0  0
  -29.5077  -12.5302   18.2170 C   0  0  0  0  0  0
  -28.0317  -12.3515   18.6283 C   0  0  0  0  0  0
  -27.6479  -13.2173   19.8568 C   0  0  2  0  0  0
  -28.6841  -13.0714   20.9896 C   0  0  0  0  0  0
  -25.2557  -13.8182   20.5628 C   0  0  0  0  0  0
  -24.1824  -13.0453   20.9168 C   0  0  0  0  0  0
  -24.6363  -11.6910   20.8667 C   0  0  0  0  0  0
  -23.9020  -10.4317   21.0357 C   0  0  0  0  0  0
  -24.3584   -9.4267   21.9161 C   0  0  0  0  0  0
  -23.6303   -8.2271   22.0740 C   0  0  0  0  0  0
  -22.4297   -8.0275   21.3514 C   0  0  0  0  0  0
  -21.9893   -9.0235   20.4618 C   0  0  0  0  0  0
  -22.7174  -10.2142   20.3035 C   0  0  0  0  0  0
  -21.6865   -6.0715   22.5259 C   0  0  0  0  0  0
  -21.4017   -6.5626   23.8184 C   0  0  0  0  0  0
  -21.3682   -5.6795   24.9162 C   0  0  0  0  0  0
  -21.6051   -4.3048   24.7226 C   0  0  0  0  0  0
  -21.8837   -3.8140   23.4350 C   0  0  0  0  0  0
  -21.9212   -4.6947   22.3396 C   0  0  0  0  0  0
  -22.7874  -13.5251   21.1884 C   0  0  0  0  0  0
  -22.1688   -4.2127   21.0971 F   0  0  0  0  0  0
  -21.5643   -3.4533   25.7744 F   0  0  0  0  0  0
  -29.9920  -13.4376   20.4275 N   0  0  0  0  0  0
  -26.2949  -12.9326   20.3236 N   0  0  0  0  0  0
  -25.9277  -11.6488   20.5645 N   0  0  0  0  0  0
  -22.0519  -12.8202   22.0412 N   0  0  0  0  0  0
  -25.4332  -15.1890   20.3993 N   0  0  0  0  0  0
  -31.7613  -14.8407   20.1794 O   0  0  0  0  0  0
  -21.6678   -6.8855   21.4209 O   0  0  0  0  0  0
  -22.3571  -14.5565   20.6777 O   0  0  0  0  0  0
  -24.6274  -31.8593   23.2036 C   0  0  0  0  0  0
  -25.9122  -32.4780   23.8350 C   0  0  1  0  0  0
  -27.1919  -27.2759   20.0990 C   0  0  0  0  0  0
  -25.5961  -33.8592   24.2259 N   0  0  0  0  0  0
  -23.4209  -30.4879   21.5483 C   0  0  2  0  0  0
  -24.8610  -28.9469   20.1097 C   0  0  0  0  0  0
  -22.7474  -29.4618   22.4914 C   0  0  0  0  0  0
  -18.0295  -28.1389   22.8463 C   0  0  0  0  0  0
  -24.1500  -36.7265   23.2635 C   0  0  0  0  0  0
  -25.9698  -30.7698   21.3909 C   0  0  0  0  0  0
  -26.0378  -29.3993   20.7207 C   0  0  0  0  0  0
  -27.2071  -28.5739   20.7085 C   0  0  0  0  0  0
  -25.9907  -26.9012   19.4480 C   0  0  0  0  0  0
  -24.8403  -27.7027   19.4706 C   0  0  0  0  0  0
  -23.6358  -29.8358   20.1614 C   0  0  0  0  0  0
  -25.4142  -36.3067   24.0290 C   0  0  1  0  0  0
  -20.5878  -28.3681   23.1273 C   0  0  2  0  0  0
  -20.6779  -26.9399   22.5412 C   0  0  0  0  0  0
  -19.5775  -26.6381   21.5190 C   0  0  0  0  0  0
  -18.1939  -26.7923   22.1590 C   0  0  0  0  0  0
  -19.1542  -28.8848   23.2857 C   0  0  0  0  0  0
  -18.9481  -30.1447   23.8879 C   0  0  0  0  0  0
  -17.6490  -30.6593   24.0554 C   0  0  0  0  0  0
  -25.9083  -34.9444   23.5067 C   0  0  0  0  0  0
  -16.5368  -29.9100   23.6348 C   0  0  0  0  0  0
  -16.7272  -28.6510   23.0356 C   0  0  0  0  0  0
  -26.4509  -31.6615   25.0740 C   0  0  0  0  0  0
  -25.3731  -31.3796   26.1464 C   0  0  0  0  0  0
  -27.0363  -30.3023   24.6256 C   0  0  0  0  0  0
  -27.6063  -32.4367   25.7519 C   0  0  0  0  0  0
  -27.5581  -37.1784   24.8454 C   0  0  0  0  0  0
  -21.4183  -29.3038   22.3669 N   0  0  0  0  0  0
  -26.4305  -37.3776   23.9394 N   0  0  0  0  0  0
  -24.6909  -31.0567   22.1021 N   0  0  0  0  0  0
  -23.4179  -28.8151   23.2991 O   0  0  0  0  0  0
  -28.2618  -26.3552   20.1538 O   0  0  0  0  0  0
  -26.5642  -34.8886   22.4629 O   0  0  0  0  0  0
  -23.5432  -32.1443   23.7350 O   0  0  0  0  0  0
  -27.3827  -22.0514   21.5610 C   0  0  0  0  0  0
  -27.5687  -21.8562   19.0795 C   0  0  0  0  0  0
  -28.9132  -23.6878   20.3103 C   0  0  0  0  0  0
  -30.0859  -17.1777   21.2080 C   0  0  0  0  0  0
  -29.2724  -18.3416   20.4488 C   0  0  0  0  0  0
  -29.5017  -21.0227   20.4984 C   0  0  0  0  0  0
  -27.9295  -24.9060   19.9340 C   0  0  0  0  0  0
  -28.3600  -22.1603   20.3685 C   0  0  0  0  0  0
  -29.7844  -15.7217   20.8982 N   0  0  0  0  0  0
  -29.1641  -19.6880   21.1627 N   0  3  0  0  0  0
  -31.4770  -12.5518   19.1589 H   0  0  0  0  0  0
  -30.3704  -11.4227   19.8773 H   0  0  0  0  0  0
  -29.7834  -11.7832   17.4699 H   0  0  0  0  0  0
  -29.6394  -13.5049   17.7429 H   0  0  0  0  0  0
  -27.8811  -11.2974   18.8598 H   0  0  0  0  0  0
  -27.3738  -12.5710   17.7848 H   0  0  0  0  0  0
  -27.6660  -14.2536   19.5159 H   0  0  0  0  0  0
  -28.7017  -12.0467   21.3656 H   0  0  0  0  0  0
  -28.4231  -13.6928   21.8479 H   0  0  0  0  0  0
  -25.2708   -9.5793   22.4742 H   0  0  0  0  0  0
  -24.0049   -7.4682   22.7462 H   0  0  0  0  0  0
  -21.0830   -8.8696   19.8912 H   0  0  0  0  0  0
  -22.3580  -10.9661   19.6161 H   0  0  0  0  0  0
  -21.1984   -7.6132   23.9656 H   0  0  0  0  0  0
  -21.1487   -6.0537   25.9052 H   0  0  0  0  0  0
  -22.0595   -2.7601   23.2845 H   0  0  0  0  0  0
  -22.4188  -11.9871   22.4739 H   0  0  0  0  0  0
  -21.1097  -13.1160   22.2594 H   0  0  0  0  0  0
  -24.6619  -15.8442   20.4692 H   0  0  0  0  0  0
  -26.2660  -15.5954   19.9912 H   0  0  0  0  0  0
  -26.7162  -32.5412   23.1059 H   0  0  0  0  0  0
  -25.0106  -33.9761   25.0397 H   0  0  0  0  0  0
  -22.7128  -31.3085   21.4123 H   0  0  0  0  0  0
  -23.3768  -35.9599   23.3331 H   0  0  0  0  0  0
  -24.3572  -36.8881   22.2045 H   0  0  0  0  0  0
  -23.7251  -37.6456   23.6672 H   0  0  0  0  0  0
  -26.1236  -31.5389   20.6341 H   0  0  0  0  0  0
  -26.8400  -30.8061   22.0332 H   0  0  0  0  0  0
  -28.1044  -28.9096   21.2088 H   0  0  0  0  0  0
  -25.8932  -25.9637   18.9237 H   0  0  0  0  0  0
  -23.9360  -27.3523   18.9936 H   0  0  0  0  0  0
  -23.7656  -30.6219   19.4153 H   0  0  0  0  0  0
  -22.7501  -29.2776   19.8522 H   0  0  0  0  0  0
  -25.1331  -36.1913   25.0782 H   0  0  0  0  0  0
  -20.9955  -28.3264   24.1400 H   0  0  0  0  0  0
  -20.5684  -26.2267   23.3610 H   0  0  0  0  0  0
  -21.6649  -26.7446   22.1200 H   0  0  0  0  0  0
  -19.6945  -25.6293   21.1234 H   0  0  0  0  0  0
  -19.6743  -27.3178   20.6712 H   0  0  0  0  0  0
  -17.4208  -26.6647   21.4003 H   0  0  0  0  0  0
  -18.0362  -26.0074   22.9005 H   0  0  0  0  0  0
  -19.7973  -30.7258   24.2227 H   0  0  0  0  0  0
  -17.5069  -31.6288   24.5160 H   0  0  0  0  0  0
  -15.5375  -30.3013   23.7716 H   0  0  0  0  0  0
  -15.8649  -28.0859   22.7079 H   0  0  0  0  0  0
  -24.5888  -30.7166   25.7804 H   0  0  0  0  0  0
  -24.8934  -32.2974   26.4859 H   0  0  0  0  0  0
  -25.8025  -30.8994   27.0263 H   0  0  0  0  0  0
  -26.2956  -29.6766   24.1258 H   0  0  0  0  0  0
  -27.4007  -29.7309   25.4802 H   0  0  0  0  0  0
  -27.8853  -30.4290   23.9544 H   0  0  0  0  0  0
  -27.2671  -33.3687   26.2069 H   0  0  0  0  0  0
  -28.3891  -32.6908   25.0359 H   0  0  0  0  0  0
  -28.0701  -31.8503   26.5466 H   0  0  0  0  0  0
  -28.2589  -38.0084   24.7514 H   0  0  0  0  0  0
  -28.1085  -36.2609   24.6303 H   0  0  0  0  0  0
  -27.2274  -37.1446   25.8847 H   0  0  0  0  0  0
  -20.9349  -29.8769   21.6904 H   0  0  0  0  0  0
  -26.0169  -38.2835   24.1456 H   0  0  0  0  0  0
  -26.5738  -22.7786   21.4855 H   0  0  0  0  0  0
  -27.8846  -22.2193   22.5141 H   0  0  0  0  0  0
  -26.8946  -21.0768   21.6040 H   0  0  0  0  0  0
  -26.7360  -22.5466   18.9373 H   0  0  0  0  0  0
  -27.1423  -20.8515   19.1013 H   0  0  0  0  0  0
  -28.2023  -21.9226   18.1933 H   0  0  0  0  0  0
  -29.3573  -23.9085   21.2791 H   0  0  0  0  0  0
  -29.7460  -23.7185   19.6051 H   0  0  0  0  0  0
  -29.9126  -17.2899   22.2799 H   0  0  0  0  0  0
  -31.1541  -17.3579   21.0706 H   0  0  0  0  0  0
  -28.2525  -17.9939   20.2759 H   0  0  0  0  0  0
  -29.6979  -18.4981   19.4562 H   0  0  0  0  0  0
  -30.2867  -21.4484   21.1247 H   0  0  0  0  0  0
  -29.9938  -20.8569   19.5398 H   0  0  0  0  0  0
  -26.9890  -24.7045   20.4466 H   0  0  0  0  0  0
  -27.7160  -24.7960   18.8697 H   0  0  0  0  0  0
  -28.8423  -15.4341   21.1254 H   0  0  0  0  0  0
  -29.7593  -19.6434   21.9747 H   0  0  0  0  0  0
  -28.2267  -19.7647   21.5266 H   0  0  0  0  0  0
  1 25  1  0  0  0
  1 30  2  0  0  0
  1 79  1  0  0  0
  2  3  1  0  0  0
  2 25  1  0  0  0
  2 81  1  0  0  0
  2 82  1  0  0  0
  3  4  1  0  0  0
  3 83  1  0  0  0
  3 84  1  0  0  0
  4  5  1  0  0  0
  4 85  1  0  0  0
  4 86  1  0  0  0
  5  6  1  0  0  0
  5 26  1  0  0  0
  5 87  1  0  0  0
  6 25  1  0  0  0
  6 88  1  0  0  0
  6 89  1  0  0  0
  7  8  2  0  0  0
  7 26  1  0  0  0
  7 29  1  0  0  0
  8  9  1  0  0  0
  8 22  1  0  0  0
  9 10  1  0  0  0
  9 27  2  0  0  0
 10 11  2  0  0  0
 10 15  1  0  0  0
 11 12  1  0  0  0
 11 90  1  0  0  0
 12 13  2  0  0  0
 12 91  1  0  0  0
 13 14  1  0  0  0
 13 31  1  0  0  0
 14 15  2  0  0  0
 14 92  1  0  0  0
 15 93  1  0  0  0
 16 17  2  0  0  0
 16 21  1  0  0  0
 16 31  1  0  0  0
 17 18  1  0  0  0
 17 94  1  0  0  0
 18 19  2  0  0  0
 18 95  1  0  0  0
 19 20  1  0  0  0
 19 24  1  0  0  0
 20 21  2  0  0  0
 20 96  1  0  0  0
 21 23  1  0  0  0
 22 28  1  0  0  0
 22 32  2  0  0  0
 26 27  1  0  0  0
 28 97  1  0  0  0
 28 98  1  0  0  0
 29 99  1  0  0  0
 29100  1  0  0  0
 33 34  1  0  0  0
 33 66  1  0  0  0
 33 70  2  0  0  0
 34 36  1  0  0  0
 34 59  1  0  0  0
 34101  1  0  0  0
 35 44  2  0  0  0
 35 45  1  0  0  0
 35 68  1  0  0  0
 36 56  1  0  0  0
 36102  1  0  0  0
 37 39  1  0  0  0
 37 47  1  0  0  0
 37 66  1  0  0  0
 37103  1  0  0  0
 38 43  2  0  0  0
 38 46  1  0  0  0
 38 47  1  0  0  0
 39 64  1  0  0  0
 39 67  2  0  0  0
 40 52  1  0  0  0
 40 53  2  0  0  0
 40 58  1  0  0  0
 41104  1  0  0  0
 41105  1  0  0  0
 41106  1  0  0  0
 41 48  1  0  0  0
 42 43  1  0  0  0
 42 66  1  0  0  0
 42107  1  0  0  0
 42108  1  0  0  0
 43 44  1  0  0  0
 44109  1  0  0  0
 45 46  2  0  0  0
 45110  1  0  0  0
 46111  1  0  0  0
 47112  1  0  0  0
 47113  1  0  0  0
 48 56  1  0  0  0
 48 65  1  0  0  0
 48114  1  0  0  0
 49 50  1  0  0  0
 49 53  1  0  0  0
 49 64  1  0  0  0
 49115  1  0  0  0
 50 51  1  0  0  0
 50116  1  0  0  0
 50117  1  0  0  0
 51 52  1  0  0  0
 51118  1  0  0  0
 51119  1  0  0  0
 52120  1  0  0  0
 52121  1  0  0  0
 53 54  1  0  0  0
 54 55  2  0  0  0
 54122  1  0  0  0
 55 57  1  0  0  0
 55123  1  0  0  0
 56 69  2  0  0  0
 57 58  2  0  0  0
 57124  1  0  0  0
 58125  1  0  0  0
 59 60  1  0  0  0
 59 61  1  0  0  0
 59 62  1  0  0  0
 60126  1  0  0  0
 60127  1  0  0  0
 60128  1  0  0  0
 61129  1  0  0  0
 61130  1  0  0  0
 61131  1  0  0  0
 62132  1  0  0  0
 62133  1  0  0  0
 62134  1  0  0  0
 63 65  1  0  0  0
 63135  1  0  0  0
 63136  1  0  0  0
 63137  1  0  0  0
 64138  1  0  0  0
 65139  1  0  0  0
 68 77  1  0  0  0
 71140  1  0  0  0
 71141  1  0  0  0
 71142  1  0  0  0
 71 78  1  0  0  0
 72 78  1  0  0  0
 72143  1  0  0  0
 72144  1  0  0  0
 72145  1  0  0  0
 73 77  1  0  0  0
 73 78  1  0  0  0
 73146  1  0  0  0
 73147  1  0  0  0
 74 75  1  0  0  0
 74 79  1  0  0  0
 74148  1  0  0  0
 74149  1  0  0  0
 75 80  1  0  0  0
 75150  1  0  0  0
 75151  1  0  0  0
 76 78  1  0  0  0
 76 80  1  0  0  0
 76152  1  0  0  0
 76153  1  0  0  0
 77154  1  0  0  0
 77155  1  0  0  0
 79156  1  0  0  0
 80157  1  0  0  0
 80158  1  0  0  0
M  CHG  1  80   1
M  ISO  4   1 100  68 101  77 101  79 100
M  END
> <chiral flag>
0

> <version>
0

> <s_m_source_file>
/data/baiqing/PycharmProjects/Reinvent-master-3.2/result/LINK_invent/BTK/process_docking_weight1_custom_sum_contain_oxygen_bond_distance_aromatic_linkinvent_7_9_3/rearranged_h_0095.sdf

> <i_m_source_file_index>
73

> <r_mmod_Potential_Energy-OPLS-2005>
-52.0274696350098

> <r_mmod_Stretch_Energy-OPLS-2005>
106.523902893066

> <r_mmod_Bend_Energy-OPLS-2005>
163.983093261719

> <r_mmod_Torsional_Energy-OPLS-2005>
254.384872436523

> <r_mmod_Improper_Torsional_Energy-OPLS-2005>
4.08891439437866

> <r_mmod_Van_der_Waal_Energy-OPLS-2005>
130.391937255859

> <r_mmod_Electrostatic_Energy-OPLS-2005>
-296.716339111328

> <r_mmod_Solvation_Energy-OPLS-2005>
-484.421417236328

> <b_mmod_Minimization_Converged-OPLS-2005>
0

> <r_mmod_RMS_Derivative-OPLS-2005>
4.17091464996338

$$$$
73
                    3D
 Structure written by MMmdl.
159167  0  0  1  0            999 V2000
  -30.4386  -15.0682   20.4155 C   0  0  0  0  0  0
  -30.4549  -12.6713   19.5422 C   0  0  0  0  0  0
  -29.5413  -12.5587   18.2969 C   0  0  0  0  0  0
  -28.0740  -12.3304   18.7077 C   0  0  0  0  0  0
  -27.6253  -13.2640   19.8635 C   0  0  2  0  0  0
  -28.6588  -13.3038   21.0057 C   0  0  0  0  0  0
  -25.2455  -13.8301   20.5816 C   0  0  0  0  0  0
  -24.1736  -13.0501   20.9300 C   0  0  0  0  0  0
  -24.6370  -11.7023   20.8809 C   0  0  0  0  0  0
  -23.9075  -10.4372   21.0466 C   0  0  0  0  0  0
  -24.3638   -9.4250   21.9199 C   0  0  0  0  0  0
  -23.6309   -8.2274   22.0765 C   0  0  0  0  0  0
  -22.4282   -8.0306   21.3558 C   0  0  0  0  0  0
  -21.9932   -9.0289   20.4658 C   0  0  0  0  0  0
  -22.7275  -10.2176   20.3081 C   0  0  0  0  0  0
  -21.6871   -6.0756   22.5262 C   0  0  0  0  0  0
  -21.4008   -6.5660   23.8190 C   0  0  0  0  0  0
  -21.3670   -5.6818   24.9163 C   0  0  0  0  0  0
  -21.6025   -4.3070   24.7212 C   0  0  0  0  0  0
  -21.8837   -3.8172   23.4336 C   0  0  0  0  0  0
  -21.9195   -4.6988   22.3393 C   0  0  0  0  0  0
  -22.7751  -13.5270   21.1887 C   0  0  0  0  0  0
  -22.1673   -4.2173   21.0971 F   0  0  0  0  0  0
  -21.5635   -3.4541   25.7727 F   0  0  0  0  0  0
  -29.9128  -13.7627   20.4060 N   0  0  0  0  0  0
  -26.2846  -12.9519   20.3351 N   0  0  0  0  0  0
  -25.9311  -11.6649   20.5857 N   0  0  0  0  0  0
  -22.0356  -12.8261   22.0459 N   0  0  0  0  0  0
  -25.4160  -15.2000   20.4200 N   0  0  0  0  0  0
  -31.6387  -15.1628   20.1394 O   0  0  0  0  0  0
  -21.6667   -6.8874   21.4227 O   0  0  0  0  0  0
  -22.3472  -14.5564   20.6725 O   0  0  0  0  0  0
  -24.6354  -31.8456   23.1846 C   0  0  0  0  0  0
  -25.9204  -32.4699   23.8190 C   0  0  1  0  0  0
  -27.1745  -27.1383   20.1354 C   0  0  0  0  0  0
  -25.5917  -33.8466   24.2107 N   0  0  0  0  0  0
  -23.4354  -30.4723   21.5416 C   0  0  2  0  0  0
  -24.8622  -28.9068   20.1094 C   0  0  0  0  0  0
  -22.7546  -29.4580   22.4845 C   0  0  0  0  0  0
  -18.0309  -28.1501   22.8438 C   0  0  0  0  0  0
  -24.1571  -36.7301   23.2577 C   0  0  0  0  0  0
  -25.9795  -30.7327   21.3858 C   0  0  0  0  0  0
  -26.0410  -29.3425   20.7260 C   0  0  0  0  0  0
  -27.1911  -28.4716   20.7270 C   0  0  0  0  0  0
  -25.9786  -26.8115   19.4544 C   0  0  0  0  0  0
  -24.8503  -27.6708   19.4426 C   0  0  0  0  0  0
  -23.6400  -29.7990   20.1645 C   0  0  0  0  0  0
  -25.4203  -36.2982   24.0175 C   0  0  1  0  0  0
  -20.5912  -28.3773   23.1272 C   0  0  2  0  0  0
  -20.6837  -26.9489   22.5460 C   0  0  0  0  0  0
  -19.5844  -26.6431   21.5249 C   0  0  0  0  0  0
  -18.2008  -26.8043   22.1576 C   0  0  0  0  0  0
  -19.1545  -28.8891   23.2841 C   0  0  0  0  0  0
  -18.9463  -30.1509   23.8825 C   0  0  0  0  0  0
  -17.6461  -30.6603   24.0581 C   0  0  0  0  0  0
  -25.9072  -34.9386   23.4900 C   0  0  0  0  0  0
  -16.5336  -29.9133   23.6442 C   0  0  0  0  0  0
  -16.7283  -28.6624   23.0314 C   0  0  0  0  0  0
  -26.4578  -31.6535   25.0586 C   0  0  0  0  0  0
  -25.3720  -31.3709   26.1191 C   0  0  0  0  0  0
  -27.0389  -30.2876   24.6194 C   0  0  0  0  0  0
  -27.6114  -32.4226   25.7425 C   0  0  0  0  0  0
  -27.5600  -37.1770   24.8380 C   0  0  0  0  0  0
  -21.4203  -29.3095   22.3655 N   0  0  0  0  0  0
  -26.4349  -37.3691   23.9312 N   0  0  0  0  0  0
  -24.7046  -31.0329   22.0939 N   0  0  0  0  0  0
  -23.4228  -28.8076   23.2903 O   0  0  0  0  0  0
  -28.2371  -26.1537   20.1564 O   0  0  0  0  0  0
  -26.5663  -34.8875   22.4513 O   0  0  0  0  0  0
  -23.5482  -32.1250   23.7157 O   0  0  0  0  0  0
  -29.2828  -23.2999   18.8393 C   0  0  0  0  0  0
  -29.4790  -22.1095   18.0988 C   0  0  0  0  0  0
  -28.5073  -21.9122   20.6568 C   0  0  0  0  0  0
  -28.6224  -23.2846   20.0898 C   0  0  0  0  0  0
  -28.8285  -20.9191   18.5071 C   0  0  0  0  0  0
  -28.7457  -20.6408   19.9082 C   0  0  0  0  0  0
  -27.7615  -19.1921   16.8777 C   0  0  0  0  0  0
  -27.1732  -21.6824   16.6378 C   0  0  0  0  0  0
  -28.5968  -19.0564   20.4189 C   0  0  0  0  0  0
  -28.0007  -24.7042   20.6800 C   0  0  0  0  0  0
  -29.7859  -17.8150   20.3770 C   0  0  0  0  0  0
  -27.6286  -20.5380   17.5954 C   0  0  0  0  0  0
  -29.5877  -16.2196   20.5559 N   0  0  0  0  0  0
  -31.4807  -12.8870   19.2526 H   0  0  0  0  0  0
  -30.5151  -11.7390   20.0978 H   0  0  0  0  0  0
  -29.8876  -11.7623   17.6412 H   0  0  0  0  0  0
  -29.6140  -13.4839   17.7215 H   0  0  0  0  0  0
  -27.9755  -11.2896   19.0187 H   0  0  0  0  0  0
  -27.4158  -12.4639   17.8514 H   0  0  0  0  0  0
  -27.5881  -14.2619   19.4274 H   0  0  0  0  0  0
  -28.7805  -12.3287   21.4840 H   0  0  0  0  0  0
  -28.3582  -13.9999   21.7856 H   0  0  0  0  0  0
  -25.2751   -9.5751   22.4809 H   0  0  0  0  0  0
  -24.0030   -7.4671   22.7490 H   0  0  0  0  0  0
  -21.0873   -8.8822   19.8952 H   0  0  0  0  0  0
  -22.3711  -10.9733   19.6221 H   0  0  0  0  0  0
  -21.2001   -7.6163   23.9710 H   0  0  0  0  0  0
  -21.1462   -6.0533   25.9066 H   0  0  0  0  0  0
  -22.0601   -2.7623   23.2827 H   0  0  0  0  0  0
  -22.3992  -11.9910   22.4803 H   0  0  0  0  0  0
  -21.0931  -13.1278   22.2620 H   0  0  0  0  0  0
  -24.6586  -15.8662   20.5299 H   0  0  0  0  0  0
  -26.2478  -15.6130   20.0159 H   0  0  0  0  0  0
  -26.7176  -32.5520   23.0875 H   0  0  0  0  0  0
  -25.0083  -33.9614   25.0234 H   0  0  0  0  0  0
  -22.7320  -31.2916   21.3978 H   0  0  0  0  0  0
  -23.3771  -35.9684   23.3201 H   0  0  0  0  0  0
  -24.3540  -36.9011   22.1977 H   0  0  0  0  0  0
  -23.7486  -37.6488   23.6749 H   0  0  0  0  0  0
  -26.1055  -31.4888   20.6085 H   0  0  0  0  0  0
  -26.8614  -30.7773   22.0246 H   0  0  0  0  0  0
  -28.1137  -28.7906   21.1906 H   0  0  0  0  0  0
  -25.8901  -25.8626   18.9429 H   0  0  0  0  0  0
  -23.9567  -27.3975   18.9050 H   0  0  0  0  0  0
  -23.6973  -30.5533   19.3770 H   0  0  0  0  0  0
  -22.7651  -29.1943   19.9233 H   0  0  0  0  0  0
  -25.1492  -36.1667   25.0636 H   0  0  0  0  0  0
  -20.9869  -28.3419   24.1398 H   0  0  0  0  0  0
  -20.5945  -26.2305   23.3640 H   0  0  0  0  0  0
  -21.6732  -26.7766   22.1130 H   0  0  0  0  0  0
  -19.7122  -25.6364   21.1279 H   0  0  0  0  0  0
  -19.6896  -27.3196   20.6758 H   0  0  0  0  0  0
  -17.4347  -26.6674   21.3912 H   0  0  0  0  0  0
  -18.0444  -26.0254   22.9019 H   0  0  0  0  0  0
  -19.7875  -30.7427   24.2090 H   0  0  0  0  0  0
  -17.4995  -31.6295   24.5231 H   0  0  0  0  0  0
  -15.5348  -30.2994   23.7865 H   0  0  0  0  0  0
  -15.8656  -28.0974   22.7019 H   0  0  0  0  0  0
  -24.5991  -30.6937   25.7487 H   0  0  0  0  0  0
  -24.8816  -32.2880   26.4428 H   0  0  0  0  0  0
  -25.7892  -30.8983   27.0093 H   0  0  0  0  0  0
  -26.2988  -29.6538   24.1251 H   0  0  0  0  0  0
  -27.3900  -29.7186   25.4831 H   0  0  0  0  0  0
  -27.8957  -30.3899   23.9538 H   0  0  0  0  0  0
  -27.2722  -33.3562   26.1949 H   0  0  0  0  0  0
  -28.4095  -32.6653   25.0392 H   0  0  0  0  0  0
  -28.0664  -31.8356   26.5405 H   0  0  0  0  0  0
  -28.2557  -38.0135   24.7491 H   0  0  0  0  0  0
  -28.1175  -36.2609   24.6253 H   0  0  0  0  0  0
  -27.2188  -37.1476   25.8737 H   0  0  0  0  0  0
  -20.9360  -29.8452   21.6559 H   0  0  0  0  0  0
  -26.0144  -38.2699   24.1358 H   0  0  0  0  0  0
  -29.4902  -24.2263   18.3361 H   0  0  0  0  0  0
  -29.7843  -22.2309   17.0622 H   0  0  0  0  0  0
  -28.1236  -21.8076   21.6647 H   0  0  0  0  0  0
  -27.7215  -18.3876   17.5913 H   0  0  0  0  0  0
  -28.6536  -19.0942   16.2713 H   0  0  0  0  0  0
  -26.9091  -19.0624   16.2170 H   0  0  0  0  0  0
  -26.9429  -22.5948   17.2148 H   0  0  0  0  0  0
  -26.2939  -21.4273   16.0434 H   0  0  0  0  0  0
  -27.9181  -21.9668   15.8903 H   0  0  0  0  0  0
  -27.7007  -18.6931   19.9033 H   0  0  0  0  0  0
  -28.2627  -19.1512   21.4614 H   0  0  0  0  0  0
  -28.3100  -24.7467   21.7280 H   0  0  0  0  0  0
  -26.9251  -24.5203   20.7031 H   0  0  0  0  0  0
  -30.4688  -18.0623   21.2004 H   0  0  0  0  0  0
  -30.3754  -17.9465   19.4743 H   0  0  0  0  0  0
  -26.7750  -20.4430   18.2841 H   0  0  0  0  0  0
  -28.6556  -15.9605   20.8405 H   0  0  0  0  0  0
  1 25  1  0  0  0
  1 30  2  0  0  0
  1 83  1  0  0  0
  2  3  1  0  0  0
  2 25  1  0  0  0
  2 84  1  0  0  0
  2 85  1  0  0  0
  3  4  1  0  0  0
  3 86  1  0  0  0
  3 87  1  0  0  0
  4  5  1  0  0  0
  4 88  1  0  0  0
  4 89  1  0  0  0
  5  6  1  0  0  0
  5 26  1  0  0  0
  5 90  1  0  0  0
  6 25  1  0  0  0
  6 91  1  0  0  0
  6 92  1  0  0  0
  7  8  2  0  0  0
  7 26  1  0  0  0
  7 29  1  0  0  0
  8  9  1  0  0  0
  8 22  1  0  0  0
  9 10  1  0  0  0
  9 27  2  0  0  0
 10 11  2  0  0  0
 10 15  1  0  0  0
 11 12  1  0  0  0
 11 93  1  0  0  0
 12 13  2  0  0  0
 12 94  1  0  0  0
 13 14  1  0  0  0
 13 31  1  0  0  0
 14 15  2  0  0  0
 14 95  1  0  0  0
 15 96  1  0  0  0
 16 17  2  0  0  0
 16 21  1  0  0  0
 16 31  1  0  0  0
 17 18  1  0  0  0
 17 97  1  0  0  0
 18 19  2  0  0  0
 18 98  1  0  0  0
 19 20  1  0  0  0
 19 24  1  0  0  0
 20 21  2  0  0  0
 20 99  1  0  0  0
 21 23  1  0  0  0
 22 28  1  0  0  0
 22 32  2  0  0  0
 26 27  1  0  0  0
 28100  1  0  0  0
 28101  1  0  0  0
 29102  1  0  0  0
 29103  1  0  0  0
 33 34  1  0  0  0
 33 66  1  0  0  0
 33 70  2  0  0  0
 34 36  1  0  0  0
 34 59  1  0  0  0
 34104  1  0  0  0
 35 44  2  0  0  0
 35 45  1  0  0  0
 35 68  1  0  0  0
 36 56  1  0  0  0
 36105  1  0  0  0
 37 39  1  0  0  0
 37 47  1  0  0  0
 37 66  1  0  0  0
 37106  1  0  0  0
 38 43  2  0  0  0
 38 46  1  0  0  0
 38 47  1  0  0  0
 39 64  1  0  0  0
 39 67  2  0  0  0
 40 52  1  0  0  0
 40 53  2  0  0  0
 40 58  1  0  0  0
 41107  1  0  0  0
 41108  1  0  0  0
 41109  1  0  0  0
 41 48  1  0  0  0
 42 43  1  0  0  0
 42 66  1  0  0  0
 42110  1  0  0  0
 42111  1  0  0  0
 43 44  1  0  0  0
 44112  1  0  0  0
 45 46  2  0  0  0
 45113  1  0  0  0
 46114  1  0  0  0
 47115  1  0  0  0
 47116  1  0  0  0
 48 56  1  0  0  0
 48 65  1  0  0  0
 48117  1  0  0  0
 49 50  1  0  0  0
 49 53  1  0  0  0
 49 64  1  0  0  0
 49118  1  0  0  0
 50 51  1  0  0  0
 50119  1  0  0  0
 50120  1  0  0  0
 51 52  1  0  0  0
 51121  1  0  0  0
 51122  1  0  0  0
 52123  1  0  0  0
 52124  1  0  0  0
 53 54  1  0  0  0
 54 55  2  0  0  0
 54125  1  0  0  0
 55 57  1  0  0  0
 55126  1  0  0  0
 56 69  2  0  0  0
 57 58  2  0  0  0
 57127  1  0  0  0
 58128  1  0  0  0
 59 60  1  0  0  0
 59 61  1  0  0  0
 59 62  1  0  0  0
 60129  1  0  0  0
 60130  1  0  0  0
 60131  1  0  0  0
 61132  1  0  0  0
 61133  1  0  0  0
 61134  1  0  0  0
 62135  1  0  0  0
 62136  1  0  0  0
 62137  1  0  0  0
 63 65  1  0  0  0
 63138  1  0  0  0
 63139  1  0  0  0
 63140  1  0  0  0
 64141  1  0  0  0
 65142  1  0  0  0
 68 80  1  0  0  0
 71 72  2  0  0  0
 71 74  1  0  0  0
 71143  1  0  0  0
 72 75  1  0  0  0
 72144  1  0  0  0
 73 74  2  0  0  0
 73 76  1  0  0  0
 73145  1  0  0  0
 74 80  1  0  0  0
 75 76  2  0  0  0
 75 82  1  0  0  0
 76 79  1  0  0  0
 77146  1  0  0  0
 77147  1  0  0  0
 77148  1  0  0  0
 77 82  1  0  0  0
 78 82  1  0  0  0
 78149  1  0  0  0
 78150  1  0  0  0
 78151  1  0  0  0
 79 81  1  0  0  0
 79152  1  0  0  0
 79153  1  0  0  0
 80154  1  0  0  0
 80155  1  0  0  0
 81 83  1  0  0  0
 81156  1  0  0  0
 81157  1  0  0  0
 82158  1  0  0  0
 83159  1  0  0  0
M  ISO  4   1 100  68 101  80 101  83 100
M  END
> <chiral flag>
0

> <version>
0

> <s_m_source_file>
/data/baiqing/PycharmProjects/Reinvent-master-3.2/result/LINK_invent/BTK/process_docking_weight1_custom_sum_contain_oxygen_bond_distance_aromatic_linkinvent_7_9_3/rearranged_h_0095.sdf

> <i_m_source_file_index>
74

> <r_mmod_Potential_Energy-OPLS-2005>
778.490112304688

> <r_mmod_Stretch_Energy-OPLS-2005>
302.075836181641

> <r_mmod_Bend_Energy-OPLS-2005>
274.248382568359

> <r_mmod_Torsional_Energy-OPLS-2005>
389.190216064453

> <r_mmod_Improper_Torsional_Energy-OPLS-2005>
19.4874534606934

> <r_mmod_Van_der_Waal_Energy-OPLS-2005>
136.719131469727

> <r_mmod_Electrostatic_Energy-OPLS-2005>
-380.882629394531

> <r_mmod_Solvation_Energy-OPLS-2005>
-206.285385131836

> <b_mmod_Minimization_Converged-OPLS-2005>
0

> <r_mmod_RMS_Derivative-OPLS-2005>
16.66477394104

$$$$
74
                    3D
 Structure written by MMmdl.
172180  0  0  1  0            999 V2000
  -30.8093  -14.6234   20.3962 C   0  0  0  0  0  0
  -30.3839  -12.3916   19.4553 C   0  0  0  0  0  0
  -29.4793  -12.4374   18.2126 C   0  0  0  0  0  0
  -28.0119  -12.2775   18.6418 C   0  0  0  0  0  0
  -27.6181  -13.2233   19.8051 C   0  0  2  0  0  0
  -28.6789  -13.2818   20.9311 C   0  0  0  0  0  0
  -25.2345  -13.7979   20.5717 C   0  0  0  0  0  0
  -24.1684  -13.0262   20.9288 C   0  0  0  0  0  0
  -24.6336  -11.6791   20.8794 C   0  0  0  0  0  0
  -23.9032  -10.4206   21.0413 C   0  0  0  0  0  0
  -24.3594   -9.4135   21.9197 C   0  0  0  0  0  0
  -23.6275   -8.2172   22.0763 C   0  0  0  0  0  0
  -22.4255   -8.0231   21.3536 C   0  0  0  0  0  0
  -21.9869   -9.0194   20.4628 C   0  0  0  0  0  0
  -22.7201  -10.2069   20.3045 C   0  0  0  0  0  0
  -21.6828   -6.0711   22.5275 C   0  0  0  0  0  0
  -21.3991   -6.5623   23.8209 C   0  0  0  0  0  0
  -21.3669   -5.6779   24.9174 C   0  0  0  0  0  0
  -21.6062   -4.3044   24.7221 C   0  0  0  0  0  0
  -21.8822   -3.8129   23.4345 C   0  0  0  0  0  0
  -21.9183   -4.6943   22.3398 C   0  0  0  0  0  0
  -22.7719  -13.5090   21.1971 C   0  0  0  0  0  0
  -22.1660   -4.2130   21.0977 F   0  0  0  0  0  0
  -21.5647   -3.4536   25.7742 F   0  0  0  0  0  0
  -29.9863  -13.5273   20.3175 N   0  0  0  0  0  0
  -26.2824  -12.9291   20.3171 N   0  0  0  0  0  0
  -25.9267  -11.6453   20.5758 N   0  0  0  0  0  0
  -22.0370  -12.8074   22.0516 N   0  0  0  0  0  0
  -25.3726  -15.1644   20.4207 N   0  0  0  0  0  0
  -32.0182  -14.4145   20.3811 O   0  0  0  0  0  0
  -21.6619   -6.8828   21.4232 O   0  0  0  0  0  0
  -22.3420  -14.5428   20.6841 O   0  0  0  0  0  0
  -24.6175  -31.8648   23.2090 C   0  0  0  0  0  0
  -25.9063  -32.4794   23.8379 C   0  0  1  0  0  0
  -27.2178  -27.3942   20.1259 C   0  0  0  0  0  0
  -25.5921  -33.8591   24.2318 N   0  0  0  0  0  0
  -23.4070  -30.4879   21.5490 C   0  0  2  0  0  0
  -24.8542  -28.9569   20.1038 C   0  0  0  0  0  0
  -22.7468  -29.4635   22.5005 C   0  0  0  0  0  0
  -18.0278  -28.1412   22.8490 C   0  0  0  0  0  0
  -24.1484  -36.7308   23.2641 C   0  0  0  0  0  0
  -25.9384  -30.8214   21.3662 C   0  0  0  0  0  0
  -26.0154  -29.4555   20.7105 C   0  0  0  0  0  0
  -27.2048  -28.6841   20.7141 C   0  0  0  0  0  0
  -26.0475  -26.9292   19.4882 C   0  0  0  0  0  0
  -24.8687  -27.6966   19.4828 C   0  0  0  0  0  0
  -23.6141  -29.8212   20.1623 C   0  0  0  0  0  0
  -25.4104  -36.3091   24.0335 C   0  0  1  0  0  0
  -20.5872  -28.3694   23.1308 C   0  0  2  0  0  0
  -20.6756  -26.9431   22.5362 C   0  0  0  0  0  0
  -19.5711  -26.6411   21.5174 C   0  0  0  0  0  0
  -18.1893  -26.7961   22.1584 C   0  0  0  0  0  0
  -19.1537  -28.8874   23.2864 C   0  0  0  0  0  0
  -18.9496  -30.1517   23.8839 C   0  0  0  0  0  0
  -17.6495  -30.6629   24.0541 C   0  0  0  0  0  0
  -25.9043  -34.9465   23.5125 C   0  0  0  0  0  0
  -16.5368  -29.9125   23.6364 C   0  0  0  0  0  0
  -16.7273  -28.6526   23.0405 C   0  0  0  0  0  0
  -26.4485  -31.6582   25.0718 C   0  0  0  0  0  0
  -25.3755  -31.3703   26.1470 C   0  0  0  0  0  0
  -27.0332  -30.3030   24.6111 C   0  0  0  0  0  0
  -27.6047  -32.4311   25.7490 C   0  0  0  0  0  0
  -27.5577  -37.1805   24.8475 C   0  0  0  0  0  0
  -21.4175  -29.3128   22.3842 N   0  0  0  0  0  0
  -26.4285  -37.3780   23.9410 N   0  0  0  0  0  0
  -24.6726  -31.0735   22.0986 N   0  0  0  0  0  0
  -23.4256  -28.8103   23.2970 O   0  0  0  0  0  0
  -28.3136  -26.5511   20.2027 O   0  0  0  0  0  0
  -26.5591  -34.8928   22.4689 O   0  0  0  0  0  0
  -23.5368  -32.1397   23.7487 O   0  0  0  0  0  0
  -28.1170  -17.0017   20.3564 C   0  0  0  0  0  0
  -29.7657  -18.4746   20.6554 C   0  0  0  0  0  0
  -27.5168  -18.2389   20.4543 C   0  0  0  0  0  0
  -28.5830  -19.1662   20.6465 C   0  0  0  0  0  0
  -25.6439  -19.6622   19.3893 C   0  0  0  0  0  0
  -25.4178  -18.7355   21.7524 C   0  0  0  0  0  0
  -29.1386  -20.8886   23.0179 C   0  0  0  0  0  0
  -28.7919  -24.0522   20.7145 C   0  0  0  0  0  0
  -28.3572  -22.8876   21.6688 C   0  0  0  0  0  0
  -30.9457  -16.4089   18.4986 C   0  0  0  0  0  0
  -28.0747  -25.4009   21.0626 C   0  0  0  0  0  0
  -26.0221  -18.5244   20.3579 C   0  0  0  0  0  0
  -30.5411  -16.1433   19.9796 C   0  0  1  0  0  0
  -29.0796  -21.4893   21.5981 C   0  0  2  0  0  0
  -29.4935  -17.1191   20.4055 N   0  0  0  0  0  0
  -28.3893  -20.5684   20.6870 N   0  0  0  0  0  0
  -29.8057  -16.5601   17.5696 N   0  3  0  0  0  0
  -31.4263  -12.4270   19.1385 H   0  0  0  0  0  0
  -30.2695  -11.4459   19.9888 H   0  0  0  0  0  0
  -29.7526  -11.6379   17.5228 H   0  0  0  0  0  0
  -29.6193  -13.3697   17.6677 H   0  0  0  0  0  0
  -27.8766  -11.2378   18.9468 H   0  0  0  0  0  0
  -27.3483  -12.4317   17.7904 H   0  0  0  0  0  0
  -27.5700  -14.1984   19.3311 H   0  0  0  0  0  0
  -28.6979  -12.3507   21.5005 H   0  0  0  0  0  0
  -28.4409  -14.0784   21.6379 H   0  0  0  0  0  0
  -25.2739   -9.5633   22.4765 H   0  0  0  0  0  0
  -24.0008   -7.4550   22.7460 H   0  0  0  0  0  0
  -21.0813   -8.8670   19.8915 H   0  0  0  0  0  0
  -22.3651  -10.9604   19.6146 H   0  0  0  0  0  0
  -21.1969   -7.6130   23.9687 H   0  0  0  0  0  0
  -21.1506   -6.0526   25.9072 H   0  0  0  0  0  0
  -22.0595   -2.7591   23.2847 H   0  0  0  0  0  0
  -22.4003  -11.9727   22.4868 H   0  0  0  0  0  0
  -21.0968  -13.1025   22.2731 H   0  0  0  0  0  0
  -24.6061  -15.7953   20.6214 H   0  0  0  0  0  0
  -26.2153  -15.6435   20.1480 H   0  0  0  0  0  0
  -26.7117  -32.5504   23.1122 H   0  0  0  0  0  0
  -25.0076  -33.9735   25.0462 H   0  0  0  0  0  0
  -22.6945  -31.3036   21.4124 H   0  0  0  0  0  0
  -23.3731  -35.9656   23.3306 H   0  0  0  0  0  0
  -24.3590  -36.8911   22.2058 H   0  0  0  0  0  0
  -23.7253  -37.6522   23.6655 H   0  0  0  0  0  0
  -26.0565  -31.5878   20.5992 H   0  0  0  0  0  0
  -26.8251  -30.8736   21.9863 H   0  0  0  0  0  0
  -28.0970  -29.0561   21.1978 H   0  0  0  0  0  0
  -26.0414  -25.9529   19.0221 H   0  0  0  0  0  0
  -23.9788  -27.3028   19.0121 H   0  0  0  0  0  0
  -22.7363  -29.2428   19.8655 H   0  0  0  0  0  0
  -23.7205  -30.5974   19.4049 H   0  0  0  0  0  0
  -25.1276  -36.1942   25.0819 H   0  0  0  0  0  0
  -20.9952  -28.3213   24.1418 H   0  0  0  0  0  0
  -20.5639  -26.2310   23.3573 H   0  0  0  0  0  0
  -21.6626  -26.7543   22.1077 H   0  0  0  0  0  0
  -19.6898  -25.6338   21.1179 H   0  0  0  0  0  0
  -19.6620  -27.3267   20.6734 H   0  0  0  0  0  0
  -17.4179  -26.6780   21.3956 H   0  0  0  0  0  0
  -18.0227  -26.0025   22.8907 H   0  0  0  0  0  0
  -19.8024  -30.7327   24.2127 H   0  0  0  0  0  0
  -17.5066  -31.6342   24.5105 H   0  0  0  0  0  0
  -15.5361  -30.3025   23.7674 H   0  0  0  0  0  0
  -15.8673  -28.0830   22.7123 H   0  0  0  0  0  0
  -24.5916  -30.7053   25.7827 H   0  0  0  0  0  0
  -24.8954  -32.2865   26.4925 H   0  0  0  0  0  0
  -25.8105  -30.8874   27.0228 H   0  0  0  0  0  0
  -26.2890  -29.6772   24.1165 H   0  0  0  0  0  0
  -27.4117  -29.7283   25.4573 H   0  0  0  0  0  0
  -27.8718  -30.4371   23.9276 H   0  0  0  0  0  0
  -27.2655  -33.3601   26.2096 H   0  0  0  0  0  0
  -28.3854  -32.6879   25.0316 H   0  0  0  0  0  0
  -28.0720  -31.8410   26.5384 H   0  0  0  0  0  0
  -28.2598  -38.0094   24.7496 H   0  0  0  0  0  0
  -28.1064  -36.2628   24.6314 H   0  0  0  0  0  0
  -27.2313  -37.1473   25.8883 H   0  0  0  0  0  0
  -20.9321  -29.9199   21.7380 H   0  0  0  0  0  0
  -26.0168  -38.2855   24.1387 H   0  0  0  0  0  0
  -27.6952  -16.0397   20.1734 H   0  0  0  0  0  0
  -30.7831  -18.8422   20.7179 H   0  0  0  0  0  0
  -26.0612  -19.4903   18.3943 H   0  0  0  0  0  0
  -25.9762  -20.6398   19.7325 H   0  0  0  0  0  0
  -24.5618  -19.7239   19.2762 H   0  0  0  0  0  0
  -25.8362  -19.6178   22.2402 H   0  0  0  0  0  0
  -25.6166  -17.8756   22.3926 H   0  0  0  0  0  0
  -24.3371  -18.8614   21.6994 H   0  0  0  0  0  0
  -29.6973  -19.9537   23.0423 H   0  0  0  0  0  0
  -28.1389  -20.6904   23.4106 H   0  0  0  0  0  0
  -29.6377  -21.5600   23.7161 H   0  0  0  0  0  0
  -28.5688  -23.7797   19.6838 H   0  0  0  0  0  0
  -29.8698  -24.1943   20.7770 H   0  0  0  0  0  0
  -27.2800  -22.7374   21.5783 H   0  0  0  0  0  0
  -28.4864  -23.2746   22.6808 H   0  0  0  0  0  0
  -31.6175  -15.6399   18.1143 H   0  0  0  0  0  0
  -31.5193  -17.3356   18.4580 H   0  0  0  0  0  0
  -28.3577  -25.6998   22.0731 H   0  0  0  0  0  0
  -27.0071  -25.1811   21.1297 H   0  0  0  0  0  0
  -25.5618  -17.6402   19.9261 H   0  0  0  0  0  0
  -31.3959  -16.5665   20.5124 H   0  0  0  0  0  0
  -30.1011  -21.6306   21.2411 H   0  0  0  0  0  0
  -27.4220  -20.8270   20.5222 H   0  0  0  0  0  0
  -30.1428  -16.8696   16.6745 H   0  0  0  0  0  0
  -29.1674  -17.2581   17.9137 H   0  0  0  0  0  0
  -29.3140  -15.6985   17.4282 H   0  0  0  0  0  0
  1 25  1  0  0  0
  1 30  2  0  0  0
  1 83  1  0  0  0
  2  3  1  0  0  0
  2 25  1  0  0  0
  2 88  1  0  0  0
  2 89  1  0  0  0
  3  4  1  0  0  0
  3 90  1  0  0  0
  3 91  1  0  0  0
  4  5  1  0  0  0
  4 92  1  0  0  0
  4 93  1  0  0  0
  5  6  1  0  0  0
  5 26  1  0  0  0
  5 94  1  0  0  0
  6 25  1  0  0  0
  6 95  1  0  0  0
  6 96  1  0  0  0
  7  8  2  0  0  0
  7 26  1  0  0  0
  7 29  1  0  0  0
  8  9  1  0  0  0
  8 22  1  0  0  0
  9 10  1  0  0  0
  9 27  2  0  0  0
 10 11  2  0  0  0
 10 15  1  0  0  0
 11 12  1  0  0  0
 11 97  1  0  0  0
 12 13  2  0  0  0
 12 98  1  0  0  0
 13 14  1  0  0  0
 13 31  1  0  0  0
 14 15  2  0  0  0
 14 99  1  0  0  0
 15100  1  0  0  0
 16 17  2  0  0  0
 16 21  1  0  0  0
 16 31  1  0  0  0
 17 18  1  0  0  0
 17101  1  0  0  0
 18 19  2  0  0  0
 18102  1  0  0  0
 19 20  1  0  0  0
 19 24  1  0  0  0
 20 21  2  0  0  0
 20103  1  0  0  0
 21 23  1  0  0  0
 22 28  1  0  0  0
 22 32  2  0  0  0
 26 27  1  0  0  0
 28104  1  0  0  0
 28105  1  0  0  0
 29106  1  0  0  0
 29107  1  0  0  0
 33 34  1  0  0  0
 33 66  1  0  0  0
 33 70  2  0  0  0
 34 36  1  0  0  0
 34 59  1  0  0  0
 34108  1  0  0  0
 35 44  2  0  0  0
 35 45  1  0  0  0
 35 68  1  0  0  0
 36 56  1  0  0  0
 36109  1  0  0  0
 37 39  1  0  0  0
 37 47  1  0  0  0
 37 66  1  0  0  0
 37110  1  0  0  0
 38 43  2  0  0  0
 38 46  1  0  0  0
 38 47  1  0  0  0
 39 64  1  0  0  0
 39 67  2  0  0  0
 40 52  1  0  0  0
 40 53  2  0  0  0
 40 58  1  0  0  0
 41111  1  0  0  0
 41112  1  0  0  0
 41113  1  0  0  0
 41 48  1  0  0  0
 42 43  1  0  0  0
 42 66  1  0  0  0
 42114  1  0  0  0
 42115  1  0  0  0
 43 44  1  0  0  0
 44116  1  0  0  0
 45 46  2  0  0  0
 45117  1  0  0  0
 46118  1  0  0  0
 47119  1  0  0  0
 47120  1  0  0  0
 48 56  1  0  0  0
 48 65  1  0  0  0
 48121  1  0  0  0
 49 50  1  0  0  0
 49 53  1  0  0  0
 49 64  1  0  0  0
 49122  1  0  0  0
 50 51  1  0  0  0
 50123  1  0  0  0
 50124  1  0  0  0
 51 52  1  0  0  0
 51125  1  0  0  0
 51126  1  0  0  0
 52127  1  0  0  0
 52128  1  0  0  0
 53 54  1  0  0  0
 54 55  2  0  0  0
 54129  1  0  0  0
 55 57  1  0  0  0
 55130  1  0  0  0
 56 69  2  0  0  0
 57 58  2  0  0  0
 57131  1  0  0  0
 58132  1  0  0  0
 59 60  1  0  0  0
 59 61  1  0  0  0
 59 62  1  0  0  0
 60133  1  0  0  0
 60134  1  0  0  0
 60135  1  0  0  0
 61136  1  0  0  0
 61137  1  0  0  0
 61138  1  0  0  0
 62139  1  0  0  0
 62140  1  0  0  0
 62141  1  0  0  0
 63 65  1  0  0  0
 63142  1  0  0  0
 63143  1  0  0  0
 63144  1  0  0  0
 64145  1  0  0  0
 65146  1  0  0  0
 68 81  1  0  0  0
 71 73  2  0  0  0
 71 85  1  0  0  0
 71147  1  0  0  0
 72 74  2  0  0  0
 72 85  1  0  0  0
 72148  1  0  0  0
 73 74  1  0  0  0
 73 82  1  0  0  0
 74 86  1  0  0  0
 75149  1  0  0  0
 75150  1  0  0  0
 75151  1  0  0  0
 75 82  1  0  0  0
 76 82  1  0  0  0
 76152  1  0  0  0
 76153  1  0  0  0
 76154  1  0  0  0
 77155  1  0  0  0
 77156  1  0  0  0
 77157  1  0  0  0
 77 84  1  0  0  0
 78 79  1  0  0  0
 78 81  1  0  0  0
 78158  1  0  0  0
 78159  1  0  0  0
 79 84  1  0  0  0
 79160  1  0  0  0
 79161  1  0  0  0
 80 87  1  0  0  0
 80162  1  0  0  0
 80163  1  0  0  0
 80 83  1  0  0  0
 81164  1  0  0  0
 81165  1  0  0  0
 82166  1  0  0  0
 83 85  1  0  0  0
 83167  1  0  0  0
 84 86  1  0  0  0
 84168  1  0  0  0
 86169  1  0  0  0
 87170  1  0  0  0
 87171  1  0  0  0
 87172  1  0  0  0
M  CHG  1  87   1
M  ISO  4   1 100  68 101  81 101  83 100
M  END
> <chiral flag>
0

> <version>
0

> <s_m_source_file>
/data/baiqing/PycharmProjects/Reinvent-master-3.2/result/LINK_invent/BTK/process_docking_weight1_custom_sum_contain_oxygen_bond_distance_aromatic_linkinvent_7_9_3/rearranged_h_0095.sdf

> <i_m_source_file_index>
75

> <r_mmod_Potential_Energy-OPLS-2005>
-7.8449239730835

> <r_mmod_Stretch_Energy-OPLS-2005>
57.4968528747559

> <r_mmod_Bend_Energy-OPLS-2005>
228.220489501953

> <r_mmod_Torsional_Energy-OPLS-2005>
282.742492675781

> <r_mmod_Improper_Torsional_Energy-OPLS-2005>
21.6864624023438

> <r_mmod_Van_der_Waal_Energy-OPLS-2005>
121.801528930664

> <r_mmod_Electrostatic_Energy-OPLS-2005>
-328.736602783203

> <r_mmod_Solvation_Energy-OPLS-2005>
-475.73779296875

> <b_mmod_Minimization_Converged-OPLS-2005>
0

> <r_mmod_RMS_Derivative-OPLS-2005>
4.12497520446777

$$$$
75
                    3D
 Structure written by MMmdl.
169177  0  0  1  0            999 V2000
  -30.6825  -14.5150   20.5300 C   0  0  0  0  0  0
  -30.4244  -12.3154   19.4500 C   0  0  0  0  0  0
  -29.5043  -12.4967   18.2232 C   0  0  0  0  0  0
  -28.0234  -12.3557   18.6277 C   0  0  0  0  0  0
  -27.6600  -13.2092   19.8734 C   0  0  2  0  0  0
  -28.6992  -13.0237   21.0051 C   0  0  0  0  0  0
  -25.2584  -13.8162   20.5679 C   0  0  0  0  0  0
  -24.1839  -13.0437   20.9174 C   0  0  0  0  0  0
  -24.6392  -11.6907   20.8720 C   0  0  0  0  0  0
  -23.9055  -10.4292   21.0395 C   0  0  0  0  0  0
  -24.3609   -9.4212   21.9174 C   0  0  0  0  0  0
  -23.6292   -8.2241   22.0740 C   0  0  0  0  0  0
  -22.4275   -8.0274   21.3532 C   0  0  0  0  0  0
  -21.9907   -9.0245   20.4630 C   0  0  0  0  0  0
  -22.7229  -10.2127   20.3046 C   0  0  0  0  0  0
  -21.6854   -6.0734   22.5278 C   0  0  0  0  0  0
  -21.4010   -6.5639   23.8212 C   0  0  0  0  0  0
  -21.3662   -5.6789   24.9175 C   0  0  0  0  0  0
  -21.6053   -4.3055   24.7224 C   0  0  0  0  0  0
  -21.8823   -3.8143   23.4346 C   0  0  0  0  0  0
  -21.9192   -4.6959   22.3403 C   0  0  0  0  0  0
  -22.7865  -13.5231   21.1843 C   0  0  0  0  0  0
  -22.1665   -4.2146   21.0980 F   0  0  0  0  0  0
  -21.5630   -3.4540   25.7741 F   0  0  0  0  0  0
  -30.0313  -13.3203   20.4544 N   0  0  0  0  0  0
  -26.3016  -12.9331   20.3345 N   0  0  0  0  0  0
  -25.9317  -11.6488   20.5752 N   0  0  0  0  0  0
  -22.0511  -12.8215   22.0399 N   0  0  0  0  0  0
  -25.4310  -15.1881   20.4102 N   0  0  0  0  0  0
  -31.8262  -14.6733   20.0957 O   0  0  0  0  0  0
  -21.6639   -6.8876   21.4239 O   0  0  0  0  0  0
  -22.3549  -14.5545   20.6707 O   0  0  0  0  0  0
  -24.6167  -31.8677   23.2090 C   0  0  0  0  0  0
  -25.9054  -32.4825   23.8394 C   0  0  1  0  0  0
  -27.2259  -27.4069   20.1175 C   0  0  0  0  0  0
  -25.5904  -33.8624   24.2327 N   0  0  0  0  0  0
  -23.4056  -30.4910   21.5491 C   0  0  2  0  0  0
  -24.8521  -28.9491   20.1176 C   0  0  0  0  0  0
  -22.7422  -29.4667   22.4981 C   0  0  0  0  0  0
  -18.0284  -28.1380   22.8513 C   0  0  0  0  0  0
  -24.1479  -36.7315   23.2643 C   0  0  0  0  0  0
  -25.9364  -30.8209   21.3692 C   0  0  0  0  0  0
  -26.0110  -29.4495   20.7270 C   0  0  0  0  0  0
  -27.2019  -28.6835   20.7293 C   0  0  0  0  0  0
  -26.0645  -26.9424   19.4701 C   0  0  0  0  0  0
  -24.8741  -27.6930   19.4866 C   0  0  0  0  0  0
  -23.6158  -29.8214   20.1648 C   0  0  0  0  0  0
  -25.4105  -36.3124   24.0347 C   0  0  1  0  0  0
  -20.5876  -28.3664   23.1316 C   0  0  2  0  0  0
  -20.6777  -26.9397   22.5416 C   0  0  0  0  0  0
  -19.5745  -26.6384   21.5225 C   0  0  0  0  0  0
  -18.1923  -26.7935   22.1635 C   0  0  0  0  0  0
  -19.1534  -28.8845   23.2909 C   0  0  0  0  0  0
  -18.9460  -30.1460   23.8904 C   0  0  0  0  0  0
  -17.6453  -30.6582   24.0578 C   0  0  0  0  0  0
  -25.9034  -34.9489   23.5141 C   0  0  0  0  0  0
  -16.5346  -29.9087   23.6327 C   0  0  0  0  0  0
  -16.7270  -28.6506   23.0348 C   0  0  0  0  0  0
  -26.4476  -31.6604   25.0729 C   0  0  0  0  0  0
  -25.3738  -31.3704   26.1472 C   0  0  0  0  0  0
  -27.0317  -30.3050   24.6121 C   0  0  0  0  0  0
  -27.6057  -32.4320   25.7482 C   0  0  0  0  0  0
  -27.5578  -37.1816   24.8475 C   0  0  0  0  0  0
  -21.4144  -29.3033   22.3718 N   0  0  0  0  0  0
  -26.4292  -37.3808   23.9416 N   0  0  0  0  0  0
  -24.6709  -31.0768   22.0992 N   0  0  0  0  0  0
  -23.4184  -28.8217   23.3033 O   0  0  0  0  0  0
  -28.3766  -26.6506   20.0595 O   0  0  0  0  0  0
  -26.5578  -34.8952   22.4691 O   0  0  0  0  0  0
  -23.5353  -32.1433   23.7471 O   0  0  0  0  0  0
  -29.4702  -23.0509   22.4982 C   0  0  0  0  0  0
  -28.9205  -21.7596   20.5408 C   0  0  0  0  0  0
  -28.8354  -22.9900   21.2416 C   0  0  0  0  0  0
  -30.1488  -21.9163   22.9847 C   0  0  0  0  0  0
  -29.6095  -20.6526   21.1034 C   0  0  0  0  0  0
  -26.5554  -23.9734   21.1584 C   0  0  0  0  0  0
  -32.4071  -21.8313   24.1346 C   0  0  0  0  0  0
  -30.3299  -20.9461   25.3206 C   0  0  0  0  0  0
  -30.2357  -19.6392   19.0245 C   0  0  0  0  0  0
  -30.0214  -16.9050   20.1979 C   0  0  0  0  0  0
  -30.0832  -18.1764   21.1079 C   0  0  0  0  0  0
  -28.5554  -25.6036   21.0430 C   0  0  0  0  0  0
  -28.0089  -24.1740   20.6866 C   0  0  1  0  0  0
  -30.8866  -21.9690   24.3184 C   0  0  0  0  0  0
  -30.2052  -20.7434   22.3080 N   0  0  0  0  0  0
  -29.9164  -15.5810   20.8581 N   0  0  0  0  0  0
  -29.7500  -19.4336   20.3919 N   0  0  0  0  0  0
  -31.4708  -12.4075   19.1538 H   0  0  0  0  0  0
  -30.3184  -11.3112   19.8646 H   0  0  0  0  0  0
  -29.7526  -11.7639   17.4537 H   0  0  0  0  0  0
  -29.6732  -13.4782   17.7766 H   0  0  0  0  0  0
  -27.8377  -11.3014   18.8345 H   0  0  0  0  0  0
  -27.3756  -12.6178   17.7900 H   0  0  0  0  0  0
  -27.6937  -14.2520   19.5560 H   0  0  0  0  0  0
  -28.6748  -11.9994   21.3820 H   0  0  0  0  0  0
  -28.4604  -13.6597   21.8588 H   0  0  0  0  0  0
  -25.2760   -9.5696   22.4738 H   0  0  0  0  0  0
  -24.0011   -7.4637   22.7459 H   0  0  0  0  0  0
  -21.0834   -8.8763   19.8935 H   0  0  0  0  0  0
  -22.3688  -10.9663   19.6150 H   0  0  0  0  0  0
  -21.2004   -7.6148   23.9718 H   0  0  0  0  0  0
  -21.1480   -6.0518   25.9080 H   0  0  0  0  0  0
  -22.0598   -2.7602   23.2847 H   0  0  0  0  0  0
  -22.4131  -11.9871   22.4776 H   0  0  0  0  0  0
  -21.1127  -13.1224   22.2614 H   0  0  0  0  0  0
  -24.6639  -15.8430   20.5168 H   0  0  0  0  0  0
  -26.2835  -15.6264   20.0846 H   0  0  0  0  0  0
  -26.7135  -32.5523   23.1162 H   0  0  0  0  0  0
  -25.0090  -33.9777   25.0499 H   0  0  0  0  0  0
  -22.6962  -31.3093   21.4106 H   0  0  0  0  0  0
  -23.3748  -35.9638   23.3324 H   0  0  0  0  0  0
  -24.3579  -36.8897   22.2053 H   0  0  0  0  0  0
  -23.7221  -37.6531   23.6629 H   0  0  0  0  0  0
  -26.0499  -31.5786   20.5929 H   0  0  0  0  0  0
  -26.8243  -30.8787   21.9874 H   0  0  0  0  0  0
  -28.0987  -29.0668   21.1942 H   0  0  0  0  0  0
  -26.0813  -25.9962   18.9475 H   0  0  0  0  0  0
  -23.9886  -27.3077   18.9972 H   0  0  0  0  0  0
  -23.7284  -30.5952   19.4046 H   0  0  0  0  0  0
  -22.7381  -29.2433   19.8688 H   0  0  0  0  0  0
  -25.1286  -36.1992   25.0840 H   0  0  0  0  0  0
  -20.9983  -28.3228   24.1430 H   0  0  0  0  0  0
  -20.5698  -26.2269   23.3603 H   0  0  0  0  0  0
  -21.6643  -26.7441   22.1198 H   0  0  0  0  0  0
  -19.6884  -25.6298   21.1238 H   0  0  0  0  0  0
  -19.6682  -27.3214   20.6772 H   0  0  0  0  0  0
  -17.4200  -26.6711   21.4023 H   0  0  0  0  0  0
  -18.0298  -26.0066   22.9017 H   0  0  0  0  0  0
  -19.7930  -30.7299   24.2246 H   0  0  0  0  0  0
  -17.4999  -31.6255   24.5184 H   0  0  0  0  0  0
  -15.5343  -30.2986   23.7645 H   0  0  0  0  0  0
  -15.8679  -28.0833   22.7034 H   0  0  0  0  0  0
  -24.5917  -30.7044   25.7809 H   0  0  0  0  0  0
  -24.8917  -32.2856   26.4918 H   0  0  0  0  0  0
  -25.8090  -30.8875   27.0230 H   0  0  0  0  0  0
  -26.2862  -29.6804   24.1186 H   0  0  0  0  0  0
  -27.4106  -29.7303   25.4586 H   0  0  0  0  0  0
  -27.8698  -30.4387   23.9275 H   0  0  0  0  0  0
  -27.2685  -33.3621   26.2071 H   0  0  0  0  0  0
  -28.3852  -32.6864   25.0286 H   0  0  0  0  0  0
  -28.0746  -31.8431   26.5378 H   0  0  0  0  0  0
  -28.2625  -38.0087   24.7519 H   0  0  0  0  0  0
  -28.1043  -36.2630   24.6301 H   0  0  0  0  0  0
  -27.2307  -37.1473   25.8881 H   0  0  0  0  0  0
  -20.9290  -29.8741   21.6936 H   0  0  0  0  0  0
  -26.0192  -38.2897   24.1390 H   0  0  0  0  0  0
  -29.4351  -23.9545   23.0908 H   0  0  0  0  0  0
  -28.4403  -21.6663   19.5757 H   0  0  0  0  0  0
  -26.1676  -23.0129   20.8169 H   0  0  0  0  0  0
  -25.8754  -24.7369   20.7965 H   0  0  0  0  0  0
  -26.4946  -23.9795   22.2475 H   0  0  0  0  0  0
  -32.7887  -22.5915   23.4523 H   0  0  0  0  0  0
  -32.6712  -20.8569   23.7228 H   0  0  0  0  0  0
  -32.9322  -21.9458   25.0829 H   0  0  0  0  0  0
  -29.2597  -21.0912   25.4701 H   0  0  0  0  0  0
  -30.8160  -21.0375   26.2914 H   0  0  0  0  0  0
  -30.4812  -19.9251   24.9690 H   0  0  0  0  0  0
  -29.4202  -19.5034   18.3147 H   0  0  0  0  0  0
  -31.0328  -18.9459   18.7607 H   0  0  0  0  0  0
  -30.6426  -20.6407   18.8741 H   0  0  0  0  0  0
  -30.8723  -16.9150   19.5153 H   0  0  0  0  0  0
  -29.1393  -16.9793   19.5610 H   0  0  0  0  0  0
  -31.0710  -18.2656   21.5632 H   0  0  0  0  0  0
  -29.3734  -18.0663   21.9300 H   0  0  0  0  0  0
  -29.6384  -25.5267   21.1389 H   0  0  0  0  0  0
  -28.2048  -25.9250   22.0251 H   0  0  0  0  0  0
  -28.0367  -24.0847   19.5999 H   0  0  0  0  0  0
  -30.7112  -22.9582   24.7465 H   0  0  0  0  0  0
  -29.0159  -15.3557   21.2553 H   0  0  0  0  0  0
  1 25  1  0  0  0
  1 30  2  0  0  0
  1 86  1  0  0  0
  2  3  1  0  0  0
  2 25  1  0  0  0
  2 88  1  0  0  0
  2 89  1  0  0  0
  3  4  1  0  0  0
  3 90  1  0  0  0
  3 91  1  0  0  0
  4  5  1  0  0  0
  4 92  1  0  0  0
  4 93  1  0  0  0
  5  6  1  0  0  0
  5 26  1  0  0  0
  5 94  1  0  0  0
  6 25  1  0  0  0
  6 95  1  0  0  0
  6 96  1  0  0  0
  7  8  2  0  0  0
  7 26  1  0  0  0
  7 29  1  0  0  0
  8  9  1  0  0  0
  8 22  1  0  0  0
  9 10  1  0  0  0
  9 27  2  0  0  0
 10 11  2  0  0  0
 10 15  1  0  0  0
 11 12  1  0  0  0
 11 97  1  0  0  0
 12 13  2  0  0  0
 12 98  1  0  0  0
 13 14  1  0  0  0
 13 31  1  0  0  0
 14 15  2  0  0  0
 14 99  1  0  0  0
 15100  1  0  0  0
 16 17  2  0  0  0
 16 21  1  0  0  0
 16 31  1  0  0  0
 17 18  1  0  0  0
 17101  1  0  0  0
 18 19  2  0  0  0
 18102  1  0  0  0
 19 20  1  0  0  0
 19 24  1  0  0  0
 20 21  2  0  0  0
 20103  1  0  0  0
 21 23  1  0  0  0
 22 28  1  0  0  0
 22 32  2  0  0  0
 26 27  1  0  0  0
 28104  1  0  0  0
 28105  1  0  0  0
 29106  1  0  0  0
 29107  1  0  0  0
 33 34  1  0  0  0
 33 66  1  0  0  0
 33 70  2  0  0  0
 34 36  1  0  0  0
 34 59  1  0  0  0
 34108  1  0  0  0
 35 44  2  0  0  0
 35 45  1  0  0  0
 35 68  1  0  0  0
 36 56  1  0  0  0
 36109  1  0  0  0
 37 39  1  0  0  0
 37 47  1  0  0  0
 37 66  1  0  0  0
 37110  1  0  0  0
 38 43  2  0  0  0
 38 46  1  0  0  0
 38 47  1  0  0  0
 39 64  1  0  0  0
 39 67  2  0  0  0
 40 52  1  0  0  0
 40 53  2  0  0  0
 40 58  1  0  0  0
 41111  1  0  0  0
 41112  1  0  0  0
 41113  1  0  0  0
 41 48  1  0  0  0
 42 43  1  0  0  0
 42 66  1  0  0  0
 42114  1  0  0  0
 42115  1  0  0  0
 43 44  1  0  0  0
 44116  1  0  0  0
 45 46  2  0  0  0
 45117  1  0  0  0
 46118  1  0  0  0
 47119  1  0  0  0
 47120  1  0  0  0
 48 56  1  0  0  0
 48 65  1  0  0  0
 48121  1  0  0  0
 49 50  1  0  0  0
 49 53  1  0  0  0
 49 64  1  0  0  0
 49122  1  0  0  0
 50 51  1  0  0  0
 50123  1  0  0  0
 50124  1  0  0  0
 51 52  1  0  0  0
 51125  1  0  0  0
 51126  1  0  0  0
 52127  1  0  0  0
 52128  1  0  0  0
 53 54  1  0  0  0
 54 55  2  0  0  0
 54129  1  0  0  0
 55 57  1  0  0  0
 55130  1  0  0  0
 56 69  2  0  0  0
 57 58  2  0  0  0
 57131  1  0  0  0
 58132  1  0  0  0
 59 60  1  0  0  0
 59 61  1  0  0  0
 59 62  1  0  0  0
 60133  1  0  0  0
 60134  1  0  0  0
 60135  1  0  0  0
 61136  1  0  0  0
 61137  1  0  0  0
 61138  1  0  0  0
 62139  1  0  0  0
 62140  1  0  0  0
 62141  1  0  0  0
 63 65  1  0  0  0
 63142  1  0  0  0
 63143  1  0  0  0
 63144  1  0  0  0
 64145  1  0  0  0
 65146  1  0  0  0
 68 82  1  0  0  0
 71 73  2  0  0  0
 71 74  1  0  0  0
 71147  1  0  0  0
 72 73  1  0  0  0
 72 75  2  0  0  0
 72148  1  0  0  0
 73 83  1  0  0  0
 74 84  1  0  0  0
 74 85  2  0  0  0
 75 85  1  0  0  0
 75 87  1  0  0  0
 76149  1  0  0  0
 76150  1  0  0  0
 76151  1  0  0  0
 76 83  1  0  0  0
 77152  1  0  0  0
 77153  1  0  0  0
 77154  1  0  0  0
 77 84  1  0  0  0
 78 84  1  0  0  0
 78155  1  0  0  0
 78156  1  0  0  0
 78157  1  0  0  0
 79 87  1  0  0  0
 79158  1  0  0  0
 79159  1  0  0  0
 79160  1  0  0  0
 80 81  1  0  0  0
 80 86  1  0  0  0
 80161  1  0  0  0
 80162  1  0  0  0
 81 87  1  0  0  0
 81163  1  0  0  0
 81164  1  0  0  0
 82 83  1  0  0  0
 82165  1  0  0  0
 82166  1  0  0  0
 83167  1  0  0  0
 84168  1  0  0  0
 86169  1  0  0  0
M  ISO  4   1 100  68 101  82 101  86 100
M  END
> <chiral flag>
0

> <version>
0

> <s_m_source_file>
/data/baiqing/PycharmProjects/Reinvent-master-3.2/result/LINK_invent/BTK/process_docking_weight1_custom_sum_contain_oxygen_bond_distance_aromatic_linkinvent_7_9_3/rearranged_h_0095.sdf

> <i_m_source_file_index>
76

> <r_mmod_Potential_Energy-OPLS-2005>
-298.172515869141

> <r_mmod_Stretch_Energy-OPLS-2005>
46.7999534606934

> <r_mmod_Bend_Energy-OPLS-2005>
115.733039855957

> <r_mmod_Torsional_Energy-OPLS-2005>
233.961959838867

> <r_mmod_Improper_Torsional_Energy-OPLS-2005>
10.5770597457886

> <r_mmod_Van_der_Waal_Energy-OPLS-2005>
156.428558349609

> <r_mmod_Electrostatic_Energy-OPLS-2005>
-651.780090332031

> <r_mmod_Solvation_Energy-OPLS-2005>
-227.569458007812

> <b_mmod_Minimization_Converged-OPLS-2005>
0

> <r_mmod_RMS_Derivative-OPLS-2005>
1.59859073162079

$$$$
76
                    3D
 Structure written by MMmdl.
171179  0  0  1  0            999 V2000
  -30.7018  -14.4824   20.5998 C   0  0  0  0  0  0
  -30.4260  -12.3310   19.4136 C   0  0  0  0  0  0
  -29.4928  -12.5231   18.2020 C   0  0  0  0  0  0
  -28.0137  -12.3809   18.6132 C   0  0  0  0  0  0
  -27.6604  -13.2129   19.8748 C   0  0  2  0  0  0
  -28.7020  -12.9928   20.9933 C   0  0  0  0  0  0
  -25.2573  -13.8178   20.5680 C   0  0  0  0  0  0
  -24.1838  -13.0443   20.9171 C   0  0  0  0  0  0
  -24.6407  -11.6918   20.8739 C   0  0  0  0  0  0
  -23.9083  -10.4298   21.0405 C   0  0  0  0  0  0
  -24.3633   -9.4213   21.9182 C   0  0  0  0  0  0
  -23.6306   -8.2247   22.0759 C   0  0  0  0  0  0
  -22.4280   -8.0285   21.3548 C   0  0  0  0  0  0
  -21.9917   -9.0265   20.4653 C   0  0  0  0  0  0
  -22.7256  -10.2141   20.3057 C   0  0  0  0  0  0
  -21.6856   -6.0747   22.5285 C   0  0  0  0  0  0
  -21.4018   -6.5649   23.8218 C   0  0  0  0  0  0
  -21.3655   -5.6797   24.9176 C   0  0  0  0  0  0
  -21.6040   -4.3063   24.7226 C   0  0  0  0  0  0
  -21.8819   -3.8156   23.4347 C   0  0  0  0  0  0
  -21.9200   -4.6975   22.3403 C   0  0  0  0  0  0
  -22.7853  -13.5232   21.1828 C   0  0  0  0  0  0
  -22.1667   -4.2163   21.0983 F   0  0  0  0  0  0
  -21.5623   -3.4542   25.7739 F   0  0  0  0  0  0
  -30.0301  -13.3082   20.4402 N   0  0  0  0  0  0
  -26.3019  -12.9360   20.3360 N   0  0  0  0  0  0
  -25.9334  -11.6513   20.5763 N   0  0  0  0  0  0
  -22.0498  -12.8232   22.0397 N   0  0  0  0  0  0
  -25.4268  -15.1896   20.4092 N   0  0  0  0  0  0
  -31.8177  -14.6813   20.1095 O   0  0  0  0  0  0
  -21.6641   -6.8887   21.4243 O   0  0  0  0  0  0
  -22.3544  -14.5544   20.6690 O   0  0  0  0  0  0
  -24.6189  -31.8684   23.2089 C   0  0  0  0  0  0
  -25.9087  -32.4814   23.8375 C   0  0  1  0  0  0
  -27.2218  -27.3977   20.0826 C   0  0  0  0  0  0
  -25.5934  -33.8605   24.2316 N   0  0  0  0  0  0
  -23.4042  -30.4941   21.5523 C   0  0  2  0  0  0
  -24.8444  -28.9582   20.1160 C   0  0  0  0  0  0
  -22.7420  -29.4677   22.4990 C   0  0  0  0  0  0
  -18.0278  -28.1413   22.8506 C   0  0  0  0  0  0
  -24.1484  -36.7289   23.2631 C   0  0  0  0  0  0
  -25.9385  -30.8160   21.3713 C   0  0  0  0  0  0
  -26.0087  -29.4487   20.7179 C   0  0  0  0  0  0
  -27.1972  -28.6766   20.6992 C   0  0  0  0  0  0
  -26.0313  -26.9397   19.4712 C   0  0  0  0  0  0
  -24.8525  -27.7036   19.4895 C   0  0  0  0  0  0
  -23.6123  -29.8320   20.1659 C   0  0  0  0  0  0
  -25.4107  -36.3096   24.0331 C   0  0  1  0  0  0
  -20.5870  -28.3706   23.1315 C   0  0  2  0  0  0
  -20.6775  -26.9446   22.5416 C   0  0  0  0  0  0
  -19.5749  -26.6424   21.5221 C   0  0  0  0  0  0
  -18.1931  -26.7965   22.1636 C   0  0  0  0  0  0
  -19.1529  -28.8879   23.2911 C   0  0  0  0  0  0
  -18.9454  -30.1485   23.8924 C   0  0  0  0  0  0
  -17.6458  -30.6606   24.0594 C   0  0  0  0  0  0
  -25.9044  -34.9466   23.5113 C   0  0  0  0  0  0
  -16.5348  -29.9113   23.6351 C   0  0  0  0  0  0
  -16.7272  -28.6535   23.0366 C   0  0  0  0  0  0
  -26.4494  -31.6585   25.0701 C   0  0  0  0  0  0
  -25.3750  -31.3712   26.1444 C   0  0  0  0  0  0
  -27.0322  -30.3015   24.6103 C   0  0  0  0  0  0
  -27.6061  -32.4303   25.7474 C   0  0  0  0  0  0
  -27.5581  -37.1801   24.8470 C   0  0  0  0  0  0
  -21.4154  -29.3047   22.3705 N   0  0  0  0  0  0
  -26.4291  -37.3789   23.9418 N   0  0  0  0  0  0
  -24.6724  -31.0745   22.1016 N   0  0  0  0  0  0
  -23.4190  -28.8236   23.3055 O   0  0  0  0  0  0
  -28.4037  -26.6680   20.0437 O   0  0  0  0  0  0
  -26.5604  -34.8926   22.4675 O   0  0  0  0  0  0
  -23.5379  -32.1470   23.7461 O   0  0  0  0  0  0
  -29.1746  -24.5179   21.0101 C   0  0  0  0  0  0
  -28.4451  -25.2975   20.1284 C   0  0  0  0  0  0
  -28.0336  -23.2108   19.6737 C   0  0  0  0  0  0
  -27.3636  -22.0330   19.0476 C   0  0  0  0  0  0
  -29.2822  -24.9797   23.4725 C   0  0  0  0  0  0
  -30.7475  -26.3093   21.9132 C   0  0  0  0  0  0
  -31.6754  -19.6826   21.4445 C   0  0  0  0  0  0
  -29.8512  -19.4686   23.1556 C   0  0  0  0  0  0
  -29.3516  -20.5484   20.8962 C   0  0  0  0  0  0
  -29.7956  -18.0061   21.0711 C   0  0  0  0  0  0
  -29.4314  -22.0018   21.4831 C   0  0  0  0  0  0
  -30.5656  -16.7768   21.6589 C   0  0  0  0  0  0
  -30.0605  -24.9545   22.1500 C   0  0  0  0  0  0
  -30.1674  -19.4274   21.6435 C   0  0  0  0  0  0
  -27.7838  -24.4472   19.2517 N   0  0  0  0  0  0
  -28.8992  -23.1610   20.7163 N   0  0  0  0  0  0
  -30.0399  -15.4562   21.2559 N   0  0  0  0  0  0
  -31.4655  -12.4500   19.1024 H   0  0  0  0  0  0
  -30.3487  -11.3171   19.8082 H   0  0  0  0  0  0
  -29.7339  -11.8048   17.4176 H   0  0  0  0  0  0
  -29.6585  -13.5117   17.7710 H   0  0  0  0  0  0
  -27.8149  -11.3244   18.7970 H   0  0  0  0  0  0
  -27.3680  -12.6712   17.7832 H   0  0  0  0  0  0
  -27.7042  -14.2628   19.5831 H   0  0  0  0  0  0
  -28.6825  -11.9566   21.3328 H   0  0  0  0  0  0
  -28.4549  -13.5886   21.8727 H   0  0  0  0  0  0
  -25.2777   -9.5686   22.4760 H   0  0  0  0  0  0
  -24.0022   -7.4634   22.7474 H   0  0  0  0  0  0
  -21.0846   -8.8788   19.8956 H   0  0  0  0  0  0
  -22.3716  -10.9682   19.6170 H   0  0  0  0  0  0
  -21.2005   -7.6158   23.9723 H   0  0  0  0  0  0
  -21.1473   -6.0528   25.9082 H   0  0  0  0  0  0
  -22.0599   -2.7619   23.2843 H   0  0  0  0  0  0
  -22.4110  -11.9904   22.4805 H   0  0  0  0  0  0
  -21.1115  -13.1263   22.2595 H   0  0  0  0  0  0
  -24.6570  -15.8413   20.5143 H   0  0  0  0  0  0
  -26.2796  -15.6327   20.0920 H   0  0  0  0  0  0
  -26.7146  -32.5507   23.1119 H   0  0  0  0  0  0
  -25.0089  -33.9786   25.0465 H   0  0  0  0  0  0
  -22.6912  -31.3103   21.4183 H   0  0  0  0  0  0
  -23.3744  -35.9628   23.3308 H   0  0  0  0  0  0
  -24.3569  -36.8891   22.2041 H   0  0  0  0  0  0
  -23.7237  -37.6491   23.6647 H   0  0  0  0  0  0
  -26.0613  -31.5794   20.6021 H   0  0  0  0  0  0
  -26.8227  -30.8635   21.9957 H   0  0  0  0  0  0
  -28.0992  -29.0589   21.1554 H   0  0  0  0  0  0
  -25.9836  -25.9971   18.9516 H   0  0  0  0  0  0
  -23.9616  -27.3265   19.0076 H   0  0  0  0  0  0
  -23.7276  -30.6092   19.4098 H   0  0  0  0  0  0
  -22.7338  -29.2584   19.8656 H   0  0  0  0  0  0
  -25.1289  -36.1944   25.0825 H   0  0  0  0  0  0
  -20.9968  -28.3272   24.1441 H   0  0  0  0  0  0
  -20.5719  -26.2307   23.3595 H   0  0  0  0  0  0
  -21.6642  -26.7519   22.1196 H   0  0  0  0  0  0
  -19.6903  -25.6340   21.1255 H   0  0  0  0  0  0
  -19.6682  -27.3227   20.6743 H   0  0  0  0  0  0
  -17.4207  -26.6724   21.4033 H   0  0  0  0  0  0
  -18.0334  -26.0084   22.9003 H   0  0  0  0  0  0
  -19.7926  -30.7311   24.2276 H   0  0  0  0  0  0
  -17.5011  -31.6287   24.5200 H   0  0  0  0  0  0
  -15.5359  -30.3040   23.7642 H   0  0  0  0  0  0
  -15.8668  -28.0870   22.7072 H   0  0  0  0  0  0
  -24.5945  -30.7033   25.7790 H   0  0  0  0  0  0
  -24.8914  -32.2869   26.4849 H   0  0  0  0  0  0
  -25.8094  -30.8922   27.0223 H   0  0  0  0  0  0
  -26.2876  -29.6757   24.1171 H   0  0  0  0  0  0
  -27.4087  -29.7279   25.4579 H   0  0  0  0  0  0
  -27.8715  -30.4303   23.9263 H   0  0  0  0  0  0
  -27.2689  -33.3606   26.2055 H   0  0  0  0  0  0
  -28.3877  -32.6847   25.0305 H   0  0  0  0  0  0
  -28.0716  -31.8410   26.5387 H   0  0  0  0  0  0
  -28.2613  -38.0089   24.7529 H   0  0  0  0  0  0
  -28.1071  -36.2623   24.6289 H   0  0  0  0  0  0
  -27.2308  -37.1445   25.8880 H   0  0  0  0  0  0
  -20.9324  -29.8716   21.6873 H   0  0  0  0  0  0
  -26.0162  -38.2859   24.1433 H   0  0  0  0  0  0
  -26.5804  -22.3639   18.3655 H   0  0  0  0  0  0
  -26.8773  -21.4216   19.8054 H   0  0  0  0  0  0
  -28.0782  -21.4364   18.4819 H   0  0  0  0  0  0
  -28.4620  -25.6983   23.4304 H   0  0  0  0  0  0
  -29.9306  -25.2563   24.3042 H   0  0  0  0  0  0
  -28.8537  -24.0055   23.7042 H   0  0  0  0  0  0
  -31.2991  -26.3120   20.9724 H   0  0  0  0  0  0
  -31.4593  -26.5298   22.7096 H   0  0  0  0  0  0
  -30.0349  -27.1329   21.8862 H   0  0  0  0  0  0
  -31.9891  -20.6524   21.8301 H   0  0  0  0  0  0
  -31.9450  -19.6439   20.3889 H   0  0  0  0  0  0
  -32.2852  -18.9476   21.9684 H   0  0  0  0  0  0
  -30.1041  -20.4285   23.6044 H   0  0  0  0  0  0
  -30.4206  -18.7305   23.7185 H   0  0  0  0  0  0
  -28.7943  -19.2834   23.3466 H   0  0  0  0  0  0
  -29.6757  -20.5659   19.8561 H   0  0  0  0  0  0
  -28.3098  -20.2333   20.8903 H   0  0  0  0  0  0
  -28.7252  -17.8444   21.2073 H   0  0  0  0  0  0
  -29.9501  -18.0115   19.9907 H   0  0  0  0  0  0
  -30.4793  -22.2139   21.6712 H   0  0  0  0  0  0
  -28.9395  -22.0163   22.4543 H   0  0  0  0  0  0
  -30.5146  -16.7891   22.7453 H   0  0  0  0  0  0
  -31.6255  -16.8479   21.4136 H   0  0  0  0  0  0
  -30.8737  -24.2379   22.2587 H   0  0  0  0  0  0
  -29.1226  -15.2091   21.6002 H   0  0  0  0  0  0
  1 25  1  0  0  0
  1 30  2  0  0  0
  1 87  1  0  0  0
  2  3  1  0  0  0
  2 25  1  0  0  0
  2 88  1  0  0  0
  2 89  1  0  0  0
  3  4  1  0  0  0
  3 90  1  0  0  0
  3 91  1  0  0  0
  4  5  1  0  0  0
  4 92  1  0  0  0
  4 93  1  0  0  0
  5  6  1  0  0  0
  5 26  1  0  0  0
  5 94  1  0  0  0
  6 25  1  0  0  0
  6 95  1  0  0  0
  6 96  1  0  0  0
  7  8  2  0  0  0
  7 26  1  0  0  0
  7 29  1  0  0  0
  8  9  1  0  0  0
  8 22  1  0  0  0
  9 10  1  0  0  0
  9 27  2  0  0  0
 10 11  2  0  0  0
 10 15  1  0  0  0
 11 12  1  0  0  0
 11 97  1  0  0  0
 12 13  2  0  0  0
 12 98  1  0  0  0
 13 14  1  0  0  0
 13 31  1  0  0  0
 14 15  2  0  0  0
 14 99  1  0  0  0
 15100  1  0  0  0
 16 17  2  0  0  0
 16 21  1  0  0  0
 16 31  1  0  0  0
 17 18  1  0  0  0
 17101  1  0  0  0
 18 19  2  0  0  0
 18102  1  0  0  0
 19 20  1  0  0  0
 19 24  1  0  0  0
 20 21  2  0  0  0
 20103  1  0  0  0
 21 23  1  0  0  0
 22 28  1  0  0  0
 22 32  2  0  0  0
 26 27  1  0  0  0
 28104  1  0  0  0
 28105  1  0  0  0
 29106  1  0  0  0
 29107  1  0  0  0
 33 34  1  0  0  0
 33 66  1  0  0  0
 33 70  2  0  0  0
 34 36  1  0  0  0
 34 59  1  0  0  0
 34108  1  0  0  0
 35 44  2  0  0  0
 35 45  1  0  0  0
 35 68  1  0  0  0
 36 56  1  0  0  0
 36109  1  0  0  0
 37 39  1  0  0  0
 37 47  1  0  0  0
 37 66  1  0  0  0
 37110  1  0  0  0
 38 43  2  0  0  0
 38 46  1  0  0  0
 38 47  1  0  0  0
 39 64  1  0  0  0
 39 67  2  0  0  0
 40 52  1  0  0  0
 40 53  2  0  0  0
 40 58  1  0  0  0
 41111  1  0  0  0
 41112  1  0  0  0
 41113  1  0  0  0
 41 48  1  0  0  0
 42 43  1  0  0  0
 42 66  1  0  0  0
 42114  1  0  0  0
 42115  1  0  0  0
 43 44  1  0  0  0
 44116  1  0  0  0
 45 46  2  0  0  0
 45117  1  0  0  0
 46118  1  0  0  0
 47119  1  0  0  0
 47120  1  0  0  0
 48 56  1  0  0  0
 48 65  1  0  0  0
 48121  1  0  0  0
 49 50  1  0  0  0
 49 53  1  0  0  0
 49 64  1  0  0  0
 49122  1  0  0  0
 50 51  1  0  0  0
 50123  1  0  0  0
 50124  1  0  0  0
 51 52  1  0  0  0
 51125  1  0  0  0
 51126  1  0  0  0
 52127  1  0  0  0
 52128  1  0  0  0
 53 54  1  0  0  0
 54 55  2  0  0  0
 54129  1  0  0  0
 55 57  1  0  0  0
 55130  1  0  0  0
 56 69  2  0  0  0
 57 58  2  0  0  0
 57131  1  0  0  0
 58132  1  0  0  0
 59 60  1  0  0  0
 59 61  1  0  0  0
 59 62  1  0  0  0
 60133  1  0  0  0
 60134  1  0  0  0
 60135  1  0  0  0
 61136  1  0  0  0
 61137  1  0  0  0
 61138  1  0  0  0
 62139  1  0  0  0
 62140  1  0  0  0
 62141  1  0  0  0
 63 65  1  0  0  0
 63142  1  0  0  0
 63143  1  0  0  0
 63144  1  0  0  0
 64145  1  0  0  0
 65146  1  0  0  0
 68 72  1  0  0  0
 71 72  2  0  0  0
 71 83  1  0  0  0
 71 86  1  0  0  0
 72 85  1  0  0  0
 73 74  1  0  0  0
 73 85  2  0  0  0
 73 86  1  0  0  0
 74147  1  0  0  0
 74148  1  0  0  0
 74149  1  0  0  0
 75150  1  0  0  0
 75151  1  0  0  0
 75152  1  0  0  0
 75 83  1  0  0  0
 76 83  1  0  0  0
 76153  1  0  0  0
 76154  1  0  0  0
 76155  1  0  0  0
 77156  1  0  0  0
 77157  1  0  0  0
 77158  1  0  0  0
 77 84  1  0  0  0
 78 84  1  0  0  0
 78159  1  0  0  0
 78160  1  0  0  0
 78161  1  0  0  0
 79 81  1  0  0  0
 79 84  1  0  0  0
 79162  1  0  0  0
 79163  1  0  0  0
 80 82  1  0  0  0
 80 84  1  0  0  0
 80164  1  0  0  0
 80165  1  0  0  0
 81 86  1  0  0  0
 81166  1  0  0  0
 81167  1  0  0  0
 82 87  1  0  0  0
 82168  1  0  0  0
 82169  1  0  0  0
 83170  1  0  0  0
 87171  1  0  0  0
M  ISO  4   1 100  68 101  72 101  87 100
M  END
> <chiral flag>
0

> <version>
0

> <s_m_source_file>
/data/baiqing/PycharmProjects/Reinvent-master-3.2/result/LINK_invent/BTK/process_docking_weight1_custom_sum_contain_oxygen_bond_distance_aromatic_linkinvent_7_9_3/rearranged_h_0095.sdf

> <i_m_source_file_index>
77

> <r_mmod_Potential_Energy-OPLS-2005>
-18.2947998046875

> <r_mmod_Stretch_Energy-OPLS-2005>
49.3059577941895

> <r_mmod_Bend_Energy-OPLS-2005>
130.872894287109

> <r_mmod_Torsional_Energy-OPLS-2005>
231.029449462891

> <r_mmod_Improper_Torsional_Energy-OPLS-2005>
2.81846380233765

> <r_mmod_Van_der_Waal_Energy-OPLS-2005>
139.431564331055

> <r_mmod_Electrostatic_Energy-OPLS-2005>
-380.278350830078

> <r_mmod_Solvation_Energy-OPLS-2005>
-206.301971435547

> <b_mmod_Minimization_Converged-OPLS-2005>
0

> <r_mmod_RMS_Derivative-OPLS-2005>
2.63859939575195

$$$$
77
                    3D
 Structure written by MMmdl.
189198  0  0  1  0            999 V2000
  -30.6917  -14.5478   20.5823 C   0  0  0  0  0  0
  -30.4212  -12.3600   19.4505 C   0  0  0  0  0  0
  -29.4984  -12.4777   18.2212 C   0  0  0  0  0  0
  -28.0264  -12.2921   18.6329 C   0  0  0  0  0  0
  -27.6469  -13.1701   19.8469 C   0  0  2  0  0  0
  -28.6836  -13.0690   20.9935 C   0  0  0  0  0  0
  -25.2576  -13.7957   20.5471 C   0  0  0  0  0  0
  -24.1855  -13.0369   20.9274 C   0  0  0  0  0  0
  -24.6315  -11.6827   20.8826 C   0  0  0  0  0  0
  -23.8920  -10.4274   21.0486 C   0  0  0  0  0  0
  -24.3500   -9.4194   21.9232 C   0  0  0  0  0  0
  -23.6245   -8.2178   22.0711 C   0  0  0  0  0  0
  -22.4204   -8.0246   21.3522 C   0  0  0  0  0  0
  -21.9765   -9.0265   20.4713 C   0  0  0  0  0  0
  -22.7066  -10.2172   20.3174 C   0  0  0  0  0  0
  -21.6832   -6.0705   22.5268 C   0  0  0  0  0  0
  -21.3994   -6.5612   23.8198 C   0  0  0  0  0  0
  -21.3627   -5.6753   24.9160 C   0  0  0  0  0  0
  -21.6022   -4.3015   24.7201 C   0  0  0  0  0  0
  -21.8813   -3.8131   23.4315 C   0  0  0  0  0  0
  -21.9190   -4.6938   22.3384 C   0  0  0  0  0  0
  -22.7931  -13.5305   21.1944 C   0  0  0  0  0  0
  -22.1702   -4.2135   21.0979 F   0  0  0  0  0  0
  -21.5611   -3.4510   25.7725 F   0  0  0  0  0  0
  -30.0043  -13.3776   20.4357 N   0  0  0  0  0  0
  -26.2941  -12.9060   20.3179 N   0  0  0  0  0  0
  -25.9221  -11.6312   20.5768 N   0  0  0  0  0  0
  -22.0542  -12.8353   22.0515 N   0  0  0  0  0  0
  -25.4276  -15.1576   20.3372 N   0  0  0  0  0  0
  -31.8160  -14.7014   20.1057 O   0  0  0  0  0  0
  -21.6623   -6.8823   21.4204 O   0  0  0  0  0  0
  -22.3737  -14.5639   20.6751 O   0  0  0  0  0  0
  -24.6153  -31.8686   23.2079 C   0  0  0  0  0  0
  -25.9036  -32.4826   23.8387 C   0  0  1  0  0  0
  -27.2373  -27.4122   20.1124 C   0  0  0  0  0  0
  -25.5888  -33.8614   24.2323 N   0  0  0  0  0  0
  -23.4031  -30.4913   21.5469 C   0  0  2  0  0  0
  -24.8498  -28.9466   20.1146 C   0  0  0  0  0  0
  -22.7415  -29.4663   22.4975 C   0  0  0  0  0  0
  -18.0293  -28.1357   22.8505 C   0  0  0  0  0  0
  -24.1471  -36.7291   23.2643 C   0  0  0  0  0  0
  -25.9326  -30.8273   21.3637 C   0  0  0  0  0  0
  -26.0082  -29.4598   20.7100 C   0  0  0  0  0  0
  -27.2009  -28.7019   20.6977 C   0  0  0  0  0  0
  -26.0580  -26.9133   19.5126 C   0  0  0  0  0  0
  -24.8710  -27.6762   19.5104 C   0  0  0  0  0  0
  -23.6126  -29.8172   20.1626 C   0  0  0  0  0  0
  -25.4091  -36.3100   24.0350 C   0  0  1  0  0  0
  -20.5885  -28.3648   23.1301 C   0  0  2  0  0  0
  -20.6757  -26.9380   22.5401 C   0  0  0  0  0  0
  -19.5723  -26.6370   21.5205 C   0  0  0  0  0  0
  -18.1919  -26.7911   22.1633 C   0  0  0  0  0  0
  -19.1540  -28.8826   23.2915 C   0  0  0  0  0  0
  -18.9464  -30.1447   23.8911 C   0  0  0  0  0  0
  -17.6455  -30.6564   24.0568 C   0  0  0  0  0  0
  -25.9029  -34.9475   23.5138 C   0  0  0  0  0  0
  -16.5351  -29.9056   23.6338 C   0  0  0  0  0  0
  -16.7288  -28.6474   23.0371 C   0  0  0  0  0  0
  -26.4467  -31.6615   25.0728 C   0  0  0  0  0  0
  -25.3746  -31.3720   26.1491 C   0  0  0  0  0  0
  -27.0297  -30.3055   24.6107 C   0  0  0  0  0  0
  -27.6043  -32.4342   25.7477 C   0  0  0  0  0  0
  -27.5573  -37.1795   24.8475 C   0  0  0  0  0  0
  -21.4151  -29.3022   22.3705 N   0  0  0  0  0  0
  -26.4273  -37.3789   23.9432 N   0  0  0  0  0  0
  -24.6684  -31.0767   22.0974 N   0  0  0  0  0  0
  -23.4201  -28.8229   23.3023 O   0  0  0  0  0  0
  -28.4310  -26.7118   20.1513 O   0  0  0  0  0  0
  -26.5582  -34.8929   22.4693 O   0  0  0  0  0  0
  -23.5344  -32.1435   23.7452 O   0  0  0  0  0  0
  -28.5026  -19.5847   22.0986 C   0  0  0  0  0  0
  -29.5219  -20.7573   23.9318 C   0  0  0  0  0  0
  -28.7678  -20.8114   22.7457 C   0  0  0  0  0  0
  -28.8181  -18.3476   22.7334 C   0  0  0  0  0  0
  -29.5973  -18.4256   23.9217 C   0  0  0  0  0  0
  -28.5159  -12.3750   26.8171 C   0  0  0  0  0  0
  -29.7878  -12.8234   26.0747 C   0  0  0  0  0  0
  -27.2914  -13.2116   26.4074 C   0  0  0  0  0  0
  -30.0234  -14.3410   26.1921 C   0  0  0  0  0  0
  -27.5645  -14.7220   26.5245 C   0  0  0  0  0  0
  -28.7982  -15.1335   25.6968 C   0  0  0  0  0  0
  -26.1107  -16.4243   23.3678 C   0  0  0  0  0  0
  -25.9928  -18.0143   21.5083 C   0  0  0  0  0  0
  -28.0735  -22.1282   22.3400 C   0  0  0  0  0  0
  -30.0566  -17.1839   24.6955 C   0  0  0  0  0  0
  -29.0189  -16.6639   25.7168 C   0  0  0  0  0  0
  -28.6732  -22.9862   21.1919 C   0  0  0  0  0  0
  -27.9984  -24.3948   21.0667 C   0  0  0  0  0  0
  -28.9845  -16.3941   20.9587 C   0  0  0  0  0  0
  -28.5003  -25.2914   19.8970 C   0  0  0  0  0  0
  -28.2575  -16.9903   22.2047 C   0  0  2  0  0  0
  -29.9506  -19.6038   24.4866 N   0  0  0  0  0  0
  -30.1512  -15.5491   21.3178 N   0  0  0  0  0  0
  -26.7545  -16.8971   22.1159 N   0  3  0  0  0  0
  -31.4644  -12.4653   19.1497 H   0  0  0  0  0  0
  -30.3467  -11.3642   19.8895 H   0  0  0  0  0  0
  -29.7719  -11.7305   17.4726 H   0  0  0  0  0  0
  -29.6371  -13.4537   17.7523 H   0  0  0  0  0  0
  -27.8744  -11.2366   18.8642 H   0  0  0  0  0  0
  -27.3683  -12.5177   17.7939 H   0  0  0  0  0  0
  -27.6491  -14.1713   19.4327 H   0  0  0  0  0  0
  -28.6959  -12.0718   21.4301 H   0  0  0  0  0  0
  -28.4158  -13.7324   21.8157 H   0  0  0  0  0  0
  -25.2609   -9.5751   22.4843 H   0  0  0  0  0  0
  -24.0053   -7.4495   22.7273 H   0  0  0  0  0  0
  -21.0698   -8.8770   19.9007 H   0  0  0  0  0  0
  -22.3463  -10.9746   19.6359 H   0  0  0  0  0  0
  -21.1994   -7.6118   23.9731 H   0  0  0  0  0  0
  -21.1423   -6.0468   25.9062 H   0  0  0  0  0  0
  -22.0602   -2.7590   23.2816 H   0  0  0  0  0  0
  -22.4146  -12.0025   22.4924 H   0  0  0  0  0  0
  -21.1100  -13.1337   22.2564 H   0  0  0  0  0  0
  -24.4924  -15.5474   20.2564 H   0  0  0  0  0  0
  -25.8971  -15.2993   19.4477 H   0  0  0  0  0  0
  -26.7117  -32.5529   23.1159 H   0  0  0  0  0  0
  -25.0070  -33.9785   25.0484 H   0  0  0  0  0  0
  -22.6909  -31.3082   21.4055 H   0  0  0  0  0  0
  -23.3746  -35.9616   23.3316 H   0  0  0  0  0  0
  -24.3561  -36.8887   22.2057 H   0  0  0  0  0  0
  -23.7209  -37.6488   23.6646 H   0  0  0  0  0  0
  -26.0526  -31.5925   20.5962 H   0  0  0  0  0  0
  -26.8166  -30.8750   21.9876 H   0  0  0  0  0  0
  -28.0966  -29.0952   21.1567 H   0  0  0  0  0  0
  -26.0352  -25.9395   19.0461 H   0  0  0  0  0  0
  -23.9783  -27.2795   19.0464 H   0  0  0  0  0  0
  -23.7234  -30.5886   19.3998 H   0  0  0  0  0  0
  -22.7361  -29.2383   19.8686 H   0  0  0  0  0  0
  -25.1271  -36.1954   25.0844 H   0  0  0  0  0  0
  -21.0027  -28.3201   24.1405 H   0  0  0  0  0  0
  -20.5612  -26.2275   23.3597 H   0  0  0  0  0  0
  -21.6631  -26.7371   22.1227 H   0  0  0  0  0  0
  -19.6860  -25.6288   21.1224 H   0  0  0  0  0  0
  -19.6645  -27.3191   20.6742 H   0  0  0  0  0  0
  -17.4191  -26.6722   21.4034 H   0  0  0  0  0  0
  -18.0307  -26.0023   22.8996 H   0  0  0  0  0  0
  -19.7937  -30.7282   24.2259 H   0  0  0  0  0  0
  -17.5002  -31.6249   24.5162 H   0  0  0  0  0  0
  -15.5352  -30.2955   23.7627 H   0  0  0  0  0  0
  -15.8708  -28.0785   22.7066 H   0  0  0  0  0  0
  -24.5913  -30.7073   25.7840 H   0  0  0  0  0  0
  -24.8957  -32.2877   26.4963 H   0  0  0  0  0  0
  -25.8120  -30.8882   27.0234 H   0  0  0  0  0  0
  -26.2835  -29.6814   24.1181 H   0  0  0  0  0  0
  -27.4085  -29.7300   25.4562 H   0  0  0  0  0  0
  -27.8669  -30.4377   23.9250 H   0  0  0  0  0  0
  -27.2662  -33.3629   26.2076 H   0  0  0  0  0  0
  -28.3823  -32.6919   25.0285 H   0  0  0  0  0  0
  -28.0747  -31.8466   26.5366 H   0  0  0  0  0  0
  -28.2607  -38.0080   24.7521 H   0  0  0  0  0  0
  -28.1058  -36.2613   24.6299 H   0  0  0  0  0  0
  -27.2313  -37.1451   25.8886 H   0  0  0  0  0  0
  -20.9301  -29.8746   21.6930 H   0  0  0  0  0  0
  -26.0169  -38.2870   24.1425 H   0  0  0  0  0  0
  -27.9487  -19.6151   21.1764 H   0  0  0  0  0  0
  -29.7201  -21.6596   24.4908 H   0  0  0  0  0  0
  -28.6701  -12.4573   27.8933 H   0  0  0  0  0  0
  -28.3242  -11.3196   26.6130 H   0  0  0  0  0  0
  -29.7132  -12.5456   25.0230 H   0  0  0  0  0  0
  -30.6497  -12.2833   26.4691 H   0  0  0  0  0  0
  -26.4345  -12.9416   27.0262 H   0  0  0  0  0  0
  -27.0140  -12.9723   25.3798 H   0  0  0  0  0  0
  -30.9132  -14.6186   25.6250 H   0  0  0  0  0  0
  -30.2297  -14.6039   27.2299 H   0  0  0  0  0  0
  -27.7174  -14.9841   27.5746 H   0  0  0  0  0  0
  -26.6819  -15.2755   26.1977 H   0  0  0  0  0  0
  -28.6105  -14.8353   24.6654 H   0  0  0  0  0  0
  -25.0409  -16.2746   23.2224 H   0  0  0  0  0  0
  -26.2415  -17.1380   24.1796 H   0  0  0  0  0  0
  -26.5086  -15.4596   23.6812 H   0  0  0  0  0  0
  -24.9544  -17.7229   21.3518 H   0  0  0  0  0  0
  -26.3903  -18.2782   20.5285 H   0  0  0  0  0  0
  -25.9570  -18.8888   22.1569 H   0  0  0  0  0  0
  -28.0262  -22.7493   23.2370 H   0  0  0  0  0  0
  -27.0334  -21.8983   22.1046 H   0  0  0  0  0  0
  -30.9785  -17.4132   25.2281 H   0  0  0  0  0  0
  -30.3527  -16.4025   23.9966 H   0  0  0  0  0  0
  -29.2906  -16.9968   26.7184 H   0  0  0  0  0  0
  -28.0674  -17.1488   25.5083 H   0  0  0  0  0  0
  -28.5901  -22.4445   20.2495 H   0  0  0  0  0  0
  -29.7381  -23.1313   21.3776 H   0  0  0  0  0  0
  -28.1640  -24.9355   21.9996 H   0  0  0  0  0  0
  -26.9156  -24.2803   20.9763 H   0  0  0  0  0  0
  -29.3057  -17.1906   20.2861 H   0  0  0  0  0  0
  -28.2793  -15.8275   20.3735 H   0  0  0  0  0  0
  -29.5596  -25.0844   19.7503 H   0  0  0  0  0  0
  -28.0313  -25.0221   18.9514 H   0  0  0  0  0  0
  -28.4684  -16.2527   22.9683 H   0  0  0  0  0  0
  -30.8959  -16.1272   21.6790 H   0  0  0  0  0  0
  -26.5606  -16.1340   21.4677 H   0  0  0  0  0  0
  1 25  1  0  0  0
  1 30  2  0  0  0
  1 93  1  0  0  0
  2  3  1  0  0  0
  2 25  1  0  0  0
  2 95  1  0  0  0
  2 96  1  0  0  0
  3  4  1  0  0  0
  3 97  1  0  0  0
  3 98  1  0  0  0
  4  5  1  0  0  0
  4 99  1  0  0  0
  4100  1  0  0  0
  5  6  1  0  0  0
  5 26  1  0  0  0
  5101  1  0  0  0
  6 25  1  0  0  0
  6102  1  0  0  0
  6103  1  0  0  0
  7  8  2  0  0  0
  7 26  1  0  0  0
  7 29  1  0  0  0
  8  9  1  0  0  0
  8 22  1  0  0  0
  9 10  1  0  0  0
  9 27  2  0  0  0
 10 11  2  0  0  0
 10 15  1  0  0  0
 11 12  1  0  0  0
 11104  1  0  0  0
 12 13  2  0  0  0
 12105  1  0  0  0
 13 14  1  0  0  0
 13 31  1  0  0  0
 14 15  2  0  0  0
 14106  1  0  0  0
 15107  1  0  0  0
 16 17  2  0  0  0
 16 21  1  0  0  0
 16 31  1  0  0  0
 17 18  1  0  0  0
 17108  1  0  0  0
 18 19  2  0  0  0
 18109  1  0  0  0
 19 20  1  0  0  0
 19 24  1  0  0  0
 20 21  2  0  0  0
 20110  1  0  0  0
 21 23  1  0  0  0
 22 28  1  0  0  0
 22 32  2  0  0  0
 26 27  1  0  0  0
 28111  1  0  0  0
 28112  1  0  0  0
 29113  1  0  0  0
 29114  1  0  0  0
 33 34  1  0  0  0
 33 66  1  0  0  0
 33 70  2  0  0  0
 34 36  1  0  0  0
 34 59  1  0  0  0
 34115  1  0  0  0
 35 44  2  0  0  0
 35 45  1  0  0  0
 35 68  1  0  0  0
 36 56  1  0  0  0
 36116  1  0  0  0
 37 39  1  0  0  0
 37 47  1  0  0  0
 37 66  1  0  0  0
 37117  1  0  0  0
 38 43  2  0  0  0
 38 46  1  0  0  0
 38 47  1  0  0  0
 39 64  1  0  0  0
 39 67  2  0  0  0
 40 52  1  0  0  0
 40 53  2  0  0  0
 40 58  1  0  0  0
 41118  1  0  0  0
 41119  1  0  0  0
 41120  1  0  0  0
 41 48  1  0  0  0
 42 43  1  0  0  0
 42 66  1  0  0  0
 42121  1  0  0  0
 42122  1  0  0  0
 43 44  1  0  0  0
 44123  1  0  0  0
 45 46  2  0  0  0
 45124  1  0  0  0
 46125  1  0  0  0
 47126  1  0  0  0
 47127  1  0  0  0
 48 56  1  0  0  0
 48 65  1  0  0  0
 48128  1  0  0  0
 49 50  1  0  0  0
 49 53  1  0  0  0
 49 64  1  0  0  0
 49129  1  0  0  0
 50 51  1  0  0  0
 50130  1  0  0  0
 50131  1  0  0  0
 51 52  1  0  0  0
 51132  1  0  0  0
 51133  1  0  0  0
 52134  1  0  0  0
 52135  1  0  0  0
 53 54  1  0  0  0
 54 55  2  0  0  0
 54136  1  0  0  0
 55 57  1  0  0  0
 55137  1  0  0  0
 56 69  2  0  0  0
 57 58  2  0  0  0
 57138  1  0  0  0
 58139  1  0  0  0
 59 60  1  0  0  0
 59 61  1  0  0  0
 59 62  1  0  0  0
 60140  1  0  0  0
 60141  1  0  0  0
 60142  1  0  0  0
 61143  1  0  0  0
 61144  1  0  0  0
 61145  1  0  0  0
 62146  1  0  0  0
 62147  1  0  0  0
 62148  1  0  0  0
 63 65  1  0  0  0
 63149  1  0  0  0
 63150  1  0  0  0
 63151  1  0  0  0
 64152  1  0  0  0
 65153  1  0  0  0
 68 90  1  0  0  0
 71 73  2  0  0  0
 71 74  1  0  0  0
 71154  1  0  0  0
 72 73  1  0  0  0
 72 92  2  0  0  0
 72155  1  0  0  0
 73 84  1  0  0  0
 74 75  2  0  0  0
 74 91  1  0  0  0
 75 85  1  0  0  0
 75 92  1  0  0  0
 76 77  1  0  0  0
 76 78  1  0  0  0
 76156  1  0  0  0
 76157  1  0  0  0
 77 79  1  0  0  0
 77158  1  0  0  0
 77159  1  0  0  0
 78 80  1  0  0  0
 78160  1  0  0  0
 78161  1  0  0  0
 79 81  1  0  0  0
 79162  1  0  0  0
 79163  1  0  0  0
 80 81  1  0  0  0
 80164  1  0  0  0
 80165  1  0  0  0
 81 86  1  0  0  0
 81166  1  0  0  0
 82167  1  0  0  0
 82168  1  0  0  0
 82169  1  0  0  0
 82 94  1  0  0  0
 83 94  1  0  0  0
 83170  1  0  0  0
 83171  1  0  0  0
 83172  1  0  0  0
 84 87  1  0  0  0
 84173  1  0  0  0
 84174  1  0  0  0
 85 86  1  0  0  0
 85175  1  0  0  0
 85176  1  0  0  0
 86177  1  0  0  0
 86178  1  0  0  0
 87 88  1  0  0  0
 87179  1  0  0  0
 87180  1  0  0  0
 88 90  1  0  0  0
 88181  1  0  0  0
 88182  1  0  0  0
 89 93  1  0  0  0
 89183  1  0  0  0
 89184  1  0  0  0
 89 91  1  0  0  0
 90185  1  0  0  0
 90186  1  0  0  0
 91 94  1  0  0  0
 91187  1  0  0  0
 93188  1  0  0  0
 94189  1  0  0  0
M  CHG  1  94   1
M  ISO  4   1 100  68 101  90 101  93 100
M  END
> <chiral flag>
0

> <version>
0

> <s_m_source_file>
/data/baiqing/PycharmProjects/Reinvent-master-3.2/result/LINK_invent/BTK/process_docking_weight1_custom_sum_contain_oxygen_bond_distance_aromatic_linkinvent_7_9_3/rearranged_h_0095.sdf

> <i_m_source_file_index>
78

> <r_mmod_Potential_Energy-OPLS-2005>
-212.117431640625

> <r_mmod_Stretch_Energy-OPLS-2005>
52.6210594177246

> <r_mmod_Bend_Energy-OPLS-2005>
151.819625854492

> <r_mmod_Torsional_Energy-OPLS-2005>
337.627014160156

> <r_mmod_Improper_Torsional_Energy-OPLS-2005>
14.5184688568115

> <r_mmod_Van_der_Waal_Energy-OPLS-2005>
149.626983642578

> <r_mmod_Electrostatic_Energy-OPLS-2005>
-511.849670410156

> <r_mmod_Solvation_Energy-OPLS-2005>
-431.056732177734

> <b_mmod_Minimization_Converged-OPLS-2005>
0

> <r_mmod_RMS_Derivative-OPLS-2005>
4.53119373321533

$$$$
78
                    3D
 Structure written by MMmdl.
158166  0  0  1  0            999 V2000
  -30.5688  -14.7203   20.4868 C   0  0  0  0  0  0
  -30.4586  -12.4414   19.4695 C   0  0  0  0  0  0
  -29.5189  -12.4875   18.2410 C   0  0  0  0  0  0
  -28.0448  -12.3010   18.6569 C   0  0  0  0  0  0
  -27.6472  -13.2079   19.8482 C   0  0  2  0  0  0
  -28.6910  -13.1105   20.9834 C   0  0  0  0  0  0
  -25.2558  -13.8141   20.5675 C   0  0  0  0  0  0
  -24.1800  -13.0413   20.9187 C   0  0  0  0  0  0
  -24.6370  -11.6898   20.8737 C   0  0  0  0  0  0
  -23.9046  -10.4275   21.0421 C   0  0  0  0  0  0
  -24.3586   -9.4193   21.9204 C   0  0  0  0  0  0
  -23.6264   -8.2225   22.0767 C   0  0  0  0  0  0
  -22.4251   -8.0272   21.3553 C   0  0  0  0  0  0
  -21.9897   -9.0245   20.4648 C   0  0  0  0  0  0
  -22.7228  -10.2120   20.3061 C   0  0  0  0  0  0
  -21.6846   -6.0711   22.5278 C   0  0  0  0  0  0
  -21.4001   -6.5622   23.8207 C   0  0  0  0  0  0
  -21.3656   -5.6777   24.9175 C   0  0  0  0  0  0
  -21.6052   -4.3046   24.7232 C   0  0  0  0  0  0
  -21.8820   -3.8138   23.4354 C   0  0  0  0  0  0
  -21.9184   -4.6941   22.3408 C   0  0  0  0  0  0
  -22.7830  -13.5240   21.1840 C   0  0  0  0  0  0
  -22.1660   -4.2123   21.0986 F   0  0  0  0  0  0
  -21.5636   -3.4548   25.7748 F   0  0  0  0  0  0
  -30.0024  -13.4701   20.4238 N   0  0  0  0  0  0
  -26.2950  -12.9300   20.3256 N   0  0  0  0  0  0
  -25.9298  -11.6476   20.5760 N   0  0  0  0  0  0
  -22.0466  -12.8222   22.0385 N   0  0  0  0  0  0
  -25.4293  -15.1855   20.4071 N   0  0  0  0  0  0
  -31.7320  -14.8926   20.1060 O   0  0  0  0  0  0
  -21.6638   -6.8854   21.4238 O   0  0  0  0  0  0
  -22.3533  -14.5559   20.6706 O   0  0  0  0  0  0
  -24.6243  -31.8540   23.2017 C   0  0  0  0  0  0
  -25.9109  -32.4725   23.8314 C   0  0  1  0  0  0
  -27.2244  -27.3017   20.1328 C   0  0  0  0  0  0
  -25.5938  -33.8537   24.2183 N   0  0  0  0  0  0
  -23.4137  -30.4772   21.5451 C   0  0  2  0  0  0
  -24.8609  -28.9228   20.1129 C   0  0  0  0  0  0
  -22.7451  -29.4546   22.4943 C   0  0  0  0  0  0
  -18.0277  -28.1356   22.8475 C   0  0  0  0  0  0
  -24.1500  -36.7283   23.2629 C   0  0  0  0  0  0
  -25.9534  -30.7787   21.3748 C   0  0  0  0  0  0
  -26.0264  -29.4042   20.7196 C   0  0  0  0  0  0
  -27.2022  -28.6020   20.7238 C   0  0  0  0  0  0
  -26.0318  -26.8537   19.5212 C   0  0  0  0  0  0
  -24.8665  -27.6501   19.5137 C   0  0  0  0  0  0
  -23.6317  -29.8122   20.1600 C   0  0  0  0  0  0
  -25.4127  -36.3014   24.0272 C   0  0  1  0  0  0
  -20.5875  -28.3615   23.1339 C   0  0  2  0  0  0
  -20.6765  -26.9346   22.5413 C   0  0  0  0  0  0
  -19.5736  -26.6355   21.5204 C   0  0  0  0  0  0
  -18.1917  -26.7891   22.1608 C   0  0  0  0  0  0
  -19.1537  -28.8801   23.2885 C   0  0  0  0  0  0
  -18.9482  -30.1415   23.8883 C   0  0  0  0  0  0
  -17.6481  -30.6559   24.0564 C   0  0  0  0  0  0
  -25.9091  -34.9406   23.5014 C   0  0  0  0  0  0
  -16.5366  -29.9042   23.6379 C   0  0  0  0  0  0
  -16.7261  -28.6478   23.0335 C   0  0  0  0  0  0
  -26.4492  -31.6611   25.0733 C   0  0  0  0  0  0
  -25.3693  -31.3776   26.1458 C   0  0  0  0  0  0
  -27.0366  -30.3047   24.6201 C   0  0  0  0  0  0
  -27.5995  -32.4412   25.7552 C   0  0  0  0  0  0
  -27.5561  -37.1768   24.8418 C   0  0  0  0  0  0
  -21.4159  -29.2980   22.3729 N   0  0  0  0  0  0
  -26.4252  -37.3748   23.9409 N   0  0  0  0  0  0
  -24.6824  -31.0536   22.0983 N   0  0  0  0  0  0
  -23.4176  -28.8078   23.2998 O   0  0  0  0  0  0
  -28.3744  -26.5056   20.2132 O   0  0  0  0  0  0
  -26.5659  -34.8862   22.4587 O   0  0  0  0  0  0
  -23.5433  -32.1355   23.7384 O   0  0  0  0  0  0
  -30.9434  -18.1618   19.8510 C   0  0  0  0  0  0
  -29.0057  -18.5130   20.8284 C   0  0  0  0  0  0
  -29.8886  -17.4799   20.5363 C   0  0  0  0  0  0
  -30.7023  -19.5238   19.8185 C   0  0  0  0  0  0
  -31.5810  -20.6012   19.2622 C   0  0  0  0  0  0
  -28.5880  -24.0743   22.0413 C   0  0  0  0  0  0
  -29.6773  -15.9651   20.9500 C   0  0  0  0  0  0
  -29.0082  -22.4728   20.0341 C   0  0  0  0  0  0
  -28.7677  -21.0823   20.7974 C   0  0  0  0  0  0
  -28.5031  -25.1330   19.6667 C   0  0  0  0  0  0
  -28.2705  -23.8118   20.5529 C   0  0  2  0  0  0
  -29.4734  -19.7809   20.4364 N   0  0  0  0  0  0
  -31.4915  -12.6086   19.1585 H   0  0  0  0  0  0
  -30.4469  -11.4620   19.9494 H   0  0  0  0  0  0
  -29.8112  -11.7135   17.5300 H   0  0  0  0  0  0
  -29.6334  -13.4396   17.7211 H   0  0  0  0  0  0
  -27.9176  -11.2557   18.9438 H   0  0  0  0  0  0
  -27.3814  -12.4694   17.8085 H   0  0  0  0  0  0
  -27.6413  -14.2242   19.4588 H   0  0  0  0  0  0
  -28.7184  -12.1001   21.3926 H   0  0  0  0  0  0
  -28.4147  -13.7587   21.8166 H   0  0  0  0  0  0
  -25.2725   -9.5673   22.4798 H   0  0  0  0  0  0
  -23.9967   -7.4628   22.7502 H   0  0  0  0  0  0
  -21.0826   -8.8764   19.8960 H   0  0  0  0  0  0
  -22.3703  -10.9652   19.6165 H   0  0  0  0  0  0
  -21.1987   -7.6134   23.9693 H   0  0  0  0  0  0
  -21.1481   -6.0527   25.9069 H   0  0  0  0  0  0
  -22.0600   -2.7602   23.2878 H   0  0  0  0  0  0
  -22.4059  -11.9861   22.4737 H   0  0  0  0  0  0
  -21.1098  -13.1283   22.2611 H   0  0  0  0  0  0
  -24.6683  -15.8469   20.5144 H   0  0  0  0  0  0
  -26.2835  -15.6183   20.0786 H   0  0  0  0  0  0
  -26.7150  -32.5351   23.1029 H   0  0  0  0  0  0
  -25.0029  -33.9721   25.0282 H   0  0  0  0  0  0
  -22.7014  -31.2934   21.4050 H   0  0  0  0  0  0
  -23.3736  -35.9638   23.3216 H   0  0  0  0  0  0
  -24.3592  -36.9032   22.2055 H   0  0  0  0  0  0
  -23.7297  -37.6459   23.6764 H   0  0  0  0  0  0
  -26.0746  -31.5330   20.5969 H   0  0  0  0  0  0
  -26.8370  -30.8315   21.9982 H   0  0  0  0  0  0
  -28.0891  -28.9633   21.2218 H   0  0  0  0  0  0
  -25.9662  -25.8689   19.0847 H   0  0  0  0  0  0
  -23.9649  -27.2602   19.0627 H   0  0  0  0  0  0
  -23.7503  -30.5901   19.4062 H   0  0  0  0  0  0
  -22.7481  -29.2478   19.8585 H   0  0  0  0  0  0
  -25.1302  -36.1789   25.0758 H   0  0  0  0  0  0
  -20.9947  -28.3161   24.1466 H   0  0  0  0  0  0
  -20.5728  -26.2152   23.3556 H   0  0  0  0  0  0
  -21.6618  -26.7400   22.1169 H   0  0  0  0  0  0
  -19.6907  -25.6277   21.1184 H   0  0  0  0  0  0
  -19.6745  -27.3198   20.6757 H   0  0  0  0  0  0
  -17.4197  -26.6672   21.3993 H   0  0  0  0  0  0
  -18.0324  -26.0009   22.8987 H   0  0  0  0  0  0
  -19.7977  -30.7240   24.2219 H   0  0  0  0  0  0
  -17.5047  -31.6263   24.5110 H   0  0  0  0  0  0
  -15.5367  -30.2916   23.7754 H   0  0  0  0  0  0
  -15.8654  -28.0816   22.7016 H   0  0  0  0  0  0
  -24.5820  -30.7197   25.7775 H   0  0  0  0  0  0
  -24.8945  -32.2954   26.4932 H   0  0  0  0  0  0
  -25.7985  -30.8898   27.0212 H   0  0  0  0  0  0
  -26.2969  -29.6797   24.1182 H   0  0  0  0  0  0
  -27.4038  -29.7323   25.4722 H   0  0  0  0  0  0
  -27.8816  -30.4352   23.9435 H   0  0  0  0  0  0
  -27.2535  -33.3697   26.2109 H   0  0  0  0  0  0
  -28.3842  -32.7029   25.0443 H   0  0  0  0  0  0
  -28.0591  -31.8550   26.5508 H   0  0  0  0  0  0
  -28.2440  -38.0180   24.7586 H   0  0  0  0  0  0
  -28.1191  -36.2710   24.6104 H   0  0  0  0  0  0
  -27.2285  -37.1244   25.8813 H   0  0  0  0  0  0
  -20.9304  -29.8731   21.6995 H   0  0  0  0  0  0
  -26.0065  -38.2773   24.1567 H   0  0  0  0  0  0
  -31.8369  -17.7001   19.4485 H   0  0  0  0  0  0
  -28.0572  -18.4549   21.3465 H   0  0  0  0  0  0
  -32.5421  -20.1949   18.9420 H   0  0  0  0  0  0
  -31.7952  -21.3636   20.0113 H   0  0  0  0  0  0
  -31.1223  -21.0798   18.3955 H   0  0  0  0  0  0
  -28.1606  -23.3029   22.6849 H   0  0  0  0  0  0
  -28.1626  -25.0217   22.3769 H   0  0  0  0  0  0
  -29.6609  -24.1045   22.2360 H   0  0  0  0  0  0
  -28.6591  -15.7647   20.6328 H   0  0  0  0  0  0
  -29.6478  -15.9428   22.0384 H   0  0  0  0  0  0
  -28.7455  -22.3266   18.9869 H   0  0  0  0  0  0
  -30.0714  -22.6934   20.0498 H   0  0  0  0  0  0
  -27.6974  -20.8758   20.7457 H   0  0  0  0  0  0
  -28.9814  -21.2390   21.8560 H   0  0  0  0  0  0
  -27.9494  -25.0345   18.7337 H   0  0  0  0  0  0
  -29.5447  -25.1075   19.3456 H   0  0  0  0  0  0
  -27.1982  -23.6124   20.5094 H   0  0  0  0  0  0
  1 25  1  0  0  0
  1 30  2  0  0  0
  1 77  1  0  0  0
  2  3  1  0  0  0
  2 25  1  0  0  0
  2 83  1  0  0  0
  2 84  1  0  0  0
  3  4  1  0  0  0
  3 85  1  0  0  0
  3 86  1  0  0  0
  4  5  1  0  0  0
  4 87  1  0  0  0
  4 88  1  0  0  0
  5  6  1  0  0  0
  5 26  1  0  0  0
  5 89  1  0  0  0
  6 25  1  0  0  0
  6 90  1  0  0  0
  6 91  1  0  0  0
  7  8  2  0  0  0
  7 26  1  0  0  0
  7 29  1  0  0  0
  8  9  1  0  0  0
  8 22  1  0  0  0
  9 10  1  0  0  0
  9 27  2  0  0  0
 10 11  2  0  0  0
 10 15  1  0  0  0
 11 12  1  0  0  0
 11 92  1  0  0  0
 12 13  2  0  0  0
 12 93  1  0  0  0
 13 14  1  0  0  0
 13 31  1  0  0  0
 14 15  2  0  0  0
 14 94  1  0  0  0
 15 95  1  0  0  0
 16 17  2  0  0  0
 16 21  1  0  0  0
 16 31  1  0  0  0
 17 18  1  0  0  0
 17 96  1  0  0  0
 18 19  2  0  0  0
 18 97  1  0  0  0
 19 20  1  0  0  0
 19 24  1  0  0  0
 20 21  2  0  0  0
 20 98  1  0  0  0
 21 23  1  0  0  0
 22 28  1  0  0  0
 22 32  2  0  0  0
 26 27  1  0  0  0
 28 99  1  0  0  0
 28100  1  0  0  0
 29101  1  0  0  0
 29102  1  0  0  0
 33 34  1  0  0  0
 33 66  1  0  0  0
 33 70  2  0  0  0
 34 36  1  0  0  0
 34 59  1  0  0  0
 34103  1  0  0  0
 35 44  2  0  0  0
 35 45  1  0  0  0
 35 68  1  0  0  0
 36 56  1  0  0  0
 36104  1  0  0  0
 37 39  1  0  0  0
 37 47  1  0  0  0
 37 66  1  0  0  0
 37105  1  0  0  0
 38 43  2  0  0  0
 38 46  1  0  0  0
 38 47  1  0  0  0
 39 64  1  0  0  0
 39 67  2  0  0  0
 40 52  1  0  0  0
 40 53  2  0  0  0
 40 58  1  0  0  0
 41106  1  0  0  0
 41107  1  0  0  0
 41108  1  0  0  0
 41 48  1  0  0  0
 42 43  1  0  0  0
 42 66  1  0  0  0
 42109  1  0  0  0
 42110  1  0  0  0
 43 44  1  0  0  0
 44111  1  0  0  0
 45 46  2  0  0  0
 45112  1  0  0  0
 46113  1  0  0  0
 47114  1  0  0  0
 47115  1  0  0  0
 48 56  1  0  0  0
 48 65  1  0  0  0
 48116  1  0  0  0
 49 50  1  0  0  0
 49 53  1  0  0  0
 49 64  1  0  0  0
 49117  1  0  0  0
 50 51  1  0  0  0
 50118  1  0  0  0
 50119  1  0  0  0
 51 52  1  0  0  0
 51120  1  0  0  0
 51121  1  0  0  0
 52122  1  0  0  0
 52123  1  0  0  0
 53 54  1  0  0  0
 54 55  2  0  0  0
 54124  1  0  0  0
 55 57  1  0  0  0
 55125  1  0  0  0
 56 69  2  0  0  0
 57 58  2  0  0  0
 57126  1  0  0  0
 58127  1  0  0  0
 59 60  1  0  0  0
 59 61  1  0  0  0
 59 62  1  0  0  0
 60128  1  0  0  0
 60129  1  0  0  0
 60130  1  0  0  0
 61131  1  0  0  0
 61132  1  0  0  0
 61133  1  0  0  0
 62134  1  0  0  0
 62135  1  0  0  0
 62136  1  0  0  0
 63 65  1  0  0  0
 63137  1  0  0  0
 63138  1  0  0  0
 63139  1  0  0  0
 64140  1  0  0  0
 65141  1  0  0  0
 68 80  1  0  0  0
 71 73  1  0  0  0
 71 74  2  0  0  0
 71142  1  0  0  0
 72 73  2  0  0  0
 72 82  1  0  0  0
 72143  1  0  0  0
 73 77  1  0  0  0
 74 75  1  0  0  0
 74 82  1  0  0  0
 75144  1  0  0  0
 75145  1  0  0  0
 75146  1  0  0  0
 76147  1  0  0  0
 76148  1  0  0  0
 76149  1  0  0  0
 76 81  1  0  0  0
 77150  1  0  0  0
 77151  1  0  0  0
 78 79  1  0  0  0
 78 81  1  0  0  0
 78152  1  0  0  0
 78153  1  0  0  0
 79 82  1  0  0  0
 79154  1  0  0  0
 79155  1  0  0  0
 80 81  1  0  0  0
 80156  1  0  0  0
 80157  1  0  0  0
 81158  1  0  0  0
M  ISO  4   1 100  68 101  77 100  80 101
M  END
> <chiral flag>
0

> <version>
0

> <s_m_source_file>
/data/baiqing/PycharmProjects/Reinvent-master-3.2/result/LINK_invent/BTK/process_docking_weight1_custom_sum_contain_oxygen_bond_distance_aromatic_linkinvent_7_9_3/rearranged_h_0095.sdf

> <i_m_source_file_index>
79

> <r_mmod_Potential_Energy-OPLS-2005>
173.133560180664

> <r_mmod_Stretch_Energy-OPLS-2005>
94.6438598632812

> <r_mmod_Bend_Energy-OPLS-2005>
189.124053955078

> <r_mmod_Torsional_Energy-OPLS-2005>
189.96630859375

> <r_mmod_Improper_Torsional_Energy-OPLS-2005>
3.30573558807373

> <r_mmod_Van_der_Waal_Energy-OPLS-2005>
113.764518737793

> <r_mmod_Electrostatic_Energy-OPLS-2005>
-286.846130371094

> <r_mmod_Solvation_Energy-OPLS-2005>
-199.805450439453

> <b_mmod_Minimization_Converged-OPLS-2005>
0

> <r_mmod_RMS_Derivative-OPLS-2005>
5.05089712142944

$$$$
79
                    3D
 Structure written by MMmdl.
178186  0  0  1  0            999 V2000
  -30.5778  -14.7951   20.4359 C   0  0  0  0  0  0
  -30.4421  -12.4782   19.5080 C   0  0  0  0  0  0
  -29.5237  -12.5057   18.2632 C   0  0  0  0  0  0
  -28.0522  -12.3168   18.6732 C   0  0  0  0  0  0
  -27.6436  -13.2344   19.8560 C   0  0  2  0  0  0
  -28.6824  -13.1903   21.0019 C   0  0  0  0  0  0
  -25.2495  -13.8208   20.5682 C   0  0  0  0  0  0
  -24.1798  -13.0452   20.9225 C   0  0  0  0  0  0
  -24.6390  -11.6933   20.8764 C   0  0  0  0  0  0
  -23.9069  -10.4308   21.0421 C   0  0  0  0  0  0
  -24.3615   -9.4214   21.9196 C   0  0  0  0  0  0
  -23.6295   -8.2238   22.0748 C   0  0  0  0  0  0
  -22.4275   -8.0277   21.3528 C   0  0  0  0  0  0
  -21.9918   -9.0259   20.4633 C   0  0  0  0  0  0
  -22.7251  -10.2140   20.3056 C   0  0  0  0  0  0
  -21.6849   -6.0732   22.5292 C   0  0  0  0  0  0
  -21.4001   -6.5630   23.8224 C   0  0  0  0  0  0
  -21.3652   -5.6780   24.9182 C   0  0  0  0  0  0
  -21.6053   -4.3051   24.7231 C   0  0  0  0  0  0
  -21.8815   -3.8141   23.4353 C   0  0  0  0  0  0
  -21.9193   -4.6961   22.3411 C   0  0  0  0  0  0
  -22.7819  -13.5228   21.1891 C   0  0  0  0  0  0
  -22.1664   -4.2142   21.0986 F   0  0  0  0  0  0
  -21.5634   -3.4537   25.7744 F   0  0  0  0  0  0
  -29.9885  -13.5465   20.4333 N   0  0  0  0  0  0
  -26.2937  -12.9425   20.3295 N   0  0  0  0  0  0
  -25.9328  -11.6556   20.5783 N   0  0  0  0  0  0
  -22.0453  -12.8209   22.0443 N   0  0  0  0  0  0
  -25.4183  -15.1918   20.4017 N   0  0  0  0  0  0
  -31.7400  -14.9142   20.0362 O   0  0  0  0  0  0
  -21.6634   -6.8877   21.4247 O   0  0  0  0  0  0
  -22.3504  -14.5525   20.6746 O   0  0  0  0  0  0
  -24.6327  -31.8556   23.1975 C   0  0  0  0  0  0
  -25.9136  -32.4805   23.8326 C   0  0  1  0  0  0
  -27.2317  -27.2772   20.1242 C   0  0  0  0  0  0
  -25.5951  -33.8616   24.2245 N   0  0  0  0  0  0
  -23.4309  -30.4792   21.5385 C   0  0  2  0  0  0
  -24.8808  -28.9197   20.1182 C   0  0  0  0  0  0
  -22.7529  -29.4600   22.4867 C   0  0  0  0  0  0
  -18.0302  -28.1423   22.8491 C   0  0  0  0  0  0
  -24.1477  -36.7320   23.2652 C   0  0  0  0  0  0
  -25.9761  -30.7752   21.3732 C   0  0  0  0  0  0
  -26.0521  -29.3958   20.7207 C   0  0  0  0  0  0
  -27.2317  -28.5902   20.7047 C   0  0  0  0  0  0
  -26.0331  -26.8477   19.5177 C   0  0  0  0  0  0
  -24.8755  -27.6515   19.5083 C   0  0  0  0  0  0
  -23.6570  -29.8152   20.1553 C   0  0  0  0  0  0
  -25.4106  -36.3122   24.0335 C   0  0  1  0  0  0
  -20.5919  -28.3721   23.1285 C   0  0  2  0  0  0
  -20.6840  -26.9435   22.5428 C   0  0  0  0  0  0
  -19.5798  -26.6371   21.5278 C   0  0  0  0  0  0
  -18.1945  -26.7964   22.1613 C   0  0  0  0  0  0
  -19.1554  -28.8877   23.2883 C   0  0  0  0  0  0
  -18.9471  -30.1479   23.8892 C   0  0  0  0  0  0
  -17.6469  -30.6610   24.0580 C   0  0  0  0  0  0
  -25.9044  -34.9494   23.5090 C   0  0  0  0  0  0
  -16.5360  -29.9115   23.6348 C   0  0  0  0  0  0
  -16.7290  -28.6557   23.0329 C   0  0  0  0  0  0
  -26.4464  -31.6682   25.0754 C   0  0  0  0  0  0
  -25.3639  -31.3878   26.1452 C   0  0  0  0  0  0
  -27.0313  -30.3104   24.6236 C   0  0  0  0  0  0
  -27.5964  -32.4456   25.7545 C   0  0  0  0  0  0
  -27.5567  -37.1821   24.8455 C   0  0  0  0  0  0
  -21.4223  -29.3075   22.3647 N   0  0  0  0  0  0
  -26.4282  -37.3824   23.9412 N   0  0  0  0  0  0
  -24.7003  -31.0528   22.0952 N   0  0  0  0  0  0
  -23.4249  -28.8110   23.2918 O   0  0  0  0  0  0
  -28.3645  -26.4474   20.0447 O   0  0  0  0  0  0
  -26.5603  -34.8952   22.4657 O   0  0  0  0  0  0
  -23.5457  -32.1365   23.7238 O   0  0  0  0  0  0
  -27.4247  -21.4920   21.4501 C   0  0  0  0  0  0
  -27.0086  -20.4092   22.1550 C   0  0  0  0  0  0
  -27.7808  -19.2984   21.7027 C   0  0  0  0  0  0
  -28.7621  -19.7314   20.8314 C   0  0  0  0  0  0
  -27.5872  -17.8831   22.1954 C   0  0  0  0  0  0
  -23.5042  -19.8243   23.7676 C   0  0  0  0  0  0
  -25.9651  -21.7441   24.0380 C   0  0  0  0  0  0
  -29.6645  -25.1228   21.4803 C   0  0  0  0  0  0
  -30.9672  -18.6861   21.5104 C   0  0  0  0  0  0
  -30.6911  -19.4460   19.1771 C   0  0  0  0  0  0
  -24.5572  -20.0913   22.6807 C   0  0  0  0  0  0
  -28.4363  -23.7558   19.6559 C   0  0  0  0  0  0
  -29.2096  -22.3373   19.9751 C   0  0  0  0  0  0
  -29.6702  -17.2198   19.8479 C   0  0  0  0  0  0
  -25.9488  -20.4213   23.2467 C   0  0  1  0  0  0
  -28.3997  -25.0628   20.6187 C   0  0  2  0  0  0
  -29.9554  -18.7737   20.3557 C   0  0  0  0  0  0
  -28.5215  -21.1756   20.6739 N   0  0  0  0  0  0
  -29.7809  -15.9161   20.6647 N   0  0  0  0  0  0
  -31.4842  -12.6108   19.2104 H   0  0  0  0  0  0
  -30.4001  -11.5078   20.0043 H   0  0  0  0  0  0
  -29.8200  -11.7279   17.5592 H   0  0  0  0  0  0
  -29.6412  -13.4552   17.7389 H   0  0  0  0  0  0
  -27.9261  -11.2743   18.9673 H   0  0  0  0  0  0
  -27.3937  -12.4706   17.8184 H   0  0  0  0  0  0
  -27.6328  -14.2491   19.4560 H   0  0  0  0  0  0
  -28.7204  -12.1977   21.4521 H   0  0  0  0  0  0
  -28.4058  -13.8783   21.8030 H   0  0  0  0  0  0
  -25.2756   -9.5683   22.4778 H   0  0  0  0  0  0
  -24.0004   -7.4616   22.7463 H   0  0  0  0  0  0
  -21.0852   -8.8776   19.8936 H   0  0  0  0  0  0
  -22.3719  -10.9670   19.6159 H   0  0  0  0  0  0
  -21.1971   -7.6135   23.9720 H   0  0  0  0  0  0
  -21.1485   -6.0511   25.9078 H   0  0  0  0  0  0
  -22.0600   -2.7611   23.2864 H   0  0  0  0  0  0
  -22.4042  -11.9850   22.4821 H   0  0  0  0  0  0
  -21.1072  -13.1242   22.2631 H   0  0  0  0  0  0
  -24.6435  -15.8405   20.4669 H   0  0  0  0  0  0
  -26.2570  -15.6173   20.0279 H   0  0  0  0  0  0
  -26.7203  -32.5410   23.1071 H   0  0  0  0  0  0
  -25.0217  -33.9777   25.0461 H   0  0  0  0  0  0
  -22.7285  -31.3022   21.3875 H   0  0  0  0  0  0
  -23.3769  -35.9628   23.3295 H   0  0  0  0  0  0
  -24.3563  -36.8955   22.2073 H   0  0  0  0  0  0
  -23.7197  -37.6501   23.6681 H   0  0  0  0  0  0
  -26.1098  -31.5312   20.5973 H   0  0  0  0  0  0
  -26.8581  -30.8300   22.0015 H   0  0  0  0  0  0
  -28.1378  -28.9636   21.1609 H   0  0  0  0  0  0
  -25.9995  -25.8804   19.0341 H   0  0  0  0  0  0
  -23.9776  -27.2834   19.0323 H   0  0  0  0  0  0
  -23.8107  -30.5999   19.4120 H   0  0  0  0  0  0
  -22.7724  -29.2707   19.8219 H   0  0  0  0  0  0
  -25.1275  -36.1974   25.0830 H   0  0  0  0  0  0
  -20.9990  -28.3290   24.1423 H   0  0  0  0  0  0
  -20.5865  -26.2281   23.3611 H   0  0  0  0  0  0
  -21.6674  -26.7547   22.1109 H   0  0  0  0  0  0
  -19.6960  -25.6294   21.1296 H   0  0  0  0  0  0
  -19.6766  -27.3188   20.6828 H   0  0  0  0  0  0
  -17.4255  -26.6799   21.3960 H   0  0  0  0  0  0
  -18.0228  -26.0109   22.8980 H   0  0  0  0  0  0
  -19.7939  -30.7312   24.2224 H   0  0  0  0  0  0
  -17.5027  -31.6276   24.5207 H   0  0  0  0  0  0
  -15.5366  -30.3020   23.7675 H   0  0  0  0  0  0
  -15.8685  -28.0895   22.7001 H   0  0  0  0  0  0
  -24.5807  -30.7237   25.7773 H   0  0  0  0  0  0
  -24.8826  -32.3063   26.4802 H   0  0  0  0  0  0
  -25.7882  -30.9099   27.0283 H   0  0  0  0  0  0
  -26.2890  -29.6854   24.1250 H   0  0  0  0  0  0
  -27.4034  -29.7370   25.4734 H   0  0  0  0  0  0
  -27.8731  -30.4446   23.9441 H   0  0  0  0  0  0
  -27.2544  -33.3789   26.2042 H   0  0  0  0  0  0
  -28.3796  -32.7005   25.0391 H   0  0  0  0  0  0
  -28.0620  -31.8668   26.5527 H   0  0  0  0  0  0
  -28.2569  -38.0138   24.7513 H   0  0  0  0  0  0
  -28.1061  -36.2653   24.6228 H   0  0  0  0  0  0
  -27.2280  -37.1425   25.8862 H   0  0  0  0  0  0
  -20.9399  -29.8897   21.6953 H   0  0  0  0  0  0
  -26.0151  -38.2880   24.1462 H   0  0  0  0  0  0
  -27.0594  -22.5080   21.5066 H   0  0  0  0  0  0
  -27.3458  -17.2319   21.3589 H   0  0  0  0  0  0
  -26.7683  -17.8014   22.9062 H   0  0  0  0  0  0
  -28.4790  -17.5119   22.6967 H   0  0  0  0  0  0
  -22.5647  -19.4959   23.3264 H   0  0  0  0  0  0
  -23.2873  -20.7208   24.3496 H   0  0  0  0  0  0
  -23.8367  -19.0467   24.4572 H   0  0  0  0  0  0
  -26.9683  -21.9755   24.3994 H   0  0  0  0  0  0
  -25.3154  -21.6933   24.9109 H   0  0  0  0  0  0
  -25.6295  -22.5901   23.4373 H   0  0  0  0  0  0
  -30.5607  -25.1385   20.8550 H   0  0  0  0  0  0
  -29.7348  -24.2667   22.1514 H   0  0  0  0  0  0
  -29.6722  -26.0251   22.0944 H   0  0  0  0  0  0
  -31.3496  -19.6728   21.7746 H   0  0  0  0  0  0
  -31.8175  -18.0511   21.2579 H   0  0  0  0  0  0
  -30.5094  -18.2702   22.4051 H   0  0  0  0  0  0
  -31.0858  -20.4241   19.4457 H   0  0  0  0  0  0
  -30.0397  -19.5611   18.3106 H   0  0  0  0  0  0
  -31.5548  -18.8607   18.8537 H   0  0  0  0  0  0
  -24.2241  -20.8950   22.0223 H   0  0  0  0  0  0
  -24.6347  -19.1952   22.0608 H   0  0  0  0  0  0
  -27.4193  -23.5359   19.3235 H   0  0  0  0  0  0
  -28.9265  -24.1236   18.7540 H   0  0  0  0  0  0
  -30.1376  -22.5394   20.5074 H   0  0  0  0  0  0
  -29.5197  -21.9537   19.0048 H   0  0  0  0  0  0
  -30.3496  -17.0266   19.0161 H   0  0  0  0  0  0
  -28.6924  -17.2014   19.3655 H   0  0  0  0  0  0
  -26.2197  -19.6408   23.9573 H   0  0  0  0  0  0
  -27.5552  -24.9574   21.3001 H   0  0  0  0  0  0
  -28.9331  -15.6949   21.1640 H   0  0  0  0  0  0
  1 25  1  0  0  0
  1 30  2  0  0  0
  1 89  1  0  0  0
  2  3  1  0  0  0
  2 25  1  0  0  0
  2 90  1  0  0  0
  2 91  1  0  0  0
  3  4  1  0  0  0
  3 92  1  0  0  0
  3 93  1  0  0  0
  4  5  1  0  0  0
  4 94  1  0  0  0
  4 95  1  0  0  0
  5  6  1  0  0  0
  5 26  1  0  0  0
  5 96  1  0  0  0
  6 25  1  0  0  0
  6 97  1  0  0  0
  6 98  1  0  0  0
  7  8  2  0  0  0
  7 26  1  0  0  0
  7 29  1  0  0  0
  8  9  1  0  0  0
  8 22  1  0  0  0
  9 10  1  0  0  0
  9 27  2  0  0  0
 10 11  2  0  0  0
 10 15  1  0  0  0
 11 12  1  0  0  0
 11 99  1  0  0  0
 12 13  2  0  0  0
 12100  1  0  0  0
 13 14  1  0  0  0
 13 31  1  0  0  0
 14 15  2  0  0  0
 14101  1  0  0  0
 15102  1  0  0  0
 16 17  2  0  0  0
 16 21  1  0  0  0
 16 31  1  0  0  0
 17 18  1  0  0  0
 17103  1  0  0  0
 18 19  2  0  0  0
 18104  1  0  0  0
 19 20  1  0  0  0
 19 24  1  0  0  0
 20 21  2  0  0  0
 20105  1  0  0  0
 21 23  1  0  0  0
 22 28  1  0  0  0
 22 32  2  0  0  0
 26 27  1  0  0  0
 28106  1  0  0  0
 28107  1  0  0  0
 29108  1  0  0  0
 29109  1  0  0  0
 33 34  1  0  0  0
 33 66  1  0  0  0
 33 70  2  0  0  0
 34 36  1  0  0  0
 34 59  1  0  0  0
 34110  1  0  0  0
 35 44  2  0  0  0
 35 45  1  0  0  0
 35 68  1  0  0  0
 36 56  1  0  0  0
 36111  1  0  0  0
 37 39  1  0  0  0
 37 47  1  0  0  0
 37 66  1  0  0  0
 37112  1  0  0  0
 38 43  2  0  0  0
 38 46  1  0  0  0
 38 47  1  0  0  0
 39 64  1  0  0  0
 39 67  2  0  0  0
 40 52  1  0  0  0
 40 53  2  0  0  0
 40 58  1  0  0  0
 41113  1  0  0  0
 41114  1  0  0  0
 41115  1  0  0  0
 41 48  1  0  0  0
 42 43  1  0  0  0
 42 66  1  0  0  0
 42116  1  0  0  0
 42117  1  0  0  0
 43 44  1  0  0  0
 44118  1  0  0  0
 45 46  2  0  0  0
 45119  1  0  0  0
 46120  1  0  0  0
 47121  1  0  0  0
 47122  1  0  0  0
 48 56  1  0  0  0
 48 65  1  0  0  0
 48123  1  0  0  0
 49 50  1  0  0  0
 49 53  1  0  0  0
 49 64  1  0  0  0
 49124  1  0  0  0
 50 51  1  0  0  0
 50125  1  0  0  0
 50126  1  0  0  0
 51 52  1  0  0  0
 51127  1  0  0  0
 51128  1  0  0  0
 52129  1  0  0  0
 52130  1  0  0  0
 53 54  1  0  0  0
 54 55  2  0  0  0
 54131  1  0  0  0
 55 57  1  0  0  0
 55132  1  0  0  0
 56 69  2  0  0  0
 57 58  2  0  0  0
 57133  1  0  0  0
 58134  1  0  0  0
 59 60  1  0  0  0
 59 61  1  0  0  0
 59 62  1  0  0  0
 60135  1  0  0  0
 60136  1  0  0  0
 60137  1  0  0  0
 61138  1  0  0  0
 61139  1  0  0  0
 61140  1  0  0  0
 62141  1  0  0  0
 62142  1  0  0  0
 62143  1  0  0  0
 63 65  1  0  0  0
 63144  1  0  0  0
 63145  1  0  0  0
 63146  1  0  0  0
 64147  1  0  0  0
 65148  1  0  0  0
 68 86  1  0  0  0
 71 72  2  0  0  0
 71 88  1  0  0  0
 71149  1  0  0  0
 72 73  1  0  0  0
 72 85  1  0  0  0
 73 74  2  0  0  0
 73 75  1  0  0  0
 74 87  1  0  0  0
 74 88  1  0  0  0
 75150  1  0  0  0
 75151  1  0  0  0
 75152  1  0  0  0
 76 81  1  0  0  0
 76153  1  0  0  0
 76154  1  0  0  0
 76155  1  0  0  0
 77156  1  0  0  0
 77157  1  0  0  0
 77158  1  0  0  0
 77 85  1  0  0  0
 78159  1  0  0  0
 78160  1  0  0  0
 78161  1  0  0  0
 78 86  1  0  0  0
 79162  1  0  0  0
 79163  1  0  0  0
 79164  1  0  0  0
 79 87  1  0  0  0
 80 87  1  0  0  0
 80165  1  0  0  0
 80166  1  0  0  0
 80167  1  0  0  0
 81 85  1  0  0  0
 81168  1  0  0  0
 81169  1  0  0  0
 82 83  1  0  0  0
 82 86  1  0  0  0
 82170  1  0  0  0
 82171  1  0  0  0
 83 88  1  0  0  0
 83172  1  0  0  0
 83173  1  0  0  0
 84 87  1  0  0  0
 84 89  1  0  0  0
 84174  1  0  0  0
 84175  1  0  0  0
 85176  1  0  0  0
 86177  1  0  0  0
 89178  1  0  0  0
M  ISO  4   1 100  68 101  86 101  89 100
M  END
> <chiral flag>
0

> <version>
0

> <s_m_source_file>
/data/baiqing/PycharmProjects/Reinvent-master-3.2/result/LINK_invent/BTK/process_docking_weight1_custom_sum_contain_oxygen_bond_distance_aromatic_linkinvent_7_9_3/rearranged_h_0095.sdf

> <i_m_source_file_index>
80

> <r_mmod_Potential_Energy-OPLS-2005>
238.176452636719

> <r_mmod_Stretch_Energy-OPLS-2005>
157.729843139648

> <r_mmod_Bend_Energy-OPLS-2005>
254.778671264648

> <r_mmod_Torsional_Energy-OPLS-2005>
311.850250244141

> <r_mmod_Improper_Torsional_Energy-OPLS-2005>
9.05079650878906

> <r_mmod_Van_der_Waal_Energy-OPLS-2005>
106.468307495117

> <r_mmod_Electrostatic_Energy-OPLS-2005>
-498.787750244141

> <r_mmod_Solvation_Energy-OPLS-2005>
-193.173004150391

> <b_mmod_Minimization_Converged-OPLS-2005>
0

> <r_mmod_RMS_Derivative-OPLS-2005>
4.83236312866211

$$$$
80
                    3D
 Structure written by MMmdl.
167175  0  0  1  0            999 V2000
  -30.7470  -14.5105   20.5786 C   0  0  0  0  0  0
  -30.4093  -12.3399   19.4368 C   0  0  0  0  0  0
  -29.4888  -12.4840   18.2101 C   0  0  0  0  0  0
  -28.0159  -12.3193   18.6257 C   0  0  0  0  0  0
  -27.6441  -13.1930   19.8494 C   0  0  2  0  0  0
  -28.6897  -13.0747   20.9850 C   0  0  0  0  0  0
  -25.2559  -13.8111   20.5667 C   0  0  0  0  0  0
  -24.1815  -13.0410   20.9196 C   0  0  0  0  0  0
  -24.6357  -11.6874   20.8753 C   0  0  0  0  0  0
  -23.9032  -10.4272   21.0422 C   0  0  0  0  0  0
  -24.3593   -9.4195   21.9197 C   0  0  0  0  0  0
  -23.6277   -8.2226   22.0764 C   0  0  0  0  0  0
  -22.4263   -8.0268   21.3545 C   0  0  0  0  0  0
  -21.9900   -9.0233   20.4645 C   0  0  0  0  0  0
  -22.7217  -10.2116   20.3059 C   0  0  0  0  0  0
  -21.6845   -6.0731   22.5282 C   0  0  0  0  0  0
  -21.4005   -6.5636   23.8211 C   0  0  0  0  0  0
  -21.3657   -5.6794   24.9180 C   0  0  0  0  0  0
  -21.6045   -4.3054   24.7230 C   0  0  0  0  0  0
  -21.8820   -3.8148   23.4349 C   0  0  0  0  0  0
  -21.9185   -4.6964   22.3405 C   0  0  0  0  0  0
  -22.7851  -13.5230   21.1850 C   0  0  0  0  0  0
  -22.1660   -4.2150   21.0980 F   0  0  0  0  0  0
  -21.5631   -3.4541   25.7741 F   0  0  0  0  0  0
  -30.0171  -13.3652   20.4236 N   0  0  0  0  0  0
  -26.2935  -12.9235   20.3265 N   0  0  0  0  0  0
  -25.9264  -11.6422   20.5754 N   0  0  0  0  0  0
  -22.0466  -12.8222   22.0388 N   0  0  0  0  0  0
  -25.4291  -15.1833   20.4070 N   0  0  0  0  0  0
  -31.8847  -14.6109   20.1115 O   0  0  0  0  0  0
  -21.6627   -6.8869   21.4240 O   0  0  0  0  0  0
  -22.3557  -14.5550   20.6712 O   0  0  0  0  0  0
  -24.6183  -31.8674   23.2105 C   0  0  0  0  0  0
  -25.9067  -32.4827   23.8396 C   0  0  1  0  0  0
  -27.2187  -27.3872   20.1020 C   0  0  0  0  0  0
  -25.5925  -33.8627   24.2330 N   0  0  0  0  0  0
  -23.4056  -30.4944   21.5527 C   0  0  2  0  0  0
  -24.8483  -28.9617   20.1126 C   0  0  0  0  0  0
  -22.7421  -29.4663   22.4987 C   0  0  0  0  0  0
  -18.0274  -28.1389   22.8480 C   0  0  0  0  0  0
  -24.1497  -36.7298   23.2638 C   0  0  0  0  0  0
  -25.9420  -30.8169   21.3734 C   0  0  0  0  0  0
  -26.0118  -29.4499   20.7185 C   0  0  0  0  0  0
  -27.1960  -28.6689   20.7132 C   0  0  0  0  0  0
  -26.0370  -26.9468   19.4563 C   0  0  0  0  0  0
  -24.8589  -27.7115   19.4778 C   0  0  0  0  0  0
  -23.6140  -29.8347   20.1654 C   0  0  0  0  0  0
  -25.4122  -36.3110   24.0335 C   0  0  1  0  0  0
  -20.5867  -28.3673   23.1312 C   0  0  2  0  0  0
  -20.6769  -26.9413   22.5409 C   0  0  0  0  0  0
  -19.5748  -26.6387   21.5208 C   0  0  0  0  0  0
  -18.1917  -26.7934   22.1612 C   0  0  0  0  0  0
  -19.1522  -28.8844   23.2889 C   0  0  0  0  0  0
  -18.9459  -30.1450   23.8910 C   0  0  0  0  0  0
  -17.6464  -30.6595   24.0570 C   0  0  0  0  0  0
  -25.9048  -34.9473   23.5126 C   0  0  0  0  0  0
  -16.5353  -29.9102   23.6338 C   0  0  0  0  0  0
  -16.7264  -28.6520   23.0352 C   0  0  0  0  0  0
  -26.4476  -31.6616   25.0733 C   0  0  0  0  0  0
  -25.3714  -31.3710   26.1460 C   0  0  0  0  0  0
  -27.0344  -30.3074   24.6116 C   0  0  0  0  0  0
  -27.6042  -32.4338   25.7504 C   0  0  0  0  0  0
  -27.5594  -37.1813   24.8470 C   0  0  0  0  0  0
  -21.4145  -29.3042   22.3728 N   0  0  0  0  0  0
  -26.4312  -37.3792   23.9407 N   0  0  0  0  0  0
  -24.6732  -31.0754   22.1018 N   0  0  0  0  0  0
  -23.4188  -28.8182   23.3012 O   0  0  0  0  0  0
  -28.3764  -26.6183   20.1637 O   0  0  0  0  0  0
  -26.5612  -34.8923   22.4685 O   0  0  0  0  0  0
  -23.5372  -32.1444   23.7489 O   0  0  0  0  0  0
  -29.4403  -19.0237   20.8517 C   0  0  0  0  0  0
  -30.3158  -20.1732   18.9204 C   0  0  0  0  0  0
  -29.7958  -20.2464   20.2246 C   0  0  0  0  0  0
  -29.5892  -17.7941   20.1533 C   0  0  0  0  0  0
  -30.0757  -17.8615   18.8236 C   0  0  0  0  0  0
  -30.2043  -16.6434   17.9241 C   0  0  0  0  0  0
  -30.5527  -24.7160   20.9297 C   0  0  0  0  0  0
  -28.3887  -24.2148   22.1188 C   0  0  0  0  0  0
  -31.1096  -16.2373   22.2393 C   0  0  0  0  0  0
  -29.6983  -21.6036   20.9507 C   0  0  0  0  0  0
  -29.1591  -16.4518   20.7980 C   0  0  0  0  0  0
  -29.0786  -22.7834   20.1267 C   0  0  0  0  0  0
  -28.3398  -25.2106   19.7984 C   0  0  0  0  0  0
  -29.1010  -24.2287   20.7516 C   0  0  0  0  0  0
  -30.4437  -19.0190   18.2380 N   0  0  0  0  0  0
  -30.2241  -15.5452   21.2978 N   0  0  0  0  0  0
  -31.4543  -12.4187   19.1314 H   0  0  0  0  0  0
  -30.3078  -11.3463   19.8755 H   0  0  0  0  0  0
  -29.7474  -11.7357   17.4590 H   0  0  0  0  0  0
  -29.6396  -13.4565   17.7393 H   0  0  0  0  0  0
  -27.8513  -11.2658   18.8558 H   0  0  0  0  0  0
  -27.3608  -12.5508   17.7856 H   0  0  0  0  0  0
  -27.6392  -14.2061   19.4651 H   0  0  0  0  0  0
  -28.6839  -12.0686   21.4063 H   0  0  0  0  0  0
  -28.4365  -13.7440   21.8087 H   0  0  0  0  0  0
  -25.2733   -9.5676   22.4773 H   0  0  0  0  0  0
  -23.9988   -7.4623   22.7484 H   0  0  0  0  0  0
  -21.0837   -8.8746   19.8938 H   0  0  0  0  0  0
  -22.3683  -10.9658   19.6166 H   0  0  0  0  0  0
  -21.1999   -7.6143   23.9721 H   0  0  0  0  0  0
  -21.1479   -6.0521   25.9081 H   0  0  0  0  0  0
  -22.0600   -2.7611   23.2851 H   0  0  0  0  0  0
  -22.4065  -11.9867   22.4764 H   0  0  0  0  0  0
  -21.1085  -13.1254   22.2579 H   0  0  0  0  0  0
  -24.6584  -15.8330   20.5193 H   0  0  0  0  0  0
  -26.2697  -15.6242   20.0589 H   0  0  0  0  0  0
  -26.7137  -32.5528   23.1154 H   0  0  0  0  0  0
  -25.0100  -33.9784   25.0494 H   0  0  0  0  0  0
  -22.6949  -31.3121   21.4171 H   0  0  0  0  0  0
  -23.3771  -35.9619   23.3302 H   0  0  0  0  0  0
  -24.3583  -36.8910   22.2052 H   0  0  0  0  0  0
  -23.7232  -37.6492   23.6656 H   0  0  0  0  0  0
  -26.0677  -31.5828   20.6064 H   0  0  0  0  0  0
  -26.8258  -30.8637   21.9974 H   0  0  0  0  0  0
  -28.0888  -29.0344   21.2005 H   0  0  0  0  0  0
  -25.9786  -26.0166   18.9137 H   0  0  0  0  0  0
  -23.9711  -27.3381   18.9860 H   0  0  0  0  0  0
  -23.7237  -30.6138   19.4103 H   0  0  0  0  0  0
  -22.7362  -29.2601   19.8671 H   0  0  0  0  0  0
  -25.1292  -36.1985   25.0830 H   0  0  0  0  0  0
  -20.9957  -28.3260   24.1435 H   0  0  0  0  0  0
  -20.5709  -26.2273   23.3589 H   0  0  0  0  0  0
  -21.6635  -26.7482   22.1188 H   0  0  0  0  0  0
  -19.6918  -25.6295   21.1248 H   0  0  0  0  0  0
  -19.6711  -27.3189   20.6729 H   0  0  0  0  0  0
  -17.4193  -26.6684   21.4008 H   0  0  0  0  0  0
  -18.0309  -26.0066   22.8999 H   0  0  0  0  0  0
  -19.7939  -30.7241   24.2303 H   0  0  0  0  0  0
  -17.5027  -31.6286   24.5150 H   0  0  0  0  0  0
  -15.5359  -30.3018   23.7647 H   0  0  0  0  0  0
  -15.8651  -28.0857   22.7075 H   0  0  0  0  0  0
  -24.5895  -30.7061   25.7765 H   0  0  0  0  0  0
  -24.8885  -32.2856   26.4913 H   0  0  0  0  0  0
  -25.8017  -30.8863   27.0231 H   0  0  0  0  0  0
  -26.2914  -29.6815   24.1157 H   0  0  0  0  0  0
  -27.4129  -29.7325   25.4575 H   0  0  0  0  0  0
  -27.8729  -30.4423   23.9275 H   0  0  0  0  0  0
  -27.2680  -33.3657   26.2063 H   0  0  0  0  0  0
  -28.3862  -32.6872   25.0332 H   0  0  0  0  0  0
  -28.0693  -31.8469   26.5435 H   0  0  0  0  0  0
  -28.2605  -38.0123   24.7545 H   0  0  0  0  0  0
  -28.1098  -36.2650   24.6275 H   0  0  0  0  0  0
  -27.2297  -37.1436   25.8868 H   0  0  0  0  0  0
  -20.9302  -29.8786   21.6978 H   0  0  0  0  0  0
  -26.0206  -38.2874   24.1392 H   0  0  0  0  0  0
  -29.0550  -19.0274   21.8622 H   0  0  0  0  0  0
  -30.6464  -21.0595   18.3998 H   0  0  0  0  0  0
  -29.3533  -15.9705   18.0205 H   0  0  0  0  0  0
  -31.1177  -16.0958   18.1493 H   0  0  0  0  0  0
  -30.2551  -16.9360   16.8746 H   0  0  0  0  0  0
  -31.1160  -24.0829   21.6152 H   0  0  0  0  0  0
  -30.5805  -25.7275   21.3379 H   0  0  0  0  0  0
  -31.0871  -24.7342   19.9797 H   0  0  0  0  0  0
  -28.9095  -23.5895   22.8443 H   0  0  0  0  0  0
  -27.3704  -23.8339   22.0314 H   0  0  0  0  0  0
  -28.3259  -25.2162   22.5450 H   0  0  0  0  0  0
  -30.5470  -16.8766   22.9205 H   0  0  0  0  0  0
  -31.8250  -16.8643   21.7041 H   0  0  0  0  0  0
  -31.6728  -15.5275   22.8475 H   0  0  0  0  0  0
  -30.7105  -21.8628   21.2592 H   0  0  0  0  0  0
  -29.1303  -21.4647   21.8706 H   0  0  0  0  0  0
  -28.5304  -15.9423   20.0817 H   0  0  0  0  0  0
  -28.4920  -16.6635   21.6350 H   0  0  0  0  0  0
  -28.0473  -22.5158   19.8912 H   0  0  0  0  0  0
  -29.5805  -22.8488   19.1621 H   0  0  0  0  0  0
  -27.3335  -24.8038   19.7493 H   0  0  0  0  0  0
  -28.7462  -25.1344   18.7896 H   0  0  0  0  0  0
  1 25  1  0  0  0
  1 30  2  0  0  0
  1 86  1  0  0  0
  2  3  1  0  0  0
  2 25  1  0  0  0
  2 87  1  0  0  0
  2 88  1  0  0  0
  3  4  1  0  0  0
  3 89  1  0  0  0
  3 90  1  0  0  0
  4  5  1  0  0  0
  4 91  1  0  0  0
  4 92  1  0  0  0
  5  6  1  0  0  0
  5 26  1  0  0  0
  5 93  1  0  0  0
  6 25  1  0  0  0
  6 94  1  0  0  0
  6 95  1  0  0  0
  7  8  2  0  0  0
  7 26  1  0  0  0
  7 29  1  0  0  0
  8  9  1  0  0  0
  8 22  1  0  0  0
  9 10  1  0  0  0
  9 27  2  0  0  0
 10 11  2  0  0  0
 10 15  1  0  0  0
 11 12  1  0  0  0
 11 96  1  0  0  0
 12 13  2  0  0  0
 12 97  1  0  0  0
 13 14  1  0  0  0
 13 31  1  0  0  0
 14 15  2  0  0  0
 14 98  1  0  0  0
 15 99  1  0  0  0
 16 17  2  0  0  0
 16 21  1  0  0  0
 16 31  1  0  0  0
 17 18  1  0  0  0
 17100  1  0  0  0
 18 19  2  0  0  0
 18101  1  0  0  0
 19 20  1  0  0  0
 19 24  1  0  0  0
 20 21  2  0  0  0
 20102  1  0  0  0
 21 23  1  0  0  0
 22 28  1  0  0  0
 22 32  2  0  0  0
 26 27  1  0  0  0
 28103  1  0  0  0
 28104  1  0  0  0
 29105  1  0  0  0
 29106  1  0  0  0
 33 34  1  0  0  0
 33 66  1  0  0  0
 33 70  2  0  0  0
 34 36  1  0  0  0
 34 59  1  0  0  0
 34107  1  0  0  0
 35 44  2  0  0  0
 35 45  1  0  0  0
 35 68  1  0  0  0
 36 56  1  0  0  0
 36108  1  0  0  0
 37 39  1  0  0  0
 37 47  1  0  0  0
 37 66  1  0  0  0
 37109  1  0  0  0
 38 43  2  0  0  0
 38 46  1  0  0  0
 38 47  1  0  0  0
 39 64  1  0  0  0
 39 67  2  0  0  0
 40 52  1  0  0  0
 40 53  2  0  0  0
 40 58  1  0  0  0
 41110  1  0  0  0
 41111  1  0  0  0
 41112  1  0  0  0
 41 48  1  0  0  0
 42 43  1  0  0  0
 42 66  1  0  0  0
 42113  1  0  0  0
 42114  1  0  0  0
 43 44  1  0  0  0
 44115  1  0  0  0
 45 46  2  0  0  0
 45116  1  0  0  0
 46117  1  0  0  0
 47118  1  0  0  0
 47119  1  0  0  0
 48 56  1  0  0  0
 48 65  1  0  0  0
 48120  1  0  0  0
 49 50  1  0  0  0
 49 53  1  0  0  0
 49 64  1  0  0  0
 49121  1  0  0  0
 50 51  1  0  0  0
 50122  1  0  0  0
 50123  1  0  0  0
 51 52  1  0  0  0
 51124  1  0  0  0
 51125  1  0  0  0
 52126  1  0  0  0
 52127  1  0  0  0
 53 54  1  0  0  0
 54 55  2  0  0  0
 54128  1  0  0  0
 55 57  1  0  0  0
 55129  1  0  0  0
 56 69  2  0  0  0
 57 58  2  0  0  0
 57130  1  0  0  0
 58131  1  0  0  0
 59 60  1  0  0  0
 59 61  1  0  0  0
 59 62  1  0  0  0
 60132  1  0  0  0
 60133  1  0  0  0
 60134  1  0  0  0
 61135  1  0  0  0
 61136  1  0  0  0
 61137  1  0  0  0
 62138  1  0  0  0
 62139  1  0  0  0
 62140  1  0  0  0
 63 65  1  0  0  0
 63141  1  0  0  0
 63142  1  0  0  0
 63143  1  0  0  0
 64144  1  0  0  0
 65145  1  0  0  0
 68 83  1  0  0  0
 71 73  2  0  0  0
 71 74  1  0  0  0
 71146  1  0  0  0
 72 73  1  0  0  0
 72 85  2  0  0  0
 72147  1  0  0  0
 73 80  1  0  0  0
 74 75  2  0  0  0
 74 81  1  0  0  0
 75 76  1  0  0  0
 75 85  1  0  0  0
 76148  1  0  0  0
 76149  1  0  0  0
 76150  1  0  0  0
 77151  1  0  0  0
 77152  1  0  0  0
 77153  1  0  0  0
 77 84  1  0  0  0
 78 84  1  0  0  0
 78154  1  0  0  0
 78155  1  0  0  0
 78156  1  0  0  0
 79 86  1  0  0  0
 79157  1  0  0  0
 79158  1  0  0  0
 79159  1  0  0  0
 80 82  1  0  0  0
 80160  1  0  0  0
 80161  1  0  0  0
 81 86  1  0  0  0
 81162  1  0  0  0
 81163  1  0  0  0
 82 84  1  0  0  0
 82164  1  0  0  0
 82165  1  0  0  0
 83 84  1  0  0  0
 83166  1  0  0  0
 83167  1  0  0  0
M  ISO  4   1 100  68 101  83 101  86 100
M  END
> <chiral flag>
0

> <version>
0

> <s_m_source_file>
/data/baiqing/PycharmProjects/Reinvent-master-3.2/result/LINK_invent/BTK/process_docking_weight1_custom_sum_contain_oxygen_bond_distance_aromatic_linkinvent_7_9_3/rearranged_h_0095.sdf

> <i_m_source_file_index>
81

> <r_mmod_Potential_Energy-OPLS-2005>
4.74811029434204

> <r_mmod_Stretch_Energy-OPLS-2005>
50.9060821533203

> <r_mmod_Bend_Energy-OPLS-2005>
125.378341674805

> <r_mmod_Torsional_Energy-OPLS-2005>
269.855743408203

> <r_mmod_Improper_Torsional_Energy-OPLS-2005>
4.32035493850708

> <r_mmod_Van_der_Waal_Energy-OPLS-2005>
155.340621948242

> <r_mmod_Electrostatic_Energy-OPLS-2005>
-419.941680908203

> <r_mmod_Solvation_Energy-OPLS-2005>
-205.888824462891

> <b_mmod_Minimization_Converged-OPLS-2005>
0

> <r_mmod_RMS_Derivative-OPLS-2005>
1.67636203765869

$$$$
81
                    3D
 Structure written by MMmdl.
174182  0  0  1  0            999 V2000
  -30.7170  -14.4336   20.6493 C   0  0  0  0  0  0
  -30.4227  -12.3168   19.4042 C   0  0  0  0  0  0
  -29.4860  -12.5182   18.1966 C   0  0  0  0  0  0
  -28.0133  -12.3580   18.6161 C   0  0  0  0  0  0
  -27.6597  -13.1999   19.8701 C   0  0  2  0  0  0
  -28.6950  -12.9642   20.9890 C   0  0  0  0  0  0
  -25.2598  -13.8142   20.5639 C   0  0  0  0  0  0
  -24.1841  -13.0437   20.9139 C   0  0  0  0  0  0
  -24.6377  -11.6891   20.8715 C   0  0  0  0  0  0
  -23.9051  -10.4281   21.0387 C   0  0  0  0  0  0
  -24.3604   -9.4206   21.9161 C   0  0  0  0  0  0
  -23.6275   -8.2247   22.0749 C   0  0  0  0  0  0
  -22.4256   -8.0285   21.3549 C   0  0  0  0  0  0
  -21.9896   -9.0246   20.4645 C   0  0  0  0  0  0
  -22.7221  -10.2119   20.3052 C   0  0  0  0  0  0
  -21.6864   -6.0727   22.5268 C   0  0  0  0  0  0
  -21.4007   -6.5629   23.8197 C   0  0  0  0  0  0
  -21.3667   -5.6783   24.9162 C   0  0  0  0  0  0
  -21.6066   -4.3049   24.7220 C   0  0  0  0  0  0
  -21.8826   -3.8141   23.4340 C   0  0  0  0  0  0
  -21.9186   -4.6953   22.3394 C   0  0  0  0  0  0
  -22.7876  -13.5246   21.1805 C   0  0  0  0  0  0
  -22.1667   -4.2142   21.0971 F   0  0  0  0  0  0
  -21.5634   -3.4535   25.7736 F   0  0  0  0  0  0
  -30.0298  -13.2765   20.4465 N   0  0  0  0  0  0
  -26.3011  -12.9287   20.3300 N   0  0  0  0  0  0
  -25.9285  -11.6456   20.5710 N   0  0  0  0  0  0
  -22.0531  -12.8241   22.0388 N   0  0  0  0  0  0
  -25.4371  -15.1850   20.4083 N   0  0  0  0  0  0
  -31.8167  -14.6586   20.1364 O   0  0  0  0  0  0
  -21.6645   -6.8866   21.4234 O   0  0  0  0  0  0
  -22.3576  -14.5555   20.6654 O   0  0  0  0  0  0
  -24.6116  -31.8687   23.2116 C   0  0  0  0  0  0
  -25.9007  -32.4828   23.8431 C   0  0  1  0  0  0
  -27.2511  -27.4516   20.1117 C   0  0  0  0  0  0
  -25.5893  -33.8635   24.2345 N   0  0  0  0  0  0
  -23.4034  -30.4854   21.5493 C   0  0  2  0  0  0
  -24.8568  -28.9504   20.1205 C   0  0  0  0  0  0
  -22.7439  -29.4592   22.5002 C   0  0  0  0  0  0
  -18.0262  -28.1356   22.8470 C   0  0  0  0  0  0
  -24.1493  -36.7320   23.2647 C   0  0  0  0  0  0
  -25.9294  -30.8409   21.3627 C   0  0  0  0  0  0
  -26.0119  -29.4722   20.7180 C   0  0  0  0  0  0
  -27.2133  -28.7306   20.7074 C   0  0  0  0  0  0
  -26.0839  -26.9342   19.5135 C   0  0  0  0  0  0
  -24.8887  -27.6792   19.5161 C   0  0  0  0  0  0
  -23.6147  -29.8130   20.1647 C   0  0  0  0  0  0
  -25.4111  -36.3128   24.0341 C   0  0  1  0  0  0
  -20.5850  -28.3612   23.1339 C   0  0  2  0  0  0
  -20.6743  -26.9351   22.5415 C   0  0  0  0  0  0
  -19.5728  -26.6363   21.5207 C   0  0  0  0  0  0
  -18.1896  -26.7893   22.1604 C   0  0  0  0  0  0
  -19.1513  -28.8799   23.2884 C   0  0  0  0  0  0
  -18.9438  -30.1409   23.8892 C   0  0  0  0  0  0
  -17.6438  -30.6562   24.0547 C   0  0  0  0  0  0
  -25.9043  -34.9489   23.5136 C   0  0  0  0  0  0
  -16.5327  -29.9060   23.6334 C   0  0  0  0  0  0
  -16.7244  -28.6481   23.0344 C   0  0  0  0  0  0
  -26.4439  -31.6600   25.0762 C   0  0  0  0  0  0
  -25.3690  -31.3698   26.1509 C   0  0  0  0  0  0
  -27.0234  -30.3051   24.6088 C   0  0  0  0  0  0
  -27.6034  -32.4308   25.7490 C   0  0  0  0  0  0
  -27.5570  -37.1810   24.8471 C   0  0  0  0  0  0
  -21.4154  -29.2989   22.3778 N   0  0  0  0  0  0
  -26.4301  -37.3804   23.9403 N   0  0  0  0  0  0
  -24.6660  -31.0794   22.1003 N   0  0  0  0  0  0
  -23.4213  -28.8109   23.3022 O   0  0  0  0  0  0
  -28.4294  -26.7452   20.0545 O   0  0  0  0  0  0
  -26.5603  -34.8927   22.4705 O   0  0  0  0  0  0
  -23.5307  -32.1401   23.7521 O   0  0  0  0  0  0
  -31.3646  -17.9331   19.8775 C   0  0  0  0  0  0
  -29.4371  -18.7574   21.0916 C   0  0  0  0  0  0
  -30.4540  -17.7899   20.9317 C   0  0  0  0  0  0
  -31.2408  -18.9866   18.9562 C   0  0  0  0  0  0
  -29.2820  -19.8419   20.1805 C   0  0  0  0  0  0
  -30.1735  -19.9203   19.0677 C   0  0  0  0  0  0
  -30.0141  -20.9753   17.9759 C   0  0  0  0  0  0
  -31.9840  -18.0978   16.7066 C   0  0  0  0  0  0
  -27.0503  -20.4089   21.3692 C   0  0  0  0  0  0
  -29.0178  -25.9897   22.2455 C   0  0  0  0  0  0
  -32.2861  -19.0690   17.8524 C   0  0  0  0  0  0
  -30.6147  -16.6198   21.9024 C   0  0  0  0  0  0
  -28.6805  -22.2873   20.8730 C   0  0  0  0  0  0
  -29.4878  -24.5653   20.1769 C   0  0  0  0  0  0
  -28.1571  -20.8884   20.4073 C   0  0  1  0  0  0
  -28.5111  -25.5618   20.8590 C   0  0  2  0  0  0
  -30.0895  -15.3394   21.4181 N   0  0  0  0  0  0
  -28.8738  -23.2707   19.7777 N   0  3  0  0  0  0
  -31.4630  -12.4368   19.0953 H   0  0  0  0  0  0
  -30.3435  -11.2976   19.7862 H   0  0  0  0  0  0
  -29.7256  -11.8041   17.4083 H   0  0  0  0  0  0
  -29.6423  -13.5104   17.7692 H   0  0  0  0  0  0
  -27.8399  -11.3008   18.8193 H   0  0  0  0  0  0
  -27.3527  -12.6170   17.7890 H   0  0  0  0  0  0
  -27.7081  -14.2484   19.5741 H   0  0  0  0  0  0
  -28.6689  -11.9230   21.3114 H   0  0  0  0  0  0
  -28.4335  -13.5424   21.8753 H   0  0  0  0  0  0
  -25.2754   -9.5681   22.4728 H   0  0  0  0  0  0
  -23.9991   -7.4654   22.7473 H   0  0  0  0  0  0
  -21.0835   -8.8756   19.8950 H   0  0  0  0  0  0
  -22.3672  -10.9653   19.6172 H   0  0  0  0  0  0
  -21.1988   -7.6134   23.9690 H   0  0  0  0  0  0
  -21.1495   -6.0517   25.9061 H   0  0  0  0  0  0
  -22.0593   -2.7601   23.2839 H   0  0  0  0  0  0
  -22.4166  -11.9889   22.4759 H   0  0  0  0  0  0
  -21.1153  -13.1271   22.2595 H   0  0  0  0  0  0
  -24.6785  -15.8472   20.5236 H   0  0  0  0  0  0
  -26.2976  -15.6183   20.0970 H   0  0  0  0  0  0
  -26.7080  -32.5544   23.1202 H   0  0  0  0  0  0
  -25.0074  -33.9838   25.0501 H   0  0  0  0  0  0
  -22.6899  -31.2987   21.4053 H   0  0  0  0  0  0
  -23.3766  -35.9646   23.3340 H   0  0  0  0  0  0
  -24.3600  -36.8925   22.2064 H   0  0  0  0  0  0
  -23.7225  -37.6525   23.6642 H   0  0  0  0  0  0
  -26.0430  -31.6057   20.5923 H   0  0  0  0  0  0
  -26.8197  -30.9017   21.9766 H   0  0  0  0  0  0
  -28.1098  -29.1341   21.1565 H   0  0  0  0  0  0
  -26.1095  -25.9650   19.0354 H   0  0  0  0  0  0
  -24.0025  -27.2750   19.0455 H   0  0  0  0  0  0
  -23.7177  -30.5881   19.4034 H   0  0  0  0  0  0
  -22.7454  -29.2227   19.8683 H   0  0  0  0  0  0
  -25.1268  -36.2024   25.0830 H   0  0  0  0  0  0
  -20.9889  -28.3138   24.1486 H   0  0  0  0  0  0
  -20.5646  -26.2191   23.3573 H   0  0  0  0  0  0
  -21.6609  -26.7401   22.1189 H   0  0  0  0  0  0
  -19.6904  -25.6297   21.1207 H   0  0  0  0  0  0
  -19.6694  -27.3204   20.6773 H   0  0  0  0  0  0
  -17.4160  -26.6635   21.4009 H   0  0  0  0  0  0
  -18.0289  -26.0032   22.8999 H   0  0  0  0  0  0
  -19.7920  -30.7207   24.2265 H   0  0  0  0  0  0
  -17.5009  -31.6256   24.5135 H   0  0  0  0  0  0
  -15.5331  -30.2956   23.7678 H   0  0  0  0  0  0
  -15.8635  -28.0809   22.7071 H   0  0  0  0  0  0
  -24.5898  -30.6998   25.7862 H   0  0  0  0  0  0
  -24.8816  -32.2826   26.4937 H   0  0  0  0  0  0
  -25.8036  -30.8901   27.0284 H   0  0  0  0  0  0
  -26.2755  -29.6873   24.1096 H   0  0  0  0  0  0
  -27.3991  -29.7234   25.4521 H   0  0  0  0  0  0
  -27.8602  -30.4421   23.9228 H   0  0  0  0  0  0
  -27.2703  -33.3634   26.2045 H   0  0  0  0  0  0
  -28.3813  -32.6824   25.0270 H   0  0  0  0  0  0
  -28.0703  -31.8424   26.5399 H   0  0  0  0  0  0
  -28.2598  -38.0100   24.7513 H   0  0  0  0  0  0
  -28.1036  -36.2624   24.6275 H   0  0  0  0  0  0
  -27.2291  -37.1461   25.8882 H   0  0  0  0  0  0
  -20.9314  -29.8774   21.7050 H   0  0  0  0  0  0
  -26.0200  -38.2886   24.1411 H   0  0  0  0  0  0
  -32.1731  -17.2214   19.7746 H   0  0  0  0  0  0
  -28.7746  -18.6459   21.9354 H   0  0  0  0  0  0
  -30.7012  -21.8058   18.1445 H   0  0  0  0  0  0
  -29.0046  -21.3663   17.8780 H   0  0  0  0  0  0
  -30.2309  -20.5492   16.9964 H   0  0  0  0  0  0
  -31.0063  -18.2922   16.2660 H   0  0  0  0  0  0
  -31.9852  -17.0685   17.0668 H   0  0  0  0  0  0
  -32.7319  -18.1779   15.9178 H   0  0  0  0  0  0
  -26.6577  -19.4345   21.0767 H   0  0  0  0  0  0
  -26.2085  -21.1037   21.3730 H   0  0  0  0  0  0
  -27.4041  -20.3369   22.3979 H   0  0  0  0  0  0
  -29.1666  -25.1299   22.8989 H   0  0  0  0  0  0
  -28.3113  -26.6561   22.7388 H   0  0  0  0  0  0
  -29.9687  -26.5172   22.1617 H   0  0  0  0  0  0
  -33.2597  -18.8257   18.2786 H   0  0  0  0  0  0
  -32.3939  -20.0889   17.4871 H   0  0  0  0  0  0
  -30.1133  -16.8549   22.8419 H   0  0  0  0  0  0
  -31.6710  -16.5116   22.1544 H   0  0  0  0  0  0
  -29.6108  -22.1666   21.4288 H   0  0  0  0  0  0
  -27.9716  -22.7344   21.5702 H   0  0  0  0  0  0
  -30.3616  -24.3753   20.8017 H   0  0  0  0  0  0
  -29.8800  -25.0232   19.2687 H   0  0  0  0  0  0
  -27.6304  -20.9993   19.4604 H   0  0  0  0  0  0
  -27.5289  -25.1026   20.9757 H   0  0  0  0  0  0
  -29.1773  -15.0787   21.7612 H   0  0  0  0  0  0
  -27.9921  -23.4525   19.3232 H   0  0  0  0  0  0
  -29.4786  -22.8430   19.0940 H   0  0  0  0  0  0
  1 25  1  0  0  0
  1 30  2  0  0  0
  1 87  1  0  0  0
  2  3  1  0  0  0
  2 25  1  0  0  0
  2 89  1  0  0  0
  2 90  1  0  0  0
  3  4  1  0  0  0
  3 91  1  0  0  0
  3 92  1  0  0  0
  4  5  1  0  0  0
  4 93  1  0  0  0
  4 94  1  0  0  0
  5  6  1  0  0  0
  5 26  1  0  0  0
  5 95  1  0  0  0
  6 25  1  0  0  0
  6 96  1  0  0  0
  6 97  1  0  0  0
  7  8  2  0  0  0
  7 26  1  0  0  0
  7 29  1  0  0  0
  8  9  1  0  0  0
  8 22  1  0  0  0
  9 10  1  0  0  0
  9 27  2  0  0  0
 10 11  2  0  0  0
 10 15  1  0  0  0
 11 12  1  0  0  0
 11 98  1  0  0  0
 12 13  2  0  0  0
 12 99  1  0  0  0
 13 14  1  0  0  0
 13 31  1  0  0  0
 14 15  2  0  0  0
 14100  1  0  0  0
 15101  1  0  0  0
 16 17  2  0  0  0
 16 21  1  0  0  0
 16 31  1  0  0  0
 17 18  1  0  0  0
 17102  1  0  0  0
 18 19  2  0  0  0
 18103  1  0  0  0
 19 20  1  0  0  0
 19 24  1  0  0  0
 20 21  2  0  0  0
 20104  1  0  0  0
 21 23  1  0  0  0
 22 28  1  0  0  0
 22 32  2  0  0  0
 26 27  1  0  0  0
 28105  1  0  0  0
 28106  1  0  0  0
 29107  1  0  0  0
 29108  1  0  0  0
 33 34  1  0  0  0
 33 66  1  0  0  0
 33 70  2  0  0  0
 34 36  1  0  0  0
 34 59  1  0  0  0
 34109  1  0  0  0
 35 44  2  0  0  0
 35 45  1  0  0  0
 35 68  1  0  0  0
 36 56  1  0  0  0
 36110  1  0  0  0
 37 39  1  0  0  0
 37 47  1  0  0  0
 37 66  1  0  0  0
 37111  1  0  0  0
 38 43  2  0  0  0
 38 46  1  0  0  0
 38 47  1  0  0  0
 39 64  1  0  0  0
 39 67  2  0  0  0
 40 52  1  0  0  0
 40 53  2  0  0  0
 40 58  1  0  0  0
 41112  1  0  0  0
 41113  1  0  0  0
 41114  1  0  0  0
 41 48  1  0  0  0
 42 43  1  0  0  0
 42 66  1  0  0  0
 42115  1  0  0  0
 42116  1  0  0  0
 43 44  1  0  0  0
 44117  1  0  0  0
 45 46  2  0  0  0
 45118  1  0  0  0
 46119  1  0  0  0
 47120  1  0  0  0
 47121  1  0  0  0
 48 56  1  0  0  0
 48 65  1  0  0  0
 48122  1  0  0  0
 49 50  1  0  0  0
 49 53  1  0  0  0
 49 64  1  0  0  0
 49123  1  0  0  0
 50 51  1  0  0  0
 50124  1  0  0  0
 50125  1  0  0  0
 51 52  1  0  0  0
 51126  1  0  0  0
 51127  1  0  0  0
 52128  1  0  0  0
 52129  1  0  0  0
 53 54  1  0  0  0
 54 55  2  0  0  0
 54130  1  0  0  0
 55 57  1  0  0  0
 55131  1  0  0  0
 56 69  2  0  0  0
 57 58  2  0  0  0
 57132  1  0  0  0
 58133  1  0  0  0
 59 60  1  0  0  0
 59 61  1  0  0  0
 59 62  1  0  0  0
 60134  1  0  0  0
 60135  1  0  0  0
 60136  1  0  0  0
 61137  1  0  0  0
 61138  1  0  0  0
 61139  1  0  0  0
 62140  1  0  0  0
 62141  1  0  0  0
 62142  1  0  0  0
 63 65  1  0  0  0
 63143  1  0  0  0
 63144  1  0  0  0
 63145  1  0  0  0
 64146  1  0  0  0
 65147  1  0  0  0
 68 86  1  0  0  0
 71 73  2  0  0  0
 71 74  1  0  0  0
 71148  1  0  0  0
 72 73  1  0  0  0
 72 75  2  0  0  0
 72149  1  0  0  0
 73 82  1  0  0  0
 74 76  2  0  0  0
 74 81  1  0  0  0
 75 76  1  0  0  0
 75 85  1  0  0  0
 76 77  1  0  0  0
 77150  1  0  0  0
 77151  1  0  0  0
 77152  1  0  0  0
 78 81  1  0  0  0
 78153  1  0  0  0
 78154  1  0  0  0
 78155  1  0  0  0
 79156  1  0  0  0
 79157  1  0  0  0
 79158  1  0  0  0
 79 85  1  0  0  0
 80159  1  0  0  0
 80160  1  0  0  0
 80161  1  0  0  0
 80 86  1  0  0  0
 81162  1  0  0  0
 81163  1  0  0  0
 82 87  1  0  0  0
 82164  1  0  0  0
 82165  1  0  0  0
 83 85  1  0  0  0
 83 88  1  0  0  0
 83166  1  0  0  0
 83167  1  0  0  0
 84 86  1  0  0  0
 84 88  1  0  0  0
 84168  1  0  0  0
 84169  1  0  0  0
 85170  1  0  0  0
 86171  1  0  0  0
 87172  1  0  0  0
 88173  1  0  0  0
 88174  1  0  0  0
M  CHG  1  88   1
M  ISO  4   1 100  68 101  86 101  87 100
M  END
> <chiral flag>
0

> <version>
0

> <s_m_source_file>
/data/baiqing/PycharmProjects/Reinvent-master-3.2/result/LINK_invent/BTK/process_docking_weight1_custom_sum_contain_oxygen_bond_distance_aromatic_linkinvent_7_9_3/rearranged_h_0095.sdf

> <i_m_source_file_index>
82

> <r_mmod_Potential_Energy-OPLS-2005>
-226.51676940918

> <r_mmod_Stretch_Energy-OPLS-2005>
41.1261596679688

> <r_mmod_Bend_Energy-OPLS-2005>
99.0009460449219

> <r_mmod_Torsional_Energy-OPLS-2005>
259.964935302734

> <r_mmod_Improper_Torsional_Energy-OPLS-2005>
2.0041618347168

> <r_mmod_Van_der_Waal_Energy-OPLS-2005>
154.110641479492

> <r_mmod_Electrostatic_Energy-OPLS-2005>
-358.4951171875

> <r_mmod_Solvation_Energy-OPLS-2005>
-433.3662109375

> <b_mmod_Minimization_Converged-OPLS-2005>
0

> <r_mmod_RMS_Derivative-OPLS-2005>
3.35763454437256

$$$$
82
                    3D
 Structure written by MMmdl.
181190  0  0  1  0            999 V2000
  -30.7705  -14.4080   20.6179 C   0  0  0  0  0  0
  -30.4098  -12.2888   19.4236 C   0  0  0  0  0  0
  -29.4920  -12.5081   18.2058 C   0  0  0  0  0  0
  -28.0097  -12.3845   18.6115 C   0  0  0  0  0  0
  -27.6614  -13.2156   19.8775 C   0  0  2  0  0  0
  -28.6988  -12.9861   20.9978 C   0  0  0  0  0  0
  -25.2567  -13.8190   20.5715 C   0  0  0  0  0  0
  -24.1832  -13.0451   20.9223 C   0  0  0  0  0  0
  -24.6382  -11.6923   20.8766 C   0  0  0  0  0  0
  -23.9066  -10.4305   21.0424 C   0  0  0  0  0  0
  -24.3612   -9.4197   21.9205 C   0  0  0  0  0  0
  -23.6299   -8.2223   22.0753 C   0  0  0  0  0  0
  -22.4273   -8.0275   21.3546 C   0  0  0  0  0  0
  -21.9913   -9.0241   20.4650 C   0  0  0  0  0  0
  -22.7239  -10.2132   20.3061 C   0  0  0  0  0  0
  -21.6813   -6.0737   22.5314 C   0  0  0  0  0  0
  -21.3960   -6.5650   23.8243 C   0  0  0  0  0  0
  -21.3680   -5.6809   24.9221 C   0  0  0  0  0  0
  -21.6071   -4.3076   24.7255 C   0  0  0  0  0  0
  -21.8813   -3.8154   23.4379 C   0  0  0  0  0  0
  -21.9152   -4.6966   22.3433 C   0  0  0  0  0  0
  -22.7858  -13.5270   21.1884 C   0  0  0  0  0  0
  -22.1651   -4.2163   21.1015 F   0  0  0  0  0  0
  -21.5645   -3.4577   25.7766 F   0  0  0  0  0  0
  -30.0373  -13.2713   20.4518 N   0  0  0  0  0  0
  -26.3016  -12.9390   20.3387 N   0  0  0  0  0  0
  -25.9313  -11.6529   20.5771 N   0  0  0  0  0  0
  -22.0444  -12.8284   22.0436 N   0  0  0  0  0  0
  -25.4255  -15.1935   20.4164 N   0  0  0  0  0  0
  -31.8519  -14.5722   20.0402 O   0  0  0  0  0  0
  -21.6611   -6.8882   21.4270 O   0  0  0  0  0  0
  -22.3586  -14.5556   20.6685 O   0  0  0  0  0  0
  -24.6130  -31.8723   23.2137 C   0  0  0  0  0  0
  -25.9041  -32.4845   23.8421 C   0  0  1  0  0  0
  -27.2250  -27.4611   20.0736 C   0  0  0  0  0  0
  -25.5915  -33.8644   24.2359 N   0  0  0  0  0  0
  -23.3967  -30.4996   21.5558 C   0  0  2  0  0  0
  -24.8363  -28.9707   20.1199 C   0  0  0  0  0  0
  -22.7402  -29.4689   22.5025 C   0  0  0  0  0  0
  -18.0268  -28.1373   22.8493 C   0  0  0  0  0  0
  -24.1490  -36.7330   23.2633 C   0  0  0  0  0  0
  -25.9246  -30.8459   21.3600 C   0  0  0  0  0  0
  -25.9976  -29.4817   20.7084 C   0  0  0  0  0  0
  -27.1950  -28.7333   20.6831 C   0  0  0  0  0  0
  -26.0330  -26.9540   19.4997 C   0  0  0  0  0  0
  -24.8458  -27.7035   19.5185 C   0  0  0  0  0  0
  -23.6008  -29.8368   20.1687 C   0  0  0  0  0  0
  -25.4108  -36.3133   24.0334 C   0  0  1  0  0  0
  -20.5862  -28.3668   23.1326 C   0  0  2  0  0  0
  -20.6764  -26.9410   22.5421 C   0  0  0  0  0  0
  -19.5744  -26.6388   21.5219 C   0  0  0  0  0  0
  -18.1918  -26.7918   22.1621 C   0  0  0  0  0  0
  -19.1517  -28.8836   23.2898 C   0  0  0  0  0  0
  -18.9442  -30.1437   23.8920 C   0  0  0  0  0  0
  -17.6448  -30.6581   24.0576 C   0  0  0  0  0  0
  -25.9030  -34.9492   23.5138 C   0  0  0  0  0  0
  -16.5341  -29.9089   23.6324 C   0  0  0  0  0  0
  -16.7255  -28.6507   23.0340 C   0  0  0  0  0  0
  -26.4477  -31.6616   25.0737 C   0  0  0  0  0  0
  -25.3749  -31.3727   26.1496 C   0  0  0  0  0  0
  -27.0289  -30.3061   24.6087 C   0  0  0  0  0  0
  -27.6067  -32.4323   25.7490 C   0  0  0  0  0  0
  -27.5586  -37.1819   24.8459 C   0  0  0  0  0  0
  -21.4137  -29.3041   22.3751 N   0  0  0  0  0  0
  -26.4300  -37.3812   23.9400 N   0  0  0  0  0  0
  -24.6634  -31.0860   22.1019 N   0  0  0  0  0  0
  -23.4186  -28.8208   23.3034 O   0  0  0  0  0  0
  -28.4190  -26.7717   20.0517 O   0  0  0  0  0  0
  -26.5585  -34.8939   22.4693 O   0  0  0  0  0  0
  -23.5331  -32.1461   23.7569 O   0  0  0  0  0  0
  -31.8584  -20.6983   22.4077 C   0  0  0  0  0  0
  -30.8899  -20.2772   21.5338 C   0  0  0  0  0  0
  -32.0925  -19.5942   23.2732 C   0  0  0  0  0  0
  -30.2067  -21.4595   17.8875 C   0  0  0  0  0  0
  -30.8621  -20.6437   19.0171 C   0  0  0  0  0  0
  -30.3352  -22.9716   18.1435 C   0  0  0  0  0  0
  -30.3600  -22.5533   20.5794 C   0  0  0  0  0  0
  -30.2560  -21.0210   20.3845 C   0  0  2  0  0  0
  -33.9498  -20.7164   24.5383 C   0  0  0  0  0  0
  -34.0078  -18.2466   24.1670 C   0  0  0  0  0  0
  -32.3109  -19.2491   25.7385 C   0  0  0  0  0  0
  -30.1088  -15.3727   22.7300 C   0  0  0  0  0  0
  -29.6848  -17.9884   21.2988 C   0  0  0  0  0  0
  -30.4797  -16.7918   20.7168 C   0  0  0  0  0  0
  -29.7840  -24.8028   19.7323 C   0  0  0  0  0  0
  -28.3778  -25.4020   19.6594 C   0  0  0  0  0  0
  -33.0780  -19.4520   24.4206 C   0  0  0  0  0  0
  -31.2960  -18.5840   22.9760 N   0  0  0  0  0  0
  -30.5872  -18.9694   21.8944 N   0  0  0  0  0  0
  -30.1861  -15.4461   21.2632 N   0  0  0  0  0  0
  -29.7606  -23.3367   19.4653 N   0  3  1  0  0  0
  -31.4580  -12.3593   19.1246 H   0  0  0  0  0  0
  -30.2876  -11.2786   19.8175 H   0  0  0  0  0  0
  -29.7271  -11.7738   17.4337 H   0  0  0  0  0  0
  -29.6840  -13.4895   17.7659 H   0  0  0  0  0  0
  -27.7986  -11.3304   18.7935 H   0  0  0  0  0  0
  -27.3686  -12.6836   17.7825 H   0  0  0  0  0  0
  -27.7133  -14.2675   19.5958 H   0  0  0  0  0  0
  -28.6594  -11.9526   21.3464 H   0  0  0  0  0  0
  -28.4494  -13.5928   21.8654 H   0  0  0  0  0  0
  -25.2744   -9.5670   22.4806 H   0  0  0  0  0  0
  -23.9991   -7.4601   22.7456 H   0  0  0  0  0  0
  -21.0845   -8.8742   19.8967 H   0  0  0  0  0  0
  -22.3678  -10.9653   19.6164 H   0  0  0  0  0  0
  -21.1913   -7.6138   23.9781 H   0  0  0  0  0  0
  -21.1536   -6.0519   25.9140 H   0  0  0  0  0  0
  -22.0556   -2.7604   23.2877 H   0  0  0  0  0  0
  -22.3952  -11.9929   22.4889 H   0  0  0  0  0  0
  -21.1031  -13.1328   22.2498 H   0  0  0  0  0  0
  -24.6676  -15.8519   20.5520 H   0  0  0  0  0  0
  -26.2846  -15.6373   20.1191 H   0  0  0  0  0  0
  -26.7123  -32.5562   23.1201 H   0  0  0  0  0  0
  -25.0117  -33.9824   25.0539 H   0  0  0  0  0  0
  -22.6819  -31.3145   21.4231 H   0  0  0  0  0  0
  -23.3750  -35.9664   23.3305 H   0  0  0  0  0  0
  -24.3593  -36.8933   22.2048 H   0  0  0  0  0  0
  -23.7244  -37.6537   23.6639 H   0  0  0  0  0  0
  -26.0307  -31.6125   20.5909 H   0  0  0  0  0  0
  -26.8152  -30.9020   21.9738 H   0  0  0  0  0  0
  -28.0955  -29.1354   21.1255 H   0  0  0  0  0  0
  -25.9848  -25.9886   19.0199 H   0  0  0  0  0  0
  -23.9481  -27.3015   19.0692 H   0  0  0  0  0  0
  -23.7116  -30.6137   19.4117 H   0  0  0  0  0  0
  -22.7241  -29.2584   19.8727 H   0  0  0  0  0  0
  -25.1287  -36.2004   25.0827 H   0  0  0  0  0  0
  -20.9943  -28.3228   24.1450 H   0  0  0  0  0  0
  -20.5695  -26.2274   23.3600 H   0  0  0  0  0  0
  -21.6626  -26.7471   22.1196 H   0  0  0  0  0  0
  -19.6904  -25.6304   21.1230 H   0  0  0  0  0  0
  -19.6673  -27.3216   20.6761 H   0  0  0  0  0  0
  -17.4194  -26.6681   21.4016 H   0  0  0  0  0  0
  -18.0299  -26.0058   22.9011 H   0  0  0  0  0  0
  -19.7921  -30.7250   24.2292 H   0  0  0  0  0  0
  -17.5004  -31.6266   24.5172 H   0  0  0  0  0  0
  -15.5337  -30.2998   23.7640 H   0  0  0  0  0  0
  -15.8649  -28.0834   22.7045 H   0  0  0  0  0  0
  -24.5901  -30.7102   25.7843 H   0  0  0  0  0  0
  -24.8970  -32.2887   26.4977 H   0  0  0  0  0  0
  -25.8103  -30.8871   27.0240 H   0  0  0  0  0  0
  -26.2822  -29.6836   24.1154 H   0  0  0  0  0  0
  -27.4087  -29.7292   25.4533 H   0  0  0  0  0  0
  -27.8648  -30.4397   23.9214 H   0  0  0  0  0  0
  -27.2697  -33.3604   26.2135 H   0  0  0  0  0  0
  -28.3841  -32.6925   25.0285 H   0  0  0  0  0  0
  -28.0786  -31.8406   26.5353 H   0  0  0  0  0  0
  -28.2613  -38.0113   24.7516 H   0  0  0  0  0  0
  -28.1075  -36.2646   24.6267 H   0  0  0  0  0  0
  -27.2309  -37.1451   25.8866 H   0  0  0  0  0  0
  -20.9289  -29.8792   21.7007 H   0  0  0  0  0  0
  -26.0192  -38.2890   24.1403 H   0  0  0  0  0  0
  -32.3495  -21.6610   22.4222 H   0  0  0  0  0  0
  -29.1523  -21.1949   17.7970 H   0  0  0  0  0  0
  -30.6653  -21.2100   16.9304 H   0  0  0  0  0  0
  -31.9362  -20.8369   19.0245 H   0  0  0  0  0  0
  -30.7436  -19.5757   18.8274 H   0  0  0  0  0  0
  -29.8206  -23.5210   17.3522 H   0  0  0  0  0  0
  -31.3836  -23.2723   18.0939 H   0  0  0  0  0  0
  -31.4043  -22.8489   20.6761 H   0  0  0  0  0  0
  -29.8640  -22.8236   21.5134 H   0  0  0  0  0  0
  -29.1950  -20.7664   20.3625 H   0  0  0  0  0  0
  -34.5134  -20.8982   23.6209 H   0  0  0  0  0  0
  -34.6698  -20.6249   25.3539 H   0  0  0  0  0  0
  -33.3470  -21.6038   24.7351 H   0  0  0  0  0  0
  -34.5872  -18.3772   23.2539 H   0  0  0  0  0  0
  -33.4425  -17.3185   24.0619 H   0  0  0  0  0  0
  -34.7062  -18.0994   24.9890 H   0  0  0  0  0  0
  -31.6296  -20.0782   25.9302 H   0  0  0  0  0  0
  -32.9877  -19.1790   26.5887 H   0  0  0  0  0  0
  -31.7197  -18.3318   25.7156 H   0  0  0  0  0  0
  -30.8454  -16.0262   23.1951 H   0  0  0  0  0  0
  -30.3176  -14.3725   23.1158 H   0  0  0  0  0  0
  -29.1239  -15.6700   23.0863 H   0  0  0  0  0  0
  -28.9567  -17.6864   22.0508 H   0  0  0  0  0  0
  -29.1131  -18.4645   20.5031 H   0  0  0  0  0  0
  -31.5513  -16.9796   20.8258 H   0  0  0  0  0  0
  -30.3107  -16.7782   19.6379 H   0  0  0  0  0  0
  -30.1951  -25.0102   20.7208 H   0  0  0  0  0  0
  -30.4403  -25.3232   19.0321 H   0  0  0  0  0  0
  -27.7066  -24.8579   20.3285 H   0  0  0  0  0  0
  -28.0062  -25.2993   18.6396 H   0  0  0  0  0  0
  -28.7888  -23.0670   19.4244 H   0  0  0  0  0  0
  1 25  1  0  0  0
  1 30  2  0  0  0
  1 90  1  0  0  0
  2  3  1  0  0  0
  2 25  1  0  0  0
  2 92  1  0  0  0
  2 93  1  0  0  0
  3  4  1  0  0  0
  3 94  1  0  0  0
  3 95  1  0  0  0
  4  5  1  0  0  0
  4 96  1  0  0  0
  4 97  1  0  0  0
  5  6  1  0  0  0
  5 26  1  0  0  0
  5 98  1  0  0  0
  6 25  1  0  0  0
  6 99  1  0  0  0
  6100  1  0  0  0
  7  8  2  0  0  0
  7 26  1  0  0  0
  7 29  1  0  0  0
  8  9  1  0  0  0
  8 22  1  0  0  0
  9 10  1  0  0  0
  9 27  2  0  0  0
 10 11  2  0  0  0
 10 15  1  0  0  0
 11 12  1  0  0  0
 11101  1  0  0  0
 12 13  2  0  0  0
 12102  1  0  0  0
 13 14  1  0  0  0
 13 31  1  0  0  0
 14 15  2  0  0  0
 14103  1  0  0  0
 15104  1  0  0  0
 16 17  2  0  0  0
 16 21  1  0  0  0
 16 31  1  0  0  0
 17 18  1  0  0  0
 17105  1  0  0  0
 18 19  2  0  0  0
 18106  1  0  0  0
 19 20  1  0  0  0
 19 24  1  0  0  0
 20 21  2  0  0  0
 20107  1  0  0  0
 21 23  1  0  0  0
 22 28  1  0  0  0
 22 32  2  0  0  0
 26 27  1  0  0  0
 28108  1  0  0  0
 28109  1  0  0  0
 29110  1  0  0  0
 29111  1  0  0  0
 33 34  1  0  0  0
 33 66  1  0  0  0
 33 70  2  0  0  0
 34 36  1  0  0  0
 34 59  1  0  0  0
 34112  1  0  0  0
 35 44  2  0  0  0
 35 45  1  0  0  0
 35 68  1  0  0  0
 36 56  1  0  0  0
 36113  1  0  0  0
 37 39  1  0  0  0
 37 47  1  0  0  0
 37 66  1  0  0  0
 37114  1  0  0  0
 38 43  2  0  0  0
 38 46  1  0  0  0
 38 47  1  0  0  0
 39 64  1  0  0  0
 39 67  2  0  0  0
 40 52  1  0  0  0
 40 53  2  0  0  0
 40 58  1  0  0  0
 41115  1  0  0  0
 41116  1  0  0  0
 41117  1  0  0  0
 41 48  1  0  0  0
 42 43  1  0  0  0
 42 66  1  0  0  0
 42118  1  0  0  0
 42119  1  0  0  0
 43 44  1  0  0  0
 44120  1  0  0  0
 45 46  2  0  0  0
 45121  1  0  0  0
 46122  1  0  0  0
 47123  1  0  0  0
 47124  1  0  0  0
 48 56  1  0  0  0
 48 65  1  0  0  0
 48125  1  0  0  0
 49 50  1  0  0  0
 49 53  1  0  0  0
 49 64  1  0  0  0
 49126  1  0  0  0
 50 51  1  0  0  0
 50127  1  0  0  0
 50128  1  0  0  0
 51 52  1  0  0  0
 51129  1  0  0  0
 51130  1  0  0  0
 52131  1  0  0  0
 52132  1  0  0  0
 53 54  1  0  0  0
 54 55  2  0  0  0
 54133  1  0  0  0
 55 57  1  0  0  0
 55134  1  0  0  0
 56 69  2  0  0  0
 57 58  2  0  0  0
 57135  1  0  0  0
 58136  1  0  0  0
 59 60  1  0  0  0
 59 61  1  0  0  0
 59 62  1  0  0  0
 60137  1  0  0  0
 60138  1  0  0  0
 60139  1  0  0  0
 61140  1  0  0  0
 61141  1  0  0  0
 61142  1  0  0  0
 62143  1  0  0  0
 62144  1  0  0  0
 62145  1  0  0  0
 63 65  1  0  0  0
 63146  1  0  0  0
 63147  1  0  0  0
 63148  1  0  0  0
 64149  1  0  0  0
 65150  1  0  0  0
 68 86  1  0  0  0
 71 72  2  0  0  0
 71 73  1  0  0  0
 71151  1  0  0  0
 72 89  1  0  0  0
 72 78  1  0  0  0
 73 87  1  0  0  0
 73 88  2  0  0  0
 74 75  1  0  0  0
 74 76  1  0  0  0
 74152  1  0  0  0
 74153  1  0  0  0
 75 78  1  0  0  0
 75154  1  0  0  0
 75155  1  0  0  0
 76 91  1  0  0  0
 76156  1  0  0  0
 76157  1  0  0  0
 77 78  1  0  0  0
 77 91  1  0  0  0
 77158  1  0  0  0
 77159  1  0  0  0
 78160  1  0  0  0
 79161  1  0  0  0
 79162  1  0  0  0
 79163  1  0  0  0
 79 87  1  0  0  0
 80 87  1  0  0  0
 80164  1  0  0  0
 80165  1  0  0  0
 80166  1  0  0  0
 81 87  1  0  0  0
 81167  1  0  0  0
 81168  1  0  0  0
 81169  1  0  0  0
 82 90  1  0  0  0
 82170  1  0  0  0
 82171  1  0  0  0
 82172  1  0  0  0
 83 84  1  0  0  0
 83 89  1  0  0  0
 83173  1  0  0  0
 83174  1  0  0  0
 84 90  1  0  0  0
 84175  1  0  0  0
 84176  1  0  0  0
 85 86  1  0  0  0
 85177  1  0  0  0
 85178  1  0  0  0
 85 91  1  0  0  0
 86179  1  0  0  0
 86180  1  0  0  0
 88 89  1  0  0  0
 91181  1  0  0  0
M  CHG  1  91   1
M  ISO  4   1 100  68 101  86 101  90 100
M  END
> <chiral flag>
0

> <version>
0

> <s_m_source_file>
/data/baiqing/PycharmProjects/Reinvent-master-3.2/result/LINK_invent/BTK/process_docking_weight1_custom_sum_contain_oxygen_bond_distance_aromatic_linkinvent_7_9_3/rearranged_h_0095.sdf

> <i_m_source_file_index>
83

> <r_mmod_Potential_Energy-OPLS-2005>
-13.9991407394409

> <r_mmod_Stretch_Energy-OPLS-2005>
38.0097427368164

> <r_mmod_Bend_Energy-OPLS-2005>
113.118522644043

> <r_mmod_Torsional_Energy-OPLS-2005>
317.896911621094

> <r_mmod_Improper_Torsional_Energy-OPLS-2005>
7.62453985214233

> <r_mmod_Van_der_Waal_Energy-OPLS-2005>
152.654861450195

> <r_mmod_Electrostatic_Energy-OPLS-2005>
-223.318267822266

> <r_mmod_Solvation_Energy-OPLS-2005>
-430.105743408203

> <b_mmod_Minimization_Converged-OPLS-2005>
0

> <r_mmod_RMS_Derivative-OPLS-2005>
4.03713274002075

$$$$
83
                    3D
 Structure written by MMmdl.
177185  0  0  1  0            999 V2000
  -30.6941  -14.4033   20.6442 C   0  0  0  0  0  0
  -30.4234  -12.2962   19.3942 C   0  0  0  0  0  0
  -29.4851  -12.5310   18.1945 C   0  0  0  0  0  0
  -28.0081  -12.3707   18.6059 C   0  0  0  0  0  0
  -27.6620  -13.1886   19.8760 C   0  0  2  0  0  0
  -28.6966  -12.9155   20.9879 C   0  0  0  0  0  0
  -25.2602  -13.8030   20.5667 C   0  0  0  0  0  0
  -24.1853  -13.0369   20.9230 C   0  0  0  0  0  0
  -24.6434  -11.6846   20.8764 C   0  0  0  0  0  0
  -23.9120  -10.4256   21.0423 C   0  0  0  0  0  0
  -24.3683   -9.4162   21.9180 C   0  0  0  0  0  0
  -23.6316   -8.2222   22.0754 C   0  0  0  0  0  0
  -22.4256   -8.0331   21.3604 C   0  0  0  0  0  0
  -21.9960   -9.0275   20.4661 C   0  0  0  0  0  0
  -22.7318  -10.2119   20.3063 C   0  0  0  0  0  0
  -21.6869   -6.0776   22.5294 C   0  0  0  0  0  0
  -21.3994   -6.5663   23.8221 C   0  0  0  0  0  0
  -21.3650   -5.6821   24.9181 C   0  0  0  0  0  0
  -21.6057   -4.3078   24.7249 C   0  0  0  0  0  0
  -21.8819   -3.8188   23.4341 C   0  0  0  0  0  0
  -21.9181   -4.7014   22.3416 C   0  0  0  0  0  0
  -22.7887  -13.5184   21.1891 C   0  0  0  0  0  0
  -22.1656   -4.2202   21.0996 F   0  0  0  0  0  0
  -21.5641   -3.4558   25.7758 F   0  0  0  0  0  0
  -30.0370  -13.2308   20.4576 N   0  0  0  0  0  0
  -26.3027  -12.9196   20.3331 N   0  0  0  0  0  0
  -25.9338  -11.6393   20.5781 N   0  0  0  0  0  0
  -22.0540  -12.8101   22.0410 N   0  0  0  0  0  0
  -25.4325  -15.1685   20.3987 N   0  0  0  0  0  0
  -31.7528  -14.6947   20.0840 O   0  0  0  0  0  0
  -21.6637   -6.8926   21.4273 O   0  0  0  0  0  0
  -22.3591  -14.5520   20.6767 O   0  0  0  0  0  0
  -24.6156  -31.8689   23.2041 C   0  0  0  0  0  0
  -25.9051  -32.4830   23.8345 C   0  0  1  0  0  0
  -27.2440  -27.4405   20.0633 C   0  0  0  0  0  0
  -25.5914  -33.8627   24.2299 N   0  0  0  0  0  0
  -23.4032  -30.4904   21.5457 C   0  0  2  0  0  0
  -24.8463  -28.9459   20.1236 C   0  0  0  0  0  0
  -22.7391  -29.4697   22.4965 C   0  0  0  0  0  0
  -18.0283  -28.1370   22.8470 C   0  0  0  0  0  0
  -24.1515  -36.7307   23.2627 C   0  0  0  0  0  0
  -25.9320  -30.8247   21.3644 C   0  0  0  0  0  0
  -26.0074  -29.4567   20.7186 C   0  0  0  0  0  0
  -27.2054  -28.7061   20.6936 C   0  0  0  0  0  0
  -26.0578  -26.9387   19.4819 C   0  0  0  0  0  0
  -24.8642  -27.6799   19.5119 C   0  0  0  0  0  0
  -23.6101  -29.8112   20.1671 C   0  0  0  0  0  0
  -25.4134  -36.3109   24.0329 C   0  0  1  0  0  0
  -20.5863  -28.3672   23.1270 C   0  0  2  0  0  0
  -20.6780  -26.9406   22.5384 C   0  0  0  0  0  0
  -19.5772  -26.6381   21.5172 C   0  0  0  0  0  0
  -18.1944  -26.7920   22.1581 C   0  0  0  0  0  0
  -19.1538  -28.8825   23.2879 C   0  0  0  0  0  0
  -18.9471  -30.1426   23.8910 C   0  0  0  0  0  0
  -17.6485  -30.6579   24.0558 C   0  0  0  0  0  0
  -25.9057  -34.9483   23.5109 C   0  0  0  0  0  0
  -16.5366  -29.9088   23.6322 C   0  0  0  0  0  0
  -16.7287  -28.6500   23.0346 C   0  0  0  0  0  0
  -26.4467  -31.6606   25.0691 C   0  0  0  0  0  0
  -25.3717  -31.3723   26.1431 C   0  0  0  0  0  0
  -27.0301  -30.3043   24.6089 C   0  0  0  0  0  0
  -27.6047  -32.4311   25.7467 C   0  0  0  0  0  0
  -27.5609  -37.1797   24.8450 C   0  0  0  0  0  0
  -21.4123  -29.3074   22.3686 N   0  0  0  0  0  0
  -26.4305  -37.3801   23.9422 N   0  0  0  0  0  0
  -24.6679  -31.0775   22.0951 N   0  0  0  0  0  0
  -23.4160  -28.8242   23.3012 O   0  0  0  0  0  0
  -28.4443  -26.7673   19.9484 O   0  0  0  0  0  0
  -26.5603  -34.8935   22.4672 O   0  0  0  0  0  0
  -23.5344  -32.1442   23.7418 O   0  0  0  0  0  0
  -30.3518  -18.6217   20.1284 C   0  0  0  0  0  0
  -29.7733  -17.6151   20.8454 C   0  0  0  0  0  0
  -28.1447  -18.8331   19.9079 C   0  0  0  0  0  0
  -26.1051  -19.9723   20.8505 C   0  0  0  0  0  0
  -25.8329  -18.3880   18.9054 C   0  0  0  0  0  0
  -31.8243  -22.7320   19.5442 C   0  0  0  0  0  0
  -30.7929  -25.1595   18.1939 C   0  0  0  0  0  0
  -29.5518  -23.2811   17.1869 C   0  0  0  0  0  0
  -30.4342  -16.6197   21.7448 C   0  0  0  0  0  0
  -29.4611  -21.8333   19.9498 C   0  0  0  0  0  0
  -29.5484  -20.6609   18.9394 C   0  0  0  0  0  0
  -28.4037  -24.6716   18.8924 C   0  0  0  0  0  0
  -26.7717  -19.3902   19.5947 C   0  0  0  0  0  0
  -30.3222  -23.0922   19.6473 C   0  0  2  0  0  0
  -29.7799  -24.0386   18.5151 C   0  0  0  0  0  0
  -29.3415  -19.3829   19.6165 N   0  0  0  0  0  0
  -28.4154  -17.7547   20.6598 N   0  3  0  0  0  0
  -30.0599  -15.2497   21.4619 N   0  0  0  0  0  0
  -28.3235  -25.3438   20.1936 N   0  0  0  0  0  0
  -31.4647  -12.4254   19.0909 H   0  0  0  0  0  0
  -30.3436  -11.2716   19.7621 H   0  0  0  0  0  0
  -29.7254  -11.8484   17.3790 H   0  0  0  0  0  0
  -29.6417  -13.5430   17.8103 H   0  0  0  0  0  0
  -27.8044  -11.3119   18.7693 H   0  0  0  0  0  0
  -27.3604  -12.6776   17.7856 H   0  0  0  0  0  0
  -27.7182  -14.2426   19.6053 H   0  0  0  0  0  0
  -28.6650  -11.8649   21.2826 H   0  0  0  0  0  0
  -28.4314  -13.4639   21.8950 H   0  0  0  0  0  0
  -25.2839   -9.5608   22.4735 H   0  0  0  0  0  0
  -24.0066   -7.4578   22.7401 H   0  0  0  0  0  0
  -21.0955   -8.8777   19.8887 H   0  0  0  0  0  0
  -22.3828  -10.9666   19.6167 H   0  0  0  0  0  0
  -21.1960   -7.6159   23.9750 H   0  0  0  0  0  0
  -21.1470   -6.0542   25.9102 H   0  0  0  0  0  0
  -22.0603   -2.7660   23.2827 H   0  0  0  0  0  0
  -22.4255  -11.9735   22.4689 H   0  0  0  0  0  0
  -21.1162  -13.1040   22.2690 H   0  0  0  0  0  0
  -24.6045  -15.7533   20.3805 H   0  0  0  0  0  0
  -26.1673  -15.5079   19.7961 H   0  0  0  0  0  0
  -26.7119  -32.5526   23.1094 H   0  0  0  0  0  0
  -25.0113  -33.9792   25.0475 H   0  0  0  0  0  0
  -22.6941  -31.3054   21.3960 H   0  0  0  0  0  0
  -23.3790  -35.9621   23.3258 H   0  0  0  0  0  0
  -24.3614  -36.8959   22.2044 H   0  0  0  0  0  0
  -23.7231  -37.6491   23.6662 H   0  0  0  0  0  0
  -26.0481  -31.5816   20.5879 H   0  0  0  0  0  0
  -26.8197  -30.8795   21.9835 H   0  0  0  0  0  0
  -28.1111  -29.1007   21.1307 H   0  0  0  0  0  0
  -26.0495  -25.9785   18.9878 H   0  0  0  0  0  0
  -23.9706  -27.2763   19.0571 H   0  0  0  0  0  0
  -23.7090  -30.5723   19.3927 H   0  0  0  0  0  0
  -22.7378  -29.2203   19.8838 H   0  0  0  0  0  0
  -25.1307  -36.1960   25.0811 H   0  0  0  0  0  0
  -20.9970  -28.3261   24.1382 H   0  0  0  0  0  0
  -20.5644  -26.2297   23.3587 H   0  0  0  0  0  0
  -21.6664  -26.7432   22.1205 H   0  0  0  0  0  0
  -19.6945  -25.6279   21.1233 H   0  0  0  0  0  0
  -19.6730  -27.3169   20.6681 H   0  0  0  0  0  0
  -17.4209  -26.6640   21.3988 H   0  0  0  0  0  0
  -18.0379  -26.0057   22.8978 H   0  0  0  0  0  0
  -19.7951  -30.7218   24.2296 H   0  0  0  0  0  0
  -17.5056  -31.6270   24.5145 H   0  0  0  0  0  0
  -15.5380  -30.3017   23.7626 H   0  0  0  0  0  0
  -15.8676  -28.0832   22.7067 H   0  0  0  0  0  0
  -24.5895  -30.7075   25.7742 H   0  0  0  0  0  0
  -24.8905  -32.2891   26.4853 H   0  0  0  0  0  0
  -25.8053  -30.8892   27.0197 H   0  0  0  0  0  0
  -26.2849  -29.6799   24.1146 H   0  0  0  0  0  0
  -27.4062  -29.7288   25.4552 H   0  0  0  0  0  0
  -27.8683  -30.4346   23.9240 H   0  0  0  0  0  0
  -27.2682  -33.3604   26.2069 H   0  0  0  0  0  0
  -28.3860  -32.6877   25.0302 H   0  0  0  0  0  0
  -28.0714  -31.8414   26.5369 H   0  0  0  0  0  0
  -28.2562  -38.0158   24.7600 H   0  0  0  0  0  0
  -28.1179  -36.2695   24.6163 H   0  0  0  0  0  0
  -27.2340  -37.1299   25.8850 H   0  0  0  0  0  0
  -20.9267  -29.8802   21.6916 H   0  0  0  0  0  0
  -26.0197  -38.2870   24.1476 H   0  0  0  0  0  0
  -31.3963  -18.8820   20.0165 H   0  0  0  0  0  0
  -26.7498  -20.7020   21.3428 H   0  0  0  0  0  0
  -25.8722  -19.1915   21.5751 H   0  0  0  0  0  0
  -25.1707  -20.4758   20.6011 H   0  0  0  0  0  0
  -26.2849  -17.9442   18.0187 H   0  0  0  0  0  0
  -24.9073  -18.8753   18.5936 H   0  0  0  0  0  0
  -25.5488  -17.5831   19.5738 H   0  0  0  0  0  0
  -32.0976  -21.9636   20.2689 H   0  0  0  0  0  0
  -32.4608  -23.5928   19.7586 H   0  0  0  0  0  0
  -32.0997  -22.3623   18.5584 H   0  0  0  0  0  0
  -30.4099  -25.8299   17.4216 H   0  0  0  0  0  0
  -31.7294  -24.7582   17.8024 H   0  0  0  0  0  0
  -31.0330  -25.7642   19.0661 H   0  0  0  0  0  0
  -29.3615  -23.9735   16.3671 H   0  0  0  0  0  0
  -28.6724  -22.6416   17.2270 H   0  0  0  0  0  0
  -30.4063  -22.6699   16.8960 H   0  0  0  0  0  0
  -30.1607  -16.8539   22.7743 H   0  0  0  0  0  0
  -31.5160  -16.7475   21.6768 H   0  0  0  0  0  0
  -29.7862  -21.4666   20.9243 H   0  0  0  0  0  0
  -28.4169  -22.1018   20.1065 H   0  0  0  0  0  0
  -30.5324  -20.6108   18.4738 H   0  0  0  0  0  0
  -28.8408  -20.7368   18.1189 H   0  0  0  0  0  0
  -27.6588  -23.8780   18.9280 H   0  0  0  0  0  0
  -28.0718  -25.3390   18.0965 H   0  0  0  0  0  0
  -26.9214  -20.2027   18.8863 H   0  0  0  0  0  0
  -30.2857  -23.6766   20.5655 H   0  0  0  0  0  0
  -27.7032  -17.1789   21.0964 H   0  0  0  0  0  0
  -29.2341  -14.9013   21.9204 H   0  0  0  0  0  0
  -29.1332  -25.0891   20.7502 H   0  0  0  0  0  0
  1 25  1  0  0  0
  1 30  2  0  0  0
  1 88  1  0  0  0
  2  3  1  0  0  0
  2 25  1  0  0  0
  2 90  1  0  0  0
  2 91  1  0  0  0
  3  4  1  0  0  0
  3 92  1  0  0  0
  3 93  1  0  0  0
  4  5  1  0  0  0
  4 94  1  0  0  0
  4 95  1  0  0  0
  5  6  1  0  0  0
  5 26  1  0  0  0
  5 96  1  0  0  0
  6 25  1  0  0  0
  6 97  1  0  0  0
  6 98  1  0  0  0
  7  8  2  0  0  0
  7 26  1  0  0  0
  7 29  1  0  0  0
  8  9  1  0  0  0
  8 22  1  0  0  0
  9 10  1  0  0  0
  9 27  2  0  0  0
 10 11  2  0  0  0
 10 15  1  0  0  0
 11 12  1  0  0  0
 11 99  1  0  0  0
 12 13  2  0  0  0
 12100  1  0  0  0
 13 14  1  0  0  0
 13 31  1  0  0  0
 14 15  2  0  0  0
 14101  1  0  0  0
 15102  1  0  0  0
 16 17  2  0  0  0
 16 21  1  0  0  0
 16 31  1  0  0  0
 17 18  1  0  0  0
 17103  1  0  0  0
 18 19  2  0  0  0
 18104  1  0  0  0
 19 20  1  0  0  0
 19 24  1  0  0  0
 20 21  2  0  0  0
 20105  1  0  0  0
 21 23  1  0  0  0
 22 28  1  0  0  0
 22 32  2  0  0  0
 26 27  1  0  0  0
 28106  1  0  0  0
 28107  1  0  0  0
 29108  1  0  0  0
 29109  1  0  0  0
 33 34  1  0  0  0
 33 66  1  0  0  0
 33 70  2  0  0  0
 34 36  1  0  0  0
 34 59  1  0  0  0
 34110  1  0  0  0
 35 44  2  0  0  0
 35 45  1  0  0  0
 35 68  1  0  0  0
 36 56  1  0  0  0
 36111  1  0  0  0
 37 39  1  0  0  0
 37 47  1  0  0  0
 37 66  1  0  0  0
 37112  1  0  0  0
 38 43  2  0  0  0
 38 46  1  0  0  0
 38 47  1  0  0  0
 39 64  1  0  0  0
 39 67  2  0  0  0
 40 52  1  0  0  0
 40 53  2  0  0  0
 40 58  1  0  0  0
 41113  1  0  0  0
 41114  1  0  0  0
 41115  1  0  0  0
 41 48  1  0  0  0
 42 43  1  0  0  0
 42 66  1  0  0  0
 42116  1  0  0  0
 42117  1  0  0  0
 43 44  1  0  0  0
 44118  1  0  0  0
 45 46  2  0  0  0
 45119  1  0  0  0
 46120  1  0  0  0
 47121  1  0  0  0
 47122  1  0  0  0
 48 56  1  0  0  0
 48 65  1  0  0  0
 48123  1  0  0  0
 49 50  1  0  0  0
 49 53  1  0  0  0
 49 64  1  0  0  0
 49124  1  0  0  0
 50 51  1  0  0  0
 50125  1  0  0  0
 50126  1  0  0  0
 51 52  1  0  0  0
 51127  1  0  0  0
 51128  1  0  0  0
 52129  1  0  0  0
 52130  1  0  0  0
 53 54  1  0  0  0
 54 55  2  0  0  0
 54131  1  0  0  0
 55 57  1  0  0  0
 55132  1  0  0  0
 56 69  2  0  0  0
 57 58  2  0  0  0
 57133  1  0  0  0
 58134  1  0  0  0
 59 60  1  0  0  0
 59 61  1  0  0  0
 59 62  1  0  0  0
 60135  1  0  0  0
 60136  1  0  0  0
 60137  1  0  0  0
 61138  1  0  0  0
 61139  1  0  0  0
 61140  1  0  0  0
 62141  1  0  0  0
 62142  1  0  0  0
 62143  1  0  0  0
 63 65  1  0  0  0
 63144  1  0  0  0
 63145  1  0  0  0
 63146  1  0  0  0
 64147  1  0  0  0
 65148  1  0  0  0
 68 89  1  0  0  0
 71 72  2  0  0  0
 71 86  1  0  0  0
 71149  1  0  0  0
 72 79  1  0  0  0
 72 87  1  0  0  0
 73 83  1  0  0  0
 73 86  1  0  0  0
 73 87  2  0  0  0
 74150  1  0  0  0
 74151  1  0  0  0
 74152  1  0  0  0
 74 83  1  0  0  0
 75 83  1  0  0  0
 75153  1  0  0  0
 75154  1  0  0  0
 75155  1  0  0  0
 76156  1  0  0  0
 76157  1  0  0  0
 76158  1  0  0  0
 76 84  1  0  0  0
 77159  1  0  0  0
 77160  1  0  0  0
 77161  1  0  0  0
 77 85  1  0  0  0
 78 85  1  0  0  0
 78162  1  0  0  0
 78163  1  0  0  0
 78164  1  0  0  0
 79 88  1  0  0  0
 79165  1  0  0  0
 79166  1  0  0  0
 80 81  1  0  0  0
 80 84  1  0  0  0
 80167  1  0  0  0
 80168  1  0  0  0
 81 86  1  0  0  0
 81169  1  0  0  0
 81170  1  0  0  0
 82 85  1  0  0  0
 82 89  1  0  0  0
 82171  1  0  0  0
 82172  1  0  0  0
 83173  1  0  0  0
 84 85  1  0  0  0
 84174  1  0  0  0
 87175  1  0  0  0
 88176  1  0  0  0
 89177  1  0  0  0
M  CHG  1  87   1
M  ISO  4   1 100  68 101  88 100  89 101
M  END
> <chiral flag>
0

> <version>
0

> <s_m_source_file>
/data/baiqing/PycharmProjects/Reinvent-master-3.2/result/LINK_invent/BTK/process_docking_weight1_custom_sum_contain_oxygen_bond_distance_aromatic_linkinvent_7_9_3/rearranged_h_0095.sdf

> <i_m_source_file_index>
84

> <r_mmod_Potential_Energy-OPLS-2005>
-163.541564941406

> <r_mmod_Stretch_Energy-OPLS-2005>
36.406364440918

> <r_mmod_Bend_Energy-OPLS-2005>
110.884704589844

> <r_mmod_Torsional_Energy-OPLS-2005>
273.183258056641

> <r_mmod_Improper_Torsional_Energy-OPLS-2005>
6.24566173553467

> <r_mmod_Van_der_Waal_Energy-OPLS-2005>
136.569107055664

> <r_mmod_Electrostatic_Energy-OPLS-2005>
-324.47509765625

> <r_mmod_Solvation_Energy-OPLS-2005>
-412.091430664062

> <b_mmod_Minimization_Converged-OPLS-2005>
0

> <r_mmod_RMS_Derivative-OPLS-2005>
4.94777965545654

$$$$
84
                    3D
 Structure written by MMmdl.
178186  0  0  1  0            999 V2000
  -30.6765  -14.3911   20.5886 C   0  0  0  0  0  0
  -30.4322  -12.2508   19.4030 C   0  0  0  0  0  0
  -29.5013  -12.4782   18.1924 C   0  0  0  0  0  0
  -28.0208  -12.3288   18.6040 C   0  0  0  0  0  0
  -27.6731  -13.1522   19.8708 C   0  0  2  0  0  0
  -28.7083  -12.8708   20.9845 C   0  0  0  0  0  0
  -25.2716  -13.8008   20.5483 C   0  0  0  0  0  0
  -24.1956  -13.0407   20.9190 C   0  0  0  0  0  0
  -24.6445  -11.6826   20.8817 C   0  0  0  0  0  0
  -23.9114  -10.4239   21.0512 C   0  0  0  0  0  0
  -24.3601   -9.4129   21.9291 C   0  0  0  0  0  0
  -23.6231   -8.2195   22.0827 C   0  0  0  0  0  0
  -22.4241   -8.0286   21.3581 C   0  0  0  0  0  0
  -21.9972   -9.0263   20.4633 C   0  0  0  0  0  0
  -22.7350  -10.2103   20.3076 C   0  0  0  0  0  0
  -21.6815   -6.0748   22.5276 C   0  0  0  0  0  0
  -21.4001   -6.5678   23.8223 C   0  0  0  0  0  0
  -21.3647   -5.6858   24.9191 C   0  0  0  0  0  0
  -21.5997   -4.3104   24.7264 C   0  0  0  0  0  0
  -21.8797   -3.8152   23.4392 C   0  0  0  0  0  0
  -21.9170   -4.6956   22.3443 C   0  0  0  0  0  0
  -22.7950  -13.5186   21.1848 C   0  0  0  0  0  0
  -22.1618   -4.2099   21.1026 F   0  0  0  0  0  0
  -21.5631   -3.4621   25.7820 F   0  0  0  0  0  0
  -30.0518  -13.1945   20.4562 N   0  0  0  0  0  0
  -26.3098  -12.9060   20.3289 N   0  0  0  0  0  0
  -25.9337  -11.6313   20.5843 N   0  0  0  0  0  0
  -22.0630  -12.8084   22.0344 N   0  0  0  0  0  0
  -25.4552  -15.1669   20.3340 N   0  0  0  0  0  0
  -31.7417  -14.6975   20.0438 O   0  0  0  0  0  0
  -21.6611   -6.8887   21.4245 O   0  0  0  0  0  0
  -22.3646  -14.5521   20.6728 O   0  0  0  0  0  0
  -24.6093  -31.8690   23.2156 C   0  0  0  0  0  0
  -25.9049  -32.4814   23.8372 C   0  0  1  0  0  0
  -27.2288  -27.4683   20.0836 C   0  0  0  0  0  0
  -25.5934  -33.8606   24.2312 N   0  0  0  0  0  0
  -23.3927  -30.4980   21.5528 C   0  0  2  0  0  0
  -24.8375  -28.9663   20.1241 C   0  0  0  0  0  0
  -22.7387  -29.4685   22.5002 C   0  0  0  0  0  0
  -18.0250  -28.1366   22.8474 C   0  0  0  0  0  0
  -24.1493  -36.7323   23.2638 C   0  0  0  0  0  0
  -25.9186  -30.8404   21.3722 C   0  0  0  0  0  0
  -25.9958  -29.4768   20.7223 C   0  0  0  0  0  0
  -27.1937  -28.7312   20.7082 C   0  0  0  0  0  0
  -26.0579  -26.9791   19.4647 C   0  0  0  0  0  0
  -24.8609  -27.7112   19.5035 C   0  0  0  0  0  0
  -23.5993  -29.8288   20.1687 C   0  0  0  0  0  0
  -25.4120  -36.3097   24.0329 C   0  0  1  0  0  0
  -20.5840  -28.3669   23.1315 C   0  0  2  0  0  0
  -20.6769  -26.9418   22.5406 C   0  0  0  0  0  0
  -19.5757  -26.6384   21.5199 C   0  0  0  0  0  0
  -18.1922  -26.7902   22.1598 C   0  0  0  0  0  0
  -19.1498  -28.8829   23.2877 C   0  0  0  0  0  0
  -18.9443  -30.1421   23.8909 C   0  0  0  0  0  0
  -17.6457  -30.6596   24.0546 C   0  0  0  0  0  0
  -25.9045  -34.9459   23.5104 C   0  0  0  0  0  0
  -16.5338  -29.9099   23.6311 C   0  0  0  0  0  0
  -16.7239  -28.6489   23.0365 C   0  0  0  0  0  0
  -26.4486  -31.6596   25.0694 C   0  0  0  0  0  0
  -25.3761  -31.3721   26.1452 C   0  0  0  0  0  0
  -27.0348  -30.3027   24.6134 C   0  0  0  0  0  0
  -27.6022  -32.4339   25.7480 C   0  0  0  0  0  0
  -27.5583  -37.1826   24.8464 C   0  0  0  0  0  0
  -21.4121  -29.3036   22.3742 N   0  0  0  0  0  0
  -26.4299  -37.3789   23.9396 N   0  0  0  0  0  0
  -24.6561  -31.0841   22.1034 N   0  0  0  0  0  0
  -23.4198  -28.8217   23.3001 O   0  0  0  0  0  0
  -28.4303  -26.8039   19.9913 O   0  0  0  0  0  0
  -26.5572  -34.8915   22.4636 O   0  0  0  0  0  0
  -23.5310  -32.1426   23.7614 O   0  0  0  0  0  0
  -28.1070  -19.5285   20.1134 C   0  0  0  0  0  0
  -27.3485  -20.6225   20.6066 C   0  0  0  0  0  0
  -27.8687  -18.4623   20.9412 C   0  0  0  0  0  0
  -26.7680  -20.2415   21.7802 C   0  0  0  0  0  0
  -28.9510  -19.5567   18.8575 C   0  0  0  0  0  0
  -25.8940  -21.0515   22.6919 C   0  0  0  0  0  0
  -28.3947  -24.3821   18.3144 C   0  0  0  0  0  0
  -27.4528  -17.0398   23.7495 C   0  0  0  0  0  0
  -25.1105  -17.6707   22.9095 C   0  0  0  0  0  0
  -27.1918  -21.9490   19.9247 C   0  0  0  0  0  0
  -28.1781  -23.0055   20.4399 C   0  0  0  0  0  0
  -29.7858  -16.7153   20.9906 C   0  0  0  0  0  0
  -28.5270  -25.5213   20.6036 C   0  0  0  0  0  0
  -28.2885  -17.0394   20.7175 C   0  0  2  0  0  0
  -27.9217  -24.3660   19.7800 C   0  0  1  0  0  0
  -26.5495  -18.1513   23.1729 C   0  0  0  0  0  0
  -27.0828  -18.9044   22.0180 N   0  0  0  0  0  0
  -29.9079  -15.2790   21.2210 N   0  0  0  0  0  0
  -27.8618  -16.6493   19.3705 N   0  3  0  0  0  0
  -31.4757  -12.3639   19.1171 H   0  0  0  0  0  0
  -30.3317  -11.2304   19.7782 H   0  0  0  0  0  0
  -29.7377  -11.7733   17.3918 H   0  0  0  0  0  0
  -29.6731  -13.4735   17.7870 H   0  0  0  0  0  0
  -27.8373  -11.2740   18.8083 H   0  0  0  0  0  0
  -27.3632  -12.5943   17.7730 H   0  0  0  0  0  0
  -27.7380  -14.1877   19.5716 H   0  0  0  0  0  0
  -28.6739  -11.8143   21.2502 H   0  0  0  0  0  0
  -28.4536  -13.3976   21.9059 H   0  0  0  0  0  0
  -25.2734   -9.5516   22.4868 H   0  0  0  0  0  0
  -23.9900   -7.4557   22.7556 H   0  0  0  0  0  0
  -21.0959   -8.8739   19.8875 H   0  0  0  0  0  0
  -22.3885  -10.9622   19.6123 H   0  0  0  0  0  0
  -21.2009   -7.6185   23.9705 H   0  0  0  0  0  0
  -21.1473   -6.0616   25.9092 H   0  0  0  0  0  0
  -22.0587   -2.7622   23.2940 H   0  0  0  0  0  0
  -22.4415  -11.9792   22.4673 H   0  0  0  0  0  0
  -21.1139  -13.0807   22.2404 H   0  0  0  0  0  0
  -24.6888  -15.3726   19.6970 H   0  0  0  0  0  0
  -25.1106  -15.6316   21.1652 H   0  0  0  0  0  0
  -26.7108  -32.5541   23.1118 H   0  0  0  0  0  0
  -25.0079  -33.9740   25.0460 H   0  0  0  0  0  0
  -22.6780  -31.3124   21.4162 H   0  0  0  0  0  0
  -23.3725  -35.9687   23.3299 H   0  0  0  0  0  0
  -24.3573  -36.8933   22.2051 H   0  0  0  0  0  0
  -23.7291  -37.6552   23.6638 H   0  0  0  0  0  0
  -26.0464  -31.6113   20.6113 H   0  0  0  0  0  0
  -26.7990  -30.8807   21.9982 H   0  0  0  0  0  0
  -28.0939  -29.1305   21.1545 H   0  0  0  0  0  0
  -26.0496  -26.0728   18.8847 H   0  0  0  0  0  0
  -23.9753  -27.3235   19.0212 H   0  0  0  0  0  0
  -23.7114  -30.5935   19.4009 H   0  0  0  0  0  0
  -22.7229  -29.2514   19.8697 H   0  0  0  0  0  0
  -25.1307  -36.1924   25.0823 H   0  0  0  0  0  0
  -20.9907  -28.3232   24.1446 H   0  0  0  0  0  0
  -20.5696  -26.2291   23.3594 H   0  0  0  0  0  0
  -21.6644  -26.7488   22.1193 H   0  0  0  0  0  0
  -19.6959  -25.6301   21.1221 H   0  0  0  0  0  0
  -19.6691  -27.3189   20.6723 H   0  0  0  0  0  0
  -17.4204  -26.6597   21.3993 H   0  0  0  0  0  0
  -18.0344  -26.0032   22.8980 H   0  0  0  0  0  0
  -19.7927  -30.7183   24.2341 H   0  0  0  0  0  0
  -17.5041  -31.6282   24.5131 H   0  0  0  0  0  0
  -15.5364  -30.3033   23.7670 H   0  0  0  0  0  0
  -15.8601  -28.0827   22.7157 H   0  0  0  0  0  0
  -24.5875  -30.7154   25.7778 H   0  0  0  0  0  0
  -24.9039  -32.2898   26.4954 H   0  0  0  0  0  0
  -25.8111  -30.8807   27.0160 H   0  0  0  0  0  0
  -26.2893  -29.6740   24.1255 H   0  0  0  0  0  0
  -27.4156  -29.7348   25.4636 H   0  0  0  0  0  0
  -27.8709  -30.4310   23.9260 H   0  0  0  0  0  0
  -27.2571  -33.3571   26.2141 H   0  0  0  0  0  0
  -28.3797  -32.7033   25.0323 H   0  0  0  0  0  0
  -28.0733  -31.8432   26.5343 H   0  0  0  0  0  0
  -28.2620  -38.0110   24.7482 H   0  0  0  0  0  0
  -28.1062  -36.2637   24.6311 H   0  0  0  0  0  0
  -27.2279  -37.1503   25.8864 H   0  0  0  0  0  0
  -20.9339  -29.8768   21.6923 H   0  0  0  0  0  0
  -26.0175  -38.2861   24.1373 H   0  0  0  0  0  0
  -29.3051  -20.5658   18.6541 H   0  0  0  0  0  0
  -28.3822  -19.2249   17.9878 H   0  0  0  0  0  0
  -29.8402  -18.9356   18.9570 H   0  0  0  0  0  0
  -25.8453  -22.0887   22.3622 H   0  0  0  0  0  0
  -26.2832  -21.0620   23.7103 H   0  0  0  0  0  0
  -24.8760  -20.6736   22.7105 H   0  0  0  0  0  0
  -28.0109  -23.5392   17.7381 H   0  0  0  0  0  0
  -29.4834  -24.3590   18.2549 H   0  0  0  0  0  0
  -28.0482  -25.2797   17.8045 H   0  0  0  0  0  0
  -27.2580  -16.9135   24.8139 H   0  0  0  0  0  0
  -28.5138  -17.2727   23.6551 H   0  0  0  0  0  0
  -27.2508  -16.0621   23.3142 H   0  0  0  0  0  0
  -24.7426  -17.0466   23.7265 H   0  0  0  0  0  0
  -25.0356  -17.1072   21.9855 H   0  0  0  0  0  0
  -24.4237  -18.5110   22.8257 H   0  0  0  0  0  0
  -26.1662  -22.2982   20.0557 H   0  0  0  0  0  0
  -27.3040  -21.7813   18.8537 H   0  0  0  0  0  0
  -29.2095  -22.6872   20.2823 H   0  0  0  0  0  0
  -28.0468  -23.1055   21.5184 H   0  0  0  0  0  0
  -30.1395  -17.2218   21.8908 H   0  0  0  0  0  0
  -30.4309  -17.0628   20.1813 H   0  0  0  0  0  0
  -28.0722  -25.5530   21.5951 H   0  0  0  0  0  0
  -29.5912  -25.3342   20.7610 H   0  0  0  0  0  0
  -27.6786  -16.3889   21.3279 H   0  0  0  0  0  0
  -26.8417  -24.4744   19.8032 H   0  0  0  0  0  0
  -26.4857  -18.8617   23.9961 H   0  0  0  0  0  0
  -29.1392  -14.8516   21.7200 H   0  0  0  0  0  0
  -28.4591  -15.9432   18.9831 H   0  0  0  0  0  0
  -27.8613  -17.4589   18.7777 H   0  0  0  0  0  0
  -26.9146  -16.2890   19.4415 H   0  0  0  0  0  0
  1 25  1  0  0  0
  1 30  2  0  0  0
  1 88  1  0  0  0
  2  3  1  0  0  0
  2 25  1  0  0  0
  2 90  1  0  0  0
  2 91  1  0  0  0
  3  4  1  0  0  0
  3 92  1  0  0  0
  3 93  1  0  0  0
  4  5  1  0  0  0
  4 94  1  0  0  0
  4 95  1  0  0  0
  5  6  1  0  0  0
  5 26  1  0  0  0
  5 96  1  0  0  0
  6 25  1  0  0  0
  6 97  1  0  0  0
  6 98  1  0  0  0
  7  8  2  0  0  0
  7 26  1  0  0  0
  7 29  1  0  0  0
  8  9  1  0  0  0
  8 22  1  0  0  0
  9 10  1  0  0  0
  9 27  2  0  0  0
 10 11  2  0  0  0
 10 15  1  0  0  0
 11 12  1  0  0  0
 11 99  1  0  0  0
 12 13  2  0  0  0
 12100  1  0  0  0
 13 14  1  0  0  0
 13 31  1  0  0  0
 14 15  2  0  0  0
 14101  1  0  0  0
 15102  1  0  0  0
 16 17  2  0  0  0
 16 21  1  0  0  0
 16 31  1  0  0  0
 17 18  1  0  0  0
 17103  1  0  0  0
 18 19  2  0  0  0
 18104  1  0  0  0
 19 20  1  0  0  0
 19 24  1  0  0  0
 20 21  2  0  0  0
 20105  1  0  0  0
 21 23  1  0  0  0
 22 28  1  0  0  0
 22 32  2  0  0  0
 26 27  1  0  0  0
 28106  1  0  0  0
 28107  1  0  0  0
 29108  1  0  0  0
 29109  1  0  0  0
 33 34  1  0  0  0
 33 66  1  0  0  0
 33 70  2  0  0  0
 34 36  1  0  0  0
 34 59  1  0  0  0
 34110  1  0  0  0
 35 44  2  0  0  0
 35 45  1  0  0  0
 35 68  1  0  0  0
 36 56  1  0  0  0
 36111  1  0  0  0
 37 39  1  0  0  0
 37 47  1  0  0  0
 37 66  1  0  0  0
 37112  1  0  0  0
 38 43  2  0  0  0
 38 46  1  0  0  0
 38 47  1  0  0  0
 39 64  1  0  0  0
 39 67  2  0  0  0
 40 52  1  0  0  0
 40 53  2  0  0  0
 40 58  1  0  0  0
 41113  1  0  0  0
 41114  1  0  0  0
 41115  1  0  0  0
 41 48  1  0  0  0
 42 43  1  0  0  0
 42 66  1  0  0  0
 42116  1  0  0  0
 42117  1  0  0  0
 43 44  1  0  0  0
 44118  1  0  0  0
 45 46  2  0  0  0
 45119  1  0  0  0
 46120  1  0  0  0
 47121  1  0  0  0
 47122  1  0  0  0
 48 56  1  0  0  0
 48 65  1  0  0  0
 48123  1  0  0  0
 49 50  1  0  0  0
 49 53  1  0  0  0
 49 64  1  0  0  0
 49124  1  0  0  0
 50 51  1  0  0  0
 50125  1  0  0  0
 50126  1  0  0  0
 51 52  1  0  0  0
 51127  1  0  0  0
 51128  1  0  0  0
 52129  1  0  0  0
 52130  1  0  0  0
 53 54  1  0  0  0
 54 55  2  0  0  0
 54131  1  0  0  0
 55 57  1  0  0  0
 55132  1  0  0  0
 56 69  2  0  0  0
 57 58  2  0  0  0
 57133  1  0  0  0
 58134  1  0  0  0
 59 60  1  0  0  0
 59 61  1  0  0  0
 59 62  1  0  0  0
 60135  1  0  0  0
 60136  1  0  0  0
 60137  1  0  0  0
 61138  1  0  0  0
 61139  1  0  0  0
 61140  1  0  0  0
 62141  1  0  0  0
 62142  1  0  0  0
 62143  1  0  0  0
 63 65  1  0  0  0
 63144  1  0  0  0
 63145  1  0  0  0
 63146  1  0  0  0
 64147  1  0  0  0
 65148  1  0  0  0
 68 83  1  0  0  0
 71 72  1  0  0  0
 71 73  2  0  0  0
 71 75  1  0  0  0
 72 74  2  0  0  0
 72 80  1  0  0  0
 73 84  1  0  0  0
 73 87  1  0  0  0
 74 76  1  0  0  0
 74 87  1  0  0  0
 75149  1  0  0  0
 75150  1  0  0  0
 75151  1  0  0  0
 76152  1  0  0  0
 76153  1  0  0  0
 76154  1  0  0  0
 77155  1  0  0  0
 77156  1  0  0  0
 77157  1  0  0  0
 77 85  1  0  0  0
 78158  1  0  0  0
 78159  1  0  0  0
 78160  1  0  0  0
 78 86  1  0  0  0
 79 86  1  0  0  0
 79161  1  0  0  0
 79162  1  0  0  0
 79163  1  0  0  0
 80 81  1  0  0  0
 80164  1  0  0  0
 80165  1  0  0  0
 81 85  1  0  0  0
 81166  1  0  0  0
 81167  1  0  0  0
 82 84  1  0  0  0
 82 88  1  0  0  0
 82168  1  0  0  0
 82169  1  0  0  0
 83 85  1  0  0  0
 83170  1  0  0  0
 83171  1  0  0  0
 84 89  1  0  0  0
 84172  1  0  0  0
 85173  1  0  0  0
 86 87  1  0  0  0
 86174  1  0  0  0
 88175  1  0  0  0
 89176  1  0  0  0
 89177  1  0  0  0
 89178  1  0  0  0
M  CHG  1  89   1
M  ISO  4   1 100  68 101  83 101  88 100
M  END
> <chiral flag>
0

> <version>
0

> <s_m_source_file>
/data/baiqing/PycharmProjects/Reinvent-master-3.2/result/LINK_invent/BTK/process_docking_weight1_custom_sum_contain_oxygen_bond_distance_aromatic_linkinvent_7_9_3/rearranged_h_0095.sdf

> <i_m_source_file_index>
85

> <r_mmod_Potential_Energy-OPLS-2005>
-321.975036621094

> <r_mmod_Stretch_Energy-OPLS-2005>
34.2468185424805

> <r_mmod_Bend_Energy-OPLS-2005>
126.044975280762

> <r_mmod_Torsional_Energy-OPLS-2005>
338.091186523438

> <r_mmod_Improper_Torsional_Energy-OPLS-2005>
14.3991003036499

> <r_mmod_Van_der_Waal_Energy-OPLS-2005>
140.23225402832

> <r_mmod_Electrostatic_Energy-OPLS-2005>
-552.102294921875

> <r_mmod_Solvation_Energy-OPLS-2005>
-434.579345703125

> <b_mmod_Minimization_Converged-OPLS-2005>
0

> <r_mmod_RMS_Derivative-OPLS-2005>
6.03382015228271

$$$$
85
                    3D
 Structure written by MMmdl.
179187  0  0  1  0            999 V2000
  -30.6770  -14.5095   20.5798 C   0  0  0  0  0  0
  -30.4265  -12.3334   19.4216 C   0  0  0  0  0  0
  -29.4931  -12.4997   18.2045 C   0  0  0  0  0  0
  -28.0162  -12.3512   18.6216 C   0  0  0  0  0  0
  -27.6559  -13.2044   19.8672 C   0  0  2  0  0  0
  -28.6969  -13.0003   20.9884 C   0  0  0  0  0  0
  -25.2577  -13.8156   20.5679 C   0  0  0  0  0  0
  -24.1836  -13.0438   20.9185 C   0  0  0  0  0  0
  -24.6387  -11.6901   20.8736 C   0  0  0  0  0  0
  -23.9054  -10.4289   21.0408 C   0  0  0  0  0  0
  -24.3609   -9.4208   21.9186 C   0  0  0  0  0  0
  -23.6288   -8.2245   22.0757 C   0  0  0  0  0  0
  -22.4270   -8.0277   21.3547 C   0  0  0  0  0  0
  -21.9909   -9.0251   20.4643 C   0  0  0  0  0  0
  -22.7232  -10.2131   20.3055 C   0  0  0  0  0  0
  -21.6846   -6.0733   22.5280 C   0  0  0  0  0  0
  -21.4013   -6.5637   23.8214 C   0  0  0  0  0  0
  -21.3660   -5.6791   24.9171 C   0  0  0  0  0  0
  -21.6045   -4.3055   24.7225 C   0  0  0  0  0  0
  -21.8819   -3.8148   23.4350 C   0  0  0  0  0  0
  -21.9196   -4.6961   22.3403 C   0  0  0  0  0  0
  -22.7863  -13.5242   21.1858 C   0  0  0  0  0  0
  -22.1661   -4.2150   21.0980 F   0  0  0  0  0  0
  -21.5632   -3.4537   25.7741 F   0  0  0  0  0  0
  -30.0195  -13.3256   20.4295 N   0  0  0  0  0  0
  -26.2991  -12.9312   20.3323 N   0  0  0  0  0  0
  -25.9305  -11.6477   20.5752 N   0  0  0  0  0  0
  -22.0503  -12.8220   22.0396 N   0  0  0  0  0  0
  -25.4318  -15.1872   20.4088 N   0  0  0  0  0  0
  -31.8184  -14.6946   20.1465 O   0  0  0  0  0  0
  -21.6635   -6.8876   21.4241 O   0  0  0  0  0  0
  -22.3549  -14.5552   20.6710 O   0  0  0  0  0  0
  -24.6169  -31.8643   23.2094 C   0  0  0  0  0  0
  -25.9058  -32.4790   23.8379 C   0  0  1  0  0  0
  -27.2232  -27.3896   20.0897 C   0  0  0  0  0  0
  -25.5915  -33.8595   24.2307 N   0  0  0  0  0  0
  -23.4049  -30.4892   21.5511 C   0  0  2  0  0  0
  -24.8478  -28.9516   20.1123 C   0  0  0  0  0  0
  -22.7407  -29.4636   22.4993 C   0  0  0  0  0  0
  -18.0255  -28.1348   22.8482 C   0  0  0  0  0  0
  -24.1471  -36.7299   23.2641 C   0  0  0  0  0  0
  -25.9385  -30.8094   21.3747 C   0  0  0  0  0  0
  -26.0094  -29.4440   20.7158 C   0  0  0  0  0  0
  -27.1964  -28.6687   20.7053 C   0  0  0  0  0  0
  -26.0386  -26.9287   19.4707 C   0  0  0  0  0  0
  -24.8579  -27.6943   19.4885 C   0  0  0  0  0  0
  -23.6143  -29.8243   20.1645 C   0  0  0  0  0  0
  -25.4103  -36.3099   24.0327 C   0  0  1  0  0  0
  -20.5850  -28.3638   23.1308 C   0  0  2  0  0  0
  -20.6753  -26.9373   22.5416 C   0  0  0  0  0  0
  -19.5742  -26.6348   21.5201 C   0  0  0  0  0  0
  -18.1909  -26.7901   22.1593 C   0  0  0  0  0  0
  -19.1512  -28.8809   23.2879 C   0  0  0  0  0  0
  -18.9451  -30.1423   23.8882 C   0  0  0  0  0  0
  -17.6462  -30.6574   24.0545 C   0  0  0  0  0  0
  -25.9032  -34.9461   23.5114 C   0  0  0  0  0  0
  -16.5343  -29.9077   23.6334 C   0  0  0  0  0  0
  -16.7250  -28.6480   23.0373 C   0  0  0  0  0  0
  -26.4494  -31.6596   25.0728 C   0  0  0  0  0  0
  -25.3781  -31.3675   26.1490 C   0  0  0  0  0  0
  -27.0373  -30.3047   24.6147 C   0  0  0  0  0  0
  -27.6031  -32.4375   25.7495 C   0  0  0  0  0  0
  -27.5569  -37.1797   24.8464 C   0  0  0  0  0  0
  -21.4139  -29.3011   22.3727 N   0  0  0  0  0  0
  -26.4280  -37.3797   23.9409 N   0  0  0  0  0  0
  -24.6708  -31.0702   22.1025 N   0  0  0  0  0  0
  -23.4170  -28.8183   23.3050 O   0  0  0  0  0  0
  -28.3956  -26.6452   20.1252 O   0  0  0  0  0  0
  -26.5587  -34.8907   22.4670 O   0  0  0  0  0  0
  -23.5357  -32.1450   23.7463 O   0  0  0  0  0  0
  -30.9249  -18.5648   19.8624 C   0  0  0  0  0  0
  -30.4318  -19.8713   19.5808 C   0  0  0  0  0  0
  -30.2209  -18.0582   20.9162 C   0  0  0  0  0  0
  -29.4361  -20.1906   20.4736 C   0  0  0  0  0  0
  -31.0016  -20.7425   18.5421 C   0  0  0  0  0  0
  -32.2236  -20.5928   18.0020 C   0  0  0  0  0  0
  -32.7911  -21.4857   16.9201 C   0  0  0  0  0  0
  -26.1889  -19.9667   24.3705 C   0  0  0  0  0  0
  -27.9352  -19.4392   26.1089 C   0  0  0  0  0  0
  -26.7335  -23.9089   20.7540 C   0  0  0  0  0  0
  -28.6099  -21.4600   20.7422 C   0  0  0  0  0  0
  -30.4763  -16.7725   21.6993 C   0  0  0  0  0  0
  -28.8954  -22.7746   19.9392 C   0  0  0  0  0  0
  -28.5664  -19.3326   23.6445 C   0  0  0  0  0  0
  -28.1940  -18.8296   22.2354 C   0  0  0  0  0  0
  -28.4911  -25.3253   19.5286 C   0  0  0  0  0  0
  -27.4423  -19.1297   24.6861 C   0  0  0  0  0  0
  -28.2352  -24.0974   20.4750 C   0  0  1  0  0  0
  -29.2489  -19.0205   21.2415 N   0  0  0  0  0  0
  -29.9631  -15.5039   21.1503 N   0  0  0  0  0  0
  -31.4691  -12.4477   19.1189 H   0  0  0  0  0  0
  -30.3456  -11.3259   19.8330 H   0  0  0  0  0  0
  -29.7395  -11.7631   17.4387 H   0  0  0  0  0  0
  -29.6493  -13.4791   17.7495 H   0  0  0  0  0  0
  -27.8411  -11.2963   18.8365 H   0  0  0  0  0  0
  -27.3595  -12.6027   17.7886 H   0  0  0  0  0  0
  -27.6957  -14.2486   19.5560 H   0  0  0  0  0  0
  -28.6868  -11.9649   21.3327 H   0  0  0  0  0  0
  -28.4489  -13.5976   21.8662 H   0  0  0  0  0  0
  -25.2755   -9.5679   22.4761 H   0  0  0  0  0  0
  -23.9995   -7.4634   22.7477 H   0  0  0  0  0  0
  -21.0848   -8.8769   19.8940 H   0  0  0  0  0  0
  -22.3699  -10.9673   19.6163 H   0  0  0  0  0  0
  -21.1999   -7.6146   23.9716 H   0  0  0  0  0  0
  -21.1482   -6.0520   25.9077 H   0  0  0  0  0  0
  -22.0599   -2.7612   23.2848 H   0  0  0  0  0  0
  -22.4118  -11.9865   22.4755 H   0  0  0  0  0  0
  -21.1124  -13.1239   22.2618 H   0  0  0  0  0  0
  -24.6646  -15.8415   20.5137 H   0  0  0  0  0  0
  -26.2790  -15.6230   20.0689 H   0  0  0  0  0  0
  -26.7108  -32.5455   23.1108 H   0  0  0  0  0  0
  -25.0142  -33.9767   25.0503 H   0  0  0  0  0  0
  -22.6949  -31.3070   21.4108 H   0  0  0  0  0  0
  -23.3746  -35.9618   23.3324 H   0  0  0  0  0  0
  -24.3546  -36.8922   22.2052 H   0  0  0  0  0  0
  -23.7220  -37.6500   23.6662 H   0  0  0  0  0  0
  -26.0682  -31.5769   20.6105 H   0  0  0  0  0  0
  -26.8189  -30.8497   22.0030 H   0  0  0  0  0  0
  -28.0925  -29.0438   21.1796 H   0  0  0  0  0  0
  -25.9891  -25.9729   18.9742 H   0  0  0  0  0  0
  -23.9637  -27.3108   19.0161 H   0  0  0  0  0  0
  -23.7282  -30.5997   19.4061 H   0  0  0  0  0  0
  -22.7365  -29.2488   19.8681 H   0  0  0  0  0  0
  -25.1293  -36.1954   25.0821 H   0  0  0  0  0  0
  -20.9898  -28.3204   24.1446 H   0  0  0  0  0  0
  -20.5633  -26.2255   23.3612 H   0  0  0  0  0  0
  -21.6635  -26.7414   22.1224 H   0  0  0  0  0  0
  -19.6913  -25.6249   21.1259 H   0  0  0  0  0  0
  -19.6691  -27.3129   20.6708 H   0  0  0  0  0  0
  -17.4187  -26.6637   21.3981 H   0  0  0  0  0  0
  -18.0296  -26.0017   22.8961 H   0  0  0  0  0  0
  -19.7939  -30.7220   24.2248 H   0  0  0  0  0  0
  -17.5036  -31.6261   24.5143 H   0  0  0  0  0  0
  -15.5353  -30.2989   23.7681 H   0  0  0  0  0  0
  -15.8632  -28.0805   22.7138 H   0  0  0  0  0  0
  -24.5925  -30.7050   25.7848 H   0  0  0  0  0  0
  -24.9008  -32.2823   26.5012 H   0  0  0  0  0  0
  -25.8174  -30.8800   27.0205 H   0  0  0  0  0  0
  -26.2945  -29.6740   24.1251 H   0  0  0  0  0  0
  -27.4213  -29.7353   25.4621 H   0  0  0  0  0  0
  -27.8736  -30.4390   23.9280 H   0  0  0  0  0  0
  -27.2611  -33.3675   26.2056 H   0  0  0  0  0  0
  -28.3843  -32.6969   25.0336 H   0  0  0  0  0  0
  -28.0696  -31.8538   26.5442 H   0  0  0  0  0  0
  -28.2598  -38.0094   24.7562 H   0  0  0  0  0  0
  -28.1077  -36.2636   24.6265 H   0  0  0  0  0  0
  -27.2285  -37.1422   25.8868 H   0  0  0  0  0  0
  -20.9296  -29.8767   21.6981 H   0  0  0  0  0  0
  -26.0174  -38.2865   24.1467 H   0  0  0  0  0  0
  -31.7400  -18.0547   19.3674 H   0  0  0  0  0  0
  -30.3806  -21.5403   18.1678 H   0  0  0  0  0  0
  -32.8751  -19.8017   18.3460 H   0  0  0  0  0  0
  -32.0399  -22.1761   16.5347 H   0  0  0  0  0  0
  -33.1580  -20.8810   16.0904 H   0  0  0  0  0  0
  -33.6232  -22.0711   17.3128 H   0  0  0  0  0  0
  -25.4289  -19.8370   25.1421 H   0  0  0  0  0  0
  -25.7286  -19.6715   23.4278 H   0  0  0  0  0  0
  -26.4217  -21.0312   24.3098 H   0  0  0  0  0  0
  -27.1485  -19.2579   26.8428 H   0  0  0  0  0  0
  -28.2446  -20.4807   26.2085 H   0  0  0  0  0  0
  -28.7828  -18.8103   26.3845 H   0  0  0  0  0  0
  -26.5496  -23.0965   21.4571 H   0  0  0  0  0  0
  -26.1870  -23.6868   19.8378 H   0  0  0  0  0  0
  -26.2998  -24.8028   21.2011 H   0  0  0  0  0  0
  -28.7163  -21.7116   21.7961 H   0  0  0  0  0  0
  -27.5576  -21.2141   20.6062 H   0  0  0  0  0  0
  -30.0783  -16.8647   22.7089 H   0  0  0  0  0  0
  -31.5528  -16.6757   21.8530 H   0  0  0  0  0  0
  -28.5989  -22.6242   18.9009 H   0  0  0  0  0  0
  -29.9725  -22.9431   19.9322 H   0  0  0  0  0  0
  -28.8413  -20.3860   23.6086 H   0  0  0  0  0  0
  -29.4616  -18.8047   23.9737 H   0  0  0  0  0  0
  -27.2960  -19.3244   21.8709 H   0  0  0  0  0  0
  -27.9348  -17.7712   22.2715 H   0  0  0  0  0  0
  -27.9171  -25.2397   18.6061 H   0  0  0  0  0  0
  -29.5245  -25.2598   19.1881 H   0  0  0  0  0  0
  -27.1546  -18.0763   24.6669 H   0  0  0  0  0  0
  -28.7150  -24.3211   21.4290 H   0  0  0  0  0  0
  -29.0175  -15.2649   21.4056 H   0  0  0  0  0  0
  1 25  1  0  0  0
  1 30  2  0  0  0
  1 90  1  0  0  0
  2  3  1  0  0  0
  2 25  1  0  0  0
  2 91  1  0  0  0
  2 92  1  0  0  0
  3  4  1  0  0  0
  3 93  1  0  0  0
  3 94  1  0  0  0
  4  5  1  0  0  0
  4 95  1  0  0  0
  4 96  1  0  0  0
  5  6  1  0  0  0
  5 26  1  0  0  0
  5 97  1  0  0  0
  6 25  1  0  0  0
  6 98  1  0  0  0
  6 99  1  0  0  0
  7  8  2  0  0  0
  7 26  1  0  0  0
  7 29  1  0  0  0
  8  9  1  0  0  0
  8 22  1  0  0  0
  9 10  1  0  0  0
  9 27  2  0  0  0
 10 11  2  0  0  0
 10 15  1  0  0  0
 11 12  1  0  0  0
 11100  1  0  0  0
 12 13  2  0  0  0
 12101  1  0  0  0
 13 14  1  0  0  0
 13 31  1  0  0  0
 14 15  2  0  0  0
 14102  1  0  0  0
 15103  1  0  0  0
 16 17  2  0  0  0
 16 21  1  0  0  0
 16 31  1  0  0  0
 17 18  1  0  0  0
 17104  1  0  0  0
 18 19  2  0  0  0
 18105  1  0  0  0
 19 20  1  0  0  0
 19 24  1  0  0  0
 20 21  2  0  0  0
 20106  1  0  0  0
 21 23  1  0  0  0
 22 28  1  0  0  0
 22 32  2  0  0  0
 26 27  1  0  0  0
 28107  1  0  0  0
 28108  1  0  0  0
 29109  1  0  0  0
 29110  1  0  0  0
 33 34  1  0  0  0
 33 66  1  0  0  0
 33 70  2  0  0  0
 34 36  1  0  0  0
 34 59  1  0  0  0
 34111  1  0  0  0
 35 44  2  0  0  0
 35 45  1  0  0  0
 35 68  1  0  0  0
 36 56  1  0  0  0
 36112  1  0  0  0
 37 39  1  0  0  0
 37 47  1  0  0  0
 37 66  1  0  0  0
 37113  1  0  0  0
 38 43  2  0  0  0
 38 46  1  0  0  0
 38 47  1  0  0  0
 39 64  1  0  0  0
 39 67  2  0  0  0
 40 52  1  0  0  0
 40 53  2  0  0  0
 40 58  1  0  0  0
 41114  1  0  0  0
 41115  1  0  0  0
 41116  1  0  0  0
 41 48  1  0  0  0
 42 43  1  0  0  0
 42 66  1  0  0  0
 42117  1  0  0  0
 42118  1  0  0  0
 43 44  1  0  0  0
 44119  1  0  0  0
 45 46  2  0  0  0
 45120  1  0  0  0
 46121  1  0  0  0
 47122  1  0  0  0
 47123  1  0  0  0
 48 56  1  0  0  0
 48 65  1  0  0  0
 48124  1  0  0  0
 49 50  1  0  0  0
 49 53  1  0  0  0
 49 64  1  0  0  0
 49125  1  0  0  0
 50 51  1  0  0  0
 50126  1  0  0  0
 50127  1  0  0  0
 51 52  1  0  0  0
 51128  1  0  0  0
 51129  1  0  0  0
 52130  1  0  0  0
 52131  1  0  0  0
 53 54  1  0  0  0
 54 55  2  0  0  0
 54132  1  0  0  0
 55 57  1  0  0  0
 55133  1  0  0  0
 56 69  2  0  0  0
 57 58  2  0  0  0
 57134  1  0  0  0
 58135  1  0  0  0
 59 60  1  0  0  0
 59 61  1  0  0  0
 59 62  1  0  0  0
 60136  1  0  0  0
 60137  1  0  0  0
 60138  1  0  0  0
 61139  1  0  0  0
 61140  1  0  0  0
 61141  1  0  0  0
 62142  1  0  0  0
 62143  1  0  0  0
 62144  1  0  0  0
 63 65  1  0  0  0
 63145  1  0  0  0
 63146  1  0  0  0
 63147  1  0  0  0
 64148  1  0  0  0
 65149  1  0  0  0
 68 86  1  0  0  0
 71 72  1  0  0  0
 71 73  2  0  0  0
 71150  1  0  0  0
 72 74  2  0  0  0
 72 75  1  0  0  0
 73 82  1  0  0  0
 73 89  1  0  0  0
 74 81  1  0  0  0
 74 89  1  0  0  0
 75 76  2  0  0  0
 75151  1  0  0  0
 76 77  1  0  0  0
 76152  1  0  0  0
 77153  1  0  0  0
 77154  1  0  0  0
 77155  1  0  0  0
 78156  1  0  0  0
 78157  1  0  0  0
 78158  1  0  0  0
 78 87  1  0  0  0
 79 87  1  0  0  0
 79159  1  0  0  0
 79160  1  0  0  0
 79161  1  0  0  0
 80162  1  0  0  0
 80163  1  0  0  0
 80164  1  0  0  0
 80 88  1  0  0  0
 81 83  1  0  0  0
 81165  1  0  0  0
 81166  1  0  0  0
 82 90  1  0  0  0
 82167  1  0  0  0
 82168  1  0  0  0
 83 88  1  0  0  0
 83169  1  0  0  0
 83170  1  0  0  0
 84 85  1  0  0  0
 84 87  1  0  0  0
 84171  1  0  0  0
 84172  1  0  0  0
 85 89  1  0  0  0
 85173  1  0  0  0
 85174  1  0  0  0
 86 88  1  0  0  0
 86175  1  0  0  0
 86176  1  0  0  0
 87177  1  0  0  0
 88178  1  0  0  0
 90179  1  0  0  0
M  ISO  4   1 100  68 101  86 101  90 100
M  END
> <chiral flag>
0

> <version>
0

> <s_m_source_file>
/data/baiqing/PycharmProjects/Reinvent-master-3.2/result/LINK_invent/BTK/process_docking_weight1_custom_sum_contain_oxygen_bond_distance_aromatic_linkinvent_7_9_3/rearranged_h_0095.sdf

> <i_m_source_file_index>
86

> <r_mmod_Potential_Energy-OPLS-2005>
-70.1395263671875

> <r_mmod_Stretch_Energy-OPLS-2005>
50.0063819885254

> <r_mmod_Bend_Energy-OPLS-2005>
130.032608032227

> <r_mmod_Torsional_Energy-OPLS-2005>
221.681518554688

> <r_mmod_Improper_Torsional_Energy-OPLS-2005>
3.41624927520752

> <r_mmod_Van_der_Waal_Energy-OPLS-2005>
124.084693908691

> <r_mmod_Electrostatic_Energy-OPLS-2005>
-417.524383544922

> <r_mmod_Solvation_Energy-OPLS-2005>
-201.501495361328

> <b_mmod_Minimization_Converged-OPLS-2005>
0

> <r_mmod_RMS_Derivative-OPLS-2005>
1.90322887897491

$$$$
86
                    3D
 Structure written by MMmdl.
179187  0  0  1  0            999 V2000
  -30.5617  -14.7058   20.4930 C   0  0  0  0  0  0
  -30.4531  -12.4390   19.4376 C   0  0  0  0  0  0
  -29.5102  -12.5079   18.2151 C   0  0  0  0  0  0
  -28.0333  -12.3238   18.6317 C   0  0  0  0  0  0
  -27.6442  -13.2080   19.8450 C   0  0  2  0  0  0
  -28.6919  -13.0761   20.9696 C   0  0  0  0  0  0
  -25.2524  -13.8151   20.5654 C   0  0  0  0  0  0
  -24.1811  -13.0423   20.9215 C   0  0  0  0  0  0
  -24.6364  -11.6894   20.8754 C   0  0  0  0  0  0
  -23.9034  -10.4270   21.0429 C   0  0  0  0  0  0
  -24.3591   -9.4173   21.9204 C   0  0  0  0  0  0
  -23.6276   -8.2216   22.0758 C   0  0  0  0  0  0
  -22.4269   -8.0243   21.3530 C   0  0  0  0  0  0
  -21.9886   -9.0211   20.4642 C   0  0  0  0  0  0
  -22.7216  -10.2102   20.3075 C   0  0  0  0  0  0
  -21.6825   -6.0723   22.5307 C   0  0  0  0  0  0
  -21.3990   -6.5635   23.8241 C   0  0  0  0  0  0
  -21.3670   -5.6793   24.9198 C   0  0  0  0  0  0
  -21.6064   -4.3058   24.7259 C   0  0  0  0  0  0
  -21.8821   -3.8140   23.4379 C   0  0  0  0  0  0
  -21.9175   -4.6944   22.3431 C   0  0  0  0  0  0
  -22.7821  -13.5184   21.1880 C   0  0  0  0  0  0
  -22.1653   -4.2148   21.1002 F   0  0  0  0  0  0
  -21.5630   -3.4554   25.7774 F   0  0  0  0  0  0
  -29.9902  -13.4597   20.3972 N   0  0  0  0  0  0
  -26.2931  -12.9320   20.3227 N   0  0  0  0  0  0
  -25.9288  -11.6479   20.5736 N   0  0  0  0  0  0
  -22.0427  -12.8206   22.0411 N   0  0  0  0  0  0
  -25.4122  -15.1895   20.4034 N   0  0  0  0  0  0
  -31.7573  -14.8931   20.2621 O   0  0  0  0  0  0
  -21.6625   -6.8847   21.4253 O   0  0  0  0  0  0
  -22.3500  -14.5477   20.6682 O   0  0  0  0  0  0
  -24.6293  -31.8516   23.2026 C   0  0  0  0  0  0
  -25.9098  -32.4742   23.8373 C   0  0  1  0  0  0
  -27.2153  -27.2878   20.1190 C   0  0  0  0  0  0
  -25.5873  -33.8549   24.2247 N   0  0  0  0  0  0
  -23.4280  -30.4786   21.5408 C   0  0  2  0  0  0
  -24.8727  -28.9377   20.1030 C   0  0  0  0  0  0
  -22.7489  -29.4621   22.4910 C   0  0  0  0  0  0
  -18.0260  -28.1464   22.8438 C   0  0  0  0  0  0
  -24.1480  -36.7329   23.2634 C   0  0  0  0  0  0
  -25.9704  -30.7809   21.3732 C   0  0  0  0  0  0
  -26.0433  -29.4079   20.7101 C   0  0  0  0  0  0
  -27.2211  -28.5965   20.7022 C   0  0  0  0  0  0
  -26.0210  -26.8850   19.4768 C   0  0  0  0  0  0
  -24.8630  -27.6856   19.4742 C   0  0  0  0  0  0
  -23.6415  -29.8168   20.1549 C   0  0  0  0  0  0
  -25.4090  -36.3065   24.0321 C   0  0  1  0  0  0
  -20.5868  -28.3757   23.1240 C   0  0  2  0  0  0
  -20.6783  -26.9482   22.5390 C   0  0  0  0  0  0
  -19.5772  -26.6433   21.5200 C   0  0  0  0  0  0
  -18.1931  -26.7999   22.1588 C   0  0  0  0  0  0
  -19.1525  -28.8922   23.2835 C   0  0  0  0  0  0
  -18.9463  -30.1500   23.8882 C   0  0  0  0  0  0
  -17.6471  -30.6633   24.0575 C   0  0  0  0  0  0
  -25.9034  -34.9422   23.5102 C   0  0  0  0  0  0
  -16.5357  -29.9125   23.6363 C   0  0  0  0  0  0
  -16.7267  -28.6577   23.0336 C   0  0  0  0  0  0
  -26.4483  -31.6595   25.0791 C   0  0  0  0  0  0
  -25.3756  -31.3691   26.1553 C   0  0  0  0  0  0
  -27.0354  -30.3001   24.6324 C   0  0  0  0  0  0
  -27.6028  -32.4378   25.7566 C   0  0  0  0  0  0
  -27.5570  -37.1785   24.8441 C   0  0  0  0  0  0
  -21.4203  -29.3086   22.3632 N   0  0  0  0  0  0
  -26.4256  -37.3765   23.9427 N   0  0  0  0  0  0
  -24.6944  -31.0568   22.0955 N   0  0  0  0  0  0
  -23.4187  -28.8148   23.3002 O   0  0  0  0  0  0
  -28.3126  -26.4035   20.1897 O   0  0  0  0  0  0
  -26.5638  -34.8875   22.4702 O   0  0  0  0  0  0
  -23.5439  -32.1306   23.7344 O   0  0  0  0  0  0
  -29.4350  -21.2518   20.5125 C   0  0  0  0  0  0
  -28.7147  -22.3648   21.0960 C   0  0  0  0  0  0
  -27.7598  -22.0284   22.1159 C   0  0  0  0  0  0
  -29.2181  -19.8838   20.9236 C   0  0  0  0  0  0
  -27.5860  -20.6456   22.4739 C   0  0  0  0  0  0
  -25.5087  -23.2723   22.3403 C   0  0  0  0  0  0
  -25.3418  -19.5112   22.7461 C   0  0  0  0  0  0
  -26.1732  -20.8911   24.7181 C   0  0  0  0  0  0
  -27.2466  -18.7861   24.1934 C   0  0  0  0  0  0
  -31.8114  -19.1323   18.8229 C   0  0  0  0  0  0
  -32.1342  -19.3240   21.2662 C   0  0  0  0  0  0
  -29.0930  -23.8839   20.7593 C   0  0  0  0  0  0
  -26.9736  -23.1548   22.8092 C   0  0  0  0  0  0
  -29.6988  -17.1616   21.2260 C   0  0  0  0  0  0
  -28.0477  -24.9310   20.1259 C   0  0  0  0  0  0
  -29.9086  -18.5340   20.3696 C   0  0  2  0  0  0
  -26.5906  -20.0152   23.5078 C   0  0  0  0  0  0
  -28.2729  -19.6630   21.8435 N   0  0  0  0  0  0
  -29.6718  -15.7508   20.6370 N   0  0  0  0  0  0
  -31.3832  -18.6677   20.1626 N   0  3  0  0  0  0
  -31.4846  -12.6124   19.1258 H   0  0  0  0  0  0
  -30.4373  -11.4434   19.8880 H   0  0  0  0  0  0
  -29.7942  -11.7635   17.4708 H   0  0  0  0  0  0
  -29.6328  -13.4770   17.7297 H   0  0  0  0  0  0
  -27.8836  -11.2712   18.8824 H   0  0  0  0  0  0
  -27.3807  -12.5368   17.7851 H   0  0  0  0  0  0
  -27.6508  -14.2353   19.4837 H   0  0  0  0  0  0
  -28.7245  -12.0507   21.3432 H   0  0  0  0  0  0
  -28.4319  -13.6975   21.8280 H   0  0  0  0  0  0
  -25.2737   -9.5673   22.4752 H   0  0  0  0  0  0
  -23.9995   -7.4622   22.7501 H   0  0  0  0  0  0
  -21.0812   -8.8721   19.8946 H   0  0  0  0  0  0
  -22.3671  -10.9620   19.6176 H   0  0  0  0  0  0
  -21.1957   -7.6139   23.9736 H   0  0  0  0  0  0
  -21.1500   -6.0529   25.9110 H   0  0  0  0  0  0
  -22.0578   -2.7601   23.2909 H   0  0  0  0  0  0
  -22.4014  -11.9891   22.4868 H   0  0  0  0  0  0
  -21.1028  -13.1246   22.2548 H   0  0  0  0  0  0
  -24.6196  -15.8146   20.5038 H   0  0  0  0  0  0
  -26.2210  -15.6419   20.0019 H   0  0  0  0  0  0
  -26.7180  -32.5361   23.1120 H   0  0  0  0  0  0
  -24.9974  -33.9699   25.0354 H   0  0  0  0  0  0
  -22.7267  -31.3008   21.3938 H   0  0  0  0  0  0
  -23.3720  -35.9690   23.3263 H   0  0  0  0  0  0
  -24.3574  -36.9025   22.2059 H   0  0  0  0  0  0
  -23.7248  -37.6510   23.6725 H   0  0  0  0  0  0
  -26.0988  -31.5455   20.6054 H   0  0  0  0  0  0
  -26.8494  -30.8278   22.0051 H   0  0  0  0  0  0
  -28.1208  -28.9482   21.1870 H   0  0  0  0  0  0
  -25.9501  -25.9313   18.9784 H   0  0  0  0  0  0
  -23.9672  -27.3291   18.9840 H   0  0  0  0  0  0
  -23.7496  -30.5876   19.3902 H   0  0  0  0  0  0
  -22.7666  -29.2336   19.8677 H   0  0  0  0  0  0
  -25.1256  -36.1912   25.0808 H   0  0  0  0  0  0
  -20.9891  -28.3357   24.1395 H   0  0  0  0  0  0
  -20.5690  -26.2395   23.3598 H   0  0  0  0  0  0
  -21.6659  -26.7563   22.1202 H   0  0  0  0  0  0
  -19.6955  -25.6330   21.1269 H   0  0  0  0  0  0
  -19.6719  -27.3212   20.6701 H   0  0  0  0  0  0
  -17.4202  -26.6701   21.3982 H   0  0  0  0  0  0
  -18.0346  -26.0174   22.9022 H   0  0  0  0  0  0
  -19.7948  -30.7286   24.2281 H   0  0  0  0  0  0
  -17.5048  -31.6309   24.5182 H   0  0  0  0  0  0
  -15.5359  -30.3020   23.7747 H   0  0  0  0  0  0
  -15.8668  -28.0894   22.7067 H   0  0  0  0  0  0
  -24.5941  -30.7025   25.7897 H   0  0  0  0  0  0
  -24.8942  -32.2815   26.5069 H   0  0  0  0  0  0
  -25.8127  -30.8825   27.0282 H   0  0  0  0  0  0
  -26.2970  -29.6711   24.1339 H   0  0  0  0  0  0
  -27.3969  -29.7302   25.4890 H   0  0  0  0  0  0
  -27.8867  -30.4264   23.9646 H   0  0  0  0  0  0
  -27.2639  -33.3670   26.2160 H   0  0  0  0  0  0
  -28.3820  -32.6956   25.0395 H   0  0  0  0  0  0
  -28.0740  -31.8522   26.5460 H   0  0  0  0  0  0
  -28.2507  -38.0149   24.7557 H   0  0  0  0  0  0
  -28.1131  -36.2674   24.6177 H   0  0  0  0  0  0
  -27.2320  -37.1356   25.8844 H   0  0  0  0  0  0
  -20.9412  -29.8776   21.6794 H   0  0  0  0  0  0
  -26.0122  -38.2829   24.1464 H   0  0  0  0  0  0
  -30.1801  -21.4645   19.7605 H   0  0  0  0  0  0
  -24.9649  -24.0082   22.9333 H   0  0  0  0  0  0
  -24.9606  -22.3435   22.4207 H   0  0  0  0  0  0
  -25.4295  -23.5688   21.2977 H   0  0  0  0  0  0
  -24.7630  -20.3136   22.2993 H   0  0  0  0  0  0
  -24.6635  -18.9513   23.3911 H   0  0  0  0  0  0
  -25.6301  -18.8521   21.9235 H   0  0  0  0  0  0
  -25.4892  -21.6973   24.4738 H   0  0  0  0  0  0
  -27.0432  -21.3052   25.2316 H   0  0  0  0  0  0
  -25.6350  -20.3045   25.4634 H   0  0  0  0  0  0
  -27.4160  -17.9648   23.4971 H   0  0  0  0  0  0
  -26.6224  -18.3707   24.9842 H   0  0  0  0  0  0
  -28.2087  -19.0540   24.6341 H   0  0  0  0  0  0
  -32.8786  -18.9431   18.6885 H   0  0  0  0  0  0
  -31.6592  -20.1995   18.6798 H   0  0  0  0  0  0
  -31.2949  -18.6045   18.0207 H   0  0  0  0  0  0
  -33.1926  -19.0727   21.1963 H   0  0  0  0  0  0
  -31.7979  -18.9932   22.2496 H   0  0  0  0  0  0
  -32.0579  -20.4100   21.2316 H   0  0  0  0  0  0
  -29.9829  -23.8622   20.1327 H   0  0  0  0  0  0
  -29.4437  -24.3082   21.6993 H   0  0  0  0  0  0
  -27.4362  -24.1268   22.6634 H   0  0  0  0  0  0
  -27.0597  -23.0669   23.8888 H   0  0  0  0  0  0
  -28.6855  -17.2054   21.6254 H   0  0  0  0  0  0
  -30.3178  -17.1623   22.1227 H   0  0  0  0  0  0
  -27.0987  -24.7682   20.6244 H   0  0  0  0  0  0
  -27.8799  -24.6526   19.0832 H   0  0  0  0  0  0
  -29.4302  -18.3600   19.4048 H   0  0  0  0  0  0
  -28.7266  -15.4054   20.5698 H   0  0  0  0  0  0
  -31.6829  -17.7055   20.1887 H   0  0  0  0  0  0
  1 25  1  0  0  0
  1 30  2  0  0  0
  1 89  1  0  0  0
  2  3  1  0  0  0
  2 25  1  0  0  0
  2 91  1  0  0  0
  2 92  1  0  0  0
  3  4  1  0  0  0
  3 93  1  0  0  0
  3 94  1  0  0  0
  4  5  1  0  0  0
  4 95  1  0  0  0
  4 96  1  0  0  0
  5  6  1  0  0  0
  5 26  1  0  0  0
  5 97  1  0  0  0
  6 25  1  0  0  0
  6 98  1  0  0  0
  6 99  1  0  0  0
  7  8  2  0  0  0
  7 26  1  0  0  0
  7 29  1  0  0  0
  8  9  1  0  0  0
  8 22  1  0  0  0
  9 10  1  0  0  0
  9 27  2  0  0  0
 10 11  2  0  0  0
 10 15  1  0  0  0
 11 12  1  0  0  0
 11100  1  0  0  0
 12 13  2  0  0  0
 12101  1  0  0  0
 13 14  1  0  0  0
 13 31  1  0  0  0
 14 15  2  0  0  0
 14102  1  0  0  0
 15103  1  0  0  0
 16 17  2  0  0  0
 16 21  1  0  0  0
 16 31  1  0  0  0
 17 18  1  0  0  0
 17104  1  0  0  0
 18 19  2  0  0  0
 18105  1  0  0  0
 19 20  1  0  0  0
 19 24  1  0  0  0
 20 21  2  0  0  0
 20106  1  0  0  0
 21 23  1  0  0  0
 22 28  1  0  0  0
 22 32  2  0  0  0
 26 27  1  0  0  0
 28107  1  0  0  0
 28108  1  0  0  0
 29109  1  0  0  0
 29110  1  0  0  0
 33 34  1  0  0  0
 33 66  1  0  0  0
 33 70  2  0  0  0
 34 36  1  0  0  0
 34 59  1  0  0  0
 34111  1  0  0  0
 35 44  2  0  0  0
 35 45  1  0  0  0
 35 68  1  0  0  0
 36 56  1  0  0  0
 36112  1  0  0  0
 37 39  1  0  0  0
 37 47  1  0  0  0
 37 66  1  0  0  0
 37113  1  0  0  0
 38 43  2  0  0  0
 38 46  1  0  0  0
 38 47  1  0  0  0
 39 64  1  0  0  0
 39 67  2  0  0  0
 40 52  1  0  0  0
 40 53  2  0  0  0
 40 58  1  0  0  0
 41114  1  0  0  0
 41115  1  0  0  0
 41116  1  0  0  0
 41 48  1  0  0  0
 42 43  1  0  0  0
 42 66  1  0  0  0
 42117  1  0  0  0
 42118  1  0  0  0
 43 44  1  0  0  0
 44119  1  0  0  0
 45 46  2  0  0  0
 45120  1  0  0  0
 46121  1  0  0  0
 47122  1  0  0  0
 47123  1  0  0  0
 48 56  1  0  0  0
 48 65  1  0  0  0
 48124  1  0  0  0
 49 50  1  0  0  0
 49 53  1  0  0  0
 49 64  1  0  0  0
 49125  1  0  0  0
 50 51  1  0  0  0
 50126  1  0  0  0
 50127  1  0  0  0
 51 52  1  0  0  0
 51128  1  0  0  0
 51129  1  0  0  0
 52130  1  0  0  0
 52131  1  0  0  0
 53 54  1  0  0  0
 54 55  2  0  0  0
 54132  1  0  0  0
 55 57  1  0  0  0
 55133  1  0  0  0
 56 69  2  0  0  0
 57 58  2  0  0  0
 57134  1  0  0  0
 58135  1  0  0  0
 59 60  1  0  0  0
 59 61  1  0  0  0
 59 62  1  0  0  0
 60136  1  0  0  0
 60137  1  0  0  0
 60138  1  0  0  0
 61139  1  0  0  0
 61140  1  0  0  0
 61141  1  0  0  0
 62142  1  0  0  0
 62143  1  0  0  0
 62144  1  0  0  0
 63 65  1  0  0  0
 63145  1  0  0  0
 63146  1  0  0  0
 63147  1  0  0  0
 64148  1  0  0  0
 65149  1  0  0  0
 68 85  1  0  0  0
 71 72  2  0  0  0
 71 74  1  0  0  0
 71150  1  0  0  0
 72 73  1  0  0  0
 72 82  1  0  0  0
 73 75  2  0  0  0
 73 83  1  0  0  0
 74 86  1  0  0  0
 74 88  2  0  0  0
 75 87  1  0  0  0
 75 88  1  0  0  0
 76 83  1  0  0  0
 76151  1  0  0  0
 76152  1  0  0  0
 76153  1  0  0  0
 77154  1  0  0  0
 77155  1  0  0  0
 77156  1  0  0  0
 77 87  1  0  0  0
 78 87  1  0  0  0
 78157  1  0  0  0
 78158  1  0  0  0
 78159  1  0  0  0
 79 87  1  0  0  0
 79160  1  0  0  0
 79161  1  0  0  0
 79162  1  0  0  0
 80163  1  0  0  0
 80164  1  0  0  0
 80165  1  0  0  0
 80 90  1  0  0  0
 81 90  1  0  0  0
 81166  1  0  0  0
 81167  1  0  0  0
 81168  1  0  0  0
 82 85  1  0  0  0
 82169  1  0  0  0
 82170  1  0  0  0
 83171  1  0  0  0
 83172  1  0  0  0
 84 89  1  0  0  0
 84173  1  0  0  0
 84174  1  0  0  0
 84 86  1  0  0  0
 85175  1  0  0  0
 85176  1  0  0  0
 86 90  1  0  0  0
 86177  1  0  0  0
 89178  1  0  0  0
 90179  1  0  0  0
M  CHG  1  90   1
M  ISO  4   1 100  68 101  85 101  89 100
M  END
> <chiral flag>
0

> <version>
0

> <s_m_source_file>
/data/baiqing/PycharmProjects/Reinvent-master-3.2/result/LINK_invent/BTK/process_docking_weight1_custom_sum_contain_oxygen_bond_distance_aromatic_linkinvent_7_9_3/rearranged_h_0095.sdf

> <i_m_source_file_index>
87

> <r_mmod_Potential_Energy-OPLS-2005>
-81.4278793334961

> <r_mmod_Stretch_Energy-OPLS-2005>
131.733383178711

> <r_mmod_Bend_Energy-OPLS-2005>
223.889678955078

> <r_mmod_Torsional_Energy-OPLS-2005>
269.539031982422

> <r_mmod_Improper_Torsional_Energy-OPLS-2005>
7.08067226409912

> <r_mmod_Van_der_Waal_Energy-OPLS-2005>
163.555068969727

> <r_mmod_Electrostatic_Energy-OPLS-2005>
-538.034973144531

> <r_mmod_Solvation_Energy-OPLS-2005>
-415.227752685547

> <b_mmod_Minimization_Converged-OPLS-2005>
0

> <r_mmod_RMS_Derivative-OPLS-2005>
5.62563514709473

$$$$
87
                    3D
 Structure written by MMmdl.
162169  0  0  1  0            999 V2000
  -30.6314  -14.5907   20.5299 C   0  0  0  0  0  0
  -30.4302  -12.3592   19.4722 C   0  0  0  0  0  0
  -29.5024  -12.4967   18.2400 C   0  0  0  0  0  0
  -28.0227  -12.3351   18.6412 C   0  0  0  0  0  0
  -27.6540  -13.2066   19.8747 C   0  0  2  0  0  0
  -28.6934  -13.0339   21.0103 C   0  0  0  0  0  0
  -25.2532  -13.8162   20.5686 C   0  0  0  0  0  0
  -24.1764  -13.0433   20.9183 C   0  0  0  0  0  0
  -24.6319  -11.6904   20.8751 C   0  0  0  0  0  0
  -23.8991  -10.4295   21.0426 C   0  0  0  0  0  0
  -24.3569   -9.4206   21.9195 C   0  0  0  0  0  0
  -23.6272   -8.2221   22.0759 C   0  0  0  0  0  0
  -22.4257   -8.0261   21.3528 C   0  0  0  0  0  0
  -21.9869   -9.0225   20.4619 C   0  0  0  0  0  0
  -22.7187  -10.2124   20.3050 C   0  0  0  0  0  0
  -21.6852   -6.0724   22.5270 C   0  0  0  0  0  0
  -21.4017   -6.5635   23.8195 C   0  0  0  0  0  0
  -21.3648   -5.6789   24.9169 C   0  0  0  0  0  0
  -21.6044   -4.3050   24.7229 C   0  0  0  0  0  0
  -21.8809   -3.8133   23.4360 C   0  0  0  0  0  0
  -21.9198   -4.6949   22.3400 C   0  0  0  0  0  0
  -22.7783  -13.5228   21.1839 C   0  0  0  0  0  0
  -22.1647   -4.2127   21.0991 F   0  0  0  0  0  0
  -21.5651   -3.4546   25.7755 F   0  0  0  0  0  0
  -30.0183  -13.3712   20.4651 N   0  0  0  0  0  0
  -26.2958  -12.9324   20.3381 N   0  0  0  0  0  0
  -25.9260  -11.6473   20.5806 N   0  0  0  0  0  0
  -22.0414  -12.8218   22.0403 N   0  0  0  0  0  0
  -25.4235  -15.1900   20.4110 N   0  0  0  0  0  0
  -31.7634  -14.7723   20.0741 O   0  0  0  0  0  0
  -21.6637   -6.8848   21.4216 O   0  0  0  0  0  0
  -22.3431  -14.5503   20.6673 O   0  0  0  0  0  0
  -24.6220  -31.8637   23.2045 C   0  0  0  0  0  0
  -25.9100  -32.4812   23.8324 C   0  0  1  0  0  0
  -27.2174  -27.3625   20.1311 C   0  0  0  0  0  0
  -25.5924  -33.8602   24.2267 N   0  0  0  0  0  0
  -23.4128  -30.4914   21.5455 C   0  0  2  0  0  0
  -24.8558  -28.9406   20.1167 C   0  0  0  0  0  0
  -22.7434  -29.4697   22.4949 C   0  0  0  0  0  0
  -18.0309  -28.1413   22.8399 C   0  0  0  0  0  0
  -24.1498  -36.7318   23.2636 C   0  0  0  0  0  0
  -25.9446  -30.8113   21.3615 C   0  0  0  0  0  0
  -26.0185  -29.4328   20.7262 C   0  0  0  0  0  0
  -27.2033  -28.6498   20.7336 C   0  0  0  0  0  0
  -26.0449  -26.9084   19.4955 C   0  0  0  0  0  0
  -24.8669  -27.6794   19.4934 C   0  0  0  0  0  0
  -23.6207  -29.8180   20.1607 C   0  0  0  0  0  0
  -25.4111  -36.3093   24.0335 C   0  0  1  0  0  0
  -20.5904  -28.3687   23.1183 C   0  0  2  0  0  0
  -20.6862  -26.9524   22.5052 C   0  0  0  0  0  0
  -19.5724  -26.6384   21.5010 C   0  0  0  0  0  0
  -18.1895  -26.8033   22.1376 C   0  0  0  0  0  0
  -19.1552  -28.8816   23.2857 C   0  0  0  0  0  0
  -18.9455  -30.1359   23.9001 C   0  0  0  0  0  0
  -17.6477  -30.6527   24.0727 C   0  0  0  0  0  0
  -25.9055  -34.9471   23.5088 C   0  0  0  0  0  0
  -16.5382  -29.9077   23.6365 C   0  0  0  0  0  0
  -16.7309  -28.6561   23.0258 C   0  0  0  0  0  0
  -26.4488  -31.6609   25.0687 C   0  0  0  0  0  0
  -25.3713  -31.3747   26.1420 C   0  0  0  0  0  0
  -27.0330  -30.3039   24.6098 C   0  0  0  0  0  0
  -27.6053  -32.4298   25.7496 C   0  0  0  0  0  0
  -27.5574  -37.1821   24.8456 C   0  0  0  0  0  0
  -21.4154  -29.3196   22.3727 N   0  0  0  0  0  0
  -26.4290  -37.3778   23.9405 N   0  0  0  0  0  0
  -24.6797  -31.0674   22.0978 N   0  0  0  0  0  0
  -23.4189  -28.8181   23.2977 O   0  0  0  0  0  0
  -28.3450  -26.5640   20.0302 O   0  0  0  0  0  0
  -26.5611  -34.8926   22.4657 O   0  0  0  0  0  0
  -23.5390  -32.1427   23.7382 O   0  0  0  0  0  0
  -27.9838  -23.0309   21.1113 C   0  0  0  0  0  0
  -27.7649  -24.3767   21.2983 C   0  0  0  0  0  0
  -26.4239  -24.7595   21.9125 C   0  0  0  0  0  0
  -30.1665  -25.2687   20.8321 C   0  0  0  0  0  0
  -27.8099  -20.6185   19.2698 C   0  0  0  0  0  0
  -29.2016  -22.2013   20.6288 C   0  0  0  0  0  0
  -29.9440  -18.3503   20.9274 C   0  0  0  0  0  0
  -29.7091  -16.9527   20.1792 C   0  0  0  0  0  0
  -29.0292  -19.6488   21.2251 C   0  0  0  0  0  0
  -28.6953  -25.6185   21.0813 C   0  0  1  0  0  0
  -29.8428  -15.6413   20.9032 N   0  0  0  0  0  0
  -28.9645  -20.7656   20.1923 N   0  3  1  0  0  0
  -31.4763  -12.4662   19.1840 H   0  0  0  0  0  0
  -30.3467  -11.3642   19.9149 H   0  0  0  0  0  0
  -29.7664  -11.7513   17.4877 H   0  0  0  0  0  0
  -29.6430  -13.4709   17.7672 H   0  0  0  0  0  0
  -27.8474  -11.2825   18.8746 H   0  0  0  0  0  0
  -27.3677  -12.5676   17.8002 H   0  0  0  0  0  0
  -27.6858  -14.2416   19.5393 H   0  0  0  0  0  0
  -28.6885  -12.0003   21.3599 H   0  0  0  0  0  0
  -28.4513  -13.6470   21.8789 H   0  0  0  0  0  0
  -25.2719   -9.5726   22.4751 H   0  0  0  0  0  0
  -24.0005   -7.4628   22.7488 H   0  0  0  0  0  0
  -21.0790   -8.8690   19.8940 H   0  0  0  0  0  0
  -22.3593  -10.9637   19.6143 H   0  0  0  0  0  0
  -21.1977   -7.6134   23.9687 H   0  0  0  0  0  0
  -21.1491   -6.0531   25.9056 H   0  0  0  0  0  0
  -22.0604   -2.7596   23.2870 H   0  0  0  0  0  0
  -22.4026  -11.9933   22.4852 H   0  0  0  0  0  0
  -21.1016  -13.1206   22.2580 H   0  0  0  0  0  0
  -24.6504  -15.8436   20.4855 H   0  0  0  0  0  0
  -26.2865  -15.6245   20.1152 H   0  0  0  0  0  0
  -26.7164  -32.5487   23.1071 H   0  0  0  0  0  0
  -25.0121  -33.9745   25.0442 H   0  0  0  0  0  0
  -22.7053  -31.3116   21.4020 H   0  0  0  0  0  0
  -23.3735  -35.9670   23.3306 H   0  0  0  0  0  0
  -24.3593  -36.8933   22.2040 H   0  0  0  0  0  0
  -23.7281  -37.6541   23.6653 H   0  0  0  0  0  0
  -26.0511  -31.5653   20.5784 H   0  0  0  0  0  0
  -26.8359  -30.8756   21.9737 H   0  0  0  0  0  0
  -28.1028  -29.0314   21.1942 H   0  0  0  0  0  0
  -26.0431  -25.9444   19.0031 H   0  0  0  0  0  0
  -23.9793  -27.3016   19.0010 H   0  0  0  0  0  0
  -23.7271  -30.5891   19.3964 H   0  0  0  0  0  0
  -22.7383  -29.2412   19.8677 H   0  0  0  0  0  0
  -25.1294  -36.1945   25.0826 H   0  0  0  0  0  0
  -21.0062  -28.3091   24.1284 H   0  0  0  0  0  0
  -20.6087  -26.2173   23.3094 H   0  0  0  0  0  0
  -21.6638  -26.7842   22.0496 H   0  0  0  0  0  0
  -19.6763  -25.6220   21.1198 H   0  0  0  0  0  0
  -19.6658  -27.2976   20.6357 H   0  0  0  0  0  0
  -17.4212  -26.7039   21.3687 H   0  0  0  0  0  0
  -18.0098  -26.0047   22.8545 H   0  0  0  0  0  0
  -19.7930  -30.7133   24.2423 H   0  0  0  0  0  0
  -17.5008  -31.6137   24.5514 H   0  0  0  0  0  0
  -15.5396  -30.2922   23.7726 H   0  0  0  0  0  0
  -15.8688  -28.0959   22.6883 H   0  0  0  0  0  0
  -24.5882  -30.7118   25.7737 H   0  0  0  0  0  0
  -24.8936  -32.2932   26.4827 H   0  0  0  0  0  0
  -25.8041  -30.8928   27.0205 H   0  0  0  0  0  0
  -26.2896  -29.6797   24.1134 H   0  0  0  0  0  0
  -27.4078  -29.7280   25.4579 H   0  0  0  0  0  0
  -27.8736  -30.4357   23.9278 H   0  0  0  0  0  0
  -27.2677  -33.3572   26.2129 H   0  0  0  0  0  0
  -28.3890  -32.6887   25.0368 H   0  0  0  0  0  0
  -28.0695  -31.8379   26.5396 H   0  0  0  0  0  0
  -28.2597  -38.0110   24.7485 H   0  0  0  0  0  0
  -28.1079  -36.2648   24.6314 H   0  0  0  0  0  0
  -27.2309  -37.1500   25.8865 H   0  0  0  0  0  0
  -20.9358  -29.8965   21.6968 H   0  0  0  0  0  0
  -26.0175  -38.2872   24.1362 H   0  0  0  0  0  0
  -27.1525  -22.3973   21.3787 H   0  0  0  0  0  0
  -25.6323  -24.6998   21.1659 H   0  0  0  0  0  0
  -26.4319  -25.7671   22.3345 H   0  0  0  0  0  0
  -26.1736  -24.0757   22.7227 H   0  0  0  0  0  0
  -30.3078  -24.7540   19.8841 H   0  0  0  0  0  0
  -30.5777  -24.6595   21.6370 H   0  0  0  0  0  0
  -30.7709  -26.1762   20.7793 H   0  0  0  0  0  0
  -26.8619  -20.7719   19.7938 H   0  0  0  0  0  0
  -27.7887  -19.6232   18.8247 H   0  0  0  0  0  0
  -27.8673  -21.3355   18.4531 H   0  0  0  0  0  0
  -29.9797  -22.2202   21.3913 H   0  0  0  0  0  0
  -29.6182  -22.7064   19.7554 H   0  0  0  0  0  0
  -29.7139  -18.6557   19.9097 H   0  0  0  0  0  0
  -29.3717  -17.8903   21.7305 H   0  0  0  0  0  0
  -30.3934  -16.8928   19.3271 H   0  0  0  0  0  0
  -28.7080  -16.9292   19.7338 H   0  0  0  0  0  0
  -28.0012  -19.3506   21.4497 H   0  0  0  0  0  0
  -29.3928  -20.0911   22.1574 H   0  0  0  0  0  0
  -28.6731  -26.1770   22.0171 H   0  0  0  0  0  0
  -29.0245  -15.3627   21.4292 H   0  0  0  0  0  0
  -29.7674  -20.5853   19.6079 H   0  0  0  0  0  0
  1 25  1  0  0  0
  1 30  2  0  0  0
  1 81  1  0  0  0
  2  3  1  0  0  0
  2 25  1  0  0  0
  2 83  1  0  0  0
  2 84  1  0  0  0
  3  4  1  0  0  0
  3 85  1  0  0  0
  3 86  1  0  0  0
  4  5  1  0  0  0
  4 87  1  0  0  0
  4 88  1  0  0  0
  5  6  1  0  0  0
  5 26  1  0  0  0
  5 89  1  0  0  0
  6 25  1  0  0  0
  6 90  1  0  0  0
  6 91  1  0  0  0
  7  8  2  0  0  0
  7 26  1  0  0  0
  7 29  1  0  0  0
  8  9  1  0  0  0
  8 22  1  0  0  0
  9 10  1  0  0  0
  9 27  2  0  0  0
 10 11  2  0  0  0
 10 15  1  0  0  0
 11 12  1  0  0  0
 11 92  1  0  0  0
 12 13  2  0  0  0
 12 93  1  0  0  0
 13 14  1  0  0  0
 13 31  1  0  0  0
 14 15  2  0  0  0
 14 94  1  0  0  0
 15 95  1  0  0  0
 16 17  2  0  0  0
 16 21  1  0  0  0
 16 31  1  0  0  0
 17 18  1  0  0  0
 17 96  1  0  0  0
 18 19  2  0  0  0
 18 97  1  0  0  0
 19 20  1  0  0  0
 19 24  1  0  0  0
 20 21  2  0  0  0
 20 98  1  0  0  0
 21 23  1  0  0  0
 22 28  1  0  0  0
 22 32  2  0  0  0
 26 27  1  0  0  0
 28 99  1  0  0  0
 28100  1  0  0  0
 29101  1  0  0  0
 29102  1  0  0  0
 33 34  1  0  0  0
 33 66  1  0  0  0
 33 70  2  0  0  0
 34 36  1  0  0  0
 34 59  1  0  0  0
 34103  1  0  0  0
 35 44  2  0  0  0
 35 45  1  0  0  0
 35 68  1  0  0  0
 36 56  1  0  0  0
 36104  1  0  0  0
 37 39  1  0  0  0
 37 47  1  0  0  0
 37 66  1  0  0  0
 37105  1  0  0  0
 38 43  2  0  0  0
 38 46  1  0  0  0
 38 47  1  0  0  0
 39 64  1  0  0  0
 39 67  2  0  0  0
 40 52  1  0  0  0
 40 53  2  0  0  0
 40 58  1  0  0  0
 41106  1  0  0  0
 41107  1  0  0  0
 41108  1  0  0  0
 41 48  1  0  0  0
 42 43  1  0  0  0
 42 66  1  0  0  0
 42109  1  0  0  0
 42110  1  0  0  0
 43 44  1  0  0  0
 44111  1  0  0  0
 45 46  2  0  0  0
 45112  1  0  0  0
 46113  1  0  0  0
 47114  1  0  0  0
 47115  1  0  0  0
 48 56  1  0  0  0
 48 65  1  0  0  0
 48116  1  0  0  0
 49 50  1  0  0  0
 49 53  1  0  0  0
 49 64  1  0  0  0
 49117  1  0  0  0
 50 51  1  0  0  0
 50118  1  0  0  0
 50119  1  0  0  0
 51 52  1  0  0  0
 51120  1  0  0  0
 51121  1  0  0  0
 52122  1  0  0  0
 52123  1  0  0  0
 53 54  1  0  0  0
 54 55  2  0  0  0
 54124  1  0  0  0
 55 57  1  0  0  0
 55125  1  0  0  0
 56 69  2  0  0  0
 57 58  2  0  0  0
 57126  1  0  0  0
 58127  1  0  0  0
 59 60  1  0  0  0
 59 61  1  0  0  0
 59 62  1  0  0  0
 60128  1  0  0  0
 60129  1  0  0  0
 60130  1  0  0  0
 61131  1  0  0  0
 61132  1  0  0  0
 61133  1  0  0  0
 62134  1  0  0  0
 62135  1  0  0  0
 62136  1  0  0  0
 63 65  1  0  0  0
 63137  1  0  0  0
 63138  1  0  0  0
 63139  1  0  0  0
 64140  1  0  0  0
 65141  1  0  0  0
 68 80  1  0  0  0
 71 72  2  0  0  0
 71 76  1  0  0  0
 71142  1  0  0  0
 72 73  1  0  0  0
 72 80  1  0  0  0
 73143  1  0  0  0
 73144  1  0  0  0
 73145  1  0  0  0
 74146  1  0  0  0
 74147  1  0  0  0
 74148  1  0  0  0
 74 80  1  0  0  0
 75149  1  0  0  0
 75150  1  0  0  0
 75151  1  0  0  0
 75 82  1  0  0  0
 76 82  1  0  0  0
 76152  1  0  0  0
 76153  1  0  0  0
 77 78  1  0  0  0
 77 79  1  0  0  0
 77154  1  0  0  0
 77155  1  0  0  0
 78 81  1  0  0  0
 78156  1  0  0  0
 78157  1  0  0  0
 79 82  1  0  0  0
 79158  1  0  0  0
 79159  1  0  0  0
 80160  1  0  0  0
 81161  1  0  0  0
 82162  1  0  0  0
M  CHG  1  82   1
M  ISO  4   1 100  68 101  80 101  81 100
M  END
> <chiral flag>
0

> <version>
0

> <s_m_source_file>
/data/baiqing/PycharmProjects/Reinvent-master-3.2/result/LINK_invent/BTK/process_docking_weight1_custom_sum_contain_oxygen_bond_distance_aromatic_linkinvent_7_9_3/rearranged_h_0095.sdf

> <i_m_source_file_index>
88

> <r_mmod_Potential_Energy-OPLS-2005>
238.308624267578

> <r_mmod_Stretch_Energy-OPLS-2005>
74.6340713500977

> <r_mmod_Bend_Energy-OPLS-2005>
395.764617919922

> <r_mmod_Torsional_Energy-OPLS-2005>
278.065765380859

> <r_mmod_Improper_Torsional_Energy-OPLS-2005>
8.55202102661133

> <r_mmod_Van_der_Waal_Energy-OPLS-2005>
140.018218994141

> <r_mmod_Electrostatic_Energy-OPLS-2005>
-236.032531738281

> <r_mmod_Solvation_Energy-OPLS-2005>
-453.931274414062

> <b_mmod_Minimization_Converged-OPLS-2005>
0

> <r_mmod_RMS_Derivative-OPLS-2005>
6.45990133285522

$$$$
88
                    3D
 Structure written by MMmdl.
192200  0  0  1  0            999 V2000
  -30.7408  -14.4712   20.6330 C   0  0  0  0  0  0
  -30.4173  -12.3183   19.4389 C   0  0  0  0  0  0
  -29.4937  -12.5046   18.2171 C   0  0  0  0  0  0
  -28.0130  -12.3784   18.6246 C   0  0  0  0  0  0
  -27.6604  -13.2169   19.8812 C   0  0  2  0  0  0
  -28.7030  -13.0037   21.0043 C   0  0  0  0  0  0
  -25.2490  -13.8131   20.5591 C   0  0  0  0  0  0
  -24.1810  -13.0419   20.9207 C   0  0  0  0  0  0
  -24.6388  -11.6897   20.8787 C   0  0  0  0  0  0
  -23.9075  -10.4285   21.0419 C   0  0  0  0  0  0
  -24.3617   -9.4200   21.9207 C   0  0  0  0  0  0
  -23.6286   -8.2238   22.0771 C   0  0  0  0  0  0
  -22.4290   -8.0270   21.3525 C   0  0  0  0  0  0
  -21.9917   -9.0267   20.4651 C   0  0  0  0  0  0
  -22.7251  -10.2137   20.3063 C   0  0  0  0  0  0
  -21.6851   -6.0751   22.5285 C   0  0  0  0  0  0
  -21.4015   -6.5645   23.8228 C   0  0  0  0  0  0
  -21.3658   -5.6786   24.9183 C   0  0  0  0  0  0
  -21.6037   -4.3052   24.7226 C   0  0  0  0  0  0
  -21.8821   -3.8154   23.4342 C   0  0  0  0  0  0
  -21.9193   -4.6981   22.3405 C   0  0  0  0  0  0
  -22.7838  -13.5198   21.1887 C   0  0  0  0  0  0
  -22.1664   -4.2164   21.0983 F   0  0  0  0  0  0
  -21.5624   -3.4537   25.7736 F   0  0  0  0  0  0
  -30.0374  -13.3111   20.4599 N   0  0  0  0  0  0
  -26.3005  -12.9357   20.3406 N   0  0  0  0  0  0
  -25.9326  -11.6512   20.5870 N   0  0  0  0  0  0
  -22.0481  -12.8199   22.0440 N   0  0  0  0  0  0
  -25.3997  -15.1811   20.3699 N   0  0  0  0  0  0
  -31.8234  -14.6729   20.0787 O   0  0  0  0  0  0
  -21.6621   -6.8894   21.4243 O   0  0  0  0  0  0
  -22.3549  -14.5557   20.6801 O   0  0  0  0  0  0
  -24.6155  -31.8697   23.2103 C   0  0  0  0  0  0
  -25.9010  -32.4830   23.8457 C   0  0  1  0  0  0
  -27.2532  -27.4179   20.0799 C   0  0  0  0  0  0
  -25.5902  -33.8625   24.2380 N   0  0  0  0  0  0
  -23.4081  -30.4869   21.5507 C   0  0  2  0  0  0
  -24.8579  -28.9466   20.1245 C   0  0  0  0  0  0
  -22.7446  -29.4639   22.4990 C   0  0  0  0  0  0
  -18.0308  -28.1360   22.8477 C   0  0  0  0  0  0
  -24.1481  -36.7302   23.2622 C   0  0  0  0  0  0
  -25.9376  -30.8227   21.3687 C   0  0  0  0  0  0
  -26.0187  -29.4494   20.7244 C   0  0  0  0  0  0
  -27.2142  -28.6916   20.7001 C   0  0  0  0  0  0
  -26.0549  -26.9181   19.5065 C   0  0  0  0  0  0
  -24.8714  -27.6767   19.5251 C   0  0  0  0  0  0
  -23.6221  -29.8178   20.1653 C   0  0  0  0  0  0
  -25.4092  -36.3111   24.0339 C   0  0  1  0  0  0
  -20.5897  -28.3637   23.1320 C   0  0  2  0  0  0
  -20.6791  -26.9362   22.5405 C   0  0  0  0  0  0
  -19.5777  -26.6351   21.5199 C   0  0  0  0  0  0
  -18.1960  -26.7913   22.1602 C   0  0  0  0  0  0
  -19.1562  -28.8813   23.2900 C   0  0  0  0  0  0
  -18.9485  -30.1420   23.8899 C   0  0  0  0  0  0
  -17.6485  -30.6544   24.0543 C   0  0  0  0  0  0
  -25.8996  -34.9460   23.5137 C   0  0  0  0  0  0
  -16.5371  -29.9049   23.6303 C   0  0  0  0  0  0
  -16.7300  -28.6477   23.0313 C   0  0  0  0  0  0
  -26.4488  -31.6593   25.0744 C   0  0  0  0  0  0
  -25.3740  -31.3673   26.1493 C   0  0  0  0  0  0
  -27.0321  -30.3040   24.6049 C   0  0  0  0  0  0
  -27.6111  -32.4313   25.7470 C   0  0  0  0  0  0
  -27.5585  -37.1779   24.8464 C   0  0  0  0  0  0
  -21.4176  -29.3013   22.3731 N   0  0  0  0  0  0
  -26.4296  -37.3784   23.9415 N   0  0  0  0  0  0
  -24.6720  -31.0780   22.1019 N   0  0  0  0  0  0
  -23.4197  -28.8168   23.3036 O   0  0  0  0  0  0
  -28.4499  -26.7126   20.0493 O   0  0  0  0  0  0
  -26.5530  -34.8894   22.4676 O   0  0  0  0  0  0
  -23.5341  -32.1495   23.7435 O   0  0  0  0  0  0
  -27.6293  -19.1482   21.5901 C   0  0  0  0  0  0
  -30.3951  -19.2744   21.4476 C   0  0  0  0  0  0
  -28.3697  -17.9675   21.7911 C   0  0  0  0  0  0
  -29.7861  -17.9962   21.6428 C   0  0  0  0  0  0
  -29.6445  -20.4831   21.3319 C   0  0  0  0  0  0
  -28.2281  -20.3976   21.3539 C   0  0  0  0  0  0
  -26.7771  -22.0388   23.5926 C   0  0  0  0  0  0
  -26.6634  -21.4461   19.7095 C   0  0  0  0  0  0
  -30.1817  -24.4363   17.6176 C   0  0  0  0  0  0
  -23.6570  -16.6259   24.3259 C   0  0  0  0  0  0
  -25.2736  -18.4358   24.6911 C   0  0  0  0  0  0
  -27.5416  -16.7567   22.2034 C   0  0  0  0  0  0
  -30.7107  -16.7532   21.7486 C   0  0  0  0  0  0
  -30.3584  -21.8513   21.2944 C   0  0  0  0  0  0
  -26.2132  -21.7753   22.1909 C   0  0  0  0  0  0
  -27.4794  -16.5361   23.7282 C   0  0  0  0  0  0
  -26.0737  -16.1123   24.2277 C   0  0  0  0  0  0
  -30.5462  -24.0777   20.1528 C   0  0  0  0  0  0
  -28.5289  -25.5162   19.2526 C   0  0  0  0  0  0
  -27.2968  -21.5893   21.1030 C   0  0  1  0  0  0
  -29.9839  -25.0111   19.0356 C   0  0  2  0  0  0
  -30.1668  -15.4183   21.4049 N   0  0  0  0  0  0
  -30.1788  -22.6334   20.0409 N   0  3  0  0  0  0
  -25.0118  -17.1403   24.0151 N   0  3  0  0  0  0
  -31.4647  -12.4021   19.1438 H   0  0  0  0  0  0
  -30.3082  -11.3129   19.8497 H   0  0  0  0  0  0
  -29.7301  -11.7623   17.4532 H   0  0  0  0  0  0
  -29.6720  -13.4819   17.7651 H   0  0  0  0  0  0
  -27.8074  -11.3255   18.8188 H   0  0  0  0  0  0
  -27.3706  -12.6662   17.7919 H   0  0  0  0  0  0
  -27.6997  -14.2659   19.5836 H   0  0  0  0  0  0
  -28.6804  -11.9667   21.3415 H   0  0  0  0  0  0
  -28.4562  -13.5957   21.8849 H   0  0  0  0  0  0
  -25.2768   -9.5677   22.4787 H   0  0  0  0  0  0
  -24.0009   -7.4609   22.7469 H   0  0  0  0  0  0
  -21.0859   -8.8780   19.8932 H   0  0  0  0  0  0
  -22.3721  -10.9680   19.6171 H   0  0  0  0  0  0
  -21.2008   -7.6154   23.9733 H   0  0  0  0  0  0
  -21.1478   -6.0520   25.9086 H   0  0  0  0  0  0
  -22.0603   -2.7616   23.2840 H   0  0  0  0  0  0
  -22.4045  -11.9789   22.4743 H   0  0  0  0  0  0
  -21.1098  -13.1226   22.2653 H   0  0  0  0  0  0
  -24.5647  -15.7485   20.2791 H   0  0  0  0  0  0
  -26.1715  -15.5420   19.8244 H   0  0  0  0  0  0
  -26.7054  -32.5543   23.1200 H   0  0  0  0  0  0
  -25.0160  -33.9838   25.0589 H   0  0  0  0  0  0
  -22.6940  -31.2977   21.4086 H   0  0  0  0  0  0
  -23.3748  -35.9613   23.3294 H   0  0  0  0  0  0
  -24.3559  -36.8894   22.2029 H   0  0  0  0  0  0
  -23.7248  -37.6495   23.6642 H   0  0  0  0  0  0
  -26.0459  -31.5737   20.5850 H   0  0  0  0  0  0
  -26.8276  -30.8911   21.9832 H   0  0  0  0  0  0
  -28.1204  -29.0788   21.1467 H   0  0  0  0  0  0
  -26.0130  -25.9478   19.0350 H   0  0  0  0  0  0
  -23.9726  -27.2811   19.0716 H   0  0  0  0  0  0
  -23.7339  -30.5930   19.4058 H   0  0  0  0  0  0
  -22.7470  -29.2345   19.8706 H   0  0  0  0  0  0
  -25.1265  -36.1996   25.0831 H   0  0  0  0  0  0
  -20.9991  -28.3190   24.1456 H   0  0  0  0  0  0
  -20.5740  -26.2201   23.3569 H   0  0  0  0  0  0
  -21.6653  -26.7409   22.1181 H   0  0  0  0  0  0
  -19.6900  -25.6262   21.1226 H   0  0  0  0  0  0
  -19.6751  -27.3128   20.6702 H   0  0  0  0  0  0
  -17.4225  -26.6672   21.3984 H   0  0  0  0  0  0
  -18.0359  -26.0039   22.8998 H   0  0  0  0  0  0
  -19.7956  -30.7238   24.2266 H   0  0  0  0  0  0
  -17.5040  -31.6226   24.5127 H   0  0  0  0  0  0
  -15.5372  -30.2951   23.7611 H   0  0  0  0  0  0
  -15.8718  -28.0787   22.7021 H   0  0  0  0  0  0
  -24.5971  -30.6946   25.7864 H   0  0  0  0  0  0
  -24.8848  -32.2799   26.4894 H   0  0  0  0  0  0
  -25.8091  -30.8937   27.0296 H   0  0  0  0  0  0
  -26.2829  -29.6808   24.1153 H   0  0  0  0  0  0
  -27.4214  -29.7282   25.4453 H   0  0  0  0  0  0
  -27.8641  -30.4416   23.9125 H   0  0  0  0  0  0
  -27.2785  -33.3668   26.1954 H   0  0  0  0  0  0
  -28.3940  -32.6748   25.0269 H   0  0  0  0  0  0
  -28.0724  -31.8493   26.5450 H   0  0  0  0  0  0
  -28.2567  -38.0116   24.7537 H   0  0  0  0  0  0
  -28.1140  -36.2636   24.6295 H   0  0  0  0  0  0
  -27.2301  -37.1420   25.8864 H   0  0  0  0  0  0
  -20.9338  -29.8759   21.6973 H   0  0  0  0  0  0
  -26.0205  -38.2836   24.1474 H   0  0  0  0  0  0
  -26.5515  -19.0954   21.6314 H   0  0  0  0  0  0
  -31.4749  -19.3319   21.4184 H   0  0  0  0  0  0
  -25.9678  -22.1772   24.3081 H   0  0  0  0  0  0
  -27.3892  -22.9434   23.6107 H   0  0  0  0  0  0
  -27.3889  -21.2074   23.9418 H   0  0  0  0  0  0
  -27.4256  -21.3458   18.9339 H   0  0  0  0  0  0
  -26.0388  -22.3026   19.4540 H   0  0  0  0  0  0
  -26.0389  -20.5580   19.6507 H   0  0  0  0  0  0
  -31.2135  -24.1263   17.4446 H   0  0  0  0  0  0
  -29.9353  -25.1838   16.8624 H   0  0  0  0  0  0
  -29.5356  -23.5780   17.4310 H   0  0  0  0  0  0
  -22.8938  -17.3456   24.0298 H   0  0  0  0  0  0
  -23.5411  -16.4350   25.3940 H   0  0  0  0  0  0
  -23.4533  -15.6986   23.7899 H   0  0  0  0  0  0
  -24.4493  -19.1329   24.5323 H   0  0  0  0  0  0
  -26.1652  -18.9218   24.2962 H   0  0  0  0  0  0
  -25.4036  -18.3080   25.7659 H   0  0  0  0  0  0
  -27.7993  -15.8461   21.6755 H   0  0  0  0  0  0
  -26.5308  -16.9475   21.8530 H   0  0  0  0  0  0
  -31.1041  -16.7119   22.7660 H   0  0  0  0  0  0
  -31.5767  -16.9495   21.1164 H   0  0  0  0  0  0
  -31.4208  -21.7373   21.5089 H   0  0  0  0  0  0
  -29.9558  -22.4296   22.1270 H   0  0  0  0  0  0
  -25.5756  -22.6177   21.9148 H   0  0  0  0  0  0
  -25.5467  -20.9149   22.2315 H   0  0  0  0  0  0
  -27.8059  -17.4294   24.2597 H   0  0  0  0  0  0
  -28.2105  -15.7720   24.0021 H   0  0  0  0  0  0
  -26.1198  -15.8613   25.2889 H   0  0  0  0  0  0
  -25.7842  -15.1915   23.7140 H   0  0  0  0  0  0
  -30.2356  -24.4734   21.1216 H   0  0  0  0  0  0
  -31.6359  -24.1329   20.1469 H   0  0  0  0  0  0
  -27.9176  -24.7205   19.6847 H   0  0  0  0  0  0
  -28.1122  -25.7483   18.2714 H   0  0  0  0  0  0
  -27.8572  -22.5203   21.1019 H   0  0  0  0  0  0
  -30.5957  -25.9122   19.0673 H   0  0  0  0  0  0
  -29.2801  -15.1799   21.8160 H   0  0  0  0  0  0
  -29.2150  -22.5708   19.7709 H   0  0  0  0  0  0
  -30.7289  -22.1960   19.3193 H   0  0  0  0  0  0
  -24.9908  -17.3338   23.0244 H   0  0  0  0  0  0
  1 25  1  0  0  0
  1 30  2  0  0  0
  1 92  1  0  0  0
  2  3  1  0  0  0
  2 25  1  0  0  0
  2 95  1  0  0  0
  2 96  1  0  0  0
  3  4  1  0  0  0
  3 97  1  0  0  0
  3 98  1  0  0  0
  4  5  1  0  0  0
  4 99  1  0  0  0
  4100  1  0  0  0
  5  6  1  0  0  0
  5 26  1  0  0  0
  5101  1  0  0  0
  6 25  1  0  0  0
  6102  1  0  0  0
  6103  1  0  0  0
  7  8  2  0  0  0
  7 26  1  0  0  0
  7 29  1  0  0  0
  8  9  1  0  0  0
  8 22  1  0  0  0
  9 10  1  0  0  0
  9 27  2  0  0  0
 10 11  2  0  0  0
 10 15  1  0  0  0
 11 12  1  0  0  0
 11104  1  0  0  0
 12 13  2  0  0  0
 12105  1  0  0  0
 13 14  1  0  0  0
 13 31  1  0  0  0
 14 15  2  0  0  0
 14106  1  0  0  0
 15107  1  0  0  0
 16 17  2  0  0  0
 16 21  1  0  0  0
 16 31  1  0  0  0
 17 18  1  0  0  0
 17108  1  0  0  0
 18 19  2  0  0  0
 18109  1  0  0  0
 19 20  1  0  0  0
 19 24  1  0  0  0
 20 21  2  0  0  0
 20110  1  0  0  0
 21 23  1  0  0  0
 22 28  1  0  0  0
 22 32  2  0  0  0
 26 27  1  0  0  0
 28111  1  0  0  0
 28112  1  0  0  0
 29113  1  0  0  0
 29114  1  0  0  0
 33 34  1  0  0  0
 33 66  1  0  0  0
 33 70  2  0  0  0
 34 36  1  0  0  0
 34 59  1  0  0  0
 34115  1  0  0  0
 35 44  2  0  0  0
 35 45  1  0  0  0
 35 68  1  0  0  0
 36 56  1  0  0  0
 36116  1  0  0  0
 37 39  1  0  0  0
 37 47  1  0  0  0
 37 66  1  0  0  0
 37117  1  0  0  0
 38 43  2  0  0  0
 38 46  1  0  0  0
 38 47  1  0  0  0
 39 64  1  0  0  0
 39 67  2  0  0  0
 40 52  1  0  0  0
 40 53  2  0  0  0
 40 58  1  0  0  0
 41118  1  0  0  0
 41119  1  0  0  0
 41120  1  0  0  0
 41 48  1  0  0  0
 42 43  1  0  0  0
 42 66  1  0  0  0
 42121  1  0  0  0
 42122  1  0  0  0
 43 44  1  0  0  0
 44123  1  0  0  0
 45 46  2  0  0  0
 45124  1  0  0  0
 46125  1  0  0  0
 47126  1  0  0  0
 47127  1  0  0  0
 48 56  1  0  0  0
 48 65  1  0  0  0
 48128  1  0  0  0
 49 50  1  0  0  0
 49 53  1  0  0  0
 49 64  1  0  0  0
 49129  1  0  0  0
 50 51  1  0  0  0
 50130  1  0  0  0
 50131  1  0  0  0
 51 52  1  0  0  0
 51132  1  0  0  0
 51133  1  0  0  0
 52134  1  0  0  0
 52135  1  0  0  0
 53 54  1  0  0  0
 54 55  2  0  0  0
 54136  1  0  0  0
 55 57  1  0  0  0
 55137  1  0  0  0
 56 69  2  0  0  0
 57 58  2  0  0  0
 57138  1  0  0  0
 58139  1  0  0  0
 59 60  1  0  0  0
 59 61  1  0  0  0
 59 62  1  0  0  0
 60140  1  0  0  0
 60141  1  0  0  0
 60142  1  0  0  0
 61143  1  0  0  0
 61144  1  0  0  0
 61145  1  0  0  0
 62146  1  0  0  0
 62147  1  0  0  0
 62148  1  0  0  0
 63 65  1  0  0  0
 63149  1  0  0  0
 63150  1  0  0  0
 63151  1  0  0  0
 64152  1  0  0  0
 65153  1  0  0  0
 68 89  1  0  0  0
 71 73  2  0  0  0
 71 76  1  0  0  0
 71154  1  0  0  0
 72 74  2  0  0  0
 72 75  1  0  0  0
 72155  1  0  0  0
 73 74  1  0  0  0
 73 82  1  0  0  0
 74 83  1  0  0  0
 75 76  2  0  0  0
 75 84  1  0  0  0
 76 90  1  0  0  0
 77 85  1  0  0  0
 77156  1  0  0  0
 77157  1  0  0  0
 77158  1  0  0  0
 78159  1  0  0  0
 78160  1  0  0  0
 78161  1  0  0  0
 78 90  1  0  0  0
 79162  1  0  0  0
 79163  1  0  0  0
 79164  1  0  0  0
 79 91  1  0  0  0
 80165  1  0  0  0
 80166  1  0  0  0
 80167  1  0  0  0
 80 94  1  0  0  0
 81 94  1  0  0  0
 81168  1  0  0  0
 81169  1  0  0  0
 81170  1  0  0  0
 82 86  1  0  0  0
 82171  1  0  0  0
 82172  1  0  0  0
 83 92  1  0  0  0
 83173  1  0  0  0
 83174  1  0  0  0
 84 93  1  0  0  0
 84175  1  0  0  0
 84176  1  0  0  0
 85 90  1  0  0  0
 85177  1  0  0  0
 85178  1  0  0  0
 86 87  1  0  0  0
 86179  1  0  0  0
 86180  1  0  0  0
 87 94  1  0  0  0
 87181  1  0  0  0
 87182  1  0  0  0
 88 91  1  0  0  0
 88 93  1  0  0  0
 88183  1  0  0  0
 88184  1  0  0  0
 89 91  1  0  0  0
 89185  1  0  0  0
 89186  1  0  0  0
 90187  1  0  0  0
 91188  1  0  0  0
 92189  1  0  0  0
 93190  1  0  0  0
 93191  1  0  0  0
 94192  1  0  0  0
M  CHG  2  93   1  94   1
M  ISO  4   1 100  68 101  89 101  92 100
M  END
> <chiral flag>
0

> <version>
0

> <s_m_source_file>
/data/baiqing/PycharmProjects/Reinvent-master-3.2/result/LINK_invent/BTK/process_docking_weight1_custom_sum_contain_oxygen_bond_distance_aromatic_linkinvent_7_9_3/rearranged_h_0095.sdf

> <i_m_source_file_index>
89

> <r_mmod_Potential_Energy-OPLS-2005>
-376.773651123047

> <r_mmod_Stretch_Energy-OPLS-2005>
51.8372650146484

> <r_mmod_Bend_Energy-OPLS-2005>
130.073928833008

> <r_mmod_Torsional_Energy-OPLS-2005>
237.564392089844

> <r_mmod_Improper_Torsional_Energy-OPLS-2005>
5.04555511474609

> <r_mmod_Van_der_Waal_Energy-OPLS-2005>
139.237274169922

> <r_mmod_Electrostatic_Energy-OPLS-2005>
-118.508834838867

> <r_mmod_Solvation_Energy-OPLS-2005>
-834.986694335938

> <b_mmod_Minimization_Converged-OPLS-2005>
0

> <r_mmod_RMS_Derivative-OPLS-2005>
5.41166210174561

$$$$
89
                    3D
 Structure written by MMmdl.
169177  0  0  1  0            999 V2000
  -30.6567  -14.6302   20.5248 C   0  0  0  0  0  0
  -30.4229  -12.3984   19.4528 C   0  0  0  0  0  0
  -29.4963  -12.5036   18.2235 C   0  0  0  0  0  0
  -28.0225  -12.3389   18.6411 C   0  0  0  0  0  0
  -27.6450  -13.2224   19.8600 C   0  0  2  0  0  0
  -28.6884  -13.1042   20.9919 C   0  0  0  0  0  0
  -25.2511  -13.8173   20.5709 C   0  0  0  0  0  0
  -24.1796  -13.0436   20.9199 C   0  0  0  0  0  0
  -24.6375  -11.6907   20.8748 C   0  0  0  0  0  0
  -23.9058  -10.4286   21.0401 C   0  0  0  0  0  0
  -24.3615   -9.4208   21.9186 C   0  0  0  0  0  0
  -23.6294   -8.2244   22.0759 C   0  0  0  0  0  0
  -22.4276   -8.0278   21.3546 C   0  0  0  0  0  0
  -21.9909   -9.0246   20.4645 C   0  0  0  0  0  0
  -22.7231  -10.2123   20.3052 C   0  0  0  0  0  0
  -21.6852   -6.0738   22.5276 C   0  0  0  0  0  0
  -21.4017   -6.5645   23.8208 C   0  0  0  0  0  0
  -21.3658   -5.6798   24.9170 C   0  0  0  0  0  0
  -21.6039   -4.3061   24.7222 C   0  0  0  0  0  0
  -21.8822   -3.8152   23.4344 C   0  0  0  0  0  0
  -21.9193   -4.6967   22.3396 C   0  0  0  0  0  0
  -22.7817  -13.5213   21.1865 C   0  0  0  0  0  0
  -22.1662   -4.2151   21.0977 F   0  0  0  0  0  0
  -21.5622   -3.4545   25.7735 F   0  0  0  0  0  0
  -29.9985  -13.4341   20.4168 N   0  0  0  0  0  0
  -26.2939  -12.9378   20.3316 N   0  0  0  0  0  0
  -25.9298  -11.6524   20.5768 N   0  0  0  0  0  0
  -22.0475  -12.8196   22.0414 N   0  0  0  0  0  0
  -25.4211  -15.1906   20.4149 N   0  0  0  0  0  0
  -31.8308  -14.7386   20.1617 O   0  0  0  0  0  0
  -21.6642   -6.8878   21.4239 O   0  0  0  0  0  0
  -22.3505  -14.5528   20.6711 O   0  0  0  0  0  0
  -24.6250  -31.8583   23.2016 C   0  0  0  0  0  0
  -25.9101  -32.4762   23.8344 C   0  0  1  0  0  0
  -27.2261  -27.3289   20.1336 C   0  0  0  0  0  0
  -25.5933  -33.8561   24.2276 N   0  0  0  0  0  0
  -23.4176  -30.4805   21.5436 C   0  0  2  0  0  0
  -24.8641  -28.9260   20.1149 C   0  0  0  0  0  0
  -22.7464  -29.4603   22.4937 C   0  0  0  0  0  0
  -18.0279  -28.1359   22.8471 C   0  0  0  0  0  0
  -24.1481  -36.7296   23.2642 C   0  0  0  0  0  0
  -25.9547  -30.7950   21.3651 C   0  0  0  0  0  0
  -26.0305  -29.4188   20.7160 C   0  0  0  0  0  0
  -27.2182  -28.6342   20.7073 C   0  0  0  0  0  0
  -26.0436  -26.8715   19.5219 C   0  0  0  0  0  0
  -24.8719  -27.6571   19.5073 C   0  0  0  0  0  0
  -23.6332  -29.8101   20.1598 C   0  0  0  0  0  0
  -25.4099  -36.3071   24.0331 C   0  0  1  0  0  0
  -20.5876  -28.3663   23.1277 C   0  0  2  0  0  0
  -20.6748  -26.9385   22.5407 C   0  0  0  0  0  0
  -19.5738  -26.6370   21.5187 C   0  0  0  0  0  0
  -18.1916  -26.7912   22.1591 C   0  0  0  0  0  0
  -19.1532  -28.8829   23.2869 C   0  0  0  0  0  0
  -18.9457  -30.1428   23.8886 C   0  0  0  0  0  0
  -17.6461  -30.6557   24.0557 C   0  0  0  0  0  0
  -25.9049  -34.9439   23.5100 C   0  0  0  0  0  0
  -16.5351  -29.9064   23.6310 C   0  0  0  0  0  0
  -16.7272  -28.6485   23.0330 C   0  0  0  0  0  0
  -26.4500  -31.6566   25.0706 C   0  0  0  0  0  0
  -25.3765  -31.3670   26.1462 C   0  0  0  0  0  0
  -27.0357  -30.3001   24.6130 C   0  0  0  0  0  0
  -27.6039  -32.4326   25.7484 C   0  0  0  0  0  0
  -27.5568  -37.1807   24.8464 C   0  0  0  0  0  0
  -21.4180  -29.3029   22.3689 N   0  0  0  0  0  0
  -26.4268  -37.3771   23.9414 N   0  0  0  0  0  0
  -24.6848  -31.0621   22.0951 N   0  0  0  0  0  0
  -23.4188  -28.8140   23.3008 O   0  0  0  0  0  0
  -28.3632  -26.5189   20.0978 O   0  0  0  0  0  0
  -26.5612  -34.8908   22.4665 O   0  0  0  0  0  0
  -23.5428  -32.1376   23.7376 O   0  0  0  0  0  0
  -28.8196  -19.0610   21.6425 C   0  0  0  0  0  0
  -29.8588  -18.4599   20.8874 C   0  0  0  0  0  0
  -29.2719  -21.2115   20.7550 C   0  0  0  0  0  0
  -30.2420  -20.5885   19.8827 C   0  0  0  0  0  0
  -27.8103  -25.5766   22.3275 C   0  0  0  0  0  0
  -31.2936  -20.4550   17.5659 C   0  0  0  0  0  0
  -30.6793  -22.6761   18.3649 C   0  0  0  0  0  0
  -29.2186  -22.7432   21.1397 C   0  0  0  0  0  0
  -30.5212  -17.0772   21.2452 C   0  0  0  0  0  0
  -28.2859  -23.8414   20.4403 C   0  0  0  0  0  0
  -32.5897  -21.5216   19.4847 C   0  0  0  0  0  0
  -28.5041  -25.3357   20.9754 C   0  0  1  0  0  0
  -31.1828  -21.3031   18.8652 C   0  0  0  0  0  0
  -28.5347  -20.4012   21.5744 N   0  0  0  0  0  0
  -30.5256  -19.2454   19.9993 N   0  0  0  0  0  0
  -29.9383  -15.7346   20.9018 N   0  0  0  0  0  0
  -33.2775  -20.2609   19.8100 N   0  3  0  0  0  0
  -31.4628  -12.5162   19.1454 H   0  0  0  0  0  0
  -30.3573  -11.4084   19.9064 H   0  0  0  0  0  0
  -29.7601  -11.7471   17.4833 H   0  0  0  0  0  0
  -29.6346  -13.4705   17.7389 H   0  0  0  0  0  0
  -27.8661  -11.2876   18.8845 H   0  0  0  0  0  0
  -27.3636  -12.5566   17.7996 H   0  0  0  0  0  0
  -27.6572  -14.2534   19.5070 H   0  0  0  0  0  0
  -28.6983  -12.0936   21.4032 H   0  0  0  0  0  0
  -28.4366  -13.7651   21.8222 H   0  0  0  0  0  0
  -25.2755   -9.5688   22.4770 H   0  0  0  0  0  0
  -23.9997   -7.4639   22.7483 H   0  0  0  0  0  0
  -21.0844   -8.8763   19.8949 H   0  0  0  0  0  0
  -22.3689  -10.9669   19.6167 H   0  0  0  0  0  0
  -21.2023   -7.6158   23.9709 H   0  0  0  0  0  0
  -21.1469   -6.0534   25.9072 H   0  0  0  0  0  0
  -22.0603   -2.7616   23.2841 H   0  0  0  0  0  0
  -22.4112  -11.9845   22.4766 H   0  0  0  0  0  0
  -21.1083  -13.1188   22.2633 H   0  0  0  0  0  0
  -24.6513  -15.8417   20.5288 H   0  0  0  0  0  0
  -26.2668  -15.6334   20.0797 H   0  0  0  0  0  0
  -26.7171  -32.5428   23.1100 H   0  0  0  0  0  0
  -25.0098  -33.9692   25.0437 H   0  0  0  0  0  0
  -22.7089  -31.2984   21.3981 H   0  0  0  0  0  0
  -23.3723  -35.9646   23.3303 H   0  0  0  0  0  0
  -24.3578  -36.8936   22.2057 H   0  0  0  0  0  0
  -23.7259  -37.6504   23.6674 H   0  0  0  0  0  0
  -26.0779  -31.5547   20.5918 H   0  0  0  0  0  0
  -26.8384  -30.8517   21.9887 H   0  0  0  0  0  0
  -28.1220  -29.0200   21.1570 H   0  0  0  0  0  0
  -26.0318  -25.8964   19.0556 H   0  0  0  0  0  0
  -23.9786  -27.2719   19.0332 H   0  0  0  0  0  0
  -23.7561  -30.5859   19.4036 H   0  0  0  0  0  0
  -22.7516  -29.2441   19.8543 H   0  0  0  0  0  0
  -25.1273  -36.1918   25.0823 H   0  0  0  0  0  0
  -20.9951  -28.3240   24.1401 H   0  0  0  0  0  0
  -20.5585  -26.2288   23.3610 H   0  0  0  0  0  0
  -21.6624  -26.7376   22.1238 H   0  0  0  0  0  0
  -19.6892  -25.6287   21.1202 H   0  0  0  0  0  0
  -19.6670  -27.3182   20.6714 H   0  0  0  0  0  0
  -17.4184  -26.6672   21.3985 H   0  0  0  0  0  0
  -18.0302  -26.0035   22.8964 H   0  0  0  0  0  0
  -19.7935  -30.7238   24.2253 H   0  0  0  0  0  0
  -17.5020  -31.6229   24.5171 H   0  0  0  0  0  0
  -15.5353  -30.2964   23.7642 H   0  0  0  0  0  0
  -15.8670  -28.0817   22.7028 H   0  0  0  0  0  0
  -24.5998  -30.6924   25.7850 H   0  0  0  0  0  0
  -24.8874  -32.2801   26.4850 H   0  0  0  0  0  0
  -25.8167  -30.8942   27.0253 H   0  0  0  0  0  0
  -26.2923  -29.6730   24.1198 H   0  0  0  0  0  0
  -27.4128  -29.7265   25.4609 H   0  0  0  0  0  0
  -27.8750  -30.4292   23.9295 H   0  0  0  0  0  0
  -27.2624  -33.3644   26.1988 H   0  0  0  0  0  0
  -28.3879  -32.6866   25.0344 H   0  0  0  0  0  0
  -28.0657  -31.8504   26.5462 H   0  0  0  0  0  0
  -28.2584  -38.0108   24.7496 H   0  0  0  0  0  0
  -28.1070  -36.2636   24.6293 H   0  0  0  0  0  0
  -27.2299  -37.1475   25.8875 H   0  0  0  0  0  0
  -20.9353  -29.8845   21.6984 H   0  0  0  0  0  0
  -26.0147  -38.2841   24.1416 H   0  0  0  0  0  0
  -28.2955  -18.4948   22.3983 H   0  0  0  0  0  0
  -28.0709  -24.8117   23.0579 H   0  0  0  0  0  0
  -26.7250  -25.5784   22.2245 H   0  0  0  0  0  0
  -28.1018  -26.5399   22.7479 H   0  0  0  0  0  0
  -30.3207  -20.3417   17.0869 H   0  0  0  0  0  0
  -31.6764  -19.4492   17.7413 H   0  0  0  0  0  0
  -31.9643  -20.9148   16.8389 H   0  0  0  0  0  0
  -29.6786  -22.6181   17.9378 H   0  0  0  0  0  0
  -31.3275  -23.0513   17.5720 H   0  0  0  0  0  0
  -30.7080  -23.4568   19.1202 H   0  0  0  0  0  0
  -30.2459  -23.1025   21.1682 H   0  0  0  0  0  0
  -28.9439  -22.7547   22.1955 H   0  0  0  0  0  0
  -30.6520  -17.0748   22.3277 H   0  0  0  0  0  0
  -31.5393  -17.1242   20.8570 H   0  0  0  0  0  0
  -27.2401  -23.5571   20.5713 H   0  0  0  0  0  0
  -28.4461  -23.8363   19.3669 H   0  0  0  0  0  0
  -32.4999  -22.1160   20.3946 H   0  0  0  0  0  0
  -33.2242  -22.0948   18.8076 H   0  0  0  0  0  0
  -29.5736  -25.3754   21.1897 H   0  0  0  0  0  0
  -28.9626  -15.5947   21.1117 H   0  0  0  0  0  0
  -32.6401  -19.6731   20.3229 H   0  0  0  0  0  0
  -34.1033  -20.4292   20.3560 H   0  0  0  0  0  0
  -33.5404  -19.7793   18.9687 H   0  0  0  0  0  0
  1 25  1  0  0  0
  1 30  2  0  0  0
  1 86  1  0  0  0
  2  3  1  0  0  0
  2 25  1  0  0  0
  2 88  1  0  0  0
  2 89  1  0  0  0
  3  4  1  0  0  0
  3 90  1  0  0  0
  3 91  1  0  0  0
  4  5  1  0  0  0
  4 92  1  0  0  0
  4 93  1  0  0  0
  5  6  1  0  0  0
  5 26  1  0  0  0
  5 94  1  0  0  0
  6 25  1  0  0  0
  6 95  1  0  0  0
  6 96  1  0  0  0
  7  8  2  0  0  0
  7 26  1  0  0  0
  7 29  1  0  0  0
  8  9  1  0  0  0
  8 22  1  0  0  0
  9 10  1  0  0  0
  9 27  2  0  0  0
 10 11  2  0  0  0
 10 15  1  0  0  0
 11 12  1  0  0  0
 11 97  1  0  0  0
 12 13  2  0  0  0
 12 98  1  0  0  0
 13 14  1  0  0  0
 13 31  1  0  0  0
 14 15  2  0  0  0
 14 99  1  0  0  0
 15100  1  0  0  0
 16 17  2  0  0  0
 16 21  1  0  0  0
 16 31  1  0  0  0
 17 18  1  0  0  0
 17101  1  0  0  0
 18 19  2  0  0  0
 18102  1  0  0  0
 19 20  1  0  0  0
 19 24  1  0  0  0
 20 21  2  0  0  0
 20103  1  0  0  0
 21 23  1  0  0  0
 22 28  1  0  0  0
 22 32  2  0  0  0
 26 27  1  0  0  0
 28104  1  0  0  0
 28105  1  0  0  0
 29106  1  0  0  0
 29107  1  0  0  0
 33 34  1  0  0  0
 33 66  1  0  0  0
 33 70  2  0  0  0
 34 36  1  0  0  0
 34 59  1  0  0  0
 34108  1  0  0  0
 35 44  2  0  0  0
 35 45  1  0  0  0
 35 68  1  0  0  0
 36 56  1  0  0  0
 36109  1  0  0  0
 37 39  1  0  0  0
 37 47  1  0  0  0
 37 66  1  0  0  0
 37110  1  0  0  0
 38 43  2  0  0  0
 38 46  1  0  0  0
 38 47  1  0  0  0
 39 64  1  0  0  0
 39 67  2  0  0  0
 40 52  1  0  0  0
 40 53  2  0  0  0
 40 58  1  0  0  0
 41111  1  0  0  0
 41112  1  0  0  0
 41113  1  0  0  0
 41 48  1  0  0  0
 42 43  1  0  0  0
 42 66  1  0  0  0
 42114  1  0  0  0
 42115  1  0  0  0
 43 44  1  0  0  0
 44116  1  0  0  0
 45 46  2  0  0  0
 45117  1  0  0  0
 46118  1  0  0  0
 47119  1  0  0  0
 47120  1  0  0  0
 48 56  1  0  0  0
 48 65  1  0  0  0
 48121  1  0  0  0
 49 50  1  0  0  0
 49 53  1  0  0  0
 49 64  1  0  0  0
 49122  1  0  0  0
 50 51  1  0  0  0
 50123  1  0  0  0
 50124  1  0  0  0
 51 52  1  0  0  0
 51125  1  0  0  0
 51126  1  0  0  0
 52127  1  0  0  0
 52128  1  0  0  0
 53 54  1  0  0  0
 54 55  2  0  0  0
 54129  1  0  0  0
 55 57  1  0  0  0
 55130  1  0  0  0
 56 69  2  0  0  0
 57 58  2  0  0  0
 57131  1  0  0  0
 58132  1  0  0  0
 59 60  1  0  0  0
 59 61  1  0  0  0
 59 62  1  0  0  0
 60133  1  0  0  0
 60134  1  0  0  0
 60135  1  0  0  0
 61136  1  0  0  0
 61137  1  0  0  0
 61138  1  0  0  0
 62139  1  0  0  0
 62140  1  0  0  0
 62141  1  0  0  0
 63 65  1  0  0  0
 63142  1  0  0  0
 63143  1  0  0  0
 63144  1  0  0  0
 64145  1  0  0  0
 65146  1  0  0  0
 68 82  1  0  0  0
 71 72  2  0  0  0
 71 84  1  0  0  0
 71147  1  0  0  0
 72 79  1  0  0  0
 72 85  1  0  0  0
 73 74  1  0  0  0
 73 78  1  0  0  0
 73 84  2  0  0  0
 74 83  1  0  0  0
 74 85  2  0  0  0
 75148  1  0  0  0
 75149  1  0  0  0
 75150  1  0  0  0
 75 82  1  0  0  0
 76151  1  0  0  0
 76152  1  0  0  0
 76153  1  0  0  0
 76 83  1  0  0  0
 77 83  1  0  0  0
 77154  1  0  0  0
 77155  1  0  0  0
 77156  1  0  0  0
 78 80  1  0  0  0
 78157  1  0  0  0
 78158  1  0  0  0
 79 86  1  0  0  0
 79159  1  0  0  0
 79160  1  0  0  0
 80 82  1  0  0  0
 80161  1  0  0  0
 80162  1  0  0  0
 81 83  1  0  0  0
 81 87  1  0  0  0
 81163  1  0  0  0
 81164  1  0  0  0
 82165  1  0  0  0
 86166  1  0  0  0
 87167  1  0  0  0
 87168  1  0  0  0
 87169  1  0  0  0
M  CHG  1  87   1
M  ISO  4   1 100  68 101  82 101  86 100
M  END
> <chiral flag>
0

> <version>
0

> <s_m_source_file>
/data/baiqing/PycharmProjects/Reinvent-master-3.2/result/LINK_invent/BTK/process_docking_weight1_custom_sum_contain_oxygen_bond_distance_aromatic_linkinvent_7_9_3/rearranged_h_0095.sdf

> <i_m_source_file_index>
90

> <r_mmod_Potential_Energy-OPLS-2005>
-144.79508972168

> <r_mmod_Stretch_Energy-OPLS-2005>
90.1409301757812

> <r_mmod_Bend_Energy-OPLS-2005>
185.392990112305

> <r_mmod_Torsional_Energy-OPLS-2005>
256.568359375

> <r_mmod_Improper_Torsional_Energy-OPLS-2005>
8.30064296722412

> <r_mmod_Van_der_Waal_Energy-OPLS-2005>
156.934341430664

> <r_mmod_Electrostatic_Energy-OPLS-2005>
-404.919403076172

> <r_mmod_Solvation_Energy-OPLS-2005>
-480.465240478516

> <b_mmod_Minimization_Converged-OPLS-2005>
0

> <r_mmod_RMS_Derivative-OPLS-2005>
2.49291086196899

$$$$
90
                    3D
 Structure written by MMmdl.
179187  0  0  1  0            999 V2000
  -30.5777  -14.7330   20.5296 C   0  0  0  0  0  0
  -30.4488  -12.4520   19.4881 C   0  0  0  0  0  0
  -29.5371  -12.5310   18.2390 C   0  0  0  0  0  0
  -28.0510  -12.3658   18.6227 C   0  0  0  0  0  0
  -27.6499  -13.2288   19.8465 C   0  0  2  0  0  0
  -28.6871  -13.0881   20.9698 C   0  0  0  0  0  0
  -25.2576  -13.8200   20.5644 C   0  0  0  0  0  0
  -24.1844  -13.0476   20.9161 C   0  0  0  0  0  0
  -24.6414  -11.6935   20.8699 C   0  0  0  0  0  0
  -23.9072  -10.4324   21.0393 C   0  0  0  0  0  0
  -24.3594   -9.4243   21.9195 C   0  0  0  0  0  0
  -23.6277   -8.2290   22.0765 C   0  0  0  0  0  0
  -22.4268   -8.0327   21.3541 C   0  0  0  0  0  0
  -21.9922   -9.0295   20.4630 C   0  0  0  0  0  0
  -22.7254  -10.2173   20.3054 C   0  0  0  0  0  0
  -21.6829   -6.0739   22.5273 C   0  0  0  0  0  0
  -21.4004   -6.5624   23.8219 C   0  0  0  0  0  0
  -21.3678   -5.6765   24.9170 C   0  0  0  0  0  0
  -21.6057   -4.3035   24.7206 C   0  0  0  0  0  0
  -21.8813   -3.8149   23.4309 C   0  0  0  0  0  0
  -21.9186   -4.6971   22.3368 C   0  0  0  0  0  0
  -22.7877  -13.5287   21.1813 C   0  0  0  0  0  0
  -22.1676   -4.2176   21.0939 F   0  0  0  0  0  0
  -21.5623   -3.4515   25.7711 F   0  0  0  0  0  0
  -29.9893  -13.4864   20.4473 N   0  0  0  0  0  0
  -26.2980  -12.9373   20.3199 N   0  0  0  0  0  0
  -25.9327  -11.6524   20.5642 N   0  0  0  0  0  0
  -22.0439  -12.8310   22.0296 N   0  0  0  0  0  0
  -25.4445  -15.1913   20.4115 N   0  0  0  0  0  0
  -31.7426  -14.8329   20.1246 O   0  0  0  0  0  0
  -21.6609   -6.8916   21.4249 O   0  0  0  0  0  0
  -22.3610  -14.5605   20.6665 O   0  0  0  0  0  0
  -24.6314  -31.8574   23.1977 C   0  0  0  0  0  0
  -25.9151  -32.4773   23.8324 C   0  0  1  0  0  0
  -27.2253  -27.2928   20.1409 C   0  0  0  0  0  0
  -25.5960  -33.8570   24.2268 N   0  0  0  0  0  0
  -23.4248  -30.4800   21.5406 C   0  0  2  0  0  0
  -24.8706  -28.9187   20.1172 C   0  0  0  0  0  0
  -22.7507  -29.4618   22.4910 C   0  0  0  0  0  0
  -18.0297  -28.1383   22.8482 C   0  0  0  0  0  0
  -24.1492  -36.7296   23.2629 C   0  0  0  0  0  0
  -25.9646  -30.7843   21.3637 C   0  0  0  0  0  0
  -26.0395  -29.4032   20.7188 C   0  0  0  0  0  0
  -27.2221  -28.6033   20.7168 C   0  0  0  0  0  0
  -26.0358  -26.8578   19.5221 C   0  0  0  0  0  0
  -24.8708  -27.6514   19.5087 C   0  0  0  0  0  0
  -23.6426  -29.8082   20.1585 C   0  0  0  0  0  0
  -25.4118  -36.3088   24.0324 C   0  0  1  0  0  0
  -20.5902  -28.3700   23.1262 C   0  0  2  0  0  0
  -20.6791  -26.9421   22.5405 C   0  0  0  0  0  0
  -19.5756  -26.6373   21.5222 C   0  0  0  0  0  0
  -18.1928  -26.7928   22.1625 C   0  0  0  0  0  0
  -19.1549  -28.8857   23.2866 C   0  0  0  0  0  0
  -18.9470  -30.1463   23.8866 C   0  0  0  0  0  0
  -17.6472  -30.6584   24.0570 C   0  0  0  0  0  0
  -25.9057  -34.9452   23.5091 C   0  0  0  0  0  0
  -16.5361  -29.9087   23.6333 C   0  0  0  0  0  0
  -16.7282  -28.6515   23.0336 C   0  0  0  0  0  0
  -26.4506  -31.6574   25.0695 C   0  0  0  0  0  0
  -25.3746  -31.3699   26.1427 C   0  0  0  0  0  0
  -27.0326  -30.3012   24.6093 C   0  0  0  0  0  0
  -27.6040  -32.4297   25.7514 C   0  0  0  0  0  0
  -27.5580  -37.1821   24.8466 C   0  0  0  0  0  0
  -21.4213  -29.3067   22.3673 N   0  0  0  0  0  0
  -26.4293  -37.3795   23.9406 N   0  0  0  0  0  0
  -24.6928  -31.0575   22.0922 N   0  0  0  0  0  0
  -23.4220  -28.8153   23.3000 O   0  0  0  0  0  0
  -28.3466  -26.4480   20.1384 O   0  0  0  0  0  0
  -26.5616  -34.8931   22.4653 O   0  0  0  0  0  0
  -23.5477  -32.1350   23.7323 O   0  0  0  0  0  0
  -30.0280  -17.2285   20.1453 C   0  0  0  0  0  0
  -29.8248  -16.0672   20.8951 C   0  0  0  0  0  0
  -28.9886  -16.5482   21.9822 C   0  0  0  0  0  0
  -28.5556  -17.8420   21.6852 C   0  0  0  0  0  0
  -29.7761  -14.9390   23.8519 C   0  0  0  0  0  0
  -27.2327  -15.3697   23.5187 C   0  0  0  0  0  0
  -25.3505  -20.0077   22.3728 C   0  0  0  0  0  0
  -26.0363  -18.7702   20.2769 C   0  0  0  0  0  0
  -27.6975  -23.2765   18.7903 C   0  0  0  0  0  0
  -29.8939  -24.4268   18.8241 C   0  0  0  0  0  0
  -27.5226  -18.6670   22.4329 C   0  0  0  0  0  0
  -28.9160  -21.1040   20.8122 C   0  0  0  0  0  0
  -29.5109  -22.5703   20.4984 C   0  0  0  0  0  0
  -29.3628  -19.7706   20.0126 C   0  0  0  0  0  0
  -28.2253  -25.0349   20.6101 C   0  0  0  0  0  0
  -28.6809  -15.8870   23.3322 C   0  0  0  0  0  0
  -26.1011  -18.7854   21.8130 C   0  0  0  0  0  0
  -28.7994  -23.8083   19.7225 C   0  0  0  0  0  0
  -29.3102  -18.3560   20.6242 N   0  0  0  0  0  0
  -31.4933  -12.5814   19.2044 H   0  0  0  0  0  0
  -30.4010  -11.4602   19.9406 H   0  0  0  0  0  0
  -29.8317  -11.7731   17.5128 H   0  0  0  0  0  0
  -29.6858  -13.4951   17.7505 H   0  0  0  0  0  0
  -27.8758  -11.3110   18.8370 H   0  0  0  0  0  0
  -27.4203  -12.6156   17.7669 H   0  0  0  0  0  0
  -27.6668  -14.2663   19.5130 H   0  0  0  0  0  0
  -28.7181  -12.0640   21.3503 H   0  0  0  0  0  0
  -28.4211  -13.7057   21.8047 H   0  0  0  0  0  0
  -25.2733   -9.5696   22.4784 H   0  0  0  0  0  0
  -23.9967   -7.4624   22.7468 H   0  0  0  0  0  0
  -21.0896   -8.8821   19.8851 H   0  0  0  0  0  0
  -22.3776  -10.9708   19.6147 H   0  0  0  0  0  0
  -21.2015   -7.6133   23.9767 H   0  0  0  0  0  0
  -21.1516   -6.0462   25.9074 H   0  0  0  0  0  0
  -22.0593   -2.7627   23.2789 H   0  0  0  0  0  0
  -22.3968  -11.9964   22.4710 H   0  0  0  0  0  0
  -21.1086  -13.1481   22.2423 H   0  0  0  0  0  0
  -24.7223  -15.8829   20.5752 H   0  0  0  0  0  0
  -26.3536  -15.6016   20.2289 H   0  0  0  0  0  0
  -26.7231  -32.5446   23.1082 H   0  0  0  0  0  0
  -25.0218  -33.9713   25.0492 H   0  0  0  0  0  0
  -22.7198  -31.3014   21.3949 H   0  0  0  0  0  0
  -23.3766  -35.9616   23.3276 H   0  0  0  0  0  0
  -24.3582  -36.8944   22.2047 H   0  0  0  0  0  0
  -23.7238  -37.6488   23.6664 H   0  0  0  0  0  0
  -26.0830  -31.5354   20.5803 H   0  0  0  0  0  0
  -26.8508  -30.8523   21.9827 H   0  0  0  0  0  0
  -28.1212  -28.9755   21.1876 H   0  0  0  0  0  0
  -26.0060  -25.8849   19.0528 H   0  0  0  0  0  0
  -23.9767  -27.2735   19.0317 H   0  0  0  0  0  0
  -23.7732  -30.5819   19.4012 H   0  0  0  0  0  0
  -22.7590  -29.2464   19.8512 H   0  0  0  0  0  0
  -25.1302  -36.1926   25.0820 H   0  0  0  0  0  0
  -20.9996  -28.3282   24.1383 H   0  0  0  0  0  0
  -20.5712  -26.2318   23.3626 H   0  0  0  0  0  0
  -21.6658  -26.7441   22.1195 H   0  0  0  0  0  0
  -19.6919  -25.6276   21.1276 H   0  0  0  0  0  0
  -19.6686  -27.3170   20.6738 H   0  0  0  0  0  0
  -17.4217  -26.6690   21.4012 H   0  0  0  0  0  0
  -18.0298  -26.0060   22.9004 H   0  0  0  0  0  0
  -19.7945  -30.7304   24.2204 H   0  0  0  0  0  0
  -17.5019  -31.6258   24.5187 H   0  0  0  0  0  0
  -15.5364  -30.2989   23.7642 H   0  0  0  0  0  0
  -15.8694  -28.0851   22.7019 H   0  0  0  0  0  0
  -24.5939  -30.7015   25.7781 H   0  0  0  0  0  0
  -24.8911  -32.2859   26.4831 H   0  0  0  0  0  0
  -25.8094  -30.8919   27.0216 H   0  0  0  0  0  0
  -26.2857  -29.6792   24.1146 H   0  0  0  0  0  0
  -27.4094  -29.7228   25.4534 H   0  0  0  0  0  0
  -27.8700  -30.4321   23.9237 H   0  0  0  0  0  0
  -27.2621  -33.3593   26.2080 H   0  0  0  0  0  0
  -28.3899  -32.6866   25.0395 H   0  0  0  0  0  0
  -28.0652  -31.8424   26.5470 H   0  0  0  0  0  0
  -28.2598  -38.0120   24.7533 H   0  0  0  0  0  0
  -28.1088  -36.2657   24.6280 H   0  0  0  0  0  0
  -27.2299  -37.1459   25.8870 H   0  0  0  0  0  0
  -20.9388  -29.8848   21.6931 H   0  0  0  0  0  0
  -26.0167  -38.2869   24.1412 H   0  0  0  0  0  0
  -30.6708  -17.3510   19.2846 H   0  0  0  0  0  0
  -30.7439  -15.4478   23.8542 H   0  0  0  0  0  0
  -29.8934  -14.0221   23.2830 H   0  0  0  0  0  0
  -29.5688  -14.6470   24.8820 H   0  0  0  0  0  0
  -26.5063  -16.1699   23.3891 H   0  0  0  0  0  0
  -27.0911  -14.9803   24.5275 H   0  0  0  0  0  0
  -26.9293  -14.5888   22.8304 H   0  0  0  0  0  0
  -24.3527  -20.0888   21.9411 H   0  0  0  0  0  0
  -25.8775  -20.9393   22.1605 H   0  0  0  0  0  0
  -25.2319  -19.9370   23.4554 H   0  0  0  0  0  0
  -25.0019  -18.7124   19.9359 H   0  0  0  0  0  0
  -26.5497  -17.9029   19.8642 H   0  0  0  0  0  0
  -26.4618  -19.6722   19.8420 H   0  0  0  0  0  0
  -28.0890  -22.5308   18.0962 H   0  0  0  0  0  0
  -27.2653  -24.0812   18.1962 H   0  0  0  0  0  0
  -26.8854  -22.8136   19.3523 H   0  0  0  0  0  0
  -30.3028  -23.7024   18.1171 H   0  0  0  0  0  0
  -30.7250  -24.8082   19.4182 H   0  0  0  0  0  0
  -29.5090  -25.2585   18.2314 H   0  0  0  0  0  0
  -27.9108  -19.6490   22.6575 H   0  0  0  0  0  0
  -27.3860  -18.2669   23.4329 H   0  0  0  0  0  0
  -27.8332  -21.1650   20.8948 H   0  0  0  0  0  0
  -29.2932  -20.9336   21.8206 H   0  0  0  0  0  0
  -30.4852  -22.3840   20.0475 H   0  0  0  0  0  0
  -29.7820  -22.9816   21.4725 H   0  0  0  0  0  0
  -30.3991  -19.9231   19.7146 H   0  0  0  0  0  0
  -28.8112  -19.7392   19.0746 H   0  0  0  0  0  0
  -28.7659  -25.0326   21.5573 H   0  0  0  0  0  0
  -27.1943  -24.8175   20.9011 H   0  0  0  0  0  0
  -28.7610  -16.7113   24.0410 H   0  0  0  0  0  0
  -25.5438  -17.9000   22.1257 H   0  0  0  0  0  0
  1 25  1  0  0  0
  1 30  2  0  0  0
  1 72  1  0  0  0
  2  3  1  0  0  0
  2 25  1  0  0  0
  2 90  1  0  0  0
  2 91  1  0  0  0
  3  4  1  0  0  0
  3 92  1  0  0  0
  3 93  1  0  0  0
  4  5  1  0  0  0
  4 94  1  0  0  0
  4 95  1  0  0  0
  5  6  1  0  0  0
  5 26  1  0  0  0
  5 96  1  0  0  0
  6 25  1  0  0  0
  6 97  1  0  0  0
  6 98  1  0  0  0
  7  8  2  0  0  0
  7 26  1  0  0  0
  7 29  1  0  0  0
  8  9  1  0  0  0
  8 22  1  0  0  0
  9 10  1  0  0  0
  9 27  2  0  0  0
 10 11  2  0  0  0
 10 15  1  0  0  0
 11 12  1  0  0  0
 11 99  1  0  0  0
 12 13  2  0  0  0
 12100  1  0  0  0
 13 14  1  0  0  0
 13 31  1  0  0  0
 14 15  2  0  0  0
 14101  1  0  0  0
 15102  1  0  0  0
 16 17  2  0  0  0
 16 21  1  0  0  0
 16 31  1  0  0  0
 17 18  1  0  0  0
 17103  1  0  0  0
 18 19  2  0  0  0
 18104  1  0  0  0
 19 20  1  0  0  0
 19 24  1  0  0  0
 20 21  2  0  0  0
 20105  1  0  0  0
 21 23  1  0  0  0
 22 28  1  0  0  0
 22 32  2  0  0  0
 26 27  1  0  0  0
 28106  1  0  0  0
 28107  1  0  0  0
 29108  1  0  0  0
 29109  1  0  0  0
 33 34  1  0  0  0
 33 66  1  0  0  0
 33 70  2  0  0  0
 34 36  1  0  0  0
 34 59  1  0  0  0
 34110  1  0  0  0
 35 44  2  0  0  0
 35 45  1  0  0  0
 35 68  1  0  0  0
 36 56  1  0  0  0
 36111  1  0  0  0
 37 39  1  0  0  0
 37 47  1  0  0  0
 37 66  1  0  0  0
 37112  1  0  0  0
 38 43  2  0  0  0
 38 46  1  0  0  0
 38 47  1  0  0  0
 39 64  1  0  0  0
 39 67  2  0  0  0
 40 52  1  0  0  0
 40 53  2  0  0  0
 40 58  1  0  0  0
 41113  1  0  0  0
 41114  1  0  0  0
 41115  1  0  0  0
 41 48  1  0  0  0
 42 43  1  0  0  0
 42 66  1  0  0  0
 42116  1  0  0  0
 42117  1  0  0  0
 43 44  1  0  0  0
 44118  1  0  0  0
 45 46  2  0  0  0
 45119  1  0  0  0
 46120  1  0  0  0
 47121  1  0  0  0
 47122  1  0  0  0
 48 56  1  0  0  0
 48 65  1  0  0  0
 48123  1  0  0  0
 49 50  1  0  0  0
 49 53  1  0  0  0
 49 64  1  0  0  0
 49124  1  0  0  0
 50 51  1  0  0  0
 50125  1  0  0  0
 50126  1  0  0  0
 51 52  1  0  0  0
 51127  1  0  0  0
 51128  1  0  0  0
 52129  1  0  0  0
 52130  1  0  0  0
 53 54  1  0  0  0
 54 55  2  0  0  0
 54131  1  0  0  0
 55 57  1  0  0  0
 55132  1  0  0  0
 56 69  2  0  0  0
 57 58  2  0  0  0
 57133  1  0  0  0
 58134  1  0  0  0
 59 60  1  0  0  0
 59 61  1  0  0  0
 59 62  1  0  0  0
 60135  1  0  0  0
 60136  1  0  0  0
 60137  1  0  0  0
 61138  1  0  0  0
 61139  1  0  0  0
 61140  1  0  0  0
 62141  1  0  0  0
 62142  1  0  0  0
 62143  1  0  0  0
 63 65  1  0  0  0
 63144  1  0  0  0
 63145  1  0  0  0
 63146  1  0  0  0
 64147  1  0  0  0
 65148  1  0  0  0
 68 85  1  0  0  0
 71 72  2  0  0  0
 71 89  1  0  0  0
 71149  1  0  0  0
 72 73  1  0  0  0
 73 74  2  0  0  0
 73 86  1  0  0  0
 74 81  1  0  0  0
 74 89  1  0  0  0
 75150  1  0  0  0
 75151  1  0  0  0
 75152  1  0  0  0
 75 86  1  0  0  0
 76 86  1  0  0  0
 76153  1  0  0  0
 76154  1  0  0  0
 76155  1  0  0  0
 77156  1  0  0  0
 77157  1  0  0  0
 77158  1  0  0  0
 77 87  1  0  0  0
 78 87  1  0  0  0
 78159  1  0  0  0
 78160  1  0  0  0
 78161  1  0  0  0
 79162  1  0  0  0
 79163  1  0  0  0
 79164  1  0  0  0
 79 88  1  0  0  0
 80 88  1  0  0  0
 80165  1  0  0  0
 80166  1  0  0  0
 80167  1  0  0  0
 81 87  1  0  0  0
 81168  1  0  0  0
 81169  1  0  0  0
 82 83  1  0  0  0
 82 84  1  0  0  0
 82170  1  0  0  0
 82171  1  0  0  0
 83 88  1  0  0  0
 83172  1  0  0  0
 83173  1  0  0  0
 84 89  1  0  0  0
 84174  1  0  0  0
 84175  1  0  0  0
 85 88  1  0  0  0
 85176  1  0  0  0
 85177  1  0  0  0
 86178  1  0  0  0
 87179  1  0  0  0
M  ISO  4   1 100  68 101  72 100  85 101
M  END
> <chiral flag>
0

> <version>
0

> <s_m_source_file>
/data/baiqing/PycharmProjects/Reinvent-master-3.2/result/LINK_invent/BTK/process_docking_weight1_custom_sum_contain_oxygen_bond_distance_aromatic_linkinvent_7_9_3/rearranged_h_0095.sdf

> <i_m_source_file_index>
91

> <r_mmod_Potential_Energy-OPLS-2005>
330.462341308594

> <r_mmod_Stretch_Energy-OPLS-2005>
128.616577148438

> <r_mmod_Bend_Energy-OPLS-2005>
228.249374389648

> <r_mmod_Torsional_Energy-OPLS-2005>
276.023895263672

> <r_mmod_Improper_Torsional_Energy-OPLS-2005>
5.65247440338135

> <r_mmod_Van_der_Waal_Energy-OPLS-2005>
109.411987304688

> <r_mmod_Electrostatic_Energy-OPLS-2005>
-322.313018798828

> <r_mmod_Solvation_Energy-OPLS-2005>
-162.585372924805

> <b_mmod_Minimization_Converged-OPLS-2005>
0

> <r_mmod_RMS_Derivative-OPLS-2005>
4.68734264373779

$$$$
91
                    3D
 Structure written by MMmdl.
160168  0  0  1  0            999 V2000
  -30.5963  -14.7817   20.4736 C   0  0  0  0  0  0
  -30.4475  -12.4889   19.4633 C   0  0  0  0  0  0
  -29.5121  -12.5010   18.2332 C   0  0  0  0  0  0
  -28.0404  -12.3233   18.6545 C   0  0  0  0  0  0
  -27.6456  -13.2290   19.8500 C   0  0  2  0  0  0
  -28.6939  -13.1666   20.9823 C   0  0  0  0  0  0
  -25.2545  -13.8176   20.5699 C   0  0  0  0  0  0
  -24.1840  -13.0438   20.9196 C   0  0  0  0  0  0
  -24.6420  -11.6899   20.8754 C   0  0  0  0  0  0
  -23.9093  -10.4287   21.0407 C   0  0  0  0  0  0
  -24.3635   -9.4205   21.9185 C   0  0  0  0  0  0
  -23.6306   -8.2251   22.0766 C   0  0  0  0  0  0
  -22.4290   -8.0286   21.3546 C   0  0  0  0  0  0
  -21.9919   -9.0270   20.4649 C   0  0  0  0  0  0
  -22.7260  -10.2145   20.3059 C   0  0  0  0  0  0
  -21.6849   -6.0740   22.5275 C   0  0  0  0  0  0
  -21.4009   -6.5645   23.8209 C   0  0  0  0  0  0
  -21.3649   -5.6799   24.9167 C   0  0  0  0  0  0
  -21.6044   -4.3065   24.7220 C   0  0  0  0  0  0
  -21.8822   -3.8154   23.4344 C   0  0  0  0  0  0
  -21.9204   -4.6969   22.3396 C   0  0  0  0  0  0
  -22.7855  -13.5219   21.1849 C   0  0  0  0  0  0
  -22.1669   -4.2154   21.0974 F   0  0  0  0  0  0
  -21.5630   -3.4537   25.7734 F   0  0  0  0  0  0
  -29.9873  -13.5444   20.3973 N   0  0  0  0  0  0
  -26.2977  -12.9389   20.3290 N   0  0  0  0  0  0
  -25.9358  -11.6537   20.5769 N   0  0  0  0  0  0
  -22.0511  -12.8218   22.0408 N   0  0  0  0  0  0
  -25.4209  -15.1913   20.4102 N   0  0  0  0  0  0
  -31.7769  -14.9058   20.1459 O   0  0  0  0  0  0
  -21.6650   -6.8890   21.4237 O   0  0  0  0  0  0
  -22.3545  -14.5525   20.6684 O   0  0  0  0  0  0
  -24.6222  -31.8646   23.2060 C   0  0  0  0  0  0
  -25.9069  -32.4824   23.8395 C   0  0  1  0  0  0
  -27.2306  -27.2979   20.1449 C   0  0  0  0  0  0
  -25.5891  -33.8626   24.2350 N   0  0  0  0  0  0
  -23.4231  -30.4818   21.5468 C   0  0  2  0  0  0
  -24.8813  -28.9430   20.1144 C   0  0  0  0  0  0
  -22.7470  -29.4622   22.4942 C   0  0  0  0  0  0
  -18.0299  -28.1348   22.8503 C   0  0  0  0  0  0
  -24.1480  -36.7266   23.2658 C   0  0  0  0  0  0
  -25.9628  -30.7937   21.3834 C   0  0  0  0  0  0
  -26.0478  -29.4169   20.7280 C   0  0  0  0  0  0
  -27.2262  -28.6057   20.7354 C   0  0  0  0  0  0
  -26.0536  -26.9087   19.4664 C   0  0  0  0  0  0
  -24.8894  -27.6979   19.4692 C   0  0  0  0  0  0
  -23.6443  -29.8150   20.1628 C   0  0  0  0  0  0
  -25.4112  -36.3120   24.0358 C   0  0  1  0  0  0
  -20.5885  -28.3689   23.1258 C   0  0  2  0  0  0
  -20.6784  -26.9410   22.5391 C   0  0  0  0  0  0
  -19.5752  -26.6358   21.5201 C   0  0  0  0  0  0
  -18.1935  -26.7902   22.1623 C   0  0  0  0  0  0
  -19.1548  -28.8820   23.2888 C   0  0  0  0  0  0
  -18.9489  -30.1426   23.8913 C   0  0  0  0  0  0
  -17.6489  -30.6573   24.0542 C   0  0  0  0  0  0
  -25.9048  -34.9494   23.5171 C   0  0  0  0  0  0
  -16.5378  -29.9058   23.6313 C   0  0  0  0  0  0
  -16.7290  -28.6465   23.0372 C   0  0  0  0  0  0
  -26.4509  -31.6588   25.0730 C   0  0  0  0  0  0
  -25.3731  -31.3635   26.1433 C   0  0  0  0  0  0
  -27.0399  -30.3047   24.6126 C   0  0  0  0  0  0
  -27.6088  -32.4313   25.7461 C   0  0  0  0  0  0
  -27.5594  -37.1785   24.8475 C   0  0  0  0  0  0
  -21.4182  -29.3057   22.3658 N   0  0  0  0  0  0
  -26.4309  -37.3791   23.9420 N   0  0  0  0  0  0
  -24.6879  -31.0611   22.1044 N   0  0  0  0  0  0
  -23.4171  -28.8158   23.3033 O   0  0  0  0  0  0
  -28.3270  -26.4086   20.2015 O   0  0  0  0  0  0
  -26.5613  -34.8944   22.4736 O   0  0  0  0  0  0
  -23.5367  -32.1459   23.7353 O   0  0  0  0  0  0
  -29.6148  -21.1866   20.3628 C   0  0  0  0  0  0
  -29.0350  -19.9555   20.0246 C   0  0  0  0  0  0
  -27.7055  -20.3445   19.6438 C   0  0  0  0  0  0
  -27.5799  -21.7158   19.6426 C   0  0  0  0  0  0
  -26.3915  -22.5099   19.1818 C   0  0  0  0  0  0
  -26.5199  -19.2688   17.6750 C   0  0  0  0  0  0
  -29.5984  -18.4550   19.8161 C   0  0  0  0  0  0
  -26.5944  -19.4226   19.2008 C   0  0  0  0  0  0
  -29.1182  -23.7991   20.0673 C   0  0  0  0  0  0
  -30.0710  -17.3939   20.9425 C   0  0  0  0  0  0
  -28.0737  -24.9570   20.5086 C   0  0  0  0  0  0
  -28.7637  -22.3005   20.0806 N   0  0  0  0  0  0
  -29.7992  -15.8883   20.7471 N   0  0  0  0  0  0
  -31.4793  -12.6436   19.1470 H   0  0  0  0  0  0
  -30.4315  -11.5164   19.9546 H   0  0  0  0  0  0
  -29.7964  -11.7071   17.5407 H   0  0  0  0  0  0
  -29.6311  -13.4381   17.6877 H   0  0  0  0  0  0
  -27.9050  -11.2753   18.9263 H   0  0  0  0  0  0
  -27.3795  -12.5040   17.8071 H   0  0  0  0  0  0
  -27.6400  -14.2495   19.4676 H   0  0  0  0  0  0
  -28.7489  -12.1647   21.4119 H   0  0  0  0  0  0
  -28.4224  -13.8333   21.8037 H   0  0  0  0  0  0
  -25.2775   -9.5681   22.4758 H   0  0  0  0  0  0
  -24.0002   -7.4649   22.7486 H   0  0  0  0  0  0
  -21.0849   -8.8796   19.8956 H   0  0  0  0  0  0
  -22.3715  -10.9693   19.6176 H   0  0  0  0  0  0
  -21.1989   -7.6149   23.9703 H   0  0  0  0  0  0
  -21.1459   -6.0528   25.9071 H   0  0  0  0  0  0
  -22.0612   -2.7614   23.2842 H   0  0  0  0  0  0
  -22.4160  -11.9894   22.4798 H   0  0  0  0  0  0
  -21.1128  -13.1237   22.2622 H   0  0  0  0  0  0
  -24.6413  -15.8313   20.5099 H   0  0  0  0  0  0
  -26.2583  -15.6363   20.0607 H   0  0  0  0  0  0
  -26.7146  -32.5573   23.1155 H   0  0  0  0  0  0
  -24.9963  -33.9745   25.0454 H   0  0  0  0  0  0
  -22.7194  -31.3023   21.3975 H   0  0  0  0  0  0
  -23.3797  -35.9553   23.3322 H   0  0  0  0  0  0
  -24.3547  -36.8877   22.2070 H   0  0  0  0  0  0
  -23.7180  -37.6451   23.6666 H   0  0  0  0  0  0
  -26.0843  -31.5672   20.6238 H   0  0  0  0  0  0
  -26.8420  -30.8499   22.0115 H   0  0  0  0  0  0
  -28.1167  -28.9609   21.2381 H   0  0  0  0  0  0
  -26.0086  -25.9797   18.9197 H   0  0  0  0  0  0
  -23.9991  -27.3404   18.9702 H   0  0  0  0  0  0
  -23.7564  -30.5898   19.4031 H   0  0  0  0  0  0
  -22.7714  -29.2289   19.8687 H   0  0  0  0  0  0
  -25.1290  -36.2000   25.0852 H   0  0  0  0  0  0
  -21.0007  -28.3295   24.1368 H   0  0  0  0  0  0
  -20.5641  -26.2339   23.3625 H   0  0  0  0  0  0
  -21.6667  -26.7412   22.1230 H   0  0  0  0  0  0
  -19.6932  -25.6258   21.1251 H   0  0  0  0  0  0
  -19.6663  -27.3160   20.6725 H   0  0  0  0  0  0
  -17.4214  -26.6657   21.4013 H   0  0  0  0  0  0
  -18.0329  -25.9998   22.8969 H   0  0  0  0  0  0
  -19.7969  -30.7202   24.2305 H   0  0  0  0  0  0
  -17.5064  -31.6259   24.5132 H   0  0  0  0  0  0
  -15.5378  -30.2975   23.7630 H   0  0  0  0  0  0
  -15.8690  -28.0768   22.7106 H   0  0  0  0  0  0
  -24.5961  -30.6954   25.7675 H   0  0  0  0  0  0
  -24.8836  -32.2752   26.4864 H   0  0  0  0  0  0
  -25.8041  -30.8781   27.0192 H   0  0  0  0  0  0
  -26.3000  -29.6706   24.1238 H   0  0  0  0  0  0
  -27.4263  -29.7366   25.4579 H   0  0  0  0  0  0
  -27.8766  -30.4378   23.9277 H   0  0  0  0  0  0
  -27.2785  -33.3658   26.1997 H   0  0  0  0  0  0
  -28.3898  -32.6776   25.0260 H   0  0  0  0  0  0
  -28.0767  -31.8454   26.5379 H   0  0  0  0  0  0
  -28.2618  -38.0076   24.7580 H   0  0  0  0  0  0
  -28.1085  -36.2617   24.6272 H   0  0  0  0  0  0
  -27.2280  -37.1391   25.8863 H   0  0  0  0  0  0
  -20.9371  -29.8808   21.6888 H   0  0  0  0  0  0
  -26.0215  -38.2870   24.1447 H   0  0  0  0  0  0
  -30.6232  -21.3915   20.7057 H   0  0  0  0  0  0
  -26.6843  -23.3556   18.5579 H   0  0  0  0  0  0
  -25.8218  -22.8744   20.0352 H   0  0  0  0  0  0
  -25.7041  -21.9155   18.5791 H   0  0  0  0  0  0
  -25.7002  -18.6040   17.4009 H   0  0  0  0  0  0
  -27.4418  -18.8546   17.2671 H   0  0  0  0  0  0
  -26.3380  -20.2259   17.1809 H   0  0  0  0  0  0
  -30.4323  -18.5642   19.1210 H   0  0  0  0  0  0
  -28.8434  -17.9435   19.2214 H   0  0  0  0  0  0
  -25.6542  -19.8259   19.5759 H   0  0  0  0  0  0
  -26.7038  -18.4505   19.6770 H   0  0  0  0  0  0
  -30.0053  -23.9249   20.6893 H   0  0  0  0  0  0
  -29.4503  -24.0195   19.0495 H   0  0  0  0  0  0
  -29.5869  -17.6677   21.8810 H   0  0  0  0  0  0
  -31.1370  -17.5362   21.1257 H   0  0  0  0  0  0
  -27.9888  -24.8833   21.5928 H   0  0  0  0  0  0
  -27.0828  -24.6952   20.1743 H   0  0  0  0  0  0
  -28.8484  -15.6329   20.9645 H   0  0  0  0  0  0
  1 25  1  0  0  0
  1 30  2  0  0  0
  1 83  1  0  0  0
  2  3  1  0  0  0
  2 25  1  0  0  0
  2 84  1  0  0  0
  2 85  1  0  0  0
  3  4  1  0  0  0
  3 86  1  0  0  0
  3 87  1  0  0  0
  4  5  1  0  0  0
  4 88  1  0  0  0
  4 89  1  0  0  0
  5  6  1  0  0  0
  5 26  1  0  0  0
  5 90  1  0  0  0
  6 25  1  0  0  0
  6 91  1  0  0  0
  6 92  1  0  0  0
  7  8  2  0  0  0
  7 26  1  0  0  0
  7 29  1  0  0  0
  8  9  1  0  0  0
  8 22  1  0  0  0
  9 10  1  0  0  0
  9 27  2  0  0  0
 10 11  2  0  0  0
 10 15  1  0  0  0
 11 12  1  0  0  0
 11 93  1  0  0  0
 12 13  2  0  0  0
 12 94  1  0  0  0
 13 14  1  0  0  0
 13 31  1  0  0  0
 14 15  2  0  0  0
 14 95  1  0  0  0
 15 96  1  0  0  0
 16 17  2  0  0  0
 16 21  1  0  0  0
 16 31  1  0  0  0
 17 18  1  0  0  0
 17 97  1  0  0  0
 18 19  2  0  0  0
 18 98  1  0  0  0
 19 20  1  0  0  0
 19 24  1  0  0  0
 20 21  2  0  0  0
 20 99  1  0  0  0
 21 23  1  0  0  0
 22 28  1  0  0  0
 22 32  2  0  0  0
 26 27  1  0  0  0
 28100  1  0  0  0
 28101  1  0  0  0
 29102  1  0  0  0
 29103  1  0  0  0
 33 34  1  0  0  0
 33 66  1  0  0  0
 33 70  2  0  0  0
 34 36  1  0  0  0
 34 59  1  0  0  0
 34104  1  0  0  0
 35 44  2  0  0  0
 35 45  1  0  0  0
 35 68  1  0  0  0
 36 56  1  0  0  0
 36105  1  0  0  0
 37 39  1  0  0  0
 37 47  1  0  0  0
 37 66  1  0  0  0
 37106  1  0  0  0
 38 43  2  0  0  0
 38 46  1  0  0  0
 38 47  1  0  0  0
 39 64  1  0  0  0
 39 67  2  0  0  0
 40 52  1  0  0  0
 40 53  2  0  0  0
 40 58  1  0  0  0
 41107  1  0  0  0
 41108  1  0  0  0
 41109  1  0  0  0
 41 48  1  0  0  0
 42 43  1  0  0  0
 42 66  1  0  0  0
 42110  1  0  0  0
 42111  1  0  0  0
 43 44  1  0  0  0
 44112  1  0  0  0
 45 46  2  0  0  0
 45113  1  0  0  0
 46114  1  0  0  0
 47115  1  0  0  0
 47116  1  0  0  0
 48 56  1  0  0  0
 48 65  1  0  0  0
 48117  1  0  0  0
 49 50  1  0  0  0
 49 53  1  0  0  0
 49 64  1  0  0  0
 49118  1  0  0  0
 50 51  1  0  0  0
 50119  1  0  0  0
 50120  1  0  0  0
 51 52  1  0  0  0
 51121  1  0  0  0
 51122  1  0  0  0
 52123  1  0  0  0
 52124  1  0  0  0
 53 54  1  0  0  0
 54 55  2  0  0  0
 54125  1  0  0  0
 55 57  1  0  0  0
 55126  1  0  0  0
 56 69  2  0  0  0
 57 58  2  0  0  0
 57127  1  0  0  0
 58128  1  0  0  0
 59 60  1  0  0  0
 59 61  1  0  0  0
 59 62  1  0  0  0
 60129  1  0  0  0
 60130  1  0  0  0
 60131  1  0  0  0
 61132  1  0  0  0
 61133  1  0  0  0
 61134  1  0  0  0
 62135  1  0  0  0
 62136  1  0  0  0
 62137  1  0  0  0
 63 65  1  0  0  0
 63138  1  0  0  0
 63139  1  0  0  0
 63140  1  0  0  0
 64141  1  0  0  0
 65142  1  0  0  0
 68 81  1  0  0  0
 71 72  2  0  0  0
 71 82  1  0  0  0
 71143  1  0  0  0
 72 73  1  0  0  0
 72 77  1  0  0  0
 73 74  2  0  0  0
 73 78  1  0  0  0
 74 75  1  0  0  0
 74 82  1  0  0  0
 75144  1  0  0  0
 75145  1  0  0  0
 75146  1  0  0  0
 76 78  1  0  0  0
 76147  1  0  0  0
 76148  1  0  0  0
 76149  1  0  0  0
 77 80  1  0  0  0
 77150  1  0  0  0
 77151  1  0  0  0
 78152  1  0  0  0
 78153  1  0  0  0
 79 81  1  0  0  0
 79 82  1  0  0  0
 79154  1  0  0  0
 79155  1  0  0  0
 80 83  1  0  0  0
 80156  1  0  0  0
 80157  1  0  0  0
 81158  1  0  0  0
 81159  1  0  0  0
 83160  1  0  0  0
M  ISO  4   1 100  68 101  81 101  83 100
M  END
> <chiral flag>
0

> <version>
0

> <s_m_source_file>
/data/baiqing/PycharmProjects/Reinvent-master-3.2/result/LINK_invent/BTK/process_docking_weight1_custom_sum_contain_oxygen_bond_distance_aromatic_linkinvent_7_9_3/rearranged_h_0095.sdf

> <i_m_source_file_index>
92

> <r_mmod_Potential_Energy-OPLS-2005>
165.28303527832

> <r_mmod_Stretch_Energy-OPLS-2005>
127.932655334473

> <r_mmod_Bend_Energy-OPLS-2005>
195.463928222656

> <r_mmod_Torsional_Energy-OPLS-2005>
243.649566650391

> <r_mmod_Improper_Torsional_Energy-OPLS-2005>
6.61000204086304

> <r_mmod_Van_der_Waal_Energy-OPLS-2005>
122.460327148438

> <r_mmod_Electrostatic_Energy-OPLS-2005>
-402.677917480469

> <r_mmod_Solvation_Energy-OPLS-2005>
-214.4013671875

> <b_mmod_Minimization_Converged-OPLS-2005>
0

> <r_mmod_RMS_Derivative-OPLS-2005>
5.4480767250061

$$$$
92
                    3D
 Structure written by MMmdl.
164172  0  0  1  0            999 V2000
  -30.7436  -14.4775   20.5391 C   0  0  0  0  0  0
  -30.4392  -12.3058   19.4225 C   0  0  0  0  0  0
  -29.5078  -12.5236   18.2143 C   0  0  0  0  0  0
  -28.0272  -12.3862   18.6217 C   0  0  0  0  0  0
  -27.6789  -13.2068   19.8928 C   0  0  2  0  0  0
  -28.7343  -13.0247   21.0122 C   0  0  0  0  0  0
  -25.2676  -13.8153   20.5687 C   0  0  0  0  0  0
  -24.1946  -13.0456   20.9191 C   0  0  0  0  0  0
  -24.6512  -11.6894   20.8772 C   0  0  0  0  0  0
  -23.9165  -10.4302   21.0424 C   0  0  0  0  0  0
  -24.3684   -9.4194   21.9215 C   0  0  0  0  0  0
  -23.6350   -8.2234   22.0760 C   0  0  0  0  0  0
  -22.4330   -8.0290   21.3529 C   0  0  0  0  0  0
  -21.9976   -9.0294   20.4643 C   0  0  0  0  0  0
  -22.7333  -10.2160   20.3084 C   0  0  0  0  0  0
  -21.6869   -6.0767   22.5273 C   0  0  0  0  0  0
  -21.4033   -6.5667   23.8210 C   0  0  0  0  0  0
  -21.3667   -5.6809   24.9175 C   0  0  0  0  0  0
  -21.6027   -4.3068   24.7207 C   0  0  0  0  0  0
  -21.8834   -3.8175   23.4334 C   0  0  0  0  0  0
  -21.9202   -4.6996   22.3392 C   0  0  0  0  0  0
  -22.7948  -13.5195   21.1840 C   0  0  0  0  0  0
  -22.1652   -4.2183   21.0967 F   0  0  0  0  0  0
  -21.5631   -3.4559   25.7722 F   0  0  0  0  0  0
  -30.0707  -13.2972   20.4459 N   0  0  0  0  0  0
  -26.3171  -12.9356   20.3517 N   0  0  0  0  0  0
  -25.9454  -11.6507   20.5876 N   0  0  0  0  0  0
  -22.0590  -12.8179   22.0366 N   0  0  0  0  0  0
  -25.4384  -15.1901   20.3953 N   0  0  0  0  0  0
  -31.8562  -14.6733   20.0543 O   0  0  0  0  0  0
  -21.6651   -6.8922   21.4233 O   0  0  0  0  0  0
  -22.3609  -14.5520   20.6690 O   0  0  0  0  0  0
  -24.6150  -31.8763   23.2062 C   0  0  0  0  0  0
  -25.9075  -32.4852   23.8354 C   0  0  1  0  0  0
  -27.2577  -27.4519   20.0773 C   0  0  0  0  0  0
  -25.5998  -33.8628   24.2290 N   0  0  0  0  0  0
  -23.4001  -30.4886   21.5559 C   0  0  2  0  0  0
  -24.8509  -28.9577   20.1268 C   0  0  0  0  0  0
  -22.7422  -29.4644   22.5095 C   0  0  0  0  0  0
  -18.0358  -28.1232   22.8471 C   0  0  0  0  0  0
  -24.1537  -36.7362   23.2635 C   0  0  0  0  0  0
  -25.9281  -30.8352   21.3666 C   0  0  0  0  0  0
  -26.0073  -29.4658   20.7272 C   0  0  0  0  0  0
  -27.2001  -28.7099   20.7177 C   0  0  0  0  0  0
  -26.0863  -26.9758   19.4442 C   0  0  0  0  0  0
  -24.8871  -27.7100   19.4897 C   0  0  0  0  0  0
  -23.6101  -29.8152   20.1758 C   0  0  0  0  0  0
  -25.4139  -36.3099   24.0326 C   0  0  1  0  0  0
  -20.5942  -28.3472   23.1318 C   0  0  2  0  0  0
  -20.6953  -26.9247   22.5329 C   0  0  0  0  0  0
  -19.5926  -26.6238   21.5153 C   0  0  0  0  0  0
  -18.2087  -26.7790   22.1576 C   0  0  0  0  0  0
  -19.1596  -28.8650   23.2938 C   0  0  0  0  0  0
  -18.9479  -30.1288   23.8859 C   0  0  0  0  0  0
  -17.6490  -30.6426   24.0456 C   0  0  0  0  0  0
  -25.9049  -34.9487   23.5069 C   0  0  0  0  0  0
  -16.5355  -29.8917   23.6267 C   0  0  0  0  0  0
  -16.7323  -28.6331   23.0242 C   0  0  0  0  0  0
  -26.4521  -31.6619   25.0683 C   0  0  0  0  0  0
  -25.3778  -31.3718   26.1432 C   0  0  0  0  0  0
  -27.0315  -30.3051   24.6018 C   0  0  0  0  0  0
  -27.6088  -32.4360   25.7446 C   0  0  0  0  0  0
  -27.5607  -37.1827   24.8453 C   0  0  0  0  0  0
  -21.4177  -29.2922   22.3779 N   0  0  0  0  0  0
  -26.4324  -37.3778   23.9390 N   0  0  0  0  0  0
  -24.6657  -31.0826   22.0976 N   0  0  0  0  0  0
  -23.4188  -28.8291   23.3230 O   0  0  0  0  0  0
  -28.4643  -26.7804   20.0998 O   0  0  0  0  0  0
  -26.5557  -34.8914   22.4588 O   0  0  0  0  0  0
  -23.5364  -32.1560   23.7440 O   0  0  0  0  0  0
  -28.7022  -22.0665   20.7379 C   0  0  0  0  0  0
  -29.1753  -23.3381   20.3687 C   0  0  0  0  0  0
  -27.3273  -21.7533   20.5940 C   0  0  0  0  0  0
  -28.2590  -24.2883   19.8932 C   0  0  0  0  0  0
  -26.4721  -22.8135   20.1690 C   0  0  0  0  0  0
  -24.9628  -22.7573   20.0003 C   0  0  0  0  0  0
  -25.3990  -20.0264   21.1307 C   0  0  0  0  0  0
  -28.6955  -25.6209   19.2893 C   0  0  0  0  0  0
  -30.1788  -16.9375   20.8300 C   0  0  0  0  0  0
  -29.0194  -17.4274   19.9373 C   0  0  0  0  0  0
  -27.4342  -19.3477   19.7264 C   0  0  0  0  0  0
  -26.8939  -20.2904   20.8403 C   0  0  1  0  0  0
  -26.9450  -24.0227   19.8412 N   0  0  0  0  0  0
  -30.0172  -15.4894   21.0323 N   0  0  0  0  0  0
  -28.8394  -18.9035   19.9631 N   0  3  0  0  0  0
  -31.4811  -12.3916   19.1037 H   0  0  0  0  0  0
  -30.3366  -11.2950   19.8193 H   0  0  0  0  0  0
  -29.7515  -11.8258   17.4128 H   0  0  0  0  0  0
  -29.6833  -13.5213   17.8115 H   0  0  0  0  0  0
  -27.8048  -11.3302   18.7830 H   0  0  0  0  0  0
  -27.3966  -12.7113   17.7922 H   0  0  0  0  0  0
  -27.7161  -14.2559   19.6055 H   0  0  0  0  0  0
  -28.7081  -12.0269   21.4480 H   0  0  0  0  0  0
  -28.5030  -13.6971   21.8364 H   0  0  0  0  0  0
  -25.2869   -9.5629   22.4746 H   0  0  0  0  0  0
  -24.0061   -7.4624   22.7487 H   0  0  0  0  0  0
  -21.0921   -8.8899   19.8931 H   0  0  0  0  0  0
  -22.3908  -10.9724   19.6171 H   0  0  0  0  0  0
  -21.2040   -7.6180   23.9735 H   0  0  0  0  0  0
  -21.1455   -6.0527   25.9075 H   0  0  0  0  0  0
  -22.0606   -2.7640   23.2830 H   0  0  0  0  0  0
  -22.4259  -11.9837   22.4708 H   0  0  0  0  0  0
  -21.1183  -13.1161   22.2586 H   0  0  0  0  0  0
  -24.6527  -15.8281   20.4654 H   0  0  0  0  0  0
  -26.2648  -15.6123   19.9958 H   0  0  0  0  0  0
  -26.7094  -32.5583   23.1084 H   0  0  0  0  0  0
  -25.0038  -33.9738   25.0349 H   0  0  0  0  0  0
  -22.6874  -31.3016   21.4152 H   0  0  0  0  0  0
  -23.3759  -35.9754   23.3279 H   0  0  0  0  0  0
  -24.3614  -36.8979   22.2057 H   0  0  0  0  0  0
  -23.7357  -37.6591   23.6634 H   0  0  0  0  0  0
  -26.0319  -31.5948   20.5878 H   0  0  0  0  0  0
  -26.8171  -30.8914   21.9838 H   0  0  0  0  0  0
  -28.0960  -29.0921   21.1873 H   0  0  0  0  0  0
  -26.0670  -26.0527   18.8938 H   0  0  0  0  0  0
  -24.0016  -27.3223   19.0136 H   0  0  0  0  0  0
  -23.7280  -30.5881   19.4219 H   0  0  0  0  0  0
  -22.7405  -29.2291   19.8718 H   0  0  0  0  0  0
  -25.1330  -36.1920   25.0832 H   0  0  0  0  0  0
  -21.0008  -28.2930   24.1432 H   0  0  0  0  0  0
  -20.6003  -26.1965   23.3417 H   0  0  0  0  0  0
  -21.6821  -26.7380   22.1060 H   0  0  0  0  0  0
  -19.7198  -25.6198   21.1097 H   0  0  0  0  0  0
  -19.6882  -27.3078   20.6702 H   0  0  0  0  0  0
  -17.4402  -26.6487   21.3975 H   0  0  0  0  0  0
  -18.0512  -25.9856   22.8924 H   0  0  0  0  0  0
  -19.7950  -30.7112   24.2161 H   0  0  0  0  0  0
  -17.5095  -31.6139   24.4988 H   0  0  0  0  0  0
  -15.5339  -30.2813   23.7623 H   0  0  0  0  0  0
  -15.8819  -28.0596   22.6798 H   0  0  0  0  0  0
  -24.5984  -30.7051   25.7682 H   0  0  0  0  0  0
  -24.8996  -32.2906   26.4862 H   0  0  0  0  0  0
  -25.8168  -30.8860   27.0177 H   0  0  0  0  0  0
  -26.2766  -29.6776   24.1268 H   0  0  0  0  0  0
  -27.4242  -29.7337   25.4445 H   0  0  0  0  0  0
  -27.8535  -30.4292   23.8961 H   0  0  0  0  0  0
  -27.2657  -33.3629   26.2054 H   0  0  0  0  0  0
  -28.3876  -32.6993   25.0268 H   0  0  0  0  0  0
  -28.0783  -31.8514   26.5364 H   0  0  0  0  0  0
  -28.2604  -38.0133   24.7477 H   0  0  0  0  0  0
  -28.1120  -36.2669   24.6297 H   0  0  0  0  0  0
  -27.2319  -37.1499   25.8849 H   0  0  0  0  0  0
  -20.9300  -29.8611   21.7005 H   0  0  0  0  0  0
  -26.0235  -38.2876   24.1312 H   0  0  0  0  0  0
  -29.4104  -21.3271   21.0894 H   0  0  0  0  0  0
  -30.2304  -23.5628   20.4033 H   0  0  0  0  0  0
  -24.6731  -22.0674   19.2150 H   0  0  0  0  0  0
  -24.5607  -23.7359   19.7257 H   0  0  0  0  0  0
  -24.4653  -22.4943   20.9305 H   0  0  0  0  0  0
  -25.2491  -18.9861   21.4061 H   0  0  0  0  0  0
  -24.7369  -20.1912   20.2809 H   0  0  0  0  0  0
  -25.0358  -20.5902   21.9901 H   0  0  0  0  0  0
  -28.2521  -25.7249   18.2950 H   0  0  0  0  0  0
  -29.7726  -25.5862   19.1188 H   0  0  0  0  0  0
  -30.0950  -17.4211   21.8053 H   0  0  0  0  0  0
  -31.1538  -17.2149   20.4256 H   0  0  0  0  0  0
  -29.1325  -17.0646   18.9100 H   0  0  0  0  0  0
  -28.1181  -16.9603   20.3388 H   0  0  0  0  0  0
  -27.3500  -19.8212   18.7449 H   0  0  0  0  0  0
  -26.7783  -18.4766   19.6581 H   0  0  0  0  0  0
  -27.3668  -20.0047   21.7805 H   0  0  0  0  0  0
  -29.1215  -15.2087   21.3945 H   0  0  0  0  0  0
  -29.1226  -19.2224   20.8747 H   0  0  0  0  0  0
  -29.4531  -19.3460   19.2924 H   0  0  0  0  0  0
  1 25  1  0  0  0
  1 30  2  0  0  0
  1 84  1  0  0  0
  2  3  1  0  0  0
  2 25  1  0  0  0
  2 86  1  0  0  0
  2 87  1  0  0  0
  3  4  1  0  0  0
  3 88  1  0  0  0
  3 89  1  0  0  0
  4  5  1  0  0  0
  4 90  1  0  0  0
  4 91  1  0  0  0
  5  6  1  0  0  0
  5 26  1  0  0  0
  5 92  1  0  0  0
  6 25  1  0  0  0
  6 93  1  0  0  0
  6 94  1  0  0  0
  7  8  2  0  0  0
  7 26  1  0  0  0
  7 29  1  0  0  0
  8  9  1  0  0  0
  8 22  1  0  0  0
  9 10  1  0  0  0
  9 27  2  0  0  0
 10 11  2  0  0  0
 10 15  1  0  0  0
 11 12  1  0  0  0
 11 95  1  0  0  0
 12 13  2  0  0  0
 12 96  1  0  0  0
 13 14  1  0  0  0
 13 31  1  0  0  0
 14 15  2  0  0  0
 14 97  1  0  0  0
 15 98  1  0  0  0
 16 17  2  0  0  0
 16 21  1  0  0  0
 16 31  1  0  0  0
 17 18  1  0  0  0
 17 99  1  0  0  0
 18 19  2  0  0  0
 18100  1  0  0  0
 19 20  1  0  0  0
 19 24  1  0  0  0
 20 21  2  0  0  0
 20101  1  0  0  0
 21 23  1  0  0  0
 22 28  1  0  0  0
 22 32  2  0  0  0
 26 27  1  0  0  0
 28102  1  0  0  0
 28103  1  0  0  0
 29104  1  0  0  0
 29105  1  0  0  0
 33 34  1  0  0  0
 33 66  1  0  0  0
 33 70  2  0  0  0
 34 36  1  0  0  0
 34 59  1  0  0  0
 34106  1  0  0  0
 35 44  2  0  0  0
 35 45  1  0  0  0
 35 68  1  0  0  0
 36 56  1  0  0  0
 36107  1  0  0  0
 37 39  1  0  0  0
 37 47  1  0  0  0
 37 66  1  0  0  0
 37108  1  0  0  0
 38 43  2  0  0  0
 38 46  1  0  0  0
 38 47  1  0  0  0
 39 64  1  0  0  0
 39 67  2  0  0  0
 40 52  1  0  0  0
 40 53  2  0  0  0
 40 58  1  0  0  0
 41109  1  0  0  0
 41110  1  0  0  0
 41111  1  0  0  0
 41 48  1  0  0  0
 42 43  1  0  0  0
 42 66  1  0  0  0
 42112  1  0  0  0
 42113  1  0  0  0
 43 44  1  0  0  0
 44114  1  0  0  0
 45 46  2  0  0  0
 45115  1  0  0  0
 46116  1  0  0  0
 47117  1  0  0  0
 47118  1  0  0  0
 48 56  1  0  0  0
 48 65  1  0  0  0
 48119  1  0  0  0
 49 50  1  0  0  0
 49 53  1  0  0  0
 49 64  1  0  0  0
 49120  1  0  0  0
 50 51  1  0  0  0
 50121  1  0  0  0
 50122  1  0  0  0
 51 52  1  0  0  0
 51123  1  0  0  0
 51124  1  0  0  0
 52125  1  0  0  0
 52126  1  0  0  0
 53 54  1  0  0  0
 54 55  2  0  0  0
 54127  1  0  0  0
 55 57  1  0  0  0
 55128  1  0  0  0
 56 69  2  0  0  0
 57 58  2  0  0  0
 57129  1  0  0  0
 58130  1  0  0  0
 59 60  1  0  0  0
 59 61  1  0  0  0
 59 62  1  0  0  0
 60131  1  0  0  0
 60132  1  0  0  0
 60133  1  0  0  0
 61134  1  0  0  0
 61135  1  0  0  0
 61136  1  0  0  0
 62137  1  0  0  0
 62138  1  0  0  0
 62139  1  0  0  0
 63 65  1  0  0  0
 63140  1  0  0  0
 63141  1  0  0  0
 63142  1  0  0  0
 64143  1  0  0  0
 65144  1  0  0  0
 68 78  1  0  0  0
 71 72  2  0  0  0
 71 73  1  0  0  0
 71145  1  0  0  0
 72 74  1  0  0  0
 72146  1  0  0  0
 73 75  2  0  0  0
 73 82  1  0  0  0
 74 78  1  0  0  0
 74 83  2  0  0  0
 75 76  1  0  0  0
 75 83  1  0  0  0
 76147  1  0  0  0
 76148  1  0  0  0
 76149  1  0  0  0
 77150  1  0  0  0
 77151  1  0  0  0
 77152  1  0  0  0
 77 82  1  0  0  0
 78153  1  0  0  0
 78154  1  0  0  0
 79 80  1  0  0  0
 79 84  1  0  0  0
 79155  1  0  0  0
 79156  1  0  0  0
 80 85  1  0  0  0
 80157  1  0  0  0
 80158  1  0  0  0
 81 82  1  0  0  0
 81 85  1  0  0  0
 81159  1  0  0  0
 81160  1  0  0  0
 82161  1  0  0  0
 84162  1  0  0  0
 85163  1  0  0  0
 85164  1  0  0  0
M  CHG  1  85   1
M  ISO  4   1 100  68 101  78 101  84 100
M  END
> <chiral flag>
0

> <version>
0

> <s_m_source_file>
/data/baiqing/PycharmProjects/Reinvent-master-3.2/result/LINK_invent/BTK/process_docking_weight1_custom_sum_contain_oxygen_bond_distance_aromatic_linkinvent_7_9_3/rearranged_h_0095.sdf

> <i_m_source_file_index>
93

> <r_mmod_Potential_Energy-OPLS-2005>
-353.973358154297

> <r_mmod_Stretch_Energy-OPLS-2005>
38.917594909668

> <r_mmod_Bend_Energy-OPLS-2005>
128.087097167969

> <r_mmod_Torsional_Energy-OPLS-2005>
238.715057373047

> <r_mmod_Improper_Torsional_Energy-OPLS-2005>
5.99157619476318

> <r_mmod_Van_der_Waal_Energy-OPLS-2005>
165.958572387695

> <r_mmod_Electrostatic_Energy-OPLS-2005>
-437.440551757812

> <r_mmod_Solvation_Energy-OPLS-2005>
-509.244171142578

> <b_mmod_Minimization_Converged-OPLS-2005>
0

> <r_mmod_RMS_Derivative-OPLS-2005>
9.12108325958252

$$$$
93
                    3D
 Structure written by MMmdl.
175183  0  0  1  0            999 V2000
  -30.6461  -14.6265   20.5360 C   0  0  0  0  0  0
  -30.4365  -12.3901   19.4572 C   0  0  0  0  0  0
  -29.5138  -12.5257   18.2286 C   0  0  0  0  0  0
  -28.0330  -12.3633   18.6255 C   0  0  0  0  0  0
  -27.6501  -13.2250   19.8595 C   0  0  2  0  0  0
  -28.6921  -13.0740   20.9866 C   0  0  0  0  0  0
  -25.2521  -13.8181   20.5688 C   0  0  0  0  0  0
  -24.1810  -13.0433   20.9193 C   0  0  0  0  0  0
  -24.6406  -11.6912   20.8741 C   0  0  0  0  0  0
  -23.9066  -10.4294   21.0382 C   0  0  0  0  0  0
  -24.3623   -9.4206   21.9148 C   0  0  0  0  0  0
  -23.6323   -8.2225   22.0721 C   0  0  0  0  0  0
  -22.4312   -8.0248   21.3508 C   0  0  0  0  0  0
  -21.9937   -9.0213   20.4608 C   0  0  0  0  0  0
  -22.7252  -10.2096   20.3011 C   0  0  0  0  0  0
  -21.6849   -6.0739   22.5287 C   0  0  0  0  0  0
  -21.4009   -6.5631   23.8221 C   0  0  0  0  0  0
  -21.3670   -5.6775   24.9177 C   0  0  0  0  0  0
  -21.6053   -4.3039   24.7213 C   0  0  0  0  0  0
  -21.8814   -3.8136   23.4331 C   0  0  0  0  0  0
  -21.9194   -4.6974   22.3399 C   0  0  0  0  0  0
  -22.7828  -13.5215   21.1834 C   0  0  0  0  0  0
  -22.1656   -4.2182   21.0975 F   0  0  0  0  0  0
  -21.5637   -3.4503   25.7714 F   0  0  0  0  0  0
  -30.0139  -13.4132   20.4314 N   0  0  0  0  0  0
  -26.2963  -12.9393   20.3273 N   0  0  0  0  0  0
  -25.9322  -11.6538   20.5716 N   0  0  0  0  0  0
  -22.0439  -12.8222   22.0388 N   0  0  0  0  0  0
  -25.4195  -15.1896   20.4140 N   0  0  0  0  0  0
  -31.8122  -14.7808   20.1703 O   0  0  0  0  0  0
  -21.6639   -6.8873   21.4248 O   0  0  0  0  0  0
  -22.3536  -14.5516   20.6663 O   0  0  0  0  0  0
  -24.6223  -31.8614   23.2055 C   0  0  0  0  0  0
  -25.9093  -32.4788   23.8338 C   0  0  1  0  0  0
  -27.2341  -27.3533   20.1143 C   0  0  0  0  0  0
  -25.5927  -33.8584   24.2264 N   0  0  0  0  0  0
  -23.4119  -30.4857   21.5446 C   0  0  2  0  0  0
  -24.8613  -28.9425   20.1058 C   0  0  0  0  0  0
  -22.7427  -29.4636   22.4950 C   0  0  0  0  0  0
  -18.0258  -28.1354   22.8537 C   0  0  0  0  0  0
  -24.1485  -36.7290   23.2639 C   0  0  0  0  0  0
  -25.9468  -30.8032   21.3703 C   0  0  0  0  0  0
  -26.0205  -29.4307   20.7172 C   0  0  0  0  0  0
  -27.2009  -28.6415   20.7233 C   0  0  0  0  0  0
  -26.0541  -26.9013   19.4825 C   0  0  0  0  0  0
  -24.8762  -27.6817   19.4817 C   0  0  0  0  0  0
  -23.6239  -29.8184   20.1572 C   0  0  0  0  0  0
  -25.4116  -36.3089   24.0333 C   0  0  1  0  0  0
  -20.5866  -28.3664   23.1313 C   0  0  2  0  0  0
  -20.6750  -26.9396   22.5422 C   0  0  0  0  0  0
  -19.5718  -26.6377   21.5228 C   0  0  0  0  0  0
  -18.1892  -26.7916   22.1637 C   0  0  0  0  0  0
  -19.1513  -28.8820   23.2923 C   0  0  0  0  0  0
  -18.9448  -30.1435   23.8925 C   0  0  0  0  0  0
  -17.6455  -30.6570   24.0584 C   0  0  0  0  0  0
  -25.9057  -34.9468   23.5091 C   0  0  0  0  0  0
  -16.5335  -29.9091   23.6340 C   0  0  0  0  0  0
  -16.7255  -28.6494   23.0388 C   0  0  0  0  0  0
  -26.4495  -31.6598   25.0689 C   0  0  0  0  0  0
  -25.3757  -31.3770   26.1435 C   0  0  0  0  0  0
  -27.0372  -30.3041   24.6144 C   0  0  0  0  0  0
  -27.6024  -32.4376   25.7482 C   0  0  0  0  0  0
  -27.5573  -37.1794   24.8468 C   0  0  0  0  0  0
  -21.4146  -29.3017   22.3691 N   0  0  0  0  0  0
  -26.4279  -37.3794   23.9418 N   0  0  0  0  0  0
  -24.6774  -31.0666   22.0974 N   0  0  0  0  0  0
  -23.4187  -28.8198   23.3014 O   0  0  0  0  0  0
  -28.3917  -26.5776   20.2072 O   0  0  0  0  0  0
  -26.5600  -34.8943   22.4650 O   0  0  0  0  0  0
  -23.5403  -32.1338   23.7444 O   0  0  0  0  0  0
  -30.1936  -23.2816   18.0391 C   0  0  0  0  0  0
  -29.7197  -22.9526   19.3420 C   0  0  0  0  0  0
  -31.2715  -22.5178   17.7341 C   0  0  0  0  0  0
  -30.3580  -21.7380   19.6736 C   0  0  0  0  0  0
  -32.0981  -21.4189   15.5841 C   0  0  0  0  0  0
  -29.1364  -24.0316   21.5694 C   0  0  0  0  0  0
  -32.4735  -19.3091   18.8225 C   0  0  0  0  0  0
  -33.5667  -21.2304   20.1387 C   0  0  0  0  0  0
  -32.1700  -22.6289   16.5295 C   0  0  0  0  0  0
  -30.2111  -20.7085   20.8273 C   0  0  0  0  0  0
  -30.1922  -17.1426   21.1372 C   0  0  0  0  0  0
  -29.4900  -18.2017   20.1824 C   0  0  0  0  0  0
  -28.6283  -25.3663   19.4215 C   0  0  0  0  0  0
  -28.7376  -23.9136   20.0911 C   0  0  1  0  0  0
  -32.6927  -20.8182   18.9343 C   0  0  0  0  0  0
  -31.4658  -21.6385   18.7970 N   0  0  0  0  0  0
  -29.8660  -15.6888   20.8949 N   0  0  0  0  0  0
  -29.2041  -19.5918   20.7163 N   0  3  0  0  0  0
  -31.4767  -12.5120   19.1566 H   0  0  0  0  0  0
  -30.3643  -11.3909   19.8918 H   0  0  0  0  0  0
  -29.7957  -11.7955   17.4707 H   0  0  0  0  0  0
  -29.6616  -13.5077   17.7744 H   0  0  0  0  0  0
  -27.8626  -11.3101   18.8404 H   0  0  0  0  0  0
  -27.3921  -12.6031   17.7749 H   0  0  0  0  0  0
  -27.6664  -14.2651   19.5344 H   0  0  0  0  0  0
  -28.6892  -12.0483   21.3570 H   0  0  0  0  0  0
  -28.4356  -13.7041   21.8393 H   0  0  0  0  0  0
  -25.2757   -9.5702   22.4744 H   0  0  0  0  0  0
  -24.0034   -7.4621   22.7441 H   0  0  0  0  0  0
  -21.0856   -8.8698   19.8938 H   0  0  0  0  0  0
  -22.3672  -10.9609   19.6107 H   0  0  0  0  0  0
  -21.1970   -7.6137   23.9738 H   0  0  0  0  0  0
  -21.1528   -6.0493   25.9090 H   0  0  0  0  0  0
  -22.0600   -2.7613   23.2804 H   0  0  0  0  0  0
  -22.4042  -11.9939   22.4878 H   0  0  0  0  0  0
  -21.1005  -13.1187   22.2461 H   0  0  0  0  0  0
  -24.6405  -15.8345   20.5054 H   0  0  0  0  0  0
  -26.2617  -15.6360   20.0763 H   0  0  0  0  0  0
  -26.7163  -32.5478   23.1091 H   0  0  0  0  0  0
  -25.0198  -33.9757   25.0487 H   0  0  0  0  0  0
  -22.7029  -31.3040   21.4020 H   0  0  0  0  0  0
  -23.3763  -35.9602   23.3298 H   0  0  0  0  0  0
  -24.3600  -36.8908   22.2053 H   0  0  0  0  0  0
  -23.7217  -37.6482   23.6674 H   0  0  0  0  0  0
  -26.0669  -31.5684   20.6016 H   0  0  0  0  0  0
  -26.8322  -30.8553   21.9919 H   0  0  0  0  0  0
  -28.0890  -29.0102   21.2190 H   0  0  0  0  0  0
  -26.0054  -25.9310   19.0091 H   0  0  0  0  0  0
  -23.9865  -27.3048   18.9987 H   0  0  0  0  0  0
  -23.7367  -30.5916   19.3956 H   0  0  0  0  0  0
  -22.7448  -29.2458   19.8622 H   0  0  0  0  0  0
  -25.1295  -36.1916   25.0822 H   0  0  0  0  0  0
  -20.9974  -28.3226   24.1434 H   0  0  0  0  0  0
  -20.5647  -26.2281   23.3619 H   0  0  0  0  0  0
  -21.6619  -26.7437   22.1196 H   0  0  0  0  0  0
  -19.6890  -25.6305   21.1227 H   0  0  0  0  0  0
  -19.6637  -27.3227   20.6791 H   0  0  0  0  0  0
  -17.4177  -26.6716   21.4012 H   0  0  0  0  0  0
  -18.0253  -25.9998   22.8969 H   0  0  0  0  0  0
  -19.7924  -30.7236   24.2289 H   0  0  0  0  0  0
  -17.5018  -31.6267   24.5170 H   0  0  0  0  0  0
  -15.5343  -30.3013   23.7641 H   0  0  0  0  0  0
  -15.8645  -28.0828   22.7108 H   0  0  0  0  0  0
  -24.5877  -30.7168   25.7785 H   0  0  0  0  0  0
  -24.9013  -32.2963   26.4869 H   0  0  0  0  0  0
  -25.8064  -30.8921   27.0195 H   0  0  0  0  0  0
  -26.2937  -29.6755   24.1209 H   0  0  0  0  0  0
  -27.4136  -29.7324   25.4639 H   0  0  0  0  0  0
  -27.8784  -30.4361   23.9336 H   0  0  0  0  0  0
  -27.2569  -33.3667   26.2035 H   0  0  0  0  0  0
  -28.3837  -32.6953   25.0320 H   0  0  0  0  0  0
  -28.0689  -31.8528   26.5411 H   0  0  0  0  0  0
  -28.2578  -38.0101   24.7531 H   0  0  0  0  0  0
  -28.1051  -36.2629   24.6246 H   0  0  0  0  0  0
  -27.2298  -37.1392   25.8868 H   0  0  0  0  0  0
  -20.9271  -29.8790   21.6970 H   0  0  0  0  0  0
  -26.0146  -38.2856   24.1415 H   0  0  0  0  0  0
  -29.8647  -24.1016   17.4105 H   0  0  0  0  0  0
  -32.7746  -21.5461   14.7383 H   0  0  0  0  0  0
  -31.0930  -21.2885   15.1789 H   0  0  0  0  0  0
  -32.3855  -20.4918   16.0802 H   0  0  0  0  0  0
  -29.0062  -23.0974   22.1072 H   0  0  0  0  0  0
  -28.5169  -24.7601   22.0882 H   0  0  0  0  0  0
  -30.1791  -24.3326   21.6686 H   0  0  0  0  0  0
  -33.3925  -18.8244   18.4945 H   0  0  0  0  0  0
  -31.7056  -19.0652   18.0869 H   0  0  0  0  0  0
  -32.2177  -18.8693   19.7815 H   0  0  0  0  0  0
  -34.5996  -20.9137   19.9859 H   0  0  0  0  0  0
  -33.2489  -20.8028   21.0875 H   0  0  0  0  0  0
  -33.5851  -22.3134   20.2572 H   0  0  0  0  0  0
  -33.2009  -22.8069   16.8403 H   0  0  0  0  0  0
  -31.8975  -23.5209   15.9611 H   0  0  0  0  0  0
  -29.8716  -21.2530   21.7001 H   0  0  0  0  0  0
  -31.1655  -20.3173   21.1627 H   0  0  0  0  0  0
  -29.9101  -17.3571   22.1689 H   0  0  0  0  0  0
  -31.2733  -17.2845   21.1087 H   0  0  0  0  0  0
  -28.5041  -17.8005   19.9428 H   0  0  0  0  0  0
  -29.9914  -18.2589   19.2179 H   0  0  0  0  0  0
  -28.0018  -25.3228   18.5305 H   0  0  0  0  0  0
  -29.6222  -25.6018   19.0409 H   0  0  0  0  0  0
  -27.7475  -23.4545   20.0465 H   0  0  0  0  0  0
  -33.3352  -21.0441   18.0866 H   0  0  0  0  0  0
  -28.9159  -15.4299   21.1141 H   0  0  0  0  0  0
  -28.4299  -19.9710   20.1946 H   0  0  0  0  0  0
  -28.8554  -19.4567   21.6518 H   0  0  0  0  0  0
  1 25  1  0  0  0
  1 30  2  0  0  0
  1 87  1  0  0  0
  2  3  1  0  0  0
  2 25  1  0  0  0
  2 89  1  0  0  0
  2 90  1  0  0  0
  3  4  1  0  0  0
  3 91  1  0  0  0
  3 92  1  0  0  0
  4  5  1  0  0  0
  4 93  1  0  0  0
  4 94  1  0  0  0
  5  6  1  0  0  0
  5 26  1  0  0  0
  5 95  1  0  0  0
  6 25  1  0  0  0
  6 96  1  0  0  0
  6 97  1  0  0  0
  7  8  2  0  0  0
  7 26  1  0  0  0
  7 29  1  0  0  0
  8  9  1  0  0  0
  8 22  1  0  0  0
  9 10  1  0  0  0
  9 27  2  0  0  0
 10 11  2  0  0  0
 10 15  1  0  0  0
 11 12  1  0  0  0
 11 98  1  0  0  0
 12 13  2  0  0  0
 12 99  1  0  0  0
 13 14  1  0  0  0
 13 31  1  0  0  0
 14 15  2  0  0  0
 14100  1  0  0  0
 15101  1  0  0  0
 16 17  2  0  0  0
 16 21  1  0  0  0
 16 31  1  0  0  0
 17 18  1  0  0  0
 17102  1  0  0  0
 18 19  2  0  0  0
 18103  1  0  0  0
 19 20  1  0  0  0
 19 24  1  0  0  0
 20 21  2  0  0  0
 20104  1  0  0  0
 21 23  1  0  0  0
 22 28  1  0  0  0
 22 32  2  0  0  0
 26 27  1  0  0  0
 28105  1  0  0  0
 28106  1  0  0  0
 29107  1  0  0  0
 29108  1  0  0  0
 33 34  1  0  0  0
 33 66  1  0  0  0
 33 70  2  0  0  0
 34 36  1  0  0  0
 34 59  1  0  0  0
 34109  1  0  0  0
 35 44  2  0  0  0
 35 45  1  0  0  0
 35 68  1  0  0  0
 36 56  1  0  0  0
 36110  1  0  0  0
 37 39  1  0  0  0
 37 47  1  0  0  0
 37 66  1  0  0  0
 37111  1  0  0  0
 38 43  2  0  0  0
 38 46  1  0  0  0
 38 47  1  0  0  0
 39 64  1  0  0  0
 39 67  2  0  0  0
 40 52  1  0  0  0
 40 53  2  0  0  0
 40 58  1  0  0  0
 41112  1  0  0  0
 41113  1  0  0  0
 41114  1  0  0  0
 41 48  1  0  0  0
 42 43  1  0  0  0
 42 66  1  0  0  0
 42115  1  0  0  0
 42116  1  0  0  0
 43 44  1  0  0  0
 44117  1  0  0  0
 45 46  2  0  0  0
 45118  1  0  0  0
 46119  1  0  0  0
 47120  1  0  0  0
 47121  1  0  0  0
 48 56  1  0  0  0
 48 65  1  0  0  0
 48122  1  0  0  0
 49 50  1  0  0  0
 49 53  1  0  0  0
 49 64  1  0  0  0
 49123  1  0  0  0
 50 51  1  0  0  0
 50124  1  0  0  0
 50125  1  0  0  0
 51 52  1  0  0  0
 51126  1  0  0  0
 51127  1  0  0  0
 52128  1  0  0  0
 52129  1  0  0  0
 53 54  1  0  0  0
 54 55  2  0  0  0
 54130  1  0  0  0
 55 57  1  0  0  0
 55131  1  0  0  0
 56 69  2  0  0  0
 57 58  2  0  0  0
 57132  1  0  0  0
 58133  1  0  0  0
 59 60  1  0  0  0
 59 61  1  0  0  0
 59 62  1  0  0  0
 60134  1  0  0  0
 60135  1  0  0  0
 60136  1  0  0  0
 61137  1  0  0  0
 61138  1  0  0  0
 61139  1  0  0  0
 62140  1  0  0  0
 62141  1  0  0  0
 62142  1  0  0  0
 63 65  1  0  0  0
 63143  1  0  0  0
 63144  1  0  0  0
 63145  1  0  0  0
 64146  1  0  0  0
 65147  1  0  0  0
 68 83  1  0  0  0
 71 72  1  0  0  0
 71 73  2  0  0  0
 71148  1  0  0  0
 72 74  2  0  0  0
 72 84  1  0  0  0
 73 79  1  0  0  0
 73 86  1  0  0  0
 74 80  1  0  0  0
 74 86  1  0  0  0
 75 79  1  0  0  0
 75149  1  0  0  0
 75150  1  0  0  0
 75151  1  0  0  0
 76152  1  0  0  0
 76153  1  0  0  0
 76154  1  0  0  0
 76 84  1  0  0  0
 77155  1  0  0  0
 77156  1  0  0  0
 77157  1  0  0  0
 77 85  1  0  0  0
 78 85  1  0  0  0
 78158  1  0  0  0
 78159  1  0  0  0
 78160  1  0  0  0
 79161  1  0  0  0
 79162  1  0  0  0
 80 88  1  0  0  0
 80163  1  0  0  0
 80164  1  0  0  0
 81 82  1  0  0  0
 81 87  1  0  0  0
 81165  1  0  0  0
 81166  1  0  0  0
 82 88  1  0  0  0
 82167  1  0  0  0
 82168  1  0  0  0
 83 84  1  0  0  0
 83169  1  0  0  0
 83170  1  0  0  0
 84171  1  0  0  0
 85 86  1  0  0  0
 85172  1  0  0  0
 87173  1  0  0  0
 88174  1  0  0  0
 88175  1  0  0  0
M  CHG  1  88   1
M  ISO  4   1 100  68 101  83 101  87 100
M  END
> <chiral flag>
0

> <version>
0

> <s_m_source_file>
/data/baiqing/PycharmProjects/Reinvent-master-3.2/result/LINK_invent/BTK/process_docking_weight1_custom_sum_contain_oxygen_bond_distance_aromatic_linkinvent_7_9_3/rearranged_h_0095.sdf

> <i_m_source_file_index>
94

> <r_mmod_Potential_Energy-OPLS-2005>
-128.730285644531

> <r_mmod_Stretch_Energy-OPLS-2005>
81.5867538452148

> <r_mmod_Bend_Energy-OPLS-2005>
192.60319519043

> <r_mmod_Torsional_Energy-OPLS-2005>
279.972534179688

> <r_mmod_Improper_Torsional_Energy-OPLS-2005>
5.17208337783813

> <r_mmod_Van_der_Waal_Energy-OPLS-2005>
123.83667755127

> <r_mmod_Electrostatic_Energy-OPLS-2005>
-381.170867919922

> <r_mmod_Solvation_Energy-OPLS-2005>
-470.751159667969

> <b_mmod_Minimization_Converged-OPLS-2005>
0

> <r_mmod_RMS_Derivative-OPLS-2005>
5.54881620407104

$$$$
94
                    3D
 Structure written by MMmdl.
174182  0  0  1  0            999 V2000
  -30.7573  -14.4149   20.6921 C   0  0  0  0  0  0
  -30.4200  -12.3194   19.4099 C   0  0  0  0  0  0
  -29.4896  -12.5370   18.2000 C   0  0  0  0  0  0
  -28.0127  -12.3793   18.6081 C   0  0  0  0  0  0
  -27.6662  -13.1979   19.8767 C   0  0  2  0  0  0
  -28.7064  -12.9283   20.9859 C   0  0  0  0  0  0
  -25.2614  -13.8144   20.5644 C   0  0  0  0  0  0
  -24.1858  -13.0439   20.9166 C   0  0  0  0  0  0
  -24.6400  -11.6901   20.8736 C   0  0  0  0  0  0
  -23.9059  -10.4294   21.0409 C   0  0  0  0  0  0
  -24.3612   -9.4210   21.9187 C   0  0  0  0  0  0
  -23.6289   -8.2245   22.0757 C   0  0  0  0  0  0
  -22.4271   -8.0283   21.3546 C   0  0  0  0  0  0
  -21.9907   -9.0256   20.4648 C   0  0  0  0  0  0
  -22.7235  -10.2135   20.3055 C   0  0  0  0  0  0
  -21.6850   -6.0738   22.5280 C   0  0  0  0  0  0
  -21.4012   -6.5640   23.8213 C   0  0  0  0  0  0
  -21.3658   -5.6793   24.9174 C   0  0  0  0  0  0
  -21.6042   -4.3056   24.7223 C   0  0  0  0  0  0
  -21.8818   -3.8149   23.4343 C   0  0  0  0  0  0
  -21.9193   -4.6967   22.3402 C   0  0  0  0  0  0
  -22.7885  -13.5251   21.1837 C   0  0  0  0  0  0
  -22.1661   -4.2153   21.0979 F   0  0  0  0  0  0
  -21.5629   -3.4539   25.7734 F   0  0  0  0  0  0
  -30.0419  -13.2688   20.4758 N   0  0  0  0  0  0
  -26.3051  -12.9298   20.3364 N   0  0  0  0  0  0
  -25.9321  -11.6466   20.5753 N   0  0  0  0  0  0
  -22.0517  -12.8244   22.0391 N   0  0  0  0  0  0
  -25.4326  -15.1848   20.3976 N   0  0  0  0  0  0
  -31.7756  -14.6504   20.0284 O   0  0  0  0  0  0
  -21.6636   -6.8880   21.4242 O   0  0  0  0  0  0
  -22.3574  -14.5560   20.6693 O   0  0  0  0  0  0
  -24.6153  -31.8687   23.2125 C   0  0  0  0  0  0
  -25.9051  -32.4822   23.8410 C   0  0  1  0  0  0
  -27.2290  -27.4343   20.0880 C   0  0  0  0  0  0
  -25.5914  -33.8623   24.2341 N   0  0  0  0  0  0
  -23.4020  -30.4953   21.5540 C   0  0  2  0  0  0
  -24.8453  -28.9675   20.1133 C   0  0  0  0  0  0
  -22.7408  -29.4669   22.5002 C   0  0  0  0  0  0
  -18.0269  -28.1377   22.8493 C   0  0  0  0  0  0
  -24.1488  -36.7311   23.2638 C   0  0  0  0  0  0
  -25.9327  -30.8343   21.3665 C   0  0  0  0  0  0
  -26.0085  -29.4717   20.7081 C   0  0  0  0  0  0
  -27.2034  -28.7141   20.6904 C   0  0  0  0  0  0
  -26.0428  -26.9535   19.4807 C   0  0  0  0  0  0
  -24.8578  -27.7073   19.4969 C   0  0  0  0  0  0
  -23.6082  -29.8334   20.1668 C   0  0  0  0  0  0
  -25.4109  -36.3112   24.0339 C   0  0  1  0  0  0
  -20.5860  -28.3664   23.1321 C   0  0  2  0  0  0
  -20.6762  -26.9401   22.5422 C   0  0  0  0  0  0
  -19.5744  -26.6387   21.5213 C   0  0  0  0  0  0
  -18.1918  -26.7930   22.1614 C   0  0  0  0  0  0
  -19.1519  -28.8837   23.2905 C   0  0  0  0  0  0
  -18.9447  -30.1443   23.8916 C   0  0  0  0  0  0
  -17.6449  -30.6583   24.0569 C   0  0  0  0  0  0
  -25.9036  -34.9475   23.5132 C   0  0  0  0  0  0
  -16.5339  -29.9085   23.6330 C   0  0  0  0  0  0
  -16.7258  -28.6501   23.0352 C   0  0  0  0  0  0
  -26.4479  -31.6597   25.0733 C   0  0  0  0  0  0
  -25.3747  -31.3692   26.1480 C   0  0  0  0  0  0
  -27.0309  -30.3040   24.6107 C   0  0  0  0  0  0
  -27.6055  -32.4313   25.7496 C   0  0  0  0  0  0
  -27.5584  -37.1813   24.8465 C   0  0  0  0  0  0
  -21.4137  -29.3035   22.3733 N   0  0  0  0  0  0
  -26.4297  -37.3795   23.9408 N   0  0  0  0  0  0
  -24.6684  -31.0794   22.1026 N   0  0  0  0  0  0
  -23.4180  -28.8205   23.3037 O   0  0  0  0  0  0
  -28.3923  -26.6836   20.1160 O   0  0  0  0  0  0
  -26.5590  -34.8923   22.4688 O   0  0  0  0  0  0
  -23.5347  -32.1442   23.7523 O   0  0  0  0  0  0
  -31.8935  -17.2429   21.9567 C   0  0  0  0  0  0
  -29.4695  -17.3997   21.3404 C   0  0  0  0  0  0
  -31.6035  -15.8220   22.5001 C   0  0  0  0  0  0
  -30.6451  -18.1443   22.0126 C   0  0  2  0  0  0
  -29.2321  -15.9824   21.9401 C   0  0  2  0  0  0
  -27.2744  -16.6517   23.4860 C   0  0  0  0  0  0
  -28.6543  -14.6710   24.1552 C   0  0  0  0  0  0
  -29.1972  -20.6777   22.9840 C   0  0  0  0  0  0
  -30.9167  -19.5619   21.4355 C   0  0  0  0  0  0
  -29.0544  -22.9463   20.6771 C   0  0  0  0  0  0
  -29.4317  -24.4370   20.4972 C   0  0  0  0  0  0
  -30.2195  -22.0098   21.0738 C   0  0  0  0  0  0
  -28.2178  -25.2606   20.0236 C   0  0  0  0  0  0
  -28.6748  -16.0193   23.4083 C   0  0  0  0  0  0
  -29.7657  -20.6018   21.5514 C   0  0  2  0  0  0
  -30.4740  -15.1759   21.7933 N   0  0  0  0  0  0
  -31.4628  -12.4192   19.1037 H   0  0  0  0  0  0
  -30.3282  -11.2962   19.7769 H   0  0  0  0  0  0
  -29.7346  -11.8314   17.4049 H   0  0  0  0  0  0
  -29.6522  -13.5335   17.7860 H   0  0  0  0  0  0
  -27.8253  -11.3200   18.7879 H   0  0  0  0  0  0
  -27.3602  -12.6674   17.7831 H   0  0  0  0  0  0
  -27.7218  -14.2497   19.5986 H   0  0  0  0  0  0
  -28.6844  -11.8757   21.2716 H   0  0  0  0  0  0
  -28.4506  -13.4578   21.8890 H   0  0  0  0  0  0
  -25.2759   -9.5686   22.4759 H   0  0  0  0  0  0
  -23.9998   -7.4637   22.7475 H   0  0  0  0  0  0
  -21.0840   -8.8776   19.8950 H   0  0  0  0  0  0
  -22.3701  -10.9674   19.6161 H   0  0  0  0  0  0
  -21.2000   -7.6148   23.9718 H   0  0  0  0  0  0
  -21.1480   -6.0521   25.9077 H   0  0  0  0  0  0
  -22.0596   -2.7612   23.2842 H   0  0  0  0  0  0
  -22.4120  -11.9896   22.4770 H   0  0  0  0  0  0
  -21.1139  -13.1284   22.2595 H   0  0  0  0  0  0
  -24.6674  -15.8408   20.5057 H   0  0  0  0  0  0
  -26.2886  -15.6237   20.0847 H   0  0  0  0  0  0
  -26.7122  -32.5530   23.1174 H   0  0  0  0  0  0
  -25.0096  -33.9790   25.0508 H   0  0  0  0  0  0
  -22.6908  -31.3130   21.4187 H   0  0  0  0  0  0
  -23.3749  -35.9645   23.3310 H   0  0  0  0  0  0
  -24.3586  -36.8913   22.2051 H   0  0  0  0  0  0
  -23.7239  -37.6519   23.6643 H   0  0  0  0  0  0
  -26.0487  -31.6042   20.6024 H   0  0  0  0  0  0
  -26.8192  -30.8815   21.9872 H   0  0  0  0  0  0
  -28.1002  -29.1000   21.1551 H   0  0  0  0  0  0
  -26.0062  -25.9940   18.9863 H   0  0  0  0  0  0
  -23.9647  -27.3143   19.0302 H   0  0  0  0  0  0
  -23.7162  -30.6111   19.4100 H   0  0  0  0  0  0
  -22.7315  -29.2548   19.8698 H   0  0  0  0  0  0
  -25.1288  -36.1980   25.0833 H   0  0  0  0  0  0
  -20.9949  -28.3224   24.1443 H   0  0  0  0  0  0
  -20.5660  -26.2272   23.3607 H   0  0  0  0  0  0
  -21.6634  -26.7446   22.1215 H   0  0  0  0  0  0
  -19.6904  -25.6301   21.1237 H   0  0  0  0  0  0
  -19.6690  -27.3206   20.6751 H   0  0  0  0  0  0
  -17.4197  -26.6696   21.4005 H   0  0  0  0  0  0
  -18.0301  -26.0058   22.8992 H   0  0  0  0  0  0
  -19.7923  -30.7255   24.2293 H   0  0  0  0  0  0
  -17.5004  -31.6268   24.5162 H   0  0  0  0  0  0
  -15.5342  -30.2993   23.7647 H   0  0  0  0  0  0
  -15.8657  -28.0826   22.7064 H   0  0  0  0  0  0
  -24.5962  -30.6982   25.7834 H   0  0  0  0  0  0
  -24.8885  -32.2833   26.4896 H   0  0  0  0  0  0
  -25.8114  -30.8914   27.0258 H   0  0  0  0  0  0
  -26.2854  -29.6801   24.1163 H   0  0  0  0  0  0
  -27.4084  -29.7273   25.4562 H   0  0  0  0  0  0
  -27.8689  -30.4358   23.9256 H   0  0  0  0  0  0
  -27.2678  -33.3607   26.2095 H   0  0  0  0  0  0
  -28.3857  -32.6881   25.0316 H   0  0  0  0  0  0
  -28.0733  -31.8422   26.5394 H   0  0  0  0  0  0
  -28.2609  -38.0104   24.7507 H   0  0  0  0  0  0
  -28.1072  -36.2636   24.6297 H   0  0  0  0  0  0
  -27.2305  -37.1468   25.8870 H   0  0  0  0  0  0
  -20.9292  -29.8768   21.6968 H   0  0  0  0  0  0
  -26.0186  -38.2874   24.1404 H   0  0  0  0  0  0
  -32.2557  -17.1782   20.9296 H   0  0  0  0  0  0
  -32.7030  -17.6933   22.5330 H   0  0  0  0  0  0
  -29.6772  -17.3043   20.2735 H   0  0  0  0  0  0
  -28.5599  -17.9949   21.3969 H   0  0  0  0  0  0
  -31.3934  -15.8673   23.5679 H   0  0  0  0  0  0
  -32.5060  -15.2114   22.4278 H   0  0  0  0  0  0
  -30.4180  -18.2752   23.0686 H   0  0  0  0  0  0
  -28.4516  -15.5478   21.3205 H   0  0  0  0  0  0
  -27.2688  -17.6873   23.1497 H   0  0  0  0  0  0
  -26.9035  -16.6565   24.5115 H   0  0  0  0  0  0
  -26.5552  -16.0991   22.8812 H   0  0  0  0  0  0
  -29.5839  -14.1129   24.0447 H   0  0  0  0  0  0
  -27.8280  -14.0374   23.8345 H   0  0  0  0  0  0
  -28.5128  -14.8336   25.2242 H   0  0  0  0  0  0
  -28.7342  -19.7386   23.2856 H   0  0  0  0  0  0
  -28.4236  -21.4379   23.0809 H   0  0  0  0  0  0
  -29.9779  -20.9123   23.7084 H   0  0  0  0  0  0
  -31.2007  -19.4671   20.3864 H   0  0  0  0  0  0
  -31.7950  -19.9693   21.9389 H   0  0  0  0  0  0
  -28.6058  -22.5722   19.7554 H   0  0  0  0  0  0
  -28.2662  -22.8923   21.4272 H   0  0  0  0  0  0
  -30.2498  -24.5422   19.7837 H   0  0  0  0  0  0
  -29.7918  -24.8323   21.4478 H   0  0  0  0  0  0
  -30.8225  -22.4771   21.8538 H   0  0  0  0  0  0
  -30.8799  -21.9107   20.2109 H   0  0  0  0  0  0
  -27.3627  -24.9661   20.6361 H   0  0  0  0  0  0
  -27.9898  -24.9862   18.9926 H   0  0  0  0  0  0
  -29.3262  -16.6556   24.0048 H   0  0  0  0  0  0
  -28.9637  -20.2722   20.8892 H   0  0  0  0  0  0
  1 25  1  0  0  0
  1 30  2  0  0  0
  1 86  1  0  0  0
  2  3  1  0  0  0
  2 25  1  0  0  0
  2 87  1  0  0  0
  2 88  1  0  0  0
  3  4  1  0  0  0
  3 89  1  0  0  0
  3 90  1  0  0  0
  4  5  1  0  0  0
  4 91  1  0  0  0
  4 92  1  0  0  0
  5  6  1  0  0  0
  5 26  1  0  0  0
  5 93  1  0  0  0
  6 25  1  0  0  0
  6 94  1  0  0  0
  6 95  1  0  0  0
  7  8  2  0  0  0
  7 26  1  0  0  0
  7 29  1  0  0  0
  8  9  1  0  0  0
  8 22  1  0  0  0
  9 10  1  0  0  0
  9 27  2  0  0  0
 10 11  2  0  0  0
 10 15  1  0  0  0
 11 12  1  0  0  0
 11 96  1  0  0  0
 12 13  2  0  0  0
 12 97  1  0  0  0
 13 14  1  0  0  0
 13 31  1  0  0  0
 14 15  2  0  0  0
 14 98  1  0  0  0
 15 99  1  0  0  0
 16 17  2  0  0  0
 16 21  1  0  0  0
 16 31  1  0  0  0
 17 18  1  0  0  0
 17100  1  0  0  0
 18 19  2  0  0  0
 18101  1  0  0  0
 19 20  1  0  0  0
 19 24  1  0  0  0
 20 21  2  0  0  0
 20102  1  0  0  0
 21 23  1  0  0  0
 22 28  1  0  0  0
 22 32  2  0  0  0
 26 27  1  0  0  0
 28103  1  0  0  0
 28104  1  0  0  0
 29105  1  0  0  0
 29106  1  0  0  0
 33 34  1  0  0  0
 33 66  1  0  0  0
 33 70  2  0  0  0
 34 36  1  0  0  0
 34 59  1  0  0  0
 34107  1  0  0  0
 35 44  2  0  0  0
 35 45  1  0  0  0
 35 68  1  0  0  0
 36 56  1  0  0  0
 36108  1  0  0  0
 37 39  1  0  0  0
 37 47  1  0  0  0
 37 66  1  0  0  0
 37109  1  0  0  0
 38 43  2  0  0  0
 38 46  1  0  0  0
 38 47  1  0  0  0
 39 64  1  0  0  0
 39 67  2  0  0  0
 40 52  1  0  0  0
 40 53  2  0  0  0
 40 58  1  0  0  0
 41110  1  0  0  0
 41111  1  0  0  0
 41112  1  0  0  0
 41 48  1  0  0  0
 42 43  1  0  0  0
 42 66  1  0  0  0
 42113  1  0  0  0
 42114  1  0  0  0
 43 44  1  0  0  0
 44115  1  0  0  0
 45 46  2  0  0  0
 45116  1  0  0  0
 46117  1  0  0  0
 47118  1  0  0  0
 47119  1  0  0  0
 48 56  1  0  0  0
 48 65  1  0  0  0
 48120  1  0  0  0
 49 50  1  0  0  0
 49 53  1  0  0  0
 49 64  1  0  0  0
 49121  1  0  0  0
 50 51  1  0  0  0
 50122  1  0  0  0
 50123  1  0  0  0
 51 52  1  0  0  0
 51124  1  0  0  0
 51125  1  0  0  0
 52126  1  0  0  0
 52127  1  0  0  0
 53 54  1  0  0  0
 54 55  2  0  0  0
 54128  1  0  0  0
 55 57  1  0  0  0
 55129  1  0  0  0
 56 69  2  0  0  0
 57 58  2  0  0  0
 57130  1  0  0  0
 58131  1  0  0  0
 59 60  1  0  0  0
 59 61  1  0  0  0
 59 62  1  0  0  0
 60132  1  0  0  0
 60133  1  0  0  0
 60134  1  0  0  0
 61135  1  0  0  0
 61136  1  0  0  0
 61137  1  0  0  0
 62138  1  0  0  0
 62139  1  0  0  0
 62140  1  0  0  0
 63 65  1  0  0  0
 63141  1  0  0  0
 63142  1  0  0  0
 63143  1  0  0  0
 64144  1  0  0  0
 65145  1  0  0  0
 68 83  1  0  0  0
 71 73  1  0  0  0
 71 74  1  0  0  0
 71146  1  0  0  0
 71147  1  0  0  0
 72 74  1  0  0  0
 72148  1  0  0  0
 72149  1  0  0  0
 72 75  1  0  0  0
 73 86  1  0  0  0
 73150  1  0  0  0
 73151  1  0  0  0
 74 79  1  0  0  0
 74152  1  0  0  0
 75 84  1  0  0  0
 75 86  1  0  0  0
 75153  1  0  0  0
 76154  1  0  0  0
 76155  1  0  0  0
 76156  1  0  0  0
 76 84  1  0  0  0
 77 84  1  0  0  0
 77157  1  0  0  0
 77158  1  0  0  0
 77159  1  0  0  0
 78160  1  0  0  0
 78161  1  0  0  0
 78162  1  0  0  0
 78 85  1  0  0  0
 79 85  1  0  0  0
 79163  1  0  0  0
 79164  1  0  0  0
 80 81  1  0  0  0
 80 82  1  0  0  0
 80165  1  0  0  0
 80166  1  0  0  0
 81 83  1  0  0  0
 81167  1  0  0  0
 81168  1  0  0  0
 82 85  1  0  0  0
 82169  1  0  0  0
 82170  1  0  0  0
 83171  1  0  0  0
 83172  1  0  0  0
 84173  1  0  0  0
 85174  1  0  0  0
M  ISO  4   1 100  68 101  83 101  86 100
M  END
> <chiral flag>
0

> <version>
0

> <s_m_source_file>
/data/baiqing/PycharmProjects/Reinvent-master-3.2/result/LINK_invent/BTK/process_docking_weight1_custom_sum_contain_oxygen_bond_distance_aromatic_linkinvent_7_9_3/rearranged_h_0095.sdf

> <i_m_source_file_index>
95

> <r_mmod_Potential_Energy-OPLS-2005>
208.723129272461

> <r_mmod_Stretch_Energy-OPLS-2005>
45.4383430480957

> <r_mmod_Bend_Energy-OPLS-2005>
116.332977294922

> <r_mmod_Torsional_Energy-OPLS-2005>
331.0078125

> <r_mmod_Improper_Torsional_Energy-OPLS-2005>
7.53782796859741

> <r_mmod_Van_der_Waal_Energy-OPLS-2005>
148.156402587891

> <r_mmod_Electrostatic_Energy-OPLS-2005>
-280.604827880859

> <r_mmod_Solvation_Energy-OPLS-2005>
-169.622604370117

> <b_mmod_Minimization_Converged-OPLS-2005>
0

> <r_mmod_RMS_Derivative-OPLS-2005>
0.425708681344986

$$$$
95
                    3D
 Structure written by MMmdl.
169177  0  0  1  0            999 V2000
  -30.5638  -14.7443   20.4970 C   0  0  0  0  0  0
  -30.4540  -12.4639   19.4582 C   0  0  0  0  0  0
  -29.5205  -12.5156   18.2275 C   0  0  0  0  0  0
  -28.0423  -12.3356   18.6363 C   0  0  0  0  0  0
  -27.6457  -13.2207   19.8481 C   0  0  2  0  0  0
  -28.6907  -13.1140   20.9789 C   0  0  0  0  0  0
  -25.2540  -13.8169   20.5684 C   0  0  0  0  0  0
  -24.1821  -13.0432   20.9225 C   0  0  0  0  0  0
  -24.6397  -11.6903   20.8754 C   0  0  0  0  0  0
  -23.9073  -10.4286   21.0419 C   0  0  0  0  0  0
  -24.3629   -9.4203   21.9190 C   0  0  0  0  0  0
  -23.6303   -8.2237   22.0757 C   0  0  0  0  0  0
  -22.4276   -8.0291   21.3558 C   0  0  0  0  0  0
  -21.9917   -9.0261   20.4654 C   0  0  0  0  0  0
  -22.7252  -10.2137   20.3063 C   0  0  0  0  0  0
  -21.6837   -6.0747   22.5288 C   0  0  0  0  0  0
  -21.4004   -6.5649   23.8227 C   0  0  0  0  0  0
  -21.3663   -5.6791   24.9188 C   0  0  0  0  0  0
  -21.6048   -4.3058   24.7225 C   0  0  0  0  0  0
  -21.8816   -3.8158   23.4343 C   0  0  0  0  0  0
  -21.9183   -4.6978   22.3402 C   0  0  0  0  0  0
  -22.7839  -13.5244   21.1853 C   0  0  0  0  0  0
  -22.1655   -4.2171   21.0974 F   0  0  0  0  0  0
  -21.5627   -3.4541   25.7732 F   0  0  0  0  0  0
  -29.9887  -13.4979   20.4058 N   0  0  0  0  0  0
  -26.2950  -12.9350   20.3239 N   0  0  0  0  0  0
  -25.9323  -11.6512   20.5730 N   0  0  0  0  0  0
  -22.0441  -12.8273   22.0403 N   0  0  0  0  0  0
  -25.4214  -15.1900   20.4079 N   0  0  0  0  0  0
  -31.7566  -14.8980   20.2261 O   0  0  0  0  0  0
  -21.6630   -6.8899   21.4253 O   0  0  0  0  0  0
  -22.3556  -14.5545   20.6662 O   0  0  0  0  0  0
  -24.6311  -31.8533   23.1965 C   0  0  0  0  0  0
  -25.9138  -32.4735   23.8311 C   0  0  1  0  0  0
  -27.2247  -27.2612   20.1434 C   0  0  0  0  0  0
  -25.5935  -33.8539   24.2243 N   0  0  0  0  0  0
  -23.4279  -30.4746   21.5383 C   0  0  2  0  0  0
  -24.8776  -28.9144   20.1142 C   0  0  0  0  0  0
  -22.7496  -29.4595   22.4896 C   0  0  0  0  0  0
  -18.0281  -28.1385   22.8479 C   0  0  0  0  0  0
  -24.1486  -36.7279   23.2643 C   0  0  0  0  0  0
  -25.9727  -30.7689   21.3733 C   0  0  0  0  0  0
  -26.0486  -29.3893   20.7200 C   0  0  0  0  0  0
  -27.2287  -28.5775   20.7167 C   0  0  0  0  0  0
  -26.0330  -26.8462   19.5154 C   0  0  0  0  0  0
  -24.8757  -27.6517   19.4982 C   0  0  0  0  0  0
  -23.6476  -29.8021   20.1567 C   0  0  0  0  0  0
  -25.4109  -36.3048   24.0326 C   0  0  1  0  0  0
  -20.5890  -28.3692   23.1265 C   0  0  2  0  0  0
  -20.6767  -26.9404   22.5408 C   0  0  0  0  0  0
  -19.5744  -26.6378   21.5209 C   0  0  0  0  0  0
  -18.1927  -26.7925   22.1624 C   0  0  0  0  0  0
  -19.1540  -28.8854   23.2866 C   0  0  0  0  0  0
  -18.9463  -30.1459   23.8878 C   0  0  0  0  0  0
  -17.6462  -30.6589   24.0557 C   0  0  0  0  0  0
  -25.9054  -34.9424   23.5081 C   0  0  0  0  0  0
  -16.5352  -29.9084   23.6331 C   0  0  0  0  0  0
  -16.7273  -28.6507   23.0348 C   0  0  0  0  0  0
  -26.4509  -31.6564   25.0706 C   0  0  0  0  0  0
  -25.3743  -31.3713   26.1437 C   0  0  0  0  0  0
  -27.0368  -30.2978   24.6202 C   0  0  0  0  0  0
  -27.6051  -32.4314   25.7486 C   0  0  0  0  0  0
  -27.5567  -37.1792   24.8461 C   0  0  0  0  0  0
  -21.4202  -29.3042   22.3652 N   0  0  0  0  0  0
  -26.4273  -37.3755   23.9408 N   0  0  0  0  0  0
  -24.6961  -31.0505   22.0926 N   0  0  0  0  0  0
  -23.4200  -28.8134   23.2995 O   0  0  0  0  0  0
  -28.3283  -26.3812   20.1397 O   0  0  0  0  0  0
  -26.5626  -34.8908   22.4651 O   0  0  0  0  0  0
  -23.5468  -32.1349   23.7274 O   0  0  0  0  0  0
  -31.8804  -18.1292   20.6129 C   0  0  0  0  0  0
  -30.5126  -18.4712   20.6581 C   0  0  0  0  0  0
  -30.2468  -19.8952   20.3621 C   0  0  0  0  0  0
  -32.5129  -20.2227   20.0157 C   0  0  0  0  0  0
  -34.1582  -21.8709   21.0131 C   0  0  0  0  0  0
  -28.9180  -20.7528   20.2439 C   0  0  0  0  0  0
  -33.6308  -21.2074   19.7335 C   0  0  0  0  0  0
  -28.8417  -22.2650   20.8694 C   0  0  0  0  0  0
  -28.6307  -23.6262   19.9938 C   0  0  0  0  0  0
  -29.3888  -17.2570   22.6595 C   0  0  0  0  0  0
  -28.6766  -18.4565   23.3316 C   0  0  0  0  0  0
  -28.1895  -25.0066   20.7343 C   0  0  0  0  0  0
  -29.5491  -17.2863   21.1126 C   0  0  2  0  0  0
  -32.8642  -18.9868   20.3102 N   0  0  0  0  0  0
  -31.2795  -20.6987   20.0396 N   0  0  0  0  0  0
  -29.6741  -15.7959   20.7026 N   0  0  0  0  0  0
  -29.5926  -19.3670   24.0435 N   0  3  0  0  0  0
  -31.4901  -12.6261   19.1563 H   0  0  0  0  0  0
  -30.4295  -11.4787   19.9263 H   0  0  0  0  0  0
  -29.8097  -11.7491   17.5069 H   0  0  0  0  0  0
  -29.6452  -13.4728   17.7179 H   0  0  0  0  0  0
  -27.8937  -11.2839   18.8858 H   0  0  0  0  0  0
  -27.3909  -12.5440   17.7868 H   0  0  0  0  0  0
  -27.6474  -14.2478   19.4822 H   0  0  0  0  0  0
  -28.7320  -12.0967   21.3710 H   0  0  0  0  0  0
  -28.4232  -13.7493   21.8254 H   0  0  0  0  0  0
  -25.2771   -9.5669   22.4778 H   0  0  0  0  0  0
  -24.0005   -7.4622   22.7467 H   0  0  0  0  0  0
  -21.0853   -8.8794   19.8956 H   0  0  0  0  0  0
  -22.3723  -10.9686   19.6180 H   0  0  0  0  0  0
  -21.1991   -7.6154   23.9750 H   0  0  0  0  0  0
  -21.1488   -6.0510   25.9094 H   0  0  0  0  0  0
  -22.0584   -2.7622   23.2823 H   0  0  0  0  0  0
  -22.4015  -11.9971   22.4897 H   0  0  0  0  0  0
  -21.1050  -13.1336   22.2515 H   0  0  0  0  0  0
  -24.6347  -15.8252   20.4931 H   0  0  0  0  0  0
  -26.2389  -15.6268   20.0023 H   0  0  0  0  0  0
  -26.7201  -32.5392   23.1051 H   0  0  0  0  0  0
  -25.0062  -33.9665   25.0372 H   0  0  0  0  0  0
  -22.7241  -31.2962   21.3887 H   0  0  0  0  0  0
  -23.3740  -35.9619   23.3298 H   0  0  0  0  0  0
  -24.3568  -36.8916   22.2058 H   0  0  0  0  0  0
  -23.7261  -37.6485   23.6678 H   0  0  0  0  0  0
  -26.1088  -31.5289   20.6026 H   0  0  0  0  0  0
  -26.8507  -30.8211   22.0056 H   0  0  0  0  0  0
  -28.1295  -28.9410   21.1904 H   0  0  0  0  0  0
  -25.9941  -25.8749   19.0417 H   0  0  0  0  0  0
  -23.9806  -27.2832   19.0158 H   0  0  0  0  0  0
  -23.7720  -30.5750   19.3973 H   0  0  0  0  0  0
  -22.7666  -29.2338   19.8523 H   0  0  0  0  0  0
  -25.1296  -36.1876   25.0819 H   0  0  0  0  0  0
  -20.9986  -28.3275   24.1387 H   0  0  0  0  0  0
  -20.5649  -26.2304   23.3617 H   0  0  0  0  0  0
  -21.6637  -26.7416   22.1214 H   0  0  0  0  0  0
  -19.6900  -25.6287   21.1241 H   0  0  0  0  0  0
  -19.6685  -27.3187   20.6738 H   0  0  0  0  0  0
  -17.4193  -26.6668   21.4030 H   0  0  0  0  0  0
  -18.0326  -26.0073   22.9027 H   0  0  0  0  0  0
  -19.7941  -30.7274   24.2245 H   0  0  0  0  0  0
  -17.5020  -31.6266   24.5162 H   0  0  0  0  0  0
  -15.5353  -30.2981   23.7667 H   0  0  0  0  0  0
  -15.8673  -28.0825   22.7064 H   0  0  0  0  0  0
  -24.5906  -30.7074   25.7767 H   0  0  0  0  0  0
  -24.8961  -32.2892   26.4870 H   0  0  0  0  0  0
  -25.8084  -30.8880   27.0202 H   0  0  0  0  0  0
  -26.2961  -29.6706   24.1232 H   0  0  0  0  0  0
  -27.4048  -29.7255   25.4729 H   0  0  0  0  0  0
  -27.8832  -30.4236   23.9446 H   0  0  0  0  0  0
  -27.2638  -33.3608   26.2052 H   0  0  0  0  0  0
  -28.3875  -32.6890   25.0335 H   0  0  0  0  0  0
  -28.0707  -31.8455   26.5419 H   0  0  0  0  0  0
  -28.2577  -38.0093   24.7494 H   0  0  0  0  0  0
  -28.1067  -36.2624   24.6292 H   0  0  0  0  0  0
  -27.2283  -37.1449   25.8862 H   0  0  0  0  0  0
  -20.9381  -29.8776   21.6871 H   0  0  0  0  0  0
  -26.0145  -38.2819   24.1421 H   0  0  0  0  0  0
  -32.2194  -17.1476   20.8936 H   0  0  0  0  0  0
  -34.9639  -22.5696   20.7886 H   0  0  0  0  0  0
  -34.5434  -21.1251   21.7089 H   0  0  0  0  0  0
  -33.3658  -22.4245   21.5172 H   0  0  0  0  0  0
  -28.1135  -20.1584   20.6724 H   0  0  0  0  0  0
  -28.6669  -20.8128   19.1853 H   0  0  0  0  0  0
  -33.2737  -21.9687   19.0399 H   0  0  0  0  0  0
  -34.4437  -20.6897   19.2236 H   0  0  0  0  0  0
  -29.7023  -22.4100   21.5223 H   0  0  0  0  0  0
  -27.9987  -22.2415   21.5608 H   0  0  0  0  0  0
  -27.8892  -23.4228   19.2201 H   0  0  0  0  0  0
  -29.5591  -23.8124   19.4536 H   0  0  0  0  0  0
  -28.7767  -16.3874   22.9081 H   0  0  0  0  0  0
  -30.3508  -17.0584   23.1362 H   0  0  0  0  0  0
  -27.9757  -18.0732   24.0753 H   0  0  0  0  0  0
  -28.0674  -19.0072   22.6174 H   0  0  0  0  0  0
  -28.7806  -25.0582   21.6485 H   0  0  0  0  0  0
  -27.1667  -24.8773   21.0904 H   0  0  0  0  0  0
  -28.5781  -17.5672   20.7000 H   0  0  0  0  0  0
  -28.7552  -15.3785   20.7193 H   0  0  0  0  0  0
  -30.0575  -18.8806   24.7904 H   0  0  0  0  0  0
  -29.0669  -20.1169   24.4590 H   0  0  0  0  0  0
  -30.2847  -19.7635   23.4344 H   0  0  0  0  0  0
  1 25  1  0  0  0
  1 30  2  0  0  0
  1 86  1  0  0  0
  2  3  1  0  0  0
  2 25  1  0  0  0
  2 88  1  0  0  0
  2 89  1  0  0  0
  3  4  1  0  0  0
  3 90  1  0  0  0
  3 91  1  0  0  0
  4  5  1  0  0  0
  4 92  1  0  0  0
  4 93  1  0  0  0
  5  6  1  0  0  0
  5 26  1  0  0  0
  5 94  1  0  0  0
  6 25  1  0  0  0
  6 95  1  0  0  0
  6 96  1  0  0  0
  7  8  2  0  0  0
  7 26  1  0  0  0
  7 29  1  0  0  0
  8  9  1  0  0  0
  8 22  1  0  0  0
  9 10  1  0  0  0
  9 27  2  0  0  0
 10 11  2  0  0  0
 10 15  1  0  0  0
 11 12  1  0  0  0
 11 97  1  0  0  0
 12 13  2  0  0  0
 12 98  1  0  0  0
 13 14  1  0  0  0
 13 31  1  0  0  0
 14 15  2  0  0  0
 14 99  1  0  0  0
 15100  1  0  0  0
 16 17  2  0  0  0
 16 21  1  0  0  0
 16 31  1  0  0  0
 17 18  1  0  0  0
 17101  1  0  0  0
 18 19  2  0  0  0
 18102  1  0  0  0
 19 20  1  0  0  0
 19 24  1  0  0  0
 20 21  2  0  0  0
 20103  1  0  0  0
 21 23  1  0  0  0
 22 28  1  0  0  0
 22 32  2  0  0  0
 26 27  1  0  0  0
 28104  1  0  0  0
 28105  1  0  0  0
 29106  1  0  0  0
 29107  1  0  0  0
 33 34  1  0  0  0
 33 66  1  0  0  0
 33 70  2  0  0  0
 34 36  1  0  0  0
 34 59  1  0  0  0
 34108  1  0  0  0
 35 44  2  0  0  0
 35 45  1  0  0  0
 35 68  1  0  0  0
 36 56  1  0  0  0
 36109  1  0  0  0
 37 39  1  0  0  0
 37 47  1  0  0  0
 37 66  1  0  0  0
 37110  1  0  0  0
 38 43  2  0  0  0
 38 46  1  0  0  0
 38 47  1  0  0  0
 39 64  1  0  0  0
 39 67  2  0  0  0
 40 52  1  0  0  0
 40 53  2  0  0  0
 40 58  1  0  0  0
 41111  1  0  0  0
 41112  1  0  0  0
 41113  1  0  0  0
 41 48  1  0  0  0
 42 43  1  0  0  0
 42 66  1  0  0  0
 42114  1  0  0  0
 42115  1  0  0  0
 43 44  1  0  0  0
 44116  1  0  0  0
 45 46  2  0  0  0
 45117  1  0  0  0
 46118  1  0  0  0
 47119  1  0  0  0
 47120  1  0  0  0
 48 56  1  0  0  0
 48 65  1  0  0  0
 48121  1  0  0  0
 49 50  1  0  0  0
 49 53  1  0  0  0
 49 64  1  0  0  0
 49122  1  0  0  0
 50 51  1  0  0  0
 50123  1  0  0  0
 50124  1  0  0  0
 51 52  1  0  0  0
 51125  1  0  0  0
 51126  1  0  0  0
 52127  1  0  0  0
 52128  1  0  0  0
 53 54  1  0  0  0
 54 55  2  0  0  0
 54129  1  0  0  0
 55 57  1  0  0  0
 55130  1  0  0  0
 56 69  2  0  0  0
 57 58  2  0  0  0
 57131  1  0  0  0
 58132  1  0  0  0
 59 60  1  0  0  0
 59 61  1  0  0  0
 59 62  1  0  0  0
 60133  1  0  0  0
 60134  1  0  0  0
 60135  1  0  0  0
 61136  1  0  0  0
 61137  1  0  0  0
 61138  1  0  0  0
 62139  1  0  0  0
 62140  1  0  0  0
 62141  1  0  0  0
 63 65  1  0  0  0
 63142  1  0  0  0
 63143  1  0  0  0
 63144  1  0  0  0
 64145  1  0  0  0
 65146  1  0  0  0
 68 82  1  0  0  0
 71 72  2  0  0  0
 71 84  1  0  0  0
 71147  1  0  0  0
 72 73  1  0  0  0
 72 83  1  0  0  0
 73 76  1  0  0  0
 73 85  2  0  0  0
 74 77  1  0  0  0
 74 84  2  0  0  0
 74 85  1  0  0  0
 75 77  1  0  0  0
 75148  1  0  0  0
 75149  1  0  0  0
 75150  1  0  0  0
 76 78  1  0  0  0
 76151  1  0  0  0
 76152  1  0  0  0
 77153  1  0  0  0
 77154  1  0  0  0
 78 79  1  0  0  0
 78155  1  0  0  0
 78156  1  0  0  0
 79 82  1  0  0  0
 79157  1  0  0  0
 79158  1  0  0  0
 80 81  1  0  0  0
 80159  1  0  0  0
 80160  1  0  0  0
 80 83  1  0  0  0
 81 87  1  0  0  0
 81161  1  0  0  0
 81162  1  0  0  0
 82163  1  0  0  0
 82164  1  0  0  0
 83 86  1  0  0  0
 83165  1  0  0  0
 86166  1  0  0  0
 87167  1  0  0  0
 87168  1  0  0  0
 87169  1  0  0  0
M  CHG  1  87   1
M  ISO  4   1 100  68 101  82 101  86 100
M  END
> <chiral flag>
0

> <version>
0

> <s_m_source_file>
/data/baiqing/PycharmProjects/Reinvent-master-3.2/result/LINK_invent/BTK/process_docking_weight1_custom_sum_contain_oxygen_bond_distance_aromatic_linkinvent_7_9_3/rearranged_h_0095.sdf

> <i_m_source_file_index>
96

> <r_mmod_Potential_Energy-OPLS-2005>
-258.059814453125

> <r_mmod_Stretch_Energy-OPLS-2005>
142.288558959961

> <r_mmod_Bend_Energy-OPLS-2005>
261.652252197266

> <r_mmod_Torsional_Energy-OPLS-2005>
237.133743286133

> <r_mmod_Improper_Torsional_Energy-OPLS-2005>
5.90683841705322

> <r_mmod_Van_der_Waal_Energy-OPLS-2005>
130.598999023438

> <r_mmod_Electrostatic_Energy-OPLS-2005>
-583.09619140625

> <r_mmod_Solvation_Energy-OPLS-2005>
-537.151062011719

> <b_mmod_Minimization_Converged-OPLS-2005>
0

> <r_mmod_RMS_Derivative-OPLS-2005>
2.12204313278198

$$$$
96
                    3D
 Structure written by MMmdl.
172180  0  0  1  0            999 V2000
  -30.6371  -14.7162   20.4580 C   0  0  0  0  0  0
  -30.4232  -12.4373   19.4721 C   0  0  0  0  0  0
  -29.5039  -12.4992   18.2340 C   0  0  0  0  0  0
  -28.0304  -12.3298   18.6491 C   0  0  0  0  0  0
  -27.6402  -13.2318   19.8509 C   0  0  2  0  0  0
  -28.6851  -13.1694   20.9860 C   0  0  0  0  0  0
  -25.2502  -13.8202   20.5695 C   0  0  0  0  0  0
  -24.1793  -13.0441   20.9203 C   0  0  0  0  0  0
  -24.6388  -11.6922   20.8750 C   0  0  0  0  0  0
  -23.9067  -10.4294   21.0412 C   0  0  0  0  0  0
  -24.3620   -9.4207   21.9188 C   0  0  0  0  0  0
  -23.6294   -8.2245   22.0760 C   0  0  0  0  0  0
  -22.4279   -8.0282   21.3546 C   0  0  0  0  0  0
  -21.9913   -9.0255   20.4650 C   0  0  0  0  0  0
  -22.7242  -10.2134   20.3058 C   0  0  0  0  0  0
  -21.6853   -6.0734   22.5276 C   0  0  0  0  0  0
  -21.4017   -6.5640   23.8209 C   0  0  0  0  0  0
  -21.3657   -5.6794   24.9171 C   0  0  0  0  0  0
  -21.6044   -4.3057   24.7224 C   0  0  0  0  0  0
  -21.8819   -3.8146   23.4346 C   0  0  0  0  0  0
  -21.9193   -4.6961   22.3401 C   0  0  0  0  0  0
  -22.7814  -13.5221   21.1853 C   0  0  0  0  0  0
  -22.1662   -4.2144   21.0978 F   0  0  0  0  0  0
  -21.5627   -3.4542   25.7737 F   0  0  0  0  0  0
  -29.9857  -13.5066   20.3984 N   0  0  0  0  0  0
  -26.2927  -12.9410   20.3294 N   0  0  0  0  0  0
  -25.9319  -11.6553   20.5773 N   0  0  0  0  0  0
  -22.0466  -12.8212   22.0416 N   0  0  0  0  0  0
  -25.4191  -15.1924   20.4104 N   0  0  0  0  0  0
  -31.8298  -14.7817   20.1517 O   0  0  0  0  0  0
  -21.6646   -6.8879   21.4239 O   0  0  0  0  0  0
  -22.3496  -14.5524   20.6698 O   0  0  0  0  0  0
  -24.6287  -31.8547   23.1986 C   0  0  0  0  0  0
  -25.9114  -32.4748   23.8328 C   0  0  1  0  0  0
  -27.2181  -27.2666   20.1202 C   0  0  0  0  0  0
  -25.5908  -33.8551   24.2251 N   0  0  0  0  0  0
  -23.4246  -30.4785   21.5420 C   0  0  2  0  0  0
  -24.8696  -28.9250   20.1116 C   0  0  0  0  0  0
  -22.7481  -29.4603   22.4911 C   0  0  0  0  0  0
  -18.0285  -28.1385   22.8481 C   0  0  0  0  0  0
  -24.1493  -36.7291   23.2639 C   0  0  0  0  0  0
  -25.9702  -30.7686   21.3777 C   0  0  0  0  0  0
  -26.0409  -29.3920   20.7190 C   0  0  0  0  0  0
  -27.2145  -28.5750   20.7124 C   0  0  0  0  0  0
  -26.0163  -26.8597   19.4964 C   0  0  0  0  0  0
  -24.8621  -27.6665   19.4927 C   0  0  0  0  0  0
  -23.6411  -29.8117   20.1585 C   0  0  0  0  0  0
  -25.4114  -36.3066   24.0327 C   0  0  1  0  0  0
  -20.5888  -28.3693   23.1274 C   0  0  2  0  0  0
  -20.6773  -26.9416   22.5407 C   0  0  0  0  0  0
  -19.5756  -26.6387   21.5203 C   0  0  0  0  0  0
  -18.1934  -26.7930   22.1617 C   0  0  0  0  0  0
  -19.1537  -28.8855   23.2876 C   0  0  0  0  0  0
  -18.9462  -30.1453   23.8901 C   0  0  0  0  0  0
  -17.6462  -30.6594   24.0557 C   0  0  0  0  0  0
  -25.9054  -34.9434   23.5099 C   0  0  0  0  0  0
  -16.5353  -29.9089   23.6329 C   0  0  0  0  0  0
  -16.7270  -28.6505   23.0354 C   0  0  0  0  0  0
  -26.4490  -31.6570   25.0714 C   0  0  0  0  0  0
  -25.3714  -31.3706   26.1436 C   0  0  0  0  0  0
  -27.0330  -30.2981   24.6203 C   0  0  0  0  0  0
  -27.6050  -32.4308   25.7480 C   0  0  0  0  0  0
  -27.5586  -37.1793   24.8460 C   0  0  0  0  0  0
  -21.4190  -29.3042   22.3659 N   0  0  0  0  0  0
  -26.4291  -37.3761   23.9409 N   0  0  0  0  0  0
  -24.6937  -31.0519   22.0959 N   0  0  0  0  0  0
  -23.4190  -28.8138   23.2998 O   0  0  0  0  0  0
  -28.3483  -26.4213   20.1833 O   0  0  0  0  0  0
  -26.5638  -34.8910   22.4678 O   0  0  0  0  0  0
  -23.5439  -32.1369   23.7288 O   0  0  0  0  0  0
  -30.9746  -22.2943   19.8922 C   0  0  0  0  0  0
  -29.8654  -21.4613   20.1737 C   0  0  0  0  0  0
  -32.0718  -21.5536   19.6259 C   0  0  0  0  0  0
  -30.3359  -20.1119   20.1525 C   0  0  0  0  0  0
  -33.0780  -22.5316   16.1121 C   0  0  0  0  0  0
  -34.3845  -22.1135   20.4493 C   0  0  0  0  0  0
  -32.6883  -19.1437   19.6245 C   0  0  0  0  0  0
  -28.5005  -22.2062   20.3877 C   0  0  0  0  0  0
  -29.6476  -18.6786   20.3669 C   0  0  0  0  0  0
  -32.5988  -23.4858   17.2142 C   0  0  0  0  0  0
  -28.4903  -23.7871   20.7940 C   0  0  0  0  0  0
  -33.4344  -23.4195   18.5106 C   0  0  0  0  0  0
  -30.4989  -17.2909   20.5006 C   0  0  0  0  0  0
  -28.3770  -24.9887   19.7285 C   0  0  0  0  0  0
  -33.4466  -22.0500   19.2323 C   0  0  2  0  0  0
  -31.7147  -20.2200   19.8082 N   0  0  0  0  0  0
  -29.9142  -15.8865   20.6369 N   0  0  0  0  0  0
  -31.4655  -12.5468   19.1682 H   0  0  0  0  0  0
  -30.3549  -11.4626   19.9573 H   0  0  0  0  0  0
  -29.7817  -11.7260   17.5161 H   0  0  0  0  0  0
  -29.6345  -13.4546   17.7234 H   0  0  0  0  0  0
  -27.8837  -11.2814   18.9122 H   0  0  0  0  0  0
  -27.3725  -12.5240   17.8011 H   0  0  0  0  0  0
  -27.6355  -14.2530   19.4696 H   0  0  0  0  0  0
  -28.7149  -12.1762   21.4363 H   0  0  0  0  0  0
  -28.4277  -13.8627   21.7882 H   0  0  0  0  0  0
  -25.2765   -9.5683   22.4762 H   0  0  0  0  0  0
  -23.9997   -7.4641   22.7487 H   0  0  0  0  0  0
  -21.0843   -8.8777   19.8958 H   0  0  0  0  0  0
  -22.3701  -10.9675   19.6170 H   0  0  0  0  0  0
  -21.2016   -7.6150   23.9707 H   0  0  0  0  0  0
  -21.1478   -6.0529   25.9072 H   0  0  0  0  0  0
  -22.0601   -2.7607   23.2850 H   0  0  0  0  0  0
  -22.4097  -11.9876   22.4798 H   0  0  0  0  0  0
  -21.1082  -13.1232   22.2628 H   0  0  0  0  0  0
  -24.6504  -15.8457   20.5187 H   0  0  0  0  0  0
  -26.2645  -15.6320   20.0696 H   0  0  0  0  0  0
  -26.7167  -32.5391   23.1055 H   0  0  0  0  0  0
  -24.9984  -33.9686   25.0347 H   0  0  0  0  0  0
  -22.7205  -31.3003   21.3957 H   0  0  0  0  0  0
  -23.3751  -35.9625   23.3282 H   0  0  0  0  0  0
  -24.3580  -36.8941   22.2057 H   0  0  0  0  0  0
  -23.7258  -37.6490   23.6681 H   0  0  0  0  0  0
  -26.1088  -31.5290   20.6081 H   0  0  0  0  0  0
  -26.8479  -30.8158   22.0108 H   0  0  0  0  0  0
  -28.1141  -28.9292   21.1960 H   0  0  0  0  0  0
  -25.9159  -25.9011   19.0163 H   0  0  0  0  0  0
  -23.9613  -27.3004   19.0193 H   0  0  0  0  0  0
  -23.7632  -30.5864   19.4010 H   0  0  0  0  0  0
  -22.7598  -29.2425   19.8564 H   0  0  0  0  0  0
  -25.1296  -36.1910   25.0818 H   0  0  0  0  0  0
  -20.9977  -28.3277   24.1396 H   0  0  0  0  0  0
  -20.5663  -26.2304   23.3604 H   0  0  0  0  0  0
  -21.6645  -26.7438   22.1210 H   0  0  0  0  0  0
  -19.6921  -25.6292   21.1246 H   0  0  0  0  0  0
  -19.6708  -27.3182   20.6722 H   0  0  0  0  0  0
  -17.4199  -26.6660   21.4026 H   0  0  0  0  0  0
  -18.0352  -26.0075   22.9021 H   0  0  0  0  0  0
  -19.7935  -30.7258   24.2296 H   0  0  0  0  0  0
  -17.5017  -31.6280   24.5146 H   0  0  0  0  0  0
  -15.5353  -30.2990   23.7664 H   0  0  0  0  0  0
  -15.8666  -28.0823   22.7083 H   0  0  0  0  0  0
  -24.5909  -30.7036   25.7760 H   0  0  0  0  0  0
  -24.8876  -32.2858   26.4850 H   0  0  0  0  0  0
  -25.8034  -30.8894   27.0220 H   0  0  0  0  0  0
  -26.2908  -29.6720   24.1236 H   0  0  0  0  0  0
  -27.4009  -29.7257   25.4728 H   0  0  0  0  0  0
  -27.8790  -30.4240   23.9444 H   0  0  0  0  0  0
  -27.2679  -33.3624   26.2037 H   0  0  0  0  0  0
  -28.3869  -32.6839   25.0307 H   0  0  0  0  0  0
  -28.0703  -31.8437   26.5408 H   0  0  0  0  0  0
  -28.2583  -38.0109   24.7517 H   0  0  0  0  0  0
  -28.1113  -36.2639   24.6275 H   0  0  0  0  0  0
  -27.2307  -37.1424   25.8864 H   0  0  0  0  0  0
  -20.9365  -29.8768   21.6873 H   0  0  0  0  0  0
  -26.0175  -38.2839   24.1404 H   0  0  0  0  0  0
  -30.9624  -23.3735   19.8401 H   0  0  0  0  0  0
  -32.5174  -22.6920   15.1907 H   0  0  0  0  0  0
  -32.9356  -21.4891   16.3984 H   0  0  0  0  0  0
  -34.1344  -22.6813   15.8880 H   0  0  0  0  0  0
  -34.4806  -21.1444   20.9385 H   0  0  0  0  0  0
  -34.0157  -22.8191   21.1944 H   0  0  0  0  0  0
  -35.3863  -22.4319   20.1601 H   0  0  0  0  0  0
  -33.6977  -19.5065   19.4631 H   0  0  0  0  0  0
  -32.4365  -18.5527   18.7453 H   0  0  0  0  0  0
  -32.7656  -18.5358   20.5205 H   0  0  0  0  0  0
  -27.9922  -21.6576   21.1812 H   0  0  0  0  0  0
  -27.8853  -22.0626   19.4990 H   0  0  0  0  0  0
  -28.9424  -18.5397   19.5473 H   0  0  0  0  0  0
  -29.0218  -18.7526   21.2563 H   0  0  0  0  0  0
  -31.5466  -23.2940   17.4236 H   0  0  0  0  0  0
  -32.6388  -24.5062   16.8317 H   0  0  0  0  0  0
  -29.3223  -23.9855   21.4700 H   0  0  0  0  0  0
  -27.6063  -23.9105   21.4201 H   0  0  0  0  0  0
  -33.0722  -24.1852   19.1977 H   0  0  0  0  0  0
  -34.4600  -23.7064   18.2738 H   0  0  0  0  0  0
  -31.1787  -17.3931   21.3461 H   0  0  0  0  0  0
  -31.0897  -17.1971   19.5956 H   0  0  0  0  0  0
  -27.5801  -24.7539   19.0300 H   0  0  0  0  0  0
  -29.2692  -24.9252   19.1059 H   0  0  0  0  0  0
  -33.8868  -21.3602   18.5142 H   0  0  0  0  0  0
  -28.9291  -15.8011   20.8389 H   0  0  0  0  0  0
  1 25  1  0  0  0
  1 30  2  0  0  0
  1 87  1  0  0  0
  2  3  1  0  0  0
  2 25  1  0  0  0
  2 88  1  0  0  0
  2 89  1  0  0  0
  3  4  1  0  0  0
  3 90  1  0  0  0
  3 91  1  0  0  0
  4  5  1  0  0  0
  4 92  1  0  0  0
  4 93  1  0  0  0
  5  6  1  0  0  0
  5 26  1  0  0  0
  5 94  1  0  0  0
  6 25  1  0  0  0
  6 95  1  0  0  0
  6 96  1  0  0  0
  7  8  2  0  0  0
  7 26  1  0  0  0
  7 29  1  0  0  0
  8  9  1  0  0  0
  8 22  1  0  0  0
  9 10  1  0  0  0
  9 27  2  0  0  0
 10 11  2  0  0  0
 10 15  1  0  0  0
 11 12  1  0  0  0
 11 97  1  0  0  0
 12 13  2  0  0  0
 12 98  1  0  0  0
 13 14  1  0  0  0
 13 31  1  0  0  0
 14 15  2  0  0  0
 14 99  1  0  0  0
 15100  1  0  0  0
 16 17  2  0  0  0
 16 21  1  0  0  0
 16 31  1  0  0  0
 17 18  1  0  0  0
 17101  1  0  0  0
 18 19  2  0  0  0
 18102  1  0  0  0
 19 20  1  0  0  0
 19 24  1  0  0  0
 20 21  2  0  0  0
 20103  1  0  0  0
 21 23  1  0  0  0
 22 28  1  0  0  0
 22 32  2  0  0  0
 26 27  1  0  0  0
 28104  1  0  0  0
 28105  1  0  0  0
 29106  1  0  0  0
 29107  1  0  0  0
 33 34  1  0  0  0
 33 66  1  0  0  0
 33 70  2  0  0  0
 34 36  1  0  0  0
 34 59  1  0  0  0
 34108  1  0  0  0
 35 44  2  0  0  0
 35 45  1  0  0  0
 35 68  1  0  0  0
 36 56  1  0  0  0
 36109  1  0  0  0
 37 39  1  0  0  0
 37 47  1  0  0  0
 37 66  1  0  0  0
 37110  1  0  0  0
 38 43  2  0  0  0
 38 46  1  0  0  0
 38 47  1  0  0  0
 39 64  1  0  0  0
 39 67  2  0  0  0
 40 52  1  0  0  0
 40 53  2  0  0  0
 40 58  1  0  0  0
 41111  1  0  0  0
 41112  1  0  0  0
 41113  1  0  0  0
 41 48  1  0  0  0
 42 43  1  0  0  0
 42 66  1  0  0  0
 42114  1  0  0  0
 42115  1  0  0  0
 43 44  1  0  0  0
 44116  1  0  0  0
 45 46  2  0  0  0
 45117  1  0  0  0
 46118  1  0  0  0
 47119  1  0  0  0
 47120  1  0  0  0
 48 56  1  0  0  0
 48 65  1  0  0  0
 48121  1  0  0  0
 49 50  1  0  0  0
 49 53  1  0  0  0
 49 64  1  0  0  0
 49122  1  0  0  0
 50 51  1  0  0  0
 50123  1  0  0  0
 50124  1  0  0  0
 51 52  1  0  0  0
 51125  1  0  0  0
 51126  1  0  0  0
 52127  1  0  0  0
 52128  1  0  0  0
 53 54  1  0  0  0
 54 55  2  0  0  0
 54129  1  0  0  0
 55 57  1  0  0  0
 55130  1  0  0  0
 56 69  2  0  0  0
 57 58  2  0  0  0
 57131  1  0  0  0
 58132  1  0  0  0
 59 60  1  0  0  0
 59 61  1  0  0  0
 59 62  1  0  0  0
 60133  1  0  0  0
 60134  1  0  0  0
 60135  1  0  0  0
 61136  1  0  0  0
 61137  1  0  0  0
 61138  1  0  0  0
 62139  1  0  0  0
 62140  1  0  0  0
 62141  1  0  0  0
 63 65  1  0  0  0
 63142  1  0  0  0
 63143  1  0  0  0
 63144  1  0  0  0
 64145  1  0  0  0
 65146  1  0  0  0
 68 84  1  0  0  0
 71 72  1  0  0  0
 71 73  2  0  0  0
 71147  1  0  0  0
 72 74  2  0  0  0
 72 78  1  0  0  0
 73 85  1  0  0  0
 73 86  1  0  0  0
 74 79  1  0  0  0
 74 86  1  0  0  0
 75 80  1  0  0  0
 75148  1  0  0  0
 75149  1  0  0  0
 75150  1  0  0  0
 76151  1  0  0  0
 76152  1  0  0  0
 76153  1  0  0  0
 76 85  1  0  0  0
 77 86  1  0  0  0
 77154  1  0  0  0
 77155  1  0  0  0
 77156  1  0  0  0
 78 81  1  0  0  0
 78157  1  0  0  0
 78158  1  0  0  0
 79 83  1  0  0  0
 79159  1  0  0  0
 79160  1  0  0  0
 80 82  1  0  0  0
 80161  1  0  0  0
 80162  1  0  0  0
 81 84  1  0  0  0
 81163  1  0  0  0
 81164  1  0  0  0
 82 85  1  0  0  0
 82165  1  0  0  0
 82166  1  0  0  0
 83 87  1  0  0  0
 83167  1  0  0  0
 83168  1  0  0  0
 84169  1  0  0  0
 84170  1  0  0  0
 85171  1  0  0  0
 87172  1  0  0  0
M  ISO  4   1 100  68 101  84 101  87 100
M  END
> <chiral flag>
0

> <version>
0

> <s_m_source_file>
/data/baiqing/PycharmProjects/Reinvent-master-3.2/result/LINK_invent/BTK/process_docking_weight1_custom_sum_contain_oxygen_bond_distance_aromatic_linkinvent_7_9_3/rearranged_h_0095.sdf

> <i_m_source_file_index>
97

> <r_mmod_Potential_Energy-OPLS-2005>
160.778045654297

> <r_mmod_Stretch_Energy-OPLS-2005>
136.175079345703

> <r_mmod_Bend_Energy-OPLS-2005>
218.780548095703

> <r_mmod_Torsional_Energy-OPLS-2005>
216.804550170898

> <r_mmod_Improper_Torsional_Energy-OPLS-2005>
5.02569437026978

> <r_mmod_Van_der_Waal_Energy-OPLS-2005>
137.076141357422

> <r_mmod_Electrostatic_Energy-OPLS-2005>
-420.108032226562

> <r_mmod_Solvation_Energy-OPLS-2005>
-208.301406860352

> <b_mmod_Minimization_Converged-OPLS-2005>
0

> <r_mmod_RMS_Derivative-OPLS-2005>
0.915410697460175

$$$$
97
                    3D
 Structure written by MMmdl.
163171  0  0  1  0            999 V2000
  -30.6261  -14.7280   20.4730 C   0  0  0  0  0  0
  -30.4295  -12.4502   19.4653 C   0  0  0  0  0  0
  -29.5062  -12.5072   18.2296 C   0  0  0  0  0  0
  -28.0330  -12.3319   18.6458 C   0  0  0  0  0  0
  -27.6405  -13.2322   19.8477 C   0  0  2  0  0  0
  -28.6860  -13.1644   20.9814 C   0  0  0  0  0  0
  -25.2507  -13.8200   20.5686 C   0  0  0  0  0  0
  -24.1802  -13.0442   20.9204 C   0  0  0  0  0  0
  -24.6393  -11.6920   20.8745 C   0  0  0  0  0  0
  -23.9070  -10.4296   21.0405 C   0  0  0  0  0  0
  -24.3621   -9.4211   21.9183 C   0  0  0  0  0  0
  -23.6296   -8.2246   22.0754 C   0  0  0  0  0  0
  -22.4278   -8.0283   21.3545 C   0  0  0  0  0  0
  -21.9912   -9.0256   20.4646 C   0  0  0  0  0  0
  -22.7241  -10.2136   20.3055 C   0  0  0  0  0  0
  -21.6854   -6.0736   22.5279 C   0  0  0  0  0  0
  -21.4016   -6.5640   23.8213 C   0  0  0  0  0  0
  -21.3660   -5.6792   24.9174 C   0  0  0  0  0  0
  -21.6044   -4.3055   24.7225 C   0  0  0  0  0  0
  -21.8820   -3.8146   23.4346 C   0  0  0  0  0  0
  -21.9194   -4.6964   22.3402 C   0  0  0  0  0  0
  -22.7823  -13.5222   21.1865 C   0  0  0  0  0  0
  -22.1661   -4.2149   21.0980 F   0  0  0  0  0  0
  -21.5628   -3.4539   25.7738 F   0  0  0  0  0  0
  -29.9853  -13.5129   20.3951 N   0  0  0  0  0  0
  -26.2932  -12.9408   20.3268 N   0  0  0  0  0  0
  -25.9323  -11.6549   20.5745 N   0  0  0  0  0  0
  -22.0472  -12.8213   22.0424 N   0  0  0  0  0  0
  -25.4186  -15.1925   20.4104 N   0  0  0  0  0  0
  -31.8190  -14.8100   20.1700 O   0  0  0  0  0  0
  -21.6643   -6.8879   21.4241 O   0  0  0  0  0  0
  -22.3503  -14.5522   20.6706 O   0  0  0  0  0  0
  -24.6306  -31.8554   23.1981 C   0  0  0  0  0  0
  -25.9131  -32.4757   23.8329 C   0  0  1  0  0  0
  -27.2188  -27.2704   20.1363 C   0  0  0  0  0  0
  -25.5929  -33.8559   24.2255 N   0  0  0  0  0  0
  -23.4273  -30.4774   21.5413 C   0  0  2  0  0  0
  -24.8752  -28.9220   20.1131 C   0  0  0  0  0  0
  -22.7498  -29.4604   22.4914 C   0  0  0  0  0  0
  -18.0291  -28.1388   22.8485 C   0  0  0  0  0  0
  -24.1488  -36.7282   23.2641 C   0  0  0  0  0  0
  -25.9719  -30.7721   21.3758 C   0  0  0  0  0  0
  -26.0467  -29.3940   20.7206 C   0  0  0  0  0  0
  -27.2255  -28.5820   20.7174 C   0  0  0  0  0  0
  -26.0288  -26.8613   19.5009 C   0  0  0  0  0  0
  -24.8704  -27.6628   19.4916 C   0  0  0  0  0  0
  -23.6458  -29.8088   20.1584 C   0  0  0  0  0  0
  -25.4115  -36.3071   24.0327 C   0  0  1  0  0  0
  -20.5895  -28.3698   23.1269 C   0  0  2  0  0  0
  -20.6778  -26.9416   22.5407 C   0  0  0  0  0  0
  -19.5754  -26.6383   21.5211 C   0  0  0  0  0  0
  -18.1935  -26.7930   22.1625 C   0  0  0  0  0  0
  -19.1545  -28.8860   23.2872 C   0  0  0  0  0  0
  -18.9468  -30.1460   23.8892 C   0  0  0  0  0  0
  -17.6467  -30.6590   24.0563 C   0  0  0  0  0  0
  -25.9055  -34.9441   23.5094 C   0  0  0  0  0  0
  -16.5358  -29.9088   23.6332 C   0  0  0  0  0  0
  -16.7277  -28.6505   23.0354 C   0  0  0  0  0  0
  -26.4501  -31.6581   25.0717 C   0  0  0  0  0  0
  -25.3724  -31.3730   26.1438 C   0  0  0  0  0  0
  -27.0353  -30.2999   24.6199 C   0  0  0  0  0  0
  -27.6051  -32.4325   25.7493 C   0  0  0  0  0  0
  -27.5577  -37.1797   24.8466 C   0  0  0  0  0  0
  -21.4206  -29.3046   22.3657 N   0  0  0  0  0  0
  -26.4289  -37.3770   23.9410 N   0  0  0  0  0  0
  -24.6957  -31.0528   22.0951 N   0  0  0  0  0  0
  -23.4199  -28.8149   23.3017 O   0  0  0  0  0  0
  -28.3070  -26.3723   20.1438 O   0  0  0  0  0  0
  -26.5629  -34.8917   22.4665 O   0  0  0  0  0  0
  -23.5457  -32.1371   23.7282 O   0  0  0  0  0  0
  -29.6499  -19.8519   21.1943 C   0  0  0  0  0  0
  -28.5264  -20.2740   19.3490 C   0  0  0  0  0  0
  -29.6502  -18.6367   20.5047 C   0  0  0  0  0  0
  -28.9084  -18.9404   19.3122 C   0  0  0  0  0  0
  -29.8287  -17.8465   17.2492 C   0  0  0  0  0  0
  -27.3387  -18.2992   17.4201 C   0  0  0  0  0  0
  -28.5942  -25.2300   22.2160 C   0  0  0  0  0  0
  -30.4075  -17.2901   20.9153 C   0  0  0  0  0  0
  -28.7432  -23.6529   20.1488 C   0  0  0  0  0  0
  -28.6356  -22.2903   21.0252 C   0  0  0  0  0  0
  -28.6234  -17.9601   18.1918 C   0  0  0  0  0  0
  -28.1120  -25.0211   20.7722 C   0  0  2  0  0  0
  -28.9693  -20.8875   20.5100 N   0  0  0  0  0  0
  -29.8830  -15.8729   20.7120 N   0  0  0  0  0  0
  -31.4701  -12.5736   19.1605 H   0  0  0  0  0  0
  -30.3733  -11.4733   19.9479 H   0  0  0  0  0  0
  -29.7867  -11.7360   17.5110 H   0  0  0  0  0  0
  -29.6327  -13.4631   17.7187 H   0  0  0  0  0  0
  -27.8905  -11.2832   18.9090 H   0  0  0  0  0  0
  -27.3742  -12.5238   17.7980 H   0  0  0  0  0  0
  -27.6350  -14.2541   19.4677 H   0  0  0  0  0  0
  -28.7206  -12.1668   21.4216 H   0  0  0  0  0  0
  -28.4245  -13.8480   21.7907 H   0  0  0  0  0  0
  -25.2766   -9.5688   22.4758 H   0  0  0  0  0  0
  -24.0005   -7.4638   22.7473 H   0  0  0  0  0  0
  -21.0843   -8.8774   19.8953 H   0  0  0  0  0  0
  -22.3696  -10.9674   19.6164 H   0  0  0  0  0  0
  -21.2010   -7.6149   23.9715 H   0  0  0  0  0  0
  -21.1479   -6.0523   25.9077 H   0  0  0  0  0  0
  -22.0599   -2.7608   23.2847 H   0  0  0  0  0  0
  -22.4091  -11.9878   22.4816 H   0  0  0  0  0  0
  -21.1088  -13.1234   22.2626 H   0  0  0  0  0  0
  -24.6490  -15.8435   20.5222 H   0  0  0  0  0  0
  -26.2627  -15.6358   20.0723 H   0  0  0  0  0  0
  -26.7199  -32.5412   23.1073 H   0  0  0  0  0  0
  -25.0070  -33.9695   25.0397 H   0  0  0  0  0  0
  -22.7237  -31.2993   21.3938 H   0  0  0  0  0  0
  -23.3752  -35.9613   23.3303 H   0  0  0  0  0  0
  -24.3577  -36.8905   22.2055 H   0  0  0  0  0  0
  -23.7239  -37.6482   23.6667 H   0  0  0  0  0  0
  -26.1083  -31.5321   20.6054 H   0  0  0  0  0  0
  -26.8502  -30.8227   22.0078 H   0  0  0  0  0  0
  -28.1256  -28.9389   21.1981 H   0  0  0  0  0  0
  -25.9881  -25.8942   19.0198 H   0  0  0  0  0  0
  -23.9744  -27.2963   19.0097 H   0  0  0  0  0  0
  -23.7708  -30.5835   19.4010 H   0  0  0  0  0  0
  -22.7643  -29.2417   19.8536 H   0  0  0  0  0  0
  -25.1298  -36.1917   25.0820 H   0  0  0  0  0  0
  -20.9989  -28.3278   24.1389 H   0  0  0  0  0  0
  -20.5674  -26.2312   23.3614 H   0  0  0  0  0  0
  -21.6647  -26.7438   22.1205 H   0  0  0  0  0  0
  -19.6917  -25.6292   21.1246 H   0  0  0  0  0  0
  -19.6691  -27.3190   20.6738 H   0  0  0  0  0  0
  -17.4204  -26.6675   21.4028 H   0  0  0  0  0  0
  -18.0338  -26.0074   22.9023 H   0  0  0  0  0  0
  -19.7944  -30.7275   24.2261 H   0  0  0  0  0  0
  -17.5024  -31.6270   24.5164 H   0  0  0  0  0  0
  -15.5359  -30.2991   23.7658 H   0  0  0  0  0  0
  -15.8677  -28.0822   22.7075 H   0  0  0  0  0  0
  -24.5901  -30.7078   25.7766 H   0  0  0  0  0  0
  -24.8915  -32.2900   26.4853 H   0  0  0  0  0  0
  -25.8041  -30.8914   27.0221 H   0  0  0  0  0  0
  -26.2940  -29.6743   24.1214 H   0  0  0  0  0  0
  -27.4031  -29.7265   25.4717 H   0  0  0  0  0  0
  -27.8815  -30.4279   23.9446 H   0  0  0  0  0  0
  -27.2656  -33.3628   26.2058 H   0  0  0  0  0  0
  -28.3869  -32.6880   25.0327 H   0  0  0  0  0  0
  -28.0713  -31.8460   26.5420 H   0  0  0  0  0  0
  -28.2596  -38.0093   24.7511 H   0  0  0  0  0  0
  -28.1072  -36.2624   24.6295 H   0  0  0  0  0  0
  -27.2295  -37.1450   25.8870 H   0  0  0  0  0  0
  -20.9392  -29.8768   21.6860 H   0  0  0  0  0  0
  -26.0167  -38.2843   24.1411 H   0  0  0  0  0  0
  -30.0921  -20.0770   22.1566 H   0  0  0  0  0  0
  -27.9460  -20.8484   18.6386 H   0  0  0  0  0  0
  -30.7217  -17.5290   17.7888 H   0  0  0  0  0  0
  -30.0510  -18.8022   16.7732 H   0  0  0  0  0  0
  -29.6459  -17.1157   16.4611 H   0  0  0  0  0  0
  -26.4794  -18.3498   18.0898 H   0  0  0  0  0  0
  -27.1226  -17.5382   16.6698 H   0  0  0  0  0  0
  -27.4177  -19.2552   16.9018 H   0  0  0  0  0  0
  -28.3451  -24.3829   22.8545 H   0  0  0  0  0  0
  -28.1281  -26.1082   22.6639 H   0  0  0  0  0  0
  -29.6743  -25.3738   22.2529 H   0  0  0  0  0  0
  -30.6343  -17.3739   21.9787 H   0  0  0  0  0  0
  -31.3787  -17.3521   20.4223 H   0  0  0  0  0  0
  -28.2694  -23.4775   19.1831 H   0  0  0  0  0  0
  -29.7962  -23.8260   19.9275 H   0  0  0  0  0  0
  -27.6090  -22.2304   21.3877 H   0  0  0  0  0  0
  -29.2374  -22.4340   21.9226 H   0  0  0  0  0  0
  -28.4675  -16.9841   18.6520 H   0  0  0  0  0  0
  -27.0405  -24.8307   20.8397 H   0  0  0  0  0  0
  -28.8988  -15.7364   20.8825 H   0  0  0  0  0  0
  1 25  1  0  0  0
  1 30  2  0  0  0
  1 84  1  0  0  0
  2  3  1  0  0  0
  2 25  1  0  0  0
  2 85  1  0  0  0
  2 86  1  0  0  0
  3  4  1  0  0  0
  3 87  1  0  0  0
  3 88  1  0  0  0
  4  5  1  0  0  0
  4 89  1  0  0  0
  4 90  1  0  0  0
  5  6  1  0  0  0
  5 26  1  0  0  0
  5 91  1  0  0  0
  6 25  1  0  0  0
  6 92  1  0  0  0
  6 93  1  0  0  0
  7  8  2  0  0  0
  7 26  1  0  0  0
  7 29  1  0  0  0
  8  9  1  0  0  0
  8 22  1  0  0  0
  9 10  1  0  0  0
  9 27  2  0  0  0
 10 11  2  0  0  0
 10 15  1  0  0  0
 11 12  1  0  0  0
 11 94  1  0  0  0
 12 13  2  0  0  0
 12 95  1  0  0  0
 13 14  1  0  0  0
 13 31  1  0  0  0
 14 15  2  0  0  0
 14 96  1  0  0  0
 15 97  1  0  0  0
 16 17  2  0  0  0
 16 21  1  0  0  0
 16 31  1  0  0  0
 17 18  1  0  0  0
 17 98  1  0  0  0
 18 19  2  0  0  0
 18 99  1  0  0  0
 19 20  1  0  0  0
 19 24  1  0  0  0
 20 21  2  0  0  0
 20100  1  0  0  0
 21 23  1  0  0  0
 22 28  1  0  0  0
 22 32  2  0  0  0
 26 27  1  0  0  0
 28101  1  0  0  0
 28102  1  0  0  0
 29103  1  0  0  0
 29104  1  0  0  0
 33 34  1  0  0  0
 33 66  1  0  0  0
 33 70  2  0  0  0
 34 36  1  0  0  0
 34 59  1  0  0  0
 34105  1  0  0  0
 35 44  2  0  0  0
 35 45  1  0  0  0
 35 68  1  0  0  0
 36 56  1  0  0  0
 36106  1  0  0  0
 37 39  1  0  0  0
 37 47  1  0  0  0
 37 66  1  0  0  0
 37107  1  0  0  0
 38 43  2  0  0  0
 38 46  1  0  0  0
 38 47  1  0  0  0
 39 64  1  0  0  0
 39 67  2  0  0  0
 40 52  1  0  0  0
 40 53  2  0  0  0
 40 58  1  0  0  0
 41108  1  0  0  0
 41109  1  0  0  0
 41110  1  0  0  0
 41 48  1  0  0  0
 42 43  1  0  0  0
 42 66  1  0  0  0
 42111  1  0  0  0
 42112  1  0  0  0
 43 44  1  0  0  0
 44113  1  0  0  0
 45 46  2  0  0  0
 45114  1  0  0  0
 46115  1  0  0  0
 47116  1  0  0  0
 47117  1  0  0  0
 48 56  1  0  0  0
 48 65  1  0  0  0
 48118  1  0  0  0
 49 50  1  0  0  0
 49 53  1  0  0  0
 49 64  1  0  0  0
 49119  1  0  0  0
 50 51  1  0  0  0
 50120  1  0  0  0
 50121  1  0  0  0
 51 52  1  0  0  0
 51122  1  0  0  0
 51123  1  0  0  0
 52124  1  0  0  0
 52125  1  0  0  0
 53 54  1  0  0  0
 54 55  2  0  0  0
 54126  1  0  0  0
 55 57  1  0  0  0
 55127  1  0  0  0
 56 69  2  0  0  0
 57 58  2  0  0  0
 57128  1  0  0  0
 58129  1  0  0  0
 59 60  1  0  0  0
 59 61  1  0  0  0
 59 62  1  0  0  0
 60130  1  0  0  0
 60131  1  0  0  0
 60132  1  0  0  0
 61133  1  0  0  0
 61134  1  0  0  0
 61135  1  0  0  0
 62136  1  0  0  0
 62137  1  0  0  0
 62138  1  0  0  0
 63 65  1  0  0  0
 63139  1  0  0  0
 63140  1  0  0  0
 63141  1  0  0  0
 64142  1  0  0  0
 65143  1  0  0  0
 68 82  1  0  0  0
 71 73  2  0  0  0
 71 83  1  0  0  0
 71144  1  0  0  0
 72 74  2  0  0  0
 72 83  1  0  0  0
 72145  1  0  0  0
 73 74  1  0  0  0
 73 78  1  0  0  0
 74 81  1  0  0  0
 75146  1  0  0  0
 75147  1  0  0  0
 75148  1  0  0  0
 75 81  1  0  0  0
 76 81  1  0  0  0
 76149  1  0  0  0
 76150  1  0  0  0
 76151  1  0  0  0
 77152  1  0  0  0
 77153  1  0  0  0
 77154  1  0  0  0
 77 82  1  0  0  0
 78 84  1  0  0  0
 78155  1  0  0  0
 78156  1  0  0  0
 79 80  1  0  0  0
 79 82  1  0  0  0
 79157  1  0  0  0
 79158  1  0  0  0
 80 83  1  0  0  0
 80159  1  0  0  0
 80160  1  0  0  0
 81161  1  0  0  0
 82162  1  0  0  0
 84163  1  0  0  0
M  ISO  4   1 100  68 101  82 101  84 100
M  END
> <chiral flag>
0

> <version>
0

> <s_m_source_file>
/data/baiqing/PycharmProjects/Reinvent-master-3.2/result/LINK_invent/BTK/process_docking_weight1_custom_sum_contain_oxygen_bond_distance_aromatic_linkinvent_7_9_3/rearranged_h_0095.sdf

> <i_m_source_file_index>
98

> <r_mmod_Potential_Energy-OPLS-2005>
63.4054832458496

> <r_mmod_Stretch_Energy-OPLS-2005>
115.026390075684

> <r_mmod_Bend_Energy-OPLS-2005>
175.712219238281

> <r_mmod_Torsional_Energy-OPLS-2005>
235.941970825195

> <r_mmod_Improper_Torsional_Energy-OPLS-2005>
5.16597127914429

> <r_mmod_Van_der_Waal_Energy-OPLS-2005>
106.020652770996

> <r_mmod_Electrostatic_Energy-OPLS-2005>
-449.328704833984

> <r_mmod_Solvation_Energy-OPLS-2005>
-204.731750488281

> <b_mmod_Minimization_Converged-OPLS-2005>
0

> <r_mmod_RMS_Derivative-OPLS-2005>
0.271709233522415

$$$$
