0
                    3D
 Structure written by MMmdl.
157166  0  0  1  0            999 V2000
  -30.6257  -14.7633   20.4736 C   0  0  0  0  0  0
  -30.4367  -12.4758   19.4738 C   0  0  0  0  0  0
  -29.5142  -12.5255   18.2350 C   0  0  0  0  0  0
  -28.0383  -12.3513   18.6435 C   0  0  0  0  0  0
  -27.6450  -13.2394   19.8547 C   0  0  2  0  0  0
  -28.6931  -13.1777   20.9884 C   0  0  0  0  0  0
  -25.2520  -13.8206   20.5693 C   0  0  0  0  0  0
  -24.1822  -13.0449   20.9208 C   0  0  0  0  0  0
  -24.6412  -11.6927   20.8749 C   0  0  0  0  0  0
  -23.9082  -10.4302   21.0410 C   0  0  0  0  0  0
  -24.3637   -9.4215   21.9187 C   0  0  0  0  0  0
  -23.6306   -8.2252   22.0752 C   0  0  0  0  0  0
  -22.4286   -8.0289   21.3543 C   0  0  0  0  0  0
  -21.9929   -9.0268   20.4651 C   0  0  0  0  0  0
  -22.7257  -10.2147   20.3057 C   0  0  0  0  0  0
  -21.6862   -6.0746   22.5277 C   0  0  0  0  0  0
  -21.4009   -6.5638   23.8211 C   0  0  0  0  0  0
  -21.3668   -5.6788   24.9171 C   0  0  0  0  0  0
  -21.6047   -4.3050   24.7216 C   0  0  0  0  0  0
  -21.8821   -3.8148   23.4338 C   0  0  0  0  0  0
  -21.9192   -4.6974   22.3397 C   0  0  0  0  0  0
  -22.7837  -13.5239   21.1857 C   0  0  0  0  0  0
  -22.1662   -4.2157   21.0978 F   0  0  0  0  0  0
  -21.5642   -3.4531   25.7731 F   0  0  0  0  0  0
  -29.9918  -13.5395   20.4058 N   0  0  0  0  0  0
  -26.2964  -12.9430   20.3307 N   0  0  0  0  0  0
  -25.9354  -11.6562   20.5752 N   0  0  0  0  0  0
  -22.0468  -12.8247   22.0410 N   0  0  0  0  0  0
  -25.4194  -15.1931   20.4082 N   0  0  0  0  0  0
  -31.8097  -14.8572   20.1416 O   0  0  0  0  0  0
  -21.6652   -6.8890   21.4236 O   0  0  0  0  0  0
  -22.3540  -14.5546   20.6686 O   0  0  0  0  0  0
  -24.6341  -31.8539   23.2010 C   0  0  0  0  0  0
  -25.9158  -32.4746   23.8348 C   0  0  1  0  0  0
  -27.2158  -27.2293   20.1166 C   0  0  0  0  0  0
  -25.5951  -33.8554   24.2262 N   0  0  0  0  0  0
  -23.4313  -30.4772   21.5482 C   0  0  2  0  0  0
  -24.8793  -28.9325   20.1078 C   0  0  0  0  0  0
  -22.7519  -29.4581   22.4957 C   0  0  0  0  0  0
  -18.0281  -28.1392   22.8480 C   0  0  0  0  0  0
  -24.1482  -36.7271   23.2627 C   0  0  0  0  0  0
  -25.9824  -30.7509   21.3915 C   0  0  0  0  0  0
  -26.0537  -29.3730   20.7312 C   0  0  0  0  0  0
  -27.2213  -28.5326   20.7332 C   0  0  0  0  0  0
  -26.0213  -26.8976   19.4265 C   0  0  0  0  0  0
  -24.8718  -27.7037   19.4412 C   0  0  0  0  0  0
  -23.6496  -29.8171   20.1629 C   0  0  0  0  0  0
  -25.4107  -36.3066   24.0322 C   0  0  1  0  0  0
  -20.5885  -28.3698   23.1283 C   0  0  2  0  0  0
  -20.6780  -26.9423   22.5407 C   0  0  0  0  0  0
  -19.5755  -26.6386   21.5217 C   0  0  0  0  0  0
  -18.1938  -26.7927   22.1628 C   0  0  0  0  0  0
  -19.1534  -28.8869   23.2866 C   0  0  0  0  0  0
  -18.9455  -30.1473   23.8876 C   0  0  0  0  0  0
  -17.6453  -30.6595   24.0562 C   0  0  0  0  0  0
  -25.9073  -34.9437   23.5096 C   0  0  0  0  0  0
  -16.5344  -29.9086   23.6338 C   0  0  0  0  0  0
  -16.7266  -28.6503   23.0359 C   0  0  0  0  0  0
  -26.4519  -31.6565   25.0732 C   0  0  0  0  0  0
  -25.3745  -31.3697   26.1447 C   0  0  0  0  0  0
  -27.0342  -30.2973   24.6215 C   0  0  0  0  0  0
  -27.6099  -32.4283   25.7489 C   0  0  0  0  0  0
  -27.5598  -37.1756   24.8434 C   0  0  0  0  0  0
  -21.4227  -29.3034   22.3684 N   0  0  0  0  0  0
  -26.4260  -37.3793   23.9451 N   0  0  0  0  0  0
  -24.7017  -31.0459   22.1020 N   0  0  0  0  0  0
  -23.4207  -28.8117   23.3067 O   0  0  0  0  0  0
  -28.2687  -26.2628   20.1988 O   0  0  0  0  0  0
  -26.5652  -34.8915   22.4670 O   0  0  0  0  0  0
  -23.5482  -32.1391   23.7284 O   0  0  0  0  0  0
  -28.4012  -22.2964   19.8177 C   0  0  0  0  0  0
  -29.8750  -23.4248   20.8831 C   0  0  0  0  0  0
  -29.3306  -21.3519   20.2836 C   0  0  0  0  0  0
  -29.2956  -18.6004   21.0307 C   0  0  0  0  0  0
  -30.7874  -17.8951   19.2704 C   0  0  0  0  0  0
  -29.4535  -19.7813   19.9652 C   0  0  2  0  0  0
  -30.2891  -17.3989   20.6453 C   0  0  2  0  0  0
  -30.8313  -19.9655   17.8979 C   0  0  0  0  0  0
  -27.9188  -24.8741   19.7981 C   0  0  0  0  0  0
  -30.2804  -22.1307   20.9718 N   0  0  0  0  0  0
  -28.7411  -23.6356   20.1839 N   0  0  0  0  0  0
  -29.8749  -15.9115   20.7078 N   0  0  0  0  0  0
  -30.6979  -19.3918   19.2559 N   0  3  2  0  0  0
  -31.4763  -12.6042   19.1691 H   0  0  0  0  0  0
  -30.3872  -11.4992   19.9570 H   0  0  0  0  0  0
  -29.8003  -11.7542   17.5193 H   0  0  0  0  0  0
  -29.6416  -13.4801   17.7205 H   0  0  0  0  0  0
  -27.8852  -11.2998   18.8886 H   0  0  0  0  0  0
  -27.3866  -12.5660   17.7961 H   0  0  0  0  0  0
  -27.6371  -14.2639   19.4820 H   0  0  0  0  0  0
  -28.7371  -12.1776   21.4231 H   0  0  0  0  0  0
  -28.4280  -13.8569   21.8000 H   0  0  0  0  0  0
  -25.2778   -9.5694   22.4774 H   0  0  0  0  0  0
  -24.0013   -7.4645   22.7469 H   0  0  0  0  0  0
  -21.0859   -8.8790   19.8966 H   0  0  0  0  0  0
  -22.3705  -10.9696   19.6175 H   0  0  0  0  0  0
  -21.1992   -7.6145   23.9721 H   0  0  0  0  0  0
  -21.1494   -6.0513   25.9077 H   0  0  0  0  0  0
  -22.0596   -2.7608   23.2831 H   0  0  0  0  0  0
  -22.4048  -11.9895   22.4802 H   0  0  0  0  0  0
  -21.1090  -13.1302   22.2600 H   0  0  0  0  0  0
  -24.6467  -15.8421   20.5041 H   0  0  0  0  0  0
  -26.2558  -15.6268   20.0406 H   0  0  0  0  0  0
  -26.7203  -32.5390   23.1069 H   0  0  0  0  0  0
  -25.0070  -33.9685   25.0386 H   0  0  0  0  0  0
  -22.7265  -31.2998   21.4061 H   0  0  0  0  0  0
  -23.3803  -35.9537   23.3163 H   0  0  0  0  0  0
  -24.3612  -36.9035   22.2072 H   0  0  0  0  0  0
  -23.7140  -37.6387   23.6741 H   0  0  0  0  0  0
  -26.1232  -31.5075   20.6192 H   0  0  0  0  0  0
  -26.8596  -30.8022   22.0241 H   0  0  0  0  0  0
  -28.1104  -28.8587   21.2538 H   0  0  0  0  0  0
  -25.9194  -25.9831   18.8641 H   0  0  0  0  0  0
  -23.9835  -27.3693   18.9223 H   0  0  0  0  0  0
  -23.7678  -30.5946   19.4078 H   0  0  0  0  0  0
  -22.7686  -29.2470   19.8616 H   0  0  0  0  0  0
  -25.1271  -36.1889   25.0809 H   0  0  0  0  0  0
  -20.9940  -28.3264   24.1421 H   0  0  0  0  0  0
  -20.5710  -26.2304   23.3607 H   0  0  0  0  0  0
  -21.6648  -26.7485   22.1179 H   0  0  0  0  0  0
  -19.6924  -25.6295   21.1260 H   0  0  0  0  0  0
  -19.6689  -27.3192   20.6744 H   0  0  0  0  0  0
  -17.4202  -26.6652   21.4040 H   0  0  0  0  0  0
  -18.0357  -26.0080   22.9040 H   0  0  0  0  0  0
  -19.7931  -30.7300   24.2232 H   0  0  0  0  0  0
  -17.5006  -31.6279   24.5161 H   0  0  0  0  0  0
  -15.5344  -30.2986   23.7684 H   0  0  0  0  0  0
  -15.8659  -28.0822   22.7090 H   0  0  0  0  0  0
  -24.5876  -30.7121   25.7726 H   0  0  0  0  0  0
  -24.8999  -32.2860   26.4967 H   0  0  0  0  0  0
  -25.8047  -30.8750   27.0163 H   0  0  0  0  0  0
  -26.2894  -29.6729   24.1256 H   0  0  0  0  0  0
  -27.4024  -29.7228   25.4726 H   0  0  0  0  0  0
  -27.8797  -30.4231   23.9448 H   0  0  0  0  0  0
  -27.2751  -33.3619   26.2023 H   0  0  0  0  0  0
  -28.3931  -32.6769   25.0312 H   0  0  0  0  0  0
  -28.0732  -31.8410   26.5430 H   0  0  0  0  0  0
  -28.2485  -38.0184   24.7702 H   0  0  0  0  0  0
  -28.1222  -36.2741   24.5966 H   0  0  0  0  0  0
  -27.2363  -37.1038   25.8832 H   0  0  0  0  0  0
  -20.9436  -29.8724   21.6844 H   0  0  0  0  0  0
  -26.0124  -38.2825   24.1598 H   0  0  0  0  0  0
  -27.5219  -22.1230   19.2134 H   0  0  0  0  0  0
  -30.4295  -24.2404   21.3273 H   0  0  0  0  0  0
  -28.2578  -18.2695   21.0686 H   0  0  0  0  0  0
  -29.5431  -18.9654   22.0279 H   0  0  0  0  0  0
  -30.1543  -17.4850   18.4830 H   0  0  0  0  0  0
  -31.8080  -17.5660   19.0695 H   0  0  0  0  0  0
  -28.6560  -19.5772   19.2487 H   0  0  0  0  0  0
  -31.1372  -17.4830   21.3269 H   0  0  0  0  0  0
  -31.7784  -19.6648   17.4487 H   0  0  0  0  0  0
  -30.8087  -21.0549   17.9214 H   0  0  0  0  0  0
  -30.0285  -19.6247   17.2425 H   0  0  0  0  0  0
  -26.9318  -24.6419   20.1992 H   0  0  0  0  0  0
  -27.8584  -24.8598   18.7083 H   0  0  0  0  0  0
  -28.9090  -15.7390   20.9444 H   0  0  0  0  0  0
  -31.4556  -19.7552   19.8141 H   0  0  0  0  0  0
  1 25  1  0  0  0
  1 30  2  0  0  0
  1 82  1  0  0  0
  2  3  1  0  0  0
  2 25  1  0  0  0
  2 84  1  0  0  0
  2 85  1  0  0  0
  3  4  1  0  0  0
  3 86  1  0  0  0
  3 87  1  0  0  0
  4  5  1  0  0  0
  4 88  1  0  0  0
  4 89  1  0  0  0
  5  6  1  0  0  0
  5 26  1  0  0  0
  5 90  1  0  0  0
  6 25  1  0  0  0
  6 91  1  0  0  0
  6 92  1  0  0  0
  7  8  2  0  0  0
  7 26  1  0  0  0
  7 29  1  0  0  0
  8  9  1  0  0  0
  8 22  1  0  0  0
  9 10  1  0  0  0
  9 27  2  0  0  0
 10 11  2  0  0  0
 10 15  1  0  0  0
 11 12  1  0  0  0
 11 93  1  0  0  0
 12 13  2  0  0  0
 12 94  1  0  0  0
 13 14  1  0  0  0
 13 31  1  0  0  0
 14 15  2  0  0  0
 14 95  1  0  0  0
 15 96  1  0  0  0
 16 17  2  0  0  0
 16 21  1  0  0  0
 16 31  1  0  0  0
 17 18  1  0  0  0
 17 97  1  0  0  0
 18 19  2  0  0  0
 18 98  1  0  0  0
 19 20  1  0  0  0
 19 24  1  0  0  0
 20 21  2  0  0  0
 20 99  1  0  0  0
 21 23  1  0  0  0
 22 28  1  0  0  0
 22 32  2  0  0  0
 26 27  1  0  0  0
 28100  1  0  0  0
 28101  1  0  0  0
 29102  1  0  0  0
 29103  1  0  0  0
 33 34  1  0  0  0
 33 66  1  0  0  0
 33 70  2  0  0  0
 34 36  1  0  0  0
 34 59  1  0  0  0
 34104  1  0  0  0
 35 44  2  0  0  0
 35 45  1  0  0  0
 35 68  1  0  0  0
 36 56  1  0  0  0
 36105  1  0  0  0
 37 39  1  0  0  0
 37 47  1  0  0  0
 37 66  1  0  0  0
 37106  1  0  0  0
 38 43  2  0  0  0
 38 46  1  0  0  0
 38 47  1  0  0  0
 39 64  1  0  0  0
 39 67  2  0  0  0
 40 52  1  0  0  0
 40 53  2  0  0  0
 40 58  1  0  0  0
 41107  1  0  0  0
 41108  1  0  0  0
 41109  1  0  0  0
 41 48  1  0  0  0
 42 43  1  0  0  0
 42 66  1  0  0  0
 42110  1  0  0  0
 42111  1  0  0  0
 43 44  1  0  0  0
 44112  1  0  0  0
 45 46  2  0  0  0
 45113  1  0  0  0
 46114  1  0  0  0
 47115  1  0  0  0
 47116  1  0  0  0
 48 56  1  0  0  0
 48 65  1  0  0  0
 48117  1  0  0  0
 49 50  1  0  0  0
 49 53  1  0  0  0
 49 64  1  0  0  0
 49118  1  0  0  0
 50 51  1  0  0  0
 50119  1  0  0  0
 50120  1  0  0  0
 51 52  1  0  0  0
 51121  1  0  0  0
 51122  1  0  0  0
 52123  1  0  0  0
 52124  1  0  0  0
 53 54  1  0  0  0
 54 55  2  0  0  0
 54125  1  0  0  0
 55 57  1  0  0  0
 55126  1  0  0  0
 56 69  2  0  0  0
 57 58  2  0  0  0
 57127  1  0  0  0
 58128  1  0  0  0
 59 60  1  0  0  0
 59 61  1  0  0  0
 59 62  1  0  0  0
 60129  1  0  0  0
 60130  1  0  0  0
 60131  1  0  0  0
 61132  1  0  0  0
 61133  1  0  0  0
 61134  1  0  0  0
 62135  1  0  0  0
 62136  1  0  0  0
 62137  1  0  0  0
 63 65  1  0  0  0
 63138  1  0  0  0
 63139  1  0  0  0
 63140  1  0  0  0
 64141  1  0  0  0
 65142  1  0  0  0
 68 79  1  0  0  0
 71 73  2  0  0  0
 71 81  1  0  0  0
 71143  1  0  0  0
 72 80  2  0  0  0
 72 81  1  0  0  0
 72144  1  0  0  0
 73 80  1  0  0  0
 73 76  1  0  0  0
 74 76  1  0  0  0
 74 77  1  0  0  0
 74145  1  0  0  0
 74146  1  0  0  0
 75 77  1  0  0  0
 75 83  1  0  0  0
 75147  1  0  0  0
 75148  1  0  0  0
 76 83  1  0  0  0
 76149  1  0  0  0
 77 82  1  0  0  0
 77150  1  0  0  0
 78151  1  0  0  0
 78152  1  0  0  0
 78153  1  0  0  0
 78 83  1  0  0  0
 79 81  1  0  0  0
 79154  1  0  0  0
 79155  1  0  0  0
 82156  1  0  0  0
 83157  1  0  0  0
M  CHG  1  83   1
M  ISO  4   1 100  68 101  79 101  82 100
M  END
> <chiral flag>
0

> <version>
0

> <s_m_source_file>
/data/baiqing/PycharmProjects/Reinvent-master-3.2/result/LINK_invent/BTK/process_docking_weight1_custom_sum_contain_oxygen_bond_distance_aromatic_linkinvent_7_9_3/rearranged_h_0184.sdf

> <i_m_source_file_index>
1

> <r_mmod_Potential_Energy-OPLS-2005>
49.5957374572754

> <r_mmod_Stretch_Energy-OPLS-2005>
134.068939208984

> <r_mmod_Bend_Energy-OPLS-2005>
234.384338378906

> <r_mmod_Torsional_Energy-OPLS-2005>
245.672439575195

> <r_mmod_Improper_Torsional_Energy-OPLS-2005>
5.67692852020264

> <r_mmod_Van_der_Waal_Energy-OPLS-2005>
121.373916625977

> <r_mmod_Electrostatic_Energy-OPLS-2005>
-330.0986328125

> <r_mmod_Solvation_Energy-OPLS-2005>
-465.94091796875

> <b_mmod_Minimization_Converged-OPLS-2005>
0

> <r_mmod_RMS_Derivative-OPLS-2005>
1.95149552822113

$$$$
1
                    3D
 Structure written by MMmdl.
162171  0  0  1  0            999 V2000
  -30.6969  -14.4823   20.5682 C   0  0  0  0  0  0
  -30.4221  -12.3107   19.4255 C   0  0  0  0  0  0
  -29.4969  -12.5027   18.2067 C   0  0  0  0  0  0
  -28.0167  -12.3642   18.6184 C   0  0  0  0  0  0
  -27.6602  -13.2084   19.8728 C   0  0  2  0  0  0
  -28.7016  -13.0038   20.9956 C   0  0  0  0  0  0
  -25.2589  -13.8164   20.5687 C   0  0  0  0  0  0
  -24.1832  -13.0444   20.9171 C   0  0  0  0  0  0
  -24.6387  -11.6910   20.8726 C   0  0  0  0  0  0
  -23.9054  -10.4295   21.0399 C   0  0  0  0  0  0
  -24.3611   -9.4214   21.9175 C   0  0  0  0  0  0
  -23.6296   -8.2245   22.0751 C   0  0  0  0  0  0
  -22.4275   -8.0278   21.3546 C   0  0  0  0  0  0
  -21.9902   -9.0247   20.4647 C   0  0  0  0  0  0
  -22.7225  -10.2131   20.3052 C   0  0  0  0  0  0
  -21.6854   -6.0735   22.5284 C   0  0  0  0  0  0
  -21.4009   -6.5641   23.8214 C   0  0  0  0  0  0
  -21.3658   -5.6796   24.9178 C   0  0  0  0  0  0
  -21.6045   -4.3057   24.7226 C   0  0  0  0  0  0
  -21.8818   -3.8145   23.4347 C   0  0  0  0  0  0
  -21.9192   -4.6962   22.3407 C   0  0  0  0  0  0
  -22.7859  -13.5247   21.1841 C   0  0  0  0  0  0
  -22.1665   -4.2149   21.0984 F   0  0  0  0  0  0
  -21.5633   -3.4538   25.7740 F   0  0  0  0  0  0
  -30.0287  -13.3041   20.4368 N   0  0  0  0  0  0
  -26.3020  -12.9334   20.3356 N   0  0  0  0  0  0
  -25.9314  -11.6493   20.5754 N   0  0  0  0  0  0
  -22.0489  -12.8243   22.0393 N   0  0  0  0  0  0
  -25.4343  -15.1880   20.4117 N   0  0  0  0  0  0
  -31.8375  -14.6545   20.1260 O   0  0  0  0  0  0
  -21.6642   -6.8874   21.4244 O   0  0  0  0  0  0
  -22.3548  -14.5552   20.6691 O   0  0  0  0  0  0
  -24.6149  -31.8670   23.2093 C   0  0  0  0  0  0
  -25.9046  -32.4817   23.8385 C   0  0  1  0  0  0
  -27.2377  -27.4248   20.0820 C   0  0  0  0  0  0
  -25.5902  -33.8616   24.2313 N   0  0  0  0  0  0
  -23.4028  -30.4912   21.5501 C   0  0  2  0  0  0
  -24.8474  -28.9546   20.1150 C   0  0  0  0  0  0
  -22.7406  -29.4658   22.4990 C   0  0  0  0  0  0
  -18.0268  -28.1377   22.8492 C   0  0  0  0  0  0
  -24.1486  -36.7314   23.2641 C   0  0  0  0  0  0
  -25.9331  -30.8270   21.3651 C   0  0  0  0  0  0
  -26.0075  -29.4604   20.7119 C   0  0  0  0  0  0
  -27.1994  -28.6994   20.6982 C   0  0  0  0  0  0
  -26.0458  -26.9256   19.5032 C   0  0  0  0  0  0
  -24.8609  -27.6854   19.5129 C   0  0  0  0  0  0
  -23.6102  -29.8226   20.1649 C   0  0  0  0  0  0
  -25.4104  -36.3106   24.0336 C   0  0  1  0  0  0
  -20.5860  -28.3658   23.1334 C   0  0  2  0  0  0
  -20.6755  -26.9391   22.5437 C   0  0  0  0  0  0
  -19.5747  -26.6384   21.5220 C   0  0  0  0  0  0
  -18.1914  -26.7933   22.1610 C   0  0  0  0  0  0
  -19.1517  -28.8832   23.2912 C   0  0  0  0  0  0
  -18.9443  -30.1437   23.8921 C   0  0  0  0  0  0
  -17.6447  -30.6584   24.0565 C   0  0  0  0  0  0
  -25.9032  -34.9473   23.5116 C   0  0  0  0  0  0
  -16.5336  -29.9086   23.6332 C   0  0  0  0  0  0
  -16.7256  -28.6503   23.0349 C   0  0  0  0  0  0
  -26.4466  -31.6608   25.0724 C   0  0  0  0  0  0
  -25.3736  -31.3747   26.1484 C   0  0  0  0  0  0
  -27.0284  -30.3035   24.6128 C   0  0  0  0  0  0
  -27.6047  -32.4327   25.7474 C   0  0  0  0  0  0
  -27.5587  -37.1802   24.8450 C   0  0  0  0  0  0
  -21.4133  -29.3026   22.3734 N   0  0  0  0  0  0
  -26.4289  -37.3794   23.9410 N   0  0  0  0  0  0
  -24.6686  -31.0763   22.0998 N   0  0  0  0  0  0
  -23.4175  -28.8205   23.3038 O   0  0  0  0  0  0
  -28.4318  -26.7231   20.1003 O   0  0  0  0  0  0
  -26.5596  -34.8932   22.4678 O   0  0  0  0  0  0
  -23.5343  -32.1427   23.7490 O   0  0  0  0  0  0
  -29.2954  -22.5294   20.8941 C   0  0  0  0  0  0
  -29.7884  -23.7395   20.4714 C   0  0  0  0  0  0
  -30.2830  -16.2478   22.2390 C   0  0  0  0  0  0
  -29.9944  -16.8391   20.2981 C   0  0  0  0  0  0
  -29.6605  -17.5118   21.6285 C   0  0  0  0  0  0
  -31.1563  -24.3406   20.5527 C   0  0  0  0  0  0
  -30.2705  -19.0630   23.5475 C   0  0  0  0  0  0
  -30.0116  -21.4076   21.6246 C   0  0  0  0  0  0
  -28.6453  -25.6655   19.1912 C   0  0  0  0  0  0
  -30.2086  -18.9158   22.0095 C   0  0  2  0  0  0
  -27.9357  -22.4876   20.5697 N   0  0  0  0  0  0
  -27.5945  -23.5953   19.9744 N   0  0  0  0  0  0
  -28.7001  -24.3779   19.8931 N   0  0  0  0  0  0
  -29.9540  -15.5337   20.9953 N   0  0  0  0  0  0
  -29.4561  -20.0480   21.3746 N   0  3  0  0  0  0
  -31.4678  -12.4064   19.1277 H   0  0  0  0  0  0
  -30.3192  -11.3028   19.8307 H   0  0  0  0  0  0
  -29.7393  -11.7752   17.4308 H   0  0  0  0  0  0
  -29.6655  -13.4870   17.7656 H   0  0  0  0  0  0
  -27.8255  -11.3089   18.8160 H   0  0  0  0  0  0
  -27.3676  -12.6382   17.7858 H   0  0  0  0  0  0
  -27.7014  -14.2553   19.5700 H   0  0  0  0  0  0
  -28.6782  -11.9752   21.3581 H   0  0  0  0  0  0
  -28.4684  -13.6292   21.8589 H   0  0  0  0  0  0
  -25.2754   -9.5701   22.4748 H   0  0  0  0  0  0
  -24.0014   -7.4635   22.7466 H   0  0  0  0  0  0
  -21.0830   -8.8755   19.8958 H   0  0  0  0  0  0
  -22.3670  -10.9664   19.6161 H   0  0  0  0  0  0
  -21.1994   -7.6149   23.9717 H   0  0  0  0  0  0
  -21.1488   -6.0524   25.9081 H   0  0  0  0  0  0
  -22.0597   -2.7608   23.2842 H   0  0  0  0  0  0
  -22.4095  -11.9900   22.4782 H   0  0  0  0  0  0
  -21.1103  -13.1270   22.2583 H   0  0  0  0  0  0
  -24.6758  -15.8511   20.5282 H   0  0  0  0  0  0
  -26.3038  -15.6230   20.1291 H   0  0  0  0  0  0
  -26.7116  -32.5517   23.1148 H   0  0  0  0  0  0
  -25.0055  -33.9774   25.0458 H   0  0  0  0  0  0
  -22.6923  -31.3086   21.4115 H   0  0  0  0  0  0
  -23.3753  -35.9641   23.3284 H   0  0  0  0  0  0
  -24.3589  -36.8944   22.2059 H   0  0  0  0  0  0
  -23.7231  -37.6512   23.6659 H   0  0  0  0  0  0
  -26.0503  -31.5937   20.5980 H   0  0  0  0  0  0
  -26.8196  -30.8768   21.9859 H   0  0  0  0  0  0
  -28.0953  -29.0904   21.1600 H   0  0  0  0  0  0
  -25.9951  -25.9446   19.0565 H   0  0  0  0  0  0
  -23.9639  -27.2845   19.0612 H   0  0  0  0  0  0
  -23.7162  -30.5962   19.4037 H   0  0  0  0  0  0
  -22.7339  -29.2417   19.8715 H   0  0  0  0  0  0
  -25.1283  -36.1965   25.0832 H   0  0  0  0  0  0
  -20.9951  -28.3217   24.1454 H   0  0  0  0  0  0
  -20.5642  -26.2261   23.3618 H   0  0  0  0  0  0
  -21.6628  -26.7427   22.1240 H   0  0  0  0  0  0
  -19.6902  -25.6297   21.1241 H   0  0  0  0  0  0
  -19.6709  -27.3201   20.6759 H   0  0  0  0  0  0
  -17.4202  -26.6706   21.3991 H   0  0  0  0  0  0
  -18.0286  -26.0061   22.8986 H   0  0  0  0  0  0
  -19.7919  -30.7247   24.2300 H   0  0  0  0  0  0
  -17.5002  -31.6269   24.5154 H   0  0  0  0  0  0
  -15.5336  -30.2986   23.7656 H   0  0  0  0  0  0
  -15.8656  -28.0834   22.7045 H   0  0  0  0  0  0
  -24.5904  -30.7085   25.7849 H   0  0  0  0  0  0
  -24.8936  -32.2919   26.4907 H   0  0  0  0  0  0
  -25.8096  -30.8950   27.0257 H   0  0  0  0  0  0
  -26.2828  -29.6811   24.1167 H   0  0  0  0  0  0
  -27.4010  -29.7266   25.4605 H   0  0  0  0  0  0
  -27.8686  -30.4327   23.9302 H   0  0  0  0  0  0
  -27.2667  -33.3618   26.2075 H   0  0  0  0  0  0
  -28.3837  -32.6904   25.0286 H   0  0  0  0  0  0
  -28.0738  -31.8443   26.5371 H   0  0  0  0  0  0
  -28.2591  -38.0114   24.7514 H   0  0  0  0  0  0
  -28.1091  -36.2647   24.6229 H   0  0  0  0  0  0
  -27.2320  -37.1403   25.8859 H   0  0  0  0  0  0
  -20.9281  -29.8747   21.6967 H   0  0  0  0  0  0
  -26.0176  -38.2868   24.1428 H   0  0  0  0  0  0
  -29.7558  -15.8878   23.1236 H   0  0  0  0  0  0
  -31.3553  -16.3362   22.4346 H   0  0  0  0  0  0
  -30.9759  -17.1173   19.9051 H   0  0  0  0  0  0
  -29.2223  -16.9716   19.5386 H   0  0  0  0  0  0
  -28.5803  -17.4663   21.7917 H   0  0  0  0  0  0
  -31.7943  -23.7897   21.2435 H   0  0  0  0  0  0
  -31.1098  -25.3722   20.9037 H   0  0  0  0  0  0
  -31.6408  -24.3384   19.5763 H   0  0  0  0  0  0
  -30.7883  -18.2216   24.0075 H   0  0  0  0  0  0
  -29.2742  -19.1114   23.9880 H   0  0  0  0  0  0
  -30.8224  -19.9490   23.8592 H   0  0  0  0  0  0
  -29.9780  -21.6274   22.6910 H   0  0  0  0  0  0
  -31.0667  -21.4062   21.3489 H   0  0  0  0  0  0
  -27.9438  -25.6074   18.3605 H   0  0  0  0  0  0
  -29.6206  -25.8296   18.7330 H   0  0  0  0  0  0
  -31.2347  -18.9803   21.6425 H   0  0  0  0  0  0
  -29.4474  -19.9241   20.3758 H   0  0  0  0  0  0
  -28.4963  -20.0539   21.6793 H   0  0  0  0  0  0
  1 25  1  0  0  0
  1 30  2  0  0  0
  1 84  1  0  0  0
  2  3  1  0  0  0
  2 25  1  0  0  0
  2 86  1  0  0  0
  2 87  1  0  0  0
  3  4  1  0  0  0
  3 88  1  0  0  0
  3 89  1  0  0  0
  4  5  1  0  0  0
  4 90  1  0  0  0
  4 91  1  0  0  0
  5  6  1  0  0  0
  5 26  1  0  0  0
  5 92  1  0  0  0
  6 25  1  0  0  0
  6 93  1  0  0  0
  6 94  1  0  0  0
  7  8  2  0  0  0
  7 26  1  0  0  0
  7 29  1  0  0  0
  8  9  1  0  0  0
  8 22  1  0  0  0
  9 10  1  0  0  0
  9 27  2  0  0  0
 10 11  2  0  0  0
 10 15  1  0  0  0
 11 12  1  0  0  0
 11 95  1  0  0  0
 12 13  2  0  0  0
 12 96  1  0  0  0
 13 14  1  0  0  0
 13 31  1  0  0  0
 14 15  2  0  0  0
 14 97  1  0  0  0
 15 98  1  0  0  0
 16 17  2  0  0  0
 16 21  1  0  0  0
 16 31  1  0  0  0
 17 18  1  0  0  0
 17 99  1  0  0  0
 18 19  2  0  0  0
 18100  1  0  0  0
 19 20  1  0  0  0
 19 24  1  0  0  0
 20 21  2  0  0  0
 20101  1  0  0  0
 21 23  1  0  0  0
 22 28  1  0  0  0
 22 32  2  0  0  0
 26 27  1  0  0  0
 28102  1  0  0  0
 28103  1  0  0  0
 29104  1  0  0  0
 29105  1  0  0  0
 33 34  1  0  0  0
 33 66  1  0  0  0
 33 70  2  0  0  0
 34 36  1  0  0  0
 34 59  1  0  0  0
 34106  1  0  0  0
 35 44  2  0  0  0
 35 45  1  0  0  0
 35 68  1  0  0  0
 36 56  1  0  0  0
 36107  1  0  0  0
 37 39  1  0  0  0
 37 47  1  0  0  0
 37 66  1  0  0  0
 37108  1  0  0  0
 38 43  2  0  0  0
 38 46  1  0  0  0
 38 47  1  0  0  0
 39 64  1  0  0  0
 39 67  2  0  0  0
 40 52  1  0  0  0
 40 53  2  0  0  0
 40 58  1  0  0  0
 41109  1  0  0  0
 41110  1  0  0  0
 41111  1  0  0  0
 41 48  1  0  0  0
 42 43  1  0  0  0
 42 66  1  0  0  0
 42112  1  0  0  0
 42113  1  0  0  0
 43 44  1  0  0  0
 44114  1  0  0  0
 45 46  2  0  0  0
 45115  1  0  0  0
 46116  1  0  0  0
 47117  1  0  0  0
 47118  1  0  0  0
 48 56  1  0  0  0
 48 65  1  0  0  0
 48119  1  0  0  0
 49 50  1  0  0  0
 49 53  1  0  0  0
 49 64  1  0  0  0
 49120  1  0  0  0
 50 51  1  0  0  0
 50121  1  0  0  0
 50122  1  0  0  0
 51 52  1  0  0  0
 51123  1  0  0  0
 51124  1  0  0  0
 52125  1  0  0  0
 52126  1  0  0  0
 53 54  1  0  0  0
 54 55  2  0  0  0
 54127  1  0  0  0
 55 57  1  0  0  0
 55128  1  0  0  0
 56 69  2  0  0  0
 57 58  2  0  0  0
 57129  1  0  0  0
 58130  1  0  0  0
 59 60  1  0  0  0
 59 61  1  0  0  0
 59 62  1  0  0  0
 60131  1  0  0  0
 60132  1  0  0  0
 60133  1  0  0  0
 61134  1  0  0  0
 61135  1  0  0  0
 61136  1  0  0  0
 62137  1  0  0  0
 62138  1  0  0  0
 62139  1  0  0  0
 63 65  1  0  0  0
 63140  1  0  0  0
 63141  1  0  0  0
 63142  1  0  0  0
 64143  1  0  0  0
 65144  1  0  0  0
 68 79  1  0  0  0
 71 72  2  0  0  0
 71 78  1  0  0  0
 71 81  1  0  0  0
 72 76  1  0  0  0
 72 83  1  0  0  0
 73 84  1  0  0  0
 73145  1  0  0  0
 73146  1  0  0  0
 73 75  1  0  0  0
 74 75  1  0  0  0
 74 84  1  0  0  0
 74147  1  0  0  0
 74148  1  0  0  0
 75 80  1  0  0  0
 75149  1  0  0  0
 76150  1  0  0  0
 76151  1  0  0  0
 76152  1  0  0  0
 77153  1  0  0  0
 77154  1  0  0  0
 77155  1  0  0  0
 77 80  1  0  0  0
 78 85  1  0  0  0
 78156  1  0  0  0
 78157  1  0  0  0
 79 83  1  0  0  0
 79158  1  0  0  0
 79159  1  0  0  0
 80 85  1  0  0  0
 80160  1  0  0  0
 81 82  2  0  0  0
 82 83  1  0  0  0
 85161  1  0  0  0
 85162  1  0  0  0
M  CHG  1  85   1
M  ISO  4   1 100  68 101  79 101  84 100
M  END
> <chiral flag>
0

> <version>
0

> <s_m_source_file>
/data/baiqing/PycharmProjects/Reinvent-master-3.2/result/LINK_invent/BTK/process_docking_weight1_custom_sum_contain_oxygen_bond_distance_aromatic_linkinvent_7_9_3/rearranged_h_0184.sdf

> <i_m_source_file_index>
2

> <r_mmod_Potential_Energy-OPLS-2005>
-175.687713623047

> <r_mmod_Stretch_Energy-OPLS-2005>
40.5629730224609

> <r_mmod_Bend_Energy-OPLS-2005>
111.955337524414

> <r_mmod_Torsional_Energy-OPLS-2005>
274.024627685547

> <r_mmod_Improper_Torsional_Energy-OPLS-2005>
12.7682476043701

> <r_mmod_Van_der_Waal_Energy-OPLS-2005>
127.371017456055

> <r_mmod_Electrostatic_Energy-OPLS-2005>
-300.067718505859

> <r_mmod_Solvation_Energy-OPLS-2005>
-456.794067382812

> <b_mmod_Minimization_Converged-OPLS-2005>
0

> <r_mmod_RMS_Derivative-OPLS-2005>
1.04246115684509

$$$$
2
                    3D
 Structure written by MMmdl.
173182  0  0  1  0            999 V2000
  -30.7453  -14.4911   20.5894 C   0  0  0  0  0  0
  -30.4135  -12.3200   19.4494 C   0  0  0  0  0  0
  -29.5036  -12.5035   18.2189 C   0  0  0  0  0  0
  -28.0257  -12.3490   18.6283 C   0  0  0  0  0  0
  -27.6603  -13.2113   19.8670 C   0  0  2  0  0  0
  -28.6982  -13.0453   21.0006 C   0  0  0  0  0  0
  -25.2602  -13.8169   20.5681 C   0  0  0  0  0  0
  -24.1854  -13.0433   20.9153 C   0  0  0  0  0  0
  -24.6406  -11.6904   20.8707 C   0  0  0  0  0  0
  -23.9066  -10.4279   21.0392 C   0  0  0  0  0  0
  -24.3616   -9.4198   21.9171 C   0  0  0  0  0  0
  -23.6288   -8.2245   22.0740 C   0  0  0  0  0  0
  -22.4265   -8.0283   21.3557 C   0  0  0  0  0  0
  -21.9916   -9.0248   20.4649 C   0  0  0  0  0  0
  -22.7238  -10.2128   20.3046 C   0  0  0  0  0  0
  -21.6857   -6.0747   22.5274 C   0  0  0  0  0  0
  -21.4022   -6.5640   23.8210 C   0  0  0  0  0  0
  -21.3663   -5.6789   24.9167 C   0  0  0  0  0  0
  -21.6041   -4.3053   24.7217 C   0  0  0  0  0  0
  -21.8811   -3.8152   23.4331 C   0  0  0  0  0  0
  -21.9192   -4.6978   22.3395 C   0  0  0  0  0  0
  -22.7876  -13.5245   21.1843 C   0  0  0  0  0  0
  -22.1654   -4.2149   21.0980 F   0  0  0  0  0  0
  -21.5633   -3.4538   25.7735 F   0  0  0  0  0  0
  -30.0326  -13.3352   20.4470 N   0  0  0  0  0  0
  -26.3027  -12.9345   20.3345 N   0  0  0  0  0  0
  -25.9332  -11.6490   20.5699 N   0  0  0  0  0  0
  -22.0511  -12.8236   22.0387 N   0  0  0  0  0  0
  -25.4368  -15.1879   20.4161 N   0  0  0  0  0  0
  -31.8532  -14.6502   20.0732 O   0  0  0  0  0  0
  -21.6640   -6.8887   21.4236 O   0  0  0  0  0  0
  -22.3582  -14.5553   20.6661 O   0  0  0  0  0  0
  -24.6210  -31.8670   23.2135 C   0  0  0  0  0  0
  -25.9095  -32.4818   23.8427 C   0  0  1  0  0  0
  -27.2254  -27.3762   20.0937 C   0  0  0  0  0  0
  -25.5939  -33.8624   24.2333 N   0  0  0  0  0  0
  -23.4126  -30.4931   21.5586 C   0  0  2  0  0  0
  -24.8554  -28.9517   20.1270 C   0  0  0  0  0  0
  -22.7455  -29.4671   22.5017 C   0  0  0  0  0  0
  -18.0345  -28.1368   22.8469 C   0  0  0  0  0  0
  -24.1484  -36.7290   23.2639 C   0  0  0  0  0  0
  -25.9536  -30.8033   21.3853 C   0  0  0  0  0  0
  -26.0245  -29.4359   20.7306 C   0  0  0  0  0  0
  -27.2124  -28.6553   20.7163 C   0  0  0  0  0  0
  -26.0551  -26.9630   19.4379 C   0  0  0  0  0  0
  -24.8659  -27.7098   19.4768 C   0  0  0  0  0  0
  -23.6247  -29.8311   20.1743 C   0  0  0  0  0  0
  -25.4108  -36.3108   24.0345 C   0  0  1  0  0  0
  -20.5911  -28.3669   23.1331 C   0  0  2  0  0  0
  -20.6802  -26.9369   22.5539 C   0  0  0  0  0  0
  -19.5918  -26.6394   21.5194 C   0  0  0  0  0  0
  -18.2019  -26.7981   22.1449 C   0  0  0  0  0  0
  -19.1570  -28.8823   23.2935 C   0  0  0  0  0  0
  -18.9488  -30.1409   23.8972 C   0  0  0  0  0  0
  -17.6471  -30.6525   24.0596 C   0  0  0  0  0  0
  -25.9039  -34.9481   23.5120 C   0  0  0  0  0  0
  -16.5376  -29.9030   23.6293 C   0  0  0  0  0  0
  -16.7325  -28.6472   23.0291 C   0  0  0  0  0  0
  -26.4512  -31.6637   25.0781 C   0  0  0  0  0  0
  -25.3766  -31.3772   26.1529 C   0  0  0  0  0  0
  -27.0368  -30.3064   24.6247 C   0  0  0  0  0  0
  -27.6084  -32.4375   25.7522 C   0  0  0  0  0  0
  -27.5596  -37.1791   24.8469 C   0  0  0  0  0  0
  -21.4183  -29.3006   22.3698 N   0  0  0  0  0  0
  -26.4281  -37.3789   23.9422 N   0  0  0  0  0  0
  -24.6813  -31.0682   22.1092 N   0  0  0  0  0  0
  -23.4189  -28.8223   23.3101 O   0  0  0  0  0  0
  -28.3597  -26.5770   20.0199 O   0  0  0  0  0  0
  -26.5607  -34.8898   22.4683 O   0  0  0  0  0  0
  -23.5384  -32.1507   23.7478 O   0  0  0  0  0  0
  -29.2517  -21.7064   20.6579 C   0  0  0  0  0  0
  -28.1312  -22.5925   20.6420 C   0  0  0  0  0  0
  -26.9221  -22.1363   21.1671 C   0  0  0  0  0  0
  -26.8779  -20.8877   21.8334 C   0  0  0  0  0  0
  -29.0967  -20.4131   21.2426 C   0  0  0  0  0  0
  -27.9200  -23.9365   19.9064 C   0  0  2  0  0  0
  -25.7904  -23.0826   20.7832 C   0  0  0  0  0  0
  -25.6593  -20.3307   22.5401 C   0  0  0  0  0  0
  -24.4777  -22.3606   20.3852 C   0  0  0  0  0  0
  -25.4150  -24.0002   21.9673 C   0  0  0  0  0  0
  -24.8706  -23.9517   17.5822 C   0  0  0  0  0  0
  -28.3580  -25.2624   20.6762 C   0  0  0  0  0  0
  -29.6540  -17.9985   20.9989 C   0  0  0  0  0  0
  -30.6646  -16.8844   21.4304 C   0  0  0  0  0  0
  -26.1490  -23.3939   18.2557 C   0  0  0  0  0  0
  -27.9498  -20.0668   21.8636 N   0  0  0  0  0  0
  -30.0895  -19.4033   21.1910 N   0  0  0  0  0  0
  -30.1307  -15.5120   21.2295 N   0  0  0  0  0  0
  -26.4342  -23.8740   19.6577 N   0  3  2  0  0  0
  -31.4663  -12.3798   19.1705 H   0  0  0  0  0  0
  -30.2764  -11.3225   19.8707 H   0  0  0  0  0  0
  -29.7568  -11.7731   17.4489 H   0  0  0  0  0  0
  -29.6684  -13.4884   17.7738 H   0  0  0  0  0  0
  -27.8571  -11.2917   18.8446 H   0  0  0  0  0  0
  -27.3729  -12.5934   17.7891 H   0  0  0  0  0  0
  -27.6933  -14.2510   19.5368 H   0  0  0  0  0  0
  -28.6790  -12.0226   21.3846 H   0  0  0  0  0  0
  -28.4492  -13.6869   21.8473 H   0  0  0  0  0  0
  -25.2755   -9.5679   22.4750 H   0  0  0  0  0  0
  -23.9990   -7.4633   22.7457 H   0  0  0  0  0  0
  -21.0854   -8.8781   19.8943 H   0  0  0  0  0  0
  -22.3708  -10.9676   19.6148 H   0  0  0  0  0  0
  -21.2009   -7.6136   23.9725 H   0  0  0  0  0  0
  -21.1502   -6.0507   25.9080 H   0  0  0  0  0  0
  -22.0590   -2.7604   23.2827 H   0  0  0  0  0  0
  -22.4123  -11.9883   22.4772 H   0  0  0  0  0  0
  -21.1096  -13.1247   22.2565 H   0  0  0  0  0  0
  -24.6757  -15.8477   20.5365 H   0  0  0  0  0  0
  -26.2890  -15.6247   20.0899 H   0  0  0  0  0  0
  -26.7162  -32.5497   23.1167 H   0  0  0  0  0  0
  -25.0114  -33.9791   25.0496 H   0  0  0  0  0  0
  -22.7050  -31.3134   21.4201 H   0  0  0  0  0  0
  -23.3765  -35.9613   23.3310 H   0  0  0  0  0  0
  -24.3567  -36.8895   22.2055 H   0  0  0  0  0  0
  -23.7210  -37.6472   23.6646 H   0  0  0  0  0  0
  -26.0901  -31.5710   20.6223 H   0  0  0  0  0  0
  -26.8305  -30.8408   22.0193 H   0  0  0  0  0  0
  -28.1138  -29.0300   21.1784 H   0  0  0  0  0  0
  -26.0803  -26.0984   18.8136 H   0  0  0  0  0  0
  -23.9807  -27.3487   18.9647 H   0  0  0  0  0  0
  -23.7440  -30.6112   19.4224 H   0  0  0  0  0  0
  -22.7443  -29.2645   19.8663 H   0  0  0  0  0  0
  -25.1280  -36.1979   25.0839 H   0  0  0  0  0  0
  -20.9986  -28.3335   24.1467 H   0  0  0  0  0  0
  -20.5556  -26.2322   23.3773 H   0  0  0  0  0  0
  -21.6721  -26.7328   22.1541 H   0  0  0  0  0  0
  -19.7095  -25.6284   21.1264 H   0  0  0  0  0  0
  -19.7025  -27.3222   20.6751 H   0  0  0  0  0  0
  -18.0222  -26.0013   22.8690 H   0  0  0  0  0  0
  -17.4410  -26.6956   21.3688 H   0  0  0  0  0  0
  -19.7946  -30.7227   24.2388 H   0  0  0  0  0  0
  -17.4988  -31.6159   24.5252 H   0  0  0  0  0  0
  -15.5365  -30.2907   23.7581 H   0  0  0  0  0  0
  -15.8754  -28.0779   22.6964 H   0  0  0  0  0  0
  -24.5879  -30.7197   25.7849 H   0  0  0  0  0  0
  -24.9040  -32.2952   26.5034 H   0  0  0  0  0  0
  -25.8094  -30.8871   27.0254 H   0  0  0  0  0  0
  -26.2969  -29.6805   24.1243 H   0  0  0  0  0  0
  -27.4028  -29.7323   25.4763 H   0  0  0  0  0  0
  -27.8849  -30.4351   23.9519 H   0  0  0  0  0  0
  -27.2703  -33.3637   26.2171 H   0  0  0  0  0  0
  -28.3835  -32.7025   25.0319 H   0  0  0  0  0  0
  -28.0841  -31.8489   26.5369 H   0  0  0  0  0  0
  -28.2618  -38.0084   24.7509 H   0  0  0  0  0  0
  -28.1076  -36.2611   24.6289 H   0  0  0  0  0  0
  -27.2311  -37.1438   25.8866 H   0  0  0  0  0  0
  -20.9357  -29.8650   21.6842 H   0  0  0  0  0  0
  -26.0196  -38.2869   24.1405 H   0  0  0  0  0  0
  -30.1819  -21.9858   20.1842 H   0  0  0  0  0  0
  -28.5071  -23.8986   18.9869 H   0  0  0  0  0  0
  -25.0059  -19.8145   21.8348 H   0  0  0  0  0  0
  -25.1087  -21.1180   23.0512 H   0  0  0  0  0  0
  -25.9584  -19.6091   23.2999 H   0  0  0  0  0  0
  -24.0216  -21.8523   21.2318 H   0  0  0  0  0  0
  -24.6055  -21.6147   19.6022 H   0  0  0  0  0  0
  -23.7210  -23.0726   20.0656 H   0  0  0  0  0  0
  -24.8713  -23.4516   22.7340 H   0  0  0  0  0  0
  -24.7602  -24.8111   21.6464 H   0  0  0  0  0  0
  -26.2638  -24.4363   22.4805 H   0  0  0  0  0  0
  -24.8569  -25.0373   17.5027 H   0  0  0  0  0  0
  -23.9440  -23.6481   18.0595 H   0  0  0  0  0  0
  -24.8108  -23.5827   16.5578 H   0  0  0  0  0  0
  -29.4039  -25.1078   20.9436 H   0  0  0  0  0  0
  -27.8608  -25.3651   21.6336 H   0  0  0  0  0  0
  -28.7166  -17.8059   21.5204 H   0  0  0  0  0  0
  -29.4511  -17.8974   19.9334 H   0  0  0  0  0  0
  -30.9096  -16.9785   22.4904 H   0  0  0  0  0  0
  -31.6117  -17.0114   20.9039 H   0  0  0  0  0  0
  -26.9545  -23.6956   17.5867 H   0  0  0  0  0  0
  -26.1684  -22.3048   18.2058 H   0  0  0  0  0  0
  -30.9205  -19.6643   20.6716 H   0  0  0  0  0  0
  -29.2213  -15.3153   21.6129 H   0  0  0  0  0  0
  -26.0901  -24.8225   19.7017 H   0  0  0  0  0  0
  1 25  1  0  0  0
  1 30  2  0  0  0
  1 88  1  0  0  0
  2  3  1  0  0  0
  2 25  1  0  0  0
  2 90  1  0  0  0
  2 91  1  0  0  0
  3  4  1  0  0  0
  3 92  1  0  0  0
  3 93  1  0  0  0
  4  5  1  0  0  0
  4 94  1  0  0  0
  4 95  1  0  0  0
  5  6  1  0  0  0
  5 26  1  0  0  0
  5 96  1  0  0  0
  6 25  1  0  0  0
  6 97  1  0  0  0
  6 98  1  0  0  0
  7  8  2  0  0  0
  7 26  1  0  0  0
  7 29  1  0  0  0
  8  9  1  0  0  0
  8 22  1  0  0  0
  9 10  1  0  0  0
  9 27  2  0  0  0
 10 11  2  0  0  0
 10 15  1  0  0  0
 11 12  1  0  0  0
 11 99  1  0  0  0
 12 13  2  0  0  0
 12100  1  0  0  0
 13 14  1  0  0  0
 13 31  1  0  0  0
 14 15  2  0  0  0
 14101  1  0  0  0
 15102  1  0  0  0
 16 17  2  0  0  0
 16 21  1  0  0  0
 16 31  1  0  0  0
 17 18  1  0  0  0
 17103  1  0  0  0
 18 19  2  0  0  0
 18104  1  0  0  0
 19 20  1  0  0  0
 19 24  1  0  0  0
 20 21  2  0  0  0
 20105  1  0  0  0
 21 23  1  0  0  0
 22 28  1  0  0  0
 22 32  2  0  0  0
 26 27  1  0  0  0
 28106  1  0  0  0
 28107  1  0  0  0
 29108  1  0  0  0
 29109  1  0  0  0
 33 34  1  0  0  0
 33 66  1  0  0  0
 33 70  2  0  0  0
 34 36  1  0  0  0
 34 59  1  0  0  0
 34110  1  0  0  0
 35 44  2  0  0  0
 35 45  1  0  0  0
 35 68  1  0  0  0
 36 56  1  0  0  0
 36111  1  0  0  0
 37 39  1  0  0  0
 37 47  1  0  0  0
 37 66  1  0  0  0
 37112  1  0  0  0
 38 43  2  0  0  0
 38 46  1  0  0  0
 38 47  1  0  0  0
 39 64  1  0  0  0
 39 67  2  0  0  0
 40 52  1  0  0  0
 40 53  2  0  0  0
 40 58  1  0  0  0
 41113  1  0  0  0
 41114  1  0  0  0
 41115  1  0  0  0
 41 48  1  0  0  0
 42 43  1  0  0  0
 42 66  1  0  0  0
 42116  1  0  0  0
 42117  1  0  0  0
 43 44  1  0  0  0
 44118  1  0  0  0
 45 46  2  0  0  0
 45119  1  0  0  0
 46120  1  0  0  0
 47121  1  0  0  0
 47122  1  0  0  0
 48 56  1  0  0  0
 48 65  1  0  0  0
 48123  1  0  0  0
 49 50  1  0  0  0
 49 53  1  0  0  0
 49 64  1  0  0  0
 49124  1  0  0  0
 50 51  1  0  0  0
 50125  1  0  0  0
 50126  1  0  0  0
 51 52  1  0  0  0
 51127  1  0  0  0
 51128  1  0  0  0
 52129  1  0  0  0
 52130  1  0  0  0
 53 54  1  0  0  0
 54 55  2  0  0  0
 54131  1  0  0  0
 55 57  1  0  0  0
 55132  1  0  0  0
 56 69  2  0  0  0
 57 58  2  0  0  0
 57133  1  0  0  0
 58134  1  0  0  0
 59 60  1  0  0  0
 59 61  1  0  0  0
 59 62  1  0  0  0
 60135  1  0  0  0
 60136  1  0  0  0
 60137  1  0  0  0
 61138  1  0  0  0
 61139  1  0  0  0
 61140  1  0  0  0
 62141  1  0  0  0
 62142  1  0  0  0
 62143  1  0  0  0
 63 65  1  0  0  0
 63144  1  0  0  0
 63145  1  0  0  0
 63146  1  0  0  0
 64147  1  0  0  0
 65148  1  0  0  0
 68 82  1  0  0  0
 71 72  2  0  0  0
 71 75  1  0  0  0
 71149  1  0  0  0
 72 73  1  0  0  0
 72 76  1  0  0  0
 73 74  2  0  0  0
 73 77  1  0  0  0
 74 78  1  0  0  0
 74 86  1  0  0  0
 75 86  2  0  0  0
 75 87  1  0  0  0
 76 82  1  0  0  0
 76 89  1  0  0  0
 76150  1  0  0  0
 77 79  1  0  0  0
 77 80  1  0  0  0
 77 89  1  0  0  0
 78151  1  0  0  0
 78152  1  0  0  0
 78153  1  0  0  0
 79154  1  0  0  0
 79155  1  0  0  0
 79156  1  0  0  0
 80157  1  0  0  0
 80158  1  0  0  0
 80159  1  0  0  0
 81 85  1  0  0  0
 81160  1  0  0  0
 81161  1  0  0  0
 81162  1  0  0  0
 82163  1  0  0  0
 82164  1  0  0  0
 83 84  1  0  0  0
 83 87  1  0  0  0
 83165  1  0  0  0
 83166  1  0  0  0
 84 88  1  0  0  0
 84167  1  0  0  0
 84168  1  0  0  0
 85169  1  0  0  0
 85170  1  0  0  0
 85 89  1  0  0  0
 87171  1  0  0  0
 88172  1  0  0  0
 89173  1  0  0  0
M  CHG  1  89   1
M  ISO  4   1 100  68 101  82 101  88 100
M  END
> <chiral flag>
0

> <version>
0

> <s_m_source_file>
/data/baiqing/PycharmProjects/Reinvent-master-3.2/result/LINK_invent/BTK/process_docking_weight1_custom_sum_contain_oxygen_bond_distance_aromatic_linkinvent_7_9_3/rearranged_h_0184.sdf

> <i_m_source_file_index>
3

> <r_mmod_Potential_Energy-OPLS-2005>
-271.395080566406

> <r_mmod_Stretch_Energy-OPLS-2005>
64.4999389648438

> <r_mmod_Bend_Energy-OPLS-2005>
198.609802246094

> <r_mmod_Torsional_Energy-OPLS-2005>
248.743118286133

> <r_mmod_Improper_Torsional_Energy-OPLS-2005>
8.18278408050537

> <r_mmod_Van_der_Waal_Energy-OPLS-2005>
162.030181884766

> <r_mmod_Electrostatic_Energy-OPLS-2005>
-533.37353515625

> <r_mmod_Solvation_Energy-OPLS-2005>
-441.247100830078

> <b_mmod_Minimization_Converged-OPLS-2005>
0

> <r_mmod_RMS_Derivative-OPLS-2005>
5.74293661117554

$$$$
3
                    3D
 Structure written by MMmdl.
154163  0  0  1  0            999 V2000
  -30.6338  -14.8115   20.4417 C   0  0  0  0  0  0
  -30.4210  -12.5057   19.4735 C   0  0  0  0  0  0
  -29.5027  -12.5122   18.2338 C   0  0  0  0  0  0
  -28.0323  -12.3300   18.6541 C   0  0  0  0  0  0
  -27.6322  -13.2437   19.8447 C   0  0  2  0  0  0
  -28.6830  -13.2193   20.9748 C   0  0  0  0  0  0
  -25.2475  -13.8220   20.5724 C   0  0  0  0  0  0
  -24.1783  -13.0448   20.9230 C   0  0  0  0  0  0
  -24.6391  -11.6931   20.8765 C   0  0  0  0  0  0
  -23.9073  -10.4299   21.0411 C   0  0  0  0  0  0
  -24.3622   -9.4213   21.9188 C   0  0  0  0  0  0
  -23.6298   -8.2246   22.0754 C   0  0  0  0  0  0
  -22.4280   -8.0283   21.3545 C   0  0  0  0  0  0
  -21.9919   -9.0259   20.4647 C   0  0  0  0  0  0
  -22.7246  -10.2140   20.3057 C   0  0  0  0  0  0
  -21.6854   -6.0738   22.5280 C   0  0  0  0  0  0
  -21.4015   -6.5642   23.8213 C   0  0  0  0  0  0
  -21.3662   -5.6795   24.9175 C   0  0  0  0  0  0
  -21.6044   -4.3057   24.7225 C   0  0  0  0  0  0
  -21.8820   -3.8148   23.4346 C   0  0  0  0  0  0
  -21.9192   -4.6965   22.3403 C   0  0  0  0  0  0
  -22.7802  -13.5220   21.1875 C   0  0  0  0  0  0
  -22.1658   -4.2152   21.0979 F   0  0  0  0  0  0
  -21.5630   -3.4539   25.7737 F   0  0  0  0  0  0
  -29.9596  -13.6035   20.3637 N   0  0  0  0  0  0
  -26.2902  -12.9447   20.3302 N   0  0  0  0  0  0
  -25.9327  -11.6578   20.5779 N   0  0  0  0  0  0
  -22.0448  -12.8209   22.0428 N   0  0  0  0  0  0
  -25.4156  -15.1943   20.4126 N   0  0  0  0  0  0
  -31.8453  -14.7862   20.1995 O   0  0  0  0  0  0
  -21.6642   -6.8882   21.4242 O   0  0  0  0  0  0
  -22.3490  -14.5525   20.6717 O   0  0  0  0  0  0
  -24.6362  -31.8513   23.1953 C   0  0  0  0  0  0
  -25.9170  -32.4730   23.8311 C   0  0  1  0  0  0
  -27.2157  -27.2168   20.1181 C   0  0  0  0  0  0
  -25.5949  -33.8534   24.2233 N   0  0  0  0  0  0
  -23.4340  -30.4749   21.5401 C   0  0  2  0  0  0
  -24.8790  -28.9183   20.1067 C   0  0  0  0  0  0
  -22.7525  -29.4587   22.4893 C   0  0  0  0  0  0
  -18.0296  -28.1391   22.8481 C   0  0  0  0  0  0
  -24.1491  -36.7270   23.2641 C   0  0  0  0  0  0
  -25.9847  -30.7494   21.3818 C   0  0  0  0  0  0
  -26.0539  -29.3697   20.7195 C   0  0  0  0  0  0
  -27.2201  -28.5303   20.7168 C   0  0  0  0  0  0
  -26.0059  -26.8416   19.4887 C   0  0  0  0  0  0
  -24.8630  -27.6642   19.4824 C   0  0  0  0  0  0
  -23.6532  -29.8110   20.1559 C   0  0  0  0  0  0
  -25.4120  -36.3053   24.0323 C   0  0  1  0  0  0
  -20.5903  -28.3708   23.1256 C   0  0  2  0  0  0
  -20.6783  -26.9421   22.5406 C   0  0  0  0  0  0
  -19.5757  -26.6384   21.5212 C   0  0  0  0  0  0
  -18.1938  -26.7932   22.1623 C   0  0  0  0  0  0
  -19.1551  -28.8867   23.2862 C   0  0  0  0  0  0
  -18.9470  -30.1466   23.8884 C   0  0  0  0  0  0
  -17.6468  -30.6590   24.0561 C   0  0  0  0  0  0
  -25.9066  -34.9426   23.5082 C   0  0  0  0  0  0
  -16.5358  -29.9085   23.6335 C   0  0  0  0  0  0
  -16.7281  -28.6503   23.0355 C   0  0  0  0  0  0
  -26.4519  -31.6570   25.0722 C   0  0  0  0  0  0
  -25.3726  -31.3734   26.1430 C   0  0  0  0  0  0
  -27.0377  -30.2977   24.6248 C   0  0  0  0  0  0
  -27.6061  -32.4322   25.7502 C   0  0  0  0  0  0
  -27.5578  -37.1791   24.8464 C   0  0  0  0  0  0
  -21.4227  -29.3047   22.3638 N   0  0  0  0  0  0
  -26.4288  -37.3759   23.9410 N   0  0  0  0  0  0
  -24.7045  -31.0441   22.0950 N   0  0  0  0  0  0
  -23.4205  -28.8126   23.3008 O   0  0  0  0  0  0
  -28.3013  -26.2976   20.2172 O   0  0  0  0  0  0
  -26.5640  -34.8910   22.4654 O   0  0  0  0  0  0
  -23.5502  -32.1357   23.7226 O   0  0  0  0  0  0
  -27.5979  -22.6569   20.5023 C   0  0  0  0  0  0
  -27.8162  -21.2406   20.6656 C   0  0  0  0  0  0
  -28.6344  -23.5050   20.0146 C   0  0  0  0  0  0
  -29.0695  -20.6432   20.3328 C   0  0  0  0  0  0
  -30.6223  -18.5935   19.9463 C   0  0  0  0  0  0
  -28.4090  -18.1595   20.8783 C   0  0  0  0  0  0
  -30.4828  -17.1171   19.3770 C   0  0  0  0  0  0
  -29.0112  -16.7097   21.2549 C   0  0  0  0  0  0
  -28.3936  -25.0003   19.4307 C   0  0  0  0  0  0
  -29.8268  -22.8699   19.7428 N   0  0  0  0  0  0
  -30.0338  -21.5241   19.9024 N   0  0  0  0  0  0
  -29.3589  -19.2014   20.4064 N   0  0  0  0  0  0
  -29.9626  -16.0504   20.3005 N   0  0  0  0  0  0
  -31.4599  -12.6218   19.1608 H   0  0  0  0  0  0
  -30.3748  -11.5443   19.9876 H   0  0  0  0  0  0
  -29.7952  -11.7231   17.5396 H   0  0  0  0  0  0
  -29.6181  -13.4541   17.6948 H   0  0  0  0  0  0
  -27.9007  -11.2838   18.9328 H   0  0  0  0  0  0
  -27.3709  -12.5025   17.8042 H   0  0  0  0  0  0
  -27.6116  -14.2587   19.4473 H   0  0  0  0  0  0
  -28.7487  -12.2270   21.4236 H   0  0  0  0  0  0
  -28.4145  -13.8954   21.7853 H   0  0  0  0  0  0
  -25.2762   -9.5688   22.4774 H   0  0  0  0  0  0
  -24.0007   -7.4635   22.7473 H   0  0  0  0  0  0
  -21.0850   -8.8772   19.8953 H   0  0  0  0  0  0
  -22.3696  -10.9680   19.6172 H   0  0  0  0  0  0
  -21.2007   -7.6150   23.9717 H   0  0  0  0  0  0
  -21.1485   -6.0524   25.9079 H   0  0  0  0  0  0
  -22.0597   -2.7610   23.2843 H   0  0  0  0  0  0
  -22.4059  -11.9871   22.4820 H   0  0  0  0  0  0
  -21.1067  -13.1238   22.2629 H   0  0  0  0  0  0
  -24.6468  -15.8472   20.5170 H   0  0  0  0  0  0
  -26.2618  -15.6282   20.0678 H   0  0  0  0  0  0
  -26.7234  -32.5356   23.1043 H   0  0  0  0  0  0
  -25.0087  -33.9660   25.0373 H   0  0  0  0  0  0
  -22.7326  -31.2991   21.3938 H   0  0  0  0  0  0
  -23.3758  -35.9596   23.3289 H   0  0  0  0  0  0
  -24.3580  -36.8910   22.2057 H   0  0  0  0  0  0
  -23.7239  -37.6464   23.6679 H   0  0  0  0  0  0
  -26.1321  -31.5096   20.6135 H   0  0  0  0  0  0
  -26.8591  -30.7947   22.0198 H   0  0  0  0  0  0
  -28.1162  -28.8699   21.2172 H   0  0  0  0  0  0
  -25.8725  -25.8754   19.0324 H   0  0  0  0  0  0
  -23.9586  -27.3071   19.0087 H   0  0  0  0  0  0
  -23.7818  -30.5886   19.4019 H   0  0  0  0  0  0
  -22.7693  -29.2495   19.8486 H   0  0  0  0  0  0
  -25.1303  -36.1889   25.0816 H   0  0  0  0  0  0
  -20.9996  -28.3291   24.1376 H   0  0  0  0  0  0
  -20.5681  -26.2321   23.3615 H   0  0  0  0  0  0
  -21.6649  -26.7439   22.1199 H   0  0  0  0  0  0
  -19.6918  -25.6291   21.1250 H   0  0  0  0  0  0
  -19.6695  -27.3188   20.6735 H   0  0  0  0  0  0
  -17.4208  -26.6679   21.4025 H   0  0  0  0  0  0
  -18.0338  -26.0076   22.9022 H   0  0  0  0  0  0
  -19.7945  -30.7286   24.2247 H   0  0  0  0  0  0
  -17.5021  -31.6270   24.5164 H   0  0  0  0  0  0
  -15.5358  -30.2984   23.7666 H   0  0  0  0  0  0
  -15.8680  -28.0819   22.7080 H   0  0  0  0  0  0
  -24.5910  -30.7075   25.7754 H   0  0  0  0  0  0
  -24.8910  -32.2907   26.4824 H   0  0  0  0  0  0
  -25.8029  -30.8930   27.0226 H   0  0  0  0  0  0
  -26.2978  -29.6707   24.1259 H   0  0  0  0  0  0
  -27.4024  -29.7261   25.4792 H   0  0  0  0  0  0
  -27.8871  -30.4235   23.9529 H   0  0  0  0  0  0
  -27.2660  -33.3632   26.2049 H   0  0  0  0  0  0
  -28.3890  -32.6864   25.0344 H   0  0  0  0  0  0
  -28.0708  -31.8466   26.5445 H   0  0  0  0  0  0
  -28.2585  -38.0098   24.7520 H   0  0  0  0  0  0
  -28.1087  -36.2629   24.6279 H   0  0  0  0  0  0
  -27.2298  -37.1422   25.8867 H   0  0  0  0  0  0
  -20.9420  -29.8768   21.6836 H   0  0  0  0  0  0
  -26.0160  -38.2829   24.1416 H   0  0  0  0  0  0
  -26.6179  -23.0724   20.6850 H   0  0  0  0  0  0
  -27.0001  -20.6218   21.0062 H   0  0  0  0  0  0
  -31.0566  -19.2226   19.1678 H   0  0  0  0  0  0
  -31.3347  -18.6042   20.7724 H   0  0  0  0  0  0
  -27.8693  -18.5451   21.7445 H   0  0  0  0  0  0
  -27.6580  -18.0322   20.0971 H   0  0  0  0  0  0
  -31.4541  -16.8375   18.9667 H   0  0  0  0  0  0
  -29.8197  -17.1371   18.5113 H   0  0  0  0  0  0
  -28.1692  -16.0430   21.4315 H   0  0  0  0  0  0
  -29.5277  -16.7889   22.2126 H   0  0  0  0  0  0
  -27.6026  -24.9050   18.6944 H   0  0  0  0  0  0
  -29.2625  -25.1777   18.7967 H   0  0  0  0  0  0
  1 25  1  0  0  0
  1 30  2  0  0  0
  1 83  1  0  0  0
  2  3  1  0  0  0
  2 25  1  0  0  0
  2 84  1  0  0  0
  2 85  1  0  0  0
  3  4  1  0  0  0
  3 86  1  0  0  0
  3 87  1  0  0  0
  4  5  1  0  0  0
  4 88  1  0  0  0
  4 89  1  0  0  0
  5  6  1  0  0  0
  5 26  1  0  0  0
  5 90  1  0  0  0
  6 25  1  0  0  0
  6 91  1  0  0  0
  6 92  1  0  0  0
  7  8  2  0  0  0
  7 26  1  0  0  0
  7 29  1  0  0  0
  8  9  1  0  0  0
  8 22  1  0  0  0
  9 10  1  0  0  0
  9 27  2  0  0  0
 10 11  2  0  0  0
 10 15  1  0  0  0
 11 12  1  0  0  0
 11 93  1  0  0  0
 12 13  2  0  0  0
 12 94  1  0  0  0
 13 14  1  0  0  0
 13 31  1  0  0  0
 14 15  2  0  0  0
 14 95  1  0  0  0
 15 96  1  0  0  0
 16 17  2  0  0  0
 16 21  1  0  0  0
 16 31  1  0  0  0
 17 18  1  0  0  0
 17 97  1  0  0  0
 18 19  2  0  0  0
 18 98  1  0  0  0
 19 20  1  0  0  0
 19 24  1  0  0  0
 20 21  2  0  0  0
 20 99  1  0  0  0
 21 23  1  0  0  0
 22 28  1  0  0  0
 22 32  2  0  0  0
 26 27  1  0  0  0
 28100  1  0  0  0
 28101  1  0  0  0
 29102  1  0  0  0
 29103  1  0  0  0
 33 34  1  0  0  0
 33 66  1  0  0  0
 33 70  2  0  0  0
 34 36  1  0  0  0
 34 59  1  0  0  0
 34104  1  0  0  0
 35 44  2  0  0  0
 35 45  1  0  0  0
 35 68  1  0  0  0
 36 56  1  0  0  0
 36105  1  0  0  0
 37 39  1  0  0  0
 37 47  1  0  0  0
 37 66  1  0  0  0
 37106  1  0  0  0
 38 43  2  0  0  0
 38 46  1  0  0  0
 38 47  1  0  0  0
 39 64  1  0  0  0
 39 67  2  0  0  0
 40 52  1  0  0  0
 40 53  2  0  0  0
 40 58  1  0  0  0
 41107  1  0  0  0
 41108  1  0  0  0
 41109  1  0  0  0
 41 48  1  0  0  0
 42 43  1  0  0  0
 42 66  1  0  0  0
 42110  1  0  0  0
 42111  1  0  0  0
 43 44  1  0  0  0
 44112  1  0  0  0
 45 46  2  0  0  0
 45113  1  0  0  0
 46114  1  0  0  0
 47115  1  0  0  0
 47116  1  0  0  0
 48 56  1  0  0  0
 48 65  1  0  0  0
 48117  1  0  0  0
 49 50  1  0  0  0
 49 53  1  0  0  0
 49 64  1  0  0  0
 49118  1  0  0  0
 50 51  1  0  0  0
 50119  1  0  0  0
 50120  1  0  0  0
 51 52  1  0  0  0
 51121  1  0  0  0
 51122  1  0  0  0
 52123  1  0  0  0
 52124  1  0  0  0
 53 54  1  0  0  0
 54 55  2  0  0  0
 54125  1  0  0  0
 55 57  1  0  0  0
 55126  1  0  0  0
 56 69  2  0  0  0
 57 58  2  0  0  0
 57127  1  0  0  0
 58128  1  0  0  0
 59 60  1  0  0  0
 59 61  1  0  0  0
 59 62  1  0  0  0
 60129  1  0  0  0
 60130  1  0  0  0
 60131  1  0  0  0
 61132  1  0  0  0
 61133  1  0  0  0
 61134  1  0  0  0
 62135  1  0  0  0
 62136  1  0  0  0
 62137  1  0  0  0
 63 65  1  0  0  0
 63138  1  0  0  0
 63139  1  0  0  0
 63140  1  0  0  0
 64141  1  0  0  0
 65142  1  0  0  0
 68 79  1  0  0  0
 71 72  2  0  0  0
 71 73  1  0  0  0
 71143  1  0  0  0
 72 74  1  0  0  0
 72144  1  0  0  0
 73 79  1  0  0  0
 73 80  2  0  0  0
 74 81  2  0  0  0
 74 82  1  0  0  0
 75 77  1  0  0  0
 75 82  1  0  0  0
 75145  1  0  0  0
 75146  1  0  0  0
 76 78  1  0  0  0
 76 82  1  0  0  0
 76147  1  0  0  0
 76148  1  0  0  0
 77 83  1  0  0  0
 77149  1  0  0  0
 77150  1  0  0  0
 78 83  1  0  0  0
 78151  1  0  0  0
 78152  1  0  0  0
 79153  1  0  0  0
 79154  1  0  0  0
 80 81  1  0  0  0
M  ISO  4   1 100  68 101  79 101  83 100
M  END
> <chiral flag>
0

> <version>
0

> <s_m_source_file>
/data/baiqing/PycharmProjects/Reinvent-master-3.2/result/LINK_invent/BTK/process_docking_weight1_custom_sum_contain_oxygen_bond_distance_aromatic_linkinvent_7_9_3/rearranged_h_0184.sdf

> <i_m_source_file_index>
4

> <r_mmod_Potential_Energy-OPLS-2005>
481.995727539062

> <r_mmod_Stretch_Energy-OPLS-2005>
150.077606201172

> <r_mmod_Bend_Energy-OPLS-2005>
240.95768737793

> <r_mmod_Torsional_Energy-OPLS-2005>
340.685638427734

> <r_mmod_Improper_Torsional_Energy-OPLS-2005>
19.0099983215332

> <r_mmod_Van_der_Waal_Energy-OPLS-2005>
152.30696105957

> <r_mmod_Electrostatic_Energy-OPLS-2005>
-293.326721191406

> <r_mmod_Solvation_Energy-OPLS-2005>
-245.139663696289

> <b_mmod_Minimization_Converged-OPLS-2005>
0

> <r_mmod_RMS_Derivative-OPLS-2005>
0.454400688409805

$$$$
4
                    3D
 Structure written by MMmdl.
153161  0  0  1  0            999 V2000
  -30.3943  -15.4403   20.3598 C   0  0  0  0  0  0
  -30.4286  -12.9377   19.5372 C   0  0  0  0  0  0
  -29.5457  -12.6171   18.3032 C   0  0  0  0  0  0
  -28.1025  -12.3092   18.7339 C   0  0  0  0  0  0
  -27.6040  -13.2971   19.8181 C   0  0  2  0  0  0
  -28.6286  -13.5560   20.9456 C   0  0  0  0  0  0
  -25.2374  -13.8288   20.5798 C   0  0  0  0  0  0
  -24.1741  -13.0443   20.9262 C   0  0  0  0  0  0
  -24.6416  -11.6948   20.8745 C   0  0  0  0  0  0
  -23.9121  -10.4295   21.0396 C   0  0  0  0  0  0
  -24.3654   -9.4207   21.9180 C   0  0  0  0  0  0
  -23.6318   -8.2246   22.0757 C   0  0  0  0  0  0
  -22.4297   -8.0290   21.3548 C   0  0  0  0  0  0
  -21.9938   -9.0273   20.4654 C   0  0  0  0  0  0
  -22.7288  -10.2143   20.3056 C   0  0  0  0  0  0
  -21.6859   -6.0734   22.5278 C   0  0  0  0  0  0
  -21.4031   -6.5637   23.8210 C   0  0  0  0  0  0
  -21.3667   -5.6786   24.9170 C   0  0  0  0  0  0
  -21.6044   -4.3047   24.7217 C   0  0  0  0  0  0
  -21.8823   -3.8148   23.4336 C   0  0  0  0  0  0
  -21.9197   -4.6963   22.3392 C   0  0  0  0  0  0
  -22.7757  -13.5186   21.1892 C   0  0  0  0  0  0
  -22.1659   -4.2148   21.0970 F   0  0  0  0  0  0
  -21.5619   -3.4536   25.7732 F   0  0  0  0  0  0
  -29.8302  -14.1131   20.2980 N   0  0  0  0  0  0
  -26.2805  -12.9597   20.3231 N   0  0  0  0  0  0
  -25.9363  -11.6676   20.5694 N   0  0  0  0  0  0
  -22.0395  -12.8184   22.0437 N   0  0  0  0  0  0
  -25.4010  -15.2036   20.4306 N   0  0  0  0  0  0
  -31.6171  -15.3821   20.1479 O   0  0  0  0  0  0
  -21.6642   -6.8891   21.4248 O   0  0  0  0  0  0
  -22.3443  -14.5482   20.6718 O   0  0  0  0  0  0
  -24.6738  -31.8114   23.1599 C   0  0  0  0  0  0
  -25.9370  -32.4522   23.8106 C   0  0  1  0  0  0
  -27.2192  -26.8213   20.1994 C   0  0  0  0  0  0
  -25.5986  -33.8341   24.2001 N   0  0  0  0  0  0
  -23.4922  -30.4205   21.5113 C   0  0  2  0  0  0
  -24.9468  -28.7838   20.1139 C   0  0  0  0  0  0
  -22.7712  -29.4390   22.4733 C   0  0  0  0  0  0
  -18.0327  -28.1399   22.8469 C   0  0  0  0  0  0
  -24.1495  -36.7185   23.2650 C   0  0  0  0  0  0
  -26.0674  -30.5858   21.4035 C   0  0  0  0  0  0
  -26.1333  -29.1634   20.7530 C   0  0  0  0  0  0
  -27.2604  -28.2061   20.7650 C   0  0  0  0  0  0
  -26.0024  -26.6209   19.5068 C   0  0  0  0  0  0
  -24.9125  -27.5365   19.4690 C   0  0  0  0  0  0
  -23.7374  -29.7250   20.1415 C   0  0  0  0  0  0
  -25.4138  -36.2931   24.0285 C   0  0  1  0  0  0
  -20.5961  -28.3761   23.1158 C   0  0  2  0  0  0
  -20.6795  -26.9427   22.5404 C   0  0  0  0  0  0
  -19.5767  -26.6362   21.5215 C   0  0  0  0  0  0
  -18.1951  -26.7929   22.1628 C   0  0  0  0  0  0
  -19.1595  -28.8898   23.2800 C   0  0  0  0  0  0
  -18.9501  -30.1487   23.8839 C   0  0  0  0  0  0
  -17.6492  -30.6590   24.0554 C   0  0  0  0  0  0
  -25.9115  -34.9316   23.4977 C   0  0  0  0  0  0
  -16.5383  -29.9080   23.6345 C   0  0  0  0  0  0
  -16.7308  -28.6497   23.0369 C   0  0  0  0  0  0
  -26.4582  -31.6502   25.0677 C   0  0  0  0  0  0
  -25.3688  -31.3794   26.1321 C   0  0  0  0  0  0
  -27.0469  -30.2841   24.6487 C   0  0  0  0  0  0
  -27.6035  -32.4340   25.7506 C   0  0  0  0  0  0
  -27.5564  -37.1747   24.8463 C   0  0  0  0  0  0
  -21.4367  -29.3041   22.3493 N   0  0  0  0  0  0
  -26.4274  -37.3680   23.9407 N   0  0  0  0  0  0
  -24.7670  -30.9695   22.0782 N   0  0  0  0  0  0
  -23.4211  -28.7970   23.3020 O   0  0  0  0  0  0
  -28.2058  -25.6654   20.2804 O   0  0  0  0  0  0
  -26.5750  -34.8881   22.4590 O   0  0  0  0  0  0
  -23.5784  -32.1119   23.6645 O   0  0  0  0  0  0
  -29.1338  -17.9092   21.2707 C   0  0  0  0  0  0
  -29.6338  -18.0101   19.3014 C   0  0  0  0  0  0
  -29.4937  -19.2640   20.3731 C   0  0  0  0  0  0
  -29.5179  -22.5115   21.8606 C   0  0  0  0  0  0
  -27.2316  -20.5070   20.6895 C   0  0  0  0  0  0
  -27.9911  -23.9757   20.1398 C   0  0  0  0  0  0
  -28.9683  -22.3996   20.4294 C   0  0  2  0  0  0
  -29.6775  -16.7908   20.3008 N   0  0  0  0  0  0
  -28.5989  -20.7367   20.1819 N   0  3  1  0  0  0
  -31.4427  -13.1533   19.1972 H   0  0  0  0  0  0
  -30.5252  -12.0632   20.1824 H   0  0  0  0  0  0
  -29.9609  -11.7778   17.7424 H   0  0  0  0  0  0
  -29.5522  -13.4700   17.6223 H   0  0  0  0  0  0
  -28.0854  -11.2940   19.1320 H   0  0  0  0  0  0
  -27.4376  -12.3117   17.8699 H   0  0  0  0  0  0
  -27.4909  -14.2438   19.2890 H   0  0  0  0  0  0
  -28.8400  -12.6530   21.5205 H   0  0  0  0  0  0
  -28.2343  -14.2925   21.6493 H   0  0  0  0  0  0
  -25.2801   -9.5668   22.4760 H   0  0  0  0  0  0
  -24.0011   -7.4636   22.7491 H   0  0  0  0  0  0
  -21.0849   -8.8824   19.8962 H   0  0  0  0  0  0
  -22.3764  -10.9689   19.6161 H   0  0  0  0  0  0
  -21.2033   -7.6149   23.9721 H   0  0  0  0  0  0
  -21.1483   -6.0504   25.9071 H   0  0  0  0  0  0
  -22.0592   -2.7607   23.2826 H   0  0  0  0  0  0
  -22.4022  -11.9882   22.4877 H   0  0  0  0  0  0
  -21.1018  -13.1225   22.2627 H   0  0  0  0  0  0
  -24.6319  -15.8546   20.5502 H   0  0  0  0  0  0
  -26.2555  -15.6495   20.1225 H   0  0  0  0  0  0
  -26.7448  -32.5020   23.0821 H   0  0  0  0  0  0
  -25.0048  -33.9394   25.0093 H   0  0  0  0  0  0
  -22.8128  -31.2554   21.3317 H   0  0  0  0  0  0
  -23.3765  -35.9506   23.3268 H   0  0  0  0  0  0
  -24.3571  -36.8888   22.2075 H   0  0  0  0  0  0
  -23.7244  -37.6353   23.6748 H   0  0  0  0  0  0
  -26.2585  -31.3179   20.6171 H   0  0  0  0  0  0
  -26.9235  -30.6491   22.0624 H   0  0  0  0  0  0
  -28.1570  -28.5024   21.2908 H   0  0  0  0  0  0
  -25.8575  -25.6722   19.0101 H   0  0  0  0  0  0
  -24.0144  -27.2403   18.9451 H   0  0  0  0  0  0
  -23.9006  -30.4870   19.3793 H   0  0  0  0  0  0
  -22.8441  -29.1846   19.8241 H   0  0  0  0  0  0
  -25.1340  -36.1711   25.0773 H   0  0  0  0  0  0
  -21.0061  -28.3384   24.1276 H   0  0  0  0  0  0
  -20.5660  -26.2382   23.3660 H   0  0  0  0  0  0
  -21.6657  -26.7366   22.1222 H   0  0  0  0  0  0
  -19.6925  -25.6258   21.1278 H   0  0  0  0  0  0
  -19.6702  -27.3145   20.6720 H   0  0  0  0  0  0
  -17.4218  -26.6670   21.4036 H   0  0  0  0  0  0
  -18.0353  -26.0073   22.9032 H   0  0  0  0  0  0
  -19.7976  -30.7323   24.2175 H   0  0  0  0  0  0
  -17.5043  -31.6265   24.5171 H   0  0  0  0  0  0
  -15.5382  -30.2971   23.7679 H   0  0  0  0  0  0
  -15.8708  -28.0793   22.7117 H   0  0  0  0  0  0
  -24.5868  -30.7150   25.7636 H   0  0  0  0  0  0
  -24.8895  -32.3018   26.4613 H   0  0  0  0  0  0
  -25.7905  -30.9043   27.0187 H   0  0  0  0  0  0
  -26.3139  -29.6502   24.1491 H   0  0  0  0  0  0
  -27.3937  -29.7242   25.5185 H   0  0  0  0  0  0
  -27.9120  -30.3970   23.9948 H   0  0  0  0  0  0
  -27.2551  -33.3680   26.1933 H   0  0  0  0  0  0
  -28.3934  -32.6838   25.0409 H   0  0  0  0  0  0
  -28.0606  -31.8572   26.5559 H   0  0  0  0  0  0
  -28.2547  -38.0074   24.7509 H   0  0  0  0  0  0
  -28.1087  -36.2593   24.6281 H   0  0  0  0  0  0
  -27.2281  -37.1384   25.8866 H   0  0  0  0  0  0
  -20.9635  -29.8729   21.6606 H   0  0  0  0  0  0
  -26.0105  -38.2733   24.1417 H   0  0  0  0  0  0
  -28.0650  -17.8033   21.4577 H   0  0  0  0  0  0
  -29.6446  -17.9260   22.2347 H   0  0  0  0  0  0
  -30.5269  -18.0952   18.6803 H   0  0  0  0  0  0
  -28.7670  -17.9571   18.6390 H   0  0  0  0  0  0
  -30.5045  -19.5772   20.6358 H   0  0  0  0  0  0
  -29.9882  -23.4810   22.0287 H   0  0  0  0  0  0
  -30.2651  -21.7435   22.0596 H   0  0  0  0  0  0
  -28.7224  -22.3993   22.5980 H   0  0  0  0  0  0
  -26.8371  -19.5556   20.3335 H   0  0  0  0  0  0
  -26.5533  -21.2912   20.3533 H   0  0  0  0  0  0
  -27.2268  -20.4940   21.7798 H   0  0  0  0  0  0
  -27.0813  -23.8215   20.7199 H   0  0  0  0  0  0
  -27.6601  -23.8772   19.1057 H   0  0  0  0  0  0
  -29.8338  -22.5282   19.7787 H   0  0  0  0  0  0
  -28.4588  -20.7367   19.1817 H   0  0  0  0  0  0
  1 25  1  0  0  0
  1 30  2  0  0  0
  1 78  1  0  0  0
  2  3  1  0  0  0
  2 25  1  0  0  0
  2 80  1  0  0  0
  2 81  1  0  0  0
  3  4  1  0  0  0
  3 82  1  0  0  0
  3 83  1  0  0  0
  4  5  1  0  0  0
  4 84  1  0  0  0
  4 85  1  0  0  0
  5  6  1  0  0  0
  5 26  1  0  0  0
  5 86  1  0  0  0
  6 25  1  0  0  0
  6 87  1  0  0  0
  6 88  1  0  0  0
  7  8  2  0  0  0
  7 26  1  0  0  0
  7 29  1  0  0  0
  8  9  1  0  0  0
  8 22  1  0  0  0
  9 10  1  0  0  0
  9 27  2  0  0  0
 10 11  2  0  0  0
 10 15  1  0  0  0
 11 12  1  0  0  0
 11 89  1  0  0  0
 12 13  2  0  0  0
 12 90  1  0  0  0
 13 14  1  0  0  0
 13 31  1  0  0  0
 14 15  2  0  0  0
 14 91  1  0  0  0
 15 92  1  0  0  0
 16 17  2  0  0  0
 16 21  1  0  0  0
 16 31  1  0  0  0
 17 18  1  0  0  0
 17 93  1  0  0  0
 18 19  2  0  0  0
 18 94  1  0  0  0
 19 20  1  0  0  0
 19 24  1  0  0  0
 20 21  2  0  0  0
 20 95  1  0  0  0
 21 23  1  0  0  0
 22 28  1  0  0  0
 22 32  2  0  0  0
 26 27  1  0  0  0
 28 96  1  0  0  0
 28 97  1  0  0  0
 29 98  1  0  0  0
 29 99  1  0  0  0
 33 34  1  0  0  0
 33 66  1  0  0  0
 33 70  2  0  0  0
 34 36  1  0  0  0
 34 59  1  0  0  0
 34100  1  0  0  0
 35 44  2  0  0  0
 35 45  1  0  0  0
 35 68  1  0  0  0
 36 56  1  0  0  0
 36101  1  0  0  0
 37 39  1  0  0  0
 37 47  1  0  0  0
 37 66  1  0  0  0
 37102  1  0  0  0
 38 43  2  0  0  0
 38 46  1  0  0  0
 38 47  1  0  0  0
 39 64  1  0  0  0
 39 67  2  0  0  0
 40 52  1  0  0  0
 40 53  2  0  0  0
 40 58  1  0  0  0
 41103  1  0  0  0
 41104  1  0  0  0
 41105  1  0  0  0
 41 48  1  0  0  0
 42 43  1  0  0  0
 42 66  1  0  0  0
 42106  1  0  0  0
 42107  1  0  0  0
 43 44  1  0  0  0
 44108  1  0  0  0
 45 46  2  0  0  0
 45109  1  0  0  0
 46110  1  0  0  0
 47111  1  0  0  0
 47112  1  0  0  0
 48 56  1  0  0  0
 48 65  1  0  0  0
 48113  1  0  0  0
 49 50  1  0  0  0
 49 53  1  0  0  0
 49 64  1  0  0  0
 49114  1  0  0  0
 50 51  1  0  0  0
 50115  1  0  0  0
 50116  1  0  0  0
 51 52  1  0  0  0
 51117  1  0  0  0
 51118  1  0  0  0
 52119  1  0  0  0
 52120  1  0  0  0
 53 54  1  0  0  0
 54 55  2  0  0  0
 54121  1  0  0  0
 55 57  1  0  0  0
 55122  1  0  0  0
 56 69  2  0  0  0
 57 58  2  0  0  0
 57123  1  0  0  0
 58124  1  0  0  0
 59 60  1  0  0  0
 59 61  1  0  0  0
 59 62  1  0  0  0
 60125  1  0  0  0
 60126  1  0  0  0
 60127  1  0  0  0
 61128  1  0  0  0
 61129  1  0  0  0
 61130  1  0  0  0
 62131  1  0  0  0
 62132  1  0  0  0
 62133  1  0  0  0
 63 65  1  0  0  0
 63134  1  0  0  0
 63135  1  0  0  0
 63136  1  0  0  0
 64137  1  0  0  0
 65138  1  0  0  0
 68 76  1  0  0  0
 71 78  1  0  0  0
 71139  1  0  0  0
 71140  1  0  0  0
 71 73  1  0  0  0
 72 73  1  0  0  0
 72 78  1  0  0  0
 72141  1  0  0  0
 72142  1  0  0  0
 73 79  1  0  0  0
 73143  1  0  0  0
 74144  1  0  0  0
 74145  1  0  0  0
 74146  1  0  0  0
 74 77  1  0  0  0
 75147  1  0  0  0
 75148  1  0  0  0
 75149  1  0  0  0
 75 79  1  0  0  0
 76 77  1  0  0  0
 76150  1  0  0  0
 76151  1  0  0  0
 77 79  1  0  0  0
 77152  1  0  0  0
 79153  1  0  0  0
M  CHG  1  79   1
M  ISO  4   1 100  68 101  76 101  78 100
M  END
> <chiral flag>
0

> <version>
0

> <s_m_source_file>
/data/baiqing/PycharmProjects/Reinvent-master-3.2/result/LINK_invent/BTK/process_docking_weight1_custom_sum_contain_oxygen_bond_distance_aromatic_linkinvent_7_9_3/rearranged_h_0184.sdf

> <i_m_source_file_index>
5

> <r_mmod_Potential_Energy-OPLS-2005>
1789.17846679688

> <r_mmod_Stretch_Energy-OPLS-2005>
770.460998535156

> <r_mmod_Bend_Energy-OPLS-2005>
574.645446777344

> <r_mmod_Torsional_Energy-OPLS-2005>
336.134918212891

> <r_mmod_Improper_Torsional_Energy-OPLS-2005>
11.6025037765503

> <r_mmod_Van_der_Waal_Energy-OPLS-2005>
101.260925292969

> <r_mmod_Electrostatic_Energy-OPLS-2005>
-192.61767578125

> <r_mmod_Solvation_Energy-OPLS-2005>
-456.945739746094

> <b_mmod_Minimization_Converged-OPLS-2005>
0

> <r_mmod_RMS_Derivative-OPLS-2005>
2.12130808830261

$$$$
5
                    3D
 Structure written by MMmdl.
157167  0  0  1  0            999 V2000
  -30.5219  -14.9685   20.3934 C   0  0  0  0  0  0
  -30.4353  -12.5912   19.5055 C   0  0  0  0  0  0
  -29.5363  -12.5488   18.2489 C   0  0  0  0  0  0
  -28.0564  -12.3525   18.6394 C   0  0  0  0  0  0
  -27.6258  -13.2610   19.8238 C   0  0  2  0  0  0
  -28.6624  -13.2870   20.9653 C   0  0  0  0  0  0
  -25.2427  -13.8201   20.5645 C   0  0  0  0  0  0
  -24.1777  -13.0396   20.9172 C   0  0  0  0  0  0
  -24.6411  -11.6897   20.8669 C   0  0  0  0  0  0
  -23.9095  -10.4275   21.0353 C   0  0  0  0  0  0
  -24.3642   -9.4209   21.9158 C   0  0  0  0  0  0
  -23.6316   -8.2249   22.0752 C   0  0  0  0  0  0
  -22.4300   -8.0273   21.3542 C   0  0  0  0  0  0
  -21.9924   -9.0238   20.4649 C   0  0  0  0  0  0
  -22.7244  -10.2115   20.3031 C   0  0  0  0  0  0
  -21.6859   -6.0741   22.5291 C   0  0  0  0  0  0
  -21.4025   -6.5646   23.8223 C   0  0  0  0  0  0
  -21.3654   -5.6792   24.9178 C   0  0  0  0  0  0
  -21.6045   -4.3054   24.7228 C   0  0  0  0  0  0
  -21.8811   -3.8154   23.4344 C   0  0  0  0  0  0
  -21.9189   -4.6969   22.3405 C   0  0  0  0  0  0
  -22.7801  -13.5175   21.1832 C   0  0  0  0  0  0
  -22.1657   -4.2151   21.0987 F   0  0  0  0  0  0
  -21.5622   -3.4541   25.7740 F   0  0  0  0  0  0
  -29.9422  -13.6990   20.3763 N   0  0  0  0  0  0
  -26.2853  -12.9474   20.3099 N   0  0  0  0  0  0
  -25.9345  -11.6579   20.5575 N   0  0  0  0  0  0
  -22.0445  -12.8199   22.0404 N   0  0  0  0  0  0
  -25.3994  -15.1941   20.4092 N   0  0  0  0  0  0
  -31.7248  -15.0327   20.1142 O   0  0  0  0  0  0
  -21.6656   -6.8881   21.4252 O   0  0  0  0  0  0
  -22.3493  -14.5487   20.6675 O   0  0  0  0  0  0
  -24.6496  -31.8404   23.1865 C   0  0  0  0  0  0
  -25.9234  -32.4677   23.8279 C   0  0  1  0  0  0
  -27.2033  -27.0845   20.1473 C   0  0  0  0  0  0
  -25.5954  -33.8485   24.2184 N   0  0  0  0  0  0
  -23.4541  -30.4618   21.5351 C   0  0  2  0  0  0
  -24.8970  -28.8796   20.1122 C   0  0  0  0  0  0
  -22.7596  -29.4533   22.4858 C   0  0  0  0  0  0
  -18.0308  -28.1389   22.8482 C   0  0  0  0  0  0
  -24.1478  -36.7242   23.2651 C   0  0  0  0  0  0
  -26.0161  -30.6915   21.3961 C   0  0  0  0  0  0
  -26.0798  -29.3013   20.7333 C   0  0  0  0  0  0
  -27.2337  -28.4212   20.7304 C   0  0  0  0  0  0
  -25.9928  -26.7788   19.4853 C   0  0  0  0  0  0
  -24.8689  -27.6334   19.4725 C   0  0  0  0  0  0
  -23.6801  -29.7933   20.1549 C   0  0  0  0  0  0
  -25.4116  -36.3028   24.0324 C   0  0  1  0  0  0
  -20.5925  -28.3723   23.1215 C   0  0  2  0  0  0
  -20.6788  -26.9415   22.5405 C   0  0  0  0  0  0
  -19.5758  -26.6368   21.5217 C   0  0  0  0  0  0
  -18.1943  -26.7927   22.1631 C   0  0  0  0  0  0
  -19.1572  -28.8877   23.2842 C   0  0  0  0  0  0
  -18.9483  -30.1472   23.8866 C   0  0  0  0  0  0
  -17.6480  -30.6587   24.0551 C   0  0  0  0  0  0
  -25.9081  -34.9402   23.5074 C   0  0  0  0  0  0
  -16.5366  -29.9070   23.6341 C   0  0  0  0  0  0
  -16.7299  -28.6486   23.0368 C   0  0  0  0  0  0
  -26.4520  -31.6568   25.0758 C   0  0  0  0  0  0
  -25.3682  -31.3781   26.1447 C   0  0  0  0  0  0
  -27.0398  -30.2950   24.6405 C   0  0  0  0  0  0
  -27.6048  -32.4349   25.7536 C   0  0  0  0  0  0
  -27.5574  -37.1779   24.8466 C   0  0  0  0  0  0
  -21.4284  -29.3046   22.3590 N   0  0  0  0  0  0
  -26.4283  -37.3743   23.9414 N   0  0  0  0  0  0
  -24.7274  -31.0202   22.0934 N   0  0  0  0  0  0
  -23.4218  -28.8095   23.3039 O   0  0  0  0  0  0
  -28.2374  -26.0639   20.2011 O   0  0  0  0  0  0
  -26.5675  -34.8897   22.4660 O   0  0  0  0  0  0
  -23.5605  -32.1317   23.7039 O   0  0  0  0  0  0
  -31.2911  -22.5464   20.0444 C   0  0  0  0  0  0
  -30.3216  -23.5631   20.0810 C   0  0  0  0  0  0
  -30.9621  -21.1688   20.1080 C   0  0  0  0  0  0
  -29.6058  -20.7721   20.2722 C   0  0  0  0  0  0
  -28.9663  -23.2494   20.2064 C   0  0  0  0  0  0
  -33.4699  -20.4875   19.4895 C   0  0  0  0  0  0
  -32.5331  -19.6305   18.6803 C   0  0  0  0  0  0
  -28.8478  -18.2884   19.3331 C   0  0  0  0  0  0
  -32.0829  -20.1641   20.0258 C   0  0  0  0  0  0
  -29.2421  -19.1456   20.4962 C   0  0  1  0  0  0
  -29.9901  -17.6566   20.1237 C   0  0  1  0  0  0
  -27.8944  -24.5214   20.1737 C   0  0  0  0  0  0
  -28.6499  -21.8473   20.3058 N   0  0  0  0  0  0
  -29.7235  -16.1527   20.4921 N   0  0  0  0  0  0
  -31.4791  -12.7234   19.2155 H   0  0  0  0  0  0
  -30.3975  -11.6385   20.0351 H   0  0  0  0  0  0
  -29.8574  -11.7542   17.5738 H   0  0  0  0  0  0
  -29.6540  -13.4802   17.6915 H   0  0  0  0  0  0
  -27.9119  -11.3035   18.8974 H   0  0  0  0  0  0
  -27.4215  -12.5377   17.7720 H   0  0  0  0  0  0
  -27.5834  -14.2683   19.4082 H   0  0  0  0  0  0
  -28.7404  -12.3104   21.4428 H   0  0  0  0  0  0
  -28.3571  -13.9900   21.7403 H   0  0  0  0  0  0
  -25.2781   -9.5710   22.4729 H   0  0  0  0  0  0
  -24.0013   -7.4662   22.7505 H   0  0  0  0  0  0
  -21.0833   -8.8746   19.8995 H   0  0  0  0  0  0
  -22.3666  -10.9643   19.6150 H   0  0  0  0  0  0
  -21.2036   -7.6155   23.9720 H   0  0  0  0  0  0
  -21.1482   -6.0531   25.9079 H   0  0  0  0  0  0
  -22.0596   -2.7613   23.2842 H   0  0  0  0  0  0
  -22.4050  -11.9904   22.4893 H   0  0  0  0  0  0
  -21.1064  -13.1266   22.2554 H   0  0  0  0  0  0
  -24.6095  -15.8224   20.5057 H   0  0  0  0  0  0
  -26.2257  -15.6513   20.0485 H   0  0  0  0  0  0
  -26.7307  -32.5235   23.1009 H   0  0  0  0  0  0
  -25.0033  -33.9584   25.0288 H   0  0  0  0  0  0
  -22.7607  -31.2914   21.3828 H   0  0  0  0  0  0
  -23.3754  -35.9557   23.3297 H   0  0  0  0  0  0
  -24.3568  -36.8895   22.2070 H   0  0  0  0  0  0
  -23.7213  -37.6427   23.6699 H   0  0  0  0  0  0
  -26.1879  -31.4411   20.6222 H   0  0  0  0  0  0
  -26.8815  -30.7340   22.0469 H   0  0  0  0  0  0
  -28.1339  -28.7393   21.2361 H   0  0  0  0  0  0
  -25.8703  -25.8355   18.9773 H   0  0  0  0  0  0
  -23.9673  -27.3071   18.9699 H   0  0  0  0  0  0
  -23.8238  -30.5699   19.4033 H   0  0  0  0  0  0
  -22.7889  -29.2461   19.8429 H   0  0  0  0  0  0
  -25.1297  -36.1868   25.0819 H   0  0  0  0  0  0
  -21.0023  -28.3311   24.1334 H   0  0  0  0  0  0
  -20.5661  -26.2343   23.3639 H   0  0  0  0  0  0
  -21.6653  -26.7400   22.1221 H   0  0  0  0  0  0
  -19.6915  -25.6270   21.1274 H   0  0  0  0  0  0
  -19.6690  -27.3153   20.6724 H   0  0  0  0  0  0
  -17.4213  -26.6679   21.4030 H   0  0  0  0  0  0
  -18.0329  -26.0076   22.9035 H   0  0  0  0  0  0
  -19.7960  -30.7298   24.2222 H   0  0  0  0  0  0
  -17.5029  -31.6269   24.5148 H   0  0  0  0  0  0
  -15.5365  -30.2955   23.7679 H   0  0  0  0  0  0
  -15.8703  -28.0787   22.7102 H   0  0  0  0  0  0
  -24.5836  -30.7164   25.7757 H   0  0  0  0  0  0
  -24.8898  -32.2974   26.4837 H   0  0  0  0  0  0
  -25.7935  -30.8963   27.0263 H   0  0  0  0  0  0
  -26.3046  -29.6669   24.1367 H   0  0  0  0  0  0
  -27.3922  -29.7262   25.5022 H   0  0  0  0  0  0
  -27.8989  -30.4161   23.9802 H   0  0  0  0  0  0
  -27.2635  -33.3663   26.2062 H   0  0  0  0  0  0
  -28.3868  -32.6900   25.0372 H   0  0  0  0  0  0
  -28.0712  -31.8530   26.5497 H   0  0  0  0  0  0
  -28.2585  -38.0082   24.7516 H   0  0  0  0  0  0
  -28.1075  -36.2616   24.6279 H   0  0  0  0  0  0
  -27.2302  -37.1412   25.8872 H   0  0  0  0  0  0
  -20.9503  -29.8744   21.6750 H   0  0  0  0  0  0
  -26.0151  -38.2815   24.1412 H   0  0  0  0  0  0
  -32.3218  -22.8527   19.9673 H   0  0  0  0  0  0
  -30.6263  -24.5978   20.0006 H   0  0  0  0  0  0
  -33.6932  -21.4658   19.0700 H   0  0  0  0  0  0
  -34.3217  -19.9735   19.9314 H   0  0  0  0  0  0
  -32.8020  -18.5796   18.5942 H   0  0  0  0  0  0
  -32.1050  -20.0755   17.7837 H   0  0  0  0  0  0
  -29.0964  -18.6417   18.3342 H   0  0  0  0  0  0
  -27.8584  -17.8389   19.4033 H   0  0  0  0  0  0
  -32.0475  -19.4814   20.8730 H   0  0  0  0  0  0
  -28.5912  -19.1051   21.3664 H   0  0  0  0  0  0
  -30.9669  -17.7678   19.6691 H   0  0  0  0  0  0
  -27.2004  -24.3477   20.9964 H   0  0  0  0  0  0
  -27.3187  -24.3313   19.2706 H   0  0  0  0  0  0
  -28.7642  -15.9585   20.7309 H   0  0  0  0  0  0
  1 25  1  0  0  0
  1 30  2  0  0  0
  1 84  1  0  0  0
  2  3  1  0  0  0
  2 25  1  0  0  0
  2 85  1  0  0  0
  2 86  1  0  0  0
  3  4  1  0  0  0
  3 87  1  0  0  0
  3 88  1  0  0  0
  4  5  1  0  0  0
  4 89  1  0  0  0
  4 90  1  0  0  0
  5  6  1  0  0  0
  5 26  1  0  0  0
  5 91  1  0  0  0
  6 25  1  0  0  0
  6 92  1  0  0  0
  6 93  1  0  0  0
  7  8  2  0  0  0
  7 26  1  0  0  0
  7 29  1  0  0  0
  8  9  1  0  0  0
  8 22  1  0  0  0
  9 10  1  0  0  0
  9 27  2  0  0  0
 10 11  2  0  0  0
 10 15  1  0  0  0
 11 12  1  0  0  0
 11 94  1  0  0  0
 12 13  2  0  0  0
 12 95  1  0  0  0
 13 14  1  0  0  0
 13 31  1  0  0  0
 14 15  2  0  0  0
 14 96  1  0  0  0
 15 97  1  0  0  0
 16 17  2  0  0  0
 16 21  1  0  0  0
 16 31  1  0  0  0
 17 18  1  0  0  0
 17 98  1  0  0  0
 18 19  2  0  0  0
 18 99  1  0  0  0
 19 20  1  0  0  0
 19 24  1  0  0  0
 20 21  2  0  0  0
 20100  1  0  0  0
 21 23  1  0  0  0
 22 28  1  0  0  0
 22 32  2  0  0  0
 26 27  1  0  0  0
 28101  1  0  0  0
 28102  1  0  0  0
 29103  1  0  0  0
 29104  1  0  0  0
 33 34  1  0  0  0
 33 66  1  0  0  0
 33 70  2  0  0  0
 34 36  1  0  0  0
 34 59  1  0  0  0
 34105  1  0  0  0
 35 44  2  0  0  0
 35 45  1  0  0  0
 35 68  1  0  0  0
 36 56  1  0  0  0
 36106  1  0  0  0
 37 39  1  0  0  0
 37 47  1  0  0  0
 37 66  1  0  0  0
 37107  1  0  0  0
 38 43  2  0  0  0
 38 46  1  0  0  0
 38 47  1  0  0  0
 39 64  1  0  0  0
 39 67  2  0  0  0
 40 52  1  0  0  0
 40 53  2  0  0  0
 40 58  1  0  0  0
 41108  1  0  0  0
 41109  1  0  0  0
 41110  1  0  0  0
 41 48  1  0  0  0
 42 43  1  0  0  0
 42 66  1  0  0  0
 42111  1  0  0  0
 42112  1  0  0  0
 43 44  1  0  0  0
 44113  1  0  0  0
 45 46  2  0  0  0
 45114  1  0  0  0
 46115  1  0  0  0
 47116  1  0  0  0
 47117  1  0  0  0
 48 56  1  0  0  0
 48 65  1  0  0  0
 48118  1  0  0  0
 49 50  1  0  0  0
 49 53  1  0  0  0
 49 64  1  0  0  0
 49119  1  0  0  0
 50 51  1  0  0  0
 50120  1  0  0  0
 50121  1  0  0  0
 51 52  1  0  0  0
 51122  1  0  0  0
 51123  1  0  0  0
 52124  1  0  0  0
 52125  1  0  0  0
 53 54  1  0  0  0
 54 55  2  0  0  0
 54126  1  0  0  0
 55 57  1  0  0  0
 55127  1  0  0  0
 56 69  2  0  0  0
 57 58  2  0  0  0
 57128  1  0  0  0
 58129  1  0  0  0
 59 60  1  0  0  0
 59 61  1  0  0  0
 59 62  1  0  0  0
 60130  1  0  0  0
 60131  1  0  0  0
 60132  1  0  0  0
 61133  1  0  0  0
 61134  1  0  0  0
 61135  1  0  0  0
 62136  1  0  0  0
 62137  1  0  0  0
 62138  1  0  0  0
 63 65  1  0  0  0
 63139  1  0  0  0
 63140  1  0  0  0
 63141  1  0  0  0
 64142  1  0  0  0
 65143  1  0  0  0
 68 82  1  0  0  0
 71 72  2  0  0  0
 71 73  1  0  0  0
 71144  1  0  0  0
 72 75  1  0  0  0
 72145  1  0  0  0
 73 74  2  0  0  0
 73 79  1  0  0  0
 74 83  1  0  0  0
 74 80  1  0  0  0
 75 82  1  0  0  0
 75 83  2  0  0  0
 76 77  1  0  0  0
 76 79  1  0  0  0
 76146  1  0  0  0
 76147  1  0  0  0
 77 79  1  0  0  0
 77148  1  0  0  0
 77149  1  0  0  0
 78 80  1  0  0  0
 78 81  1  0  0  0
 78150  1  0  0  0
 78151  1  0  0  0
 79152  1  0  0  0
 80 81  1  0  0  0
 80153  1  0  0  0
 81 84  1  0  0  0
 81154  1  0  0  0
 82155  1  0  0  0
 82156  1  0  0  0
 84157  1  0  0  0
M  ISO  4   1 100  68 101  82 101  84 100
M  END
> <chiral flag>
0

> <version>
0

> <s_m_source_file>
/data/baiqing/PycharmProjects/Reinvent-master-3.2/result/LINK_invent/BTK/process_docking_weight1_custom_sum_contain_oxygen_bond_distance_aromatic_linkinvent_7_9_3/rearranged_h_0184.sdf

> <i_m_source_file_index>
6

> <r_mmod_Potential_Energy-OPLS-2005>
555.476684570312

> <r_mmod_Stretch_Energy-OPLS-2005>
320.393005371094

> <r_mmod_Bend_Energy-OPLS-2005>
263.023712158203

> <r_mmod_Torsional_Energy-OPLS-2005>
288.427398681641

> <r_mmod_Improper_Torsional_Energy-OPLS-2005>
5.66334819793701

> <r_mmod_Van_der_Waal_Energy-OPLS-2005>
130.554107666016

> <r_mmod_Electrostatic_Energy-OPLS-2005>
-447.875793457031

> <r_mmod_Solvation_Energy-OPLS-2005>
-228.359237670898

> <b_mmod_Minimization_Converged-OPLS-2005>
0

> <r_mmod_RMS_Derivative-OPLS-2005>
2.9016261100769

$$$$
6
                    3D
 Structure written by MMmdl.
158167  0  0  1  0            999 V2000
  -30.6031  -14.9804   20.4488 C   0  0  0  0  0  0
  -30.4268  -12.6090   19.5390 C   0  0  0  0  0  0
  -29.5330  -12.5550   18.2806 C   0  0  0  0  0  0
  -28.0603  -12.3647   18.6765 C   0  0  0  0  0  0
  -27.6387  -13.2753   19.8599 C   0  0  2  0  0  0
  -28.6778  -13.3315   21.0052 C   0  0  0  0  0  0
  -25.2483  -13.8278   20.5757 C   0  0  0  0  0  0
  -24.1835  -13.0467   20.9220 C   0  0  0  0  0  0
  -24.6474  -11.6949   20.8767 C   0  0  0  0  0  0
  -23.9145  -10.4322   21.0419 C   0  0  0  0  0  0
  -24.3676   -9.4219   21.9189 C   0  0  0  0  0  0
  -23.6336   -8.2265   22.0751 C   0  0  0  0  0  0
  -22.4318   -8.0308   21.3547 C   0  0  0  0  0  0
  -21.9955   -9.0302   20.4671 C   0  0  0  0  0  0
  -22.7298  -10.2173   20.3075 C   0  0  0  0  0  0
  -21.6865   -6.0753   22.5272 C   0  0  0  0  0  0
  -21.4031   -6.5653   23.8206 C   0  0  0  0  0  0
  -21.3663   -5.6790   24.9161 C   0  0  0  0  0  0
  -21.6038   -4.3055   24.7209 C   0  0  0  0  0  0
  -21.8824   -3.8162   23.4327 C   0  0  0  0  0  0
  -21.9219   -4.6983   22.3392 C   0  0  0  0  0  0
  -22.7850  -13.5221   21.1872 C   0  0  0  0  0  0
  -22.1688   -4.2171   21.0973 F   0  0  0  0  0  0
  -21.5624   -3.4534   25.7724 F   0  0  0  0  0  0
  -29.9569  -13.7355   20.4126 N   0  0  0  0  0  0
  -26.2970  -12.9572   20.3374 N   0  0  0  0  0  0
  -25.9429  -11.6660   20.5801 N   0  0  0  0  0  0
  -22.0482  -12.8239   22.0428 N   0  0  0  0  0  0
  -25.4119  -15.2004   20.4203 N   0  0  0  0  0  0
  -31.7528  -14.9702   19.9897 O   0  0  0  0  0  0
  -21.6667   -6.8906   21.4238 O   0  0  0  0  0  0
  -22.3526  -14.5525   20.6688 O   0  0  0  0  0  0
  -24.6474  -31.8360   23.1762 C   0  0  0  0  0  0
  -25.9232  -32.4637   23.8173 C   0  0  1  0  0  0
  -27.2205  -27.0768   20.1816 C   0  0  0  0  0  0
  -25.5963  -33.8441   24.2118 N   0  0  0  0  0  0
  -23.4544  -30.4464   21.5218 C   0  0  2  0  0  0
  -24.9071  -28.8540   20.1013 C   0  0  0  0  0  0
  -22.7567  -29.4494   22.4822 C   0  0  0  0  0  0
  -18.0291  -28.1398   22.8442 C   0  0  0  0  0  0
  -24.1505  -36.7242   23.2638 C   0  0  0  0  0  0
  -26.0064  -30.6933   21.3767 C   0  0  0  0  0  0
  -26.0780  -29.2941   20.7292 C   0  0  0  0  0  0
  -27.2282  -28.4171   20.7572 C   0  0  0  0  0  0
  -26.0379  -26.7467   19.4911 C   0  0  0  0  0  0
  -24.9035  -27.5980   19.4641 C   0  0  0  0  0  0
  -23.6830  -29.7596   20.1449 C   0  0  0  0  0  0
  -25.4133  -36.2998   24.0308 C   0  0  1  0  0  0
  -20.5903  -28.3706   23.1226 C   0  0  2  0  0  0
  -20.6772  -26.9419   22.5370 C   0  0  0  0  0  0
  -19.5762  -26.6434   21.5140 C   0  0  0  0  0  0
  -18.1931  -26.7954   22.1527 C   0  0  0  0  0  0
  -19.1553  -28.8862   23.2841 C   0  0  0  0  0  0
  -18.9478  -30.1443   23.8894 C   0  0  0  0  0  0
  -17.6476  -30.6575   24.0587 C   0  0  0  0  0  0
  -25.9085  -34.9378   23.5032 C   0  0  0  0  0  0
  -16.5363  -29.9081   23.6345 C   0  0  0  0  0  0
  -16.7278  -28.6508   23.0340 C   0  0  0  0  0  0
  -26.4560  -31.6497   25.0620 C   0  0  0  0  0  0
  -25.3746  -31.3695   26.1317 C   0  0  0  0  0  0
  -27.0430  -30.2892   24.6195 C   0  0  0  0  0  0
  -27.6085  -32.4261   25.7419 C   0  0  0  0  0  0
  -27.5570  -37.1772   24.8464 C   0  0  0  0  0  0
  -21.4245  -29.3033   22.3590 N   0  0  0  0  0  0
  -26.4282  -37.3724   23.9405 N   0  0  0  0  0  0
  -24.7226  -31.0166   22.0808 N   0  0  0  0  0  0
  -23.4169  -28.8076   23.3028 O   0  0  0  0  0  0
  -28.2591  -26.0896   20.3932 O   0  0  0  0  0  0
  -26.5680  -34.8905   22.4616 O   0  0  0  0  0  0
  -23.5587  -32.1262   23.6978 O   0  0  0  0  0  0
  -29.0063  -21.9232   20.5112 C   0  0  0  0  0  0
  -28.5581  -20.5027   20.4112 C   0  0  0  0  0  0
  -28.1562  -23.0953   20.1389 C   0  0  0  0  0  0
  -26.5664  -21.4643   19.6479 C   0  0  0  0  0  0
  -29.0807  -19.0692   21.0630 C   0  0  0  0  0  0
  -31.3795  -17.8658   20.9039 C   0  0  0  0  0  0
  -31.0021  -16.7962   21.9384 C   0  0  0  0  0  0
  -29.9477  -17.7581   20.4053 C   0  0  1  0  0  0
  -25.1490  -21.1863   19.1942 C   0  0  0  0  0  0
  -27.8994  -19.6820   23.0473 C   0  0  0  0  0  0
  -28.5513  -24.6802   19.7496 C   0  0  0  0  0  0
  -27.2997  -20.3904   19.9315 N   0  0  0  0  0  0
  -26.9167  -22.7508   19.7332 N   0  0  0  0  0  0
  -28.7277  -18.7883   22.2645 N   0  0  0  0  0  0
  -30.0469  -16.2204   20.9506 N   0  0  0  0  0  0
  -31.4718  -12.7100   19.2460 H   0  0  0  0  0  0
  -30.3785  -11.6618   20.0810 H   0  0  0  0  0  0
  -29.8507  -11.7437   17.6229 H   0  0  0  0  0  0
  -29.6529  -13.4775   17.7105 H   0  0  0  0  0  0
  -27.9215  -11.3174   18.9414 H   0  0  0  0  0  0
  -27.4168  -12.5501   17.8161 H   0  0  0  0  0  0
  -27.5959  -14.2825   19.4433 H   0  0  0  0  0  0
  -28.7670  -12.3725   21.5154 H   0  0  0  0  0  0
  -28.3792  -14.0623   21.7599 H   0  0  0  0  0  0
  -25.2807   -9.5697   22.4762 H   0  0  0  0  0  0
  -24.0054   -7.4646   22.7456 H   0  0  0  0  0  0
  -21.0869   -8.8829   19.8987 H   0  0  0  0  0  0
  -22.3734  -10.9727   19.6213 H   0  0  0  0  0  0
  -21.2012   -7.6148   23.9711 H   0  0  0  0  0  0
  -21.1480   -6.0517   25.9060 H   0  0  0  0  0  0
  -22.0604   -2.7624   23.2811 H   0  0  0  0  0  0
  -22.4105  -11.9960   22.4929 H   0  0  0  0  0  0
  -21.1085  -13.1274   22.2566 H   0  0  0  0  0  0
  -24.6469  -15.8510   20.5597 H   0  0  0  0  0  0
  -26.2710  -15.6526   20.1345 H   0  0  0  0  0  0
  -26.7268  -32.5243   23.0880 H   0  0  0  0  0  0
  -25.0095  -33.9513   25.0256 H   0  0  0  0  0  0
  -22.7609  -31.2721   21.3556 H   0  0  0  0  0  0
  -23.3753  -35.9584   23.3296 H   0  0  0  0  0  0
  -24.3592  -36.8878   22.2049 H   0  0  0  0  0  0
  -23.7280  -37.6445   23.6685 H   0  0  0  0  0  0
  -26.1514  -31.4356   20.5903 H   0  0  0  0  0  0
  -26.8803  -30.7602   22.0111 H   0  0  0  0  0  0
  -28.1109  -28.7391   21.2919 H   0  0  0  0  0  0
  -25.9613  -25.7733   19.0271 H   0  0  0  0  0  0
  -24.0099  -27.2518   18.9643 H   0  0  0  0  0  0
  -23.8162  -30.5243   19.3778 H   0  0  0  0  0  0
  -22.7997  -29.1943   19.8426 H   0  0  0  0  0  0
  -25.1328  -36.1802   25.0797 H   0  0  0  0  0  0
  -20.9996  -28.3279   24.1353 H   0  0  0  0  0  0
  -20.5665  -26.2288   23.3557 H   0  0  0  0  0  0
  -21.6634  -26.7444   22.1180 H   0  0  0  0  0  0
  -19.6960  -25.6378   21.1093 H   0  0  0  0  0  0
  -19.6723  -27.3313   20.6725 H   0  0  0  0  0  0
  -17.4240  -26.6762   21.3884 H   0  0  0  0  0  0
  -18.0295  -26.0052   22.8875 H   0  0  0  0  0  0
  -19.7964  -30.7248   24.2272 H   0  0  0  0  0  0
  -17.5039  -31.6238   24.5221 H   0  0  0  0  0  0
  -15.5359  -30.2990   23.7683 H   0  0  0  0  0  0
  -15.8671  -28.0842   22.7055 H   0  0  0  0  0  0
  -24.5951  -30.7012   25.7643 H   0  0  0  0  0  0
  -24.8908  -32.2877   26.4652 H   0  0  0  0  0  0
  -25.8033  -30.8932   27.0139 H   0  0  0  0  0  0
  -26.3025  -29.6585   24.1250 H   0  0  0  0  0  0
  -27.4112  -29.7218   25.4748 H   0  0  0  0  0  0
  -27.8911  -30.4134   23.9450 H   0  0  0  0  0  0
  -27.2689  -33.3613   26.1890 H   0  0  0  0  0  0
  -28.3964  -32.6716   25.0279 H   0  0  0  0  0  0
  -28.0667  -31.8424   26.5409 H   0  0  0  0  0  0
  -28.2582  -38.0074   24.7509 H   0  0  0  0  0  0
  -28.1073  -36.2602   24.6307 H   0  0  0  0  0  0
  -27.2288  -37.1442   25.8867 H   0  0  0  0  0  0
  -20.9467  -29.8695   21.6724 H   0  0  0  0  0  0
  -26.0140  -38.2790   24.1392 H   0  0  0  0  0  0
  -30.0101  -22.1039   20.8698 H   0  0  0  0  0  0
  -32.1083  -17.5275   20.1653 H   0  0  0  0  0  0
  -31.6797  -18.8276   21.3246 H   0  0  0  0  0  0
  -31.8660  -16.1901   22.2236 H   0  0  0  0  0  0
  -30.5428  -17.1701   22.8543 H   0  0  0  0  0  0
  -29.9002  -17.8170   19.3182 H   0  0  0  0  0  0
  -24.4495  -21.4340   19.9925 H   0  0  0  0  0  0
  -25.0042  -20.1361   18.9341 H   0  0  0  0  0  0
  -24.8922  -21.7845   18.3196 H   0  0  0  0  0  0
  -26.8680  -19.6693   22.6889 H   0  0  0  0  0  0
  -28.2582  -20.7119   23.0402 H   0  0  0  0  0  0
  -27.8791  -19.3562   24.0887 H   0  0  0  0  0  0
  -28.2840  -24.7899   18.6992 H   0  0  0  0  0  0
  -29.6408  -24.6505   19.7443 H   0  0  0  0  0  0
  1 25  1  0  0  0
  1 30  2  0  0  0
  1 85  1  0  0  0
  2  3  1  0  0  0
  2 25  1  0  0  0
  2 86  1  0  0  0
  2 87  1  0  0  0
  3  4  1  0  0  0
  3 88  1  0  0  0
  3 89  1  0  0  0
  4  5  1  0  0  0
  4 90  1  0  0  0
  4 91  1  0  0  0
  5  6  1  0  0  0
  5 26  1  0  0  0
  5 92  1  0  0  0
  6 25  1  0  0  0
  6 93  1  0  0  0
  6 94  1  0  0  0
  7  8  2  0  0  0
  7 26  1  0  0  0
  7 29  1  0  0  0
  8  9  1  0  0  0
  8 22  1  0  0  0
  9 10  1  0  0  0
  9 27  2  0  0  0
 10 11  2  0  0  0
 10 15  1  0  0  0
 11 12  1  0  0  0
 11 95  1  0  0  0
 12 13  2  0  0  0
 12 96  1  0  0  0
 13 14  1  0  0  0
 13 31  1  0  0  0
 14 15  2  0  0  0
 14 97  1  0  0  0
 15 98  1  0  0  0
 16 17  2  0  0  0
 16 21  1  0  0  0
 16 31  1  0  0  0
 17 18  1  0  0  0
 17 99  1  0  0  0
 18 19  2  0  0  0
 18100  1  0  0  0
 19 20  1  0  0  0
 19 24  1  0  0  0
 20 21  2  0  0  0
 20101  1  0  0  0
 21 23  1  0  0  0
 22 28  1  0  0  0
 22 32  2  0  0  0
 26 27  1  0  0  0
 28102  1  0  0  0
 28103  1  0  0  0
 29104  1  0  0  0
 29105  1  0  0  0
 33 34  1  0  0  0
 33 66  1  0  0  0
 33 70  2  0  0  0
 34 36  1  0  0  0
 34 59  1  0  0  0
 34106  1  0  0  0
 35 44  2  0  0  0
 35 45  1  0  0  0
 35 68  1  0  0  0
 36 56  1  0  0  0
 36107  1  0  0  0
 37 39  1  0  0  0
 37 47  1  0  0  0
 37 66  1  0  0  0
 37108  1  0  0  0
 38 43  2  0  0  0
 38 46  1  0  0  0
 38 47  1  0  0  0
 39 64  1  0  0  0
 39 67  2  0  0  0
 40 52  1  0  0  0
 40 53  2  0  0  0
 40 58  1  0  0  0
 41109  1  0  0  0
 41110  1  0  0  0
 41111  1  0  0  0
 41 48  1  0  0  0
 42 43  1  0  0  0
 42 66  1  0  0  0
 42112  1  0  0  0
 42113  1  0  0  0
 43 44  1  0  0  0
 44114  1  0  0  0
 45 46  2  0  0  0
 45115  1  0  0  0
 46116  1  0  0  0
 47117  1  0  0  0
 47118  1  0  0  0
 48 56  1  0  0  0
 48 65  1  0  0  0
 48119  1  0  0  0
 49 50  1  0  0  0
 49 53  1  0  0  0
 49 64  1  0  0  0
 49120  1  0  0  0
 50 51  1  0  0  0
 50121  1  0  0  0
 50122  1  0  0  0
 51 52  1  0  0  0
 51123  1  0  0  0
 51124  1  0  0  0
 52125  1  0  0  0
 52126  1  0  0  0
 53 54  1  0  0  0
 54 55  2  0  0  0
 54127  1  0  0  0
 55 57  1  0  0  0
 55128  1  0  0  0
 56 69  2  0  0  0
 57 58  2  0  0  0
 57129  1  0  0  0
 58130  1  0  0  0
 59 60  1  0  0  0
 59 61  1  0  0  0
 59 62  1  0  0  0
 60131  1  0  0  0
 60132  1  0  0  0
 60133  1  0  0  0
 61134  1  0  0  0
 61135  1  0  0  0
 61136  1  0  0  0
 62137  1  0  0  0
 62138  1  0  0  0
 62139  1  0  0  0
 63 65  1  0  0  0
 63140  1  0  0  0
 63141  1  0  0  0
 63142  1  0  0  0
 64143  1  0  0  0
 65144  1  0  0  0
 68 81  1  0  0  0
 71 72  2  0  0  0
 71 73  1  0  0  0
 71145  1  0  0  0
 72 75  1  0  0  0
 72 82  1  0  0  0
 73 81  1  0  0  0
 73 83  2  0  0  0
 74 79  1  0  0  0
 74 82  2  0  0  0
 74 83  1  0  0  0
 75 84  2  0  0  0
 75 78  1  0  0  0
 76 77  1  0  0  0
 76 78  1  0  0  0
 76146  1  0  0  0
 76147  1  0  0  0
 77 85  1  0  0  0
 77148  1  0  0  0
 77149  1  0  0  0
 78 85  1  0  0  0
 78150  1  0  0  0
 79151  1  0  0  0
 79152  1  0  0  0
 79153  1  0  0  0
 80 84  1  0  0  0
 80154  1  0  0  0
 80155  1  0  0  0
 80156  1  0  0  0
 81157  1  0  0  0
 81158  1  0  0  0
M  ISO  4   1 100  68 101  81 101  85 100
M  END
> <chiral flag>
0

> <version>
0

> <s_m_source_file>
/data/baiqing/PycharmProjects/Reinvent-master-3.2/result/LINK_invent/BTK/process_docking_weight1_custom_sum_contain_oxygen_bond_distance_aromatic_linkinvent_7_9_3/rearranged_h_0184.sdf

> <i_m_source_file_index>
7

> <r_mmod_Potential_Energy-OPLS-2005>
548.828369140625

> <r_mmod_Stretch_Energy-OPLS-2005>
351.006134033203

> <r_mmod_Bend_Energy-OPLS-2005>
401.777313232422

> <r_mmod_Torsional_Energy-OPLS-2005>
287.856750488281

> <r_mmod_Improper_Torsional_Energy-OPLS-2005>
14.5140419006348

> <r_mmod_Van_der_Waal_Energy-OPLS-2005>
158.996185302734

> <r_mmod_Electrostatic_Energy-OPLS-2005>
-675.246154785156

> <r_mmod_Solvation_Energy-OPLS-2005>
-223.579193115234

> <b_mmod_Minimization_Converged-OPLS-2005>
0

> <r_mmod_RMS_Derivative-OPLS-2005>
3.90110993385315

$$$$
7
                    3D
 Structure written by MMmdl.
158168  0  0  1  0            999 V2000
  -30.5797  -14.9620   20.4289 C   0  0  0  0  0  0
  -30.4302  -12.6054   19.4831 C   0  0  0  0  0  0
  -29.5076  -12.5643   18.2432 C   0  0  0  0  0  0
  -28.0388  -12.3699   18.6558 C   0  0  0  0  0  0
  -27.6304  -13.2673   19.8520 C   0  0  2  0  0  0
  -28.6856  -13.2763   20.9743 C   0  0  0  0  0  0
  -25.2438  -13.8244   20.5754 C   0  0  0  0  0  0
  -24.1781  -13.0432   20.9225 C   0  0  0  0  0  0
  -24.6443  -11.6933   20.8774 C   0  0  0  0  0  0
  -23.9122  -10.4294   21.0409 C   0  0  0  0  0  0
  -24.3653   -9.4197   21.9193 C   0  0  0  0  0  0
  -23.6299   -8.2250   22.0788 C   0  0  0  0  0  0
  -22.4275   -8.0300   21.3570 C   0  0  0  0  0  0
  -21.9920   -9.0271   20.4664 C   0  0  0  0  0  0
  -22.7288  -10.2126   20.3058 C   0  0  0  0  0  0
  -21.6869   -6.0724   22.5266 C   0  0  0  0  0  0
  -21.4044   -6.5635   23.8193 C   0  0  0  0  0  0
  -21.3650   -5.6790   24.9149 C   0  0  0  0  0  0
  -21.6037   -4.3047   24.7207 C   0  0  0  0  0  0
  -21.8817   -3.8128   23.4328 C   0  0  0  0  0  0
  -21.9198   -4.6946   22.3387 C   0  0  0  0  0  0
  -22.7794  -13.5197   21.1812 C   0  0  0  0  0  0
  -22.1663   -4.2149   21.0957 F   0  0  0  0  0  0
  -21.5604   -3.4533   25.7704 F   0  0  0  0  0  0
  -29.9489  -13.7138   20.3627 N   0  0  0  0  0  0
  -26.2912  -12.9536   20.3345 N   0  0  0  0  0  0
  -25.9385  -11.6631   20.5785 N   0  0  0  0  0  0
  -22.0411  -12.8238   22.0376 N   0  0  0  0  0  0
  -25.3988  -15.2001   20.4181 N   0  0  0  0  0  0
  -31.7801  -14.9614   20.1207 O   0  0  0  0  0  0
  -21.6648   -6.8885   21.4240 O   0  0  0  0  0  0
  -22.3482  -14.5494   20.6604 O   0  0  0  0  0  0
  -24.6520  -31.8417   23.1895 C   0  0  0  0  0  0
  -25.9270  -32.4691   23.8273 C   0  0  1  0  0  0
  -27.1916  -27.0921   20.1154 C   0  0  0  0  0  0
  -25.6030  -33.8497   24.2195 N   0  0  0  0  0  0
  -23.4520  -30.4679   21.5398 C   0  0  2  0  0  0
  -24.8932  -28.8974   20.1120 C   0  0  0  0  0  0
  -22.7609  -29.4542   22.4876 C   0  0  0  0  0  0
  -18.0299  -28.1441   22.8520 C   0  0  0  0  0  0
  -24.1489  -36.7226   23.2635 C   0  0  0  0  0  0
  -26.0169  -30.6971   21.3951 C   0  0  0  0  0  0
  -26.0798  -29.3072   20.7342 C   0  0  0  0  0  0
  -27.2304  -28.4188   20.7247 C   0  0  0  0  0  0
  -25.9676  -26.8055   19.4651 C   0  0  0  0  0  0
  -24.8530  -27.6598   19.4662 C   0  0  0  0  0  0
  -23.6772  -29.8079   20.1559 C   0  0  0  0  0  0
  -25.4132  -36.3026   24.0305 C   0  0  1  0  0  0
  -20.5910  -28.3781   23.1233 C   0  0  2  0  0  0
  -20.6820  -26.9496   22.5397 C   0  0  0  0  0  0
  -19.5736  -26.6409   21.5258 C   0  0  0  0  0  0
  -18.1948  -26.7959   22.1732 C   0  0  0  0  0  0
  -19.1552  -28.8941   23.2844 C   0  0  0  0  0  0
  -18.9474  -30.1523   23.8878 C   0  0  0  0  0  0
  -17.6480  -30.6655   24.0575 C   0  0  0  0  0  0
  -25.9101  -34.9413   23.5051 C   0  0  0  0  0  0
  -16.5361  -29.9143   23.6402 C   0  0  0  0  0  0
  -16.7282  -28.6544   23.0431 C   0  0  0  0  0  0
  -26.4561  -31.6576   25.0732 C   0  0  0  0  0  0
  -25.3717  -31.3778   26.1403 C   0  0  0  0  0  0
  -27.0435  -30.2979   24.6329 C   0  0  0  0  0  0
  -27.6088  -32.4320   25.7554 C   0  0  0  0  0  0
  -27.5570  -37.1782   24.8478 C   0  0  0  0  0  0
  -21.4287  -29.3118   22.3658 N   0  0  0  0  0  0
  -26.4288  -37.3754   23.9410 N   0  0  0  0  0  0
  -24.7284  -31.0230   22.0965 N   0  0  0  0  0  0
  -23.4260  -28.8028   23.2975 O   0  0  0  0  0  0
  -28.2052  -26.0439   20.1366 O   0  0  0  0  0  0
  -26.5641  -34.8918   22.4601 O   0  0  0  0  0  0
  -23.5623  -32.1296   23.7090 O   0  0  0  0  0  0
  -28.7409  -22.3560   21.1590 C   0  0  0  0  0  0
  -28.5499  -23.0820   19.9368 C   0  0  0  0  0  0
  -28.7574  -22.1488   18.8430 C   0  0  0  0  0  0
  -29.2059  -20.2121   20.1967 C   0  0  0  0  0  0
  -30.4158  -17.2290   22.5727 C   0  0  0  0  0  0
  -31.2827  -17.8931   21.4838 C   0  0  0  0  0  0
  -28.4295  -18.0283   21.3011 C   0  0  0  0  0  0
  -29.2188  -16.7430   21.7324 C   0  0  1  0  0  0
  -30.3944  -17.6734   20.2349 C   0  0  2  0  0  0
  -28.4925  -22.5319   17.3805 C   0  0  0  0  0  0
  -27.7813  -24.5608   19.8238 C   0  0  0  0  0  0
  -29.0282  -20.9981   21.2757 N   0  0  0  0  0  0
  -29.0915  -20.7996   18.9905 N   0  0  0  0  0  0
  -29.2668  -18.7231   20.3215 N   0  0  0  0  0  0
  -29.8851  -16.2241   20.5254 N   0  0  0  0  0  0
  -31.4614  -12.7490   19.1572 H   0  0  0  0  0  0
  -30.4153  -11.6495   20.0079 H   0  0  0  0  0  0
  -29.8124  -11.7691   17.5616 H   0  0  0  0  0  0
  -29.6135  -13.4955   17.6817 H   0  0  0  0  0  0
  -27.9046  -11.3197   18.9137 H   0  0  0  0  0  0
  -27.3812  -12.5697   17.8100 H   0  0  0  0  0  0
  -27.5940  -14.2831   19.4583 H   0  0  0  0  0  0
  -28.7857  -12.2885   21.4229 H   0  0  0  0  0  0
  -28.3894  -13.9470   21.7774 H   0  0  0  0  0  0
  -25.2771   -9.5660   22.4804 H   0  0  0  0  0  0
  -23.9970   -7.4651   22.7533 H   0  0  0  0  0  0
  -21.0855   -8.8811   19.8990 H   0  0  0  0  0  0
  -22.3754  -10.9678   19.6191 H   0  0  0  0  0  0
  -21.2087   -7.6159   23.9704 H   0  0  0  0  0  0
  -21.1470   -6.0515   25.9062 H   0  0  0  0  0  0
  -22.0616   -2.7607   23.2813 H   0  0  0  0  0  0
  -22.4008  -11.9954   22.4867 H   0  0  0  0  0  0
  -21.1035  -13.1310   22.2521 H   0  0  0  0  0  0
  -24.6101  -15.8325   20.5082 H   0  0  0  0  0  0
  -26.2325  -15.6502   20.0620 H   0  0  0  0  0  0
  -26.7328  -32.5287   23.0980 H   0  0  0  0  0  0
  -25.0311  -33.9610   25.0432 H   0  0  0  0  0  0
  -22.7584  -31.2974   21.3915 H   0  0  0  0  0  0
  -23.3781  -35.9523   23.3265 H   0  0  0  0  0  0
  -24.3577  -36.8892   22.2060 H   0  0  0  0  0  0
  -23.7205  -37.6400   23.6687 H   0  0  0  0  0  0
  -26.1749  -31.4487   20.6194 H   0  0  0  0  0  0
  -26.8854  -30.7484   22.0384 H   0  0  0  0  0  0
  -28.1296  -28.7290   21.2401 H   0  0  0  0  0  0
  -25.8010  -25.8741   18.9511 H   0  0  0  0  0  0
  -23.9497  -27.3381   18.9627 H   0  0  0  0  0  0
  -23.8253  -30.5871   19.4078 H   0  0  0  0  0  0
  -22.7903  -29.2562   19.8384 H   0  0  0  0  0  0
  -25.1316  -36.1838   25.0796 H   0  0  0  0  0  0
  -20.9988  -28.3330   24.1361 H   0  0  0  0  0  0
  -20.5706  -26.2437   23.3627 H   0  0  0  0  0  0
  -21.6724  -26.7585   22.1236 H   0  0  0  0  0  0
  -19.6605  -27.3125   20.6713 H   0  0  0  0  0  0
  -19.6896  -25.6281   21.1399 H   0  0  0  0  0  0
  -17.4160  -26.6621   21.4213 H   0  0  0  0  0  0
  -18.0417  -26.0197   22.9233 H   0  0  0  0  0  0
  -19.7940  -30.7356   24.2240 H   0  0  0  0  0  0
  -17.5044  -31.6356   24.5179 H   0  0  0  0  0  0
  -15.5366  -30.3064   23.7729 H   0  0  0  0  0  0
  -15.8672  -28.0858   22.7218 H   0  0  0  0  0  0
  -24.5953  -30.7051   25.7718 H   0  0  0  0  0  0
  -24.8846  -32.2981   26.4682 H   0  0  0  0  0  0
  -25.7997  -30.9084   27.0280 H   0  0  0  0  0  0
  -26.3077  -29.6701   24.1309 H   0  0  0  0  0  0
  -27.4024  -29.7269   25.4906 H   0  0  0  0  0  0
  -27.8993  -30.4207   23.9673 H   0  0  0  0  0  0
  -27.2721  -33.3696   26.1989 H   0  0  0  0  0  0
  -28.4041  -32.6744   25.0481 H   0  0  0  0  0  0
  -28.0591  -31.8515   26.5626 H   0  0  0  0  0  0
  -28.2605  -38.0071   24.7559 H   0  0  0  0  0  0
  -28.1059  -36.2622   24.6277 H   0  0  0  0  0  0
  -27.2295  -37.1386   25.8882 H   0  0  0  0  0  0
  -20.9474  -29.8930   21.6934 H   0  0  0  0  0  0
  -26.0143  -38.2815   24.1421 H   0  0  0  0  0  0
  -28.5507  -22.8489   22.1032 H   0  0  0  0  0  0
  -30.1185  -17.9262   23.3576 H   0  0  0  0  0  0
  -30.9340  -16.3939   23.0481 H   0  0  0  0  0  0
  -32.2440  -17.3866   21.3944 H   0  0  0  0  0  0
  -31.4842  -18.9471   21.6839 H   0  0  0  0  0  0
  -28.2087  -18.6719   22.1546 H   0  0  0  0  0  0
  -27.4775  -17.7651   20.8374 H   0  0  0  0  0  0
  -28.5971  -16.0329   22.2751 H   0  0  0  0  0  0
  -30.9580  -17.7486   19.3026 H   0  0  0  0  0  0
  -28.7262  -23.5774   17.1772 H   0  0  0  0  0  0
  -27.4438  -22.3565   17.1112 H   0  0  0  0  0  0
  -29.1040  -21.9397   16.6923 H   0  0  0  0  0  0
  -26.9061  -24.4048   20.4564 H   0  0  0  0  0  0
  -27.4023  -24.5701   18.8052 H   0  0  0  0  0  0
  1 25  1  0  0  0
  1 30  2  0  0  0
  1 85  1  0  0  0
  2  3  1  0  0  0
  2 25  1  0  0  0
  2 86  1  0  0  0
  2 87  1  0  0  0
  3  4  1  0  0  0
  3 88  1  0  0  0
  3 89  1  0  0  0
  4  5  1  0  0  0
  4 90  1  0  0  0
  4 91  1  0  0  0
  5  6  1  0  0  0
  5 26  1  0  0  0
  5 92  1  0  0  0
  6 25  1  0  0  0
  6 93  1  0  0  0
  6 94  1  0  0  0
  7  8  2  0  0  0
  7 26  1  0  0  0
  7 29  1  0  0  0
  8  9  1  0  0  0
  8 22  1  0  0  0
  9 10  1  0  0  0
  9 27  2  0  0  0
 10 11  2  0  0  0
 10 15  1  0  0  0
 11 12  1  0  0  0
 11 95  1  0  0  0
 12 13  2  0  0  0
 12 96  1  0  0  0
 13 14  1  0  0  0
 13 31  1  0  0  0
 14 15  2  0  0  0
 14 97  1  0  0  0
 15 98  1  0  0  0
 16 17  2  0  0  0
 16 21  1  0  0  0
 16 31  1  0  0  0
 17 18  1  0  0  0
 17 99  1  0  0  0
 18 19  2  0  0  0
 18100  1  0  0  0
 19 20  1  0  0  0
 19 24  1  0  0  0
 20 21  2  0  0  0
 20101  1  0  0  0
 21 23  1  0  0  0
 22 28  1  0  0  0
 22 32  2  0  0  0
 26 27  1  0  0  0
 28102  1  0  0  0
 28103  1  0  0  0
 29104  1  0  0  0
 29105  1  0  0  0
 33 34  1  0  0  0
 33 66  1  0  0  0
 33 70  2  0  0  0
 34 36  1  0  0  0
 34 59  1  0  0  0
 34106  1  0  0  0
 35 44  2  0  0  0
 35 45  1  0  0  0
 35 68  1  0  0  0
 36 56  1  0  0  0
 36107  1  0  0  0
 37 39  1  0  0  0
 37 47  1  0  0  0
 37 66  1  0  0  0
 37108  1  0  0  0
 38 43  2  0  0  0
 38 46  1  0  0  0
 38 47  1  0  0  0
 39 64  1  0  0  0
 39 67  2  0  0  0
 40 52  1  0  0  0
 40 53  2  0  0  0
 40 58  1  0  0  0
 41109  1  0  0  0
 41110  1  0  0  0
 41111  1  0  0  0
 41 48  1  0  0  0
 42 43  1  0  0  0
 42 66  1  0  0  0
 42112  1  0  0  0
 42113  1  0  0  0
 43 44  1  0  0  0
 44114  1  0  0  0
 45 46  2  0  0  0
 45115  1  0  0  0
 46116  1  0  0  0
 47117  1  0  0  0
 47118  1  0  0  0
 48 56  1  0  0  0
 48 65  1  0  0  0
 48119  1  0  0  0
 49 50  1  0  0  0
 49 53  1  0  0  0
 49 64  1  0  0  0
 49120  1  0  0  0
 50 51  1  0  0  0
 50121  1  0  0  0
 50122  1  0  0  0
 51 52  1  0  0  0
 51123  1  0  0  0
 51124  1  0  0  0
 52125  1  0  0  0
 52126  1  0  0  0
 53 54  1  0  0  0
 54 55  2  0  0  0
 54127  1  0  0  0
 55 57  1  0  0  0
 55128  1  0  0  0
 56 69  2  0  0  0
 57 58  2  0  0  0
 57129  1  0  0  0
 58130  1  0  0  0
 59 60  1  0  0  0
 59 61  1  0  0  0
 59 62  1  0  0  0
 60131  1  0  0  0
 60132  1  0  0  0
 60133  1  0  0  0
 61134  1  0  0  0
 61135  1  0  0  0
 61136  1  0  0  0
 62137  1  0  0  0
 62138  1  0  0  0
 62139  1  0  0  0
 63 65  1  0  0  0
 63140  1  0  0  0
 63141  1  0  0  0
 63142  1  0  0  0
 64143  1  0  0  0
 65144  1  0  0  0
 68 81  1  0  0  0
 71 72  2  0  0  0
 71 82  1  0  0  0
 71145  1  0  0  0
 72 73  1  0  0  0
 72 81  1  0  0  0
 73 80  1  0  0  0
 73 83  2  0  0  0
 74 82  2  0  0  0
 74 83  1  0  0  0
 74 84  1  0  0  0
 75 76  1  0  0  0
 75146  1  0  0  0
 75147  1  0  0  0
 75 78  1  0  0  0
 76148  1  0  0  0
 76149  1  0  0  0
 76 79  1  0  0  0
 77 78  1  0  0  0
 77 84  1  0  0  0
 77150  1  0  0  0
 77151  1  0  0  0
 78 85  1  0  0  0
 78152  1  0  0  0
 79 84  1  0  0  0
 79 85  1  0  0  0
 79153  1  0  0  0
 80154  1  0  0  0
 80155  1  0  0  0
 80156  1  0  0  0
 81157  1  0  0  0
 81158  1  0  0  0
M  ISO  4   1 100  68 101  81 101  85 100
M  END
> <chiral flag>
0

> <version>
0

> <s_m_source_file>
/data/baiqing/PycharmProjects/Reinvent-master-3.2/result/LINK_invent/BTK/process_docking_weight1_custom_sum_contain_oxygen_bond_distance_aromatic_linkinvent_7_9_3/rearranged_h_0184.sdf

> <i_m_source_file_index>
8

> <r_mmod_Potential_Energy-OPLS-2005>
494.953125

> <r_mmod_Stretch_Energy-OPLS-2005>
251.948272705078

> <r_mmod_Bend_Energy-OPLS-2005>
397.183319091797

> <r_mmod_Torsional_Energy-OPLS-2005>
397.082733154297

> <r_mmod_Improper_Torsional_Energy-OPLS-2005>
22.169412612915

> <r_mmod_Van_der_Waal_Energy-OPLS-2005>
146.945404052734

> <r_mmod_Electrostatic_Energy-OPLS-2005>
-700.115844726562

> <r_mmod_Solvation_Energy-OPLS-2005>
-234.518676757812

> <b_mmod_Minimization_Converged-OPLS-2005>
0

> <r_mmod_RMS_Derivative-OPLS-2005>
5.96053791046143

$$$$
8
                    3D
 Structure written by MMmdl.
150159  0  0  1  0            999 V2000
  -30.4881  -14.9853   20.4138 C   0  0  0  0  0  0
  -30.4531  -12.6087   19.4980 C   0  0  0  0  0  0
  -29.5287  -12.5357   18.2584 C   0  0  0  0  0  0
  -28.0611  -12.3152   18.6740 C   0  0  0  0  0  0
  -27.6326  -13.2424   19.8399 C   0  0  2  0  0  0
  -28.6756  -13.2594   20.9780 C   0  0  0  0  0  0
  -25.2476  -13.8196   20.5683 C   0  0  0  0  0  0
  -24.1793  -13.0436   20.9239 C   0  0  0  0  0  0
  -24.6399  -11.6918   20.8761 C   0  0  0  0  0  0
  -23.9073  -10.4293   21.0416 C   0  0  0  0  0  0
  -24.3620   -9.4205   21.9188 C   0  0  0  0  0  0
  -23.6291   -8.2244   22.0759 C   0  0  0  0  0  0
  -22.4272   -8.0285   21.3547 C   0  0  0  0  0  0
  -21.9906   -9.0263   20.4658 C   0  0  0  0  0  0
  -22.7241  -10.2139   20.3068 C   0  0  0  0  0  0
  -21.6856   -6.0732   22.5276 C   0  0  0  0  0  0
  -21.4018   -6.5638   23.8207 C   0  0  0  0  0  0
  -21.3660   -5.6793   24.9170 C   0  0  0  0  0  0
  -21.6042   -4.3054   24.7226 C   0  0  0  0  0  0
  -21.8819   -3.8145   23.4348 C   0  0  0  0  0  0
  -21.9194   -4.6959   22.3400 C   0  0  0  0  0  0
  -22.7815  -13.5218   21.1883 C   0  0  0  0  0  0
  -22.1661   -4.2143   21.0980 F   0  0  0  0  0  0
  -21.5623   -3.4540   25.7739 F   0  0  0  0  0  0
  -29.9488  -13.6957   20.3862 N   0  0  0  0  0  0
  -26.2895  -12.9414   20.3226 N   0  0  0  0  0  0
  -25.9327  -11.6555   20.5738 N   0  0  0  0  0  0
  -22.0450  -12.8227   22.0443 N   0  0  0  0  0  0
  -25.4126  -15.1919   20.4020 N   0  0  0  0  0  0
  -31.6904  -15.0920   20.1348 O   0  0  0  0  0  0
  -21.6640   -6.8878   21.4239 O   0  0  0  0  0  0
  -22.3510  -14.5519   20.6713 O   0  0  0  0  0  0
  -24.6456  -31.8406   23.1844 C   0  0  0  0  0  0
  -25.9212  -32.4676   23.8252 C   0  0  1  0  0  0
  -27.2240  -27.1144   20.1616 C   0  0  0  0  0  0
  -25.5943  -33.8484   24.2164 N   0  0  0  0  0  0
  -23.4511  -30.4569   21.5300 C   0  0  2  0  0  0
  -24.9023  -28.8733   20.1137 C   0  0  0  0  0  0
  -22.7578  -29.4523   22.4846 C   0  0  0  0  0  0
  -18.0307  -28.1395   22.8476 C   0  0  0  0  0  0
  -24.1488  -36.7253   23.2644 C   0  0  0  0  0  0
  -26.0078  -30.7081   21.3854 C   0  0  0  0  0  0
  -26.0804  -29.3158   20.7290 C   0  0  0  0  0  0
  -27.2434  -28.4548   20.7286 C   0  0  0  0  0  0
  -26.0187  -26.7696   19.5156 C   0  0  0  0  0  0
  -24.8853  -27.6146   19.4902 C   0  0  0  0  0  0
  -23.6798  -29.7796   20.1519 C   0  0  0  0  0  0
  -25.4120  -36.3022   24.0314 C   0  0  1  0  0  0
  -20.5920  -28.3721   23.1231 C   0  0  2  0  0  0
  -20.6788  -26.9420   22.5407 C   0  0  0  0  0  0
  -19.5760  -26.6373   21.5217 C   0  0  0  0  0  0
  -18.1943  -26.7930   22.1630 C   0  0  0  0  0  0
  -19.1565  -28.8877   23.2843 C   0  0  0  0  0  0
  -18.9481  -30.1473   23.8868 C   0  0  0  0  0  0
  -17.6476  -30.6590   24.0561 C   0  0  0  0  0  0
  -25.9072  -34.9396   23.5052 C   0  0  0  0  0  0
  -16.5367  -29.9082   23.6335 C   0  0  0  0  0  0
  -16.7291  -28.6502   23.0354 C   0  0  0  0  0  0
  -26.4525  -31.6559   25.0709 C   0  0  0  0  0  0
  -25.3708  -31.3780   26.1410 C   0  0  0  0  0  0
  -27.0386  -30.2943   24.6319 C   0  0  0  0  0  0
  -27.6045  -32.4337   25.7496 C   0  0  0  0  0  0
  -27.5572  -37.1781   24.8462 C   0  0  0  0  0  0
  -21.4266  -29.3041   22.3597 N   0  0  0  0  0  0
  -26.4282  -37.3735   23.9407 N   0  0  0  0  0  0
  -24.7213  -31.0243   22.0883 N   0  0  0  0  0  0
  -23.4208  -28.8081   23.3014 O   0  0  0  0  0  0
  -28.2858  -26.1338   20.2022 O   0  0  0  0  0  0
  -26.5671  -34.8902   22.4639 O   0  0  0  0  0  0
  -23.5568  -32.1290   23.7049 O   0  0  0  0  0  0
  -27.9169  -19.6318   20.5193 C   0  0  0  0  0  0
  -28.2049  -18.2143   20.5630 C   0  0  0  0  0  0
  -30.1960  -20.0133   20.3102 C   0  0  0  0  0  0
  -28.9040  -20.6621   20.3983 C   0  0  0  0  0  0
  -29.5112  -17.6356   20.4775 C   0  0  0  0  0  0
  -29.1023  -23.6076   21.1203 C   0  0  0  0  0  0
  -28.1005  -23.4017   19.3607 C   0  0  0  0  0  0
  -28.4763  -22.2880   20.4608 C   0  0  1  0  0  0
  -28.0399  -24.5998   20.4301 C   0  0  2  0  0  0
  -30.4753  -18.6253   20.3410 N   0  0  0  0  0  0
  -29.6006  -16.0930   20.5769 N   0  0  0  0  0  0
  -31.4814  -12.7903   19.1831 H   0  0  0  0  0  0
  -30.4686  -11.6554   20.0288 H   0  0  0  0  0  0
  -29.8519  -11.7352   17.5915 H   0  0  0  0  0  0
  -29.6122  -13.4619   17.6875 H   0  0  0  0  0  0
  -27.9589  -11.2728   18.9786 H   0  0  0  0  0  0
  -27.4002  -12.4487   17.8167 H   0  0  0  0  0  0
  -27.5970  -14.2452   19.4143 H   0  0  0  0  0  0
  -28.7720  -12.2739   21.4362 H   0  0  0  0  0  0
  -28.3674  -13.9378   21.7751 H   0  0  0  0  0  0
  -25.2762   -9.5678   22.4767 H   0  0  0  0  0  0
  -23.9993   -7.4637   22.7485 H   0  0  0  0  0  0
  -21.0829   -8.8791   19.8972 H   0  0  0  0  0  0
  -22.3694  -10.9683   19.6188 H   0  0  0  0  0  0
  -21.2016   -7.6146   23.9706 H   0  0  0  0  0  0
  -21.1479   -6.0525   25.9069 H   0  0  0  0  0  0
  -22.0598   -2.7607   23.2852 H   0  0  0  0  0  0
  -22.4060  -11.9897   22.4852 H   0  0  0  0  0  0
  -21.1077  -13.1278   22.2650 H   0  0  0  0  0  0
  -24.6229  -15.8239   20.4754 H   0  0  0  0  0  0
  -26.2040  -15.6063   19.9290 H   0  0  0  0  0  0
  -26.7281  -32.5279   23.0985 H   0  0  0  0  0  0
  -25.0053  -33.9590   25.0286 H   0  0  0  0  0  0
  -22.7548  -31.2828   21.3709 H   0  0  0  0  0  0
  -23.3748  -35.9588   23.3296 H   0  0  0  0  0  0
  -24.3570  -36.8898   22.2060 H   0  0  0  0  0  0
  -23.7248  -37.6447   23.6692 H   0  0  0  0  0  0
  -26.1662  -31.4606   20.6118 H   0  0  0  0  0  0
  -26.8764  -30.7598   22.0305 H   0  0  0  0  0  0
  -28.1440  -28.7916   21.2224 H   0  0  0  0  0  0
  -25.9380  -25.8023   19.0406 H   0  0  0  0  0  0
  -23.9866  -27.2700   18.9976 H   0  0  0  0  0  0
  -23.8207  -30.5513   19.3941 H   0  0  0  0  0  0
  -22.7939  -29.2233   19.8402 H   0  0  0  0  0  0
  -25.1308  -36.1847   25.0806 H   0  0  0  0  0  0
  -21.0012  -28.3317   24.1353 H   0  0  0  0  0  0
  -20.5672  -26.2338   23.3632 H   0  0  0  0  0  0
  -21.6654  -26.7414   22.1210 H   0  0  0  0  0  0
  -19.6918  -25.6277   21.1265 H   0  0  0  0  0  0
  -19.6694  -27.3169   20.6736 H   0  0  0  0  0  0
  -17.4208  -26.6665   21.4041 H   0  0  0  0  0  0
  -18.0346  -26.0082   22.9037 H   0  0  0  0  0  0
  -19.7957  -30.7299   24.2219 H   0  0  0  0  0  0
  -17.5030  -31.6267   24.5167 H   0  0  0  0  0  0
  -15.5366  -30.2976   23.7672 H   0  0  0  0  0  0
  -15.8692  -28.0813   22.7079 H   0  0  0  0  0  0
  -24.5832  -30.7198   25.7726 H   0  0  0  0  0  0
  -24.8977  -32.2990   26.4830 H   0  0  0  0  0  0
  -25.7977  -30.8926   27.0196 H   0  0  0  0  0  0
  -26.3011  -29.6665   24.1308 H   0  0  0  0  0  0
  -27.3953  -29.7251   25.4915 H   0  0  0  0  0  0
  -27.8940  -30.4155   23.9669 H   0  0  0  0  0  0
  -27.2615  -33.3643   26.2032 H   0  0  0  0  0  0
  -28.3877  -32.6895   25.0346 H   0  0  0  0  0  0
  -28.0693  -31.8500   26.5453 H   0  0  0  0  0  0
  -28.2584  -38.0080   24.7497 H   0  0  0  0  0  0
  -28.1072  -36.2610   24.6298 H   0  0  0  0  0  0
  -27.2295  -37.1440   25.8867 H   0  0  0  0  0  0
  -20.9481  -29.8755   21.6774 H   0  0  0  0  0  0
  -26.0148  -38.2804   24.1405 H   0  0  0  0  0  0
  -26.8820  -19.9296   20.6076 H   0  0  0  0  0  0
  -27.3569  -17.5540   20.6792 H   0  0  0  0  0  0
  -31.0724  -20.6386   20.2273 H   0  0  0  0  0  0
  -30.1256  -23.7971   20.7894 H   0  0  0  0  0  0
  -29.0634  -23.6139   22.2099 H   0  0  0  0  0  0
  -27.1510  -23.2188   18.8558 H   0  0  0  0  0  0
  -28.8894  -23.5410   18.6188 H   0  0  0  0  0  0
  -27.5463  -22.1634   21.0190 H   0  0  0  0  0  0
  -27.1026  -24.5197   20.9839 H   0  0  0  0  0  0
  -28.6925  -15.7109   20.7812 H   0  0  0  0  0  0
  1 25  1  0  0  0
  1 30  2  0  0  0
  1 81  1  0  0  0
  2  3  1  0  0  0
  2 25  1  0  0  0
  2 82  1  0  0  0
  2 83  1  0  0  0
  3  4  1  0  0  0
  3 84  1  0  0  0
  3 85  1  0  0  0
  4  5  1  0  0  0
  4 86  1  0  0  0
  4 87  1  0  0  0
  5  6  1  0  0  0
  5 26  1  0  0  0
  5 88  1  0  0  0
  6 25  1  0  0  0
  6 89  1  0  0  0
  6 90  1  0  0  0
  7  8  2  0  0  0
  7 26  1  0  0  0
  7 29  1  0  0  0
  8  9  1  0  0  0
  8 22  1  0  0  0
  9 10  1  0  0  0
  9 27  2  0  0  0
 10 11  2  0  0  0
 10 15  1  0  0  0
 11 12  1  0  0  0
 11 91  1  0  0  0
 12 13  2  0  0  0
 12 92  1  0  0  0
 13 14  1  0  0  0
 13 31  1  0  0  0
 14 15  2  0  0  0
 14 93  1  0  0  0
 15 94  1  0  0  0
 16 17  2  0  0  0
 16 21  1  0  0  0
 16 31  1  0  0  0
 17 18  1  0  0  0
 17 95  1  0  0  0
 18 19  2  0  0  0
 18 96  1  0  0  0
 19 20  1  0  0  0
 19 24  1  0  0  0
 20 21  2  0  0  0
 20 97  1  0  0  0
 21 23  1  0  0  0
 22 28  1  0  0  0
 22 32  2  0  0  0
 26 27  1  0  0  0
 28 98  1  0  0  0
 28 99  1  0  0  0
 29100  1  0  0  0
 29101  1  0  0  0
 33 34  1  0  0  0
 33 66  1  0  0  0
 33 70  2  0  0  0
 34 36  1  0  0  0
 34 59  1  0  0  0
 34102  1  0  0  0
 35 44  2  0  0  0
 35 45  1  0  0  0
 35 68  1  0  0  0
 36 56  1  0  0  0
 36103  1  0  0  0
 37 39  1  0  0  0
 37 47  1  0  0  0
 37 66  1  0  0  0
 37104  1  0  0  0
 38 43  2  0  0  0
 38 46  1  0  0  0
 38 47  1  0  0  0
 39 64  1  0  0  0
 39 67  2  0  0  0
 40 52  1  0  0  0
 40 53  2  0  0  0
 40 58  1  0  0  0
 41105  1  0  0  0
 41106  1  0  0  0
 41107  1  0  0  0
 41 48  1  0  0  0
 42 43  1  0  0  0
 42 66  1  0  0  0
 42108  1  0  0  0
 42109  1  0  0  0
 43 44  1  0  0  0
 44110  1  0  0  0
 45 46  2  0  0  0
 45111  1  0  0  0
 46112  1  0  0  0
 47113  1  0  0  0
 47114  1  0  0  0
 48 56  1  0  0  0
 48 65  1  0  0  0
 48115  1  0  0  0
 49 50  1  0  0  0
 49 53  1  0  0  0
 49 64  1  0  0  0
 49116  1  0  0  0
 50 51  1  0  0  0
 50117  1  0  0  0
 50118  1  0  0  0
 51 52  1  0  0  0
 51119  1  0  0  0
 51120  1  0  0  0
 52121  1  0  0  0
 52122  1  0  0  0
 53 54  1  0  0  0
 54 55  2  0  0  0
 54123  1  0  0  0
 55 57  1  0  0  0
 55124  1  0  0  0
 56 69  2  0  0  0
 57 58  2  0  0  0
 57125  1  0  0  0
 58126  1  0  0  0
 59 60  1  0  0  0
 59 61  1  0  0  0
 59 62  1  0  0  0
 60127  1  0  0  0
 60128  1  0  0  0
 60129  1  0  0  0
 61130  1  0  0  0
 61131  1  0  0  0
 61132  1  0  0  0
 62133  1  0  0  0
 62134  1  0  0  0
 62135  1  0  0  0
 63 65  1  0  0  0
 63136  1  0  0  0
 63137  1  0  0  0
 63138  1  0  0  0
 64139  1  0  0  0
 65140  1  0  0  0
 68 79  1  0  0  0
 71 72  2  0  0  0
 71 74  1  0  0  0
 71141  1  0  0  0
 72 75  1  0  0  0
 72142  1  0  0  0
 73 74  2  0  0  0
 73 80  1  0  0  0
 73143  1  0  0  0
 74 78  1  0  0  0
 75 80  2  0  0  0
 75 81  1  0  0  0
 76 78  1  0  0  0
 76 79  1  0  0  0
 76144  1  0  0  0
 76145  1  0  0  0
 77 78  1  0  0  0
 77 79  1  0  0  0
 77146  1  0  0  0
 77147  1  0  0  0
 78148  1  0  0  0
 79149  1  0  0  0
 81150  1  0  0  0
M  ISO  4   1 100  68 101  79 101  81 100
M  END
> <chiral flag>
0

> <version>
0

> <s_m_source_file>
/data/baiqing/PycharmProjects/Reinvent-master-3.2/result/LINK_invent/BTK/process_docking_weight1_custom_sum_contain_oxygen_bond_distance_aromatic_linkinvent_7_9_3/rearranged_h_0184.sdf

> <i_m_source_file_index>
9

> <r_mmod_Potential_Energy-OPLS-2005>
448.32275390625

> <r_mmod_Stretch_Energy-OPLS-2005>
245.642639160156

> <r_mmod_Bend_Energy-OPLS-2005>
340.114654541016

> <r_mmod_Torsional_Energy-OPLS-2005>
220.686370849609

> <r_mmod_Improper_Torsional_Energy-OPLS-2005>
5.04905033111572

> <r_mmod_Van_der_Waal_Energy-OPLS-2005>
131.884506225586

> <r_mmod_Electrostatic_Energy-OPLS-2005>
-474.173614501953

> <r_mmod_Solvation_Energy-OPLS-2005>
-235.267028808594

> <b_mmod_Minimization_Converged-OPLS-2005>
0

> <r_mmod_RMS_Derivative-OPLS-2005>
0.710549533367157

$$$$
9
                    3D
 Structure written by MMmdl.
153162  0  0  1  0            999 V2000
  -30.4385  -15.3903   20.3495 C   0  0  0  0  0  0
  -30.4306  -12.8969   19.5373 C   0  0  0  0  0  0
  -29.5412  -12.5910   18.3035 C   0  0  0  0  0  0
  -28.0962  -12.3000   18.7398 C   0  0  0  0  0  0
  -27.6057  -13.2916   19.8217 C   0  0  2  0  0  0
  -28.6375  -13.5325   20.9465 C   0  0  0  0  0  0
  -25.2346  -13.8258   20.5800 C   0  0  0  0  0  0
  -24.1710  -13.0423   20.9291 C   0  0  0  0  0  0
  -24.6392  -11.6931   20.8781 C   0  0  0  0  0  0
  -23.9078  -10.4305   21.0426 C   0  0  0  0  0  0
  -24.3614   -9.4213   21.9204 C   0  0  0  0  0  0
  -23.6272   -8.2257   22.0772 C   0  0  0  0  0  0
  -22.4262   -8.0306   21.3556 C   0  0  0  0  0  0
  -21.9897   -9.0286   20.4675 C   0  0  0  0  0  0
  -22.7237  -10.2159   20.3088 C   0  0  0  0  0  0
  -21.6876   -6.0742   22.5283 C   0  0  0  0  0  0
  -21.4036   -6.5646   23.8209 C   0  0  0  0  0  0
  -21.3646   -5.6800   24.9164 C   0  0  0  0  0  0
  -21.6025   -4.3060   24.7234 C   0  0  0  0  0  0
  -21.8805   -3.8150   23.4356 C   0  0  0  0  0  0
  -21.9189   -4.6968   22.3409 C   0  0  0  0  0  0
  -22.7723  -13.5195   21.1919 C   0  0  0  0  0  0
  -22.1657   -4.2138   21.0992 F   0  0  0  0  0  0
  -21.5611   -3.4547   25.7746 F   0  0  0  0  0  0
  -29.8470  -14.0771   20.2974 N   0  0  0  0  0  0
  -26.2797  -12.9575   20.3261 N   0  0  0  0  0  0
  -25.9344  -11.6655   20.5764 N   0  0  0  0  0  0
  -22.0364  -12.8233   22.0482 N   0  0  0  0  0  0
  -25.3923  -15.1989   20.4251 N   0  0  0  0  0  0
  -31.6589  -15.3104   20.1355 O   0  0  0  0  0  0
  -21.6650   -6.8896   21.4245 O   0  0  0  0  0  0
  -22.3440  -14.5498   20.6750 O   0  0  0  0  0  0
  -24.6711  -31.8152   23.1639 C   0  0  0  0  0  0
  -25.9343  -32.4534   23.8135 C   0  0  1  0  0  0
  -27.2220  -26.8584   20.1877 C   0  0  0  0  0  0
  -25.5990  -33.8358   24.2034 N   0  0  0  0  0  0
  -23.4905  -30.4230   21.5136 C   0  0  2  0  0  0
  -24.9462  -28.7968   20.1118 C   0  0  0  0  0  0
  -22.7708  -29.4381   22.4737 C   0  0  0  0  0  0
  -18.0345  -28.1397   22.8467 C   0  0  0  0  0  0
  -24.1508  -36.7190   23.2654 C   0  0  0  0  0  0
  -26.0637  -30.5956   21.4070 C   0  0  0  0  0  0
  -26.1293  -29.1795   20.7518 C   0  0  0  0  0  0
  -27.2609  -28.2324   20.7635 C   0  0  0  0  0  0
  -26.0072  -26.6429   19.4975 C   0  0  0  0  0  0
  -24.9130  -27.5507   19.4625 C   0  0  0  0  0  0
  -23.7359  -29.7347   20.1416 C   0  0  0  0  0  0
  -25.4147  -36.2918   24.0286 C   0  0  1  0  0  0
  -20.5970  -28.3743   23.1169 C   0  0  2  0  0  0
  -20.6809  -26.9416   22.5391 C   0  0  0  0  0  0
  -19.5782  -26.6356   21.5207 C   0  0  0  0  0  0
  -18.1967  -26.7930   22.1624 C   0  0  0  0  0  0
  -19.1603  -28.8891   23.2814 C   0  0  0  0  0  0
  -18.9504  -30.1479   23.8854 C   0  0  0  0  0  0
  -17.6490  -30.6581   24.0537 C   0  0  0  0  0  0
  -25.9103  -34.9303   23.4971 C   0  0  0  0  0  0
  -16.5384  -29.9059   23.6328 C   0  0  0  0  0  0
  -16.7328  -28.6476   23.0368 C   0  0  0  0  0  0
  -26.4569  -31.6525   25.0701 C   0  0  0  0  0  0
  -25.3659  -31.3822   26.1332 C   0  0  0  0  0  0
  -27.0480  -30.2885   24.6495 C   0  0  0  0  0  0
  -27.6054  -32.4346   25.7505 C   0  0  0  0  0  0
  -27.5554  -37.1772   24.8475 C   0  0  0  0  0  0
  -21.4361  -29.3028   22.3501 N   0  0  0  0  0  0
  -26.4297  -37.3641   23.9361 N   0  0  0  0  0  0
  -24.7633  -30.9742   22.0796 N   0  0  0  0  0  0
  -23.4239  -28.7943   23.2992 O   0  0  0  0  0  0
  -28.2151  -25.7208   20.2696 O   0  0  0  0  0  0
  -26.5715  -34.8844   22.4572 O   0  0  0  0  0  0
  -23.5753  -32.1142   23.6687 O   0  0  0  0  0  0
  -31.1375  -22.5021   21.1615 C   0  0  0  0  0  0
  -29.1553  -22.8055   20.4461 C   0  0  0  0  0  0
  -28.3489  -18.7863   21.2062 C   0  0  0  0  0  0
  -28.4517  -17.1922   20.9051 C   0  0  0  0  0  0
  -30.2285  -18.2917   20.0264 C   0  0  0  0  0  0
  -29.1240  -19.6502   20.1565 C   0  0  2  0  0  0
  -32.5060  -22.8317   21.6660 C   0  0  0  0  0  0
  -27.9762  -24.0600   20.0857 C   0  0  0  0  0  0
  -30.2259  -23.4646   20.9030 N   0  0  0  0  0  0
  -30.7665  -21.2491   20.9376 N   0  0  0  0  0  0
  -29.4879  -21.2970   20.4552 N   0  0  0  0  0  0
  -29.7727  -16.7588   20.3611 N   0  0  0  0  0  0
  -31.4490  -13.0948   19.1976 H   0  0  0  0  0  0
  -30.5182  -12.0198   20.1807 H   0  0  0  0  0  0
  -29.9374  -11.7397   17.7449 H   0  0  0  0  0  0
  -29.5568  -13.4454   17.6251 H   0  0  0  0  0  0
  -28.0773  -11.2865   19.1397 H   0  0  0  0  0  0
  -27.4232  -12.3066   17.8825 H   0  0  0  0  0  0
  -27.4992  -14.2414   19.2947 H   0  0  0  0  0  0
  -28.8425  -12.6201   21.5051 H   0  0  0  0  0  0
  -28.2518  -14.2542   21.6671 H   0  0  0  0  0  0
  -25.2730   -9.5697   22.4803 H   0  0  0  0  0  0
  -23.9949   -7.4676   22.7518 H   0  0  0  0  0  0
  -21.0803   -8.8828   19.9029 H   0  0  0  0  0  0
  -22.3652  -10.9714   19.6237 H   0  0  0  0  0  0
  -21.2064   -7.6162   23.9706 H   0  0  0  0  0  0
  -21.1466   -6.0548   25.9063 H   0  0  0  0  0  0
  -22.0587   -2.7616   23.2883 H   0  0  0  0  0  0
  -22.3919  -11.9873   22.4892 H   0  0  0  0  0  0
  -21.1008  -13.1354   22.2701 H   0  0  0  0  0  0
  -24.6210  -15.8418   20.5659 H   0  0  0  0  0  0
  -26.2364  -15.6529   20.1046 H   0  0  0  0  0  0
  -26.7425  -32.5038   23.0857 H   0  0  0  0  0  0
  -25.0080  -33.9438   25.0148 H   0  0  0  0  0  0
  -22.8057  -31.2562   21.3363 H   0  0  0  0  0  0
  -23.3725  -35.9576   23.3358 H   0  0  0  0  0  0
  -24.3569  -36.8788   22.2058 H   0  0  0  0  0  0
  -23.7349  -37.6424   23.6692 H   0  0  0  0  0  0
  -26.2604  -31.3320   20.6269 H   0  0  0  0  0  0
  -26.9184  -30.6523   22.0704 H   0  0  0  0  0  0
  -28.1545  -28.5217   21.2956 H   0  0  0  0  0  0
  -25.8647  -25.6941   18.9989 H   0  0  0  0  0  0
  -24.0150  -27.2557   18.9382 H   0  0  0  0  0  0
  -23.9031  -30.5015   19.3853 H   0  0  0  0  0  0
  -22.8439  -29.1963   19.8166 H   0  0  0  0  0  0
  -25.1368  -36.1699   25.0783 H   0  0  0  0  0  0
  -21.0089  -28.3343   24.1286 H   0  0  0  0  0  0
  -20.5667  -26.2356   23.3635 H   0  0  0  0  0  0
  -21.6661  -26.7355   22.1201 H   0  0  0  0  0  0
  -19.6924  -25.6245   21.1280 H   0  0  0  0  0  0
  -19.6729  -27.3118   20.6696 H   0  0  0  0  0  0
  -17.4234  -26.6681   21.4038 H   0  0  0  0  0  0
  -18.0377  -26.0088   22.9035 H   0  0  0  0  0  0
  -19.7966  -30.7307   24.2229 H   0  0  0  0  0  0
  -17.5024  -31.6261   24.5133 H   0  0  0  0  0  0
  -15.5376  -30.2939   23.7653 H   0  0  0  0  0  0
  -15.8739  -28.0748   22.7136 H   0  0  0  0  0  0
  -24.5821  -30.7218   25.7603 H   0  0  0  0  0  0
  -24.8889  -32.3050   26.4631 H   0  0  0  0  0  0
  -25.7836  -30.9025   27.0189 H   0  0  0  0  0  0
  -26.3158  -29.6534   24.1495 H   0  0  0  0  0  0
  -27.3978  -29.7288   25.5179 H   0  0  0  0  0  0
  -27.9110  -30.4059   23.9943 H   0  0  0  0  0  0
  -27.2614  -33.3675   26.1976 H   0  0  0  0  0  0
  -28.3912  -32.6861   25.0373 H   0  0  0  0  0  0
  -28.0665  -31.8548   26.5508 H   0  0  0  0  0  0
  -28.2606  -38.0019   24.7365 H   0  0  0  0  0  0
  -28.1008  -36.2532   24.6495 H   0  0  0  0  0  0
  -27.2245  -37.1625   25.8876 H   0  0  0  0  0  0
  -20.9634  -29.8744   21.6639 H   0  0  0  0  0  0
  -26.0131  -38.2711   24.1281 H   0  0  0  0  0  0
  -28.7783  -18.9827   22.1899 H   0  0  0  0  0  0
  -27.3055  -19.0972   21.2677 H   0  0  0  0  0  0
  -27.7034  -16.9297   20.1568 H   0  0  0  0  0  0
  -28.1995  -16.6189   21.7979 H   0  0  0  0  0  0
  -31.0858  -18.4909   20.6690 H   0  0  0  0  0  0
  -30.6419  -18.2923   19.0172 H   0  0  0  0  0  0
  -28.5240  -19.6549   19.2450 H   0  0  0  0  0  0
  -32.6432  -23.9127   21.7418 H   0  0  0  0  0  0
  -33.2729  -22.4510   20.9918 H   0  0  0  0  0  0
  -32.6703  -22.4023   22.6537 H   0  0  0  0  0  0
  -27.0879  -23.8077   20.6643 H   0  0  0  0  0  0
  -27.6761  -23.9083   19.0478 H   0  0  0  0  0  0
  1 25  1  0  0  0
  1 30  2  0  0  0
  1 82  1  0  0  0
  2  3  1  0  0  0
  2 25  1  0  0  0
  2 83  1  0  0  0
  2 84  1  0  0  0
  3  4  1  0  0  0
  3 85  1  0  0  0
  3 86  1  0  0  0
  4  5  1  0  0  0
  4 87  1  0  0  0
  4 88  1  0  0  0
  5  6  1  0  0  0
  5 26  1  0  0  0
  5 89  1  0  0  0
  6 25  1  0  0  0
  6 90  1  0  0  0
  6 91  1  0  0  0
  7  8  2  0  0  0
  7 26  1  0  0  0
  7 29  1  0  0  0
  8  9  1  0  0  0
  8 22  1  0  0  0
  9 10  1  0  0  0
  9 27  2  0  0  0
 10 11  2  0  0  0
 10 15  1  0  0  0
 11 12  1  0  0  0
 11 92  1  0  0  0
 12 13  2  0  0  0
 12 93  1  0  0  0
 13 14  1  0  0  0
 13 31  1  0  0  0
 14 15  2  0  0  0
 14 94  1  0  0  0
 15 95  1  0  0  0
 16 17  2  0  0  0
 16 21  1  0  0  0
 16 31  1  0  0  0
 17 18  1  0  0  0
 17 96  1  0  0  0
 18 19  2  0  0  0
 18 97  1  0  0  0
 19 20  1  0  0  0
 19 24  1  0  0  0
 20 21  2  0  0  0
 20 98  1  0  0  0
 21 23  1  0  0  0
 22 28  1  0  0  0
 22 32  2  0  0  0
 26 27  1  0  0  0
 28 99  1  0  0  0
 28100  1  0  0  0
 29101  1  0  0  0
 29102  1  0  0  0
 33 34  1  0  0  0
 33 66  1  0  0  0
 33 70  2  0  0  0
 34 36  1  0  0  0
 34 59  1  0  0  0
 34103  1  0  0  0
 35 44  2  0  0  0
 35 45  1  0  0  0
 35 68  1  0  0  0
 36 56  1  0  0  0
 36104  1  0  0  0
 37 39  1  0  0  0
 37 47  1  0  0  0
 37 66  1  0  0  0
 37105  1  0  0  0
 38 43  2  0  0  0
 38 46  1  0  0  0
 38 47  1  0  0  0
 39 64  1  0  0  0
 39 67  2  0  0  0
 40 52  1  0  0  0
 40 53  2  0  0  0
 40 58  1  0  0  0
 41106  1  0  0  0
 41107  1  0  0  0
 41108  1  0  0  0
 41 48  1  0  0  0
 42 43  1  0  0  0
 42 66  1  0  0  0
 42109  1  0  0  0
 42110  1  0  0  0
 43 44  1  0  0  0
 44111  1  0  0  0
 45 46  2  0  0  0
 45112  1  0  0  0
 46113  1  0  0  0
 47114  1  0  0  0
 47115  1  0  0  0
 48 56  1  0  0  0
 48 65  1  0  0  0
 48116  1  0  0  0
 49 50  1  0  0  0
 49 53  1  0  0  0
 49 64  1  0  0  0
 49117  1  0  0  0
 50 51  1  0  0  0
 50118  1  0  0  0
 50119  1  0  0  0
 51 52  1  0  0  0
 51120  1  0  0  0
 51121  1  0  0  0
 52122  1  0  0  0
 52123  1  0  0  0
 53 54  1  0  0  0
 54 55  2  0  0  0
 54124  1  0  0  0
 55 57  1  0  0  0
 55125  1  0  0  0
 56 69  2  0  0  0
 57 58  2  0  0  0
 57126  1  0  0  0
 58127  1  0  0  0
 59 60  1  0  0  0
 59 61  1  0  0  0
 59 62  1  0  0  0
 60128  1  0  0  0
 60129  1  0  0  0
 60130  1  0  0  0
 61131  1  0  0  0
 61132  1  0  0  0
 61133  1  0  0  0
 62134  1  0  0  0
 62135  1  0  0  0
 62136  1  0  0  0
 63 65  1  0  0  0
 63137  1  0  0  0
 63138  1  0  0  0
 63139  1  0  0  0
 64140  1  0  0  0
 65141  1  0  0  0
 68 78  1  0  0  0
 71 77  1  0  0  0
 71 79  1  0  0  0
 71 80  2  0  0  0
 72 78  1  0  0  0
 72 79  2  0  0  0
 72 81  1  0  0  0
 73 74  1  0  0  0
 73 76  1  0  0  0
 73142  1  0  0  0
 73143  1  0  0  0
 74 82  1  0  0  0
 74144  1  0  0  0
 74145  1  0  0  0
 75 76  1  0  0  0
 75 82  1  0  0  0
 75146  1  0  0  0
 75147  1  0  0  0
 76 81  1  0  0  0
 76148  1  0  0  0
 77149  1  0  0  0
 77150  1  0  0  0
 77151  1  0  0  0
 78152  1  0  0  0
 78153  1  0  0  0
 80 81  1  0  0  0
M  ISO  4   1 100  68 101  78 101  82 100
M  END
> <chiral flag>
0

> <version>
0

> <s_m_source_file>
/data/baiqing/PycharmProjects/Reinvent-master-3.2/result/LINK_invent/BTK/process_docking_weight1_custom_sum_contain_oxygen_bond_distance_aromatic_linkinvent_7_9_3/rearranged_h_0184.sdf

> <i_m_source_file_index>
10

> <r_mmod_Potential_Energy-OPLS-2005>
1792.99243164062

> <r_mmod_Stretch_Energy-OPLS-2005>
703.822021484375

> <r_mmod_Bend_Energy-OPLS-2005>
609.385070800781

> <r_mmod_Torsional_Energy-OPLS-2005>
319.794708251953

> <r_mmod_Improper_Torsional_Energy-OPLS-2005>
6.4520058631897

> <r_mmod_Van_der_Waal_Energy-OPLS-2005>
98.4626312255859

> <r_mmod_Electrostatic_Energy-OPLS-2005>
-286.151702880859

> <r_mmod_Solvation_Energy-OPLS-2005>
-238.22541809082

> <b_mmod_Minimization_Converged-OPLS-2005>
0

> <r_mmod_RMS_Derivative-OPLS-2005>
4.09834432601929

$$$$
10
                    3D
 Structure written by MMmdl.
158167  0  0  1  0            999 V2000
  -30.6317  -14.7125   20.4803 C   0  0  0  0  0  0
  -30.4198  -12.4359   19.4778 C   0  0  0  0  0  0
  -29.5097  -12.5313   18.2345 C   0  0  0  0  0  0
  -28.0334  -12.3573   18.6402 C   0  0  0  0  0  0
  -27.6418  -13.2393   19.8566 C   0  0  2  0  0  0
  -28.6846  -13.1562   20.9944 C   0  0  0  0  0  0
  -25.2483  -13.8221   20.5691 C   0  0  0  0  0  0
  -24.1781  -13.0450   20.9208 C   0  0  0  0  0  0
  -24.6392  -11.6927   20.8737 C   0  0  0  0  0  0
  -23.9071  -10.4297   21.0392 C   0  0  0  0  0  0
  -24.3635   -9.4217   21.9172 C   0  0  0  0  0  0
  -23.6315   -8.2250   22.0735 C   0  0  0  0  0  0
  -22.4291   -8.0284   21.3538 C   0  0  0  0  0  0
  -21.9926   -9.0256   20.4638 C   0  0  0  0  0  0
  -22.7246  -10.2141   20.3041 C   0  0  0  0  0  0
  -21.6870   -6.0739   22.5278 C   0  0  0  0  0  0
  -21.4022   -6.5639   23.8208 C   0  0  0  0  0  0
  -21.3655   -5.6784   24.9176 C   0  0  0  0  0  0
  -21.6043   -4.3045   24.7227 C   0  0  0  0  0  0
  -21.8809   -3.8141   23.4345 C   0  0  0  0  0  0
  -21.9189   -4.6962   22.3403 C   0  0  0  0  0  0
  -22.7799  -13.5211   21.1870 C   0  0  0  0  0  0
  -22.1655   -4.2151   21.0979 F   0  0  0  0  0  0
  -21.5634   -3.4524   25.7739 F   0  0  0  0  0  0
  -29.9920  -13.4954   20.4192 N   0  0  0  0  0  0
  -26.2928  -12.9445   20.3308 N   0  0  0  0  0  0
  -25.9330  -11.6573   20.5735 N   0  0  0  0  0  0
  -22.0449  -12.8218   22.0448 N   0  0  0  0  0  0
  -25.4124  -15.1951   20.4070 N   0  0  0  0  0  0
  -31.8108  -14.8069   20.1268 O   0  0  0  0  0  0
  -21.6650   -6.8892   21.4242 O   0  0  0  0  0  0
  -22.3478  -14.5512   20.6702 O   0  0  0  0  0  0
  -24.6329  -31.8539   23.2000 C   0  0  0  0  0  0
  -25.9161  -32.4744   23.8333 C   0  0  1  0  0  0
  -27.2173  -27.2579   20.1291 C   0  0  0  0  0  0
  -25.5961  -33.8546   24.2255 N   0  0  0  0  0  0
  -23.4302  -30.4802   21.5399 C   0  0  2  0  0  0
  -24.8776  -28.9304   20.1077 C   0  0  0  0  0  0
  -22.7509  -29.4606   22.4872 C   0  0  0  0  0  0
  -18.0295  -28.1379   22.8483 C   0  0  0  0  0  0
  -24.1491  -36.7279   23.2640 C   0  0  0  0  0  0
  -25.9772  -30.7676   21.3813 C   0  0  0  0  0  0
  -26.0497  -29.3906   20.7210 C   0  0  0  0  0  0
  -27.2222  -28.5673   20.7212 C   0  0  0  0  0  0
  -26.0199  -26.8718   19.4812 C   0  0  0  0  0  0
  -24.8680  -27.6799   19.4764 C   0  0  0  0  0  0
  -23.6510  -29.8190   20.1545 C   0  0  0  0  0  0
  -25.4115  -36.3057   24.0327 C   0  0  1  0  0  0
  -20.5902  -28.3701   23.1261 C   0  0  2  0  0  0
  -20.6785  -26.9416   22.5405 C   0  0  0  0  0  0
  -19.5765  -26.6377   21.5208 C   0  0  0  0  0  0
  -18.1944  -26.7923   22.1615 C   0  0  0  0  0  0
  -19.1551  -28.8853   23.2873 C   0  0  0  0  0  0
  -18.9470  -30.1449   23.8894 C   0  0  0  0  0  0
  -17.6470  -30.6582   24.0560 C   0  0  0  0  0  0
  -25.9063  -34.9430   23.5085 C   0  0  0  0  0  0
  -16.5358  -29.9078   23.6329 C   0  0  0  0  0  0
  -16.7282  -28.6493   23.0358 C   0  0  0  0  0  0
  -26.4519  -31.6576   25.0725 C   0  0  0  0  0  0
  -25.3739  -31.3755   26.1451 C   0  0  0  0  0  0
  -27.0369  -30.2983   24.6235 C   0  0  0  0  0  0
  -27.6062  -32.4324   25.7499 C   0  0  0  0  0  0
  -27.5579  -37.1802   24.8462 C   0  0  0  0  0  0
  -21.4210  -29.3058   22.3645 N   0  0  0  0  0  0
  -26.4283  -37.3764   23.9418 N   0  0  0  0  0  0
  -24.6987  -31.0515   22.0963 N   0  0  0  0  0  0
  -23.4209  -28.8142   23.2970 O   0  0  0  0  0  0
  -28.3002  -26.3468   20.2046 O   0  0  0  0  0  0
  -26.5623  -34.8911   22.4649 O   0  0  0  0  0  0
  -23.5482  -32.1341   23.7307 O   0  0  0  0  0  0
  -30.2040  -24.0856   21.1546 C   0  0  0  0  0  0
  -29.0530  -23.7449   20.4202 C   0  0  0  0  0  0
  -29.8167  -21.4386   20.3911 C   0  0  0  0  0  0
  -30.9903  -21.8895   21.0675 C   0  0  0  0  0  0
  -30.0637  -18.1596   21.8448 C   0  0  0  0  0  0
  -29.3995  -18.6033   20.5698 C   0  0  2  0  0  0
  -30.3206  -17.2858   20.6261 C   0  0  2  0  0  0
  -33.4684  -21.5110   20.5864 C   0  0  0  0  0  0
  -29.7431  -19.9594   19.7817 C   0  0  0  0  0  0
  -32.2130  -21.0141   21.3198 C   0  0  0  0  0  0
  -28.0080  -24.8762   20.0276 C   0  0  0  0  0  0
  -31.1481  -23.1739   21.4834 N   0  0  0  0  0  0
  -28.8552  -22.4021   20.0711 N   0  0  0  0  0  0
  -29.8890  -15.8517   20.7456 N   0  0  0  0  0  0
  -31.4669  -12.5344   19.1876 H   0  0  0  0  0  0
  -30.3303  -11.4533   19.9448 H   0  0  0  0  0  0
  -29.7930  -11.7801   17.4967 H   0  0  0  0  0  0
  -29.6476  -13.5009   17.7521 H   0  0  0  0  0  0
  -27.8844  -11.3045   18.8831 H   0  0  0  0  0  0
  -27.3785  -12.5680   17.7937 H   0  0  0  0  0  0
  -27.6402  -14.2680   19.4946 H   0  0  0  0  0  0
  -28.7097  -12.1561   21.4298 H   0  0  0  0  0  0
  -28.4239  -13.8359   21.8067 H   0  0  0  0  0  0
  -25.2781   -9.5699   22.4747 H   0  0  0  0  0  0
  -24.0022   -7.4637   22.7445 H   0  0  0  0  0  0
  -21.0848   -8.8775   19.8972 H   0  0  0  0  0  0
  -22.3679  -10.9682   19.6154 H   0  0  0  0  0  0
  -21.2022   -7.6146   23.9723 H   0  0  0  0  0  0
  -21.1490   -6.0515   25.9081 H   0  0  0  0  0  0
  -22.0596   -2.7604   23.2838 H   0  0  0  0  0  0
  -22.4069  -11.9916   22.4896 H   0  0  0  0  0  0
  -21.1049  -13.1229   22.2615 H   0  0  0  0  0  0
  -24.6346  -15.8411   20.4910 H   0  0  0  0  0  0
  -26.2580  -15.6372   20.0685 H   0  0  0  0  0  0
  -26.7230  -32.5400   23.1082 H   0  0  0  0  0  0
  -25.0155  -33.9672   25.0434 H   0  0  0  0  0  0
  -22.7285  -31.3043   21.3955 H   0  0  0  0  0  0
  -23.3743  -35.9621   23.3283 H   0  0  0  0  0  0
  -24.3590  -36.8913   22.2058 H   0  0  0  0  0  0
  -23.7250  -37.6482   23.6669 H   0  0  0  0  0  0
  -26.1194  -31.5335   20.6176 H   0  0  0  0  0  0
  -26.8541  -30.8124   22.0157 H   0  0  0  0  0  0
  -28.1164  -28.9127   21.2220 H   0  0  0  0  0  0
  -25.9321  -25.9187   18.9830 H   0  0  0  0  0  0
  -23.9712  -27.3262   18.9860 H   0  0  0  0  0  0
  -23.7839  -30.5965   19.4011 H   0  0  0  0  0  0
  -22.7687  -29.2566   19.8443 H   0  0  0  0  0  0
  -25.1298  -36.1886   25.0817 H   0  0  0  0  0  0
  -21.0007  -28.3275   24.1381 H   0  0  0  0  0  0
  -20.5678  -26.2314   23.3615 H   0  0  0  0  0  0
  -21.6659  -26.7440   22.1217 H   0  0  0  0  0  0
  -19.6938  -25.6283   21.1253 H   0  0  0  0  0  0
  -19.6704  -27.3166   20.6722 H   0  0  0  0  0  0
  -17.4225  -26.6674   21.4006 H   0  0  0  0  0  0
  -18.0342  -26.0051   22.8995 H   0  0  0  0  0  0
  -19.7944  -30.7264   24.2274 H   0  0  0  0  0  0
  -17.5024  -31.6266   24.5159 H   0  0  0  0  0  0
  -15.5360  -30.2989   23.7649 H   0  0  0  0  0  0
  -15.8679  -28.0812   22.7079 H   0  0  0  0  0  0
  -24.5889  -30.7127   25.7796 H   0  0  0  0  0  0
  -24.8967  -32.2943   26.4867 H   0  0  0  0  0  0
  -25.8053  -30.8935   27.0232 H   0  0  0  0  0  0
  -26.2963  -29.6719   24.1249 H   0  0  0  0  0  0
  -27.4022  -29.7263   25.4777 H   0  0  0  0  0  0
  -27.8855  -30.4238   23.9506 H   0  0  0  0  0  0
  -27.2647  -33.3603   26.2101 H   0  0  0  0  0  0
  -28.3866  -32.6923   25.0332 H   0  0  0  0  0  0
  -28.0747  -31.8441   26.5400 H   0  0  0  0  0  0
  -28.2595  -38.0100   24.7509 H   0  0  0  0  0  0
  -28.1074  -36.2633   24.6268 H   0  0  0  0  0  0
  -27.2318  -37.1446   25.8872 H   0  0  0  0  0  0
  -20.9384  -29.8788   21.6863 H   0  0  0  0  0  0
  -26.0142  -38.2835   24.1409 H   0  0  0  0  0  0
  -30.3858  -25.1050   21.4628 H   0  0  0  0  0  0
  -29.3978  -17.7714   22.6128 H   0  0  0  0  0  0
  -30.8958  -18.7291   22.2449 H   0  0  0  0  0  0
  -28.3264  -18.4240   20.5698 H   0  0  0  0  0  0
  -31.3009  -17.4170   20.1664 H   0  0  0  0  0  0
  -34.3124  -20.8457   20.7712 H   0  0  0  0  0  0
  -33.7566  -22.5085   20.9191 H   0  0  0  0  0  0
  -33.3091  -21.5502   19.5086 H   0  0  0  0  0  0
  -30.6853  -19.7870   19.2603 H   0  0  0  0  0  0
  -29.0232  -20.0137   18.9651 H   0  0  0  0  0  0
  -32.0457  -19.9920   20.9975 H   0  0  0  0  0  0
  -32.3988  -20.9747   22.3937 H   0  0  0  0  0  0
  -27.1032  -24.6354   20.5876 H   0  0  0  0  0  0
  -27.7786  -24.7105   18.9754 H   0  0  0  0  0  0
  -28.9240  -15.6873   20.9915 H   0  0  0  0  0  0
  1 25  1  0  0  0
  1 30  2  0  0  0
  1 84  1  0  0  0
  2  3  1  0  0  0
  2 25  1  0  0  0
  2 85  1  0  0  0
  2 86  1  0  0  0
  3  4  1  0  0  0
  3 87  1  0  0  0
  3 88  1  0  0  0
  4  5  1  0  0  0
  4 89  1  0  0  0
  4 90  1  0  0  0
  5  6  1  0  0  0
  5 26  1  0  0  0
  5 91  1  0  0  0
  6 25  1  0  0  0
  6 92  1  0  0  0
  6 93  1  0  0  0
  7  8  2  0  0  0
  7 26  1  0  0  0
  7 29  1  0  0  0
  8  9  1  0  0  0
  8 22  1  0  0  0
  9 10  1  0  0  0
  9 27  2  0  0  0
 10 11  2  0  0  0
 10 15  1  0  0  0
 11 12  1  0  0  0
 11 94  1  0  0  0
 12 13  2  0  0  0
 12 95  1  0  0  0
 13 14  1  0  0  0
 13 31  1  0  0  0
 14 15  2  0  0  0
 14 96  1  0  0  0
 15 97  1  0  0  0
 16 17  2  0  0  0
 16 21  1  0  0  0
 16 31  1  0  0  0
 17 18  1  0  0  0
 17 98  1  0  0  0
 18 19  2  0  0  0
 18 99  1  0  0  0
 19 20  1  0  0  0
 19 24  1  0  0  0
 20 21  2  0  0  0
 20100  1  0  0  0
 21 23  1  0  0  0
 22 28  1  0  0  0
 22 32  2  0  0  0
 26 27  1  0  0  0
 28101  1  0  0  0
 28102  1  0  0  0
 29103  1  0  0  0
 29104  1  0  0  0
 33 34  1  0  0  0
 33 66  1  0  0  0
 33 70  2  0  0  0
 34 36  1  0  0  0
 34 59  1  0  0  0
 34105  1  0  0  0
 35 44  2  0  0  0
 35 45  1  0  0  0
 35 68  1  0  0  0
 36 56  1  0  0  0
 36106  1  0  0  0
 37 39  1  0  0  0
 37 47  1  0  0  0
 37 66  1  0  0  0
 37107  1  0  0  0
 38 43  2  0  0  0
 38 46  1  0  0  0
 38 47  1  0  0  0
 39 64  1  0  0  0
 39 67  2  0  0  0
 40 52  1  0  0  0
 40 53  2  0  0  0
 40 58  1  0  0  0
 41108  1  0  0  0
 41109  1  0  0  0
 41110  1  0  0  0
 41 48  1  0  0  0
 42 43  1  0  0  0
 42 66  1  0  0  0
 42111  1  0  0  0
 42112  1  0  0  0
 43 44  1  0  0  0
 44113  1  0  0  0
 45 46  2  0  0  0
 45114  1  0  0  0
 46115  1  0  0  0
 47116  1  0  0  0
 47117  1  0  0  0
 48 56  1  0  0  0
 48 65  1  0  0  0
 48118  1  0  0  0
 49 50  1  0  0  0
 49 53  1  0  0  0
 49 64  1  0  0  0
 49119  1  0  0  0
 50 51  1  0  0  0
 50120  1  0  0  0
 50121  1  0  0  0
 51 52  1  0  0  0
 51122  1  0  0  0
 51123  1  0  0  0
 52124  1  0  0  0
 52125  1  0  0  0
 53 54  1  0  0  0
 54 55  2  0  0  0
 54126  1  0  0  0
 55 57  1  0  0  0
 55127  1  0  0  0
 56 69  2  0  0  0
 57 58  2  0  0  0
 57128  1  0  0  0
 58129  1  0  0  0
 59 60  1  0  0  0
 59 61  1  0  0  0
 59 62  1  0  0  0
 60130  1  0  0  0
 60131  1  0  0  0
 60132  1  0  0  0
 61133  1  0  0  0
 61134  1  0  0  0
 61135  1  0  0  0
 62136  1  0  0  0
 62137  1  0  0  0
 62138  1  0  0  0
 63 65  1  0  0  0
 63139  1  0  0  0
 63140  1  0  0  0
 63141  1  0  0  0
 64142  1  0  0  0
 65143  1  0  0  0
 68 81  1  0  0  0
 71 72  2  0  0  0
 71 82  1  0  0  0
 71144  1  0  0  0
 72 81  1  0  0  0
 72 83  1  0  0  0
 73 74  1  0  0  0
 73 79  1  0  0  0
 73 83  2  0  0  0
 74 80  1  0  0  0
 74 82  2  0  0  0
 75 76  1  0  0  0
 75 77  1  0  0  0
 75145  1  0  0  0
 75146  1  0  0  0
 76 77  1  0  0  0
 76 79  1  0  0  0
 76147  1  0  0  0
 77 84  1  0  0  0
 77148  1  0  0  0
 78 80  1  0  0  0
 78149  1  0  0  0
 78150  1  0  0  0
 78151  1  0  0  0
 79152  1  0  0  0
 79153  1  0  0  0
 80154  1  0  0  0
 80155  1  0  0  0
 81156  1  0  0  0
 81157  1  0  0  0
 84158  1  0  0  0
M  ISO  4   1 100  68 101  81 101  84 100
M  END
> <chiral flag>
0

> <version>
0

> <s_m_source_file>
/data/baiqing/PycharmProjects/Reinvent-master-3.2/result/LINK_invent/BTK/process_docking_weight1_custom_sum_contain_oxygen_bond_distance_aromatic_linkinvent_7_9_3/rearranged_h_0184.sdf

> <i_m_source_file_index>
11

> <r_mmod_Potential_Energy-OPLS-2005>
287.342193603516

> <r_mmod_Stretch_Energy-OPLS-2005>
130.730834960938

> <r_mmod_Bend_Energy-OPLS-2005>
170.637619018555

> <r_mmod_Torsional_Energy-OPLS-2005>
266.517486572266

> <r_mmod_Improper_Torsional_Energy-OPLS-2005>
5.95163154602051

> <r_mmod_Van_der_Waal_Energy-OPLS-2005>
145.135665893555

> <r_mmod_Electrostatic_Energy-OPLS-2005>
-289.243408203125

> <r_mmod_Solvation_Energy-OPLS-2005>
-222.911849975586

> <b_mmod_Minimization_Converged-OPLS-2005>
0

> <r_mmod_RMS_Derivative-OPLS-2005>
2.29364204406738

$$$$
11
                    3D
 Structure written by MMmdl.
155164  0  0  1  0            999 V2000
  -30.5746  -14.8662   20.4588 C   0  0  0  0  0  0
  -30.4462  -12.5436   19.5048 C   0  0  0  0  0  0
  -29.5334  -12.5559   18.2593 C   0  0  0  0  0  0
  -28.0608  -12.3503   18.6670 C   0  0  0  0  0  0
  -27.6409  -13.2555   19.8581 C   0  0  2  0  0  0
  -28.6803  -13.2243   21.0002 C   0  0  0  0  0  0
  -25.2465  -13.8239   20.5740 C   0  0  0  0  0  0
  -24.1785  -13.0428   20.9268 C   0  0  0  0  0  0
  -24.6431  -11.6936   20.8771 C   0  0  0  0  0  0
  -23.9104  -10.4292   21.0429 C   0  0  0  0  0  0
  -24.3648   -9.4202   21.9198 C   0  0  0  0  0  0
  -23.6329   -8.2223   22.0745 C   0  0  0  0  0  0
  -22.4297   -8.0283   21.3540 C   0  0  0  0  0  0
  -21.9950   -9.0245   20.4632 C   0  0  0  0  0  0
  -22.7276  -10.2139   20.3071 C   0  0  0  0  0  0
  -21.6843   -6.0756   22.5303 C   0  0  0  0  0  0
  -21.3995   -6.5650   23.8237 C   0  0  0  0  0  0
  -21.3666   -5.6799   24.9197 C   0  0  0  0  0  0
  -21.6053   -4.3066   24.7244 C   0  0  0  0  0  0
  -21.8815   -3.8166   23.4360 C   0  0  0  0  0  0
  -21.9185   -4.6984   22.3424 C   0  0  0  0  0  0
  -22.7792  -13.5185   21.1937 C   0  0  0  0  0  0
  -22.1657   -4.2183   21.0994 F   0  0  0  0  0  0
  -21.5656   -3.4544   25.7744 F   0  0  0  0  0  0
  -29.9740  -13.6167   20.4208 N   0  0  0  0  0  0
  -26.2935  -12.9502   20.3306 N   0  0  0  0  0  0
  -25.9364  -11.6609   20.5757 N   0  0  0  0  0  0
  -22.0418  -12.8156   22.0485 N   0  0  0  0  0  0
  -25.4094  -15.1968   20.4138 N   0  0  0  0  0  0
  -31.7566  -14.9531   20.1091 O   0  0  0  0  0  0
  -21.6640   -6.8898   21.4260 O   0  0  0  0  0  0
  -22.3483  -14.5478   20.6792 O   0  0  0  0  0  0
  -24.6434  -31.8506   23.1921 C   0  0  0  0  0  0
  -25.9220  -32.4736   23.8302 C   0  0  1  0  0  0
  -27.2164  -27.1870   20.1380 C   0  0  0  0  0  0
  -25.6008  -33.8535   24.2250 N   0  0  0  0  0  0
  -23.4422  -30.4743   21.5405 C   0  0  2  0  0  0
  -24.8842  -28.9129   20.1190 C   0  0  0  0  0  0
  -22.7553  -29.4591   22.4884 C   0  0  0  0  0  0
  -18.0315  -28.1440   22.8476 C   0  0  0  0  0  0
  -24.1496  -36.7230   23.2623 C   0  0  0  0  0  0
  -25.9951  -30.7425   21.3795 C   0  0  0  0  0  0
  -26.0664  -29.3579   20.7229 C   0  0  0  0  0  0
  -27.2343  -28.5125   20.7155 C   0  0  0  0  0  0
  -25.9970  -26.8342   19.5030 C   0  0  0  0  0  0
  -24.8580  -27.6609   19.4992 C   0  0  0  0  0  0
  -23.6623  -29.8116   20.1591 C   0  0  0  0  0  0
  -25.4119  -36.3032   24.0329 C   0  0  1  0  0  0
  -20.5924  -28.3749   23.1265 C   0  0  2  0  0  0
  -20.6813  -26.9450   22.5442 C   0  0  0  0  0  0
  -19.5805  -26.6404   21.5238 C   0  0  0  0  0  0
  -18.1960  -26.7996   22.1587 C   0  0  0  0  0  0
  -19.1572  -28.8909   23.2877 C   0  0  0  0  0  0
  -18.9486  -30.1506   23.8920 C   0  0  0  0  0  0
  -17.6472  -30.6621   24.0578 C   0  0  0  0  0  0
  -25.9091  -34.9423   23.5083 C   0  0  0  0  0  0
  -16.5373  -29.9108   23.6350 C   0  0  0  0  0  0
  -16.7296  -28.6531   23.0372 C   0  0  0  0  0  0
  -26.4552  -31.6594   25.0726 C   0  0  0  0  0  0
  -25.3761  -31.3764   26.1444 C   0  0  0  0  0  0
  -27.0367  -30.2999   24.6234 C   0  0  0  0  0  0
  -27.6117  -32.4328   25.7519 C   0  0  0  0  0  0
  -27.5614  -37.1715   24.8426 C   0  0  0  0  0  0
  -21.4253  -29.3068   22.3613 N   0  0  0  0  0  0
  -26.4249  -37.3778   23.9484 N   0  0  0  0  0  0
  -24.7147  -31.0395   22.0944 N   0  0  0  0  0  0
  -23.4213  -28.8096   23.2986 O   0  0  0  0  0  0
  -28.2812  -26.2252   20.2038 O   0  0  0  0  0  0
  -26.5623  -34.8904   22.4630 O   0  0  0  0  0  0
  -23.5565  -32.1376   23.7161 O   0  0  0  0  0  0
  -29.2990  -20.5161   20.5474 C   0  0  0  0  0  0
  -29.1871  -21.2693   19.3276 C   0  0  0  0  0  0
  -29.2752  -21.4529   21.6394 C   0  0  0  0  0  0
  -28.7894  -23.3972   20.3503 C   0  0  0  0  0  0
  -28.6434  -18.0043   19.7477 C   0  0  0  0  0  0
  -29.2606  -18.8811   20.7916 C   0  0  1  0  0  0
  -29.9759  -17.4840   20.2442 C   0  0  1  0  0  0
  -29.2808  -20.6210   17.9634 C   0  0  0  0  0  0
  -29.5027  -20.9977   23.0661 C   0  0  0  0  0  0
  -27.8771  -24.7472   20.2598 C   0  0  0  0  0  0
  -28.9320  -22.6260   19.2554 N   0  0  0  0  0  0
  -29.0054  -22.8050   21.5391 N   0  0  0  0  0  0
  -29.7967  -16.0178   20.6687 N   0  0  0  0  0  0
  -31.4915  -12.6787   19.2188 H   0  0  0  0  0  0
  -30.4043  -11.5743   19.9988 H   0  0  0  0  0  0
  -29.8396  -11.7815   17.5541 H   0  0  0  0  0  0
  -29.6495  -13.5093   17.7398 H   0  0  0  0  0  0
  -27.9448  -11.3021   18.9431 H   0  0  0  0  0  0
  -27.4029  -12.5153   17.8131 H   0  0  0  0  0  0
  -27.6202  -14.2747   19.4702 H   0  0  0  0  0  0
  -28.7389  -12.2270   21.4419 H   0  0  0  0  0  0
  -28.3953  -13.9023   21.8084 H   0  0  0  0  0  0
  -25.2798   -9.5671   22.4785 H   0  0  0  0  0  0
  -24.0051   -7.4608   22.7438 H   0  0  0  0  0  0
  -21.0896   -8.8736   19.8918 H   0  0  0  0  0  0
  -22.3726  -10.9666   19.6191 H   0  0  0  0  0  0
  -21.1939   -7.6151   23.9770 H   0  0  0  0  0  0
  -21.1509   -6.0514   25.9107 H   0  0  0  0  0  0
  -22.0584   -2.7626   23.2860 H   0  0  0  0  0  0
  -22.3998  -11.9840   22.4915 H   0  0  0  0  0  0
  -21.1018  -13.1177   22.2640 H   0  0  0  0  0  0
  -24.6212  -15.8349   20.4633 H   0  0  0  0  0  0
  -26.2424  -15.6271   20.0342 H   0  0  0  0  0  0
  -26.7268  -32.5331   23.1013 H   0  0  0  0  0  0
  -25.0225  -33.9709   25.0444 H   0  0  0  0  0  0
  -22.7508  -31.3050   21.3895 H   0  0  0  0  0  0
  -23.3848  -35.9461   23.3114 H   0  0  0  0  0  0
  -24.3596  -36.9035   22.2070 H   0  0  0  0  0  0
  -23.7149  -37.6325   23.6767 H   0  0  0  0  0  0
  -26.1404  -31.4975   20.6055 H   0  0  0  0  0  0
  -26.8706  -30.7933   22.0142 H   0  0  0  0  0  0
  -28.1357  -28.8484   21.2068 H   0  0  0  0  0  0
  -25.8546  -25.8855   19.0127 H   0  0  0  0  0  0
  -23.9437  -27.3174   19.0334 H   0  0  0  0  0  0
  -23.8011  -30.5879   19.4059 H   0  0  0  0  0  0
  -22.7766  -29.2585   19.8423 H   0  0  0  0  0  0
  -25.1290  -36.1816   25.0814 H   0  0  0  0  0  0
  -21.0037  -28.3356   24.1382 H   0  0  0  0  0  0
  -20.5718  -26.2359   23.3658 H   0  0  0  0  0  0
  -21.6684  -26.7481   22.1240 H   0  0  0  0  0  0
  -19.6964  -25.6295   21.1322 H   0  0  0  0  0  0
  -19.6798  -27.3186   20.6753 H   0  0  0  0  0  0
  -17.4261  -26.6830   21.3943 H   0  0  0  0  0  0
  -18.0279  -26.0134   22.8955 H   0  0  0  0  0  0
  -19.7948  -30.7344   24.2313 H   0  0  0  0  0  0
  -17.5005  -31.6298   24.5178 H   0  0  0  0  0  0
  -15.5367  -30.3003   23.7695 H   0  0  0  0  0  0
  -15.8693  -28.0840   22.7115 H   0  0  0  0  0  0
  -24.5971  -30.7073   25.7773 H   0  0  0  0  0  0
  -24.8914  -32.2926   26.4821 H   0  0  0  0  0  0
  -25.8072  -30.8992   27.0256 H   0  0  0  0  0  0
  -26.2919  -29.6775   24.1262 H   0  0  0  0  0  0
  -27.4020  -29.7258   25.4756 H   0  0  0  0  0  0
  -27.8827  -30.4250   23.9478 H   0  0  0  0  0  0
  -27.2764  -33.3671   26.2042 H   0  0  0  0  0  0
  -28.3975  -32.6822   25.0377 H   0  0  0  0  0  0
  -28.0733  -31.8477   26.5488 H   0  0  0  0  0  0
  -28.2453  -38.0182   24.7710 H   0  0  0  0  0  0
  -28.1291  -36.2724   24.5934 H   0  0  0  0  0  0
  -27.2363  -37.0990   25.8819 H   0  0  0  0  0  0
  -20.9469  -29.8744   21.6760 H   0  0  0  0  0  0
  -26.0096  -38.2789   24.1694 H   0  0  0  0  0  0
  -28.6431  -18.2756   18.6998 H   0  0  0  0  0  0
  -27.7371  -17.4862   20.0598 H   0  0  0  0  0  0
  -28.8009  -18.7605   21.7705 H   0  0  0  0  0  0
  -30.8434  -17.6545   19.6056 H   0  0  0  0  0  0
  -30.0545  -19.8538   17.9561 H   0  0  0  0  0  0
  -29.5398  -21.3356   17.1811 H   0  0  0  0  0  0
  -28.3169  -20.1850   17.7014 H   0  0  0  0  0  0
  -29.9996  -20.0310   23.1117 H   0  0  0  0  0  0
  -28.5495  -20.9310   23.5884 H   0  0  0  0  0  0
  -30.1454  -21.6998   23.5990 H   0  0  0  0  0  0
  -27.1714  -24.6745   21.0886 H   0  0  0  0  0  0
  -27.3025  -24.5477   19.3612 H   0  0  0  0  0  0
  -28.8687  -15.8053   21.0040 H   0  0  0  0  0  0
  1 25  1  0  0  0
  1 30  2  0  0  0
  1 83  1  0  0  0
  2  3  1  0  0  0
  2 25  1  0  0  0
  2 84  1  0  0  0
  2 85  1  0  0  0
  3  4  1  0  0  0
  3 86  1  0  0  0
  3 87  1  0  0  0
  4  5  1  0  0  0
  4 88  1  0  0  0
  4 89  1  0  0  0
  5  6  1  0  0  0
  5 26  1  0  0  0
  5 90  1  0  0  0
  6 25  1  0  0  0
  6 91  1  0  0  0
  6 92  1  0  0  0
  7  8  2  0  0  0
  7 26  1  0  0  0
  7 29  1  0  0  0
  8  9  1  0  0  0
  8 22  1  0  0  0
  9 10  1  0  0  0
  9 27  2  0  0  0
 10 11  2  0  0  0
 10 15  1  0  0  0
 11 12  1  0  0  0
 11 93  1  0  0  0
 12 13  2  0  0  0
 12 94  1  0  0  0
 13 14  1  0  0  0
 13 31  1  0  0  0
 14 15  2  0  0  0
 14 95  1  0  0  0
 15 96  1  0  0  0
 16 17  2  0  0  0
 16 21  1  0  0  0
 16 31  1  0  0  0
 17 18  1  0  0  0
 17 97  1  0  0  0
 18 19  2  0  0  0
 18 98  1  0  0  0
 19 20  1  0  0  0
 19 24  1  0  0  0
 20 21  2  0  0  0
 20 99  1  0  0  0
 21 23  1  0  0  0
 22 28  1  0  0  0
 22 32  2  0  0  0
 26 27  1  0  0  0
 28100  1  0  0  0
 28101  1  0  0  0
 29102  1  0  0  0
 29103  1  0  0  0
 33 34  1  0  0  0
 33 66  1  0  0  0
 33 70  2  0  0  0
 34 36  1  0  0  0
 34 59  1  0  0  0
 34104  1  0  0  0
 35 44  2  0  0  0
 35 45  1  0  0  0
 35 68  1  0  0  0
 36 56  1  0  0  0
 36105  1  0  0  0
 37 39  1  0  0  0
 37 47  1  0  0  0
 37 66  1  0  0  0
 37106  1  0  0  0
 38 43  2  0  0  0
 38 46  1  0  0  0
 38 47  1  0  0  0
 39 64  1  0  0  0
 39 67  2  0  0  0
 40 52  1  0  0  0
 40 53  2  0  0  0
 40 58  1  0  0  0
 41107  1  0  0  0
 41108  1  0  0  0
 41109  1  0  0  0
 41 48  1  0  0  0
 42 43  1  0  0  0
 42 66  1  0  0  0
 42110  1  0  0  0
 42111  1  0  0  0
 43 44  1  0  0  0
 44112  1  0  0  0
 45 46  2  0  0  0
 45113  1  0  0  0
 46114  1  0  0  0
 47115  1  0  0  0
 47116  1  0  0  0
 48 56  1  0  0  0
 48 65  1  0  0  0
 48117  1  0  0  0
 49 50  1  0  0  0
 49 53  1  0  0  0
 49 64  1  0  0  0
 49118  1  0  0  0
 50 51  1  0  0  0
 50119  1  0  0  0
 50120  1  0  0  0
 51 52  1  0  0  0
 51121  1  0  0  0
 51122  1  0  0  0
 52123  1  0  0  0
 52124  1  0  0  0
 53 54  1  0  0  0
 54 55  2  0  0  0
 54125  1  0  0  0
 55 57  1  0  0  0
 55126  1  0  0  0
 56 69  2  0  0  0
 57 58  2  0  0  0
 57127  1  0  0  0
 58128  1  0  0  0
 59 60  1  0  0  0
 59 61  1  0  0  0
 59 62  1  0  0  0
 60129  1  0  0  0
 60130  1  0  0  0
 60131  1  0  0  0
 61132  1  0  0  0
 61133  1  0  0  0
 61134  1  0  0  0
 62135  1  0  0  0
 62136  1  0  0  0
 62137  1  0  0  0
 63 65  1  0  0  0
 63138  1  0  0  0
 63139  1  0  0  0
 63140  1  0  0  0
 64141  1  0  0  0
 65142  1  0  0  0
 68 80  1  0  0  0
 71 72  2  0  0  0
 71 73  1  0  0  0
 71 76  1  0  0  0
 72 78  1  0  0  0
 72 81  1  0  0  0
 73 79  1  0  0  0
 73 82  2  0  0  0
 74 80  1  0  0  0
 74 81  2  0  0  0
 74 82  1  0  0  0
 75 76  1  0  0  0
 75 77  1  0  0  0
 75143  1  0  0  0
 75144  1  0  0  0
 76 77  1  0  0  0
 76145  1  0  0  0
 77 83  1  0  0  0
 77146  1  0  0  0
 78147  1  0  0  0
 78148  1  0  0  0
 78149  1  0  0  0
 79150  1  0  0  0
 79151  1  0  0  0
 79152  1  0  0  0
 80153  1  0  0  0
 80154  1  0  0  0
 83155  1  0  0  0
M  ISO  4   1 100  68 101  80 101  83 100
M  END
> <chiral flag>
0

> <version>
0

> <s_m_source_file>
/data/baiqing/PycharmProjects/Reinvent-master-3.2/result/LINK_invent/BTK/process_docking_weight1_custom_sum_contain_oxygen_bond_distance_aromatic_linkinvent_7_9_3/rearranged_h_0184.sdf

> <i_m_source_file_index>
12

> <r_mmod_Potential_Energy-OPLS-2005>
71.7106475830078

> <r_mmod_Stretch_Energy-OPLS-2005>
197.434967041016

> <r_mmod_Bend_Energy-OPLS-2005>
262.842681884766

> <r_mmod_Torsional_Energy-OPLS-2005>
278.368621826172

> <r_mmod_Improper_Torsional_Energy-OPLS-2005>
11.644513130188

> <r_mmod_Van_der_Waal_Energy-OPLS-2005>
153.84684753418

> <r_mmod_Electrostatic_Energy-OPLS-2005>
-735.329284667969

> <r_mmod_Solvation_Energy-OPLS-2005>
-240.906219482422

> <b_mmod_Minimization_Converged-OPLS-2005>
0

> <r_mmod_RMS_Derivative-OPLS-2005>
4.48891639709473

$$$$
12
                    3D
 Structure written by MMmdl.
158167  0  0  1  0            999 V2000
  -30.5655  -14.9168   20.3950 C   0  0  0  0  0  0
  -30.4372  -12.5668   19.4759 C   0  0  0  0  0  0
  -29.5112  -12.5161   18.2405 C   0  0  0  0  0  0
  -28.0453  -12.3041   18.6666 C   0  0  0  0  0  0
  -27.6261  -13.2294   19.8391 C   0  0  2  0  0  0
  -28.6802  -13.2738   20.9639 C   0  0  0  0  0  0
  -25.2491  -13.8163   20.5751 C   0  0  0  0  0  0
  -24.1779  -13.0414   20.9231 C   0  0  0  0  0  0
  -24.6370  -11.6891   20.8769 C   0  0  0  0  0  0
  -23.9047  -10.4277   21.0422 C   0  0  0  0  0  0
  -24.3611   -9.4197   21.9196 C   0  0  0  0  0  0
  -23.6291   -8.2231   22.0756 C   0  0  0  0  0  0
  -22.4273   -8.0267   21.3541 C   0  0  0  0  0  0
  -21.9906   -9.0239   20.4645 C   0  0  0  0  0  0
  -22.7224  -10.2126   20.3063 C   0  0  0  0  0  0
  -21.6848   -6.0732   22.5278 C   0  0  0  0  0  0
  -21.4005   -6.5638   23.8211 C   0  0  0  0  0  0
  -21.3663   -5.6793   24.9175 C   0  0  0  0  0  0
  -21.6050   -4.3055   24.7230 C   0  0  0  0  0  0
  -21.8821   -3.8147   23.4350 C   0  0  0  0  0  0
  -21.9190   -4.6960   22.3402 C   0  0  0  0  0  0
  -22.7807  -13.5208   21.1875 C   0  0  0  0  0  0
  -22.1656   -4.2146   21.0981 F   0  0  0  0  0  0
  -21.5637   -3.4539   25.7742 F   0  0  0  0  0  0
  -29.9503  -13.6706   20.3432 N   0  0  0  0  0  0
  -26.2885  -12.9342   20.3316 N   0  0  0  0  0  0
  -25.9303  -11.6495   20.5792 N   0  0  0  0  0  0
  -22.0453  -12.8204   22.0430 N   0  0  0  0  0  0
  -25.4222  -15.1888   20.4205 N   0  0  0  0  0  0
  -31.7931  -14.9541   20.2547 O   0  0  0  0  0  0
  -21.6636   -6.8869   21.4236 O   0  0  0  0  0  0
  -22.3504  -14.5515   20.6713 O   0  0  0  0  0  0
  -24.6438  -31.8459   23.1923 C   0  0  0  0  0  0
  -25.9217  -32.4706   23.8300 C   0  0  1  0  0  0
  -27.2112  -27.1438   20.1427 C   0  0  0  0  0  0
  -25.5969  -33.8513   24.2210 N   0  0  0  0  0  0
  -23.4465  -30.4698   21.5377 C   0  0  2  0  0  0
  -24.8953  -28.9066   20.1107 C   0  0  0  0  0  0
  -22.7568  -29.4567   22.4859 C   0  0  0  0  0  0
  -18.0305  -28.1401   22.8472 C   0  0  0  0  0  0
  -24.1493  -36.7253   23.2637 C   0  0  0  0  0  0
  -26.0051  -30.7219   21.3934 C   0  0  0  0  0  0
  -26.0756  -29.3366   20.7306 C   0  0  0  0  0  0
  -27.2353  -28.4722   20.7317 C   0  0  0  0  0  0
  -26.0025  -26.8273   19.4767 C   0  0  0  0  0  0
  -24.8716  -27.6642   19.4697 C   0  0  0  0  0  0
  -23.6731  -29.8071   20.1551 C   0  0  0  0  0  0
  -25.4126  -36.3030   24.0312 C   0  0  1  0  0  0
  -20.5918  -28.3727   23.1226 C   0  0  2  0  0  0
  -20.6795  -26.9430   22.5394 C   0  0  0  0  0  0
  -19.5765  -26.6383   21.5208 C   0  0  0  0  0  0
  -18.1945  -26.7936   22.1622 C   0  0  0  0  0  0
  -19.1561  -28.8883   23.2844 C   0  0  0  0  0  0
  -18.9478  -30.1482   23.8869 C   0  0  0  0  0  0
  -17.6472  -30.6597   24.0559 C   0  0  0  0  0  0
  -25.9078  -34.9409   23.5065 C   0  0  0  0  0  0
  -16.5365  -29.9089   23.6338 C   0  0  0  0  0  0
  -16.7290  -28.6510   23.0358 C   0  0  0  0  0  0
  -26.4539  -31.6570   25.0738 C   0  0  0  0  0  0
  -25.3720  -31.3762   26.1426 C   0  0  0  0  0  0
  -27.0404  -30.2960   24.6333 C   0  0  0  0  0  0
  -27.6072  -32.4334   25.7521 C   0  0  0  0  0  0
  -27.5578  -37.1780   24.8459 C   0  0  0  0  0  0
  -21.4260  -29.3061   22.3605 N   0  0  0  0  0  0
  -26.4283  -37.3747   23.9408 N   0  0  0  0  0  0
  -24.7184  -31.0329   22.0957 N   0  0  0  0  0  0
  -23.4214  -28.8095   23.2994 O   0  0  0  0  0  0
  -28.2400  -26.1306   20.2213 O   0  0  0  0  0  0
  -26.5652  -34.8901   22.4634 O   0  0  0  0  0  0
  -23.5558  -32.1333   23.7142 O   0  0  0  0  0  0
  -28.6859  -22.4269   21.4204 C   0  0  0  0  0  0
  -29.0601  -21.0166   21.4156 C   0  0  0  0  0  0
  -29.3812  -20.3432   20.1875 C   0  0  0  0  0  0
  -28.6421  -23.2226   20.2241 C   0  0  0  0  0  0
  -28.9622  -18.0338   18.9246 C   0  0  0  0  0  0
  -29.3294  -16.5168   18.9528 C   0  0  0  0  0  0
  -29.9361  -17.5113   20.9654 C   0  0  0  0  0  0
  -29.8672  -18.7731   19.9191 C   0  0  2  0  0  0
  -29.0749  -20.2515   22.7248 C   0  0  0  0  0  0
  -31.2953  -18.8780   19.3398 C   0  0  0  0  0  0
  -27.8203  -24.6441   20.0425 C   0  0  0  0  0  0
  -29.3335  -21.1786   19.0856 N   0  0  0  0  0  0
  -28.9813  -22.5076   19.0958 N   0  0  0  0  0  0
  -29.7968  -16.1142   20.2972 N   0  0  0  0  0  0
  -31.4695  -12.7246   19.1598 H   0  0  0  0  0  0
  -30.4268  -11.6162   20.0123 H   0  0  0  0  0  0
  -29.8231  -11.7210   17.5624 H   0  0  0  0  0  0
  -29.5984  -13.4479   17.6785 H   0  0  0  0  0  0
  -27.9367  -11.2604   18.9647 H   0  0  0  0  0  0
  -27.3801  -12.4460   17.8142 H   0  0  0  0  0  0
  -27.5685  -14.2236   19.4119 H   0  0  0  0  0  0
  -28.7715  -12.3078   21.4620 H   0  0  0  0  0  0
  -28.3920  -13.9966   21.7292 H   0  0  0  0  0  0
  -25.2758   -9.5670   22.4773 H   0  0  0  0  0  0
  -23.9996   -7.4620   22.7480 H   0  0  0  0  0  0
  -21.0832   -8.8753   19.8952 H   0  0  0  0  0  0
  -22.3677  -10.9667   19.6173 H   0  0  0  0  0  0
  -21.1986   -7.6144   23.9710 H   0  0  0  0  0  0
  -21.1486   -6.0526   25.9077 H   0  0  0  0  0  0
  -22.0596   -2.7606   23.2853 H   0  0  0  0  0  0
  -22.4064  -11.9855   22.4800 H   0  0  0  0  0  0
  -21.1073  -13.1236   22.2641 H   0  0  0  0  0  0
  -24.6626  -15.8491   20.5445 H   0  0  0  0  0  0
  -26.2905  -15.6295   20.1439 H   0  0  0  0  0  0
  -26.7283  -32.5311   23.1029 H   0  0  0  0  0  0
  -25.0116  -33.9641   25.0355 H   0  0  0  0  0  0
  -22.7494  -31.2965   21.3864 H   0  0  0  0  0  0
  -23.3766  -35.9573   23.3273 H   0  0  0  0  0  0
  -24.3581  -36.8912   22.2056 H   0  0  0  0  0  0
  -23.7245  -37.6437   23.6695 H   0  0  0  0  0  0
  -26.1634  -31.4802   20.6255 H   0  0  0  0  0  0
  -26.8739  -30.7666   22.0382 H   0  0  0  0  0  0
  -28.1312  -28.7950   21.2433 H   0  0  0  0  0  0
  -25.8704  -25.8886   18.9652 H   0  0  0  0  0  0
  -23.9724  -27.3299   18.9709 H   0  0  0  0  0  0
  -23.8124  -30.5847   19.4032 H   0  0  0  0  0  0
  -22.7883  -29.2513   19.8394 H   0  0  0  0  0  0
  -25.1317  -36.1849   25.0804 H   0  0  0  0  0  0
  -21.0010  -28.3318   24.1347 H   0  0  0  0  0  0
  -20.5690  -26.2345   23.3620 H   0  0  0  0  0  0
  -21.6664  -26.7444   22.1189 H   0  0  0  0  0  0
  -19.6928  -25.6283   21.1263 H   0  0  0  0  0  0
  -19.6701  -27.3177   20.6723 H   0  0  0  0  0  0
  -17.4212  -26.6682   21.4027 H   0  0  0  0  0  0
  -18.0347  -26.0085   22.9029 H   0  0  0  0  0  0
  -19.7954  -30.7310   24.2224 H   0  0  0  0  0  0
  -17.5026  -31.6275   24.5165 H   0  0  0  0  0  0
  -15.5365  -30.2985   23.7682 H   0  0  0  0  0  0
  -15.8690  -28.0827   22.7084 H   0  0  0  0  0  0
  -24.5895  -30.7123   25.7732 H   0  0  0  0  0  0
  -24.8919  -32.2950   26.4805 H   0  0  0  0  0  0
  -25.7990  -30.8949   27.0233 H   0  0  0  0  0  0
  -26.3031  -29.6678   24.1322 H   0  0  0  0  0  0
  -27.3982  -29.7266   25.4921 H   0  0  0  0  0  0
  -27.8956  -30.4183   23.9683 H   0  0  0  0  0  0
  -27.2673  -33.3655   26.2045 H   0  0  0  0  0  0
  -28.3915  -32.6859   25.0371 H   0  0  0  0  0  0
  -28.0706  -31.8492   26.5482 H   0  0  0  0  0  0
  -28.2566  -38.0103   24.7527 H   0  0  0  0  0  0
  -28.1104  -36.2634   24.6258 H   0  0  0  0  0  0
  -27.2295  -37.1389   25.8859 H   0  0  0  0  0  0
  -20.9466  -29.8791   21.6799 H   0  0  0  0  0  0
  -26.0143  -38.2803   24.1436 H   0  0  0  0  0  0
  -28.3663  -22.8857   22.3457 H   0  0  0  0  0  0
  -27.9256  -18.1475   19.2446 H   0  0  0  0  0  0
  -29.0231  -18.4502   17.9178 H   0  0  0  0  0  0
  -30.1246  -16.3259   18.2288 H   0  0  0  0  0  0
  -28.4775  -15.9304   18.6211 H   0  0  0  0  0  0
  -29.0944  -17.5815   21.6543 H   0  0  0  0  0  0
  -30.8328  -17.5565   21.5845 H   0  0  0  0  0  0
  -28.9490  -20.9168   23.5791 H   0  0  0  0  0  0
  -30.0203  -19.7234   22.8524 H   0  0  0  0  0  0
  -28.2645  -19.5223   22.7471 H   0  0  0  0  0  0
  -31.3153  -19.4662   18.4220 H   0  0  0  0  0  0
  -31.7295  -17.9064   19.1041 H   0  0  0  0  0  0
  -31.9622  -19.3625   20.0533 H   0  0  0  0  0  0
  -26.9276  -24.5111   20.6551 H   0  0  0  0  0  0
  -27.4798  -24.5708   19.0103 H   0  0  0  0  0  0
  1 25  1  0  0  0
  1 30  2  0  0  0
  1 84  1  0  0  0
  2  3  1  0  0  0
  2 25  1  0  0  0
  2 85  1  0  0  0
  2 86  1  0  0  0
  3  4  1  0  0  0
  3 87  1  0  0  0
  3 88  1  0  0  0
  4  5  1  0  0  0
  4 89  1  0  0  0
  4 90  1  0  0  0
  5  6  1  0  0  0
  5 26  1  0  0  0
  5 91  1  0  0  0
  6 25  1  0  0  0
  6 92  1  0  0  0
  6 93  1  0  0  0
  7  8  2  0  0  0
  7 26  1  0  0  0
  7 29  1  0  0  0
  8  9  1  0  0  0
  8 22  1  0  0  0
  9 10  1  0  0  0
  9 27  2  0  0  0
 10 11  2  0  0  0
 10 15  1  0  0  0
 11 12  1  0  0  0
 11 94  1  0  0  0
 12 13  2  0  0  0
 12 95  1  0  0  0
 13 14  1  0  0  0
 13 31  1  0  0  0
 14 15  2  0  0  0
 14 96  1  0  0  0
 15 97  1  0  0  0
 16 17  2  0  0  0
 16 21  1  0  0  0
 16 31  1  0  0  0
 17 18  1  0  0  0
 17 98  1  0  0  0
 18 19  2  0  0  0
 18 99  1  0  0  0
 19 20  1  0  0  0
 19 24  1  0  0  0
 20 21  2  0  0  0
 20100  1  0  0  0
 21 23  1  0  0  0
 22 28  1  0  0  0
 22 32  2  0  0  0
 26 27  1  0  0  0
 28101  1  0  0  0
 28102  1  0  0  0
 29103  1  0  0  0
 29104  1  0  0  0
 33 34  1  0  0  0
 33 66  1  0  0  0
 33 70  2  0  0  0
 34 36  1  0  0  0
 34 59  1  0  0  0
 34105  1  0  0  0
 35 44  2  0  0  0
 35 45  1  0  0  0
 35 68  1  0  0  0
 36 56  1  0  0  0
 36106  1  0  0  0
 37 39  1  0  0  0
 37 47  1  0  0  0
 37 66  1  0  0  0
 37107  1  0  0  0
 38 43  2  0  0  0
 38 46  1  0  0  0
 38 47  1  0  0  0
 39 64  1  0  0  0
 39 67  2  0  0  0
 40 52  1  0  0  0
 40 53  2  0  0  0
 40 58  1  0  0  0
 41108  1  0  0  0
 41109  1  0  0  0
 41110  1  0  0  0
 41 48  1  0  0  0
 42 43  1  0  0  0
 42 66  1  0  0  0
 42111  1  0  0  0
 42112  1  0  0  0
 43 44  1  0  0  0
 44113  1  0  0  0
 45 46  2  0  0  0
 45114  1  0  0  0
 46115  1  0  0  0
 47116  1  0  0  0
 47117  1  0  0  0
 48 56  1  0  0  0
 48 65  1  0  0  0
 48118  1  0  0  0
 49 50  1  0  0  0
 49 53  1  0  0  0
 49 64  1  0  0  0
 49119  1  0  0  0
 50 51  1  0  0  0
 50120  1  0  0  0
 50121  1  0  0  0
 51 52  1  0  0  0
 51122  1  0  0  0
 51123  1  0  0  0
 52124  1  0  0  0
 52125  1  0  0  0
 53 54  1  0  0  0
 54 55  2  0  0  0
 54126  1  0  0  0
 55 57  1  0  0  0
 55127  1  0  0  0
 56 69  2  0  0  0
 57 58  2  0  0  0
 57128  1  0  0  0
 58129  1  0  0  0
 59 60  1  0  0  0
 59 61  1  0  0  0
 59 62  1  0  0  0
 60130  1  0  0  0
 60131  1  0  0  0
 60132  1  0  0  0
 61133  1  0  0  0
 61134  1  0  0  0
 61135  1  0  0  0
 62136  1  0  0  0
 62137  1  0  0  0
 62138  1  0  0  0
 63 65  1  0  0  0
 63139  1  0  0  0
 63140  1  0  0  0
 63141  1  0  0  0
 64142  1  0  0  0
 65143  1  0  0  0
 68 81  1  0  0  0
 71 72  2  0  0  0
 71 74  1  0  0  0
 71144  1  0  0  0
 72 73  1  0  0  0
 72 79  1  0  0  0
 73 78  1  0  0  0
 73 82  2  0  0  0
 74 81  1  0  0  0
 74 83  2  0  0  0
 75 76  1  0  0  0
 75 78  1  0  0  0
 75145  1  0  0  0
 75146  1  0  0  0
 76 84  1  0  0  0
 76147  1  0  0  0
 76148  1  0  0  0
 77 78  1  0  0  0
 77 84  1  0  0  0
 77149  1  0  0  0
 77150  1  0  0  0
 78 80  1  0  0  0
 79151  1  0  0  0
 79152  1  0  0  0
 79153  1  0  0  0
 80154  1  0  0  0
 80155  1  0  0  0
 80156  1  0  0  0
 81157  1  0  0  0
 81158  1  0  0  0
 82 83  1  0  0  0
M  ISO  4   1 100  68 101  81 101  84 100
M  END
> <chiral flag>
0

> <version>
0

> <s_m_source_file>
/data/baiqing/PycharmProjects/Reinvent-master-3.2/result/LINK_invent/BTK/process_docking_weight1_custom_sum_contain_oxygen_bond_distance_aromatic_linkinvent_7_9_3/rearranged_h_0184.sdf

> <i_m_source_file_index>
13

> <r_mmod_Potential_Energy-OPLS-2005>
760.526611328125

> <r_mmod_Stretch_Energy-OPLS-2005>
222.893356323242

> <r_mmod_Bend_Energy-OPLS-2005>
307.212188720703

> <r_mmod_Torsional_Energy-OPLS-2005>
348.709503173828

> <r_mmod_Improper_Torsional_Energy-OPLS-2005>
14.3027477264404

> <r_mmod_Van_der_Waal_Energy-OPLS-2005>
134.081192016602

> <r_mmod_Electrostatic_Energy-OPLS-2005>
-231.64860534668

> <r_mmod_Solvation_Energy-OPLS-2005>
-221.50651550293

> <b_mmod_Minimization_Converged-OPLS-2005>
0

> <r_mmod_RMS_Derivative-OPLS-2005>
1.11001312732697

$$$$
13
                    3D
 Structure written by MMmdl.
153162  0  0  1  0            999 V2000
  -30.5224  -15.1218   20.3985 C   0  0  0  0  0  0
  -30.4356  -12.7162   19.5005 C   0  0  0  0  0  0
  -29.5202  -12.5527   18.2644 C   0  0  0  0  0  0
  -28.0643  -12.3008   18.6952 C   0  0  0  0  0  0
  -27.6174  -13.2568   19.8300 C   0  0  2  0  0  0
  -28.6652  -13.3633   20.9592 C   0  0  0  0  0  0
  -25.2397  -13.8197   20.5742 C   0  0  0  0  0  0
  -24.1736  -13.0408   20.9250 C   0  0  0  0  0  0
  -24.6382  -11.6906   20.8772 C   0  0  0  0  0  0
  -23.9077  -10.4276   21.0416 C   0  0  0  0  0  0
  -24.3625   -9.4190   21.9192 C   0  0  0  0  0  0
  -23.6295   -8.2230   22.0757 C   0  0  0  0  0  0
  -22.4276   -8.0273   21.3545 C   0  0  0  0  0  0
  -21.9915   -9.0248   20.4646 C   0  0  0  0  0  0
  -22.7251  -10.2122   20.3059 C   0  0  0  0  0  0
  -21.6850   -6.0732   22.5279 C   0  0  0  0  0  0
  -21.4013   -6.5637   23.8213 C   0  0  0  0  0  0
  -21.3660   -5.6791   24.9175 C   0  0  0  0  0  0
  -21.6043   -4.3053   24.7227 C   0  0  0  0  0  0
  -21.8819   -3.8145   23.4348 C   0  0  0  0  0  0
  -21.9192   -4.6961   22.3403 C   0  0  0  0  0  0
  -22.7757  -13.5178   21.1894 C   0  0  0  0  0  0
  -22.1661   -4.2147   21.0981 F   0  0  0  0  0  0
  -21.5629   -3.4537   25.7740 F   0  0  0  0  0  0
  -29.9044  -13.8510   20.3315 N   0  0  0  0  0  0
  -26.2838  -12.9457   20.3268 N   0  0  0  0  0  0
  -25.9321  -11.6579   20.5763 N   0  0  0  0  0  0
  -22.0413  -12.8170   22.0453 N   0  0  0  0  0  0
  -25.3978  -15.1923   20.4159 N   0  0  0  0  0  0
  -31.7421  -15.0923   20.1833 O   0  0  0  0  0  0
  -21.6636   -6.8874   21.4241 O   0  0  0  0  0  0
  -22.3441  -14.5482   20.6735 O   0  0  0  0  0  0
  -24.6547  -31.8342   23.1803 C   0  0  0  0  0  0
  -25.9269  -32.4644   23.8230 C   0  0  1  0  0  0
  -27.2153  -27.0254   20.1612 C   0  0  0  0  0  0
  -25.5973  -33.8454   24.2136 N   0  0  0  0  0  0
  -23.4642  -30.4516   21.5282 C   0  0  2  0  0  0
  -24.9161  -28.8631   20.1098 C   0  0  0  0  0  0
  -22.7627  -29.4500   22.4816 C   0  0  0  0  0  0
  -18.0317  -28.1404   22.8472 C   0  0  0  0  0  0
  -24.1493  -36.7231   23.2644 C   0  0  0  0  0  0
  -26.0293  -30.6715   21.3981 C   0  0  0  0  0  0
  -26.0989  -29.2729   20.7385 C   0  0  0  0  0  0
  -27.2465  -28.3726   20.7459 C   0  0  0  0  0  0
  -26.0047  -26.7545   19.4809 C   0  0  0  0  0  0
  -24.8890  -27.6207   19.4632 C   0  0  0  0  0  0
  -23.6981  -29.7783   20.1501 C   0  0  0  0  0  0
  -25.4129  -36.3000   24.0307 C   0  0  1  0  0  0
  -20.5938  -28.3742   23.1206 C   0  0  2  0  0  0
  -20.6797  -26.9432   22.5400 C   0  0  0  0  0  0
  -19.5768  -26.6379   21.5213 C   0  0  0  0  0  0
  -18.1951  -26.7938   22.1624 C   0  0  0  0  0  0
  -19.1576  -28.8892   23.2828 C   0  0  0  0  0  0
  -18.9488  -30.1484   23.8859 C   0  0  0  0  0  0
  -17.6482  -30.6595   24.0557 C   0  0  0  0  0  0
  -25.9088  -34.9379   23.5035 C   0  0  0  0  0  0
  -16.5373  -29.9084   23.6340 C   0  0  0  0  0  0
  -16.7300  -28.6504   23.0360 C   0  0  0  0  0  0
  -26.4547  -31.6552   25.0718 C   0  0  0  0  0  0
  -25.3695  -31.3779   26.1388 C   0  0  0  0  0  0
  -27.0431  -30.2930   24.6391 C   0  0  0  0  0  0
  -27.6053  -32.4344   25.7516 C   0  0  0  0  0  0
  -27.5573  -37.1774   24.8465 C   0  0  0  0  0  0
  -21.4306  -29.3051   22.3566 N   0  0  0  0  0  0
  -26.4283  -37.3725   23.9407 N   0  0  0  0  0  0
  -24.7367  -31.0095   22.0897 N   0  0  0  0  0  0
  -23.4218  -28.8050   23.3010 O   0  0  0  0  0  0
  -28.2129  -25.9455   20.2461 O   0  0  0  0  0  0
  -26.5685  -34.8896   22.4622 O   0  0  0  0  0  0
  -23.5637  -32.1270   23.6951 O   0  0  0  0  0  0
  -28.6977  -23.0016   20.2676 C   0  0  0  0  0  0
  -30.2393  -21.5558   20.8058 C   0  0  0  0  0  0
  -28.1558  -18.2918   20.9038 C   0  0  0  0  0  0
  -28.4138  -16.7347   20.6910 C   0  0  0  0  0  0
  -30.3692  -17.9121   20.3035 C   0  0  0  0  0  0
  -29.2004  -19.1006   20.1128 C   0  0  2  0  0  0
  -31.5415  -21.0063   21.2818 C   0  0  0  0  0  0
  -27.8073  -24.4159   19.9876 C   0  0  0  0  0  0
  -29.9670  -22.8998   20.7955 N   0  0  0  0  0  0
  -28.2581  -21.6979   19.9934 N   0  0  0  0  0  0
  -29.2685  -20.7263   20.3472 N   0  0  0  0  0  0
  -29.8442  -16.4260   20.4559 N   0  0  0  0  0  0
  -31.4589  -12.8948   19.1674 H   0  0  0  0  0  0
  -30.4766  -11.7919   20.0794 H   0  0  0  0  0  0
  -29.8728  -11.7350   17.6342 H   0  0  0  0  0  0
  -29.5693  -13.4552   17.6529 H   0  0  0  0  0  0
  -27.9980  -11.2681   19.0399 H   0  0  0  0  0  0
  -27.3927  -12.3808   17.8394 H   0  0  0  0  0  0
  -27.5488  -14.2340   19.3555 H   0  0  0  0  0  0
  -28.8130  -12.3993   21.4483 H   0  0  0  0  0  0
  -28.3350  -14.0428   21.7425 H   0  0  0  0  0  0
  -25.2767   -9.5667   22.4772 H   0  0  0  0  0  0
  -23.9999   -7.4619   22.7476 H   0  0  0  0  0  0
  -21.0846   -8.8772   19.8951 H   0  0  0  0  0  0
  -22.3713  -10.9665   19.6171 H   0  0  0  0  0  0
  -21.2007   -7.6145   23.9714 H   0  0  0  0  0  0
  -21.1482   -6.0522   25.9077 H   0  0  0  0  0  0
  -22.0598   -2.7608   23.2848 H   0  0  0  0  0  0
  -22.4040  -11.9841   22.4851 H   0  0  0  0  0  0
  -21.1027  -13.1186   22.2659 H   0  0  0  0  0  0
  -24.6252  -15.8383   20.5347 H   0  0  0  0  0  0
  -26.2438  -15.6413   20.0948 H   0  0  0  0  0  0
  -26.7338  -32.5213   23.0952 H   0  0  0  0  0  0
  -25.0080  -33.9551   25.0258 H   0  0  0  0  0  0
  -22.7725  -31.2811   21.3671 H   0  0  0  0  0  0
  -23.3763  -35.9553   23.3284 H   0  0  0  0  0  0
  -24.3573  -36.8893   22.2062 H   0  0  0  0  0  0
  -23.7242  -37.6415   23.6705 H   0  0  0  0  0  0
  -26.2003  -31.4205   20.6236 H   0  0  0  0  0  0
  -26.8933  -30.7231   22.0489 H   0  0  0  0  0  0
  -28.1404  -28.6804   21.2700 H   0  0  0  0  0  0
  -25.8694  -25.8125   18.9732 H   0  0  0  0  0  0
  -23.9900  -27.3024   18.9533 H   0  0  0  0  0  0
  -23.8454  -30.5519   19.3956 H   0  0  0  0  0  0
  -22.8099  -29.2286   19.8336 H   0  0  0  0  0  0
  -25.1323  -36.1811   25.0798 H   0  0  0  0  0  0
  -21.0028  -28.3342   24.1328 H   0  0  0  0  0  0
  -20.5686  -26.2359   23.3632 H   0  0  0  0  0  0
  -21.6661  -26.7422   22.1201 H   0  0  0  0  0  0
  -19.6927  -25.6280   21.1268 H   0  0  0  0  0  0
  -19.6703  -27.3168   20.6725 H   0  0  0  0  0  0
  -17.4218  -26.6680   21.4031 H   0  0  0  0  0  0
  -18.0351  -26.0091   22.9032 H   0  0  0  0  0  0
  -19.7963  -30.7312   24.2212 H   0  0  0  0  0  0
  -17.5033  -31.6271   24.5166 H   0  0  0  0  0  0
  -15.5372  -30.2973   23.7685 H   0  0  0  0  0  0
  -15.8701  -28.0810   22.7096 H   0  0  0  0  0  0
  -24.5885  -30.7119   25.7701 H   0  0  0  0  0  0
  -24.8874  -32.2973   26.4718 H   0  0  0  0  0  0
  -25.7943  -30.9009   27.0229 H   0  0  0  0  0  0
  -26.3081  -29.6625   24.1374 H   0  0  0  0  0  0
  -27.3970  -29.7268   25.5017 H   0  0  0  0  0  0
  -27.9021  -30.4132   23.9786 H   0  0  0  0  0  0
  -27.2627  -33.3676   26.2002 H   0  0  0  0  0  0
  -28.3913  -32.6857   25.0381 H   0  0  0  0  0  0
  -28.0667  -31.8533   26.5510 H   0  0  0  0  0  0
  -28.2576  -38.0083   24.7512 H   0  0  0  0  0  0
  -28.1083  -36.2610   24.6292 H   0  0  0  0  0  0
  -27.2289  -37.1418   25.8868 H   0  0  0  0  0  0
  -20.9539  -29.8758   21.6723 H   0  0  0  0  0  0
  -26.0140  -38.2788   24.1412 H   0  0  0  0  0  0
  -28.2620  -18.5294   21.9632 H   0  0  0  0  0  0
  -27.1393  -18.5711   20.6239 H   0  0  0  0  0  0
  -27.8705  -16.4125   19.8045 H   0  0  0  0  0  0
  -28.0227  -16.1812   21.5428 H   0  0  0  0  0  0
  -30.9486  -18.1251   21.2020 H   0  0  0  0  0  0
  -31.0768  -17.9550   19.4750 H   0  0  0  0  0  0
  -28.9054  -19.0143   19.0663 H   0  0  0  0  0  0
  -32.2186  -21.8119   21.5656 H   0  0  0  0  0  0
  -32.0144  -20.4218   20.4929 H   0  0  0  0  0  0
  -31.3831  -20.3667   22.1498 H   0  0  0  0  0  0
  -26.8687  -24.2702   20.5228 H   0  0  0  0  0  0
  -27.5401  -24.3664   18.9322 H   0  0  0  0  0  0
  1 25  1  0  0  0
  1 30  2  0  0  0
  1 82  1  0  0  0
  2  3  1  0  0  0
  2 25  1  0  0  0
  2 83  1  0  0  0
  2 84  1  0  0  0
  3  4  1  0  0  0
  3 85  1  0  0  0
  3 86  1  0  0  0
  4  5  1  0  0  0
  4 87  1  0  0  0
  4 88  1  0  0  0
  5  6  1  0  0  0
  5 26  1  0  0  0
  5 89  1  0  0  0
  6 25  1  0  0  0
  6 90  1  0  0  0
  6 91  1  0  0  0
  7  8  2  0  0  0
  7 26  1  0  0  0
  7 29  1  0  0  0
  8  9  1  0  0  0
  8 22  1  0  0  0
  9 10  1  0  0  0
  9 27  2  0  0  0
 10 11  2  0  0  0
 10 15  1  0  0  0
 11 12  1  0  0  0
 11 92  1  0  0  0
 12 13  2  0  0  0
 12 93  1  0  0  0
 13 14  1  0  0  0
 13 31  1  0  0  0
 14 15  2  0  0  0
 14 94  1  0  0  0
 15 95  1  0  0  0
 16 17  2  0  0  0
 16 21  1  0  0  0
 16 31  1  0  0  0
 17 18  1  0  0  0
 17 96  1  0  0  0
 18 19  2  0  0  0
 18 97  1  0  0  0
 19 20  1  0  0  0
 19 24  1  0  0  0
 20 21  2  0  0  0
 20 98  1  0  0  0
 21 23  1  0  0  0
 22 28  1  0  0  0
 22 32  2  0  0  0
 26 27  1  0  0  0
 28 99  1  0  0  0
 28100  1  0  0  0
 29101  1  0  0  0
 29102  1  0  0  0
 33 34  1  0  0  0
 33 66  1  0  0  0
 33 70  2  0  0  0
 34 36  1  0  0  0
 34 59  1  0  0  0
 34103  1  0  0  0
 35 44  2  0  0  0
 35 45  1  0  0  0
 35 68  1  0  0  0
 36 56  1  0  0  0
 36104  1  0  0  0
 37 39  1  0  0  0
 37 47  1  0  0  0
 37 66  1  0  0  0
 37105  1  0  0  0
 38 43  2  0  0  0
 38 46  1  0  0  0
 38 47  1  0  0  0
 39 64  1  0  0  0
 39 67  2  0  0  0
 40 52  1  0  0  0
 40 53  2  0  0  0
 40 58  1  0  0  0
 41106  1  0  0  0
 41107  1  0  0  0
 41108  1  0  0  0
 41 48  1  0  0  0
 42 43  1  0  0  0
 42 66  1  0  0  0
 42109  1  0  0  0
 42110  1  0  0  0
 43 44  1  0  0  0
 44111  1  0  0  0
 45 46  2  0  0  0
 45112  1  0  0  0
 46113  1  0  0  0
 47114  1  0  0  0
 47115  1  0  0  0
 48 56  1  0  0  0
 48 65  1  0  0  0
 48116  1  0  0  0
 49 50  1  0  0  0
 49 53  1  0  0  0
 49 64  1  0  0  0
 49117  1  0  0  0
 50 51  1  0  0  0
 50118  1  0  0  0
 50119  1  0  0  0
 51 52  1  0  0  0
 51120  1  0  0  0
 51121  1  0  0  0
 52122  1  0  0  0
 52123  1  0  0  0
 53 54  1  0  0  0
 54 55  2  0  0  0
 54124  1  0  0  0
 55 57  1  0  0  0
 55125  1  0  0  0
 56 69  2  0  0  0
 57 58  2  0  0  0
 57126  1  0  0  0
 58127  1  0  0  0
 59 60  1  0  0  0
 59 61  1  0  0  0
 59 62  1  0  0  0
 60128  1  0  0  0
 60129  1  0  0  0
 60130  1  0  0  0
 61131  1  0  0  0
 61132  1  0  0  0
 61133  1  0  0  0
 62134  1  0  0  0
 62135  1  0  0  0
 62136  1  0  0  0
 63 65  1  0  0  0
 63137  1  0  0  0
 63138  1  0  0  0
 63139  1  0  0  0
 64140  1  0  0  0
 65141  1  0  0  0
 68 78  1  0  0  0
 71 78  1  0  0  0
 71 79  1  0  0  0
 71 80  2  0  0  0
 72 77  1  0  0  0
 72 79  2  0  0  0
 72 81  1  0  0  0
 73 74  1  0  0  0
 73 76  1  0  0  0
 73142  1  0  0  0
 73143  1  0  0  0
 74 82  1  0  0  0
 74144  1  0  0  0
 74145  1  0  0  0
 75 76  1  0  0  0
 75 82  1  0  0  0
 75146  1  0  0  0
 75147  1  0  0  0
 76 81  1  0  0  0
 76148  1  0  0  0
 77149  1  0  0  0
 77150  1  0  0  0
 77151  1  0  0  0
 78152  1  0  0  0
 78153  1  0  0  0
 80 81  1  0  0  0
M  ISO  4   1 100  68 101  78 101  82 100
M  END
> <chiral flag>
0

> <version>
0

> <s_m_source_file>
/data/baiqing/PycharmProjects/Reinvent-master-3.2/result/LINK_invent/BTK/process_docking_weight1_custom_sum_contain_oxygen_bond_distance_aromatic_linkinvent_7_9_3/rearranged_h_0184.sdf

> <i_m_source_file_index>
14

> <r_mmod_Potential_Energy-OPLS-2005>
1017.33227539062

> <r_mmod_Stretch_Energy-OPLS-2005>
375.249206542969

> <r_mmod_Bend_Energy-OPLS-2005>
391.464263916016

> <r_mmod_Torsional_Energy-OPLS-2005>
319.750854492188

> <r_mmod_Improper_Torsional_Energy-OPLS-2005>
5.31338119506836

> <r_mmod_Van_der_Waal_Energy-OPLS-2005>
104.618850708008

> <r_mmod_Electrostatic_Energy-OPLS-2005>
-264.825103759766

> <r_mmod_Solvation_Energy-OPLS-2005>
-235.503936767578

> <b_mmod_Minimization_Converged-OPLS-2005>
0

> <r_mmod_RMS_Derivative-OPLS-2005>
0.287661224603653

$$$$
14
                    3D
 Structure written by MMmdl.
156164  0  0  1  0            999 V2000
  -30.5243  -15.1130   20.3309 C   0  0  0  0  0  0
  -30.4229  -12.6954   19.4830 C   0  0  0  0  0  0
  -29.5025  -12.5302   18.2528 C   0  0  0  0  0  0
  -28.0534  -12.2856   18.7028 C   0  0  0  0  0  0
  -27.6096  -13.2658   19.8173 C   0  0  2  0  0  0
  -28.6580  -13.4188   20.9385 C   0  0  0  0  0  0
  -25.2402  -13.8253   20.5818 C   0  0  0  0  0  0
  -24.1761  -13.0435   20.9261 C   0  0  0  0  0  0
  -24.6399  -11.6942   20.8776 C   0  0  0  0  0  0
  -23.9102  -10.4299   21.0414 C   0  0  0  0  0  0
  -24.3647   -9.4210   21.9182 C   0  0  0  0  0  0
  -23.6312   -8.2241   22.0754 C   0  0  0  0  0  0
  -22.4298   -8.0279   21.3537 C   0  0  0  0  0  0
  -21.9947   -9.0256   20.4633 C   0  0  0  0  0  0
  -22.7281  -10.2124   20.3041 C   0  0  0  0  0  0
  -21.6857   -6.0738   22.5267 C   0  0  0  0  0  0
  -21.4022   -6.5647   23.8203 C   0  0  0  0  0  0
  -21.3660   -5.6797   24.9161 C   0  0  0  0  0  0
  -21.6040   -4.3058   24.7216 C   0  0  0  0  0  0
  -21.8820   -3.8153   23.4335 C   0  0  0  0  0  0
  -21.9195   -4.6966   22.3387 C   0  0  0  0  0  0
  -22.7747  -13.5170   21.1890 C   0  0  0  0  0  0
  -22.1662   -4.2153   21.0960 F   0  0  0  0  0  0
  -21.5624   -3.4542   25.7727 F   0  0  0  0  0  0
  -29.9037  -13.8487   20.2909 N   0  0  0  0  0  0
  -26.2828  -12.9509   20.3265 N   0  0  0  0  0  0
  -25.9341  -11.6639   20.5777 N   0  0  0  0  0  0
  -22.0434  -12.8114   22.0421 N   0  0  0  0  0  0
  -25.4067  -15.1991   20.4327 N   0  0  0  0  0  0
  -31.7499  -15.0762   20.1590 O   0  0  0  0  0  0
  -21.6646   -6.8881   21.4235 O   0  0  0  0  0  0
  -22.3425  -14.5485   20.6747 O   0  0  0  0  0  0
  -24.6557  -31.8295   23.1729 C   0  0  0  0  0  0
  -25.9275  -32.4584   23.8179 C   0  0  1  0  0  0
  -27.2251  -27.0083   20.1415 C   0  0  0  0  0  0
  -25.5988  -33.8406   24.2101 N   0  0  0  0  0  0
  -23.4660  -30.4400   21.5232 C   0  0  2  0  0  0
  -24.9174  -28.8427   20.1043 C   0  0  0  0  0  0
  -22.7619  -29.4455   22.4812 C   0  0  0  0  0  0
  -18.0311  -28.1405   22.8426 C   0  0  0  0  0  0
  -24.1490  -36.7187   23.2646 C   0  0  0  0  0  0
  -26.0308  -30.6526   21.3954 C   0  0  0  0  0  0
  -26.0980  -29.2532   20.7355 C   0  0  0  0  0  0
  -27.2450  -28.3537   20.7365 C   0  0  0  0  0  0
  -26.0193  -26.7383   19.4552 C   0  0  0  0  0  0
  -24.8984  -27.6030   19.4453 C   0  0  0  0  0  0
  -23.6989  -29.7585   20.1475 C   0  0  0  0  0  0
  -25.4127  -36.2960   24.0305 C   0  0  1  0  0  0
  -20.5928  -28.3739   23.1179 C   0  0  2  0  0  0
  -20.6799  -26.9438   22.5369 C   0  0  0  0  0  0
  -19.5784  -26.6406   21.5166 C   0  0  0  0  0  0
  -18.1958  -26.7938   22.1577 C   0  0  0  0  0  0
  -19.1567  -28.8894   23.2796 C   0  0  0  0  0  0
  -18.9512  -30.1479   23.8847 C   0  0  0  0  0  0
  -17.6512  -30.6599   24.0554 C   0  0  0  0  0  0
  -25.9099  -34.9348   23.5003 C   0  0  0  0  0  0
  -16.5394  -29.9086   23.6354 C   0  0  0  0  0  0
  -16.7306  -28.6504   23.0344 C   0  0  0  0  0  0
  -26.4571  -31.6503   25.0676 C   0  0  0  0  0  0
  -25.3704  -31.3702   26.1321 C   0  0  0  0  0  0
  -27.0479  -30.2894   24.6356 C   0  0  0  0  0  0
  -27.6072  -32.4303   25.7475 C   0  0  0  0  0  0
  -27.5552  -37.1753   24.8462 C   0  0  0  0  0  0
  -21.4313  -29.3043   22.3553 N   0  0  0  0  0  0
  -26.4267  -37.3694   23.9409 N   0  0  0  0  0  0
  -24.7389  -30.9992   22.0849 N   0  0  0  0  0  0
  -23.4206  -28.8027   23.3021 O   0  0  0  0  0  0
  -28.2501  -25.9539   20.2321 O   0  0  0  0  0  0
  -26.5711  -34.8874   22.4603 O   0  0  0  0  0  0
  -23.5641  -32.1260   23.6854 O   0  0  0  0  0  0
  -29.2090  -18.7969   18.9304 C   0  0  0  0  0  0
  -29.1855  -18.9700   21.2494 C   0  0  0  0  0  0
  -29.9511  -17.3236   19.0496 C   0  0  0  0  0  0
  -29.9527  -17.4966   21.3351 C   0  0  0  0  0  0
  -29.4118  -19.9825   20.0161 C   0  0  0  0  0  0
  -27.1174  -21.1610   19.8364 C   0  0  0  0  0  0
  -28.8812  -22.9034   20.3744 C   0  0  0  0  0  0
  -28.0835  -24.3891   19.8547 C   0  0  0  0  0  0
  -29.8256  -16.4049   20.2663 N   0  0  0  0  0  0
  -28.5776  -21.3939   19.8118 N   0  3  1  0  0  0
  -31.4484  -12.8548   19.1470 H   0  0  0  0  0  0
  -30.4444  -11.7795   20.0774 H   0  0  0  0  0  0
  -29.8453  -11.7087   17.6230 H   0  0  0  0  0  0
  -29.5441  -13.4291   17.6349 H   0  0  0  0  0  0
  -27.9992  -11.2626   19.0761 H   0  0  0  0  0  0
  -27.3707  -12.3343   17.8535 H   0  0  0  0  0  0
  -27.5318  -14.2358   19.3242 H   0  0  0  0  0  0
  -28.7908  -12.4957   21.5055 H   0  0  0  0  0  0
  -28.3374  -14.1857   21.6450 H   0  0  0  0  0  0
  -25.2790   -9.5664   22.4778 H   0  0  0  0  0  0
  -24.0008   -7.4623   22.7488 H   0  0  0  0  0  0
  -21.0878   -8.8781   19.8929 H   0  0  0  0  0  0
  -22.3765  -10.9666   19.6149 H   0  0  0  0  0  0
  -21.2032   -7.6161   23.9702 H   0  0  0  0  0  0
  -21.1478   -6.0529   25.9056 H   0  0  0  0  0  0
  -22.0606   -2.7622   23.2830 H   0  0  0  0  0  0
  -22.4095  -11.9762   22.4753 H   0  0  0  0  0  0
  -21.1022  -13.1050   22.2638 H   0  0  0  0  0  0
  -24.6436  -15.8510   20.5712 H   0  0  0  0  0  0
  -26.2692  -15.6522   20.1599 H   0  0  0  0  0  0
  -26.7322  -32.5142   23.0889 H   0  0  0  0  0  0
  -25.0130  -33.9518   25.0238 H   0  0  0  0  0  0
  -22.7763  -31.2703   21.3559 H   0  0  0  0  0  0
  -23.3765  -35.9494   23.3302 H   0  0  0  0  0  0
  -24.3563  -36.8827   22.2054 H   0  0  0  0  0  0
  -23.7242  -37.6379   23.6699 H   0  0  0  0  0  0
  -26.2041  -31.3969   20.6172 H   0  0  0  0  0  0
  -26.8949  -30.7049   22.0458 H   0  0  0  0  0  0
  -28.1394  -28.6667   21.2566 H   0  0  0  0  0  0
  -25.9058  -25.8028   18.9281 H   0  0  0  0  0  0
  -24.0049  -27.2890   18.9233 H   0  0  0  0  0  0
  -23.8428  -30.5305   19.3905 H   0  0  0  0  0  0
  -22.8117  -29.2035   19.8338 H   0  0  0  0  0  0
  -25.1303  -36.1765   25.0793 H   0  0  0  0  0  0
  -21.0002  -28.3347   24.1306 H   0  0  0  0  0  0
  -20.5671  -26.2360   23.3595 H   0  0  0  0  0  0
  -21.6662  -26.7415   22.1178 H   0  0  0  0  0  0
  -19.6970  -25.6318   21.1194 H   0  0  0  0  0  0
  -19.6734  -27.3215   20.6695 H   0  0  0  0  0  0
  -17.4220  -26.6664   21.3994 H   0  0  0  0  0  0
  -18.0389  -26.0080   22.8980 H   0  0  0  0  0  0
  -19.7998  -30.7291   24.2186 H   0  0  0  0  0  0
  -17.5082  -31.6266   24.5175 H   0  0  0  0  0  0
  -15.5397  -30.2982   23.7732 H   0  0  0  0  0  0
  -15.8694  -28.0847   22.7066 H   0  0  0  0  0  0
  -24.5943  -30.6998   25.7618 H   0  0  0  0  0  0
  -24.8831  -32.2864   26.4644 H   0  0  0  0  0  0
  -25.7937  -30.8945   27.0174 H   0  0  0  0  0  0
  -26.3152  -29.6569   24.1345 H   0  0  0  0  0  0
  -27.4050  -29.7225   25.4973 H   0  0  0  0  0  0
  -27.9053  -30.4114   23.9733 H   0  0  0  0  0  0
  -27.2691  -33.3693   26.1864 H   0  0  0  0  0  0
  -28.3980  -32.6715   25.0353 H   0  0  0  0  0  0
  -28.0628  -31.8547   26.5541 H   0  0  0  0  0  0
  -28.2514  -38.0102   24.7520 H   0  0  0  0  0  0
  -28.1108  -36.2622   24.6268 H   0  0  0  0  0  0
  -27.2277  -37.1345   25.8870 H   0  0  0  0  0  0
  -20.9582  -29.8769   21.6709 H   0  0  0  0  0  0
  -26.0110  -38.2736   24.1458 H   0  0  0  0  0  0
  -28.1430  -18.5801   18.8531 H   0  0  0  0  0  0
  -29.4632  -19.1997   17.9483 H   0  0  0  0  0  0
  -29.4381  -19.5190   22.1559 H   0  0  0  0  0  0
  -28.1168  -18.7705   21.3279 H   0  0  0  0  0  0
  -31.0198  -17.4761   18.8819 H   0  0  0  0  0  0
  -29.6252  -16.7281   18.1932 H   0  0  0  0  0  0
  -29.6502  -17.0266   22.2711 H   0  0  0  0  0  0
  -31.0227  -17.6835   21.4526 H   0  0  0  0  0  0
  -30.4662  -20.2622   19.9914 H   0  0  0  0  0  0
  -26.8271  -20.2397   19.3370 H   0  0  0  0  0  0
  -26.6045  -21.9631   19.3087 H   0  0  0  0  0  0
  -26.7451  -21.1294   20.8585 H   0  0  0  0  0  0
  -28.7308  -22.8297   21.4526 H   0  0  0  0  0  0
  -29.9538  -23.0635   20.2567 H   0  0  0  0  0  0
  -27.0190  -24.1850   19.9592 H   0  0  0  0  0  0
  -28.2561  -24.3981   18.7793 H   0  0  0  0  0  0
  -28.7529  -21.5404   18.8267 H   0  0  0  0  0  0
  1 25  1  0  0  0
  1 30  2  0  0  0
  1 79  1  0  0  0
  2  3  1  0  0  0
  2 25  1  0  0  0
  2 81  1  0  0  0
  2 82  1  0  0  0
  3  4  1  0  0  0
  3 83  1  0  0  0
  3 84  1  0  0  0
  4  5  1  0  0  0
  4 85  1  0  0  0
  4 86  1  0  0  0
  5  6  1  0  0  0
  5 26  1  0  0  0
  5 87  1  0  0  0
  6 25  1  0  0  0
  6 88  1  0  0  0
  6 89  1  0  0  0
  7  8  2  0  0  0
  7 26  1  0  0  0
  7 29  1  0  0  0
  8  9  1  0  0  0
  8 22  1  0  0  0
  9 10  1  0  0  0
  9 27  2  0  0  0
 10 11  2  0  0  0
 10 15  1  0  0  0
 11 12  1  0  0  0
 11 90  1  0  0  0
 12 13  2  0  0  0
 12 91  1  0  0  0
 13 14  1  0  0  0
 13 31  1  0  0  0
 14 15  2  0  0  0
 14 92  1  0  0  0
 15 93  1  0  0  0
 16 17  2  0  0  0
 16 21  1  0  0  0
 16 31  1  0  0  0
 17 18  1  0  0  0
 17 94  1  0  0  0
 18 19  2  0  0  0
 18 95  1  0  0  0
 19 20  1  0  0  0
 19 24  1  0  0  0
 20 21  2  0  0  0
 20 96  1  0  0  0
 21 23  1  0  0  0
 22 28  1  0  0  0
 22 32  2  0  0  0
 26 27  1  0  0  0
 28 97  1  0  0  0
 28 98  1  0  0  0
 29 99  1  0  0  0
 29100  1  0  0  0
 33 34  1  0  0  0
 33 66  1  0  0  0
 33 70  2  0  0  0
 34 36  1  0  0  0
 34 59  1  0  0  0
 34101  1  0  0  0
 35 44  2  0  0  0
 35 45  1  0  0  0
 35 68  1  0  0  0
 36 56  1  0  0  0
 36102  1  0  0  0
 37 39  1  0  0  0
 37 47  1  0  0  0
 37 66  1  0  0  0
 37103  1  0  0  0
 38 43  2  0  0  0
 38 46  1  0  0  0
 38 47  1  0  0  0
 39 64  1  0  0  0
 39 67  2  0  0  0
 40 52  1  0  0  0
 40 53  2  0  0  0
 40 58  1  0  0  0
 41104  1  0  0  0
 41105  1  0  0  0
 41106  1  0  0  0
 41 48  1  0  0  0
 42 43  1  0  0  0
 42 66  1  0  0  0
 42107  1  0  0  0
 42108  1  0  0  0
 43 44  1  0  0  0
 44109  1  0  0  0
 45 46  2  0  0  0
 45110  1  0  0  0
 46111  1  0  0  0
 47112  1  0  0  0
 47113  1  0  0  0
 48 56  1  0  0  0
 48 65  1  0  0  0
 48114  1  0  0  0
 49 50  1  0  0  0
 49 53  1  0  0  0
 49 64  1  0  0  0
 49115  1  0  0  0
 50 51  1  0  0  0
 50116  1  0  0  0
 50117  1  0  0  0
 51 52  1  0  0  0
 51118  1  0  0  0
 51119  1  0  0  0
 52120  1  0  0  0
 52121  1  0  0  0
 53 54  1  0  0  0
 54 55  2  0  0  0
 54122  1  0  0  0
 55 57  1  0  0  0
 55123  1  0  0  0
 56 69  2  0  0  0
 57 58  2  0  0  0
 57124  1  0  0  0
 58125  1  0  0  0
 59 60  1  0  0  0
 59 61  1  0  0  0
 59 62  1  0  0  0
 60126  1  0  0  0
 60127  1  0  0  0
 60128  1  0  0  0
 61129  1  0  0  0
 61130  1  0  0  0
 61131  1  0  0  0
 62132  1  0  0  0
 62133  1  0  0  0
 62134  1  0  0  0
 63 65  1  0  0  0
 63135  1  0  0  0
 63136  1  0  0  0
 63137  1  0  0  0
 64138  1  0  0  0
 65139  1  0  0  0
 68 78  1  0  0  0
 71 73  1  0  0  0
 71140  1  0  0  0
 71141  1  0  0  0
 71 75  1  0  0  0
 72 74  1  0  0  0
 72 75  1  0  0  0
 72142  1  0  0  0
 72143  1  0  0  0
 73 79  1  0  0  0
 73144  1  0  0  0
 73145  1  0  0  0
 74 79  1  0  0  0
 74146  1  0  0  0
 74147  1  0  0  0
 75 80  1  0  0  0
 75148  1  0  0  0
 76149  1  0  0  0
 76150  1  0  0  0
 76151  1  0  0  0
 76 80  1  0  0  0
 77 78  1  0  0  0
 77 80  1  0  0  0
 77152  1  0  0  0
 77153  1  0  0  0
 78154  1  0  0  0
 78155  1  0  0  0
 80156  1  0  0  0
M  CHG  1  80   1
M  ISO  4   1 100  68 101  78 101  79 100
M  END
> <chiral flag>
0

> <version>
0

> <s_m_source_file>
/data/baiqing/PycharmProjects/Reinvent-master-3.2/result/LINK_invent/BTK/process_docking_weight1_custom_sum_contain_oxygen_bond_distance_aromatic_linkinvent_7_9_3/rearranged_h_0184.sdf

> <i_m_source_file_index>
15

> <r_mmod_Potential_Energy-OPLS-2005>
1061.57043457031

> <r_mmod_Stretch_Energy-OPLS-2005>
413.187774658203

> <r_mmod_Bend_Energy-OPLS-2005>
415.847412109375

> <r_mmod_Torsional_Energy-OPLS-2005>
336.042816162109

> <r_mmod_Improper_Torsional_Energy-OPLS-2005>
12.2403411865234

> <r_mmod_Van_der_Waal_Energy-OPLS-2005>
115.469329833984

> <r_mmod_Electrostatic_Energy-OPLS-2005>
-134.919784545898

> <r_mmod_Solvation_Energy-OPLS-2005>
-426.590026855469

> <b_mmod_Minimization_Converged-OPLS-2005>
0

> <r_mmod_RMS_Derivative-OPLS-2005>
4.04356622695923

$$$$
15
                    3D
 Structure written by MMmdl.
157166  0  0  1  0            999 V2000
  -30.5916  -14.9079   20.4279 C   0  0  0  0  0  0
  -30.4255  -12.5651   19.4952 C   0  0  0  0  0  0
  -29.5131  -12.5225   18.2503 C   0  0  0  0  0  0
  -28.0458  -12.3202   18.6679 C   0  0  0  0  0  0
  -27.6274  -13.2530   19.8357 C   0  0  2  0  0  0
  -28.6699  -13.2929   20.9725 C   0  0  0  0  0  0
  -25.2478  -13.8242   20.5750 C   0  0  0  0  0  0
  -24.1787  -13.0459   20.9235 C   0  0  0  0  0  0
  -24.6398  -11.6937   20.8755 C   0  0  0  0  0  0
  -23.9080  -10.4304   21.0396 C   0  0  0  0  0  0
  -24.3626   -9.4217   21.9172 C   0  0  0  0  0  0
  -23.6311   -8.2245   22.0732 C   0  0  0  0  0  0
  -22.4301   -8.0275   21.3517 C   0  0  0  0  0  0
  -21.9929   -9.0256   20.4630 C   0  0  0  0  0  0
  -22.7250  -10.2140   20.3046 C   0  0  0  0  0  0
  -21.6872   -6.0740   22.5275 C   0  0  0  0  0  0
  -21.4022   -6.5636   23.8214 C   0  0  0  0  0  0
  -21.3664   -5.6779   24.9169 C   0  0  0  0  0  0
  -21.6057   -4.3047   24.7219 C   0  0  0  0  0  0
  -21.8818   -3.8142   23.4340 C   0  0  0  0  0  0
  -21.9200   -4.6961   22.3397 C   0  0  0  0  0  0
  -22.7805  -13.5226   21.1878 C   0  0  0  0  0  0
  -22.1667   -4.2144   21.0975 F   0  0  0  0  0  0
  -21.5627   -3.4527   25.7735 F   0  0  0  0  0  0
  -29.9458  -13.6776   20.3629 N   0  0  0  0  0  0
  -26.2892  -12.9470   20.3263 N   0  0  0  0  0  0
  -25.9336  -11.6597   20.5742 N   0  0  0  0  0  0
  -22.0444  -12.8215   22.0432 N   0  0  0  0  0  0
  -25.4182  -15.1968   20.4218 N   0  0  0  0  0  0
  -31.8028  -14.9105   20.1753 O   0  0  0  0  0  0
  -21.6653   -6.8883   21.4235 O   0  0  0  0  0  0
  -22.3488  -14.5523   20.6715 O   0  0  0  0  0  0
  -24.6416  -31.8459   23.1887 C   0  0  0  0  0  0
  -25.9189  -32.4714   23.8279 C   0  0  1  0  0  0
  -27.2223  -27.1556   20.1534 C   0  0  0  0  0  0
  -25.5942  -33.8515   24.2191 N   0  0  0  0  0  0
  -23.4443  -30.4643   21.5340 C   0  0  2  0  0  0
  -24.8929  -28.8882   20.1156 C   0  0  0  0  0  0
  -22.7565  -29.4553   22.4870 C   0  0  0  0  0  0
  -18.0310  -28.1383   22.8479 C   0  0  0  0  0  0
  -24.1484  -36.7271   23.2644 C   0  0  0  0  0  0
  -25.9978  -30.7261   21.3822 C   0  0  0  0  0  0
  -26.0699  -29.3367   20.7293 C   0  0  0  0  0  0
  -27.2357  -28.4876   20.7273 C   0  0  0  0  0  0
  -26.0189  -26.8009   19.5051 C   0  0  0  0  0  0
  -24.8796  -27.6330   19.4888 C   0  0  0  0  0  0
  -23.6690  -29.7890   20.1543 C   0  0  0  0  0  0
  -25.4117  -36.3049   24.0318 C   0  0  1  0  0  0
  -20.5922  -28.3705   23.1247 C   0  0  2  0  0  0
  -20.6787  -26.9415   22.5401 C   0  0  0  0  0  0
  -19.5760  -26.6370   21.5210 C   0  0  0  0  0  0
  -18.1944  -26.7925   22.1623 C   0  0  0  0  0  0
  -19.1561  -28.8864   23.2856 C   0  0  0  0  0  0
  -18.9479  -30.1465   23.8876 C   0  0  0  0  0  0
  -17.6471  -30.6589   24.0551 C   0  0  0  0  0  0
  -25.9065  -34.9426   23.5062 C   0  0  0  0  0  0
  -16.5363  -29.9077   23.6325 C   0  0  0  0  0  0
  -16.7296  -28.6490   23.0358 C   0  0  0  0  0  0
  -26.4504  -31.6588   25.0722 C   0  0  0  0  0  0
  -25.3695  -31.3773   26.1425 C   0  0  0  0  0  0
  -27.0372  -30.2998   24.6279 C   0  0  0  0  0  0
  -27.6039  -32.4363   25.7505 C   0  0  0  0  0  0
  -27.5574  -37.1806   24.8471 C   0  0  0  0  0  0
  -21.4258  -29.3044   22.3632 N   0  0  0  0  0  0
  -26.4288  -37.3760   23.9406 N   0  0  0  0  0  0
  -24.7146  -31.0337   22.0898 N   0  0  0  0  0  0
  -23.4226  -28.8095   23.3005 O   0  0  0  0  0  0
  -28.3076  -26.2157   20.1803 O   0  0  0  0  0  0
  -26.5649  -34.8921   22.4643 O   0  0  0  0  0  0
  -23.5539  -32.1310   23.7127 O   0  0  0  0  0  0
  -31.4162  -24.0141   18.8080 C   0  0  0  0  0  0
  -31.6801  -22.6415   18.8155 C   0  0  0  0  0  0
  -29.3505  -23.6804   19.8743 C   0  0  0  0  0  0
  -29.6457  -22.1828   19.9108 C   0  0  0  0  0  0
  -29.3686  -18.5517   19.2351 C   0  0  0  0  0  0
  -29.2037  -18.5239   21.6031 C   0  0  0  0  0  0
  -30.0821  -17.1040   19.2778 C   0  0  0  0  0  0
  -29.9069  -17.0638   21.6441 C   0  0  0  0  0  0
  -29.6133  -19.5178   20.4492 C   0  0  0  0  0  0
  -28.1281  -24.6675   20.2887 C   0  0  0  0  0  0
  -30.2778  -24.5118   19.3244 N   0  0  0  0  0  0
  -30.8121  -21.7652   19.3538 N   0  0  0  0  0  0
  -29.8844  -16.1524   20.4386 N   0  0  0  0  0  0
  -28.9899  -20.9641   20.4155 N   0  0  0  0  0  0
  -31.4622  -12.6992   19.1842 H   0  0  0  0  0  0
  -30.3936  -11.6170   20.0356 H   0  0  0  0  0  0
  -29.8270  -11.7194   17.5820 H   0  0  0  0  0  0
  -29.6116  -13.4520   17.6865 H   0  0  0  0  0  0
  -27.9337  -11.2797   18.9699 H   0  0  0  0  0  0
  -27.3841  -12.4562   17.8110 H   0  0  0  0  0  0
  -27.5888  -14.2555   19.4077 H   0  0  0  0  0  0
  -28.7484  -12.3314   21.4818 H   0  0  0  0  0  0
  -28.3771  -14.0261   21.7251 H   0  0  0  0  0  0
  -25.2761   -9.5720   22.4756 H   0  0  0  0  0  0
  -24.0030   -7.4650   22.7460 H   0  0  0  0  0  0
  -21.0853   -8.8785   19.8954 H   0  0  0  0  0  0
  -22.3693  -10.9684   19.6172 H   0  0  0  0  0  0
  -21.2003   -7.6142   23.9723 H   0  0  0  0  0  0
  -21.1494   -6.0499   25.9078 H   0  0  0  0  0  0
  -22.0593   -2.7602   23.2836 H   0  0  0  0  0  0
  -22.4059  -11.9903   22.4873 H   0  0  0  0  0  0
  -21.1053  -13.1235   22.2593 H   0  0  0  0  0  0
  -24.6583  -15.8555   20.5478 H   0  0  0  0  0  0
  -26.2819  -15.6396   20.1327 H   0  0  0  0  0  0
  -26.7255  -32.5326   23.1015 H   0  0  0  0  0  0
  -25.0101  -33.9627   25.0344 H   0  0  0  0  0  0
  -22.7476  -31.2904   21.3791 H   0  0  0  0  0  0
  -23.3749  -35.9604   23.3310 H   0  0  0  0  0  0
  -24.3563  -36.8893   22.2057 H   0  0  0  0  0  0
  -23.7239  -37.6472   23.6669 H   0  0  0  0  0  0
  -26.1485  -31.4761   20.6043 H   0  0  0  0  0  0
  -26.8706  -30.7815   22.0212 H   0  0  0  0  0  0
  -28.1364  -28.8312   21.2171 H   0  0  0  0  0  0
  -25.9350  -25.8470   19.0069 H   0  0  0  0  0  0
  -23.9817  -27.2887   18.9933 H   0  0  0  0  0  0
  -23.8079  -30.5591   19.3952 H   0  0  0  0  0  0
  -22.7829  -29.2303   19.8450 H   0  0  0  0  0  0
  -25.1308  -36.1882   25.0813 H   0  0  0  0  0  0
  -21.0022  -28.3276   24.1365 H   0  0  0  0  0  0
  -20.5667  -26.2323   23.3615 H   0  0  0  0  0  0
  -21.6658  -26.7417   22.1208 H   0  0  0  0  0  0
  -19.6917  -25.6273   21.1256 H   0  0  0  0  0  0
  -19.6687  -27.3165   20.6726 H   0  0  0  0  0  0
  -17.4217  -26.6682   21.4024 H   0  0  0  0  0  0
  -18.0344  -26.0067   22.9016 H   0  0  0  0  0  0
  -19.7953  -30.7284   24.2242 H   0  0  0  0  0  0
  -17.5024  -31.6267   24.5158 H   0  0  0  0  0  0
  -15.5361  -30.2965   23.7661 H   0  0  0  0  0  0
  -15.8701  -28.0793   22.7087 H   0  0  0  0  0  0
  -24.5851  -30.7147   25.7739 H   0  0  0  0  0  0
  -24.8907  -32.2959   26.4831 H   0  0  0  0  0  0
  -25.7982  -30.8945   27.0215 H   0  0  0  0  0  0
  -26.2977  -29.6738   24.1272 H   0  0  0  0  0  0
  -27.3987  -29.7284   25.4835 H   0  0  0  0  0  0
  -27.8880  -30.4256   23.9585 H   0  0  0  0  0  0
  -27.2615  -33.3667   26.2046 H   0  0  0  0  0  0
  -28.3864  -32.6928   25.0353 H   0  0  0  0  0  0
  -28.0687  -31.8521   26.5452 H   0  0  0  0  0  0
  -28.2616  -38.0080   24.7500 H   0  0  0  0  0  0
  -28.1051  -36.2622   24.6325 H   0  0  0  0  0  0
  -27.2298  -37.1487   25.8875 H   0  0  0  0  0  0
  -20.9473  -29.8766   21.6819 H   0  0  0  0  0  0
  -26.0160  -38.2838   24.1384 H   0  0  0  0  0  0
  -32.1161  -24.7143   18.3761 H   0  0  0  0  0  0
  -32.5906  -22.2433   18.3913 H   0  0  0  0  0  0
  -28.2950  -18.4044   19.1084 H   0  0  0  0  0  0
  -29.6944  -19.0615   18.3273 H   0  0  0  0  0  0
  -29.4103  -19.0154   22.5542 H   0  0  0  0  0  0
  -28.1216  -18.3827   21.5858 H   0  0  0  0  0  0
  -31.1543  -17.2759   19.1744 H   0  0  0  0  0  0
  -29.7946  -16.5661   18.3738 H   0  0  0  0  0  0
  -29.4813  -16.5096   22.4823 H   0  0  0  0  0  0
  -30.9563  -17.2136   21.9056 H   0  0  0  0  0  0
  -30.6930  -19.6395   20.5476 H   0  0  0  0  0  0
  -27.8769  -24.4406   21.3249 H   0  0  0  0  0  0
  -27.2731  -24.3423   19.7001 H   0  0  0  0  0  0
  -28.1151  -21.0989   20.9162 H   0  0  0  0  0  0
  1 25  1  0  0  0
  1 30  2  0  0  0
  1 83  1  0  0  0
  2  3  1  0  0  0
  2 25  1  0  0  0
  2 85  1  0  0  0
  2 86  1  0  0  0
  3  4  1  0  0  0
  3 87  1  0  0  0
  3 88  1  0  0  0
  4  5  1  0  0  0
  4 89  1  0  0  0
  4 90  1  0  0  0
  5  6  1  0  0  0
  5 26  1  0  0  0
  5 91  1  0  0  0
  6 25  1  0  0  0
  6 92  1  0  0  0
  6 93  1  0  0  0
  7  8  2  0  0  0
  7 26  1  0  0  0
  7 29  1  0  0  0
  8  9  1  0  0  0
  8 22  1  0  0  0
  9 10  1  0  0  0
  9 27  2  0  0  0
 10 11  2  0  0  0
 10 15  1  0  0  0
 11 12  1  0  0  0
 11 94  1  0  0  0
 12 13  2  0  0  0
 12 95  1  0  0  0
 13 14  1  0  0  0
 13 31  1  0  0  0
 14 15  2  0  0  0
 14 96  1  0  0  0
 15 97  1  0  0  0
 16 17  2  0  0  0
 16 21  1  0  0  0
 16 31  1  0  0  0
 17 18  1  0  0  0
 17 98  1  0  0  0
 18 19  2  0  0  0
 18 99  1  0  0  0
 19 20  1  0  0  0
 19 24  1  0  0  0
 20 21  2  0  0  0
 20100  1  0  0  0
 21 23  1  0  0  0
 22 28  1  0  0  0
 22 32  2  0  0  0
 26 27  1  0  0  0
 28101  1  0  0  0
 28102  1  0  0  0
 29103  1  0  0  0
 29104  1  0  0  0
 33 34  1  0  0  0
 33 66  1  0  0  0
 33 70  2  0  0  0
 34 36  1  0  0  0
 34 59  1  0  0  0
 34105  1  0  0  0
 35 44  2  0  0  0
 35 45  1  0  0  0
 35 68  1  0  0  0
 36 56  1  0  0  0
 36106  1  0  0  0
 37 39  1  0  0  0
 37 47  1  0  0  0
 37 66  1  0  0  0
 37107  1  0  0  0
 38 43  2  0  0  0
 38 46  1  0  0  0
 38 47  1  0  0  0
 39 64  1  0  0  0
 39 67  2  0  0  0
 40 52  1  0  0  0
 40 53  2  0  0  0
 40 58  1  0  0  0
 41108  1  0  0  0
 41109  1  0  0  0
 41110  1  0  0  0
 41 48  1  0  0  0
 42 43  1  0  0  0
 42 66  1  0  0  0
 42111  1  0  0  0
 42112  1  0  0  0
 43 44  1  0  0  0
 44113  1  0  0  0
 45 46  2  0  0  0
 45114  1  0  0  0
 46115  1  0  0  0
 47116  1  0  0  0
 47117  1  0  0  0
 48 56  1  0  0  0
 48 65  1  0  0  0
 48118  1  0  0  0
 49 50  1  0  0  0
 49 53  1  0  0  0
 49 64  1  0  0  0
 49119  1  0  0  0
 50 51  1  0  0  0
 50120  1  0  0  0
 50121  1  0  0  0
 51 52  1  0  0  0
 51122  1  0  0  0
 51123  1  0  0  0
 52124  1  0  0  0
 52125  1  0  0  0
 53 54  1  0  0  0
 54 55  2  0  0  0
 54126  1  0  0  0
 55 57  1  0  0  0
 55127  1  0  0  0
 56 69  2  0  0  0
 57 58  2  0  0  0
 57128  1  0  0  0
 58129  1  0  0  0
 59 60  1  0  0  0
 59 61  1  0  0  0
 59 62  1  0  0  0
 60130  1  0  0  0
 60131  1  0  0  0
 60132  1  0  0  0
 61133  1  0  0  0
 61134  1  0  0  0
 61135  1  0  0  0
 62136  1  0  0  0
 62137  1  0  0  0
 62138  1  0  0  0
 63 65  1  0  0  0
 63139  1  0  0  0
 63140  1  0  0  0
 63141  1  0  0  0
 64142  1  0  0  0
 65143  1  0  0  0
 68 80  1  0  0  0
 71 72  2  0  0  0
 71 81  1  0  0  0
 71144  1  0  0  0
 72 82  1  0  0  0
 72145  1  0  0  0
 73 74  1  0  0  0
 73 80  1  0  0  0
 73 81  2  0  0  0
 74 82  2  0  0  0
 74 84  1  0  0  0
 75 77  1  0  0  0
 75 79  1  0  0  0
 75146  1  0  0  0
 75147  1  0  0  0
 76 78  1  0  0  0
 76 79  1  0  0  0
 76148  1  0  0  0
 76149  1  0  0  0
 77 83  1  0  0  0
 77150  1  0  0  0
 77151  1  0  0  0
 78 83  1  0  0  0
 78152  1  0  0  0
 78153  1  0  0  0
 79 84  1  0  0  0
 79154  1  0  0  0
 80155  1  0  0  0
 80156  1  0  0  0
 84157  1  0  0  0
M  ISO  4   1 100  68 101  80 101  83 100
M  END
> <chiral flag>
0

> <version>
0

> <s_m_source_file>
/data/baiqing/PycharmProjects/Reinvent-master-3.2/result/LINK_invent/BTK/process_docking_weight1_custom_sum_contain_oxygen_bond_distance_aromatic_linkinvent_7_9_3/rearranged_h_0184.sdf

> <i_m_source_file_index>
16

> <r_mmod_Potential_Energy-OPLS-2005>
731.937072753906

> <r_mmod_Stretch_Energy-OPLS-2005>
230.817138671875

> <r_mmod_Bend_Energy-OPLS-2005>
317.041656494141

> <r_mmod_Torsional_Energy-OPLS-2005>
317.189025878906

> <r_mmod_Improper_Torsional_Energy-OPLS-2005>
13.2979583740234

> <r_mmod_Van_der_Waal_Energy-OPLS-2005>
145.322982788086

> <r_mmod_Electrostatic_Energy-OPLS-2005>
-226.965774536133

> <r_mmod_Solvation_Energy-OPLS-2005>
-230.243408203125

> <b_mmod_Minimization_Converged-OPLS-2005>
0

> <r_mmod_RMS_Derivative-OPLS-2005>
2.02484393119812

$$$$
16
                    3D
 Structure written by MMmdl.
166175  0  0  1  0            999 V2000
  -30.6842  -14.8060   20.4382 C   0  0  0  0  0  0
  -30.4076  -12.5068   19.4788 C   0  0  0  0  0  0
  -29.4971  -12.5140   18.2360 C   0  0  0  0  0  0
  -28.0288  -12.3260   18.6559 C   0  0  0  0  0  0
  -27.6274  -13.2443   19.8424 C   0  0  2  0  0  0
  -28.6816  -13.2538   20.9728 C   0  0  0  0  0  0
  -25.2438  -13.8204   20.5720 C   0  0  0  0  0  0
  -24.1762  -13.0430   20.9240 C   0  0  0  0  0  0
  -24.6380  -11.6914   20.8765 C   0  0  0  0  0  0
  -23.9067  -10.4279   21.0408 C   0  0  0  0  0  0
  -24.3619   -9.4196   21.9181 C   0  0  0  0  0  0
  -23.6298   -8.2228   22.0740 C   0  0  0  0  0  0
  -22.4284   -8.0264   21.3533 C   0  0  0  0  0  0
  -21.9924   -9.0245   20.4641 C   0  0  0  0  0  0
  -22.7245  -10.2124   20.3054 C   0  0  0  0  0  0
  -21.6849   -6.0720   22.5279 C   0  0  0  0  0  0
  -21.4010   -6.5630   23.8211 C   0  0  0  0  0  0
  -21.3659   -5.6787   24.9179 C   0  0  0  0  0  0
  -21.6061   -4.3051   24.7223 C   0  0  0  0  0  0
  -21.8817   -3.8134   23.4339 C   0  0  0  0  0  0
  -21.9186   -4.6950   22.3399 C   0  0  0  0  0  0
  -22.7786  -13.5216   21.1874 C   0  0  0  0  0  0
  -22.1662   -4.2135   21.0977 F   0  0  0  0  0  0
  -21.5632   -3.4536   25.7731 F   0  0  0  0  0  0
  -29.9588  -13.6245   20.3552 N   0  0  0  0  0  0
  -26.2883  -12.9441   20.3314 N   0  0  0  0  0  0
  -25.9322  -11.6575   20.5805 N   0  0  0  0  0  0
  -22.0423  -12.8216   22.0430 N   0  0  0  0  0  0
  -25.4070  -15.1926   20.4095 N   0  0  0  0  0  0
  -31.8932  -14.7136   20.1976 O   0  0  0  0  0  0
  -21.6640   -6.8869   21.4240 O   0  0  0  0  0  0
  -22.3491  -14.5522   20.6715 O   0  0  0  0  0  0
  -24.6347  -31.8536   23.1970 C   0  0  0  0  0  0
  -25.9157  -32.4743   23.8330 C   0  0  1  0  0  0
  -27.2068  -27.2212   20.1491 C   0  0  0  0  0  0
  -25.5942  -33.8552   24.2248 N   0  0  0  0  0  0
  -23.4336  -30.4775   21.5396 C   0  0  2  0  0  0
  -24.8832  -28.9224   20.1081 C   0  0  0  0  0  0
  -22.7528  -29.4605   22.4876 C   0  0  0  0  0  0
  -18.0298  -28.1401   22.8484 C   0  0  0  0  0  0
  -24.1492  -36.7285   23.2637 C   0  0  0  0  0  0
  -25.9840  -30.7537   21.3861 C   0  0  0  0  0  0
  -26.0565  -29.3727   20.7285 C   0  0  0  0  0  0
  -27.2245  -28.5346   20.7395 C   0  0  0  0  0  0
  -26.0230  -26.8641   19.4704 C   0  0  0  0  0  0
  -24.8741  -27.6777   19.4630 C   0  0  0  0  0  0
  -23.6562  -29.8141   20.1555 C   0  0  0  0  0  0
  -25.4120  -36.3066   24.0324 C   0  0  1  0  0  0
  -20.5900  -28.3725   23.1255 C   0  0  2  0  0  0
  -20.6790  -26.9434   22.5412 C   0  0  0  0  0  0
  -19.5765  -26.6393   21.5223 C   0  0  0  0  0  0
  -18.1944  -26.7946   22.1627 C   0  0  0  0  0  0
  -19.1554  -28.8880   23.2866 C   0  0  0  0  0  0
  -18.9468  -30.1475   23.8889 C   0  0  0  0  0  0
  -17.6465  -30.6600   24.0559 C   0  0  0  0  0  0
  -25.9067  -34.9432   23.5092 C   0  0  0  0  0  0
  -16.5354  -29.9095   23.6325 C   0  0  0  0  0  0
  -16.7281  -28.6511   23.0350 C   0  0  0  0  0  0
  -26.4504  -31.6574   25.0731 C   0  0  0  0  0  0
  -25.3714  -31.3736   26.1443 C   0  0  0  0  0  0
  -27.0352  -30.2972   24.6264 C   0  0  0  0  0  0
  -27.6061  -32.4315   25.7508 C   0  0  0  0  0  0
  -27.5585  -37.1796   24.8460 C   0  0  0  0  0  0
  -21.4230  -29.3064   22.3630 N   0  0  0  0  0  0
  -26.4289  -37.3776   23.9414 N   0  0  0  0  0  0
  -24.7030  -31.0470   22.0965 N   0  0  0  0  0  0
  -23.4208  -28.8138   23.2990 O   0  0  0  0  0  0
  -28.2390  -26.2448   20.2109 O   0  0  0  0  0  0
  -26.5644  -34.8905   22.4665 O   0  0  0  0  0  0
  -23.5482  -32.1376   23.7241 O   0  0  0  0  0  0
  -28.9216  -22.8962   19.3222 C   0  0  0  0  0  0
  -29.2403  -21.4898   19.2115 C   0  0  0  0  0  0
  -28.4991  -23.4452   20.5634 C   0  0  0  0  0  0
  -29.1224  -20.6201   20.3480 C   0  0  0  0  0  0
  -30.6715  -18.7245   20.8855 C   0  0  0  0  0  0
  -28.4117  -18.1691   20.7325 C   0  0  0  0  0  0
  -31.1093  -17.2682   20.4571 C   0  0  0  0  0  0
  -28.7459  -16.6230   20.4198 C   0  0  0  0  0  0
  -27.7380  -20.1539   14.6191 C   0  0  0  0  0  0
  -27.8319  -24.9015   20.8002 C   0  0  0  0  0  0
  -28.4402  -20.7417   16.9212 C   0  0  0  0  0  0
  -29.6496  -20.9410   17.8498 C   0  0  1  0  0  0
  -28.4279  -22.5496   21.6095 N   0  0  0  0  0  0
  -28.7273  -21.2182   21.5151 N   0  0  0  0  0  0
  -29.4060  -19.1813   20.3029 N   0  0  0  0  0  0
  -30.1481  -16.1142   20.5731 N   0  0  0  0  0  0
  -28.8478  -20.2552   15.5881 N   0  3  0  0  0  0
  -30.5060  -21.7864   17.2668 F   0  0  0  0  0  0
  -31.4500  -12.5953   19.1664 H   0  0  0  0  0  0
  -30.3412  -11.5508   20.0001 H   0  0  0  0  0  0
  -29.7951  -11.7284   17.5409 H   0  0  0  0  0  0
  -29.6107  -13.4582   17.7014 H   0  0  0  0  0  0
  -27.8967  -11.2813   18.9362 H   0  0  0  0  0  0
  -27.3660  -12.4960   17.8063 H   0  0  0  0  0  0
  -27.5952  -14.2486   19.4245 H   0  0  0  0  0  0
  -28.7518  -12.2779   21.4554 H   0  0  0  0  0  0
  -28.4147  -13.9569   21.7624 H   0  0  0  0  0  0
  -25.2741   -9.5692   22.4780 H   0  0  0  0  0  0
  -23.9990   -7.4628   22.7471 H   0  0  0  0  0  0
  -21.0840   -8.8786   19.8966 H   0  0  0  0  0  0
  -22.3686  -10.9675   19.6188 H   0  0  0  0  0  0
  -21.2008   -7.6139   23.9713 H   0  0  0  0  0  0
  -21.1495   -6.0511   25.9083 H   0  0  0  0  0  0
  -22.0597   -2.7592   23.2837 H   0  0  0  0  0  0
  -22.4025  -11.9884   22.4845 H   0  0  0  0  0  0
  -21.1043  -13.1267   22.2612 H   0  0  0  0  0  0
  -24.6357  -15.8411   20.5224 H   0  0  0  0  0  0
  -26.2462  -15.6310   20.0576 H   0  0  0  0  0  0
  -26.7228  -32.5380   23.1070 H   0  0  0  0  0  0
  -25.0042  -33.9693   25.0356 H   0  0  0  0  0  0
  -22.7304  -31.3006   21.3935 H   0  0  0  0  0  0
  -23.3760  -35.9612   23.3286 H   0  0  0  0  0  0
  -24.3574  -36.8928   22.2054 H   0  0  0  0  0  0
  -23.7233  -37.6476   23.6672 H   0  0  0  0  0  0
  -26.1292  -31.5110   20.6143 H   0  0  0  0  0  0
  -26.8591  -30.8025   22.0225 H   0  0  0  0  0  0
  -28.1150  -28.8680   21.2530 H   0  0  0  0  0  0
  -25.9619  -25.9141   18.9581 H   0  0  0  0  0  0
  -23.9822  -27.3334   18.9577 H   0  0  0  0  0  0
  -23.7855  -30.5926   19.4027 H   0  0  0  0  0  0
  -22.7726  -29.2531   19.8463 H   0  0  0  0  0  0
  -25.1296  -36.1910   25.0819 H   0  0  0  0  0  0
  -21.0003  -28.3320   24.1374 H   0  0  0  0  0  0
  -20.5706  -26.2339   23.3627 H   0  0  0  0  0  0
  -21.6654  -26.7469   22.1191 H   0  0  0  0  0  0
  -19.6927  -25.6305   21.1258 H   0  0  0  0  0  0
  -19.6697  -27.3198   20.6743 H   0  0  0  0  0  0
  -17.4214  -26.6691   21.4024 H   0  0  0  0  0  0
  -18.0336  -26.0092   22.9023 H   0  0  0  0  0  0
  -19.7941  -30.7297   24.2253 H   0  0  0  0  0  0
  -17.5016  -31.6278   24.5175 H   0  0  0  0  0  0
  -15.5355  -30.2993   23.7667 H   0  0  0  0  0  0
  -15.8677  -28.0833   22.7061 H   0  0  0  0  0  0
  -24.5876  -30.7112   25.7747 H   0  0  0  0  0  0
  -24.8923  -32.2916   26.4865 H   0  0  0  0  0  0
  -25.8011  -30.8888   27.0222 H   0  0  0  0  0  0
  -26.2951  -29.6711   24.1266 H   0  0  0  0  0  0
  -27.3968  -29.7242   25.4816 H   0  0  0  0  0  0
  -27.8863  -30.4202   23.9561 H   0  0  0  0  0  0
  -27.2665  -33.3613   26.2081 H   0  0  0  0  0  0
  -28.3871  -32.6884   25.0340 H   0  0  0  0  0  0
  -28.0732  -31.8444   26.5423 H   0  0  0  0  0  0
  -28.2583  -38.0111   24.7527 H   0  0  0  0  0  0
  -28.1096  -36.2643   24.6252 H   0  0  0  0  0  0
  -27.2307  -37.1403   25.8861 H   0  0  0  0  0  0
  -20.9418  -29.8767   21.6814 H   0  0  0  0  0  0
  -26.0163  -38.2847   24.1424 H   0  0  0  0  0  0
  -28.9588  -23.5359   18.4529 H   0  0  0  0  0  0
  -31.4633  -19.4288   20.6262 H   0  0  0  0  0  0
  -30.5870  -18.7641   21.9744 H   0  0  0  0  0  0
  -28.2830  -18.2751   21.8120 H   0  0  0  0  0  0
  -27.4402  -18.4236   20.3106 H   0  0  0  0  0  0
  -32.0132  -17.0447   21.0260 H   0  0  0  0  0  0
  -31.4262  -17.3094   19.4142 H   0  0  0  0  0  0
  -28.4718  -16.4346   19.3804 H   0  0  0  0  0  0
  -28.0792  -16.0156   21.0251 H   0  0  0  0  0  0
  -28.0874  -19.7096   13.6869 H   0  0  0  0  0  0
  -27.3258  -21.1373   14.3886 H   0  0  0  0  0  0
  -26.9328  -19.5297   15.0072 H   0  0  0  0  0  0
  -27.8850  -25.0599   21.8783 H   0  0  0  0  0  0
  -26.7732  -24.7225   20.6235 H   0  0  0  0  0  0
  -27.9061  -21.6864   16.8033 H   0  0  0  0  0  0
  -27.7373  -20.0363   17.3670 H   0  0  0  0  0  0
  -30.1936  -20.0033   17.9682 H   0  0  0  0  0  0
  -29.5437  -20.8888   15.2253 H   0  0  0  0  0  0
  -29.2766  -19.3486   15.6830 H   0  0  0  0  0  0
  1 25  1  0  0  0
  1 30  2  0  0  0
  1 86  1  0  0  0
  2  3  1  0  0  0
  2 25  1  0  0  0
  2 89  1  0  0  0
  2 90  1  0  0  0
  3  4  1  0  0  0
  3 91  1  0  0  0
  3 92  1  0  0  0
  4  5  1  0  0  0
  4 93  1  0  0  0
  4 94  1  0  0  0
  5  6  1  0  0  0
  5 26  1  0  0  0
  5 95  1  0  0  0
  6 25  1  0  0  0
  6 96  1  0  0  0
  6 97  1  0  0  0
  7  8  2  0  0  0
  7 26  1  0  0  0
  7 29  1  0  0  0
  8  9  1  0  0  0
  8 22  1  0  0  0
  9 10  1  0  0  0
  9 27  2  0  0  0
 10 11  2  0  0  0
 10 15  1  0  0  0
 11 12  1  0  0  0
 11 98  1  0  0  0
 12 13  2  0  0  0
 12 99  1  0  0  0
 13 14  1  0  0  0
 13 31  1  0  0  0
 14 15  2  0  0  0
 14100  1  0  0  0
 15101  1  0  0  0
 16 17  2  0  0  0
 16 21  1  0  0  0
 16 31  1  0  0  0
 17 18  1  0  0  0
 17102  1  0  0  0
 18 19  2  0  0  0
 18103  1  0  0  0
 19 20  1  0  0  0
 19 24  1  0  0  0
 20 21  2  0  0  0
 20104  1  0  0  0
 21 23  1  0  0  0
 22 28  1  0  0  0
 22 32  2  0  0  0
 26 27  1  0  0  0
 28105  1  0  0  0
 28106  1  0  0  0
 29107  1  0  0  0
 29108  1  0  0  0
 33 34  1  0  0  0
 33 66  1  0  0  0
 33 70  2  0  0  0
 34 36  1  0  0  0
 34 59  1  0  0  0
 34109  1  0  0  0
 35 44  2  0  0  0
 35 45  1  0  0  0
 35 68  1  0  0  0
 36 56  1  0  0  0
 36110  1  0  0  0
 37 39  1  0  0  0
 37 47  1  0  0  0
 37 66  1  0  0  0
 37111  1  0  0  0
 38 43  2  0  0  0
 38 46  1  0  0  0
 38 47  1  0  0  0
 39 64  1  0  0  0
 39 67  2  0  0  0
 40 52  1  0  0  0
 40 53  2  0  0  0
 40 58  1  0  0  0
 41112  1  0  0  0
 41113  1  0  0  0
 41114  1  0  0  0
 41 48  1  0  0  0
 42 43  1  0  0  0
 42 66  1  0  0  0
 42115  1  0  0  0
 42116  1  0  0  0
 43 44  1  0  0  0
 44117  1  0  0  0
 45 46  2  0  0  0
 45118  1  0  0  0
 46119  1  0  0  0
 47120  1  0  0  0
 47121  1  0  0  0
 48 56  1  0  0  0
 48 65  1  0  0  0
 48122  1  0  0  0
 49 50  1  0  0  0
 49 53  1  0  0  0
 49 64  1  0  0  0
 49123  1  0  0  0
 50 51  1  0  0  0
 50124  1  0  0  0
 50125  1  0  0  0
 51 52  1  0  0  0
 51126  1  0  0  0
 51127  1  0  0  0
 52128  1  0  0  0
 52129  1  0  0  0
 53 54  1  0  0  0
 54 55  2  0  0  0
 54130  1  0  0  0
 55 57  1  0  0  0
 55131  1  0  0  0
 56 69  2  0  0  0
 57 58  2  0  0  0
 57132  1  0  0  0
 58133  1  0  0  0
 59 60  1  0  0  0
 59 61  1  0  0  0
 59 62  1  0  0  0
 60134  1  0  0  0
 60135  1  0  0  0
 60136  1  0  0  0
 61137  1  0  0  0
 61138  1  0  0  0
 61139  1  0  0  0
 62140  1  0  0  0
 62141  1  0  0  0
 62142  1  0  0  0
 63 65  1  0  0  0
 63143  1  0  0  0
 63144  1  0  0  0
 63145  1  0  0  0
 64146  1  0  0  0
 65147  1  0  0  0
 68 80  1  0  0  0
 71 72  2  0  0  0
 71 73  1  0  0  0
 71148  1  0  0  0
 72 74  1  0  0  0
 72 82  1  0  0  0
 73 80  1  0  0  0
 73 83  2  0  0  0
 74 84  2  0  0  0
 74 85  1  0  0  0
 75 77  1  0  0  0
 75 85  1  0  0  0
 75149  1  0  0  0
 75150  1  0  0  0
 76 78  1  0  0  0
 76 85  1  0  0  0
 76151  1  0  0  0
 76152  1  0  0  0
 77 86  1  0  0  0
 77153  1  0  0  0
 77154  1  0  0  0
 78 86  1  0  0  0
 78155  1  0  0  0
 78156  1  0  0  0
 79 87  1  0  0  0
 79157  1  0  0  0
 79158  1  0  0  0
 79159  1  0  0  0
 80160  1  0  0  0
 80161  1  0  0  0
 81 82  1  0  0  0
 81 87  1  0  0  0
 81162  1  0  0  0
 81163  1  0  0  0
 82 88  1  0  0  0
 82164  1  0  0  0
 83 84  1  0  0  0
 87165  1  0  0  0
 87166  1  0  0  0
M  CHG  1  87   1
M  ISO  4   1 100  68 101  80 101  86 100
M  END
> <chiral flag>
0

> <version>
0

> <s_m_source_file>
/data/baiqing/PycharmProjects/Reinvent-master-3.2/result/LINK_invent/BTK/process_docking_weight1_custom_sum_contain_oxygen_bond_distance_aromatic_linkinvent_7_9_3/rearranged_h_0184.sdf

> <i_m_source_file_index>
17

> <r_mmod_Potential_Energy-OPLS-2005>
275.193267822266

> <r_mmod_Stretch_Energy-OPLS-2005>
146.955902099609

> <r_mmod_Bend_Energy-OPLS-2005>
246.939361572266

> <r_mmod_Torsional_Energy-OPLS-2005>
371.667785644531

> <r_mmod_Improper_Torsional_Energy-OPLS-2005>
11.2947244644165

> <r_mmod_Van_der_Waal_Energy-OPLS-2005>
148.327972412109

> <r_mmod_Electrostatic_Energy-OPLS-2005>
-269.811279296875

> <r_mmod_Solvation_Energy-OPLS-2005>
-505.156829833984

> <b_mmod_Minimization_Converged-OPLS-2005>
0

> <r_mmod_RMS_Derivative-OPLS-2005>
2.37112259864807

$$$$
17
                    3D
 Structure written by MMmdl.
150158  0  0  1  0            999 V2000
  -30.3788  -15.2979   20.4511 C   0  0  0  0  0  0
  -30.4622  -12.8495   19.5168 C   0  0  0  0  0  0
  -29.5337  -12.5810   18.3001 C   0  0  0  0  0  0
  -28.0730  -12.3279   18.7320 C   0  0  0  0  0  0
  -27.6260  -13.2700   19.8766 C   0  0  2  0  0  0
  -28.6865  -13.3253   20.9887 C   0  0  0  0  0  0
  -25.2351  -13.8241   20.6058 C   0  0  0  0  0  0
  -24.1704  -13.0369   20.9391 C   0  0  0  0  0  0
  -24.6380  -11.6907   20.8838 C   0  0  0  0  0  0
  -23.9091  -10.4236   21.0390 C   0  0  0  0  0  0
  -24.3638   -9.4158   21.9157 C   0  0  0  0  0  0
  -23.6329   -8.2188   22.0730 C   0  0  0  0  0  0
  -22.4287   -8.0249   21.3512 C   0  0  0  0  0  0
  -21.9931   -9.0213   20.4623 C   0  0  0  0  0  0
  -22.7262  -10.2090   20.3026 C   0  0  0  0  0  0
  -21.6871   -6.0726   22.5271 C   0  0  0  0  0  0
  -21.4029   -6.5645   23.8202 C   0  0  0  0  0  0
  -21.3676   -5.6775   24.9164 C   0  0  0  0  0  0
  -21.6049   -4.3045   24.7214 C   0  0  0  0  0  0
  -21.8832   -3.8137   23.4333 C   0  0  0  0  0  0
  -21.9182   -4.6959   22.3390 C   0  0  0  0  0  0
  -22.7724  -13.5111   21.1958 C   0  0  0  0  0  0
  -22.1656   -4.2143   21.0969 F   0  0  0  0  0  0
  -21.5605   -3.4531   25.7725 F   0  0  0  0  0  0
  -29.8675  -13.9579   20.3619 N   0  0  0  0  0  0
  -26.2872  -12.9565   20.3625 N   0  0  0  0  0  0
  -25.9348  -11.6627   20.5942 N   0  0  0  0  0  0
  -22.0413  -12.8047   22.0485 N   0  0  0  0  0  0
  -25.3610  -15.2031   20.4641 N   0  0  0  0  0  0
  -31.6049  -15.3187   20.2412 O   0  0  0  0  0  0
  -21.6644   -6.8854   21.4228 O   0  0  0  0  0  0
  -22.3421  -14.5440   20.6815 O   0  0  0  0  0  0
  -24.6596  -31.8276   23.1701 C   0  0  0  0  0  0
  -25.9263  -32.4624   23.8187 C   0  0  1  0  0  0
  -27.2399  -26.9608   20.1975 C   0  0  0  0  0  0
  -25.5923  -33.8435   24.2089 N   0  0  0  0  0  0
  -23.4759  -30.4370   21.5173 C   0  0  2  0  0  0
  -24.9301  -28.8177   20.1260 C   0  0  0  0  0  0
  -22.7650  -29.4454   22.4769 C   0  0  0  0  0  0
  -18.0317  -28.1416   22.8436 C   0  0  0  0  0  0
  -24.1496  -36.7274   23.2657 C   0  0  0  0  0  0
  -26.0412  -30.6474   21.3910 C   0  0  0  0  0  0
  -26.1146  -29.2348   20.7484 C   0  0  0  0  0  0
  -27.2645  -28.3293   20.7534 C   0  0  0  0  0  0
  -26.0195  -26.6797   19.5428 C   0  0  0  0  0  0
  -24.9051  -27.5584   19.5039 C   0  0  0  0  0  0
  -23.7177  -29.7476   20.1456 C   0  0  0  0  0  0
  -25.4130  -36.3012   24.0303 C   0  0  1  0  0  0
  -20.5930  -28.3768   23.1173 C   0  0  2  0  0  0
  -20.6795  -26.9455   22.5389 C   0  0  0  0  0  0
  -19.5783  -26.6368   21.5192 C   0  0  0  0  0  0
  -18.1965  -26.7933   22.1608 C   0  0  0  0  0  0
  -19.1577  -28.8916   23.2793 C   0  0  0  0  0  0
  -18.9497  -30.1487   23.8847 C   0  0  0  0  0  0
  -17.6499  -30.6602   24.0555 C   0  0  0  0  0  0
  -25.9074  -34.9377   23.5016 C   0  0  0  0  0  0
  -16.5386  -29.9102   23.6327 C   0  0  0  0  0  0
  -16.7303  -28.6527   23.0340 C   0  0  0  0  0  0
  -26.4476  -31.6572   25.0728 C   0  0  0  0  0  0
  -25.3597  -31.3850   26.1391 C   0  0  0  0  0  0
  -27.0363  -30.2945   24.6452 C   0  0  0  0  0  0
  -27.5973  -32.4370   25.7545 C   0  0  0  0  0  0
  -27.5547  -37.1848   24.8480 C   0  0  0  0  0  0
  -21.4320  -29.3066   22.3537 N   0  0  0  0  0  0
  -26.4309  -37.3709   23.9344 N   0  0  0  0  0  0
  -24.7461  -30.9966   22.0813 N   0  0  0  0  0  0
  -23.4216  -28.8028   23.2981 O   0  0  0  0  0  0
  -28.2865  -25.9068   20.1980 O   0  0  0  0  0  0
  -26.5690  -34.8902   22.4631 O   0  0  0  0  0  0
  -23.5659  -32.1199   23.6826 O   0  0  0  0  0  0
  -28.6284  -17.8711   21.9489 C   0  0  0  0  0  0
  -28.2199  -16.6665   21.0947 C   0  0  0  0  0  0
  -29.6681  -18.2296   20.9031 C   0  0  2  0  0  0
  -29.2667  -19.7467   20.0206 C   0  0  0  0  0  0
  -28.8986  -22.7790   19.9592 C   0  0  0  0  0  0
  -28.1376  -24.3034   20.5382 C   0  0  0  0  0  0
  -29.5877  -16.5808   20.5455 N   0  0  0  0  0  0
  -28.9514  -21.2627   20.6602 N   0  3  0  0  0  0
  -31.4500  -13.1296   19.1499 H   0  0  0  0  0  0
  -30.6372  -11.9358   20.0898 H   0  0  0  0  0  0
  -29.9071  -11.7351   17.7201 H   0  0  0  0  0  0
  -29.5650  -13.4461   17.6381 H   0  0  0  0  0  0
  -28.0001  -11.2880   19.0615 H   0  0  0  0  0  0
  -27.3964  -12.4433   17.8854 H   0  0  0  0  0  0
  -27.5679  -14.2680   19.4467 H   0  0  0  0  0  0
  -28.8903  -12.3137   21.3461 H   0  0  0  0  0  0
  -28.3613  -13.8578   21.8761 H   0  0  0  0  0  0
  -25.2776   -9.5662   22.4743 H   0  0  0  0  0  0
  -24.0040   -7.4608   22.7478 H   0  0  0  0  0  0
  -21.0835   -8.8757   19.8972 H   0  0  0  0  0  0
  -22.3710  -10.9640   19.6150 H   0  0  0  0  0  0
  -21.2058   -7.6147   23.9714 H   0  0  0  0  0  0
  -21.1482   -6.0494   25.9057 H   0  0  0  0  0  0
  -22.0605   -2.7607   23.2821 H   0  0  0  0  0  0
  -22.4133  -11.9746   22.4869 H   0  0  0  0  0  0
  -21.1019  -13.1027   22.2759 H   0  0  0  0  0  0
  -24.5482  -15.8036   20.5782 H   0  0  0  0  0  0
  -26.1669  -15.7066   20.1233 H   0  0  0  0  0  0
  -26.7362  -32.5172   23.0937 H   0  0  0  0  0  0
  -24.9982  -33.9496   25.0175 H   0  0  0  0  0  0
  -22.7890  -31.2668   21.3428 H   0  0  0  0  0  0
  -23.3688  -35.9690   23.3437 H   0  0  0  0  0  0
  -24.3537  -36.8800   22.2047 H   0  0  0  0  0  0
  -23.7367  -37.6557   23.6628 H   0  0  0  0  0  0
  -26.2041  -31.3844   20.6032 H   0  0  0  0  0  0
  -26.9077  -30.7180   22.0372 H   0  0  0  0  0  0
  -28.1687  -28.6575   21.2498 H   0  0  0  0  0  0
  -25.9124  -25.7183   19.0629 H   0  0  0  0  0  0
  -24.0064  -27.2284   19.0023 H   0  0  0  0  0  0
  -23.8884  -30.5149   19.3878 H   0  0  0  0  0  0
  -22.8292  -29.2079   19.8164 H   0  0  0  0  0  0
  -25.1353  -36.1840   25.0801 H   0  0  0  0  0  0
  -21.0015  -28.3376   24.1297 H   0  0  0  0  0  0
  -20.5657  -26.2396   23.3627 H   0  0  0  0  0  0
  -21.6666  -26.7422   22.1221 H   0  0  0  0  0  0
  -19.6948  -25.6252   21.1304 H   0  0  0  0  0  0
  -19.6722  -27.3098   20.6660 H   0  0  0  0  0  0
  -17.4212  -26.6604   21.4046 H   0  0  0  0  0  0
  -18.0427  -26.0117   22.9062 H   0  0  0  0  0  0
  -19.7984  -30.7294   24.2212 H   0  0  0  0  0  0
  -17.5070  -31.6272   24.5180 H   0  0  0  0  0  0
  -15.5395  -30.3014   23.7683 H   0  0  0  0  0  0
  -15.8692  -28.0853   22.7079 H   0  0  0  0  0  0
  -24.5682  -30.7321   25.7680 H   0  0  0  0  0  0
  -24.8874  -32.3079   26.4788 H   0  0  0  0  0  0
  -25.7772  -30.8979   27.0213 H   0  0  0  0  0  0
  -26.2998  -29.6626   24.1473 H   0  0  0  0  0  0
  -27.3903  -29.7321   25.5102 H   0  0  0  0  0  0
  -27.8939  -30.4137   23.9831 H   0  0  0  0  0  0
  -27.2505  -33.3651   26.2110 H   0  0  0  0  0  0
  -28.3793  -32.6982   25.0405 H   0  0  0  0  0  0
  -28.0636  -31.8525   26.5489 H   0  0  0  0  0  0
  -28.2682  -38.0017   24.7310 H   0  0  0  0  0  0
  -28.0921  -36.2542   24.6592 H   0  0  0  0  0  0
  -27.2235  -37.1856   25.8880 H   0  0  0  0  0  0
  -20.9574  -29.8804   21.6704 H   0  0  0  0  0  0
  -26.0180  -38.2819   24.1176 H   0  0  0  0  0  0
  -29.0475  -17.5946   22.9194 H   0  0  0  0  0  0
  -27.8404  -18.6198   22.0694 H   0  0  0  0  0  0
  -27.4644  -16.9342   20.3538 H   0  0  0  0  0  0
  -27.8878  -15.8566   21.7387 H   0  0  0  0  0  0
  -30.6031  -18.4058   21.4342 H   0  0  0  0  0  0
  -28.4333  -19.5499   19.3432 H   0  0  0  0  0  0
  -30.1065  -19.9185   19.3485 H   0  0  0  0  0  0
  -29.9461  -23.0321   19.7954 H   0  0  0  0  0  0
  -28.5079  -22.6267   18.9547 H   0  0  0  0  0  0
  -28.3833  -24.3105   21.5989 H   0  0  0  0  0  0
  -27.0650  -24.1184   20.5276 H   0  0  0  0  0  0
  -29.6126  -21.3577   21.4140 H   0  0  0  0  0  0
  -28.0539  -21.1638   21.1061 H   0  0  0  0  0  0
  1 25  1  0  0  0
  1 30  2  0  0  0
  1 77  1  0  0  0
  2  3  1  0  0  0
  2 25  1  0  0  0
  2 79  1  0  0  0
  2 80  1  0  0  0
  3  4  1  0  0  0
  3 81  1  0  0  0
  3 82  1  0  0  0
  4  5  1  0  0  0
  4 83  1  0  0  0
  4 84  1  0  0  0
  5  6  1  0  0  0
  5 26  1  0  0  0
  5 85  1  0  0  0
  6 25  1  0  0  0
  6 86  1  0  0  0
  6 87  1  0  0  0
  7  8  2  0  0  0
  7 26  1  0  0  0
  7 29  1  0  0  0
  8  9  1  0  0  0
  8 22  1  0  0  0
  9 10  1  0  0  0
  9 27  2  0  0  0
 10 11  2  0  0  0
 10 15  1  0  0  0
 11 12  1  0  0  0
 11 88  1  0  0  0
 12 13  2  0  0  0
 12 89  1  0  0  0
 13 14  1  0  0  0
 13 31  1  0  0  0
 14 15  2  0  0  0
 14 90  1  0  0  0
 15 91  1  0  0  0
 16 17  2  0  0  0
 16 21  1  0  0  0
 16 31  1  0  0  0
 17 18  1  0  0  0
 17 92  1  0  0  0
 18 19  2  0  0  0
 18 93  1  0  0  0
 19 20  1  0  0  0
 19 24  1  0  0  0
 20 21  2  0  0  0
 20 94  1  0  0  0
 21 23  1  0  0  0
 22 28  1  0  0  0
 22 32  2  0  0  0
 26 27  1  0  0  0
 28 95  1  0  0  0
 28 96  1  0  0  0
 29 97  1  0  0  0
 29 98  1  0  0  0
 33 34  1  0  0  0
 33 66  1  0  0  0
 33 70  2  0  0  0
 34 36  1  0  0  0
 34 59  1  0  0  0
 34 99  1  0  0  0
 35 44  2  0  0  0
 35 45  1  0  0  0
 35 68  1  0  0  0
 36 56  1  0  0  0
 36100  1  0  0  0
 37 39  1  0  0  0
 37 47  1  0  0  0
 37 66  1  0  0  0
 37101  1  0  0  0
 38 43  2  0  0  0
 38 46  1  0  0  0
 38 47  1  0  0  0
 39 64  1  0  0  0
 39 67  2  0  0  0
 40 52  1  0  0  0
 40 53  2  0  0  0
 40 58  1  0  0  0
 41102  1  0  0  0
 41103  1  0  0  0
 41104  1  0  0  0
 41 48  1  0  0  0
 42 43  1  0  0  0
 42 66  1  0  0  0
 42105  1  0  0  0
 42106  1  0  0  0
 43 44  1  0  0  0
 44107  1  0  0  0
 45 46  2  0  0  0
 45108  1  0  0  0
 46109  1  0  0  0
 47110  1  0  0  0
 47111  1  0  0  0
 48 56  1  0  0  0
 48 65  1  0  0  0
 48112  1  0  0  0
 49 50  1  0  0  0
 49 53  1  0  0  0
 49 64  1  0  0  0
 49113  1  0  0  0
 50 51  1  0  0  0
 50114  1  0  0  0
 50115  1  0  0  0
 51 52  1  0  0  0
 51116  1  0  0  0
 51117  1  0  0  0
 52118  1  0  0  0
 52119  1  0  0  0
 53 54  1  0  0  0
 54 55  2  0  0  0
 54120  1  0  0  0
 55 57  1  0  0  0
 55121  1  0  0  0
 56 69  2  0  0  0
 57 58  2  0  0  0
 57122  1  0  0  0
 58123  1  0  0  0
 59 60  1  0  0  0
 59 61  1  0  0  0
 59 62  1  0  0  0
 60124  1  0  0  0
 60125  1  0  0  0
 60126  1  0  0  0
 61127  1  0  0  0
 61128  1  0  0  0
 61129  1  0  0  0
 62130  1  0  0  0
 62131  1  0  0  0
 62132  1  0  0  0
 63 65  1  0  0  0
 63133  1  0  0  0
 63134  1  0  0  0
 63135  1  0  0  0
 64136  1  0  0  0
 65137  1  0  0  0
 68 76  1  0  0  0
 71 72  1  0  0  0
 71 73  1  0  0  0
 71138  1  0  0  0
 71139  1  0  0  0
 72 77  1  0  0  0
 72140  1  0  0  0
 72141  1  0  0  0
 73 74  1  0  0  0
 73 77  1  0  0  0
 73142  1  0  0  0
 74 78  1  0  0  0
 74143  1  0  0  0
 74144  1  0  0  0
 75 76  1  0  0  0
 75 78  1  0  0  0
 75145  1  0  0  0
 75146  1  0  0  0
 76147  1  0  0  0
 76148  1  0  0  0
 78149  1  0  0  0
 78150  1  0  0  0
M  CHG  1  78   1
M  ISO  4   1 100  68 101  76 101  77 100
M  END
> <chiral flag>
0

> <version>
0

> <s_m_source_file>
/data/baiqing/PycharmProjects/Reinvent-master-3.2/result/LINK_invent/BTK/process_docking_weight1_custom_sum_contain_oxygen_bond_distance_aromatic_linkinvent_7_9_3/rearranged_h_0184.sdf

> <i_m_source_file_index>
18

> <r_mmod_Potential_Energy-OPLS-2005>
1275.87414550781

> <r_mmod_Stretch_Energy-OPLS-2005>
625.808715820312

> <r_mmod_Bend_Energy-OPLS-2005>
482.016174316406

> <r_mmod_Torsional_Energy-OPLS-2005>
297.924072265625

> <r_mmod_Improper_Torsional_Energy-OPLS-2005>
8.11533355712891

> <r_mmod_Van_der_Waal_Energy-OPLS-2005>
110.904258728027

> <r_mmod_Electrostatic_Energy-OPLS-2005>
-213.600143432617

> <r_mmod_Solvation_Energy-OPLS-2005>
-475.466217041016

> <b_mmod_Minimization_Converged-OPLS-2005>
0

> <r_mmod_RMS_Derivative-OPLS-2005>
6.84322452545166

$$$$
18
                    3D
 Structure written by MMmdl.
163172  0  0  1  0            999 V2000
  -30.5217  -14.8990   20.4196 C   0  0  0  0  0  0
  -30.4382  -12.5594   19.4627 C   0  0  0  0  0  0
  -29.5106  -12.5410   18.2237 C   0  0  0  0  0  0
  -28.0397  -12.3236   18.6390 C   0  0  0  0  0  0
  -27.6212  -13.2369   19.8198 C   0  0  2  0  0  0
  -28.6658  -13.2303   20.9538 C   0  0  0  0  0  0
  -25.2392  -13.8166   20.5634 C   0  0  0  0  0  0
  -24.1741  -13.0406   20.9184 C   0  0  0  0  0  0
  -24.6377  -11.6872   20.8802 C   0  0  0  0  0  0
  -23.9100  -10.4224   21.0453 C   0  0  0  0  0  0
  -24.3618   -9.4146   21.9253 C   0  0  0  0  0  0
  -23.6284   -8.2181   22.0777 C   0  0  0  0  0  0
  -22.4307   -8.0249   21.3514 C   0  0  0  0  0  0
  -21.9983   -9.0197   20.4608 C   0  0  0  0  0  0
  -22.7337  -10.2059   20.3039 C   0  0  0  0  0  0
  -21.6882   -6.0734   22.5268 C   0  0  0  0  0  0
  -21.4032   -6.5644   23.8207 C   0  0  0  0  0  0
  -21.3667   -5.6751   24.9168 C   0  0  0  0  0  0
  -21.6064   -4.3058   24.7187 C   0  0  0  0  0  0
  -21.8824   -3.8155   23.4298 C   0  0  0  0  0  0
  -21.9178   -4.6965   22.3361 C   0  0  0  0  0  0
  -22.7730  -13.5143   21.1790 C   0  0  0  0  0  0
  -22.1665   -4.2165   21.0943 F   0  0  0  0  0  0
  -21.5609   -3.4534   25.7692 F   0  0  0  0  0  0
  -29.9490  -13.6347   20.3588 N   0  0  0  0  0  0
  -26.2824  -12.9416   20.3137 N   0  0  0  0  0  0
  -25.9289  -11.6561   20.5702 N   0  0  0  0  0  0
  -22.0338  -12.8070   22.0280 N   0  0  0  0  0  0
  -25.3983  -15.1881   20.3885 N   0  0  0  0  0  0
  -31.7420  -15.0083   20.2574 O   0  0  0  0  0  0
  -21.6680   -6.8849   21.4229 O   0  0  0  0  0  0
  -22.3412  -14.5466   20.6685 O   0  0  0  0  0  0
  -24.6448  -31.8469   23.1884 C   0  0  0  0  0  0
  -25.9212  -32.4718   23.8276 C   0  0  1  0  0  0
  -27.2101  -27.1486   20.1388 C   0  0  0  0  0  0
  -25.5937  -33.8514   24.2171 N   0  0  0  0  0  0
  -23.4442  -30.4662   21.5363 C   0  0  2  0  0  0
  -24.8904  -28.8991   20.1047 C   0  0  0  0  0  0
  -22.7571  -29.4544   22.4870 C   0  0  0  0  0  0
  -18.0317  -28.1369   22.8484 C   0  0  0  0  0  0
  -24.1496  -36.7315   23.2630 C   0  0  0  0  0  0
  -26.0010  -30.7242   21.3820 C   0  0  0  0  0  0
  -26.0688  -29.3358   20.7219 C   0  0  0  0  0  0
  -27.2327  -28.4807   20.7122 C   0  0  0  0  0  0
  -26.0025  -26.8132   19.4825 C   0  0  0  0  0  0
  -24.8717  -27.6536   19.4626 C   0  0  0  0  0  0
  -23.6678  -29.8019   20.1536 C   0  0  0  0  0  0
  -25.4123  -36.3045   24.0304 C   0  0  1  0  0  0
  -20.5923  -28.3701   23.1255 C   0  0  2  0  0  0
  -20.6778  -26.9404   22.5414 C   0  0  0  0  0  0
  -19.5744  -26.6354   21.5220 C   0  0  0  0  0  0
  -18.1933  -26.7908   22.1642 C   0  0  0  0  0  0
  -19.1570  -28.8860   23.2855 C   0  0  0  0  0  0
  -18.9471  -30.1459   23.8865 C   0  0  0  0  0  0
  -17.6455  -30.6562   24.0557 C   0  0  0  0  0  0
  -25.9084  -34.9418   23.5062 C   0  0  0  0  0  0
  -16.5349  -29.9046   23.6316 C   0  0  0  0  0  0
  -16.7297  -28.6473   23.0331 C   0  0  0  0  0  0
  -26.4500  -31.6603   25.0747 C   0  0  0  0  0  0
  -25.3660  -31.3829   26.1444 C   0  0  0  0  0  0
  -27.0387  -30.2993   24.6354 C   0  0  0  0  0  0
  -27.6012  -32.4391   25.7552 C   0  0  0  0  0  0
  -27.5582  -37.1840   24.8444 C   0  0  0  0  0  0
  -21.4247  -29.3056   22.3665 N   0  0  0  0  0  0
  -26.4288  -37.3762   23.9384 N   0  0  0  0  0  0
  -24.7177  -31.0324   22.0917 N   0  0  0  0  0  0
  -23.4234  -28.8074   23.2966 O   0  0  0  0  0  0
  -28.2668  -26.1746   20.1976 O   0  0  0  0  0  0
  -26.5672  -34.8917   22.4637 O   0  0  0  0  0  0
  -23.5564  -32.1316   23.7135 O   0  0  0  0  0  0
  -28.3272  -20.4426   22.1976 C   0  0  0  0  0  0
  -28.3077  -17.9618   20.4611 C   0  0  0  0  0  0
  -28.4891  -21.7756   20.4012 C   0  0  1  0  0  0
  -29.2501  -20.3604   20.9397 C   0  0  2  0  0  0
  -27.5528  -21.6441   21.6224 C   0  0  1  0  0  0
  -29.7467  -17.5334   20.7704 C   0  0  1  0  0  0
  -30.0224  -23.4775   19.0815 C   0  0  0  0  0  0
  -25.2309  -21.4316   22.4957 C   0  0  0  0  0  0
  -27.9632  -24.6543   20.1528 C   0  0  0  0  0  0
  -29.0347  -23.3637   20.2573 C   0  0  2  0  0  0
  -29.6595  -16.0138   20.4416 N   0  0  0  0  0  0
  -29.2977  -18.9479   20.1791 N   0  3  1  0  0  0
  -26.1086  -21.4280   21.3100 N   0  3  0  0  0  0
  -31.4745  -12.7359   19.1684 H   0  0  0  0  0  0
  -30.4200  -11.5946   19.9753 H   0  0  0  0  0  0
  -29.8212  -11.7732   17.5119 H   0  0  0  0  0  0
  -29.5957  -13.4952   17.6956 H   0  0  0  0  0  0
  -27.9211  -11.2737   18.9079 H   0  0  0  0  0  0
  -27.3847  -12.4882   17.7829 H   0  0  0  0  0  0
  -27.5792  -14.2399   19.3962 H   0  0  0  0  0  0
  -28.7333  -12.2388   21.4066 H   0  0  0  0  0  0
  -28.3605  -13.9059   21.7541 H   0  0  0  0  0  0
  -25.2685   -9.5675   22.4920 H   0  0  0  0  0  0
  -23.9988   -7.4565   22.7513 H   0  0  0  0  0  0
  -21.0921   -8.8682   19.8854 H   0  0  0  0  0  0
  -22.3803  -10.9583   19.6132 H   0  0  0  0  0  0
  -21.2106   -7.6155   23.9717 H   0  0  0  0  0  0
  -21.1484   -6.0503   25.9043 H   0  0  0  0  0  0
  -22.0612   -2.7617   23.2783 H   0  0  0  0  0  0
  -22.3934  -11.9638   22.4468 H   0  0  0  0  0  0
  -21.0947  -13.1055   22.2445 H   0  0  0  0  0  0
  -24.5747  -15.7801   20.3395 H   0  0  0  0  0  0
  -26.1848  -15.5808   19.8929 H   0  0  0  0  0  0
  -26.7302  -32.5312   23.1033 H   0  0  0  0  0  0
  -24.9995  -33.9628   25.0253 H   0  0  0  0  0  0
  -22.7474  -31.2945   21.3908 H   0  0  0  0  0  0
  -23.3731  -35.9676   23.3256 H   0  0  0  0  0  0
  -24.3575  -36.8989   22.2052 H   0  0  0  0  0  0
  -23.7317  -37.6526   23.6696 H   0  0  0  0  0  0
  -26.1555  -31.4802   20.6100 H   0  0  0  0  0  0
  -26.8707  -30.7685   22.0279 H   0  0  0  0  0  0
  -28.1407  -28.8150   21.1919 H   0  0  0  0  0  0
  -25.8931  -25.8587   18.9896 H   0  0  0  0  0  0
  -23.9787  -27.3230   18.9540 H   0  0  0  0  0  0
  -23.8057  -30.5830   19.4053 H   0  0  0  0  0  0
  -22.7781  -29.2526   19.8380 H   0  0  0  0  0  0
  -25.1321  -36.1863   25.0803 H   0  0  0  0  0  0
  -21.0011  -28.3238   24.1370 H   0  0  0  0  0  0
  -20.5644  -26.2290   23.3612 H   0  0  0  0  0  0
  -21.6642  -26.7376   22.1224 H   0  0  0  0  0  0
  -19.6879  -25.6249   21.1267 H   0  0  0  0  0  0
  -19.6664  -27.3136   20.6722 H   0  0  0  0  0  0
  -17.4194  -26.6648   21.4048 H   0  0  0  0  0  0
  -18.0349  -26.0051   22.9045 H   0  0  0  0  0  0
  -19.7934  -30.7314   24.2182 H   0  0  0  0  0  0
  -17.4990  -31.6232   24.5178 H   0  0  0  0  0  0
  -15.5341  -30.2923   23.7664 H   0  0  0  0  0  0
  -15.8703  -28.0793   22.7022 H   0  0  0  0  0  0
  -24.5792  -30.7237   25.7755 H   0  0  0  0  0  0
  -24.8909  -32.3037   26.4834 H   0  0  0  0  0  0
  -25.7905  -30.9006   27.0257 H   0  0  0  0  0  0
  -26.3049  -29.6732   24.1272 H   0  0  0  0  0  0
  -27.3874  -29.7293   25.4973 H   0  0  0  0  0  0
  -27.8972  -30.4215   23.9753 H   0  0  0  0  0  0
  -27.2551  -33.3670   26.2117 H   0  0  0  0  0  0
  -28.3825  -32.7014   25.0406 H   0  0  0  0  0  0
  -28.0668  -31.8548   26.5497 H   0  0  0  0  0  0
  -28.2580  -38.0155   24.7481 H   0  0  0  0  0  0
  -28.1103  -36.2694   24.6255 H   0  0  0  0  0  0
  -27.2303  -37.1469   25.8846 H   0  0  0  0  0  0
  -20.9434  -29.8858   21.6960 H   0  0  0  0  0  0
  -26.0145  -38.2836   24.1324 H   0  0  0  0  0  0
  -27.6451  -19.6403   22.4672 H   0  0  0  0  0  0
  -28.8852  -20.7147   23.0953 H   0  0  0  0  0  0
  -27.6554  -18.0408   21.3147 H   0  0  0  0  0  0
  -27.8256  -17.7127   19.5181 H   0  0  0  0  0  0
  -27.9505  -21.4976   19.4938 H   0  0  0  0  0  0
  -30.2715  -20.6099   21.2294 H   0  0  0  0  0  0
  -27.6619  -22.5097   22.2803 H   0  0  0  0  0  0
  -30.1622  -17.7633   21.7475 H   0  0  0  0  0  0
  -29.5403  -23.2421   18.1307 H   0  0  0  0  0  0
  -30.8635  -22.7967   19.2075 H   0  0  0  0  0  0
  -30.4326  -24.4863   18.9974 H   0  0  0  0  0  0
  -25.3342  -22.3581   23.0667 H   0  0  0  0  0  0
  -25.4693  -20.5923   23.1498 H   0  0  0  0  0  0
  -24.1829  -21.3399   22.2037 H   0  0  0  0  0  0
  -27.2198  -24.5004   20.9373 H   0  0  0  0  0  0
  -27.4360  -24.4622   19.2203 H   0  0  0  0  0  0
  -29.6163  -23.5621   21.1609 H   0  0  0  0  0  0
  -28.7041  -15.7061   20.3831 H   0  0  0  0  0  0
  -29.5144  -19.0238   19.1978 H   0  0  0  0  0  0
  -25.7835  -22.1899   20.7321 H   0  0  0  0  0  0
  -25.9394  -20.5804   20.7884 H   0  0  0  0  0  0
  1 25  1  0  0  0
  1 30  2  0  0  0
  1 81  1  0  0  0
  2  3  1  0  0  0
  2 25  1  0  0  0
  2 84  1  0  0  0
  2 85  1  0  0  0
  3  4  1  0  0  0
  3 86  1  0  0  0
  3 87  1  0  0  0
  4  5  1  0  0  0
  4 88  1  0  0  0
  4 89  1  0  0  0
  5  6  1  0  0  0
  5 26  1  0  0  0
  5 90  1  0  0  0
  6 25  1  0  0  0
  6 91  1  0  0  0
  6 92  1  0  0  0
  7  8  2  0  0  0
  7 26  1  0  0  0
  7 29  1  0  0  0
  8  9  1  0  0  0
  8 22  1  0  0  0
  9 10  1  0  0  0
  9 27  2  0  0  0
 10 11  2  0  0  0
 10 15  1  0  0  0
 11 12  1  0  0  0
 11 93  1  0  0  0
 12 13  2  0  0  0
 12 94  1  0  0  0
 13 14  1  0  0  0
 13 31  1  0  0  0
 14 15  2  0  0  0
 14 95  1  0  0  0
 15 96  1  0  0  0
 16 17  2  0  0  0
 16 21  1  0  0  0
 16 31  1  0  0  0
 17 18  1  0  0  0
 17 97  1  0  0  0
 18 19  2  0  0  0
 18 98  1  0  0  0
 19 20  1  0  0  0
 19 24  1  0  0  0
 20 21  2  0  0  0
 20 99  1  0  0  0
 21 23  1  0  0  0
 22 28  1  0  0  0
 22 32  2  0  0  0
 26 27  1  0  0  0
 28100  1  0  0  0
 28101  1  0  0  0
 29102  1  0  0  0
 29103  1  0  0  0
 33 34  1  0  0  0
 33 66  1  0  0  0
 33 70  2  0  0  0
 34 36  1  0  0  0
 34 59  1  0  0  0
 34104  1  0  0  0
 35 44  2  0  0  0
 35 45  1  0  0  0
 35 68  1  0  0  0
 36 56  1  0  0  0
 36105  1  0  0  0
 37 39  1  0  0  0
 37 47  1  0  0  0
 37 66  1  0  0  0
 37106  1  0  0  0
 38 43  2  0  0  0
 38 46  1  0  0  0
 38 47  1  0  0  0
 39 64  1  0  0  0
 39 67  2  0  0  0
 40 52  1  0  0  0
 40 53  2  0  0  0
 40 58  1  0  0  0
 41107  1  0  0  0
 41108  1  0  0  0
 41109  1  0  0  0
 41 48  1  0  0  0
 42 43  1  0  0  0
 42 66  1  0  0  0
 42110  1  0  0  0
 42111  1  0  0  0
 43 44  1  0  0  0
 44112  1  0  0  0
 45 46  2  0  0  0
 45113  1  0  0  0
 46114  1  0  0  0
 47115  1  0  0  0
 47116  1  0  0  0
 48 56  1  0  0  0
 48 65  1  0  0  0
 48117  1  0  0  0
 49 50  1  0  0  0
 49 53  1  0  0  0
 49 64  1  0  0  0
 49118  1  0  0  0
 50 51  1  0  0  0
 50119  1  0  0  0
 50120  1  0  0  0
 51 52  1  0  0  0
 51121  1  0  0  0
 51122  1  0  0  0
 52123  1  0  0  0
 52124  1  0  0  0
 53 54  1  0  0  0
 54 55  2  0  0  0
 54125  1  0  0  0
 55 57  1  0  0  0
 55126  1  0  0  0
 56 69  2  0  0  0
 57 58  2  0  0  0
 57127  1  0  0  0
 58128  1  0  0  0
 59 60  1  0  0  0
 59 61  1  0  0  0
 59 62  1  0  0  0
 60129  1  0  0  0
 60130  1  0  0  0
 60131  1  0  0  0
 61132  1  0  0  0
 61133  1  0  0  0
 61134  1  0  0  0
 62135  1  0  0  0
 62136  1  0  0  0
 62137  1  0  0  0
 63 65  1  0  0  0
 63138  1  0  0  0
 63139  1  0  0  0
 63140  1  0  0  0
 64141  1  0  0  0
 65142  1  0  0  0
 68 79  1  0  0  0
 71 75  1  0  0  0
 71143  1  0  0  0
 71144  1  0  0  0
 71 74  1  0  0  0
 72 76  1  0  0  0
 72145  1  0  0  0
 72146  1  0  0  0
 72 82  1  0  0  0
 73 74  1  0  0  0
 73 75  1  0  0  0
 73 80  1  0  0  0
 73147  1  0  0  0
 74 82  1  0  0  0
 74148  1  0  0  0
 75 83  1  0  0  0
 75149  1  0  0  0
 76 81  1  0  0  0
 76 82  1  0  0  0
 76150  1  0  0  0
 77151  1  0  0  0
 77152  1  0  0  0
 77153  1  0  0  0
 77 80  1  0  0  0
 78 83  1  0  0  0
 78154  1  0  0  0
 78155  1  0  0  0
 78156  1  0  0  0
 79 80  1  0  0  0
 79157  1  0  0  0
 79158  1  0  0  0
 80159  1  0  0  0
 81160  1  0  0  0
 82161  1  0  0  0
 83162  1  0  0  0
 83163  1  0  0  0
M  CHG  2  82   1  83   1
M  ISO  4   1 100  68 101  79 101  81 100
M  END
> <chiral flag>
0

> <version>
0

> <s_m_source_file>
/data/baiqing/PycharmProjects/Reinvent-master-3.2/result/LINK_invent/BTK/process_docking_weight1_custom_sum_contain_oxygen_bond_distance_aromatic_linkinvent_7_9_3/rearranged_h_0184.sdf

> <i_m_source_file_index>
19

> <r_mmod_Potential_Energy-OPLS-2005>
307.192932128906

> <r_mmod_Stretch_Energy-OPLS-2005>
269.779266357422

> <r_mmod_Bend_Energy-OPLS-2005>
361.825012207031

> <r_mmod_Torsional_Energy-OPLS-2005>
338.643676757812

> <r_mmod_Improper_Torsional_Energy-OPLS-2005>
7.13146352767944

> <r_mmod_Van_der_Waal_Energy-OPLS-2005>
113.387138366699

> <r_mmod_Electrostatic_Energy-OPLS-2005>
103.177116394043

> <r_mmod_Solvation_Energy-OPLS-2005>
-1061.2490234375

> <b_mmod_Minimization_Converged-OPLS-2005>
0

> <r_mmod_RMS_Derivative-OPLS-2005>
7.65873050689697

$$$$
19
                    3D
 Structure written by MMmdl.
160169  0  0  1  0            999 V2000
  -30.4792  -15.0539   20.4734 C   0  0  0  0  0  0
  -30.4577  -12.6713   19.5006 C   0  0  0  0  0  0
  -29.5306  -12.5632   18.2612 C   0  0  0  0  0  0
  -28.0654  -12.3227   18.6763 C   0  0  0  0  0  0
  -27.6376  -13.2402   19.8494 C   0  0  2  0  0  0
  -28.6832  -13.2186   20.9820 C   0  0  0  0  0  0
  -25.2459  -13.8179   20.5611 C   0  0  0  0  0  0
  -24.1795  -13.0415   20.9188 C   0  0  0  0  0  0
  -24.6404  -11.6901   20.8750 C   0  0  0  0  0  0
  -23.9081  -10.4280   21.0429 C   0  0  0  0  0  0
  -24.3627   -9.4196   21.9203 C   0  0  0  0  0  0
  -23.6289   -8.2238   22.0770 C   0  0  0  0  0  0
  -22.4271   -8.0279   21.3566 C   0  0  0  0  0  0
  -21.9913   -9.0258   20.4666 C   0  0  0  0  0  0
  -22.7254  -10.2129   20.3074 C   0  0  0  0  0  0
  -21.6846   -6.0730   22.5269 C   0  0  0  0  0  0
  -21.4018   -6.5644   23.8204 C   0  0  0  0  0  0
  -21.3652   -5.6794   24.9166 C   0  0  0  0  0  0
  -21.6045   -4.3058   24.7218 C   0  0  0  0  0  0
  -21.8817   -3.8151   23.4339 C   0  0  0  0  0  0
  -21.9194   -4.6960   22.3392 C   0  0  0  0  0  0
  -22.7823  -13.5203   21.1843 C   0  0  0  0  0  0
  -22.1657   -4.2144   21.0970 F   0  0  0  0  0  0
  -21.5618   -3.4540   25.7733 F   0  0  0  0  0  0
  -29.9363  -13.7487   20.4082 N   0  0  0  0  0  0
  -26.2919  -12.9398   20.3251 N   0  0  0  0  0  0
  -25.9342  -11.6543   20.5762 N   0  0  0  0  0  0
  -22.0469  -12.8206   22.0411 N   0  0  0  0  0  0
  -25.4048  -15.1886   20.3872 N   0  0  0  0  0  0
  -31.6462  -15.1483   20.0729 O   0  0  0  0  0  0
  -21.6634   -6.8875   21.4246 O   0  0  0  0  0  0
  -22.3495  -14.5509   20.6677 O   0  0  0  0  0  0
  -24.6486  -31.8359   23.1788 C   0  0  0  0  0  0
  -25.9243  -32.4640   23.8207 C   0  0  1  0  0  0
  -27.2242  -27.0743   20.1816 C   0  0  0  0  0  0
  -25.5971  -33.8454   24.2127 N   0  0  0  0  0  0
  -23.4554  -30.4486   21.5258 C   0  0  2  0  0  0
  -24.9075  -28.8562   20.1161 C   0  0  0  0  0  0
  -22.7600  -29.4477   22.4824 C   0  0  0  0  0  0
  -18.0307  -28.1424   22.8481 C   0  0  0  0  0  0
  -24.1488  -36.7243   23.2640 C   0  0  0  0  0  0
  -26.0127  -30.6906   21.3835 C   0  0  0  0  0  0
  -26.0842  -29.2918   20.7366 C   0  0  0  0  0  0
  -27.2424  -28.4182   20.7495 C   0  0  0  0  0  0
  -26.0200  -26.7461   19.5231 C   0  0  0  0  0  0
  -24.8881  -27.5971   19.4938 C   0  0  0  0  0  0
  -23.6876  -29.7684   20.1487 C   0  0  0  0  0  0
  -25.4120  -36.2989   24.0305 C   0  0  1  0  0  0
  -20.5929  -28.3721   23.1252 C   0  0  2  0  0  0
  -20.6819  -26.9426   22.5416 C   0  0  0  0  0  0
  -19.5789  -26.6402   21.5228 C   0  0  0  0  0  0
  -18.1958  -26.7964   22.1621 C   0  0  0  0  0  0
  -19.1573  -28.8898   23.2849 C   0  0  0  0  0  0
  -18.9478  -30.1507   23.8860 C   0  0  0  0  0  0
  -17.6469  -30.6606   24.0571 C   0  0  0  0  0  0
  -25.9083  -34.9379   23.5019 C   0  0  0  0  0  0
  -16.5361  -29.9099   23.6357 C   0  0  0  0  0  0
  -16.7291  -28.6535   23.0350 C   0  0  0  0  0  0
  -26.4554  -31.6528   25.0666 C   0  0  0  0  0  0
  -25.3750  -31.3749   26.1366 C   0  0  0  0  0  0
  -27.0403  -30.2911   24.6267 C   0  0  0  0  0  0
  -27.6095  -32.4281   25.7436 C   0  0  0  0  0  0
  -27.5561  -37.1757   24.8451 C   0  0  0  0  0  0
  -21.4284  -29.3022   22.3599 N   0  0  0  0  0  0
  -26.4258  -37.3724   23.9413 N   0  0  0  0  0  0
  -24.7255  -31.0160   22.0840 N   0  0  0  0  0  0
  -23.4208  -28.8037   23.3012 O   0  0  0  0  0  0
  -28.2904  -26.0849   20.1909 O   0  0  0  0  0  0
  -26.5643  -34.8906   22.4582 O   0  0  0  0  0  0
  -23.5602  -32.1238   23.6988 O   0  0  0  0  0  0
  -30.1294  -20.6654   20.3544 C   0  0  0  0  0  0
  -30.2687  -19.1233   20.3039 C   0  0  0  0  0  0
  -31.4407  -21.2574   20.3591 C   0  0  0  0  0  0
  -32.5259  -19.3160   19.8482 C   0  0  0  0  0  0
  -29.0054  -17.7069   22.1009 C   0  0  0  0  0  0
  -28.7385  -16.2199   21.9199 C   0  0  0  0  0  0
  -29.3391  -17.8104   20.6214 C   0  0  2  0  0  0
  -31.7603  -22.6687   20.8389 C   0  0  0  0  0  0
  -33.8137  -18.6279   19.4430 C   0  0  0  0  0  0
  -28.9073  -23.1682   19.8727 C   0  0  0  0  0  0
  -28.1145  -24.5459   20.5359 C   0  0  0  0  0  0
  -31.4598  -18.5676   20.0106 N   0  0  0  0  0  0
  -32.5776  -20.6086   20.0588 N   0  0  0  0  0  0
  -29.6609  -16.2132   20.7744 N   0  0  0  0  0  0
  -29.0041  -21.6720   20.4571 N   0  0  0  0  0  0
  -31.4799  -12.8743   19.1760 H   0  0  0  0  0  0
  -30.5108  -11.7129   20.0214 H   0  0  0  0  0  0
  -29.8705  -11.7632   17.6020 H   0  0  0  0  0  0
  -29.5931  -13.4837   17.6796 H   0  0  0  0  0  0
  -27.9721  -11.2781   18.9774 H   0  0  0  0  0  0
  -27.3991  -12.4560   17.8231 H   0  0  0  0  0  0
  -27.6131  -14.2530   19.4456 H   0  0  0  0  0  0
  -28.8196  -12.2019   21.3532 H   0  0  0  0  0  0
  -28.3396  -13.7707   21.8491 H   0  0  0  0  0  0
  -25.2773   -9.5654   22.4766 H   0  0  0  0  0  0
  -23.9988   -7.4625   22.7493 H   0  0  0  0  0  0
  -21.0829   -8.8790   19.8970 H   0  0  0  0  0  0
  -22.3729  -10.9663   19.6169 H   0  0  0  0  0  0
  -21.2027   -7.6153   23.9699 H   0  0  0  0  0  0
  -21.1466   -6.0529   25.9063 H   0  0  0  0  0  0
  -22.0606   -2.7609   23.2837 H   0  0  0  0  0  0
  -22.4108  -11.9863   22.4775 H   0  0  0  0  0  0
  -21.1106  -13.1246   22.2648 H   0  0  0  0  0  0
  -24.6135  -15.8200   20.4490 H   0  0  0  0  0  0
  -26.2208  -15.6166   19.9691 H   0  0  0  0  0  0
  -26.7312  -32.5215   23.0950 H   0  0  0  0  0  0
  -25.0138  -33.9550   25.0278 H   0  0  0  0  0  0
  -22.7586  -31.2729   21.3642 H   0  0  0  0  0  0
  -23.3750  -35.9569   23.3255 H   0  0  0  0  0  0
  -24.3599  -36.8924   22.2066 H   0  0  0  0  0  0
  -23.7243  -37.6431   23.6710 H   0  0  0  0  0  0
  -26.1639  -31.4356   20.6008 H   0  0  0  0  0  0
  -26.8847  -30.7522   22.0242 H   0  0  0  0  0  0
  -28.1367  -28.7483   21.2590 H   0  0  0  0  0  0
  -25.9345  -25.7851   19.0384 H   0  0  0  0  0  0
  -23.9925  -27.2542   18.9937 H   0  0  0  0  0  0
  -23.8370  -30.5360   19.3878 H   0  0  0  0  0  0
  -22.8017  -29.2141   19.8331 H   0  0  0  0  0  0
  -25.1330  -36.1781   25.0797 H   0  0  0  0  0  0
  -21.0009  -28.3299   24.1379 H   0  0  0  0  0  0
  -20.5759  -26.2313   23.3613 H   0  0  0  0  0  0
  -21.6682  -26.7459   22.1192 H   0  0  0  0  0  0
  -19.6937  -25.6308   21.1268 H   0  0  0  0  0  0
  -19.6764  -27.3220   20.6768 H   0  0  0  0  0  0
  -17.4250  -26.6724   21.3999 H   0  0  0  0  0  0
  -18.0331  -26.0111   22.9028 H   0  0  0  0  0  0
  -19.7941  -30.7366   24.2176 H   0  0  0  0  0  0
  -17.5011  -31.6273   24.5202 H   0  0  0  0  0  0
  -15.5356  -30.2991   23.7712 H   0  0  0  0  0  0
  -15.8689  -28.0860   22.7047 H   0  0  0  0  0  0
  -24.5948  -30.7051   25.7717 H   0  0  0  0  0  0
  -24.8926  -32.2953   26.4661 H   0  0  0  0  0  0
  -25.8067  -30.9024   27.0196 H   0  0  0  0  0  0
  -26.3003  -29.6623   24.1300 H   0  0  0  0  0  0
  -27.4032  -29.7226   25.4837 H   0  0  0  0  0  0
  -27.8921  -30.4141   23.9577 H   0  0  0  0  0  0
  -27.2712  -33.3637   26.1902 H   0  0  0  0  0  0
  -28.3964  -32.6717   25.0287 H   0  0  0  0  0  0
  -28.0698  -31.8459   26.5430 H   0  0  0  0  0  0
  -28.2549  -38.0081   24.7533 H   0  0  0  0  0  0
  -28.1087  -36.2617   24.6231 H   0  0  0  0  0  0
  -27.2306  -37.1362   25.8860 H   0  0  0  0  0  0
  -20.9474  -29.8691   21.6753 H   0  0  0  0  0  0
  -26.0105  -38.2768   24.1467 H   0  0  0  0  0  0
  -29.8736  -17.8983   22.7341 H   0  0  0  0  0  0
  -28.1503  -18.3022   22.4243 H   0  0  0  0  0  0
  -27.7031  -16.0014   21.6582 H   0  0  0  0  0  0
  -29.0635  -15.6455   22.7892 H   0  0  0  0  0  0
  -28.4198  -17.9520   20.0487 H   0  0  0  0  0  0
  -30.9883  -23.0753   21.4906 H   0  0  0  0  0  0
  -31.9335  -23.3405   19.9990 H   0  0  0  0  0  0
  -32.6751  -22.6712   21.4327 H   0  0  0  0  0  0
  -33.7395  -17.5428   19.5316 H   0  0  0  0  0  0
  -34.6441  -18.9554   20.0679 H   0  0  0  0  0  0
  -34.0597  -18.8630   18.4071 H   0  0  0  0  0  0
  -29.8825  -23.5173   19.5570 H   0  0  0  0  0  0
  -28.4129  -23.0309   18.9097 H   0  0  0  0  0  0
  -28.3467  -24.5153   21.6009 H   0  0  0  0  0  0
  -27.0455  -24.3336   20.5079 H   0  0  0  0  0  0
  -28.0869  -21.2673   20.6427 H   0  0  0  0  0  0
  1 25  1  0  0  0
  1 30  2  0  0  0
  1 84  1  0  0  0
  2  3  1  0  0  0
  2 25  1  0  0  0
  2 86  1  0  0  0
  2 87  1  0  0  0
  3  4  1  0  0  0
  3 88  1  0  0  0
  3 89  1  0  0  0
  4  5  1  0  0  0
  4 90  1  0  0  0
  4 91  1  0  0  0
  5  6  1  0  0  0
  5 26  1  0  0  0
  5 92  1  0  0  0
  6 25  1  0  0  0
  6 93  1  0  0  0
  6 94  1  0  0  0
  7  8  2  0  0  0
  7 26  1  0  0  0
  7 29  1  0  0  0
  8  9  1  0  0  0
  8 22  1  0  0  0
  9 10  1  0  0  0
  9 27  2  0  0  0
 10 11  2  0  0  0
 10 15  1  0  0  0
 11 12  1  0  0  0
 11 95  1  0  0  0
 12 13  2  0  0  0
 12 96  1  0  0  0
 13 14  1  0  0  0
 13 31  1  0  0  0
 14 15  2  0  0  0
 14 97  1  0  0  0
 15 98  1  0  0  0
 16 17  2  0  0  0
 16 21  1  0  0  0
 16 31  1  0  0  0
 17 18  1  0  0  0
 17 99  1  0  0  0
 18 19  2  0  0  0
 18100  1  0  0  0
 19 20  1  0  0  0
 19 24  1  0  0  0
 20 21  2  0  0  0
 20101  1  0  0  0
 21 23  1  0  0  0
 22 28  1  0  0  0
 22 32  2  0  0  0
 26 27  1  0  0  0
 28102  1  0  0  0
 28103  1  0  0  0
 29104  1  0  0  0
 29105  1  0  0  0
 33 34  1  0  0  0
 33 66  1  0  0  0
 33 70  2  0  0  0
 34 36  1  0  0  0
 34 59  1  0  0  0
 34106  1  0  0  0
 35 44  2  0  0  0
 35 45  1  0  0  0
 35 68  1  0  0  0
 36 56  1  0  0  0
 36107  1  0  0  0
 37 39  1  0  0  0
 37 47  1  0  0  0
 37 66  1  0  0  0
 37108  1  0  0  0
 38 43  2  0  0  0
 38 46  1  0  0  0
 38 47  1  0  0  0
 39 64  1  0  0  0
 39 67  2  0  0  0
 40 52  1  0  0  0
 40 53  2  0  0  0
 40 58  1  0  0  0
 41109  1  0  0  0
 41110  1  0  0  0
 41111  1  0  0  0
 41 48  1  0  0  0
 42 43  1  0  0  0
 42 66  1  0  0  0
 42112  1  0  0  0
 42113  1  0  0  0
 43 44  1  0  0  0
 44114  1  0  0  0
 45 46  2  0  0  0
 45115  1  0  0  0
 46116  1  0  0  0
 47117  1  0  0  0
 47118  1  0  0  0
 48 56  1  0  0  0
 48 65  1  0  0  0
 48119  1  0  0  0
 49 50  1  0  0  0
 49 53  1  0  0  0
 49 64  1  0  0  0
 49120  1  0  0  0
 50 51  1  0  0  0
 50121  1  0  0  0
 50122  1  0  0  0
 51 52  1  0  0  0
 51123  1  0  0  0
 51124  1  0  0  0
 52125  1  0  0  0
 52126  1  0  0  0
 53 54  1  0  0  0
 54 55  2  0  0  0
 54127  1  0  0  0
 55 57  1  0  0  0
 55128  1  0  0  0
 56 69  2  0  0  0
 57 58  2  0  0  0
 57129  1  0  0  0
 58130  1  0  0  0
 59 60  1  0  0  0
 59 61  1  0  0  0
 59 62  1  0  0  0
 60131  1  0  0  0
 60132  1  0  0  0
 60133  1  0  0  0
 61134  1  0  0  0
 61135  1  0  0  0
 61136  1  0  0  0
 62137  1  0  0  0
 62138  1  0  0  0
 62139  1  0  0  0
 63 65  1  0  0  0
 63140  1  0  0  0
 63141  1  0  0  0
 63142  1  0  0  0
 64143  1  0  0  0
 65144  1  0  0  0
 68 81  1  0  0  0
 71 72  1  0  0  0
 71 73  2  0  0  0
 71 85  1  0  0  0
 72 82  2  0  0  0
 72 77  1  0  0  0
 73 78  1  0  0  0
 73 83  1  0  0  0
 74 79  1  0  0  0
 74 82  1  0  0  0
 74 83  2  0  0  0
 75 76  1  0  0  0
 75 77  1  0  0  0
 75145  1  0  0  0
 75146  1  0  0  0
 76 84  1  0  0  0
 76147  1  0  0  0
 76148  1  0  0  0
 77 84  1  0  0  0
 77149  1  0  0  0
 78150  1  0  0  0
 78151  1  0  0  0
 78152  1  0  0  0
 79153  1  0  0  0
 79154  1  0  0  0
 79155  1  0  0  0
 80 81  1  0  0  0
 80 85  1  0  0  0
 80156  1  0  0  0
 80157  1  0  0  0
 81158  1  0  0  0
 81159  1  0  0  0
 85160  1  0  0  0
M  ISO  4   1 100  68 101  81 101  84 100
M  END
> <chiral flag>
0

> <version>
0

> <s_m_source_file>
/data/baiqing/PycharmProjects/Reinvent-master-3.2/result/LINK_invent/BTK/process_docking_weight1_custom_sum_contain_oxygen_bond_distance_aromatic_linkinvent_7_9_3/rearranged_h_0184.sdf

> <i_m_source_file_index>
20

> <r_mmod_Potential_Energy-OPLS-2005>
560.679565429688

> <r_mmod_Stretch_Energy-OPLS-2005>
379.755187988281

> <r_mmod_Bend_Energy-OPLS-2005>
437.765350341797

> <r_mmod_Torsional_Energy-OPLS-2005>
279.150360107422

> <r_mmod_Improper_Torsional_Energy-OPLS-2005>
7.83383941650391

> <r_mmod_Van_der_Waal_Energy-OPLS-2005>
145.752853393555

> <r_mmod_Electrostatic_Energy-OPLS-2005>
-689.921875

> <r_mmod_Solvation_Energy-OPLS-2005>
-250.531097412109

> <b_mmod_Minimization_Converged-OPLS-2005>
0

> <r_mmod_RMS_Derivative-OPLS-2005>
3.16775226593018

$$$$
20
                    3D
 Structure written by MMmdl.
159168  0  0  1  0            999 V2000
  -30.6640  -14.6719   20.4755 C   0  0  0  0  0  0
  -30.4258  -12.4098   19.4663 C   0  0  0  0  0  0
  -29.5065  -12.4980   18.2298 C   0  0  0  0  0  0
  -28.0307  -12.3396   18.6437 C   0  0  0  0  0  0
  -27.6475  -13.2288   19.8579 C   0  0  2  0  0  0
  -28.6947  -13.1369   20.9898 C   0  0  0  0  0  0
  -25.2553  -13.8194   20.5713 C   0  0  0  0  0  0
  -24.1826  -13.0449   20.9203 C   0  0  0  0  0  0
  -24.6403  -11.6923   20.8749 C   0  0  0  0  0  0
  -23.9073  -10.4299   21.0406 C   0  0  0  0  0  0
  -24.3622   -9.4215   21.9186 C   0  0  0  0  0  0
  -23.6303   -8.2248   22.0753 C   0  0  0  0  0  0
  -22.4287   -8.0282   21.3537 C   0  0  0  0  0  0
  -21.9919   -9.0258   20.4644 C   0  0  0  0  0  0
  -22.7242  -10.2140   20.3052 C   0  0  0  0  0  0
  -21.6851   -6.0743   22.5280 C   0  0  0  0  0  0
  -21.4008   -6.5644   23.8214 C   0  0  0  0  0  0
  -21.3664   -5.6796   24.9179 C   0  0  0  0  0  0
  -21.6048   -4.3061   24.7220 C   0  0  0  0  0  0
  -21.8820   -3.8150   23.4342 C   0  0  0  0  0  0
  -21.9191   -4.6968   22.3401 C   0  0  0  0  0  0
  -22.7849  -13.5243   21.1845 C   0  0  0  0  0  0
  -22.1663   -4.2156   21.0977 F   0  0  0  0  0  0
  -21.5633   -3.4543   25.7733 F   0  0  0  0  0  0
  -29.9993  -13.4706   20.4056 N   0  0  0  0  0  0
  -26.2980  -12.9395   20.3340 N   0  0  0  0  0  0
  -25.9340  -11.6539   20.5785 N   0  0  0  0  0  0
  -22.0474  -12.8246   22.0394 N   0  0  0  0  0  0
  -25.4282  -15.1910   20.4122 N   0  0  0  0  0  0
  -31.8510  -14.7303   20.1398 O   0  0  0  0  0  0
  -21.6645   -6.8881   21.4242 O   0  0  0  0  0  0
  -22.3549  -14.5554   20.6693 O   0  0  0  0  0  0
  -24.6298  -31.8586   23.2045 C   0  0  0  0  0  0
  -25.9139  -32.4771   23.8368 C   0  0  1  0  0  0
  -27.2088  -27.2889   20.1093 C   0  0  0  0  0  0
  -25.5948  -33.8576   24.2286 N   0  0  0  0  0  0
  -23.4233  -30.4859   21.5492 C   0  0  2  0  0  0
  -24.8664  -28.9470   20.1092 C   0  0  0  0  0  0
  -22.7498  -29.4614   22.4945 C   0  0  0  0  0  0
  -18.0288  -28.1385   22.8485 C   0  0  0  0  0  0
  -24.1489  -36.7284   23.2635 C   0  0  0  0  0  0
  -25.9697  -30.7785   21.3832 C   0  0  0  0  0  0
  -26.0400  -29.4063   20.7204 C   0  0  0  0  0  0
  -27.2136  -28.5873   20.7165 C   0  0  0  0  0  0
  -26.0128  -26.9110   19.4490 C   0  0  0  0  0  0
  -24.8560  -27.7048   19.4661 C   0  0  0  0  0  0
  -23.6380  -29.8300   20.1625 C   0  0  0  0  0  0
  -25.4114  -36.3078   24.0328 C   0  0  1  0  0  0
  -20.5893  -28.3688   23.1278 C   0  0  2  0  0  0
  -20.6779  -26.9410   22.5407 C   0  0  0  0  0  0
  -19.5753  -26.6380   21.5212 C   0  0  0  0  0  0
  -18.1931  -26.7929   22.1619 C   0  0  0  0  0  0
  -19.1541  -28.8853   23.2875 C   0  0  0  0  0  0
  -18.9463  -30.1458   23.8888 C   0  0  0  0  0  0
  -17.6462  -30.6588   24.0555 C   0  0  0  0  0  0
  -25.9056  -34.9446   23.5103 C   0  0  0  0  0  0
  -16.5352  -29.9080   23.6335 C   0  0  0  0  0  0
  -16.7274  -28.6497   23.0354 C   0  0  0  0  0  0
  -26.4512  -31.6586   25.0744 C   0  0  0  0  0  0
  -25.3748  -31.3723   26.1472 C   0  0  0  0  0  0
  -27.0359  -30.3008   24.6212 C   0  0  0  0  0  0
  -27.6072  -32.4322   25.7519 C   0  0  0  0  0  0
  -27.5585  -37.1791   24.8458 C   0  0  0  0  0  0
  -21.4209  -29.3040   22.3684 N   0  0  0  0  0  0
  -26.4285  -37.3780   23.9420 N   0  0  0  0  0  0
  -24.6933  -31.0574   22.1020 N   0  0  0  0  0  0
  -23.4212  -28.8138   23.3017 O   0  0  0  0  0  0
  -28.2883  -26.3788   20.1910 O   0  0  0  0  0  0
  -26.5613  -34.8913   22.4662 O   0  0  0  0  0  0
  -23.5454  -32.1399   23.7352 O   0  0  0  0  0  0
  -28.7012  -22.3230   20.1216 C   0  0  0  0  0  0
  -28.8754  -23.7490   20.3672 C   0  0  0  0  0  0
  -29.6935  -21.6557   20.8166 C   0  0  0  0  0  0
  -29.5474  -17.9708   21.8590 C   0  0  0  0  0  0
  -30.3935  -18.2543   19.5823 C   0  0  0  0  0  0
  -29.1772  -16.4652   21.5528 C   0  0  0  0  0  0
  -29.9726  -16.7736   19.2708 C   0  0  0  0  0  0
  -29.5449  -18.9795   20.6616 C   0  0  0  0  0  0
  -31.5655  -22.5811   22.2938 C   0  0  0  0  0  0
  -27.9795  -24.9448   19.8927 C   0  0  0  0  0  0
  -29.9267  -23.9326   21.1519 N   0  0  0  0  0  0
  -30.4111  -22.6867   21.4204 N   0  0  0  0  0  0
  -29.9131  -15.8384   20.4284 N   0  0  0  0  0  0
  -30.1292  -20.3037   21.0543 N   0  0  0  0  0  0
  -31.4701  -12.5084   19.1639 H   0  0  0  0  0  0
  -30.3460  -11.4297   19.9391 H   0  0  0  0  0  0
  -29.7760  -11.7308   17.5023 H   0  0  0  0  0  0
  -29.6485  -13.4571   17.7289 H   0  0  0  0  0  0
  -27.8739  -11.2893   18.8939 H   0  0  0  0  0  0
  -27.3760  -12.5512   17.7980 H   0  0  0  0  0  0
  -27.6503  -14.2564   19.4941 H   0  0  0  0  0  0
  -28.7179  -12.1349   21.4192 H   0  0  0  0  0  0
  -28.4411  -13.8111   21.8073 H   0  0  0  0  0  0
  -25.2755   -9.5708   22.4780 H   0  0  0  0  0  0
  -24.0011   -7.4642   22.7479 H   0  0  0  0  0  0
  -21.0844   -8.8777   19.8954 H   0  0  0  0  0  0
  -22.3690  -10.9688   19.6172 H   0  0  0  0  0  0
  -21.1996   -7.6149   23.9724 H   0  0  0  0  0  0
  -21.1490   -6.0522   25.9087 H   0  0  0  0  0  0
  -22.0594   -2.7610   23.2835 H   0  0  0  0  0  0
  -22.4071  -11.9904   22.4794 H   0  0  0  0  0  0
  -21.1099  -13.1297   22.2575 H   0  0  0  0  0  0
  -24.6671  -15.8515   20.5237 H   0  0  0  0  0  0
  -26.2880  -15.6245   20.1011 H   0  0  0  0  0  0
  -26.7203  -32.5428   23.1108 H   0  0  0  0  0  0
  -25.0115  -33.9718   25.0446 H   0  0  0  0  0  0
  -22.7182  -31.3079   21.4102 H   0  0  0  0  0  0
  -23.3763  -35.9603   23.3272 H   0  0  0  0  0  0
  -24.3595  -36.8928   22.2056 H   0  0  0  0  0  0
  -23.7221  -37.6470   23.6673 H   0  0  0  0  0  0
  -26.1072  -31.5421   20.6161 H   0  0  0  0  0  0
  -26.8489  -30.8239   22.0148 H   0  0  0  0  0  0
  -28.1079  -28.9281   21.2198 H   0  0  0  0  0  0
  -25.9182  -25.9757   18.9193 H   0  0  0  0  0  0
  -23.9588  -27.3494   18.9773 H   0  0  0  0  0  0
  -23.7624  -30.6102   19.4108 H   0  0  0  0  0  0
  -22.7559  -29.2644   19.8556 H   0  0  0  0  0  0
  -25.1290  -36.1923   25.0819 H   0  0  0  0  0  0
  -20.9971  -28.3250   24.1404 H   0  0  0  0  0  0
  -20.5682  -26.2293   23.3607 H   0  0  0  0  0  0
  -21.6645  -26.7444   22.1191 H   0  0  0  0  0  0
  -19.6911  -25.6289   21.1243 H   0  0  0  0  0  0
  -19.6690  -27.3187   20.6738 H   0  0  0  0  0  0
  -17.4205  -26.6679   21.4016 H   0  0  0  0  0  0
  -18.0324  -26.0072   22.9012 H   0  0  0  0  0  0
  -19.7940  -30.7277   24.2246 H   0  0  0  0  0  0
  -17.5017  -31.6270   24.5152 H   0  0  0  0  0  0
  -15.5351  -30.2973   23.7675 H   0  0  0  0  0  0
  -15.8676  -28.0814   22.7075 H   0  0  0  0  0  0
  -24.5919  -30.7077   25.7798 H   0  0  0  0  0  0
  -24.8947  -32.2886   26.4913 H   0  0  0  0  0  0
  -25.8074  -30.8888   27.0240 H   0  0  0  0  0  0
  -26.2938  -29.6756   24.1231 H   0  0  0  0  0  0
  -27.4044  -29.7266   25.4722 H   0  0  0  0  0  0
  -27.8817  -30.4287   23.9455 H   0  0  0  0  0  0
  -27.2685  -33.3625   26.2091 H   0  0  0  0  0  0
  -28.3892  -32.6874   25.0357 H   0  0  0  0  0  0
  -28.0732  -31.8450   26.5442 H   0  0  0  0  0  0
  -28.2569  -38.0121   24.7557 H   0  0  0  0  0  0
  -28.1114  -36.2656   24.6218 H   0  0  0  0  0  0
  -27.2314  -37.1352   25.8861 H   0  0  0  0  0  0
  -20.9396  -29.8786   21.6914 H   0  0  0  0  0  0
  -26.0159  -38.2846   24.1458 H   0  0  0  0  0  0
  -27.9292  -21.8618   19.5230 H   0  0  0  0  0  0
  -30.5397  -17.9729   22.3117 H   0  0  0  0  0  0
  -28.8768  -18.3403   22.6361 H   0  0  0  0  0  0
  -30.3623  -18.8322   18.6576 H   0  0  0  0  0  0
  -31.4403  -18.2474   19.8902 H   0  0  0  0  0  0
  -28.1118  -16.3958   21.3310 H   0  0  0  0  0  0
  -29.3329  -15.8780   22.4590 H   0  0  0  0  0  0
  -30.6357  -16.3755   18.4999 H   0  0  0  0  0  0
  -28.9820  -16.7800   18.8141 H   0  0  0  0  0  0
  -28.5242  -19.1208   20.2998 H   0  0  0  0  0  0
  -32.3850  -22.0936   21.7658 H   0  0  0  0  0  0
  -31.3052  -21.9917   23.1736 H   0  0  0  0  0  0
  -31.8963  -23.5682   22.6194 H   0  0  0  0  0  0
  -26.9989  -24.7207   20.3135 H   0  0  0  0  0  0
  -27.8689  -24.8624   18.8109 H   0  0  0  0  0  0
  -30.9478  -20.2378   21.6497 H   0  0  0  0  0  0
  1 25  1  0  0  0
  1 30  2  0  0  0
  1 83  1  0  0  0
  2  3  1  0  0  0
  2 25  1  0  0  0
  2 85  1  0  0  0
  2 86  1  0  0  0
  3  4  1  0  0  0
  3 87  1  0  0  0
  3 88  1  0  0  0
  4  5  1  0  0  0
  4 89  1  0  0  0
  4 90  1  0  0  0
  5  6  1  0  0  0
  5 26  1  0  0  0
  5 91  1  0  0  0
  6 25  1  0  0  0
  6 92  1  0  0  0
  6 93  1  0  0  0
  7  8  2  0  0  0
  7 26  1  0  0  0
  7 29  1  0  0  0
  8  9  1  0  0  0
  8 22  1  0  0  0
  9 10  1  0  0  0
  9 27  2  0  0  0
 10 11  2  0  0  0
 10 15  1  0  0  0
 11 12  1  0  0  0
 11 94  1  0  0  0
 12 13  2  0  0  0
 12 95  1  0  0  0
 13 14  1  0  0  0
 13 31  1  0  0  0
 14 15  2  0  0  0
 14 96  1  0  0  0
 15 97  1  0  0  0
 16 17  2  0  0  0
 16 21  1  0  0  0
 16 31  1  0  0  0
 17 18  1  0  0  0
 17 98  1  0  0  0
 18 19  2  0  0  0
 18 99  1  0  0  0
 19 20  1  0  0  0
 19 24  1  0  0  0
 20 21  2  0  0  0
 20100  1  0  0  0
 21 23  1  0  0  0
 22 28  1  0  0  0
 22 32  2  0  0  0
 26 27  1  0  0  0
 28101  1  0  0  0
 28102  1  0  0  0
 29103  1  0  0  0
 29104  1  0  0  0
 33 34  1  0  0  0
 33 66  1  0  0  0
 33 70  2  0  0  0
 34 36  1  0  0  0
 34 59  1  0  0  0
 34105  1  0  0  0
 35 44  2  0  0  0
 35 45  1  0  0  0
 35 68  1  0  0  0
 36 56  1  0  0  0
 36106  1  0  0  0
 37 39  1  0  0  0
 37 47  1  0  0  0
 37 66  1  0  0  0
 37107  1  0  0  0
 38 43  2  0  0  0
 38 46  1  0  0  0
 38 47  1  0  0  0
 39 64  1  0  0  0
 39 67  2  0  0  0
 40 52  1  0  0  0
 40 53  2  0  0  0
 40 58  1  0  0  0
 41108  1  0  0  0
 41109  1  0  0  0
 41110  1  0  0  0
 41 48  1  0  0  0
 42 43  1  0  0  0
 42 66  1  0  0  0
 42111  1  0  0  0
 42112  1  0  0  0
 43 44  1  0  0  0
 44113  1  0  0  0
 45 46  2  0  0  0
 45114  1  0  0  0
 46115  1  0  0  0
 47116  1  0  0  0
 47117  1  0  0  0
 48 56  1  0  0  0
 48 65  1  0  0  0
 48118  1  0  0  0
 49 50  1  0  0  0
 49 53  1  0  0  0
 49 64  1  0  0  0
 49119  1  0  0  0
 50 51  1  0  0  0
 50120  1  0  0  0
 50121  1  0  0  0
 51 52  1  0  0  0
 51122  1  0  0  0
 51123  1  0  0  0
 52124  1  0  0  0
 52125  1  0  0  0
 53 54  1  0  0  0
 54 55  2  0  0  0
 54126  1  0  0  0
 55 57  1  0  0  0
 55127  1  0  0  0
 56 69  2  0  0  0
 57 58  2  0  0  0
 57128  1  0  0  0
 58129  1  0  0  0
 59 60  1  0  0  0
 59 61  1  0  0  0
 59 62  1  0  0  0
 60130  1  0  0  0
 60131  1  0  0  0
 60132  1  0  0  0
 61133  1  0  0  0
 61134  1  0  0  0
 61135  1  0  0  0
 62136  1  0  0  0
 62137  1  0  0  0
 62138  1  0  0  0
 63 65  1  0  0  0
 63139  1  0  0  0
 63140  1  0  0  0
 63141  1  0  0  0
 64142  1  0  0  0
 65143  1  0  0  0
 68 80  1  0  0  0
 71 72  1  0  0  0
 71 73  2  0  0  0
 71144  1  0  0  0
 72 80  1  0  0  0
 72 81  2  0  0  0
 73 82  1  0  0  0
 73 84  1  0  0  0
 74 76  1  0  0  0
 74 78  1  0  0  0
 74145  1  0  0  0
 74146  1  0  0  0
 75 77  1  0  0  0
 75 78  1  0  0  0
 75147  1  0  0  0
 75148  1  0  0  0
 76 83  1  0  0  0
 76149  1  0  0  0
 76150  1  0  0  0
 77 83  1  0  0  0
 77151  1  0  0  0
 77152  1  0  0  0
 78 84  1  0  0  0
 78153  1  0  0  0
 79 82  1  0  0  0
 79154  1  0  0  0
 79155  1  0  0  0
 79156  1  0  0  0
 80157  1  0  0  0
 80158  1  0  0  0
 81 82  1  0  0  0
 84159  1  0  0  0
M  ISO  4   1 100  68 101  80 101  83 100
M  END
> <chiral flag>
0

> <version>
0

> <s_m_source_file>
/data/baiqing/PycharmProjects/Reinvent-master-3.2/result/LINK_invent/BTK/process_docking_weight1_custom_sum_contain_oxygen_bond_distance_aromatic_linkinvent_7_9_3/rearranged_h_0184.sdf

> <i_m_source_file_index>
21

> <r_mmod_Potential_Energy-OPLS-2005>
248.55158996582

> <r_mmod_Stretch_Energy-OPLS-2005>
87.1454238891602

> <r_mmod_Bend_Energy-OPLS-2005>
173.282455444336

> <r_mmod_Torsional_Energy-OPLS-2005>
322.460571289062

> <r_mmod_Improper_Torsional_Energy-OPLS-2005>
16.0728168487549

> <r_mmod_Van_der_Waal_Energy-OPLS-2005>
127.183227539062

> <r_mmod_Electrostatic_Energy-OPLS-2005>
-322.0341796875

> <r_mmod_Solvation_Energy-OPLS-2005>
-222.60563659668

> <b_mmod_Minimization_Converged-OPLS-2005>
0

> <r_mmod_RMS_Derivative-OPLS-2005>
1.16602694988251

$$$$
21
                    3D
 Structure written by MMmdl.
157166  0  0  1  0            999 V2000
  -30.5819  -14.7958   20.4448 C   0  0  0  0  0  0
  -30.4535  -12.4749   19.5123 C   0  0  0  0  0  0
  -29.5414  -12.4882   18.2636 C   0  0  0  0  0  0
  -28.0670  -12.2999   18.6674 C   0  0  0  0  0  0
  -27.6505  -13.2230   19.8456 C   0  0  2  0  0  0
  -28.6860  -13.1814   20.9939 C   0  0  0  0  0  0
  -25.2611  -13.8137   20.5755 C   0  0  0  0  0  0
  -24.1828  -13.0432   20.9172 C   0  0  0  0  0  0
  -24.6391  -11.6896   20.8720 C   0  0  0  0  0  0
  -23.9060  -10.4289   21.0411 C   0  0  0  0  0  0
  -24.3636   -9.4193   21.9172 C   0  0  0  0  0  0
  -23.6293   -8.2237   22.0763 C   0  0  0  0  0  0
  -22.4251   -8.0288   21.3556 C   0  0  0  0  0  0
  -21.9882   -9.0250   20.4648 C   0  0  0  0  0  0
  -22.7233  -10.2114   20.3043 C   0  0  0  0  0  0
  -21.6837   -6.0721   22.5263 C   0  0  0  0  0  0
  -21.4000   -6.5622   23.8200 C   0  0  0  0  0  0
  -21.3676   -5.6778   24.9172 C   0  0  0  0  0  0
  -21.6044   -4.3034   24.7222 C   0  0  0  0  0  0
  -21.8834   -3.8125   23.4340 C   0  0  0  0  0  0
  -21.9180   -4.6952   22.3404 C   0  0  0  0  0  0
  -22.7854  -13.5272   21.1837 C   0  0  0  0  0  0
  -22.1678   -4.2148   21.0983 F   0  0  0  0  0  0
  -21.5626   -3.4521   25.7731 F   0  0  0  0  0  0
  -29.9964  -13.5429   20.4346 N   0  0  0  0  0  0
  -26.2983  -12.9322   20.3187 N   0  0  0  0  0  0
  -25.9312  -11.6476   20.5637 N   0  0  0  0  0  0
  -22.0497  -12.8265   22.0394 N   0  0  0  0  0  0
  -25.4469  -15.1872   20.4488 N   0  0  0  0  0  0
  -31.7355  -14.9228   20.0233 O   0  0  0  0  0  0
  -21.6640   -6.8869   21.4233 O   0  0  0  0  0  0
  -22.3569  -14.5604   20.6728 O   0  0  0  0  0  0
  -24.6306  -31.8561   23.1978 C   0  0  0  0  0  0
  -25.9115  -32.4765   23.8338 C   0  0  1  0  0  0
  -27.2030  -27.2333   20.1193 C   0  0  0  0  0  0
  -25.5924  -33.8566   24.2268 N   0  0  0  0  0  0
  -23.4282  -30.4808   21.5395 C   0  0  2  0  0  0
  -24.8736  -28.9289   20.1062 C   0  0  0  0  0  0
  -22.7517  -29.4602   22.4871 C   0  0  0  0  0  0
  -18.0298  -28.1397   22.8474 C   0  0  0  0  0  0
  -24.1491  -36.7288   23.2633 C   0  0  0  0  0  0
  -25.9778  -30.7574   21.3838 C   0  0  0  0  0  0
  -26.0483  -29.3771   20.7245 C   0  0  0  0  0  0
  -27.2144  -28.5413   20.7215 C   0  0  0  0  0  0
  -26.0013  -26.8664   19.4676 C   0  0  0  0  0  0
  -24.8576  -27.6845   19.4655 C   0  0  0  0  0  0
  -23.6498  -29.8220   20.1535 C   0  0  0  0  0  0
  -25.4106  -36.3067   24.0327 C   0  0  1  0  0  0
  -20.5907  -28.3708   23.1261 C   0  0  2  0  0  0
  -20.6777  -26.9418   22.5416 C   0  0  0  0  0  0
  -19.5753  -26.6383   21.5207 C   0  0  0  0  0  0
  -18.1938  -26.7940   22.1620 C   0  0  0  0  0  0
  -19.1560  -28.8860   23.2865 C   0  0  0  0  0  0
  -18.9478  -30.1454   23.8899 C   0  0  0  0  0  0
  -17.6479  -30.6587   24.0567 C   0  0  0  0  0  0
  -25.9056  -34.9446   23.5091 C   0  0  0  0  0  0
  -16.5367  -29.9096   23.6323 C   0  0  0  0  0  0
  -16.7286  -28.6517   23.0331 C   0  0  0  0  0  0
  -26.4511  -31.6590   25.0720 C   0  0  0  0  0  0
  -25.3750  -31.3764   26.1462 C   0  0  0  0  0  0
  -27.0348  -30.3003   24.6206 C   0  0  0  0  0  0
  -27.6105  -32.4324   25.7451 C   0  0  0  0  0  0
  -27.5596  -37.1759   24.8445 C   0  0  0  0  0  0
  -21.4225  -29.3048   22.3641 N   0  0  0  0  0  0
  -26.4274  -37.3775   23.9439 N   0  0  0  0  0  0
  -24.6982  -31.0497   22.0980 N   0  0  0  0  0  0
  -23.4211  -28.8111   23.2948 O   0  0  0  0  0  0
  -28.2821  -26.3098   20.1697 O   0  0  0  0  0  0
  -26.5650  -34.8922   22.4679 O   0  0  0  0  0  0
  -23.5447  -32.1405   23.7258 O   0  0  0  0  0  0
  -30.9363  -21.2306   20.6114 C   0  0  0  0  0  0
  -31.7523  -20.0898   20.7205 C   0  0  0  0  0  0
  -29.5769  -21.0454   20.3545 C   0  0  0  0  0  0
  -29.9663  -18.6709   20.3990 C   0  0  0  0  0  0
  -34.0181  -19.8035   22.0244 C   0  0  0  0  0  0
  -33.9407  -21.2564   21.6124 C   0  0  0  0  0  0
  -33.2454  -20.1957   20.7870 C   0  0  0  0  0  0
  -29.5567  -17.1932   19.9542 C   0  0  0  0  0  0
  -29.1162  -23.6605   20.2370 C   0  0  0  0  0  0
  -28.0026  -24.8290   19.9973 C   0  0  0  0  0  0
  -31.2613  -18.8344   20.6458 N   0  0  0  0  0  0
  -29.1168  -19.7454   20.2402 N   0  0  0  0  0  0
  -28.7114  -22.1898   20.1482 N   0  0  0  0  0  0
  -29.7878  -15.8899   20.7362 N   0  0  0  0  0  0
  -31.4971  -12.5985   19.2207 H   0  0  0  0  0  0
  -30.4062  -11.5089   20.0148 H   0  0  0  0  0  0
  -29.8431  -11.7010   17.5721 H   0  0  0  0  0  0
  -29.6592  -13.4309   17.7259 H   0  0  0  0  0  0
  -27.9380  -11.2563   18.9535 H   0  0  0  0  0  0
  -27.4224  -12.4573   17.8004 H   0  0  0  0  0  0
  -27.6354  -14.2369   19.4436 H   0  0  0  0  0  0
  -28.7282  -12.1866   21.4380 H   0  0  0  0  0  0
  -28.3991  -13.8659   21.7947 H   0  0  0  0  0  0
  -25.2806   -9.5636   22.4706 H   0  0  0  0  0  0
  -23.9974   -7.4636   22.7501 H   0  0  0  0  0  0
  -21.0787   -8.8758   19.9003 H   0  0  0  0  0  0
  -22.3680  -10.9645   19.6141 H   0  0  0  0  0  0
  -21.1980   -7.6123   23.9681 H   0  0  0  0  0  0
  -21.1524   -6.0537   25.9081 H   0  0  0  0  0  0
  -22.0617   -2.7590   23.2845 H   0  0  0  0  0  0
  -22.4152  -11.9904   22.4699 H   0  0  0  0  0  0
  -21.1173  -13.1324   22.2716 H   0  0  0  0  0  0
  -24.7164  -15.8639   20.6505 H   0  0  0  0  0  0
  -26.3311  -15.6171   20.2195 H   0  0  0  0  0  0
  -26.7161  -32.5425   23.1065 H   0  0  0  0  0  0
  -25.0029  -33.9707   25.0385 H   0  0  0  0  0  0
  -22.7218  -31.3016   21.3948 H   0  0  0  0  0  0
  -23.3774  -35.9591   23.3227 H   0  0  0  0  0  0
  -24.3597  -36.8996   22.2064 H   0  0  0  0  0  0
  -23.7205  -37.6445   23.6723 H   0  0  0  0  0  0
  -26.1155  -31.5157   20.6132 H   0  0  0  0  0  0
  -26.8565  -30.8124   22.0155 H   0  0  0  0  0  0
  -28.1112  -28.8747   21.2274 H   0  0  0  0  0  0
  -25.9048  -25.9229   18.9548 H   0  0  0  0  0  0
  -23.9576  -27.3446   18.9705 H   0  0  0  0  0  0
  -23.7829  -30.6022   19.4031 H   0  0  0  0  0  0
  -22.7662  -29.2629   19.8432 H   0  0  0  0  0  0
  -25.1272  -36.1907   25.0812 H   0  0  0  0  0  0
  -20.9990  -28.3293   24.1381 H   0  0  0  0  0  0
  -20.5630  -26.2333   23.3621 H   0  0  0  0  0  0
  -21.6654  -26.7406   22.1241 H   0  0  0  0  0  0
  -19.6917  -25.6285   21.1244 H   0  0  0  0  0  0
  -19.6689  -27.3183   20.6723 H   0  0  0  0  0  0
  -17.4202  -26.6675   21.4032 H   0  0  0  0  0  0
  -18.0347  -26.0086   22.9018 H   0  0  0  0  0  0
  -19.7950  -30.7272   24.2280 H   0  0  0  0  0  0
  -17.5028  -31.6262   24.5178 H   0  0  0  0  0  0
  -15.5370  -30.2993   23.7626 H   0  0  0  0  0  0
  -15.8694  -28.0829   22.7025 H   0  0  0  0  0  0
  -24.5790  -30.7294   25.7769 H   0  0  0  0  0  0
  -24.9111  -32.2961   26.5036 H   0  0  0  0  0  0
  -25.8033  -30.8762   27.0153 H   0  0  0  0  0  0
  -26.2917  -29.6727   24.1271 H   0  0  0  0  0  0
  -27.4084  -29.7296   25.4720 H   0  0  0  0  0  0
  -27.8792  -30.4289   23.9427 H   0  0  0  0  0  0
  -27.2739  -33.3589   26.2112 H   0  0  0  0  0  0
  -28.3842  -32.6936   25.0224 H   0  0  0  0  0  0
  -28.0865  -31.8403   26.5274 H   0  0  0  0  0  0
  -28.2554  -38.0122   24.7596 H   0  0  0  0  0  0
  -28.1157  -36.2662   24.6117 H   0  0  0  0  0  0
  -27.2353  -37.1227   25.8856 H   0  0  0  0  0  0
  -20.9395  -29.8798   21.6889 H   0  0  0  0  0  0
  -26.0153  -38.2835   24.1516 H   0  0  0  0  0  0
  -31.3760  -22.2178   20.6650 H   0  0  0  0  0  0
  -33.4495  -19.4916   22.8992 H   0  0  0  0  0  0
  -34.9645  -19.2927   21.8714 H   0  0  0  0  0  0
  -34.8418  -21.6999   21.1886 H   0  0  0  0  0  0
  -33.3278  -21.9180   22.2196 H   0  0  0  0  0  0
  -33.6868  -19.9637   19.8179 H   0  0  0  0  0  0
  -29.9840  -17.0543   18.9609 H   0  0  0  0  0  0
  -28.4811  -17.2215   19.7803 H   0  0  0  0  0  0
  -29.5671  -23.8073   21.2189 H   0  0  0  0  0  0
  -29.9202  -23.8108   19.5155 H   0  0  0  0  0  0
  -27.1589  -24.5971   20.6484 H   0  0  0  0  0  0
  -27.6465  -24.6864   18.9756 H   0  0  0  0  0  0
  -27.7833  -21.9884   19.7921 H   0  0  0  0  0  0
  -28.9699  -15.6374   21.2676 H   0  0  0  0  0  0
  1 25  1  0  0  0
  1 30  2  0  0  0
  1 84  1  0  0  0
  2  3  1  0  0  0
  2 25  1  0  0  0
  2 85  1  0  0  0
  2 86  1  0  0  0
  3  4  1  0  0  0
  3 87  1  0  0  0
  3 88  1  0  0  0
  4  5  1  0  0  0
  4 89  1  0  0  0
  4 90  1  0  0  0
  5  6  1  0  0  0
  5 26  1  0  0  0
  5 91  1  0  0  0
  6 25  1  0  0  0
  6 92  1  0  0  0
  6 93  1  0  0  0
  7  8  2  0  0  0
  7 26  1  0  0  0
  7 29  1  0  0  0
  8  9  1  0  0  0
  8 22  1  0  0  0
  9 10  1  0  0  0
  9 27  2  0  0  0
 10 11  2  0  0  0
 10 15  1  0  0  0
 11 12  1  0  0  0
 11 94  1  0  0  0
 12 13  2  0  0  0
 12 95  1  0  0  0
 13 14  1  0  0  0
 13 31  1  0  0  0
 14 15  2  0  0  0
 14 96  1  0  0  0
 15 97  1  0  0  0
 16 17  2  0  0  0
 16 21  1  0  0  0
 16 31  1  0  0  0
 17 18  1  0  0  0
 17 98  1  0  0  0
 18 19  2  0  0  0
 18 99  1  0  0  0
 19 20  1  0  0  0
 19 24  1  0  0  0
 20 21  2  0  0  0
 20100  1  0  0  0
 21 23  1  0  0  0
 22 28  1  0  0  0
 22 32  2  0  0  0
 26 27  1  0  0  0
 28101  1  0  0  0
 28102  1  0  0  0
 29103  1  0  0  0
 29104  1  0  0  0
 33 34  1  0  0  0
 33 66  1  0  0  0
 33 70  2  0  0  0
 34 36  1  0  0  0
 34 59  1  0  0  0
 34105  1  0  0  0
 35 44  2  0  0  0
 35 45  1  0  0  0
 35 68  1  0  0  0
 36 56  1  0  0  0
 36106  1  0  0  0
 37 39  1  0  0  0
 37 47  1  0  0  0
 37 66  1  0  0  0
 37107  1  0  0  0
 38 43  2  0  0  0
 38 46  1  0  0  0
 38 47  1  0  0  0
 39 64  1  0  0  0
 39 67  2  0  0  0
 40 52  1  0  0  0
 40 53  2  0  0  0
 40 58  1  0  0  0
 41108  1  0  0  0
 41109  1  0  0  0
 41110  1  0  0  0
 41 48  1  0  0  0
 42 43  1  0  0  0
 42 66  1  0  0  0
 42111  1  0  0  0
 42112  1  0  0  0
 43 44  1  0  0  0
 44113  1  0  0  0
 45 46  2  0  0  0
 45114  1  0  0  0
 46115  1  0  0  0
 47116  1  0  0  0
 47117  1  0  0  0
 48 56  1  0  0  0
 48 65  1  0  0  0
 48118  1  0  0  0
 49 50  1  0  0  0
 49 53  1  0  0  0
 49 64  1  0  0  0
 49119  1  0  0  0
 50 51  1  0  0  0
 50120  1  0  0  0
 50121  1  0  0  0
 51 52  1  0  0  0
 51122  1  0  0  0
 51123  1  0  0  0
 52124  1  0  0  0
 52125  1  0  0  0
 53 54  1  0  0  0
 54 55  2  0  0  0
 54126  1  0  0  0
 55 57  1  0  0  0
 55127  1  0  0  0
 56 69  2  0  0  0
 57 58  2  0  0  0
 57128  1  0  0  0
 58129  1  0  0  0
 59 60  1  0  0  0
 59 61  1  0  0  0
 59 62  1  0  0  0
 60130  1  0  0  0
 60131  1  0  0  0
 60132  1  0  0  0
 61133  1  0  0  0
 61134  1  0  0  0
 61135  1  0  0  0
 62136  1  0  0  0
 62137  1  0  0  0
 62138  1  0  0  0
 63 65  1  0  0  0
 63139  1  0  0  0
 63140  1  0  0  0
 63141  1  0  0  0
 64142  1  0  0  0
 65143  1  0  0  0
 68 80  1  0  0  0
 71 72  2  0  0  0
 71 73  1  0  0  0
 71144  1  0  0  0
 72 81  1  0  0  0
 72 77  1  0  0  0
 73 82  2  0  0  0
 73 83  1  0  0  0
 74 78  1  0  0  0
 74 81  2  0  0  0
 74 82  1  0  0  0
 75 76  1  0  0  0
 75 77  1  0  0  0
 75145  1  0  0  0
 75146  1  0  0  0
 76 77  1  0  0  0
 76147  1  0  0  0
 76148  1  0  0  0
 77149  1  0  0  0
 78 84  1  0  0  0
 78150  1  0  0  0
 78151  1  0  0  0
 79 80  1  0  0  0
 79 83  1  0  0  0
 79152  1  0  0  0
 79153  1  0  0  0
 80154  1  0  0  0
 80155  1  0  0  0
 83156  1  0  0  0
 84157  1  0  0  0
M  ISO  4   1 100  68 101  80 101  84 100
M  END
> <chiral flag>
0

> <version>
0

> <s_m_source_file>
/data/baiqing/PycharmProjects/Reinvent-master-3.2/result/LINK_invent/BTK/process_docking_weight1_custom_sum_contain_oxygen_bond_distance_aromatic_linkinvent_7_9_3/rearranged_h_0184.sdf

> <i_m_source_file_index>
22

> <r_mmod_Potential_Energy-OPLS-2005>
-495.969085693359

> <r_mmod_Stretch_Energy-OPLS-2005>
127.811798095703

> <r_mmod_Bend_Energy-OPLS-2005>
190.01155090332

> <r_mmod_Torsional_Energy-OPLS-2005>
239.061737060547

> <r_mmod_Improper_Torsional_Energy-OPLS-2005>
9.76393699645996

> <r_mmod_Van_der_Waal_Energy-OPLS-2005>
142.284683227539

> <r_mmod_Electrostatic_Energy-OPLS-2005>
-1051.51501464844

> <r_mmod_Solvation_Energy-OPLS-2005>
-262.577026367188

> <b_mmod_Minimization_Converged-OPLS-2005>
0

> <r_mmod_RMS_Derivative-OPLS-2005>
5.09078741073608

$$$$
22
                    3D
 Structure written by MMmdl.
157166  0  0  1  0            999 V2000
  -30.4462  -15.2722   20.3448 C   0  0  0  0  0  0
  -30.4395  -12.8026   19.5227 C   0  0  0  0  0  0
  -29.5420  -12.5921   18.2795 C   0  0  0  0  0  0
  -28.0894  -12.3141   18.7008 C   0  0  0  0  0  0
  -27.6195  -13.2756   19.8247 C   0  0  2  0  0  0
  -28.6543  -13.4525   20.9536 C   0  0  0  0  0  0
  -25.2449  -13.8266   20.5706 C   0  0  0  0  0  0
  -24.1780  -13.0479   20.9199 C   0  0  0  0  0  0
  -24.6396  -11.6964   20.8752 C   0  0  0  0  0  0
  -23.9069  -10.4325   21.0401 C   0  0  0  0  0  0
  -24.3636   -9.4233   21.9174 C   0  0  0  0  0  0
  -23.6359   -8.2249   22.0730 C   0  0  0  0  0  0
  -22.4378   -8.0239   21.3494 C   0  0  0  0  0  0
  -21.9981   -9.0208   20.4612 C   0  0  0  0  0  0
  -22.7249  -10.2118   20.3053 C   0  0  0  0  0  0
  -21.6871   -6.0717   22.5221 C   0  0  0  0  0  0
  -21.4016   -6.5636   23.8150 C   0  0  0  0  0  0
  -21.3705   -5.6782   24.9120 C   0  0  0  0  0  0
  -21.6074   -4.3031   24.7172 C   0  0  0  0  0  0
  -21.8829   -3.8119   23.4287 C   0  0  0  0  0  0
  -21.9198   -4.6947   22.3369 C   0  0  0  0  0  0
  -22.7798  -13.5243   21.1830 C   0  0  0  0  0  0
  -22.1640   -4.2154   21.0944 F   0  0  0  0  0  0
  -21.5695   -3.4509   25.7678 F   0  0  0  0  0  0
  -29.8822  -13.9628   20.3181 N   0  0  0  0  0  0
  -26.2867  -12.9526   20.3208 N   0  0  0  0  0  0
  -25.9338  -11.6639   20.5727 N   0  0  0  0  0  0
  -22.0379  -12.8298   22.0397 N   0  0  0  0  0  0
  -25.4166  -15.1974   20.4158 N   0  0  0  0  0  0
  -31.6607  -15.2644   20.0817 O   0  0  0  0  0  0
  -21.6695   -6.8865   21.4186 O   0  0  0  0  0  0
  -22.3513  -14.5497   20.6571 O   0  0  0  0  0  0
  -24.6592  -31.8238   23.1717 C   0  0  0  0  0  0
  -25.9272  -32.4581   23.8174 C   0  0  1  0  0  0
  -27.2262  -26.9451   20.1657 C   0  0  0  0  0  0
  -25.5979  -33.8412   24.2094 N   0  0  0  0  0  0
  -23.4732  -30.4324   21.5204 C   0  0  2  0  0  0
  -24.9284  -28.8201   20.1139 C   0  0  0  0  0  0
  -22.7634  -29.4428   22.4813 C   0  0  0  0  0  0
  -18.0299  -28.1401   22.8460 C   0  0  0  0  0  0
  -24.1506  -36.7200   23.2646 C   0  0  0  0  0  0
  -26.0412  -30.6334   21.4005 C   0  0  0  0  0  0
  -26.1109  -29.2249   20.7417 C   0  0  0  0  0  0
  -27.2545  -28.3073   20.7455 C   0  0  0  0  0  0
  -26.0099  -26.6838   19.4977 C   0  0  0  0  0  0
  -24.8991  -27.5691   19.4755 C   0  0  0  0  0  0
  -23.7112  -29.7436   20.1497 C   0  0  0  0  0  0
  -25.4146  -36.2966   24.0302 C   0  0  1  0  0  0
  -20.5925  -28.3731   23.1216 C   0  0  2  0  0  0
  -20.6795  -26.9431   22.5410 C   0  0  0  0  0  0
  -19.5786  -26.6360   21.5212 C   0  0  0  0  0  0
  -18.1952  -26.7937   22.1607 C   0  0  0  0  0  0
  -19.1563  -28.8876   23.2814 C   0  0  0  0  0  0
  -18.9477  -30.1472   23.8845 C   0  0  0  0  0  0
  -17.6471  -30.6601   24.0526 C   0  0  0  0  0  0
  -25.9100  -34.9347   23.5016 C   0  0  0  0  0  0
  -16.5356  -29.9075   23.6357 C   0  0  0  0  0  0
  -16.7276  -28.6496   23.0371 C   0  0  0  0  0  0
  -26.4551  -31.6502   25.0697 C   0  0  0  0  0  0
  -25.3709  -31.3752   26.1368 C   0  0  0  0  0  0
  -27.0447  -30.2873   24.6419 C   0  0  0  0  0  0
  -27.6034  -32.4330   25.7521 C   0  0  0  0  0  0
  -27.5586  -37.1759   24.8458 C   0  0  0  0  0  0
  -21.4305  -29.3028   22.3566 N   0  0  0  0  0  0
  -26.4286  -37.3704   23.9406 N   0  0  0  0  0  0
  -24.7456  -30.9895   22.0847 N   0  0  0  0  0  0
  -23.4205  -28.8019   23.3067 O   0  0  0  0  0  0
  -28.2512  -25.8626   20.2303 O   0  0  0  0  0  0
  -26.5704  -34.8870   22.4606 O   0  0  0  0  0  0
  -23.5677  -32.1217   23.6827 O   0  0  0  0  0  0
  -30.4057  -18.0665   21.7700 C   0  0  0  0  0  0
  -30.3806  -23.0243   19.4356 C   0  0  0  0  0  0
  -29.3783  -16.9204   21.8622 C   0  0  0  0  0  0
  -29.8272  -21.8274   18.6269 C   0  0  0  0  0  0
  -30.0023  -18.2278   20.3214 C   0  0  2  0  0  0
  -29.1858  -22.8799   20.4081 C   0  0  1  0  0  0
  -29.4729  -22.9889   21.9117 C   0  0  0  0  0  0
  -28.9640  -19.6933   20.0705 C   0  0  0  0  0  0
  -28.0748  -24.2360   20.0103 C   0  0  0  0  0  0
  -29.7053  -16.5719   20.4698 N   0  0  0  0  0  0
  -29.4633  -21.2798   19.9183 N   0  3  1  0  0  0
  -31.4648  -12.9853   19.1969 H   0  0  0  0  0  0
  -30.4783  -11.8910   20.1267 H   0  0  0  0  0  0
  -29.9279  -11.7794   17.6633 H   0  0  0  0  0  0
  -29.5641  -13.4910   17.6588 H   0  0  0  0  0  0
  -28.0320  -11.2798   19.0386 H   0  0  0  0  0  0
  -27.4277  -12.3824   17.8379 H   0  0  0  0  0  0
  -27.5335  -14.2489   19.3349 H   0  0  0  0  0  0
  -28.8264  -12.5208   21.5016 H   0  0  0  0  0  0
  -28.2970  -14.1768   21.6854 H   0  0  0  0  0  0
  -25.2740   -9.5787   22.4759 H   0  0  0  0  0  0
  -24.0029   -7.4732   22.7552 H   0  0  0  0  0  0
  -21.0845   -8.8732   19.9018 H   0  0  0  0  0  0
  -22.3617  -10.9658   19.6191 H   0  0  0  0  0  0
  -21.1956   -7.6145   23.9653 H   0  0  0  0  0  0
  -21.1561   -6.0505   25.9038 H   0  0  0  0  0  0
  -22.0588   -2.7588   23.2745 H   0  0  0  0  0  0
  -22.3982  -11.9963   22.4784 H   0  0  0  0  0  0
  -21.0968  -13.1341   22.2538 H   0  0  0  0  0  0
  -24.6618  -15.8637   20.5357 H   0  0  0  0  0  0
  -26.2861  -15.6178   20.1089 H   0  0  0  0  0  0
  -26.7336  -32.5123   23.0896 H   0  0  0  0  0  0
  -25.0071  -33.9495   25.0215 H   0  0  0  0  0  0
  -22.7841  -31.2633   21.3502 H   0  0  0  0  0  0
  -23.3790  -35.9496   23.3252 H   0  0  0  0  0  0
  -24.3583  -36.8906   22.2071 H   0  0  0  0  0  0
  -23.7233  -37.6359   23.6739 H   0  0  0  0  0  0
  -26.2180  -31.3778   20.6244 H   0  0  0  0  0  0
  -26.9009  -30.6895   22.0559 H   0  0  0  0  0  0
  -28.1536  -28.6113   21.2625 H   0  0  0  0  0  0
  -25.8839  -25.7282   19.0112 H   0  0  0  0  0  0
  -23.9966  -27.2515   18.9720 H   0  0  0  0  0  0
  -23.8570  -30.5085   19.3864 H   0  0  0  0  0  0
  -22.8226  -29.1907   19.8417 H   0  0  0  0  0  0
  -25.1352  -36.1759   25.0793 H   0  0  0  0  0  0
  -20.9985  -28.3328   24.1345 H   0  0  0  0  0  0
  -20.5693  -26.2350   23.3625 H   0  0  0  0  0  0
  -21.6650  -26.7444   22.1206 H   0  0  0  0  0  0
  -19.6958  -25.6257   21.1273 H   0  0  0  0  0  0
  -19.6745  -27.3135   20.6715 H   0  0  0  0  0  0
  -17.4241  -26.6669   21.3986 H   0  0  0  0  0  0
  -18.0345  -26.0069   22.8999 H   0  0  0  0  0  0
  -19.7955  -30.7282   24.2213 H   0  0  0  0  0  0
  -17.5038  -31.6296   24.5113 H   0  0  0  0  0  0
  -15.5367  -30.2963   23.7723 H   0  0  0  0  0  0
  -15.8667  -28.0781   22.7160 H   0  0  0  0  0  0
  -24.5849  -30.7152   25.7676 H   0  0  0  0  0  0
  -24.8947  -32.2952   26.4771 H   0  0  0  0  0  0
  -25.7947  -30.8903   27.0176 H   0  0  0  0  0  0
  -26.3099  -29.6550   24.1420 H   0  0  0  0  0  0
  -27.3964  -29.7231   25.5070 H   0  0  0  0  0  0
  -27.9055  -30.4040   23.9840 H   0  0  0  0  0  0
  -27.2550  -33.3627   26.2050 H   0  0  0  0  0  0
  -28.3892  -32.6908   25.0410 H   0  0  0  0  0  0
  -28.0659  -31.8499   26.5507 H   0  0  0  0  0  0
  -28.2547  -38.0107   24.7535 H   0  0  0  0  0  0
  -28.1134  -36.2634   24.6243 H   0  0  0  0  0  0
  -27.2294  -37.1343   25.8851 H   0  0  0  0  0  0
  -20.9555  -29.8696   21.6672 H   0  0  0  0  0  0
  -26.0135  -38.2753   24.1410 H   0  0  0  0  0  0
  -31.4455  -17.7585   21.8880 H   0  0  0  0  0  0
  -30.1728  -18.9243   22.4016 H   0  0  0  0  0  0
  -30.4101  -23.9605   18.8749 H   0  0  0  0  0  0
  -31.3609  -22.8332   19.8871 H   0  0  0  0  0  0
  -28.3462  -17.2449   22.0106 H   0  0  0  0  0  0
  -29.6468  -16.1776   22.6180 H   0  0  0  0  0  0
  -30.5825  -21.2697   18.0725 H   0  0  0  0  0  0
  -28.9605  -22.0671   18.0033 H   0  0  0  0  0  0
  -30.8888  -18.3609   19.7064 H   0  0  0  0  0  0
  -29.5391  -24.0294   22.2329 H   0  0  0  0  0  0
  -30.4246  -22.5329   22.1863 H   0  0  0  0  0  0
  -28.6967  -22.5190   22.5168 H   0  0  0  0  0  0
  -28.1746  -19.6967   20.8177 H   0  0  0  0  0  0
  -28.4276  -19.5221   19.1328 H   0  0  0  0  0  0
  -27.1164  -24.0124   20.4817 H   0  0  0  0  0  0
  -27.8523  -24.1557   18.9458 H   0  0  0  0  0  0
  -30.3650  -21.1520   20.3512 H   0  0  0  0  0  0
  1 25  1  0  0  0
  1 30  2  0  0  0
  1 80  1  0  0  0
  2  3  1  0  0  0
  2 25  1  0  0  0
  2 82  1  0  0  0
  2 83  1  0  0  0
  3  4  1  0  0  0
  3 84  1  0  0  0
  3 85  1  0  0  0
  4  5  1  0  0  0
  4 86  1  0  0  0
  4 87  1  0  0  0
  5  6  1  0  0  0
  5 26  1  0  0  0
  5 88  1  0  0  0
  6 25  1  0  0  0
  6 89  1  0  0  0
  6 90  1  0  0  0
  7  8  2  0  0  0
  7 26  1  0  0  0
  7 29  1  0  0  0
  8  9  1  0  0  0
  8 22  1  0  0  0
  9 10  1  0  0  0
  9 27  2  0  0  0
 10 11  2  0  0  0
 10 15  1  0  0  0
 11 12  1  0  0  0
 11 91  1  0  0  0
 12 13  2  0  0  0
 12 92  1  0  0  0
 13 14  1  0  0  0
 13 31  1  0  0  0
 14 15  2  0  0  0
 14 93  1  0  0  0
 15 94  1  0  0  0
 16 17  2  0  0  0
 16 21  1  0  0  0
 16 31  1  0  0  0
 17 18  1  0  0  0
 17 95  1  0  0  0
 18 19  2  0  0  0
 18 96  1  0  0  0
 19 20  1  0  0  0
 19 24  1  0  0  0
 20 21  2  0  0  0
 20 97  1  0  0  0
 21 23  1  0  0  0
 22 28  1  0  0  0
 22 32  2  0  0  0
 26 27  1  0  0  0
 28 98  1  0  0  0
 28 99  1  0  0  0
 29100  1  0  0  0
 29101  1  0  0  0
 33 34  1  0  0  0
 33 66  1  0  0  0
 33 70  2  0  0  0
 34 36  1  0  0  0
 34 59  1  0  0  0
 34102  1  0  0  0
 35 44  2  0  0  0
 35 45  1  0  0  0
 35 68  1  0  0  0
 36 56  1  0  0  0
 36103  1  0  0  0
 37 39  1  0  0  0
 37 47  1  0  0  0
 37 66  1  0  0  0
 37104  1  0  0  0
 38 43  2  0  0  0
 38 46  1  0  0  0
 38 47  1  0  0  0
 39 64  1  0  0  0
 39 67  2  0  0  0
 40 52  1  0  0  0
 40 53  2  0  0  0
 40 58  1  0  0  0
 41105  1  0  0  0
 41106  1  0  0  0
 41107  1  0  0  0
 41 48  1  0  0  0
 42 43  1  0  0  0
 42 66  1  0  0  0
 42108  1  0  0  0
 42109  1  0  0  0
 43 44  1  0  0  0
 44110  1  0  0  0
 45 46  2  0  0  0
 45111  1  0  0  0
 46112  1  0  0  0
 47113  1  0  0  0
 47114  1  0  0  0
 48 56  1  0  0  0
 48 65  1  0  0  0
 48115  1  0  0  0
 49 50  1  0  0  0
 49 53  1  0  0  0
 49 64  1  0  0  0
 49116  1  0  0  0
 50 51  1  0  0  0
 50117  1  0  0  0
 50118  1  0  0  0
 51 52  1  0  0  0
 51119  1  0  0  0
 51120  1  0  0  0
 52121  1  0  0  0
 52122  1  0  0  0
 53 54  1  0  0  0
 54 55  2  0  0  0
 54123  1  0  0  0
 55 57  1  0  0  0
 55124  1  0  0  0
 56 69  2  0  0  0
 57 58  2  0  0  0
 57125  1  0  0  0
 58126  1  0  0  0
 59 60  1  0  0  0
 59 61  1  0  0  0
 59 62  1  0  0  0
 60127  1  0  0  0
 60128  1  0  0  0
 60129  1  0  0  0
 61130  1  0  0  0
 61131  1  0  0  0
 61132  1  0  0  0
 62133  1  0  0  0
 62134  1  0  0  0
 62135  1  0  0  0
 63 65  1  0  0  0
 63136  1  0  0  0
 63137  1  0  0  0
 63138  1  0  0  0
 64139  1  0  0  0
 65140  1  0  0  0
 68 79  1  0  0  0
 71 73  1  0  0  0
 71 75  1  0  0  0
 71141  1  0  0  0
 71142  1  0  0  0
 72 74  1  0  0  0
 72 76  1  0  0  0
 72143  1  0  0  0
 72144  1  0  0  0
 73 80  1  0  0  0
 73145  1  0  0  0
 73146  1  0  0  0
 74 81  1  0  0  0
 74147  1  0  0  0
 74148  1  0  0  0
 75 78  1  0  0  0
 75 80  1  0  0  0
 75149  1  0  0  0
 76 77  1  0  0  0
 76 79  1  0  0  0
 76 81  1  0  0  0
 77150  1  0  0  0
 77151  1  0  0  0
 77152  1  0  0  0
 78153  1  0  0  0
 78154  1  0  0  0
 78 81  1  0  0  0
 79155  1  0  0  0
 79156  1  0  0  0
 81157  1  0  0  0
M  CHG  1  81   1
M  ISO  4   1 100  68 101  79 101  80 100
M  END
> <chiral flag>
0

> <version>
0

> <s_m_source_file>
/data/baiqing/PycharmProjects/Reinvent-master-3.2/result/LINK_invent/BTK/process_docking_weight1_custom_sum_contain_oxygen_bond_distance_aromatic_linkinvent_7_9_3/rearranged_h_0184.sdf

> <i_m_source_file_index>
23

> <r_mmod_Potential_Energy-OPLS-2005>
1452.767578125

> <r_mmod_Stretch_Energy-OPLS-2005>
650.64208984375

> <r_mmod_Bend_Energy-OPLS-2005>
602.671142578125

> <r_mmod_Torsional_Energy-OPLS-2005>
305.898162841797

> <r_mmod_Improper_Torsional_Energy-OPLS-2005>
10.9895639419556

> <r_mmod_Van_der_Waal_Energy-OPLS-2005>
107.401153564453

> <r_mmod_Electrostatic_Energy-OPLS-2005>
-208.327056884766

> <r_mmod_Solvation_Energy-OPLS-2005>
-461.446899414062

> <b_mmod_Minimization_Converged-OPLS-2005>
0

> <r_mmod_RMS_Derivative-OPLS-2005>
7.09633636474609

$$$$
23
                    3D
 Structure written by MMmdl.
173183  0  0  1  0            999 V2000
  -30.6530  -14.6594   20.4539 C   0  0  0  0  0  0
  -30.4367  -12.3928   19.4716 C   0  0  0  0  0  0
  -29.5084  -12.4971   18.2402 C   0  0  0  0  0  0
  -28.0310  -12.3505   18.6516 C   0  0  0  0  0  0
  -27.6573  -13.2299   19.8723 C   0  0  2  0  0  0
  -28.7060  -13.1224   21.0020 C   0  0  0  0  0  0
  -25.2590  -13.8213   20.5737 C   0  0  0  0  0  0
  -24.1883  -13.0488   20.9248 C   0  0  0  0  0  0
  -24.6457  -11.6942   20.8775 C   0  0  0  0  0  0
  -23.9132  -10.4320   21.0451 C   0  0  0  0  0  0
  -24.3646   -9.4204   21.9220 C   0  0  0  0  0  0
  -23.6318   -8.2237   22.0749 C   0  0  0  0  0  0
  -22.4303   -8.0288   21.3529 C   0  0  0  0  0  0
  -21.9959   -9.0296   20.4649 C   0  0  0  0  0  0
  -22.7307  -10.2174   20.3094 C   0  0  0  0  0  0
  -21.6847   -6.0739   22.5271 C   0  0  0  0  0  0
  -21.4022   -6.5643   23.8207 C   0  0  0  0  0  0
  -21.3654   -5.6795   24.9168 C   0  0  0  0  0  0
  -21.6046   -4.3058   24.7221 C   0  0  0  0  0  0
  -21.8824   -3.8151   23.4342 C   0  0  0  0  0  0
  -21.9201   -4.6971   22.3399 C   0  0  0  0  0  0
  -22.7888  -13.5232   21.1861 C   0  0  0  0  0  0
  -22.1670   -4.2153   21.0986 F   0  0  0  0  0  0
  -21.5620   -3.4549   25.7738 F   0  0  0  0  0  0
  -30.0195  -13.4432   20.4279 N   0  0  0  0  0  0
  -26.3050  -12.9430   20.3424 N   0  0  0  0  0  0
  -25.9407  -11.6584   20.5855 N   0  0  0  0  0  0
  -22.0515  -12.8253   22.0396 N   0  0  0  0  0  0
  -25.4336  -15.1944   20.4046 N   0  0  0  0  0  0
  -31.8223  -14.7668   20.0808 O   0  0  0  0  0  0
  -21.6647   -6.8891   21.4231 O   0  0  0  0  0  0
  -22.3584  -14.5511   20.6641 O   0  0  0  0  0  0
  -24.6271  -31.8595   23.1978 C   0  0  0  0  0  0
  -25.9107  -32.4766   23.8321 C   0  0  1  0  0  0
  -27.2159  -27.2722   20.0823 C   0  0  0  0  0  0
  -25.5903  -33.8575   24.2235 N   0  0  0  0  0  0
  -23.4243  -30.4812   21.5418 C   0  0  2  0  0  0
  -24.8700  -28.9385   20.1028 C   0  0  0  0  0  0
  -22.7515  -29.4603   22.4913 C   0  0  0  0  0  0
  -18.0368  -28.1431   22.8407 C   0  0  0  0  0  0
  -24.1505  -36.7261   23.2646 C   0  0  0  0  0  0
  -25.9719  -30.7665   21.3855 C   0  0  0  0  0  0
  -26.0402  -29.3923   20.7204 C   0  0  0  0  0  0
  -27.2076  -28.5591   20.7254 C   0  0  0  0  0  0
  -26.0128  -26.8910   19.4487 C   0  0  0  0  0  0
  -24.8588  -27.6930   19.4607 C   0  0  0  0  0  0
  -23.6367  -29.8149   20.1576 C   0  0  0  0  0  0
  -25.4140  -36.3063   24.0319 C   0  0  1  0  0  0
  -20.5945  -28.3706   23.1285 C   0  0  2  0  0  0
  -20.6800  -26.9402   22.5498 C   0  0  0  0  0  0
  -19.5909  -26.6419   21.5170 C   0  0  0  0  0  0
  -18.2040  -26.8011   22.1494 C   0  0  0  0  0  0
  -19.1597  -28.8890   23.2858 C   0  0  0  0  0  0
  -18.9518  -30.1466   23.8886 C   0  0  0  0  0  0
  -17.6512  -30.6561   24.0550 C   0  0  0  0  0  0
  -25.9073  -34.9447   23.5082 C   0  0  0  0  0  0
  -16.5413  -29.9075   23.6216 C   0  0  0  0  0  0
  -16.7372  -28.6542   23.0190 C   0  0  0  0  0  0
  -26.4502  -31.6556   25.0681 C   0  0  0  0  0  0
  -25.3746  -31.3639   26.1385 C   0  0  0  0  0  0
  -27.0344  -30.2972   24.6162 C   0  0  0  0  0  0
  -27.6052  -32.4295   25.7443 C   0  0  0  0  0  0
  -27.5574  -37.1790   24.8469 C   0  0  0  0  0  0
  -21.4234  -29.3001   22.3621 N   0  0  0  0  0  0
  -26.4302  -37.3757   23.9395 N   0  0  0  0  0  0
  -24.6936  -31.0527   22.0976 N   0  0  0  0  0  0
  -23.4230  -28.8187   23.3036 O   0  0  0  0  0  0
  -28.3166  -26.3797   20.1385 O   0  0  0  0  0  0
  -26.5658  -34.8920   22.4666 O   0  0  0  0  0  0
  -23.5429  -32.1435   23.7286 O   0  0  0  0  0  0
  -28.6059  -23.6780   19.7071 C   0  0  0  0  0  0
  -29.8212  -22.9178   19.6771 C   0  0  0  0  0  0
  -27.4889  -22.8430   19.9634 C   0  0  0  0  0  0
  -28.7684  -20.8802   20.1375 C   0  0  0  0  0  0
  -31.3405  -24.0689   17.8847 C   0  0  0  0  0  0
  -32.0329  -22.7955   18.2745 C   0  0  0  0  0  0
  -27.6466  -18.9067   21.1270 C   0  0  0  0  0  0
  -27.8553  -19.0932   22.6468 C   0  0  0  0  0  0
  -30.2340  -18.4290   22.2025 C   0  0  0  0  0  0
  -31.1421  -23.5086   19.2799 C   0  0  0  0  0  0
  -29.9657  -18.5534   20.6741 C   0  0  2  0  0  0
  -26.0718  -23.3830   19.9765 C   0  0  0  0  0  0
  -29.5129  -18.9494   24.4834 C   0  0  0  0  0  0
  -28.4634  -25.2035   19.2207 C   0  0  0  0  0  0
  -30.0336  -17.1173   19.9232 C   0  0  0  0  0  0
  -29.8879  -21.5660   19.9360 N   0  0  0  0  0  0
  -27.5868  -21.4958   20.1686 N   0  0  0  0  0  0
  -28.7879  -19.4533   20.3857 N   0  0  0  0  0  0
  -29.8770  -15.7804   20.6353 N   0  0  0  0  0  0
  -29.2908  -19.2108   23.0456 N   0  3  2  0  0  0
  -31.4789  -12.4968   19.1611 H   0  0  0  0  0  0
  -30.3678  -11.4059   19.9352 H   0  0  0  0  0  0
  -29.7699  -11.7349   17.5034 H   0  0  0  0  0  0
  -29.6530  -13.4615   17.7505 H   0  0  0  0  0  0
  -27.8618  -11.2993   18.8871 H   0  0  0  0  0  0
  -27.3791  -12.5839   17.8090 H   0  0  0  0  0  0
  -27.6603  -14.2607   19.5179 H   0  0  0  0  0  0
  -28.7162  -12.1182   21.4306 H   0  0  0  0  0  0
  -28.4629  -13.7953   21.8238 H   0  0  0  0  0  0
  -25.2785   -9.5643   22.4811 H   0  0  0  0  0  0
  -24.0007   -7.4607   22.7469 H   0  0  0  0  0  0
  -21.0875   -8.8870   19.8939 H   0  0  0  0  0  0
  -22.3800  -10.9736   19.6205 H   0  0  0  0  0  0
  -21.2015   -7.6157   23.9713 H   0  0  0  0  0  0
  -21.1463   -6.0527   25.9070 H   0  0  0  0  0  0
  -22.0604   -2.7622   23.2857 H   0  0  0  0  0  0
  -22.4160  -11.9936   22.4807 H   0  0  0  0  0  0
  -21.1108  -13.1271   22.2514 H   0  0  0  0  0  0
  -24.6527  -15.8402   20.4596 H   0  0  0  0  0  0
  -26.2520  -15.5985   19.9698 H   0  0  0  0  0  0
  -26.7164  -32.5418   23.1058 H   0  0  0  0  0  0
  -25.0004  -33.9715   25.0342 H   0  0  0  0  0  0
  -22.7162  -31.2999   21.3988 H   0  0  0  0  0  0
  -23.3764  -35.9585   23.3350 H   0  0  0  0  0  0
  -24.3573  -36.8846   22.2038 H   0  0  0  0  0  0
  -23.7248  -37.6487   23.6653 H   0  0  0  0  0  0
  -26.1132  -31.5363   20.6246 H   0  0  0  0  0  0
  -26.8452  -30.8086   22.0241 H   0  0  0  0  0  0
  -28.0916  -28.8797   21.2566 H   0  0  0  0  0  0
  -25.9093  -25.9431   18.9519 H   0  0  0  0  0  0
  -23.9566  -27.3336   18.9799 H   0  0  0  0  0  0
  -23.7344  -30.5841   19.3894 H   0  0  0  0  0  0
  -22.7628  -29.2270   19.8705 H   0  0  0  0  0  0
  -25.1330  -36.1926   25.0802 H   0  0  0  0  0  0
  -21.0058  -28.3263   24.1393 H   0  0  0  0  0  0
  -20.5450  -26.2354   23.3731 H   0  0  0  0  0  0
  -21.6759  -26.7255   22.1544 H   0  0  0  0  0  0
  -19.6983  -27.3251   20.6740 H   0  0  0  0  0  0
  -19.7114  -25.6315   21.1205 H   0  0  0  0  0  0
  -17.4305  -26.6751   21.3902 H   0  0  0  0  0  0
  -18.0477  -26.0173   22.8900 H   0  0  0  0  0  0
  -19.7990  -30.7317   24.2162 H   0  0  0  0  0  0
  -17.5015  -31.6252   24.5193 H   0  0  0  0  0  0
  -15.5407  -30.2963   23.7472 H   0  0  0  0  0  0
  -15.8798  -28.0910   22.6746 H   0  0  0  0  0  0
  -24.5975  -30.6939   25.7674 H   0  0  0  0  0  0
  -24.8882  -32.2779   26.4820 H   0  0  0  0  0  0
  -25.8100  -30.8812   27.0145 H   0  0  0  0  0  0
  -26.2915  -29.6706   24.1219 H   0  0  0  0  0  0
  -27.4047  -29.7230   25.4661 H   0  0  0  0  0  0
  -27.8795  -30.4208   23.9379 H   0  0  0  0  0  0
  -27.2663  -33.3601   26.2005 H   0  0  0  0  0  0
  -28.3872  -32.6844   25.0274 H   0  0  0  0  0  0
  -28.0721  -31.8428   26.5368 H   0  0  0  0  0  0
  -28.2624  -38.0064   24.7508 H   0  0  0  0  0  0
  -28.1050  -36.2596   24.6345 H   0  0  0  0  0  0
  -27.2275  -37.1474   25.8870 H   0  0  0  0  0  0
  -20.9472  -29.8521   21.6630 H   0  0  0  0  0  0
  -26.0199  -38.2839   24.1388 H   0  0  0  0  0  0
  -30.4973  -24.0025   17.2015 H   0  0  0  0  0  0
  -31.9724  -24.9456   17.7716 H   0  0  0  0  0  0
  -33.1109  -22.8723   18.3955 H   0  0  0  0  0  0
  -31.6789  -21.8555   17.8560 H   0  0  0  0  0  0
  -26.6889  -19.3253   20.8171 H   0  0  0  0  0  0
  -27.5591  -17.8435   20.9095 H   0  0  0  0  0  0
  -27.3563  -18.2909   23.1938 H   0  0  0  0  0  0
  -27.3592  -20.0127   22.9554 H   0  0  0  0  0  0
  -31.2575  -18.7452   22.4110 H   0  0  0  0  0  0
  -30.1768  -17.3965   22.5382 H   0  0  0  0  0  0
  -31.6271  -24.0036   20.1185 H   0  0  0  0  0  0
  -30.8055  -19.1166   20.2707 H   0  0  0  0  0  0
  -25.7522  -23.6774   18.9772 H   0  0  0  0  0  0
  -26.0017  -24.2469   20.6333 H   0  0  0  0  0  0
  -25.3602  -22.6383   20.3385 H   0  0  0  0  0  0
  -28.8776  -19.5776   25.1033 H   0  0  0  0  0  0
  -30.5521  -19.1409   24.7594 H   0  0  0  0  0  0
  -29.2932  -17.9097   24.7286 H   0  0  0  0  0  0
  -29.3599  -25.4523   18.6632 H   0  0  0  0  0  0
  -27.7322  -25.2198   18.4181 H   0  0  0  0  0  0
  -29.3397  -17.1192   19.0778 H   0  0  0  0  0  0
  -31.0159  -17.0836   19.4447 H   0  0  0  0  0  0
  -28.9621  -15.5933   21.0137 H   0  0  0  0  0  0
  -29.5326  -20.1785   22.8900 H   0  0  0  0  0  0
  1 25  1  0  0  0
  1 30  2  0  0  0
  1 89  1  0  0  0
  2  3  1  0  0  0
  2 25  1  0  0  0
  2 91  1  0  0  0
  2 92  1  0  0  0
  3  4  1  0  0  0
  3 93  1  0  0  0
  3 94  1  0  0  0
  4  5  1  0  0  0
  4 95  1  0  0  0
  4 96  1  0  0  0
  5  6  1  0  0  0
  5 26  1  0  0  0
  5 97  1  0  0  0
  6 25  1  0  0  0
  6 98  1  0  0  0
  6 99  1  0  0  0
  7  8  2  0  0  0
  7 26  1  0  0  0
  7 29  1  0  0  0
  8  9  1  0  0  0
  8 22  1  0  0  0
  9 10  1  0  0  0
  9 27  2  0  0  0
 10 11  2  0  0  0
 10 15  1  0  0  0
 11 12  1  0  0  0
 11100  1  0  0  0
 12 13  2  0  0  0
 12101  1  0  0  0
 13 14  1  0  0  0
 13 31  1  0  0  0
 14 15  2  0  0  0
 14102  1  0  0  0
 15103  1  0  0  0
 16 17  2  0  0  0
 16 21  1  0  0  0
 16 31  1  0  0  0
 17 18  1  0  0  0
 17104  1  0  0  0
 18 19  2  0  0  0
 18105  1  0  0  0
 19 20  1  0  0  0
 19 24  1  0  0  0
 20 21  2  0  0  0
 20106  1  0  0  0
 21 23  1  0  0  0
 22 28  1  0  0  0
 22 32  2  0  0  0
 26 27  1  0  0  0
 28107  1  0  0  0
 28108  1  0  0  0
 29109  1  0  0  0
 29110  1  0  0  0
 33 34  1  0  0  0
 33 66  1  0  0  0
 33 70  2  0  0  0
 34 36  1  0  0  0
 34 59  1  0  0  0
 34111  1  0  0  0
 35 44  2  0  0  0
 35 45  1  0  0  0
 35 68  1  0  0  0
 36 56  1  0  0  0
 36112  1  0  0  0
 37 39  1  0  0  0
 37 47  1  0  0  0
 37 66  1  0  0  0
 37113  1  0  0  0
 38 43  2  0  0  0
 38 46  1  0  0  0
 38 47  1  0  0  0
 39 64  1  0  0  0
 39 67  2  0  0  0
 40 52  1  0  0  0
 40 53  2  0  0  0
 40 58  1  0  0  0
 41114  1  0  0  0
 41115  1  0  0  0
 41116  1  0  0  0
 41 48  1  0  0  0
 42 43  1  0  0  0
 42 66  1  0  0  0
 42117  1  0  0  0
 42118  1  0  0  0
 43 44  1  0  0  0
 44119  1  0  0  0
 45 46  2  0  0  0
 45120  1  0  0  0
 46121  1  0  0  0
 47122  1  0  0  0
 47123  1  0  0  0
 48 56  1  0  0  0
 48 65  1  0  0  0
 48124  1  0  0  0
 49 50  1  0  0  0
 49 53  1  0  0  0
 49 64  1  0  0  0
 49125  1  0  0  0
 50 51  1  0  0  0
 50126  1  0  0  0
 50127  1  0  0  0
 51 52  1  0  0  0
 51128  1  0  0  0
 51129  1  0  0  0
 52130  1  0  0  0
 52131  1  0  0  0
 53 54  1  0  0  0
 54 55  2  0  0  0
 54132  1  0  0  0
 55 57  1  0  0  0
 55133  1  0  0  0
 56 69  2  0  0  0
 57 58  2  0  0  0
 57134  1  0  0  0
 58135  1  0  0  0
 59 60  1  0  0  0
 59 61  1  0  0  0
 59 62  1  0  0  0
 60136  1  0  0  0
 60137  1  0  0  0
 60138  1  0  0  0
 61139  1  0  0  0
 61140  1  0  0  0
 61141  1  0  0  0
 62142  1  0  0  0
 62143  1  0  0  0
 62144  1  0  0  0
 63 65  1  0  0  0
 63145  1  0  0  0
 63146  1  0  0  0
 63147  1  0  0  0
 64148  1  0  0  0
 65149  1  0  0  0
 68 84  1  0  0  0
 71 72  1  0  0  0
 71 73  2  0  0  0
 71 84  1  0  0  0
 72 86  2  0  0  0
 72 80  1  0  0  0
 73 82  1  0  0  0
 73 87  1  0  0  0
 74 86  1  0  0  0
 74 87  2  0  0  0
 74 88  1  0  0  0
 75 76  1  0  0  0
 75 80  1  0  0  0
 75150  1  0  0  0
 75151  1  0  0  0
 76 80  1  0  0  0
 76152  1  0  0  0
 76153  1  0  0  0
 77 78  1  0  0  0
 77 88  1  0  0  0
 77154  1  0  0  0
 77155  1  0  0  0
 78 90  1  0  0  0
 78156  1  0  0  0
 78157  1  0  0  0
 79 81  1  0  0  0
 79 90  1  0  0  0
 79158  1  0  0  0
 79159  1  0  0  0
 80160  1  0  0  0
 81 85  1  0  0  0
 81 88  1  0  0  0
 81161  1  0  0  0
 82162  1  0  0  0
 82163  1  0  0  0
 82164  1  0  0  0
 83165  1  0  0  0
 83166  1  0  0  0
 83167  1  0  0  0
 83 90  1  0  0  0
 84168  1  0  0  0
 84169  1  0  0  0
 85 89  1  0  0  0
 85170  1  0  0  0
 85171  1  0  0  0
 89172  1  0  0  0
 90173  1  0  0  0
M  CHG  1  90   1
M  ISO  4   1 100  68 101  84 101  89 100
M  END
> <chiral flag>
0

> <version>
0

> <s_m_source_file>
/data/baiqing/PycharmProjects/Reinvent-master-3.2/result/LINK_invent/BTK/process_docking_weight1_custom_sum_contain_oxygen_bond_distance_aromatic_linkinvent_7_9_3/rearranged_h_0184.sdf

> <i_m_source_file_index>
24

> <r_mmod_Potential_Energy-OPLS-2005>
-433.556945800781

> <r_mmod_Stretch_Energy-OPLS-2005>
113.156044006348

> <r_mmod_Bend_Energy-OPLS-2005>
198.527099609375

> <r_mmod_Torsional_Energy-OPLS-2005>
338.370849609375

> <r_mmod_Improper_Torsional_Energy-OPLS-2005>
13.4853782653809

> <r_mmod_Van_der_Waal_Energy-OPLS-2005>
169.401809692383

> <r_mmod_Electrostatic_Energy-OPLS-2005>
-882.694763183594

> <r_mmod_Solvation_Energy-OPLS-2005>
-449.065155029297

> <b_mmod_Minimization_Converged-OPLS-2005>
0

> <r_mmod_RMS_Derivative-OPLS-2005>
6.93441152572632

$$$$
24
                    3D
 Structure written by MMmdl.
158167  0  0  1  0            999 V2000
  -30.6475  -14.7200   20.4301 C   0  0  0  0  0  0
  -30.4190  -12.4336   19.4670 C   0  0  0  0  0  0
  -29.5065  -12.4924   18.2247 C   0  0  0  0  0  0
  -28.0265  -12.3420   18.6314 C   0  0  0  0  0  0
  -27.6350  -13.2403   19.8364 C   0  0  2  0  0  0
  -28.6814  -13.1857   20.9699 C   0  0  0  0  0  0
  -25.2470  -13.8211   20.5664 C   0  0  0  0  0  0
  -24.1772  -13.0445   20.9199 C   0  0  0  0  0  0
  -24.6387  -11.6928   20.8730 C   0  0  0  0  0  0
  -23.9076  -10.4295   21.0407 C   0  0  0  0  0  0
  -24.3629   -9.4193   21.9172 C   0  0  0  0  0  0
  -23.6305   -8.2230   22.0733 C   0  0  0  0  0  0
  -22.4281   -8.0274   21.3536 C   0  0  0  0  0  0
  -21.9919   -9.0252   20.4642 C   0  0  0  0  0  0
  -22.7242  -10.2135   20.3055 C   0  0  0  0  0  0
  -21.6853   -6.0729   22.5283 C   0  0  0  0  0  0
  -21.4019   -6.5635   23.8219 C   0  0  0  0  0  0
  -21.3651   -5.6787   24.9179 C   0  0  0  0  0  0
  -21.6050   -4.3056   24.7228 C   0  0  0  0  0  0
  -21.8814   -3.8140   23.4352 C   0  0  0  0  0  0
  -21.9189   -4.6954   22.3404 C   0  0  0  0  0  0
  -22.7794  -13.5211   21.1882 C   0  0  0  0  0  0
  -22.1657   -4.2142   21.0987 F   0  0  0  0  0  0
  -21.5628   -3.4532   25.7742 F   0  0  0  0  0  0
  -29.9820  -13.5176   20.3764 N   0  0  0  0  0  0
  -26.2895  -12.9444   20.3209 N   0  0  0  0  0  0
  -25.9321  -11.6575   20.5712 N   0  0  0  0  0  0
  -22.0446  -12.8207   22.0452 N   0  0  0  0  0  0
  -25.4160  -15.1939   20.4072 N   0  0  0  0  0  0
  -31.8579  -14.7461   20.1946 O   0  0  0  0  0  0
  -21.6651   -6.8863   21.4245 O   0  0  0  0  0  0
  -22.3474  -14.5507   20.6704 O   0  0  0  0  0  0
  -24.6317  -31.8543   23.1952 C   0  0  0  0  0  0
  -25.9140  -32.4740   23.8302 C   0  0  1  0  0  0
  -27.2225  -27.2597   20.1273 C   0  0  0  0  0  0
  -25.5936  -33.8540   24.2230 N   0  0  0  0  0  0
  -23.4298  -30.4727   21.5379 C   0  0  2  0  0  0
  -24.8780  -28.9144   20.1140 C   0  0  0  0  0  0
  -22.7498  -29.4584   22.4893 C   0  0  0  0  0  0
  -18.0294  -28.1377   22.8468 C   0  0  0  0  0  0
  -24.1499  -36.7272   23.2638 C   0  0  0  0  0  0
  -25.9763  -30.7643   21.3779 C   0  0  0  0  0  0
  -26.0504  -29.3859   20.7204 C   0  0  0  0  0  0
  -27.2306  -28.5728   20.7107 C   0  0  0  0  0  0
  -26.0296  -26.8516   19.4993 C   0  0  0  0  0  0
  -24.8723  -27.6556   19.4929 C   0  0  0  0  0  0
  -23.6492  -29.8020   20.1571 C   0  0  0  0  0  0
  -25.4125  -36.3054   24.0320 C   0  0  1  0  0  0
  -20.5893  -28.3691   23.1260 C   0  0  2  0  0  0
  -20.6776  -26.9408   22.5403 C   0  0  0  0  0  0
  -19.5759  -26.6370   21.5198 C   0  0  0  0  0  0
  -18.1939  -26.7918   22.1608 C   0  0  0  0  0  0
  -19.1544  -28.8849   23.2856 C   0  0  0  0  0  0
  -18.9465  -30.1447   23.8869 C   0  0  0  0  0  0
  -17.6468  -30.6584   24.0544 C   0  0  0  0  0  0
  -25.9062  -34.9429   23.5083 C   0  0  0  0  0  0
  -16.5360  -29.9073   23.6335 C   0  0  0  0  0  0
  -16.7279  -28.6492   23.0353 C   0  0  0  0  0  0
  -26.4508  -31.6567   25.0701 C   0  0  0  0  0  0
  -25.3725  -31.3735   26.1417 C   0  0  0  0  0  0
  -27.0367  -30.2974   24.6222 C   0  0  0  0  0  0
  -27.6052  -32.4318   25.7480 C   0  0  0  0  0  0
  -27.5587  -37.1788   24.8461 C   0  0  0  0  0  0
  -21.4203  -29.3043   22.3650 N   0  0  0  0  0  0
  -26.4294  -37.3760   23.9413 N   0  0  0  0  0  0
  -24.6977  -31.0495   22.0927 N   0  0  0  0  0  0
  -23.4196  -28.8137   23.3007 O   0  0  0  0  0  0
  -28.3118  -26.3601   20.1210 O   0  0  0  0  0  0
  -26.5632  -34.8913   22.4649 O   0  0  0  0  0  0
  -23.5467  -32.1358   23.7246 O   0  0  0  0  0  0
  -28.8239  -22.3799   20.6542 C   0  0  0  0  0  0
  -28.6248  -23.6506   19.9900 C   0  0  0  0  0  0
  -29.2050  -21.2124   19.9077 C   0  0  0  0  0  0
  -29.1747  -22.5781   18.0422 C   0  0  0  0  0  0
  -30.7246  -18.7344   18.6265 C   0  0  0  0  0  0
  -31.1559  -17.3011   18.8531 C   0  0  0  0  0  0
  -29.6241  -18.5823   19.6946 C   0  0  1  0  0  0
  -30.4963  -17.3171   20.2497 C   0  0  1  0  0  0
  -30.0202  -21.6844   16.0011 C   0  0  0  0  0  0
  -28.1015  -24.9834   20.6933 C   0  0  0  0  0  0
  -28.8104  -23.6977   18.6567 N   0  0  0  0  0  0
  -29.3580  -21.3694   18.5840 N   0  0  0  0  0  0
  -29.4618  -19.8903   20.4598 N   0  0  0  0  0  0
  -29.9322  -15.9111   20.4842 N   0  0  0  0  0  0
  -29.3763  -22.7360   16.7153 O   0  0  0  0  0  0
  -31.4649  -12.5293   19.1703 H   0  0  0  0  0  0
  -30.3396  -11.4629   19.9583 H   0  0  0  0  0  0
  -29.7810  -11.7103   17.5147 H   0  0  0  0  0  0
  -29.6526  -13.4400   17.7044 H   0  0  0  0  0  0
  -27.8584  -11.2935   18.8777 H   0  0  0  0  0  0
  -27.3815  -12.5565   17.7770 H   0  0  0  0  0  0
  -27.6261  -14.2613   19.4548 H   0  0  0  0  0  0
  -28.7088  -12.1966   21.4282 H   0  0  0  0  0  0
  -28.4287  -13.8891   21.7648 H   0  0  0  0  0  0
  -25.2791   -9.5683   22.4729 H   0  0  0  0  0  0
  -24.0034   -7.4628   22.7445 H   0  0  0  0  0  0
  -21.0841   -8.8760   19.8974 H   0  0  0  0  0  0
  -22.3685  -10.9662   19.6165 H   0  0  0  0  0  0
  -21.2029   -7.6148   23.9720 H   0  0  0  0  0  0
  -21.1475   -6.0519   25.9081 H   0  0  0  0  0  0
  -22.0605   -2.7604   23.2849 H   0  0  0  0  0  0
  -22.4090  -11.9915   22.4917 H   0  0  0  0  0  0
  -21.1055  -13.1214   22.2632 H   0  0  0  0  0  0
  -24.6469  -15.8471   20.5099 H   0  0  0  0  0  0
  -26.2617  -15.6313   20.0645 H   0  0  0  0  0  0
  -26.7205  -32.5383   23.1036 H   0  0  0  0  0  0
  -25.0098  -33.9671   25.0387 H   0  0  0  0  0  0
  -22.7267  -31.2947   21.3876 H   0  0  0  0  0  0
  -23.3769  -35.9596   23.3286 H   0  0  0  0  0  0
  -24.3594  -36.8912   22.2057 H   0  0  0  0  0  0
  -23.7245  -37.6463   23.6676 H   0  0  0  0  0  0
  -26.1230  -31.5285   20.6135 H   0  0  0  0  0  0
  -26.8491  -30.8070   22.0178 H   0  0  0  0  0  0
  -28.1330  -28.9307   21.1861 H   0  0  0  0  0  0
  -25.9852  -25.8851   19.0170 H   0  0  0  0  0  0
  -23.9757  -27.2924   19.0106 H   0  0  0  0  0  0
  -23.7730  -30.5734   19.3959 H   0  0  0  0  0  0
  -22.7702  -29.2306   19.8541 H   0  0  0  0  0  0
  -25.1313  -36.1886   25.0809 H   0  0  0  0  0  0
  -20.9975  -28.3272   24.1384 H   0  0  0  0  0  0
  -20.5664  -26.2302   23.3604 H   0  0  0  0  0  0
  -21.6648  -26.7426   22.1214 H   0  0  0  0  0  0
  -19.6931  -25.6273   21.1253 H   0  0  0  0  0  0
  -19.6713  -27.3154   20.6707 H   0  0  0  0  0  0
  -17.4209  -26.6640   21.4013 H   0  0  0  0  0  0
  -18.0359  -26.0062   22.9010 H   0  0  0  0  0  0
  -19.7941  -30.7259   24.2229 H   0  0  0  0  0  0
  -17.5031  -31.6264   24.5142 H   0  0  0  0  0  0
  -15.5359  -30.2968   23.7679 H   0  0  0  0  0  0
  -15.8675  -28.0805   22.7091 H   0  0  0  0  0  0
  -24.5879  -30.7115   25.7735 H   0  0  0  0  0  0
  -24.8947  -32.2919   26.4837 H   0  0  0  0  0  0
  -25.8025  -30.8895   27.0195 H   0  0  0  0  0  0
  -26.2962  -29.6699   24.1246 H   0  0  0  0  0  0
  -27.4030  -29.7260   25.4764 H   0  0  0  0  0  0
  -27.8850  -30.4230   23.9488 H   0  0  0  0  0  0
  -27.2644  -33.3617   26.2044 H   0  0  0  0  0  0
  -28.3866  -32.6881   25.0315 H   0  0  0  0  0  0
  -28.0717  -31.8457   26.5407 H   0  0  0  0  0  0
  -28.2583  -38.0108   24.7531 H   0  0  0  0  0  0
  -28.1105  -36.2636   24.6255 H   0  0  0  0  0  0
  -27.2308  -37.1396   25.8863 H   0  0  0  0  0  0
  -20.9385  -29.8751   21.6841 H   0  0  0  0  0  0
  -26.0167  -38.2833   24.1410 H   0  0  0  0  0  0
  -28.6669  -22.3164   21.7219 H   0  0  0  0  0  0
  -30.3586  -18.9317   17.6187 H   0  0  0  0  0  0
  -31.5182  -19.4303   18.9018 H   0  0  0  0  0  0
  -32.2370  -17.1553   18.8588 H   0  0  0  0  0  0
  -30.6775  -16.6248   18.1417 H   0  0  0  0  0  0
  -28.6834  -18.2556   19.2484 H   0  0  0  0  0  0
  -31.2172  -17.6231   21.0093 H   0  0  0  0  0  0
  -30.2005  -21.9984   14.9740 H   0  0  0  0  0  0
  -29.4150  -20.7772   15.9690 H   0  0  0  0  0  0
  -30.9883  -21.4505   16.4468 H   0  0  0  0  0  0
  -28.5686  -24.9972   21.6778 H   0  0  0  0  0  0
  -27.0428  -24.8207   20.8939 H   0  0  0  0  0  0
  -29.3740  -19.8080   21.4668 H   0  0  0  0  0  0
  -28.9370  -15.8400   20.6365 H   0  0  0  0  0  0
  1 25  1  0  0  0
  1 30  2  0  0  0
  1 84  1  0  0  0
  2  3  1  0  0  0
  2 25  1  0  0  0
  2 86  1  0  0  0
  2 87  1  0  0  0
  3  4  1  0  0  0
  3 88  1  0  0  0
  3 89  1  0  0  0
  4  5  1  0  0  0
  4 90  1  0  0  0
  4 91  1  0  0  0
  5  6  1  0  0  0
  5 26  1  0  0  0
  5 92  1  0  0  0
  6 25  1  0  0  0
  6 93  1  0  0  0
  6 94  1  0  0  0
  7  8  2  0  0  0
  7 26  1  0  0  0
  7 29  1  0  0  0
  8  9  1  0  0  0
  8 22  1  0  0  0
  9 10  1  0  0  0
  9 27  2  0  0  0
 10 11  2  0  0  0
 10 15  1  0  0  0
 11 12  1  0  0  0
 11 95  1  0  0  0
 12 13  2  0  0  0
 12 96  1  0  0  0
 13 14  1  0  0  0
 13 31  1  0  0  0
 14 15  2  0  0  0
 14 97  1  0  0  0
 15 98  1  0  0  0
 16 17  2  0  0  0
 16 21  1  0  0  0
 16 31  1  0  0  0
 17 18  1  0  0  0
 17 99  1  0  0  0
 18 19  2  0  0  0
 18100  1  0  0  0
 19 20  1  0  0  0
 19 24  1  0  0  0
 20 21  2  0  0  0
 20101  1  0  0  0
 21 23  1  0  0  0
 22 28  1  0  0  0
 22 32  2  0  0  0
 26 27  1  0  0  0
 28102  1  0  0  0
 28103  1  0  0  0
 29104  1  0  0  0
 29105  1  0  0  0
 33 34  1  0  0  0
 33 66  1  0  0  0
 33 70  2  0  0  0
 34 36  1  0  0  0
 34 59  1  0  0  0
 34106  1  0  0  0
 35 44  2  0  0  0
 35 45  1  0  0  0
 35 68  1  0  0  0
 36 56  1  0  0  0
 36107  1  0  0  0
 37 39  1  0  0  0
 37 47  1  0  0  0
 37 66  1  0  0  0
 37108  1  0  0  0
 38 43  2  0  0  0
 38 46  1  0  0  0
 38 47  1  0  0  0
 39 64  1  0  0  0
 39 67  2  0  0  0
 40 52  1  0  0  0
 40 53  2  0  0  0
 40 58  1  0  0  0
 41109  1  0  0  0
 41110  1  0  0  0
 41111  1  0  0  0
 41 48  1  0  0  0
 42 43  1  0  0  0
 42 66  1  0  0  0
 42112  1  0  0  0
 42113  1  0  0  0
 43 44  1  0  0  0
 44114  1  0  0  0
 45 46  2  0  0  0
 45115  1  0  0  0
 46116  1  0  0  0
 47117  1  0  0  0
 47118  1  0  0  0
 48 56  1  0  0  0
 48 65  1  0  0  0
 48119  1  0  0  0
 49 50  1  0  0  0
 49 53  1  0  0  0
 49 64  1  0  0  0
 49120  1  0  0  0
 50 51  1  0  0  0
 50121  1  0  0  0
 50122  1  0  0  0
 51 52  1  0  0  0
 51123  1  0  0  0
 51124  1  0  0  0
 52125  1  0  0  0
 52126  1  0  0  0
 53 54  1  0  0  0
 54 55  2  0  0  0
 54127  1  0  0  0
 55 57  1  0  0  0
 55128  1  0  0  0
 56 69  2  0  0  0
 57 58  2  0  0  0
 57129  1  0  0  0
 58130  1  0  0  0
 59 60  1  0  0  0
 59 61  1  0  0  0
 59 62  1  0  0  0
 60131  1  0  0  0
 60132  1  0  0  0
 60133  1  0  0  0
 61134  1  0  0  0
 61135  1  0  0  0
 61136  1  0  0  0
 62137  1  0  0  0
 62138  1  0  0  0
 62139  1  0  0  0
 63 65  1  0  0  0
 63140  1  0  0  0
 63141  1  0  0  0
 63142  1  0  0  0
 64143  1  0  0  0
 65144  1  0  0  0
 68 80  1  0  0  0
 71 72  2  0  0  0
 71 73  1  0  0  0
 71145  1  0  0  0
 72 80  1  0  0  0
 72 81  1  0  0  0
 73 82  2  0  0  0
 73 83  1  0  0  0
 74 81  2  0  0  0
 74 82  1  0  0  0
 74 85  1  0  0  0
 75 76  1  0  0  0
 75 77  1  0  0  0
 75146  1  0  0  0
 75147  1  0  0  0
 76 78  1  0  0  0
 76148  1  0  0  0
 76149  1  0  0  0
 77 78  1  0  0  0
 77 83  1  0  0  0
 77150  1  0  0  0
 78 84  1  0  0  0
 78151  1  0  0  0
 79 85  1  0  0  0
 79152  1  0  0  0
 79153  1  0  0  0
 79154  1  0  0  0
 80155  1  0  0  0
 80156  1  0  0  0
 83157  1  0  0  0
 84158  1  0  0  0
M  ISO  4   1 100  68 101  80 101  84 100
M  END
> <chiral flag>
0

> <version>
0

> <s_m_source_file>
/data/baiqing/PycharmProjects/Reinvent-master-3.2/result/LINK_invent/BTK/process_docking_weight1_custom_sum_contain_oxygen_bond_distance_aromatic_linkinvent_7_9_3/rearranged_h_0184.sdf

> <i_m_source_file_index>
25

> <r_mmod_Potential_Energy-OPLS-2005>
-375.868927001953

> <r_mmod_Stretch_Energy-OPLS-2005>
118.960113525391

> <r_mmod_Bend_Energy-OPLS-2005>
205.42041015625

> <r_mmod_Torsional_Energy-OPLS-2005>
251.535110473633

> <r_mmod_Improper_Torsional_Energy-OPLS-2005>
6.34441804885864

> <r_mmod_Van_der_Waal_Energy-OPLS-2005>
159.131729125977

> <r_mmod_Electrostatic_Energy-OPLS-2005>
-950.798828125

> <r_mmod_Solvation_Energy-OPLS-2005>
-249.767349243164

> <b_mmod_Minimization_Converged-OPLS-2005>
0

> <r_mmod_RMS_Derivative-OPLS-2005>
2.80123829841614

$$$$
25
                    3D
 Structure written by MMmdl.
152161  0  0  1  0            999 V2000
  -30.4640  -15.1826   20.4244 C   0  0  0  0  0  0
  -30.4420  -12.7509   19.5243 C   0  0  0  0  0  0
  -29.5342  -12.5711   18.2824 C   0  0  0  0  0  0
  -28.0771  -12.3103   18.7037 C   0  0  0  0  0  0
  -27.6202  -13.2671   19.8335 C   0  0  2  0  0  0
  -28.6558  -13.3847   20.9713 C   0  0  0  0  0  0
  -25.2429  -13.8248   20.5748 C   0  0  0  0  0  0
  -24.1759  -13.0445   20.9230 C   0  0  0  0  0  0
  -24.6407  -11.6934   20.8747 C   0  0  0  0  0  0
  -23.9096  -10.4294   21.0403 C   0  0  0  0  0  0
  -24.3638   -9.4209   21.9184 C   0  0  0  0  0  0
  -23.6304   -8.2251   22.0756 C   0  0  0  0  0  0
  -22.4286   -8.0288   21.3548 C   0  0  0  0  0  0
  -21.9929   -9.0262   20.4645 C   0  0  0  0  0  0
  -22.7266  -10.2137   20.3050 C   0  0  0  0  0  0
  -21.6859   -6.0738   22.5278 C   0  0  0  0  0  0
  -21.4016   -6.5639   23.8211 C   0  0  0  0  0  0
  -21.3656   -5.6794   24.9172 C   0  0  0  0  0  0
  -21.6044   -4.3056   24.7227 C   0  0  0  0  0  0
  -21.8815   -3.8148   23.4347 C   0  0  0  0  0  0
  -21.9191   -4.6964   22.3401 C   0  0  0  0  0  0
  -22.7777  -13.5200   21.1886 C   0  0  0  0  0  0
  -22.1660   -4.2148   21.0980 F   0  0  0  0  0  0
  -21.5630   -3.4536   25.7738 F   0  0  0  0  0  0
  -29.9014  -13.8799   20.3621 N   0  0  0  0  0  0
  -26.2856  -12.9505   20.3247 N   0  0  0  0  0  0
  -25.9344  -11.6615   20.5731 N   0  0  0  0  0  0
  -22.0438  -12.8176   22.0437 N   0  0  0  0  0  0
  -25.4106  -15.1979   20.4220 N   0  0  0  0  0  0
  -31.6545  -15.2239   20.0809 O   0  0  0  0  0  0
  -21.6647   -6.8886   21.4242 O   0  0  0  0  0  0
  -22.3452  -14.5500   20.6727 O   0  0  0  0  0  0
  -24.6596  -31.8280   23.1735 C   0  0  0  0  0  0
  -25.9298  -32.4603   23.8182 C   0  0  1  0  0  0
  -27.2167  -26.9680   20.1733 C   0  0  0  0  0  0
  -25.5992  -33.8416   24.2092 N   0  0  0  0  0  0
  -23.4713  -30.4422   21.5208 C   0  0  2  0  0  0
  -24.9258  -28.8412   20.1063 C   0  0  0  0  0  0
  -22.7651  -29.4461   22.4776 C   0  0  0  0  0  0
  -18.0321  -28.1405   22.8462 C   0  0  0  0  0  0
  -24.1492  -36.7206   23.2643 C   0  0  0  0  0  0
  -26.0385  -30.6476   21.3975 C   0  0  0  0  0  0
  -26.1073  -29.2415   20.7420 C   0  0  0  0  0  0
  -27.2477  -28.3239   20.7564 C   0  0  0  0  0  0
  -26.0112  -26.7202   19.4770 C   0  0  0  0  0  0
  -24.9004  -27.5993   19.4550 C   0  0  0  0  0  0
  -23.7088  -29.7621   20.1444 C   0  0  0  0  0  0
  -25.4127  -36.2973   24.0307 C   0  0  1  0  0  0
  -20.5948  -28.3746   23.1189 C   0  0  2  0  0  0
  -20.6792  -26.9428   22.5396 C   0  0  0  0  0  0
  -19.5768  -26.6374   21.5207 C   0  0  0  0  0  0
  -18.1952  -26.7943   22.1613 C   0  0  0  0  0  0
  -19.1585  -28.8895   23.2819 C   0  0  0  0  0  0
  -18.9499  -30.1489   23.8855 C   0  0  0  0  0  0
  -17.6492  -30.6595   24.0557 C   0  0  0  0  0  0
  -25.9095  -34.9360   23.5014 C   0  0  0  0  0  0
  -16.5385  -29.9084   23.6341 C   0  0  0  0  0  0
  -16.7302  -28.6504   23.0360 C   0  0  0  0  0  0
  -26.4555  -31.6531   25.0692 C   0  0  0  0  0  0
  -25.3689  -31.3778   26.1352 C   0  0  0  0  0  0
  -27.0426  -30.2898   24.6384 C   0  0  0  0  0  0
  -27.6062  -32.4315   25.7487 C   0  0  0  0  0  0
  -27.5562  -37.1760   24.8469 C   0  0  0  0  0  0
  -21.4324  -29.3055   22.3547 N   0  0  0  0  0  0
  -26.4268  -37.3712   23.9418 N   0  0  0  0  0  0
  -24.7444  -30.9981   22.0848 N   0  0  0  0  0  0
  -23.4218  -28.8020   23.2996 O   0  0  0  0  0  0
  -28.2022  -25.8612   20.2817 O   0  0  0  0  0  0
  -26.5692  -34.8898   22.4600 O   0  0  0  0  0  0
  -23.5674  -32.1230   23.6853 O   0  0  0  0  0  0
  -29.6099  -21.9801   19.6041 C   0  0  0  0  0  0
  -29.2073  -19.6804   20.5316 C   0  0  0  0  0  0
  -28.5605  -22.7415   20.2850 C   0  0  0  0  0  0
  -28.1500  -20.4507   21.2101 C   0  0  0  0  0  0
  -30.4571  -17.7736   22.2566 C   0  0  0  0  0  0
  -29.6987  -16.4305   22.2813 C   0  0  0  0  0  0
  -29.7501  -18.0668   20.9596 C   0  0  2  0  0  0
  -27.2487  -19.7783   22.2349 C   0  0  0  0  0  0
  -27.8865  -24.3046   19.9173 C   0  0  0  0  0  0
  -29.9261  -20.5866   19.7413 N   0  0  0  0  0  0
  -27.8536  -21.8348   21.0720 N   0  0  0  0  0  0
  -29.7086  -16.3986   20.7876 N   0  0  0  0  0  0
  -31.4666  -12.9408   19.2020 H   0  0  0  0  0  0
  -30.4883  -11.8281   20.1047 H   0  0  0  0  0  0
  -29.8985  -11.7528   17.6602 H   0  0  0  0  0  0
  -29.5813  -13.4709   17.6664 H   0  0  0  0  0  0
  -28.0147  -11.2781   19.0499 H   0  0  0  0  0  0
  -27.4101  -12.3856   17.8443 H   0  0  0  0  0  0
  -27.5549  -14.2508   19.3663 H   0  0  0  0  0  0
  -28.8037  -12.4294   21.4763 H   0  0  0  0  0  0
  -28.3013  -14.0822   21.7307 H   0  0  0  0  0  0
  -25.2783   -9.5680   22.4765 H   0  0  0  0  0  0
  -24.0000   -7.4641   22.7485 H   0  0  0  0  0  0
  -21.0858   -8.8788   19.8955 H   0  0  0  0  0  0
  -22.3729  -10.9675   19.6154 H   0  0  0  0  0  0
  -21.2013   -7.6150   23.9712 H   0  0  0  0  0  0
  -21.1479   -6.0527   25.9075 H   0  0  0  0  0  0
  -22.0598   -2.7609   23.2849 H   0  0  0  0  0  0
  -22.4069  -11.9840   22.4809 H   0  0  0  0  0  0
  -21.1045  -13.1178   22.2644 H   0  0  0  0  0  0
  -24.6464  -15.8529   20.5477 H   0  0  0  0  0  0
  -26.2690  -15.6417   20.1203 H   0  0  0  0  0  0
  -26.7366  -32.5154   23.0898 H   0  0  0  0  0  0
  -25.0136  -33.9499   25.0242 H   0  0  0  0  0  0
  -22.7829  -31.2734   21.3530 H   0  0  0  0  0  0
  -23.3766  -35.9526   23.3282 H   0  0  0  0  0  0
  -24.3572  -36.8863   22.2060 H   0  0  0  0  0  0
  -23.7235  -37.6386   23.6704 H   0  0  0  0  0  0
  -26.2120  -31.3887   20.6165 H   0  0  0  0  0  0
  -26.9026  -30.7052   22.0473 H   0  0  0  0  0  0
  -28.1375  -28.6234   21.2922 H   0  0  0  0  0  0
  -25.8795  -25.7772   18.9682 H   0  0  0  0  0  0
  -24.0037  -27.2881   18.9362 H   0  0  0  0  0  0
  -23.8587  -30.5317   19.3868 H   0  0  0  0  0  0
  -22.8198  -29.2129   19.8288 H   0  0  0  0  0  0
  -25.1318  -36.1769   25.0797 H   0  0  0  0  0  0
  -21.0045  -28.3353   24.1308 H   0  0  0  0  0  0
  -20.5656  -26.2368   23.3637 H   0  0  0  0  0  0
  -21.6658  -26.7395   22.1218 H   0  0  0  0  0  0
  -19.6933  -25.6276   21.1257 H   0  0  0  0  0  0
  -19.6713  -27.3173   20.6732 H   0  0  0  0  0  0
  -17.4219  -26.6694   21.4018 H   0  0  0  0  0  0
  -18.0353  -26.0090   22.9015 H   0  0  0  0  0  0
  -19.7981  -30.7316   24.2200 H   0  0  0  0  0  0
  -17.5048  -31.6272   24.5173 H   0  0  0  0  0  0
  -15.5385  -30.2978   23.7689 H   0  0  0  0  0  0
  -15.8704  -28.0814   22.7099 H   0  0  0  0  0  0
  -24.5942  -30.7032   25.7683 H   0  0  0  0  0  0
  -24.8793  -32.2969   26.4582 H   0  0  0  0  0  0
  -25.7944  -30.9105   27.0246 H   0  0  0  0  0  0
  -26.3079  -29.6596   24.1354 H   0  0  0  0  0  0
  -27.3940  -29.7228   25.5015 H   0  0  0  0  0  0
  -27.9032  -30.4069   23.9794 H   0  0  0  0  0  0
  -27.2673  -33.3705   26.1872 H   0  0  0  0  0  0
  -28.3980  -32.6713   25.0380 H   0  0  0  0  0  0
  -28.0598  -31.8543   26.5551 H   0  0  0  0  0  0
  -28.2562  -38.0072   24.7514 H   0  0  0  0  0  0
  -28.1074  -36.2596   24.6296 H   0  0  0  0  0  0
  -27.2282  -37.1402   25.8874 H   0  0  0  0  0  0
  -20.9568  -29.8764   21.6704 H   0  0  0  0  0  0
  -26.0115  -38.2770   24.1434 H   0  0  0  0  0  0
  -30.2134  -22.4982   18.8727 H   0  0  0  0  0  0
  -31.5390  -17.6874   22.1398 H   0  0  0  0  0  0
  -30.1927  -18.4341   23.0829 H   0  0  0  0  0  0
  -28.6979  -16.4953   22.7150 H   0  0  0  0  0  0
  -30.2639  -15.6589   22.8131 H   0  0  0  0  0  0
  -28.6844  -18.0791   21.1741 H   0  0  0  0  0  0
  -27.8405  -19.3139   23.0236 H   0  0  0  0  0  0
  -26.6368  -19.0085   21.7626 H   0  0  0  0  0  0
  -26.5728  -20.4894   22.7115 H   0  0  0  0  0  0
  -26.8501  -24.1760   20.2303 H   0  0  0  0  0  0
  -27.8408  -24.3015   18.8281 H   0  0  0  0  0  0
  1 25  1  0  0  0
  1 30  2  0  0  0
  1 82  1  0  0  0
  2  3  1  0  0  0
  2 25  1  0  0  0
  2 83  1  0  0  0
  2 84  1  0  0  0
  3  4  1  0  0  0
  3 85  1  0  0  0
  3 86  1  0  0  0
  4  5  1  0  0  0
  4 87  1  0  0  0
  4 88  1  0  0  0
  5  6  1  0  0  0
  5 26  1  0  0  0
  5 89  1  0  0  0
  6 25  1  0  0  0
  6 90  1  0  0  0
  6 91  1  0  0  0
  7  8  2  0  0  0
  7 26  1  0  0  0
  7 29  1  0  0  0
  8  9  1  0  0  0
  8 22  1  0  0  0
  9 10  1  0  0  0
  9 27  2  0  0  0
 10 11  2  0  0  0
 10 15  1  0  0  0
 11 12  1  0  0  0
 11 92  1  0  0  0
 12 13  2  0  0  0
 12 93  1  0  0  0
 13 14  1  0  0  0
 13 31  1  0  0  0
 14 15  2  0  0  0
 14 94  1  0  0  0
 15 95  1  0  0  0
 16 17  2  0  0  0
 16 21  1  0  0  0
 16 31  1  0  0  0
 17 18  1  0  0  0
 17 96  1  0  0  0
 18 19  2  0  0  0
 18 97  1  0  0  0
 19 20  1  0  0  0
 19 24  1  0  0  0
 20 21  2  0  0  0
 20 98  1  0  0  0
 21 23  1  0  0  0
 22 28  1  0  0  0
 22 32  2  0  0  0
 26 27  1  0  0  0
 28 99  1  0  0  0
 28100  1  0  0  0
 29101  1  0  0  0
 29102  1  0  0  0
 33 34  1  0  0  0
 33 66  1  0  0  0
 33 70  2  0  0  0
 34 36  1  0  0  0
 34 59  1  0  0  0
 34103  1  0  0  0
 35 44  2  0  0  0
 35 45  1  0  0  0
 35 68  1  0  0  0
 36 56  1  0  0  0
 36104  1  0  0  0
 37 39  1  0  0  0
 37 47  1  0  0  0
 37 66  1  0  0  0
 37105  1  0  0  0
 38 43  2  0  0  0
 38 46  1  0  0  0
 38 47  1  0  0  0
 39 64  1  0  0  0
 39 67  2  0  0  0
 40 52  1  0  0  0
 40 53  2  0  0  0
 40 58  1  0  0  0
 41106  1  0  0  0
 41107  1  0  0  0
 41108  1  0  0  0
 41 48  1  0  0  0
 42 43  1  0  0  0
 42 66  1  0  0  0
 42109  1  0  0  0
 42110  1  0  0  0
 43 44  1  0  0  0
 44111  1  0  0  0
 45 46  2  0  0  0
 45112  1  0  0  0
 46113  1  0  0  0
 47114  1  0  0  0
 47115  1  0  0  0
 48 56  1  0  0  0
 48 65  1  0  0  0
 48116  1  0  0  0
 49 50  1  0  0  0
 49 53  1  0  0  0
 49 64  1  0  0  0
 49117  1  0  0  0
 50 51  1  0  0  0
 50118  1  0  0  0
 50119  1  0  0  0
 51 52  1  0  0  0
 51120  1  0  0  0
 51121  1  0  0  0
 52122  1  0  0  0
 52123  1  0  0  0
 53 54  1  0  0  0
 54 55  2  0  0  0
 54124  1  0  0  0
 55 57  1  0  0  0
 55125  1  0  0  0
 56 69  2  0  0  0
 57 58  2  0  0  0
 57126  1  0  0  0
 58127  1  0  0  0
 59 60  1  0  0  0
 59 61  1  0  0  0
 59 62  1  0  0  0
 60128  1  0  0  0
 60129  1  0  0  0
 60130  1  0  0  0
 61131  1  0  0  0
 61132  1  0  0  0
 61133  1  0  0  0
 62134  1  0  0  0
 62135  1  0  0  0
 62136  1  0  0  0
 63 65  1  0  0  0
 63137  1  0  0  0
 63138  1  0  0  0
 63139  1  0  0  0
 64140  1  0  0  0
 65141  1  0  0  0
 68 79  1  0  0  0
 71 73  2  0  0  0
 71 80  1  0  0  0
 71142  1  0  0  0
 72 74  1  0  0  0
 72 80  2  0  0  0
 72 77  1  0  0  0
 73 79  1  0  0  0
 73 81  1  0  0  0
 74 78  1  0  0  0
 74 81  2  0  0  0
 75 76  1  0  0  0
 75 77  1  0  0  0
 75143  1  0  0  0
 75144  1  0  0  0
 76 82  1  0  0  0
 76145  1  0  0  0
 76146  1  0  0  0
 77 82  1  0  0  0
 77147  1  0  0  0
 78148  1  0  0  0
 78149  1  0  0  0
 78150  1  0  0  0
 79151  1  0  0  0
 79152  1  0  0  0
M  ISO  4   1 100  68 101  79 101  82 100
M  END
> <chiral flag>
0

> <version>
0

> <s_m_source_file>
/data/baiqing/PycharmProjects/Reinvent-master-3.2/result/LINK_invent/BTK/process_docking_weight1_custom_sum_contain_oxygen_bond_distance_aromatic_linkinvent_7_9_3/rearranged_h_0184.sdf

> <i_m_source_file_index>
26

> <r_mmod_Potential_Energy-OPLS-2005>
1459.74609375

> <r_mmod_Stretch_Energy-OPLS-2005>
501.716491699219

> <r_mmod_Bend_Energy-OPLS-2005>
629.012634277344

> <r_mmod_Torsional_Energy-OPLS-2005>
260.475128173828

> <r_mmod_Improper_Torsional_Energy-OPLS-2005>
15.8553848266602

> <r_mmod_Van_der_Waal_Energy-OPLS-2005>
152.288864135742

> <r_mmod_Electrostatic_Energy-OPLS-2005>
-258.097259521484

> <r_mmod_Solvation_Energy-OPLS-2005>
-230.096282958984

> <b_mmod_Minimization_Converged-OPLS-2005>
0

> <r_mmod_RMS_Derivative-OPLS-2005>
1.25712466239929

$$$$
26
                    3D
 Structure written by MMmdl.
150159  0  0  1  0            999 V2000
  -30.5436  -14.9810   20.4596 C   0  0  0  0  0  0
  -30.4372  -12.6227   19.5052 C   0  0  0  0  0  0
  -29.5173  -12.5361   18.2641 C   0  0  0  0  0  0
  -28.0551  -12.3100   18.6857 C   0  0  0  0  0  0
  -27.6278  -13.2519   19.8400 C   0  0  2  0  0  0
  -28.6654  -13.3040   20.9812 C   0  0  0  0  0  0
  -25.2476  -13.8239   20.5752 C   0  0  0  0  0  0
  -24.1770  -13.0463   20.9233 C   0  0  0  0  0  0
  -24.6388  -11.6944   20.8757 C   0  0  0  0  0  0
  -23.9077  -10.4306   21.0415 C   0  0  0  0  0  0
  -24.3635   -9.4211   21.9180 C   0  0  0  0  0  0
  -23.6310   -8.2245   22.0748 C   0  0  0  0  0  0
  -22.4280   -8.0284   21.3549 C   0  0  0  0  0  0
  -21.9925   -9.0258   20.4638 C   0  0  0  0  0  0
  -22.7260  -10.2141   20.3051 C   0  0  0  0  0  0
  -21.6852   -6.0741   22.5277 C   0  0  0  0  0  0
  -21.4004   -6.5654   23.8204 C   0  0  0  0  0  0
  -21.3647   -5.6805   24.9177 C   0  0  0  0  0  0
  -21.6031   -4.3064   24.7218 C   0  0  0  0  0  0
  -21.8823   -3.8163   23.4344 C   0  0  0  0  0  0
  -21.9192   -4.6973   22.3408 C   0  0  0  0  0  0
  -22.7788  -13.5221   21.1891 C   0  0  0  0  0  0
  -22.1666   -4.2152   21.0981 F   0  0  0  0  0  0
  -21.5625   -3.4553   25.7739 F   0  0  0  0  0  0
  -29.9365  -13.7240   20.3833 N   0  0  0  0  0  0
  -26.2881  -12.9466   20.3277 N   0  0  0  0  0  0
  -25.9324  -11.6592   20.5756 N   0  0  0  0  0  0
  -22.0449  -12.8205   22.0445 N   0  0  0  0  0  0
  -25.4222  -15.1966   20.4272 N   0  0  0  0  0  0
  -31.7459  -15.0259   20.1741 O   0  0  0  0  0  0
  -21.6648   -6.8883   21.4232 O   0  0  0  0  0  0
  -22.3472  -14.5520   20.6727 O   0  0  0  0  0  0
  -24.6445  -31.8402   23.1858 C   0  0  0  0  0  0
  -25.9216  -32.4677   23.8245 C   0  0  1  0  0  0
  -27.2136  -27.0943   20.1601 C   0  0  0  0  0  0
  -25.5961  -33.8476   24.2151 N   0  0  0  0  0  0
  -23.4532  -30.4623   21.5297 C   0  0  2  0  0  0
  -24.9059  -28.8867   20.1082 C   0  0  0  0  0  0
  -22.7581  -29.4551   22.4821 C   0  0  0  0  0  0
  -18.0298  -28.1414   22.8485 C   0  0  0  0  0  0
  -24.1472  -36.7221   23.2659 C   0  0  0  0  0  0
  -26.0129  -30.7022   21.3944 C   0  0  0  0  0  0
  -26.0836  -29.3098   20.7348 C   0  0  0  0  0  0
  -27.2354  -28.4287   20.7504 C   0  0  0  0  0  0
  -26.0187  -26.8020   19.4630 C   0  0  0  0  0  0
  -24.8887  -27.6477   19.4564 C   0  0  0  0  0  0
  -23.6809  -29.7898   20.1496 C   0  0  0  0  0  0
  -25.4107  -36.3003   24.0319 C   0  0  1  0  0  0
  -20.5923  -28.3733   23.1216 C   0  0  2  0  0  0
  -20.6769  -26.9429   22.5400 C   0  0  0  0  0  0
  -19.5735  -26.6384   21.5223 C   0  0  0  0  0  0
  -18.1919  -26.7958   22.1629 C   0  0  0  0  0  0
  -19.1561  -28.8900   23.2837 C   0  0  0  0  0  0
  -18.9475  -30.1494   23.8868 C   0  0  0  0  0  0
  -17.6471  -30.6601   24.0575 C   0  0  0  0  0  0
  -25.9056  -34.9395   23.5028 C   0  0  0  0  0  0
  -16.5355  -29.9102   23.6357 C   0  0  0  0  0  0
  -16.7279  -28.6518   23.0377 C   0  0  0  0  0  0
  -26.4530  -31.6569   25.0701 C   0  0  0  0  0  0
  -25.3705  -31.3802   26.1384 C   0  0  0  0  0  0
  -27.0413  -30.2959   24.6323 C   0  0  0  0  0  0
  -27.6057  -32.4368   25.7466 C   0  0  0  0  0  0
  -27.5542  -37.1757   24.8477 C   0  0  0  0  0  0
  -21.4274  -29.3057   22.3577 N   0  0  0  0  0  0
  -26.4254  -37.3732   23.9414 N   0  0  0  0  0  0
  -24.7236  -31.0242   22.0902 N   0  0  0  0  0  0
  -23.4207  -28.8092   23.2979 O   0  0  0  0  0  0
  -28.2238  -26.0512   20.2805 O   0  0  0  0  0  0
  -26.5668  -34.8918   22.4624 O   0  0  0  0  0  0
  -23.5545  -32.1293   23.7046 O   0  0  0  0  0  0
  -28.4209  -20.8610   21.6112 C   0  0  0  0  0  0
  -28.1546  -22.2877   21.4777 C   0  0  0  0  0  0
  -29.5102  -20.9394   19.5586 C   0  0  0  0  0  0
  -29.1093  -20.0630   20.6305 C   0  0  0  0  0  0
  -28.5617  -23.0815   20.3534 C   0  0  0  0  0  0
  -29.5689  -17.2851   19.6165 C   0  0  0  0  0  0
  -30.1800  -17.3946   21.5135 C   0  0  0  0  0  0
  -29.2411  -18.3911   20.7054 C   0  0  0  0  0  0
  -27.8748  -24.5549   19.9394 C   0  0  0  0  0  0
  -29.2508  -22.3160   19.4252 N   0  0  0  0  0  0
  -29.7921  -16.1902   20.6549 N   0  0  0  0  0  0
  -31.4663  -12.7914   19.1845 H   0  0  0  0  0  0
  -30.4497  -11.6779   20.0500 H   0  0  0  0  0  0
  -29.8466  -11.7287   17.6084 H   0  0  0  0  0  0
  -29.5913  -13.4551   17.6814 H   0  0  0  0  0  0
  -27.9654  -11.2725   19.0084 H   0  0  0  0  0  0
  -27.3867  -12.4214   17.8318 H   0  0  0  0  0  0
  -27.5843  -14.2489   19.4001 H   0  0  0  0  0  0
  -28.7637  -12.3393   21.4802 H   0  0  0  0  0  0
  -28.3531  -14.0201   21.7429 H   0  0  0  0  0  0
  -25.2781   -9.5686   22.4753 H   0  0  0  0  0  0
  -24.0008   -7.4638   22.7479 H   0  0  0  0  0  0
  -21.0848   -8.8784   19.8950 H   0  0  0  0  0  0
  -22.3719  -10.9680   19.6157 H   0  0  0  0  0  0
  -21.1991   -7.6159   23.9708 H   0  0  0  0  0  0
  -21.1454   -6.0540   25.9068 H   0  0  0  0  0  0
  -22.0605   -2.7620   23.2851 H   0  0  0  0  0  0
  -22.4099  -11.9858   22.4799 H   0  0  0  0  0  0
  -21.1053  -13.1194   22.2663 H   0  0  0  0  0  0
  -24.6741  -15.8639   20.5743 H   0  0  0  0  0  0
  -26.3006  -15.6323   20.1782 H   0  0  0  0  0  0
  -26.7268  -32.5270   23.0949 H   0  0  0  0  0  0
  -25.0106  -33.9585   25.0304 H   0  0  0  0  0  0
  -22.7563  -31.2872   21.3695 H   0  0  0  0  0  0
  -23.3750  -35.9539   23.3349 H   0  0  0  0  0  0
  -24.3549  -36.8817   22.2065 H   0  0  0  0  0  0
  -23.7200  -37.6415   23.6677 H   0  0  0  0  0  0
  -26.1766  -31.4552   20.6221 H   0  0  0  0  0  0
  -26.8821  -30.7539   22.0394 H   0  0  0  0  0  0
  -28.1220  -28.7408   21.2857 H   0  0  0  0  0  0
  -25.8984  -25.8685   18.9380 H   0  0  0  0  0  0
  -23.9935  -27.3189   18.9487 H   0  0  0  0  0  0
  -23.8115  -30.5623   19.3903 H   0  0  0  0  0  0
  -22.7951  -29.2300   19.8416 H   0  0  0  0  0  0
  -25.1294  -36.1836   25.0811 H   0  0  0  0  0  0
  -20.9995  -28.3339   24.1345 H   0  0  0  0  0  0
  -20.5678  -26.2355   23.3632 H   0  0  0  0  0  0
  -21.6629  -26.7422   22.1181 H   0  0  0  0  0  0
  -19.6900  -25.6302   21.1258 H   0  0  0  0  0  0
  -19.6689  -27.3188   20.6756 H   0  0  0  0  0  0
  -17.4183  -26.6720   21.4034 H   0  0  0  0  0  0
  -18.0291  -26.0117   22.9036 H   0  0  0  0  0  0
  -19.7955  -30.7326   24.2207 H   0  0  0  0  0  0
  -17.5020  -31.6292   24.5172 H   0  0  0  0  0  0
  -15.5359  -30.2987   23.7734 H   0  0  0  0  0  0
  -15.8668  -28.0838   22.7117 H   0  0  0  0  0  0
  -24.5856  -30.7199   25.7695 H   0  0  0  0  0  0
  -24.8949  -32.3020   26.4756 H   0  0  0  0  0  0
  -25.7951  -30.8987   27.0204 H   0  0  0  0  0  0
  -26.3056  -29.6670   24.1306 H   0  0  0  0  0  0
  -27.3990  -29.7278   25.4922 H   0  0  0  0  0  0
  -27.8967  -30.4199   23.9682 H   0  0  0  0  0  0
  -27.2640  -33.3726   26.1909 H   0  0  0  0  0  0
  -28.3902  -32.6841   25.0307 H   0  0  0  0  0  0
  -28.0674  -31.8595   26.5476 H   0  0  0  0  0  0
  -28.2578  -38.0035   24.7487 H   0  0  0  0  0  0
  -28.1008  -36.2562   24.6345 H   0  0  0  0  0  0
  -27.2271  -37.1437   25.8887 H   0  0  0  0  0  0
  -20.9476  -29.8741   21.6741 H   0  0  0  0  0  0
  -26.0130  -38.2797   24.1464 H   0  0  0  0  0  0
  -28.0164  -20.3577   22.4790 H   0  0  0  0  0  0
  -27.5455  -22.7627   22.2358 H   0  0  0  0  0  0
  -30.0264  -20.5017   18.7172 H   0  0  0  0  0  0
  -30.4641  -17.5156   19.0305 H   0  0  0  0  0  0
  -28.7294  -17.0972   18.9460 H   0  0  0  0  0  0
  -29.8955  -17.3041   22.5634 H   0  0  0  0  0  0
  -31.2412  -17.6531   21.4494 H   0  0  0  0  0  0
  -28.2333  -18.1524   21.0569 H   0  0  0  0  0  0
  -26.8486  -24.4139   20.2712 H   0  0  0  0  0  0
  -27.8250  -24.5329   18.8496 H   0  0  0  0  0  0
  1 25  1  0  0  0
  1 30  2  0  0  0
  1 81  1  0  0  0
  2  3  1  0  0  0
  2 25  1  0  0  0
  2 82  1  0  0  0
  2 83  1  0  0  0
  3  4  1  0  0  0
  3 84  1  0  0  0
  3 85  1  0  0  0
  4  5  1  0  0  0
  4 86  1  0  0  0
  4 87  1  0  0  0
  5  6  1  0  0  0
  5 26  1  0  0  0
  5 88  1  0  0  0
  6 25  1  0  0  0
  6 89  1  0  0  0
  6 90  1  0  0  0
  7  8  2  0  0  0
  7 26  1  0  0  0
  7 29  1  0  0  0
  8  9  1  0  0  0
  8 22  1  0  0  0
  9 10  1  0  0  0
  9 27  2  0  0  0
 10 11  2  0  0  0
 10 15  1  0  0  0
 11 12  1  0  0  0
 11 91  1  0  0  0
 12 13  2  0  0  0
 12 92  1  0  0  0
 13 14  1  0  0  0
 13 31  1  0  0  0
 14 15  2  0  0  0
 14 93  1  0  0  0
 15 94  1  0  0  0
 16 17  2  0  0  0
 16 21  1  0  0  0
 16 31  1  0  0  0
 17 18  1  0  0  0
 17 95  1  0  0  0
 18 19  2  0  0  0
 18 96  1  0  0  0
 19 20  1  0  0  0
 19 24  1  0  0  0
 20 21  2  0  0  0
 20 97  1  0  0  0
 21 23  1  0  0  0
 22 28  1  0  0  0
 22 32  2  0  0  0
 26 27  1  0  0  0
 28 98  1  0  0  0
 28 99  1  0  0  0
 29100  1  0  0  0
 29101  1  0  0  0
 33 34  1  0  0  0
 33 66  1  0  0  0
 33 70  2  0  0  0
 34 36  1  0  0  0
 34 59  1  0  0  0
 34102  1  0  0  0
 35 44  2  0  0  0
 35 45  1  0  0  0
 35 68  1  0  0  0
 36 56  1  0  0  0
 36103  1  0  0  0
 37 39  1  0  0  0
 37 47  1  0  0  0
 37 66  1  0  0  0
 37104  1  0  0  0
 38 43  2  0  0  0
 38 46  1  0  0  0
 38 47  1  0  0  0
 39 64  1  0  0  0
 39 67  2  0  0  0
 40 52  1  0  0  0
 40 53  2  0  0  0
 40 58  1  0  0  0
 41105  1  0  0  0
 41106  1  0  0  0
 41107  1  0  0  0
 41 48  1  0  0  0
 42 43  1  0  0  0
 42 66  1  0  0  0
 42108  1  0  0  0
 42109  1  0  0  0
 43 44  1  0  0  0
 44110  1  0  0  0
 45 46  2  0  0  0
 45111  1  0  0  0
 46112  1  0  0  0
 47113  1  0  0  0
 47114  1  0  0  0
 48 56  1  0  0  0
 48 65  1  0  0  0
 48115  1  0  0  0
 49 50  1  0  0  0
 49 53  1  0  0  0
 49 64  1  0  0  0
 49116  1  0  0  0
 50 51  1  0  0  0
 50117  1  0  0  0
 50118  1  0  0  0
 51 52  1  0  0  0
 51119  1  0  0  0
 51120  1  0  0  0
 52121  1  0  0  0
 52122  1  0  0  0
 53 54  1  0  0  0
 54 55  2  0  0  0
 54123  1  0  0  0
 55 57  1  0  0  0
 55124  1  0  0  0
 56 69  2  0  0  0
 57 58  2  0  0  0
 57125  1  0  0  0
 58126  1  0  0  0
 59 60  1  0  0  0
 59 61  1  0  0  0
 59 62  1  0  0  0
 60127  1  0  0  0
 60128  1  0  0  0
 60129  1  0  0  0
 61130  1  0  0  0
 61131  1  0  0  0
 61132  1  0  0  0
 62133  1  0  0  0
 62134  1  0  0  0
 62135  1  0  0  0
 63 65  1  0  0  0
 63136  1  0  0  0
 63137  1  0  0  0
 63138  1  0  0  0
 64139  1  0  0  0
 65140  1  0  0  0
 68 79  1  0  0  0
 71 72  2  0  0  0
 71 74  1  0  0  0
 71141  1  0  0  0
 72 75  1  0  0  0
 72142  1  0  0  0
 73 74  2  0  0  0
 73 80  1  0  0  0
 73143  1  0  0  0
 74 78  1  0  0  0
 75 79  1  0  0  0
 75 80  2  0  0  0
 76 78  1  0  0  0
 76 81  1  0  0  0
 76144  1  0  0  0
 76145  1  0  0  0
 77 78  1  0  0  0
 77 81  1  0  0  0
 77146  1  0  0  0
 77147  1  0  0  0
 78148  1  0  0  0
 79149  1  0  0  0
 79150  1  0  0  0
M  ISO  4   1 100  68 101  79 101  81 100
M  END
> <chiral flag>
0

> <version>
0

> <s_m_source_file>
/data/baiqing/PycharmProjects/Reinvent-master-3.2/result/LINK_invent/BTK/process_docking_weight1_custom_sum_contain_oxygen_bond_distance_aromatic_linkinvent_7_9_3/rearranged_h_0184.sdf

> <i_m_source_file_index>
27

> <r_mmod_Potential_Energy-OPLS-2005>
552.340087890625

> <r_mmod_Stretch_Energy-OPLS-2005>
257.19580078125

> <r_mmod_Bend_Energy-OPLS-2005>
299.313385009766

> <r_mmod_Torsional_Energy-OPLS-2005>
275.3916015625

> <r_mmod_Improper_Torsional_Energy-OPLS-2005>
15.6697864532471

> <r_mmod_Van_der_Waal_Energy-OPLS-2005>
136.783309936523

> <r_mmod_Electrostatic_Energy-OPLS-2005>
-445.459014892578

> <r_mmod_Solvation_Energy-OPLS-2005>
-216.856018066406

> <b_mmod_Minimization_Converged-OPLS-2005>
0

> <r_mmod_RMS_Derivative-OPLS-2005>
3.63303017616272

$$$$
27
                    3D
 Structure written by MMmdl.
166175  0  0  1  0            999 V2000
  -30.7159  -14.4286   20.6207 C   0  0  0  0  0  0
  -30.4230  -12.3013   19.4068 C   0  0  0  0  0  0
  -29.4893  -12.5088   18.1969 C   0  0  0  0  0  0
  -28.0111  -12.3713   18.6118 C   0  0  0  0  0  0
  -27.6631  -13.2023   19.8760 C   0  0  2  0  0  0
  -28.7023  -12.9619   20.9935 C   0  0  0  0  0  0
  -25.2600  -13.8152   20.5673 C   0  0  0  0  0  0
  -24.1843  -13.0442   20.9174 C   0  0  0  0  0  0
  -24.6391  -11.6904   20.8732 C   0  0  0  0  0  0
  -23.9055  -10.4295   21.0395 C   0  0  0  0  0  0
  -24.3606   -9.4212   21.9183 C   0  0  0  0  0  0
  -23.6295   -8.2238   22.0751 C   0  0  0  0  0  0
  -22.4273   -8.0276   21.3541 C   0  0  0  0  0  0
  -21.9905   -9.0250   20.4641 C   0  0  0  0  0  0
  -22.7227  -10.2140   20.3052 C   0  0  0  0  0  0
  -21.6848   -6.0742   22.5281 C   0  0  0  0  0  0
  -21.3998   -6.5646   23.8213 C   0  0  0  0  0  0
  -21.3659   -5.6794   24.9176 C   0  0  0  0  0  0
  -21.6051   -4.3065   24.7224 C   0  0  0  0  0  0
  -21.8822   -3.8154   23.4347 C   0  0  0  0  0  0
  -21.9187   -4.6965   22.3402 C   0  0  0  0  0  0
  -22.7865  -13.5246   21.1844 C   0  0  0  0  0  0
  -22.1658   -4.2148   21.0982 F   0  0  0  0  0  0
  -21.5637   -3.4552   25.7738 F   0  0  0  0  0  0
  -30.0355  -13.2645   20.4469 N   0  0  0  0  0  0
  -26.3031  -12.9312   20.3375 N   0  0  0  0  0  0
  -25.9312  -11.6477   20.5761 N   0  0  0  0  0  0
  -22.0482  -12.8239   22.0389 N   0  0  0  0  0  0
  -25.4354  -15.1859   20.4060 N   0  0  0  0  0  0
  -31.8114  -14.6568   20.0972 O   0  0  0  0  0  0
  -21.6637   -6.8879   21.4246 O   0  0  0  0  0  0
  -22.3560  -14.5569   20.6719 O   0  0  0  0  0  0
  -24.6098  -31.8705   23.2124 C   0  0  0  0  0  0
  -25.9011  -32.4838   23.8408 C   0  0  1  0  0  0
  -27.2583  -27.4820   20.0949 C   0  0  0  0  0  0
  -25.5869  -33.8631   24.2338 N   0  0  0  0  0  0
  -23.3972  -30.4913   21.5514 C   0  0  2  0  0  0
  -24.8494  -28.9616   20.1184 C   0  0  0  0  0  0
  -22.7393  -29.4664   22.5021 C   0  0  0  0  0  0
  -18.0275  -28.1391   22.8485 C   0  0  0  0  0  0
  -24.1482  -36.7324   23.2640 C   0  0  0  0  0  0
  -25.9181  -30.8535   21.3565 C   0  0  0  0  0  0
  -26.0028  -29.4888   20.7113 C   0  0  0  0  0  0
  -27.2085  -28.7601   20.7020 C   0  0  0  0  0  0
  -26.0885  -26.9626   19.5046 C   0  0  0  0  0  0
  -24.8842  -27.6935   19.5125 C   0  0  0  0  0  0
  -23.6052  -29.8175   20.1680 C   0  0  0  0  0  0
  -25.4099  -36.3113   24.0347 C   0  0  1  0  0  0
  -20.5858  -28.3656   23.1342 C   0  0  2  0  0  0
  -20.6771  -26.9402   22.5424 C   0  0  0  0  0  0
  -19.5759  -26.6393   21.5219 C   0  0  0  0  0  0
  -18.1928  -26.7943   22.1605 C   0  0  0  0  0  0
  -19.1521  -28.8841   23.2911 C   0  0  0  0  0  0
  -18.9450  -30.1447   23.8917 C   0  0  0  0  0  0
  -17.6450  -30.6587   24.0568 C   0  0  0  0  0  0
  -25.9013  -34.9483   23.5136 C   0  0  0  0  0  0
  -16.5343  -29.9091   23.6323 C   0  0  0  0  0  0
  -16.7265  -28.6513   23.0333 C   0  0  0  0  0  0
  -26.4474  -31.6611   25.0713 C   0  0  0  0  0  0
  -25.3761  -31.3720   26.1474 C   0  0  0  0  0  0
  -27.0283  -30.3053   24.6043 C   0  0  0  0  0  0
  -27.6061  -32.4320   25.7456 C   0  0  0  0  0  0
  -27.5589  -37.1805   24.8454 C   0  0  0  0  0  0
  -21.4129  -29.3016   22.3743 N   0  0  0  0  0  0
  -26.4291  -37.3794   23.9416 N   0  0  0  0  0  0
  -24.6600  -31.0842   22.1003 N   0  0  0  0  0  0
  -23.4182  -28.8217   23.3065 O   0  0  0  0  0  0
  -28.3890  -26.6991   20.0299 O   0  0  0  0  0  0
  -26.5572  -34.8932   22.4695 O   0  0  0  0  0  0
  -23.5298  -32.1435   23.7536 O   0  0  0  0  0  0
  -29.3499  -22.2882   21.6283 C   0  0  0  0  0  0
  -29.9705  -21.0189   21.5630 C   0  0  0  0  0  0
  -30.1869  -23.4023   21.4441 C   0  0  0  0  0  0
  -31.9872  -22.0294   21.1509 C   0  0  0  0  0  0
  -29.6784  -16.6465   20.6817 C   0  0  0  0  0  0
  -30.7874  -16.1922   22.3378 C   0  0  0  0  0  0
  -29.7311  -17.2559   22.0757 C   0  0  0  0  0  0
  -27.8537  -22.4443   21.8961 C   0  0  0  0  0  0
  -33.4661  -21.9008   20.8647 C   0  0  0  0  0  0
  -29.2208  -19.7047   21.7732 C   0  0  0  0  0  0
  -30.4122  -25.8111   20.9212 C   0  0  0  0  0  0
  -29.5150  -27.0510   20.8294 C   0  0  0  0  0  0
  -31.2962  -20.9041   21.3196 N   0  0  0  0  0  0
  -31.4985  -23.2608   21.2139 N   0  0  0  0  0  0
  -30.0716  -15.3773   21.3341 N   0  0  0  0  0  0
  -29.6849  -24.7008   21.5291 N   0  0  0  0  0  0
  -30.1734  -18.6686   22.2061 N   0  3  0  0  0  0
  -31.4660  -12.4105   19.1037 H   0  0  0  0  0  0
  -30.3329  -11.2842   19.7908 H   0  0  0  0  0  0
  -29.7263  -11.7865   17.4145 H   0  0  0  0  0  0
  -29.6565  -13.4954   17.7620 H   0  0  0  0  0  0
  -27.8154  -11.3150   18.7993 H   0  0  0  0  0  0
  -27.3591  -12.6540   17.7844 H   0  0  0  0  0  0
  -27.7153  -14.2536   19.5899 H   0  0  0  0  0  0
  -28.6738  -11.9211   21.3225 H   0  0  0  0  0  0
  -28.4584  -13.5513   21.8791 H   0  0  0  0  0  0
  -25.2745   -9.5703   22.4761 H   0  0  0  0  0  0
  -24.0005   -7.4635   22.7472 H   0  0  0  0  0  0
  -21.0834   -8.8770   19.8945 H   0  0  0  0  0  0
  -22.3676  -10.9681   19.6165 H   0  0  0  0  0  0
  -21.1970   -7.6150   23.9733 H   0  0  0  0  0  0
  -21.1483   -6.0514   25.9091 H   0  0  0  0  0  0
  -22.0596   -2.7612   23.2840 H   0  0  0  0  0  0
  -22.4053  -11.9876   22.4767 H   0  0  0  0  0  0
  -21.1117  -13.1301   22.2601 H   0  0  0  0  0  0
  -24.6729  -15.8462   20.5095 H   0  0  0  0  0  0
  -26.2937  -15.6180   20.0917 H   0  0  0  0  0  0
  -26.7086  -32.5575   23.1190 H   0  0  0  0  0  0
  -25.0048  -33.9790   25.0502 H   0  0  0  0  0  0
  -22.6841  -31.3058   21.4097 H   0  0  0  0  0  0
  -23.3739  -35.9658   23.3290 H   0  0  0  0  0  0
  -24.3590  -36.8934   22.2051 H   0  0  0  0  0  0
  -23.7228  -37.6535   23.6645 H   0  0  0  0  0  0
  -26.0135  -31.6187   20.5847 H   0  0  0  0  0  0
  -26.8118  -30.9179   21.9660 H   0  0  0  0  0  0
  -28.0870  -29.1989   21.1524 H   0  0  0  0  0  0
  -26.1124  -25.9875   19.0382 H   0  0  0  0  0  0
  -23.9985  -27.2799   19.0505 H   0  0  0  0  0  0
  -23.7018  -30.5876   19.4020 H   0  0  0  0  0  0
  -22.7345  -29.2254   19.8815 H   0  0  0  0  0  0
  -25.1284  -36.1978   25.0844 H   0  0  0  0  0  0
  -20.9942  -28.3212   24.1463 H   0  0  0  0  0  0
  -20.5685  -26.2266   23.3602 H   0  0  0  0  0  0
  -21.6641  -26.7455   22.1199 H   0  0  0  0  0  0
  -19.6916  -25.6303   21.1247 H   0  0  0  0  0  0
  -19.6735  -27.3209   20.6757 H   0  0  0  0  0  0
  -17.4219  -26.6711   21.3986 H   0  0  0  0  0  0
  -18.0304  -26.0084   22.8991 H   0  0  0  0  0  0
  -19.7928  -30.7260   24.2294 H   0  0  0  0  0  0
  -17.5009  -31.6268   24.5161 H   0  0  0  0  0  0
  -15.5347  -30.2998   23.7641 H   0  0  0  0  0  0
  -15.8665  -28.0848   22.7025 H   0  0  0  0  0  0
  -24.5893  -30.7121   25.7813 H   0  0  0  0  0  0
  -24.9016  -32.2894   26.4970 H   0  0  0  0  0  0
  -25.8121  -30.8843   27.0200 H   0  0  0  0  0  0
  -26.2797  -29.6809   24.1153 H   0  0  0  0  0  0
  -27.4137  -29.7290   25.4468 H   0  0  0  0  0  0
  -27.8596  -30.4388   23.9112 H   0  0  0  0  0  0
  -27.2690  -33.3606   26.2078 H   0  0  0  0  0  0
  -28.3839  -32.6907   25.0259 H   0  0  0  0  0  0
  -28.0769  -31.8426   26.5335 H   0  0  0  0  0  0
  -28.2584  -38.0125   24.7514 H   0  0  0  0  0  0
  -28.1111  -36.2657   24.6248 H   0  0  0  0  0  0
  -27.2326  -37.1395   25.8863 H   0  0  0  0  0  0
  -20.9295  -29.8705   21.6932 H   0  0  0  0  0  0
  -26.0187  -38.2872   24.1447 H   0  0  0  0  0  0
  -30.4124  -17.0427   19.9736 H   0  0  0  0  0  0
  -28.6765  -16.6420   20.2494 H   0  0  0  0  0  0
  -30.7593  -15.7938   23.3528 H   0  0  0  0  0  0
  -31.8023  -16.4811   22.0544 H   0  0  0  0  0  0
  -28.8180  -17.0687   22.6485 H   0  0  0  0  0  0
  -27.2722  -21.6481   21.4315 H   0  0  0  0  0  0
  -27.4559  -23.3787   21.4997 H   0  0  0  0  0  0
  -27.6621  -22.4286   22.9698 H   0  0  0  0  0  0
  -33.7346  -20.8736   20.6199 H   0  0  0  0  0  0
  -34.0471  -22.2088   21.7337 H   0  0  0  0  0  0
  -33.7466  -22.5323   20.0214 H   0  0  0  0  0  0
  -28.7497  -19.4221   20.8321 H   0  0  0  0  0  0
  -28.4364  -19.8137   22.5217 H   0  0  0  0  0  0
  -31.2985  -26.0361   21.5179 H   0  0  0  0  0  0
  -30.7613  -25.5292   19.9266 H   0  0  0  0  0  0
  -30.0540  -27.8822   20.3713 H   0  0  0  0  0  0
  -29.2206  -27.3562   21.8356 H   0  0  0  0  0  0
  -28.6762  -24.7877   21.5234 H   0  0  0  0  0  0
  -30.9989  -18.8898   21.6653 H   0  0  0  0  0  0
  -30.4087  -18.8779   23.1616 H   0  0  0  0  0  0
  1 25  1  0  0  0
  1 30  2  0  0  0
  1 85  1  0  0  0
  2  3  1  0  0  0
  2 25  1  0  0  0
  2 88  1  0  0  0
  2 89  1  0  0  0
  3  4  1  0  0  0
  3 90  1  0  0  0
  3 91  1  0  0  0
  4  5  1  0  0  0
  4 92  1  0  0  0
  4 93  1  0  0  0
  5  6  1  0  0  0
  5 26  1  0  0  0
  5 94  1  0  0  0
  6 25  1  0  0  0
  6 95  1  0  0  0
  6 96  1  0  0  0
  7  8  2  0  0  0
  7 26  1  0  0  0
  7 29  1  0  0  0
  8  9  1  0  0  0
  8 22  1  0  0  0
  9 10  1  0  0  0
  9 27  2  0  0  0
 10 11  2  0  0  0
 10 15  1  0  0  0
 11 12  1  0  0  0
 11 97  1  0  0  0
 12 13  2  0  0  0
 12 98  1  0  0  0
 13 14  1  0  0  0
 13 31  1  0  0  0
 14 15  2  0  0  0
 14 99  1  0  0  0
 15100  1  0  0  0
 16 17  2  0  0  0
 16 21  1  0  0  0
 16 31  1  0  0  0
 17 18  1  0  0  0
 17101  1  0  0  0
 18 19  2  0  0  0
 18102  1  0  0  0
 19 20  1  0  0  0
 19 24  1  0  0  0
 20 21  2  0  0  0
 20103  1  0  0  0
 21 23  1  0  0  0
 22 28  1  0  0  0
 22 32  2  0  0  0
 26 27  1  0  0  0
 28104  1  0  0  0
 28105  1  0  0  0
 29106  1  0  0  0
 29107  1  0  0  0
 33 34  1  0  0  0
 33 66  1  0  0  0
 33 70  2  0  0  0
 34 36  1  0  0  0
 34 59  1  0  0  0
 34108  1  0  0  0
 35 44  2  0  0  0
 35 45  1  0  0  0
 35 68  1  0  0  0
 36 56  1  0  0  0
 36109  1  0  0  0
 37 39  1  0  0  0
 37 47  1  0  0  0
 37 66  1  0  0  0
 37110  1  0  0  0
 38 43  2  0  0  0
 38 46  1  0  0  0
 38 47  1  0  0  0
 39 64  1  0  0  0
 39 67  2  0  0  0
 40 52  1  0  0  0
 40 53  2  0  0  0
 40 58  1  0  0  0
 41111  1  0  0  0
 41112  1  0  0  0
 41113  1  0  0  0
 41 48  1  0  0  0
 42 43  1  0  0  0
 42 66  1  0  0  0
 42114  1  0  0  0
 42115  1  0  0  0
 43 44  1  0  0  0
 44116  1  0  0  0
 45 46  2  0  0  0
 45117  1  0  0  0
 46118  1  0  0  0
 47119  1  0  0  0
 47120  1  0  0  0
 48 56  1  0  0  0
 48 65  1  0  0  0
 48121  1  0  0  0
 49 50  1  0  0  0
 49 53  1  0  0  0
 49 64  1  0  0  0
 49122  1  0  0  0
 50 51  1  0  0  0
 50123  1  0  0  0
 50124  1  0  0  0
 51 52  1  0  0  0
 51125  1  0  0  0
 51126  1  0  0  0
 52127  1  0  0  0
 52128  1  0  0  0
 53 54  1  0  0  0
 54 55  2  0  0  0
 54129  1  0  0  0
 55 57  1  0  0  0
 55130  1  0  0  0
 56 69  2  0  0  0
 57 58  2  0  0  0
 57131  1  0  0  0
 58132  1  0  0  0
 59 60  1  0  0  0
 59 61  1  0  0  0
 59 62  1  0  0  0
 60133  1  0  0  0
 60134  1  0  0  0
 60135  1  0  0  0
 61136  1  0  0  0
 61137  1  0  0  0
 61138  1  0  0  0
 62139  1  0  0  0
 62140  1  0  0  0
 62141  1  0  0  0
 63 65  1  0  0  0
 63142  1  0  0  0
 63143  1  0  0  0
 63144  1  0  0  0
 64145  1  0  0  0
 65146  1  0  0  0
 68 82  1  0  0  0
 71 72  2  0  0  0
 71 73  1  0  0  0
 71 78  1  0  0  0
 72 80  1  0  0  0
 72 83  1  0  0  0
 73 84  2  0  0  0
 73 86  1  0  0  0
 74 79  1  0  0  0
 74 83  2  0  0  0
 74 84  1  0  0  0
 75 77  1  0  0  0
 75 85  1  0  0  0
 75147  1  0  0  0
 75148  1  0  0  0
 76 77  1  0  0  0
 76 85  1  0  0  0
 76149  1  0  0  0
 76150  1  0  0  0
 77 87  1  0  0  0
 77151  1  0  0  0
 78152  1  0  0  0
 78153  1  0  0  0
 78154  1  0  0  0
 79155  1  0  0  0
 79156  1  0  0  0
 79157  1  0  0  0
 80 87  1  0  0  0
 80158  1  0  0  0
 80159  1  0  0  0
 81 82  1  0  0  0
 81 86  1  0  0  0
 81160  1  0  0  0
 81161  1  0  0  0
 82162  1  0  0  0
 82163  1  0  0  0
 86164  1  0  0  0
 87165  1  0  0  0
 87166  1  0  0  0
M  CHG  1  87   1
M  ISO  4   1 100  68 101  82 101  85 100
M  END
> <chiral flag>
0

> <version>
0

> <s_m_source_file>
/data/baiqing/PycharmProjects/Reinvent-master-3.2/result/LINK_invent/BTK/process_docking_weight1_custom_sum_contain_oxygen_bond_distance_aromatic_linkinvent_7_9_3/rearranged_h_0184.sdf

> <i_m_source_file_index>
28

> <r_mmod_Potential_Energy-OPLS-2005>
-854.056396484375

> <r_mmod_Stretch_Energy-OPLS-2005>
34.4707221984863

> <r_mmod_Bend_Energy-OPLS-2005>
123.864715576172

> <r_mmod_Torsional_Energy-OPLS-2005>
275.230499267578

> <r_mmod_Improper_Torsional_Energy-OPLS-2005>
12.5982151031494

> <r_mmod_Van_der_Waal_Energy-OPLS-2005>
177.610015869141

> <r_mmod_Electrostatic_Energy-OPLS-2005>
-996.711669921875

> <r_mmod_Solvation_Energy-OPLS-2005>
-488.549133300781

> <b_mmod_Minimization_Converged-OPLS-2005>
0

> <r_mmod_RMS_Derivative-OPLS-2005>
2.14404845237732

$$$$
28
                    3D
 Structure written by MMmdl.
162171  0  0  1  0            999 V2000
  -30.6012  -14.6902   20.5173 C   0  0  0  0  0  0
  -30.4448  -12.4320   19.4625 C   0  0  0  0  0  0
  -29.5193  -12.5436   18.2255 C   0  0  0  0  0  0
  -28.0366  -12.3822   18.6225 C   0  0  0  0  0  0
  -27.6501  -13.2295   19.8643 C   0  0  2  0  0  0
  -28.6951  -13.0895   20.9978 C   0  0  0  0  0  0
  -25.2391  -13.8079   20.5553 C   0  0  0  0  0  0
  -24.1732  -13.0355   20.9194 C   0  0  0  0  0  0
  -24.6331  -11.6846   20.8694 C   0  0  0  0  0  0
  -23.8970  -10.4257   21.0376 C   0  0  0  0  0  0
  -24.3550   -9.4226   21.9186 C   0  0  0  0  0  0
  -23.6252   -8.2241   22.0744 C   0  0  0  0  0  0
  -22.4245   -8.0243   21.3536 C   0  0  0  0  0  0
  -21.9839   -9.0209   20.4646 C   0  0  0  0  0  0
  -22.7132  -10.2115   20.3047 C   0  0  0  0  0  0
  -21.6841   -6.0692   22.5289 C   0  0  0  0  0  0
  -21.4004   -6.5589   23.8226 C   0  0  0  0  0  0
  -21.3662   -5.6750   24.9198 C   0  0  0  0  0  0
  -21.6055   -4.3004   24.7235 C   0  0  0  0  0  0
  -21.8812   -3.8094   23.4358 C   0  0  0  0  0  0
  -21.9200   -4.6917   22.3416 C   0  0  0  0  0  0
  -22.7770  -13.5209   21.1835 C   0  0  0  0  0  0
  -22.1685   -4.2120   21.0990 F   0  0  0  0  0  0
  -21.5652   -3.4491   25.7748 F   0  0  0  0  0  0
  -30.0137  -13.4464   20.4469 N   0  0  0  0  0  0
  -26.2934  -12.9359   20.3257 N   0  0  0  0  0  0
  -25.9296  -11.6504   20.5699 N   0  0  0  0  0  0
  -22.0350  -12.8303   22.0419 N   0  0  0  0  0  0
  -25.3665  -15.1779   20.3755 N   0  0  0  0  0  0
  -31.7288  -14.8884   20.0622 O   0  0  0  0  0  0
  -21.6613   -6.8832   21.4242 O   0  0  0  0  0  0
  -22.3528  -14.5520   20.6645 O   0  0  0  0  0  0
  -24.6270  -31.8581   23.1990 C   0  0  0  0  0  0
  -25.9121  -32.4759   23.8326 C   0  0  1  0  0  0
  -27.2217  -27.2860   20.1513 C   0  0  0  0  0  0
  -25.5940  -33.8559   24.2270 N   0  0  0  0  0  0
  -23.4196  -30.4804   21.5405 C   0  0  2  0  0  0
  -24.8656  -28.9166   20.1193 C   0  0  0  0  0  0
  -22.7449  -29.4645   22.4917 C   0  0  0  0  0  0
  -18.0296  -28.1404   22.8484 C   0  0  0  0  0  0
  -24.1488  -36.7277   23.2641 C   0  0  0  0  0  0
  -25.9576  -30.7836   21.3658 C   0  0  0  0  0  0
  -26.0312  -29.4005   20.7249 C   0  0  0  0  0  0
  -27.2068  -28.5953   20.7318 C   0  0  0  0  0  0
  -26.0397  -26.8542   19.5154 C   0  0  0  0  0  0
  -24.8713  -27.6485   19.5076 C   0  0  0  0  0  0
  -23.6378  -29.8072   20.1577 C   0  0  0  0  0  0
  -25.4111  -36.3068   24.0337 C   0  0  1  0  0  0
  -20.5893  -28.3713   23.1272 C   0  0  2  0  0  0
  -20.6786  -26.9436   22.5417 C   0  0  0  0  0  0
  -19.5777  -26.6400   21.5204 C   0  0  0  0  0  0
  -18.1941  -26.7962   22.1599 C   0  0  0  0  0  0
  -19.1542  -28.8875   23.2886 C   0  0  0  0  0  0
  -18.9465  -30.1464   23.8907 C   0  0  0  0  0  0
  -17.6466  -30.6609   24.0563 C   0  0  0  0  0  0
  -25.9055  -34.9438   23.5107 C   0  0  0  0  0  0
  -16.5354  -29.9111   23.6337 C   0  0  0  0  0  0
  -16.7275  -28.6534   23.0345 C   0  0  0  0  0  0
  -26.4542  -31.6558   25.0678 C   0  0  0  0  0  0
  -25.3801  -31.3639   26.1417 C   0  0  0  0  0  0
  -27.0407  -30.3011   24.6072 C   0  0  0  0  0  0
  -27.6124  -32.4279   25.7419 C   0  0  0  0  0  0
  -27.5585  -37.1771   24.8470 C   0  0  0  0  0  0
  -21.4175  -29.3059   22.3654 N   0  0  0  0  0  0
  -26.4287  -37.3768   23.9433 N   0  0  0  0  0  0
  -24.6874  -31.0574   22.0929 N   0  0  0  0  0  0
  -23.4176  -28.8184   23.3007 O   0  0  0  0  0  0
  -28.3937  -26.5092   20.1386 O   0  0  0  0  0  0
  -26.5614  -34.8914   22.4662 O   0  0  0  0  0  0
  -23.5442  -32.1366   23.7326 O   0  0  0  0  0  0
  -29.8050  -24.5534   19.8128 C   0  0  0  0  0  0
  -30.0783  -23.1562   19.8648 C   0  0  0  0  0  0
  -29.0758  -22.2360   20.2936 C   0  0  0  0  0  0
  -28.5518  -25.0917   20.1718 C   0  0  0  0  0  0
  -27.8376  -22.8721   20.6430 C   0  0  0  0  0  0
  -28.0426  -17.3876   20.8875 C   0  0  0  0  0  0
  -28.4477  -17.8067   22.3190 C   0  0  0  0  0  0
  -29.5425  -17.1746   20.5748 C   0  0  1  0  0  0
  -29.7641  -18.3266   21.6890 C   0  0  1  0  0  0
  -31.4570  -22.6959   19.4228 C   0  0  0  0  0  0
  -30.6505  -20.5688   22.3413 C   0  0  0  0  0  0
  -29.2917  -20.6367   20.2480 C   0  0  0  0  0  0
  -27.5848  -24.2318   20.5958 N   0  0  0  0  0  0
  -29.7867  -15.7106   20.9589 N   0  0  0  0  0  0
  -29.6156  -19.8726   21.5355 N   0  3  1  0  0  0
  -26.5242  -21.8828   21.1643 Cl  0  0  0  0  0  0
  -31.4858  -12.5658   19.1591 H   0  0  0  0  0  0
  -30.3916  -11.4353   19.9058 H   0  0  0  0  0  0
  -29.7971  -11.7884   17.4927 H   0  0  0  0  0  0
  -29.6674  -13.5069   17.7286 H   0  0  0  0  0  0
  -27.8568  -11.3277   18.8282 H   0  0  0  0  0  0
  -27.3929  -12.6368   17.7788 H   0  0  0  0  0  0
  -27.6606  -14.2674   19.5348 H   0  0  0  0  0  0
  -28.7128  -12.0727   21.3894 H   0  0  0  0  0  0
  -28.4146  -13.7279   21.8396 H   0  0  0  0  0  0
  -25.2708   -9.5771   22.4772 H   0  0  0  0  0  0
  -24.0004   -7.4635   22.7456 H   0  0  0  0  0  0
  -21.0774   -8.8658   19.8980 H   0  0  0  0  0  0
  -22.3518  -10.9635   19.6137 H   0  0  0  0  0  0
  -21.1961   -7.6095   23.9712 H   0  0  0  0  0  0
  -21.1506   -6.0481   25.9104 H   0  0  0  0  0  0
  -22.0582   -2.7549   23.2841 H   0  0  0  0  0  0
  -22.3873  -12.0068   22.5081 H   0  0  0  0  0  0
  -21.0972  -13.1454   22.2428 H   0  0  0  0  0  0
  -24.5492  -15.7770   20.4369 H   0  0  0  0  0  0
  -26.1657  -15.6340   19.9600 H   0  0  0  0  0  0
  -26.7166  -32.5439   23.1052 H   0  0  0  0  0  0
  -25.0122  -33.9689   25.0445 H   0  0  0  0  0  0
  -22.7170  -31.3036   21.3945 H   0  0  0  0  0  0
  -23.3764  -35.9596   23.3273 H   0  0  0  0  0  0
  -24.3597  -36.8924   22.2064 H   0  0  0  0  0  0
  -23.7211  -37.6459   23.6677 H   0  0  0  0  0  0
  -26.0745  -31.5377   20.5862 H   0  0  0  0  0  0
  -26.8441  -30.8501   21.9839 H   0  0  0  0  0  0
  -28.1053  -28.9724   21.1955 H   0  0  0  0  0  0
  -26.0130  -25.8875   19.0311 H   0  0  0  0  0  0
  -23.9742  -27.2725   19.0338 H   0  0  0  0  0  0
  -23.7711  -30.5828   19.4021 H   0  0  0  0  0  0
  -22.7527  -29.2483   19.8471 H   0  0  0  0  0  0
  -25.1278  -36.1914   25.0827 H   0  0  0  0  0  0
  -21.0002  -28.3299   24.1382 H   0  0  0  0  0  0
  -20.5691  -26.2312   23.3615 H   0  0  0  0  0  0
  -21.6649  -26.7484   22.1200 H   0  0  0  0  0  0
  -19.6934  -25.6303   21.1248 H   0  0  0  0  0  0
  -19.6729  -27.3188   20.6718 H   0  0  0  0  0  0
  -17.4226  -26.6736   21.3973 H   0  0  0  0  0  0
  -18.0323  -26.0095   22.8984 H   0  0  0  0  0  0
  -19.7933  -30.7271   24.2285 H   0  0  0  0  0  0
  -17.5027  -31.6284   24.5164 H   0  0  0  0  0  0
  -15.5354  -30.3012   23.7658 H   0  0  0  0  0  0
  -15.8684  -28.0854   22.7052 H   0  0  0  0  0  0
  -24.5960  -30.7029   25.7696 H   0  0  0  0  0  0
  -24.9027  -32.2791   26.4925 H   0  0  0  0  0  0
  -25.8157  -30.8721   27.0124 H   0  0  0  0  0  0
  -26.2944  -29.6685   24.1254 H   0  0  0  0  0  0
  -27.4335  -29.7323   25.4504 H   0  0  0  0  0  0
  -27.8706  -30.4338   23.9127 H   0  0  0  0  0  0
  -27.2770  -33.3549   26.2066 H   0  0  0  0  0  0
  -28.3886  -32.6881   25.0213 H   0  0  0  0  0  0
  -28.0873  -31.8372   26.5255 H   0  0  0  0  0  0
  -28.2583  -38.0085   24.7559 H   0  0  0  0  0  0
  -28.1095  -36.2622   24.6234 H   0  0  0  0  0  0
  -27.2323  -37.1360   25.8876 H   0  0  0  0  0  0
  -20.9341  -29.8753   21.6849 H   0  0  0  0  0  0
  -26.0165  -38.2834   24.1469 H   0  0  0  0  0  0
  -30.5696  -25.2435   19.4839 H   0  0  0  0  0  0
  -27.5627  -18.1759   20.3025 H   0  0  0  0  0  0
  -27.4266  -16.4949   20.8785 H   0  0  0  0  0  0
  -28.5960  -16.9599   22.9962 H   0  0  0  0  0  0
  -27.7752  -18.5366   22.7882 H   0  0  0  0  0  0
  -29.8277  -17.4264   19.5471 H   0  0  0  0  0  0
  -30.6484  -18.0783   22.2893 H   0  0  0  0  0  0
  -32.1764  -23.5132   19.4789 H   0  0  0  0  0  0
  -31.4274  -22.3375   18.3943 H   0  0  0  0  0  0
  -31.8425  -21.8948   20.0516 H   0  0  0  0  0  0
  -30.7463  -20.0974   23.3220 H   0  0  0  0  0  0
  -30.3974  -21.6134   22.5339 H   0  0  0  0  0  0
  -31.6249  -20.5275   21.8569 H   0  0  0  0  0  0
  -30.0880  -20.4162   19.5383 H   0  0  0  0  0  0
  -28.4103  -20.2002   19.7786 H   0  0  0  0  0  0
  -28.9859  -15.3168   21.4246 H   0  0  0  0  0  0
  -28.7766  -20.0247   22.0744 H   0  0  0  0  0  0
  1 25  1  0  0  0
  1 30  2  0  0  0
  1 84  1  0  0  0
  2  3  1  0  0  0
  2 25  1  0  0  0
  2 87  1  0  0  0
  2 88  1  0  0  0
  3  4  1  0  0  0
  3 89  1  0  0  0
  3 90  1  0  0  0
  4  5  1  0  0  0
  4 91  1  0  0  0
  4 92  1  0  0  0
  5  6  1  0  0  0
  5 26  1  0  0  0
  5 93  1  0  0  0
  6 25  1  0  0  0
  6 94  1  0  0  0
  6 95  1  0  0  0
  7  8  2  0  0  0
  7 26  1  0  0  0
  7 29  1  0  0  0
  8  9  1  0  0  0
  8 22  1  0  0  0
  9 10  1  0  0  0
  9 27  2  0  0  0
 10 11  2  0  0  0
 10 15  1  0  0  0
 11 12  1  0  0  0
 11 96  1  0  0  0
 12 13  2  0  0  0
 12 97  1  0  0  0
 13 14  1  0  0  0
 13 31  1  0  0  0
 14 15  2  0  0  0
 14 98  1  0  0  0
 15 99  1  0  0  0
 16 17  2  0  0  0
 16 21  1  0  0  0
 16 31  1  0  0  0
 17 18  1  0  0  0
 17100  1  0  0  0
 18 19  2  0  0  0
 18101  1  0  0  0
 19 20  1  0  0  0
 19 24  1  0  0  0
 20 21  2  0  0  0
 20102  1  0  0  0
 21 23  1  0  0  0
 22 28  1  0  0  0
 22 32  2  0  0  0
 26 27  1  0  0  0
 28103  1  0  0  0
 28104  1  0  0  0
 29105  1  0  0  0
 29106  1  0  0  0
 33 34  1  0  0  0
 33 66  1  0  0  0
 33 70  2  0  0  0
 34 36  1  0  0  0
 34 59  1  0  0  0
 34107  1  0  0  0
 35 44  2  0  0  0
 35 45  1  0  0  0
 35 68  1  0  0  0
 36 56  1  0  0  0
 36108  1  0  0  0
 37 39  1  0  0  0
 37 47  1  0  0  0
 37 66  1  0  0  0
 37109  1  0  0  0
 38 43  2  0  0  0
 38 46  1  0  0  0
 38 47  1  0  0  0
 39 64  1  0  0  0
 39 67  2  0  0  0
 40 52  1  0  0  0
 40 53  2  0  0  0
 40 58  1  0  0  0
 41110  1  0  0  0
 41111  1  0  0  0
 41112  1  0  0  0
 41 48  1  0  0  0
 42 43  1  0  0  0
 42 66  1  0  0  0
 42113  1  0  0  0
 42114  1  0  0  0
 43 44  1  0  0  0
 44115  1  0  0  0
 45 46  2  0  0  0
 45116  1  0  0  0
 46117  1  0  0  0
 47118  1  0  0  0
 47119  1  0  0  0
 48 56  1  0  0  0
 48 65  1  0  0  0
 48120  1  0  0  0
 49 50  1  0  0  0
 49 53  1  0  0  0
 49 64  1  0  0  0
 49121  1  0  0  0
 50 51  1  0  0  0
 50122  1  0  0  0
 50123  1  0  0  0
 51 52  1  0  0  0
 51124  1  0  0  0
 51125  1  0  0  0
 52126  1  0  0  0
 52127  1  0  0  0
 53 54  1  0  0  0
 54 55  2  0  0  0
 54128  1  0  0  0
 55 57  1  0  0  0
 55129  1  0  0  0
 56 69  2  0  0  0
 57 58  2  0  0  0
 57130  1  0  0  0
 58131  1  0  0  0
 59 60  1  0  0  0
 59 61  1  0  0  0
 59 62  1  0  0  0
 60132  1  0  0  0
 60133  1  0  0  0
 60134  1  0  0  0
 61135  1  0  0  0
 61136  1  0  0  0
 61137  1  0  0  0
 62138  1  0  0  0
 62139  1  0  0  0
 62140  1  0  0  0
 63 65  1  0  0  0
 63141  1  0  0  0
 63142  1  0  0  0
 63143  1  0  0  0
 64144  1  0  0  0
 65145  1  0  0  0
 68 74  1  0  0  0
 71 72  2  0  0  0
 71 74  1  0  0  0
 71146  1  0  0  0
 72 73  1  0  0  0
 72 80  1  0  0  0
 73 75  2  0  0  0
 73 82  1  0  0  0
 74 83  2  0  0  0
 75 83  1  0  0  0
 75 86  1  0  0  0
 76 77  1  0  0  0
 76 78  1  0  0  0
 76147  1  0  0  0
 76148  1  0  0  0
 77149  1  0  0  0
 77150  1  0  0  0
 77 79  1  0  0  0
 78 79  1  0  0  0
 78 84  1  0  0  0
 78151  1  0  0  0
 79 85  1  0  0  0
 79152  1  0  0  0
 80153  1  0  0  0
 80154  1  0  0  0
 80155  1  0  0  0
 81156  1  0  0  0
 81157  1  0  0  0
 81158  1  0  0  0
 81 85  1  0  0  0
 82 85  1  0  0  0
 82159  1  0  0  0
 82160  1  0  0  0
 84161  1  0  0  0
 85162  1  0  0  0
M  CHG  1  85   1
M  ISO  4   1 100  68 101  74 101  84 100
M  END
> <chiral flag>
0

> <version>
0

> <s_m_source_file>
/data/baiqing/PycharmProjects/Reinvent-master-3.2/result/LINK_invent/BTK/process_docking_weight1_custom_sum_contain_oxygen_bond_distance_aromatic_linkinvent_7_9_3/rearranged_h_0184.sdf

> <i_m_source_file_index>
29

> <r_mmod_Potential_Energy-OPLS-2005>
-26.782958984375

> <r_mmod_Stretch_Energy-OPLS-2005>
115.014038085938

> <r_mmod_Bend_Energy-OPLS-2005>
252.634353637695

> <r_mmod_Torsional_Energy-OPLS-2005>
259.223846435547

> <r_mmod_Improper_Torsional_Energy-OPLS-2005>
6.69554090499878

> <r_mmod_Van_der_Waal_Energy-OPLS-2005>
140.121932983398

> <r_mmod_Electrostatic_Energy-OPLS-2005>
-407.828796386719

> <r_mmod_Solvation_Energy-OPLS-2005>
-451.572692871094

> <b_mmod_Minimization_Converged-OPLS-2005>
0

> <r_mmod_RMS_Derivative-OPLS-2005>
5.29004716873169

$$$$
29
                    3D
 Structure written by MMmdl.
151160  0  0  1  0            999 V2000
  -30.4384  -15.3330   20.3601 C   0  0  0  0  0  0
  -30.4319  -12.8628   19.5201 C   0  0  0  0  0  0
  -29.5291  -12.5731   18.2930 C   0  0  0  0  0  0
  -28.0908  -12.2722   18.7413 C   0  0  0  0  0  0
  -27.6059  -13.2747   19.8163 C   0  0  2  0  0  0
  -28.6387  -13.4998   20.9419 C   0  0  0  0  0  0
  -25.2393  -13.8257   20.5752 C   0  0  0  0  0  0
  -24.1725  -13.0446   20.9235 C   0  0  0  0  0  0
  -24.6374  -11.6944   20.8766 C   0  0  0  0  0  0
  -23.9075  -10.4294   21.0407 C   0  0  0  0  0  0
  -24.3629   -9.4212   21.9183 C   0  0  0  0  0  0
  -23.6301   -8.2249   22.0757 C   0  0  0  0  0  0
  -22.4283   -8.0283   21.3548 C   0  0  0  0  0  0
  -21.9922   -9.0250   20.4647 C   0  0  0  0  0  0
  -22.7251  -10.2127   20.3054 C   0  0  0  0  0  0
  -21.6846   -6.0741   22.5277 C   0  0  0  0  0  0
  -21.4005   -6.5641   23.8209 C   0  0  0  0  0  0
  -21.3666   -5.6802   24.9167 C   0  0  0  0  0  0
  -21.6037   -4.3059   24.7219 C   0  0  0  0  0  0
  -21.8822   -3.8153   23.4340 C   0  0  0  0  0  0
  -21.9193   -4.6973   22.3390 C   0  0  0  0  0  0
  -22.7749  -13.5204   21.1900 C   0  0  0  0  0  0
  -22.1658   -4.2152   21.0972 F   0  0  0  0  0  0
  -21.5642   -3.4545   25.7737 F   0  0  0  0  0  0
  -29.8573  -14.0263   20.3000 N   0  0  0  0  0  0
  -26.2805  -12.9518   20.3242 N   0  0  0  0  0  0
  -25.9310  -11.6625   20.5732 N   0  0  0  0  0  0
  -22.0418  -12.8162   22.0449 N   0  0  0  0  0  0
  -25.4113  -15.1980   20.4253 N   0  0  0  0  0  0
  -31.6680  -15.2908   20.1884 O   0  0  0  0  0  0
  -21.6645   -6.8875   21.4235 O   0  0  0  0  0  0
  -22.3431  -14.5506   20.6743 O   0  0  0  0  0  0
  -24.6654  -31.8178   23.1618 C   0  0  0  0  0  0
  -25.9310  -32.4564   23.8097 C   0  0  1  0  0  0
  -27.2364  -26.8896   20.1832 C   0  0  0  0  0  0
  -25.5968  -33.8379   24.2006 N   0  0  0  0  0  0
  -23.4840  -30.4286   21.5110 C   0  0  2  0  0  0
  -24.9403  -28.8031   20.1116 C   0  0  0  0  0  0
  -22.7691  -29.4436   22.4740 C   0  0  0  0  0  0
  -18.0330  -28.1451   22.8467 C   0  0  0  0  0  0
  -24.1489  -36.7196   23.2662 C   0  0  0  0  0  0
  -26.0552  -30.6163   21.3922 C   0  0  0  0  0  0
  -26.1251  -29.1989   20.7447 C   0  0  0  0  0  0
  -27.2632  -28.2632   20.7544 C   0  0  0  0  0  0
  -26.0179  -26.6547   19.5024 C   0  0  0  0  0  0
  -24.9153  -27.5516   19.4723 C   0  0  0  0  0  0
  -23.7275  -29.7360   20.1396 C   0  0  0  0  0  0
  -25.4130  -36.2938   24.0300 C   0  0  1  0  0  0
  -20.5960  -28.3786   23.1196 C   0  0  2  0  0  0
  -20.6818  -26.9472   22.5405 C   0  0  0  0  0  0
  -19.5779  -26.6398   21.5226 C   0  0  0  0  0  0
  -18.1949  -26.7982   22.1617 C   0  0  0  0  0  0
  -19.1595  -28.8934   23.2811 C   0  0  0  0  0  0
  -18.9509  -30.1524   23.8834 C   0  0  0  0  0  0
  -17.6499  -30.6623   24.0575 C   0  0  0  0  0  0
  -25.9100  -34.9341   23.4966 C   0  0  0  0  0  0
  -16.5389  -29.9129   23.6354 C   0  0  0  0  0  0
  -16.7314  -28.6559   23.0351 C   0  0  0  0  0  0
  -26.4548  -31.6535   25.0648 C   0  0  0  0  0  0
  -25.3675  -31.3807   26.1299 C   0  0  0  0  0  0
  -27.0454  -30.2920   24.6370 C   0  0  0  0  0  0
  -27.6057  -32.4341   25.7447 C   0  0  0  0  0  0
  -27.5539  -37.1760   24.8471 C   0  0  0  0  0  0
  -21.4344  -29.3077   22.3538 N   0  0  0  0  0  0
  -26.4243  -37.3703   23.9425 N   0  0  0  0  0  0
  -24.7573  -30.9825   22.0767 N   0  0  0  0  0  0
  -23.4227  -28.7998   23.2986 O   0  0  0  0  0  0
  -28.2498  -25.7756   20.2636 O   0  0  0  0  0  0
  -26.5728  -34.8901   22.4576 O   0  0  0  0  0  0
  -23.5702  -32.1157   23.6686 O   0  0  0  0  0  0
  -30.3167  -20.1917   19.8019 C   0  0  0  0  0  0
  -29.8903  -17.9690   21.2722 C   0  0  0  0  0  0
  -29.3764  -17.7096   19.3388 C   0  0  0  0  0  0
  -28.9529  -20.8717   19.9225 C   0  0  1  0  0  0
  -29.3983  -19.0897   20.2011 C   0  0  0  0  0  0
  -28.0792  -24.1262   20.0207 C   0  0  0  0  0  0
  -29.0833  -22.6306   20.3891 C   0  0  2  0  0  0
  -29.7179  -16.6551   20.4256 N   0  0  0  0  0  0
  -30.4504  -23.0440   20.0033 N   0  3  0  0  0  0
  -31.4442  -13.0702   19.1739 H   0  0  0  0  0  0
  -30.5199  -11.9780   20.1516 H   0  0  0  0  0  0
  -29.9253  -11.7351   17.7169 H   0  0  0  0  0  0
  -29.5276  -13.4344   17.6255 H   0  0  0  0  0  0
  -28.0830  -11.2638   19.1579 H   0  0  0  0  0  0
  -27.4110  -12.2505   17.8889 H   0  0  0  0  0  0
  -27.5055  -14.2206   19.2833 H   0  0  0  0  0  0
  -28.8296  -12.5813   21.4997 H   0  0  0  0  0  0
  -28.2602  -14.2302   21.6588 H   0  0  0  0  0  0
  -25.2768   -9.5691   22.4756 H   0  0  0  0  0  0
  -24.0013   -7.4635   22.7483 H   0  0  0  0  0  0
  -21.0856   -8.8757   19.8937 H   0  0  0  0  0  0
  -22.3707  -10.9661   19.6161 H   0  0  0  0  0  0
  -21.1977   -7.6156   23.9702 H   0  0  0  0  0  0
  -21.1488   -6.0535   25.9073 H   0  0  0  0  0  0
  -22.0591   -2.7614   23.2836 H   0  0  0  0  0  0
  -22.4065  -11.9813   22.4803 H   0  0  0  0  0  0
  -21.1040  -13.1147   22.2690 H   0  0  0  0  0  0
  -24.6557  -15.8630   20.5460 H   0  0  0  0  0  0
  -26.2876  -15.6341   20.1616 H   0  0  0  0  0  0
  -26.7383  -32.5092   23.0812 H   0  0  0  0  0  0
  -25.0088  -33.9442   25.0130 H   0  0  0  0  0  0
  -22.8020  -31.2618   21.3300 H   0  0  0  0  0  0
  -23.3739  -35.9531   23.3287 H   0  0  0  0  0  0
  -24.3547  -36.8866   22.2076 H   0  0  0  0  0  0
  -23.7236  -37.6386   23.6728 H   0  0  0  0  0  0
  -26.2292  -31.3504   20.6023 H   0  0  0  0  0  0
  -26.9241  -30.6830   22.0365 H   0  0  0  0  0  0
  -28.1624  -28.5728   21.2684 H   0  0  0  0  0  0
  -25.8827  -25.7040   19.0098 H   0  0  0  0  0  0
  -24.0158  -27.2426   18.9545 H   0  0  0  0  0  0
  -23.8890  -30.5009   19.3791 H   0  0  0  0  0  0
  -22.8374  -29.1935   19.8152 H   0  0  0  0  0  0
  -25.1324  -36.1710   25.0786 H   0  0  0  0  0  0
  -21.0052  -28.3378   24.1319 H   0  0  0  0  0  0
  -20.5721  -26.2400   23.3634 H   0  0  0  0  0  0
  -21.6680  -26.7446   22.1192 H   0  0  0  0  0  0
  -19.6945  -25.6291   21.1281 H   0  0  0  0  0  0
  -19.6732  -27.3212   20.6744 H   0  0  0  0  0  0
  -17.4231  -26.6740   21.4003 H   0  0  0  0  0  0
  -18.0315  -26.0148   22.9027 H   0  0  0  0  0  0
  -19.7996  -30.7372   24.2161 H   0  0  0  0  0  0
  -17.5067  -31.6299   24.5210 H   0  0  0  0  0  0
  -15.5403  -30.3026   23.7737 H   0  0  0  0  0  0
  -15.8697  -28.0887   22.7095 H   0  0  0  0  0  0
  -24.5905  -30.7087   25.7618 H   0  0  0  0  0  0
  -24.8812  -32.3026   26.4533 H   0  0  0  0  0  0
  -25.7921  -30.9114   27.0181 H   0  0  0  0  0  0
  -26.3132  -29.6602   24.1348 H   0  0  0  0  0  0
  -27.4008  -29.7266   25.4988 H   0  0  0  0  0  0
  -27.9025  -30.4110   23.9743 H   0  0  0  0  0  0
  -27.2651  -33.3738   26.1800 H   0  0  0  0  0  0
  -28.3992  -32.6741   25.0355 H   0  0  0  0  0  0
  -28.0562  -31.8584   26.5547 H   0  0  0  0  0  0
  -28.2567  -38.0055   24.7512 H   0  0  0  0  0  0
  -28.1017  -36.2585   24.6283 H   0  0  0  0  0  0
  -27.2249  -37.1391   25.8874 H   0  0  0  0  0  0
  -20.9615  -29.8763   21.6661 H   0  0  0  0  0  0
  -26.0060  -38.2735   24.1488 H   0  0  0  0  0  0
  -31.0668  -20.4408   20.5518 H   0  0  0  0  0  0
  -30.7385  -20.1430   18.7996 H   0  0  0  0  0  0
  -29.2652  -17.9563   22.1666 H   0  0  0  0  0  0
  -30.9163  -18.1174   21.6109 H   0  0  0  0  0  0
  -30.1112  -17.7035   18.5325 H   0  0  0  0  0  0
  -28.4084  -17.5129   18.8812 H   0  0  0  0  0  0
  -28.3317  -20.8771   19.0266 H   0  0  0  0  0  0
  -27.0963  -23.9062   20.4362 H   0  0  0  0  0  0
  -27.9228  -24.0778   18.9430 H   0  0  0  0  0  0
  -29.1087  -22.5994   21.4781 H   0  0  0  0  0  0
  -30.5070  -23.2264   19.0168 H   0  0  0  0  0  0
  -31.1152  -22.3227   20.2290 H   0  0  0  0  0  0
  -30.7185  -23.8842   20.4875 H   0  0  0  0  0  0
  1 25  1  0  0  0
  1 30  2  0  0  0
  1 78  1  0  0  0
  2  3  1  0  0  0
  2 25  1  0  0  0
  2 80  1  0  0  0
  2 81  1  0  0  0
  3  4  1  0  0  0
  3 82  1  0  0  0
  3 83  1  0  0  0
  4  5  1  0  0  0
  4 84  1  0  0  0
  4 85  1  0  0  0
  5  6  1  0  0  0
  5 26  1  0  0  0
  5 86  1  0  0  0
  6 25  1  0  0  0
  6 87  1  0  0  0
  6 88  1  0  0  0
  7  8  2  0  0  0
  7 26  1  0  0  0
  7 29  1  0  0  0
  8  9  1  0  0  0
  8 22  1  0  0  0
  9 10  1  0  0  0
  9 27  2  0  0  0
 10 11  2  0  0  0
 10 15  1  0  0  0
 11 12  1  0  0  0
 11 89  1  0  0  0
 12 13  2  0  0  0
 12 90  1  0  0  0
 13 14  1  0  0  0
 13 31  1  0  0  0
 14 15  2  0  0  0
 14 91  1  0  0  0
 15 92  1  0  0  0
 16 17  2  0  0  0
 16 21  1  0  0  0
 16 31  1  0  0  0
 17 18  1  0  0  0
 17 93  1  0  0  0
 18 19  2  0  0  0
 18 94  1  0  0  0
 19 20  1  0  0  0
 19 24  1  0  0  0
 20 21  2  0  0  0
 20 95  1  0  0  0
 21 23  1  0  0  0
 22 28  1  0  0  0
 22 32  2  0  0  0
 26 27  1  0  0  0
 28 96  1  0  0  0
 28 97  1  0  0  0
 29 98  1  0  0  0
 29 99  1  0  0  0
 33 34  1  0  0  0
 33 66  1  0  0  0
 33 70  2  0  0  0
 34 36  1  0  0  0
 34 59  1  0  0  0
 34100  1  0  0  0
 35 44  2  0  0  0
 35 45  1  0  0  0
 35 68  1  0  0  0
 36 56  1  0  0  0
 36101  1  0  0  0
 37 39  1  0  0  0
 37 47  1  0  0  0
 37 66  1  0  0  0
 37102  1  0  0  0
 38 43  2  0  0  0
 38 46  1  0  0  0
 38 47  1  0  0  0
 39 64  1  0  0  0
 39 67  2  0  0  0
 40 52  1  0  0  0
 40 53  2  0  0  0
 40 58  1  0  0  0
 41103  1  0  0  0
 41104  1  0  0  0
 41105  1  0  0  0
 41 48  1  0  0  0
 42 43  1  0  0  0
 42 66  1  0  0  0
 42106  1  0  0  0
 42107  1  0  0  0
 43 44  1  0  0  0
 44108  1  0  0  0
 45 46  2  0  0  0
 45109  1  0  0  0
 46110  1  0  0  0
 47111  1  0  0  0
 47112  1  0  0  0
 48 56  1  0  0  0
 48 65  1  0  0  0
 48113  1  0  0  0
 49 50  1  0  0  0
 49 53  1  0  0  0
 49 64  1  0  0  0
 49114  1  0  0  0
 50 51  1  0  0  0
 50115  1  0  0  0
 50116  1  0  0  0
 51 52  1  0  0  0
 51117  1  0  0  0
 51118  1  0  0  0
 52119  1  0  0  0
 52120  1  0  0  0
 53 54  1  0  0  0
 54 55  2  0  0  0
 54121  1  0  0  0
 55 57  1  0  0  0
 55122  1  0  0  0
 56 69  2  0  0  0
 57 58  2  0  0  0
 57123  1  0  0  0
 58124  1  0  0  0
 59 60  1  0  0  0
 59 61  1  0  0  0
 59 62  1  0  0  0
 60125  1  0  0  0
 60126  1  0  0  0
 60127  1  0  0  0
 61128  1  0  0  0
 61129  1  0  0  0
 61130  1  0  0  0
 62131  1  0  0  0
 62132  1  0  0  0
 62133  1  0  0  0
 63 65  1  0  0  0
 63134  1  0  0  0
 63135  1  0  0  0
 63136  1  0  0  0
 64137  1  0  0  0
 65138  1  0  0  0
 68 76  1  0  0  0
 71139  1  0  0  0
 71140  1  0  0  0
 71 74  1  0  0  0
 71 75  1  0  0  0
 72 75  1  0  0  0
 72 78  1  0  0  0
 72141  1  0  0  0
 72142  1  0  0  0
 73 75  1  0  0  0
 73 78  1  0  0  0
 73143  1  0  0  0
 73144  1  0  0  0
 74 75  1  0  0  0
 74 77  1  0  0  0
 74145  1  0  0  0
 76 77  1  0  0  0
 76146  1  0  0  0
 76147  1  0  0  0
 77 79  1  0  0  0
 77148  1  0  0  0
 79149  1  0  0  0
 79150  1  0  0  0
 79151  1  0  0  0
M  CHG  1  79   1
M  ISO  4   1 100  68 101  76 101  78 100
M  END
> <chiral flag>
0

> <version>
0

> <s_m_source_file>
/data/baiqing/PycharmProjects/Reinvent-master-3.2/result/LINK_invent/BTK/process_docking_weight1_custom_sum_contain_oxygen_bond_distance_aromatic_linkinvent_7_9_3/rearranged_h_0184.sdf

> <i_m_source_file_index>
30

> <r_mmod_Potential_Energy-OPLS-2005>
1744.7373046875

> <r_mmod_Stretch_Energy-OPLS-2005>
706.287841796875

> <r_mmod_Bend_Energy-OPLS-2005>
719.682922363281

> <r_mmod_Torsional_Energy-OPLS-2005>
412.363067626953

> <r_mmod_Improper_Torsional_Energy-OPLS-2005>
8.81538772583008

> <r_mmod_Van_der_Waal_Energy-OPLS-2005>
107.937057495117

> <r_mmod_Electrostatic_Energy-OPLS-2005>
-251.973205566406

> <r_mmod_Solvation_Energy-OPLS-2005>
-481.411560058594

> <b_mmod_Minimization_Converged-OPLS-2005>
0

> <r_mmod_RMS_Derivative-OPLS-2005>
4.19341707229614

$$$$
30
                    3D
 Structure written by MMmdl.
153162  0  0  1  0            999 V2000
  -30.5567  -14.9210   20.4177 C   0  0  0  0  0  0
  -30.4428  -12.5653   19.4932 C   0  0  0  0  0  0
  -29.5293  -12.5390   18.2461 C   0  0  0  0  0  0
  -28.0580  -12.3285   18.6584 C   0  0  0  0  0  0
  -27.6332  -13.2496   19.8327 C   0  0  2  0  0  0
  -28.6754  -13.2666   20.9698 C   0  0  0  0  0  0
  -25.2478  -13.8208   20.5700 C   0  0  0  0  0  0
  -24.1794  -13.0454   20.9253 C   0  0  0  0  0  0
  -24.6381  -11.6935   20.8725 C   0  0  0  0  0  0
  -23.9055  -10.4310   21.0399 C   0  0  0  0  0  0
  -24.3604   -9.4220   21.9188 C   0  0  0  0  0  0
  -23.6287   -8.2250   22.0746 C   0  0  0  0  0  0
  -22.4260   -8.0279   21.3547 C   0  0  0  0  0  0
  -21.9894   -9.0273   20.4669 C   0  0  0  0  0  0
  -22.7222  -10.2156   20.3078 C   0  0  0  0  0  0
  -21.6856   -6.0721   22.5283 C   0  0  0  0  0  0
  -21.4023   -6.5619   23.8212 C   0  0  0  0  0  0
  -21.3674   -5.6772   24.9186 C   0  0  0  0  0  0
  -21.6024   -4.3046   24.7234 C   0  0  0  0  0  0
  -21.8813   -3.8139   23.4351 C   0  0  0  0  0  0
  -21.9198   -4.6943   22.3403 C   0  0  0  0  0  0
  -22.7806  -13.5256   21.1888 C   0  0  0  0  0  0
  -22.1665   -4.2134   21.0976 F   0  0  0  0  0  0
  -21.5635   -3.4501   25.7738 F   0  0  0  0  0  0
  -29.9554  -13.6660   20.3689 N   0  0  0  0  0  0
  -26.2896  -12.9453   20.3186 N   0  0  0  0  0  0
  -25.9293  -11.6569   20.5639 N   0  0  0  0  0  0
  -22.0434  -12.8294   22.0456 N   0  0  0  0  0  0
  -25.4117  -15.1926   20.4118 N   0  0  0  0  0  0
  -31.7662  -14.9845   20.1833 O   0  0  0  0  0  0
  -21.6634   -6.8866   21.4244 O   0  0  0  0  0  0
  -22.3497  -14.5546   20.6696 O   0  0  0  0  0  0
  -24.6390  -31.8468   23.1905 C   0  0  0  0  0  0
  -25.9183  -32.4701   23.8282 C   0  0  1  0  0  0
  -27.2301  -27.1707   20.1468 C   0  0  0  0  0  0
  -25.5932  -33.8504   24.2182 N   0  0  0  0  0  0
  -23.4430  -30.4662   21.5338 C   0  0  2  0  0  0
  -24.8951  -28.8917   20.1171 C   0  0  0  0  0  0
  -22.7554  -29.4572   22.4864 C   0  0  0  0  0  0
  -18.0303  -28.1393   22.8462 C   0  0  0  0  0  0
  -24.1516  -36.7293   23.2651 C   0  0  0  0  0  0
  -25.9977  -30.7305   21.3863 C   0  0  0  0  0  0
  -26.0704  -29.3428   20.7314 C   0  0  0  0  0  0
  -27.2415  -28.4994   20.7261 C   0  0  0  0  0  0
  -26.0290  -26.8125   19.5005 C   0  0  0  0  0  0
  -24.8832  -27.6370   19.4885 C   0  0  0  0  0  0
  -23.6693  -29.7903   20.1552 C   0  0  0  0  0  0
  -25.4147  -36.3050   24.0309 C   0  0  1  0  0  0
  -20.5915  -28.3728   23.1237 C   0  0  2  0  0  0
  -20.6790  -26.9433   22.5420 C   0  0  0  0  0  0
  -19.5776  -26.6372   21.5211 C   0  0  0  0  0  0
  -18.1951  -26.7922   22.1620 C   0  0  0  0  0  0
  -19.1560  -28.8883   23.2837 C   0  0  0  0  0  0
  -18.9469  -30.1465   23.8876 C   0  0  0  0  0  0
  -17.6467  -30.6585   24.0556 C   0  0  0  0  0  0
  -25.9065  -34.9411   23.5053 C   0  0  0  0  0  0
  -16.5356  -29.9087   23.6321 C   0  0  0  0  0  0
  -16.7292  -28.6493   23.0342 C   0  0  0  0  0  0
  -26.4486  -31.6563   25.0729 C   0  0  0  0  0  0
  -25.3668  -31.3855   26.1448 C   0  0  0  0  0  0
  -27.0256  -30.2907   24.6359 C   0  0  0  0  0  0
  -27.6062  -32.4296   25.7462 C   0  0  0  0  0  0
  -27.5563  -37.1853   24.8477 C   0  0  0  0  0  0
  -21.4253  -29.3040   22.3604 N   0  0  0  0  0  0
  -26.4352  -37.3715   23.9311 N   0  0  0  0  0  0
  -24.7125  -31.0361   22.0908 N   0  0  0  0  0  0
  -23.4203  -28.8124   23.3022 O   0  0  0  0  0  0
  -28.3093  -26.2253   20.1355 O   0  0  0  0  0  0
  -26.5648  -34.8901   22.4632 O   0  0  0  0  0  0
  -23.5519  -32.1309   23.7143 O   0  0  0  0  0  0
  -29.9908  -22.6438   18.1367 C   0  0  0  0  0  0
  -28.8612  -23.4535   19.8855 C   0  0  0  0  0  0
  -29.5068  -21.1436   19.7836 C   0  0  0  0  0  0
  -28.9904  -18.7294   20.9796 C   0  0  0  0  0  0
  -30.3216  -18.6134   19.4542 C   0  0  0  0  0  0
  -30.1251  -17.6335   20.6807 C   0  0  0  0  0  0
  -30.6686  -22.9104   16.8009 C   0  0  0  0  0  0
  -28.0852  -24.7439   20.5322 C   0  0  0  0  0  0
  -29.4297  -23.7000   18.7132 N   0  0  0  0  0  0
  -30.0567  -21.3954   18.5988 N   0  0  0  0  0  0
  -28.8822  -22.1779   20.4610 N   0  0  0  0  0  0
  -29.8431  -19.7499   20.3079 N   0  0  0  0  0  0
  -29.7761  -16.1010   20.5206 N   0  0  0  0  0  0
  -31.4833  -12.7143   19.1978 H   0  0  0  0  0  0
  -30.4112  -11.6073   20.0167 H   0  0  0  0  0  0
  -29.8474  -11.7526   17.5600 H   0  0  0  0  0  0
  -29.6288  -13.4801   17.7013 H   0  0  0  0  0  0
  -27.9432  -11.2855   18.9543 H   0  0  0  0  0  0
  -27.4022  -12.4822   17.8017 H   0  0  0  0  0  0
  -27.6013  -14.2550   19.4103 H   0  0  0  0  0  0
  -28.7506  -12.2911   21.4548 H   0  0  0  0  0  0
  -28.3793  -13.9740   21.7481 H   0  0  0  0  0  0
  -25.2761   -9.5686   22.4735 H   0  0  0  0  0  0
  -24.0014   -7.4629   22.7432 H   0  0  0  0  0  0
  -21.0821   -8.8801   19.8984 H   0  0  0  0  0  0
  -22.3690  -10.9683   19.6168 H   0  0  0  0  0  0
  -21.2024   -7.6126   23.9723 H   0  0  0  0  0  0
  -21.1491   -6.0502   25.9091 H   0  0  0  0  0  0
  -22.0580   -2.7603   23.2845 H   0  0  0  0  0  0
  -22.4062  -12.0034   22.4966 H   0  0  0  0  0  0
  -21.1054  -13.1368   22.2610 H   0  0  0  0  0  0
  -24.6346  -15.8364   20.5179 H   0  0  0  0  0  0
  -26.2381  -15.6338   20.0290 H   0  0  0  0  0  0
  -26.7263  -32.5317   23.1020 H   0  0  0  0  0  0
  -25.0057  -33.9605   25.0320 H   0  0  0  0  0  0
  -22.7422  -31.2908   21.3779 H   0  0  0  0  0  0
  -23.3676  -35.9754   23.3521 H   0  0  0  0  0  0
  -24.3544  -36.8695   22.2021 H   0  0  0  0  0  0
  -23.7452  -37.6638   23.6535 H   0  0  0  0  0  0
  -26.1584  -31.4882   20.6170 H   0  0  0  0  0  0
  -26.8627  -30.7732   22.0369 H   0  0  0  0  0  0
  -28.1409  -28.8460   21.2131 H   0  0  0  0  0  0
  -25.9611  -25.8589   18.9988 H   0  0  0  0  0  0
  -23.9882  -27.2895   18.9901 H   0  0  0  0  0  0
  -23.8048  -30.5573   19.3916 H   0  0  0  0  0  0
  -22.7845  -29.2275   19.8502 H   0  0  0  0  0  0
  -25.1377  -36.1913   25.0818 H   0  0  0  0  0  0
  -21.0005  -28.3349   24.1364 H   0  0  0  0  0  0
  -20.5674  -26.2367   23.3653 H   0  0  0  0  0  0
  -21.6669  -26.7445   22.1254 H   0  0  0  0  0  0
  -19.6955  -25.6264   21.1294 H   0  0  0  0  0  0
  -19.6727  -27.3142   20.6704 H   0  0  0  0  0  0
  -17.4237  -26.6662   21.4000 H   0  0  0  0  0  0
  -18.0348  -26.0070   22.9029 H   0  0  0  0  0  0
  -19.7948  -30.7271   24.2262 H   0  0  0  0  0  0
  -17.5024  -31.6265   24.5162 H   0  0  0  0  0  0
  -15.5347  -30.2975   23.7653 H   0  0  0  0  0  0
  -15.8698  -28.0806   22.7067 H   0  0  0  0  0  0
  -24.5777  -30.7264   25.7794 H   0  0  0  0  0  0
  -24.8924  -32.3092   26.4779 H   0  0  0  0  0  0
  -25.7916  -30.9073   27.0286 H   0  0  0  0  0  0
  -26.2830  -29.6679   24.1360 H   0  0  0  0  0  0
  -27.3740  -29.7191   25.4967 H   0  0  0  0  0  0
  -27.8824  -30.4000   23.9717 H   0  0  0  0  0  0
  -27.2674  -33.3570   26.2081 H   0  0  0  0  0  0
  -28.3817  -32.6908   25.0253 H   0  0  0  0  0  0
  -28.0806  -31.8416   26.5324 H   0  0  0  0  0  0
  -28.2798  -37.9918   24.7190 H   0  0  0  0  0  0
  -28.0838  -36.2453   24.6748 H   0  0  0  0  0  0
  -27.2249  -37.2060   25.8879 H   0  0  0  0  0  0
  -20.9476  -29.8729   21.6760 H   0  0  0  0  0  0
  -26.0246  -38.2857   24.1061 H   0  0  0  0  0  0
  -28.8222  -18.9356   22.0371 H   0  0  0  0  0  0
  -28.0522  -18.5698   20.4436 H   0  0  0  0  0  0
  -29.6500  -18.4201   18.6126 H   0  0  0  0  0  0
  -31.3564  -18.7202   19.1284 H   0  0  0  0  0  0
  -30.9534  -17.7620   21.3838 H   0  0  0  0  0  0
  -30.1677  -23.7071   16.2495 H   0  0  0  0  0  0
  -30.6605  -22.0238   16.1649 H   0  0  0  0  0  0
  -31.7063  -23.2129   16.9515 H   0  0  0  0  0  0
  -28.3078  -24.7046   21.5984 H   0  0  0  0  0  0
  -27.0219  -24.5132   20.4790 H   0  0  0  0  0  0
  -28.7899  -15.9083   20.6192 H   0  0  0  0  0  0
  1 25  1  0  0  0
  1 30  2  0  0  0
  1 83  1  0  0  0
  2  3  1  0  0  0
  2 25  1  0  0  0
  2 84  1  0  0  0
  2 85  1  0  0  0
  3  4  1  0  0  0
  3 86  1  0  0  0
  3 87  1  0  0  0
  4  5  1  0  0  0
  4 88  1  0  0  0
  4 89  1  0  0  0
  5  6  1  0  0  0
  5 26  1  0  0  0
  5 90  1  0  0  0
  6 25  1  0  0  0
  6 91  1  0  0  0
  6 92  1  0  0  0
  7  8  2  0  0  0
  7 26  1  0  0  0
  7 29  1  0  0  0
  8  9  1  0  0  0
  8 22  1  0  0  0
  9 10  1  0  0  0
  9 27  2  0  0  0
 10 11  2  0  0  0
 10 15  1  0  0  0
 11 12  1  0  0  0
 11 93  1  0  0  0
 12 13  2  0  0  0
 12 94  1  0  0  0
 13 14  1  0  0  0
 13 31  1  0  0  0
 14 15  2  0  0  0
 14 95  1  0  0  0
 15 96  1  0  0  0
 16 17  2  0  0  0
 16 21  1  0  0  0
 16 31  1  0  0  0
 17 18  1  0  0  0
 17 97  1  0  0  0
 18 19  2  0  0  0
 18 98  1  0  0  0
 19 20  1  0  0  0
 19 24  1  0  0  0
 20 21  2  0  0  0
 20 99  1  0  0  0
 21 23  1  0  0  0
 22 28  1  0  0  0
 22 32  2  0  0  0
 26 27  1  0  0  0
 28100  1  0  0  0
 28101  1  0  0  0
 29102  1  0  0  0
 29103  1  0  0  0
 33 34  1  0  0  0
 33 66  1  0  0  0
 33 70  2  0  0  0
 34 36  1  0  0  0
 34 59  1  0  0  0
 34104  1  0  0  0
 35 44  2  0  0  0
 35 45  1  0  0  0
 35 68  1  0  0  0
 36 56  1  0  0  0
 36105  1  0  0  0
 37 39  1  0  0  0
 37 47  1  0  0  0
 37 66  1  0  0  0
 37106  1  0  0  0
 38 43  2  0  0  0
 38 46  1  0  0  0
 38 47  1  0  0  0
 39 64  1  0  0  0
 39 67  2  0  0  0
 40 52  1  0  0  0
 40 53  2  0  0  0
 40 58  1  0  0  0
 41107  1  0  0  0
 41108  1  0  0  0
 41109  1  0  0  0
 41 48  1  0  0  0
 42 43  1  0  0  0
 42 66  1  0  0  0
 42110  1  0  0  0
 42111  1  0  0  0
 43 44  1  0  0  0
 44112  1  0  0  0
 45 46  2  0  0  0
 45113  1  0  0  0
 46114  1  0  0  0
 47115  1  0  0  0
 47116  1  0  0  0
 48 56  1  0  0  0
 48 65  1  0  0  0
 48117  1  0  0  0
 49 50  1  0  0  0
 49 53  1  0  0  0
 49 64  1  0  0  0
 49118  1  0  0  0
 50 51  1  0  0  0
 50119  1  0  0  0
 50120  1  0  0  0
 51 52  1  0  0  0
 51121  1  0  0  0
 51122  1  0  0  0
 52123  1  0  0  0
 52124  1  0  0  0
 53 54  1  0  0  0
 54 55  2  0  0  0
 54125  1  0  0  0
 55 57  1  0  0  0
 55126  1  0  0  0
 56 69  2  0  0  0
 57 58  2  0  0  0
 57127  1  0  0  0
 58128  1  0  0  0
 59 60  1  0  0  0
 59 61  1  0  0  0
 59 62  1  0  0  0
 60129  1  0  0  0
 60130  1  0  0  0
 60131  1  0  0  0
 61132  1  0  0  0
 61133  1  0  0  0
 61134  1  0  0  0
 62135  1  0  0  0
 62136  1  0  0  0
 62137  1  0  0  0
 63 65  1  0  0  0
 63138  1  0  0  0
 63139  1  0  0  0
 63140  1  0  0  0
 64141  1  0  0  0
 65142  1  0  0  0
 68 78  1  0  0  0
 71 77  1  0  0  0
 71 79  2  0  0  0
 71 80  1  0  0  0
 72 78  1  0  0  0
 72 79  1  0  0  0
 72 81  2  0  0  0
 73 80  2  0  0  0
 73 81  1  0  0  0
 73 82  1  0  0  0
 74 76  1  0  0  0
 74 82  1  0  0  0
 74143  1  0  0  0
 74144  1  0  0  0
 75 76  1  0  0  0
 75 82  1  0  0  0
 75145  1  0  0  0
 75146  1  0  0  0
 76 83  1  0  0  0
 76147  1  0  0  0
 77148  1  0  0  0
 77149  1  0  0  0
 77150  1  0  0  0
 78151  1  0  0  0
 78152  1  0  0  0
 83153  1  0  0  0
M  ISO  4   1 100  68 101  78 101  83 100
M  END
> <chiral flag>
0

> <version>
0

> <s_m_source_file>
/data/baiqing/PycharmProjects/Reinvent-master-3.2/result/LINK_invent/BTK/process_docking_weight1_custom_sum_contain_oxygen_bond_distance_aromatic_linkinvent_7_9_3/rearranged_h_0184.sdf

> <i_m_source_file_index>
31

> <r_mmod_Potential_Energy-OPLS-2005>
-308.9697265625

> <r_mmod_Stretch_Energy-OPLS-2005>
202.876983642578

> <r_mmod_Bend_Energy-OPLS-2005>
296.150817871094

> <r_mmod_Torsional_Energy-OPLS-2005>
246.080001831055

> <r_mmod_Improper_Torsional_Energy-OPLS-2005>
12.2893524169922

> <r_mmod_Van_der_Waal_Energy-OPLS-2005>
148.897964477539

> <r_mmod_Electrostatic_Energy-OPLS-2005>
-1109.560546875

> <r_mmod_Solvation_Energy-OPLS-2005>
-270.820861816406

> <b_mmod_Minimization_Converged-OPLS-2005>
0

> <r_mmod_RMS_Derivative-OPLS-2005>
4.43769216537476

$$$$
31
                    3D
 Structure written by MMmdl.
157166  0  0  1  0            999 V2000
  -30.5849  -14.9307   20.4196 C   0  0  0  0  0  0
  -30.4177  -12.5806   19.4975 C   0  0  0  0  0  0
  -29.5136  -12.5373   18.2482 C   0  0  0  0  0  0
  -28.0405  -12.3426   18.6519 C   0  0  0  0  0  0
  -27.6193  -13.2605   19.8315 C   0  0  2  0  0  0
  -28.6611  -13.3002   20.9672 C   0  0  0  0  0  0
  -25.2401  -13.8231   20.5710 C   0  0  0  0  0  0
  -24.1740  -13.0437   20.9211 C   0  0  0  0  0  0
  -24.6374  -11.6929   20.8724 C   0  0  0  0  0  0
  -23.9072  -10.4293   21.0383 C   0  0  0  0  0  0
  -24.3624   -9.4217   21.9179 C   0  0  0  0  0  0
  -23.6298   -8.2253   22.0758 C   0  0  0  0  0  0
  -22.4279   -8.0284   21.3549 C   0  0  0  0  0  0
  -21.9909   -9.0248   20.4643 C   0  0  0  0  0  0
  -22.7237  -10.2130   20.3046 C   0  0  0  0  0  0
  -21.6872   -6.0737   22.5274 C   0  0  0  0  0  0
  -21.4030   -6.5636   23.8206 C   0  0  0  0  0  0
  -21.3664   -5.6784   24.9168 C   0  0  0  0  0  0
  -21.6049   -4.3048   24.7222 C   0  0  0  0  0  0
  -21.8817   -3.8145   23.4339 C   0  0  0  0  0  0
  -21.9193   -4.6961   22.3399 C   0  0  0  0  0  0
  -22.7755  -13.5196   21.1864 C   0  0  0  0  0  0
  -22.1657   -4.2144   21.0976 F   0  0  0  0  0  0
  -21.5623   -3.4529   25.7736 F   0  0  0  0  0  0
  -29.9351  -13.6984   20.3593 N   0  0  0  0  0  0
  -26.2834  -12.9492   20.3217 N   0  0  0  0  0  0
  -25.9312  -11.6604   20.5703 N   0  0  0  0  0  0
  -22.0409  -12.8210   22.0440 N   0  0  0  0  0  0
  -25.4022  -15.1973   20.4165 N   0  0  0  0  0  0
  -31.8004  -14.9150   20.1894 O   0  0  0  0  0  0
  -21.6653   -6.8881   21.4238 O   0  0  0  0  0  0
  -22.3432  -14.5489   20.6694 O   0  0  0  0  0  0
  -24.6466  -31.8457   23.1879 C   0  0  0  0  0  0
  -25.9240  -32.4702   23.8263 C   0  0  1  0  0  0
  -27.2077  -27.1291   20.1481 C   0  0  0  0  0  0
  -25.5984  -33.8506   24.2184 N   0  0  0  0  0  0
  -23.4471  -30.4669   21.5366 C   0  0  2  0  0  0
  -24.8924  -28.8941   20.1112 C   0  0  0  0  0  0
  -22.7578  -29.4561   22.4872 C   0  0  0  0  0  0
  -18.0315  -28.1395   22.8483 C   0  0  0  0  0  0
  -24.1478  -36.7242   23.2633 C   0  0  0  0  0  0
  -26.0052  -30.7170   21.3859 C   0  0  0  0  0  0
  -26.0739  -29.3288   20.7254 C   0  0  0  0  0  0
  -27.2340  -28.4656   20.7215 C   0  0  0  0  0  0
  -25.9968  -26.7995   19.4961 C   0  0  0  0  0  0
  -24.8681  -27.6439   19.4805 C   0  0  0  0  0  0
  -23.6708  -29.7985   20.1553 C   0  0  0  0  0  0
  -25.4115  -36.3029   24.0311 C   0  0  1  0  0  0
  -20.5927  -28.3725   23.1233 C   0  0  2  0  0  0
  -20.6795  -26.9426   22.5407 C   0  0  0  0  0  0
  -19.5764  -26.6381   21.5219 C   0  0  0  0  0  0
  -18.1948  -26.7933   22.1633 C   0  0  0  0  0  0
  -19.1571  -28.8880   23.2848 C   0  0  0  0  0  0
  -18.9488  -30.1481   23.8865 C   0  0  0  0  0  0
  -17.6481  -30.6590   24.0556 C   0  0  0  0  0  0
  -25.9089  -34.9412   23.5055 C   0  0  0  0  0  0
  -16.5373  -29.9080   23.6335 C   0  0  0  0  0  0
  -16.7300  -28.6502   23.0353 C   0  0  0  0  0  0
  -26.4541  -31.6570   25.0716 C   0  0  0  0  0  0
  -25.3701  -31.3775   26.1394 C   0  0  0  0  0  0
  -27.0410  -30.2964   24.6308 C   0  0  0  0  0  0
  -27.6060  -32.4341   25.7521 C   0  0  0  0  0  0
  -27.5578  -37.1764   24.8458 C   0  0  0  0  0  0
  -21.4272  -29.3049   22.3609 N   0  0  0  0  0  0
  -26.4263  -37.3763   23.9436 N   0  0  0  0  0  0
  -24.7195  -31.0308   22.0913 N   0  0  0  0  0  0
  -23.4222  -28.8106   23.3020 O   0  0  0  0  0  0
  -28.2531  -26.1331   20.2118 O   0  0  0  0  0  0
  -26.5672  -34.8912   22.4635 O   0  0  0  0  0  0
  -23.5589  -32.1341   23.7107 O   0  0  0  0  0  0
  -30.8414  -21.2459   20.2548 C   0  0  0  0  0  0
  -30.3647  -23.5385   20.0949 C   0  0  0  0  0  0
  -28.9668  -23.3300   20.2360 C   0  0  0  0  0  0
  -29.4798  -20.8783   20.3777 C   0  0  0  0  0  0
  -29.8424  -18.6720   21.6664 C   0  0  0  0  0  0
  -29.0497  -18.4565   19.4399 C   0  0  0  0  0  0
  -30.6728  -17.3434   21.2804 C   0  0  0  0  0  0
  -28.8939  -16.8667   19.7989 C   0  0  0  0  0  0
  -30.9647  -24.9159   19.8852 C   0  0  0  0  0  0
  -27.9163  -24.6057   20.1708 C   0  0  0  0  0  0
  -31.2711  -22.5259   20.1150 N   0  0  0  0  0  0
  -28.5541  -21.9616   20.3643 N   0  0  0  0  0  0
  -29.1672  -19.4335   20.5708 N   0  0  0  0  0  0
  -29.9396  -16.1874   20.6529 N   0  0  0  0  0  0
  -31.4588  -12.7050   19.1955 H   0  0  0  0  0  0
  -30.3782  -11.6318   20.0348 H   0  0  0  0  0  0
  -29.8283  -11.7395   17.5744 H   0  0  0  0  0  0
  -29.6202  -13.4691   17.6910 H   0  0  0  0  0  0
  -27.9059  -11.2954   18.9243 H   0  0  0  0  0  0
  -27.3934  -12.5161   17.7911 H   0  0  0  0  0  0
  -27.5730  -14.2645   19.4094 H   0  0  0  0  0  0
  -28.7438  -12.3291   21.4585 H   0  0  0  0  0  0
  -28.3636  -14.0153   21.7351 H   0  0  0  0  0  0
  -25.2756   -9.5712   22.4769 H   0  0  0  0  0  0
  -24.0006   -7.4658   22.7490 H   0  0  0  0  0  0
  -21.0840   -8.8763   19.8949 H   0  0  0  0  0  0
  -22.3676  -10.9674   19.6168 H   0  0  0  0  0  0
  -21.2031   -7.6145   23.9719 H   0  0  0  0  0  0
  -21.1493   -6.0510   25.9076 H   0  0  0  0  0  0
  -22.0592   -2.7604   23.2840 H   0  0  0  0  0  0
  -22.4015  -11.9881   22.4854 H   0  0  0  0  0  0
  -21.1026  -13.1253   22.2623 H   0  0  0  0  0  0
  -24.6339  -15.8456   20.5488 H   0  0  0  0  0  0
  -26.2519  -15.6490   20.1065 H   0  0  0  0  0  0
  -26.7309  -32.5286   23.0984 H   0  0  0  0  0  0
  -25.0081  -33.9625   25.0297 H   0  0  0  0  0  0
  -22.7493  -31.2932   21.3844 H   0  0  0  0  0  0
  -23.3776  -35.9535   23.3243 H   0  0  0  0  0  0
  -24.3557  -36.8937   22.2057 H   0  0  0  0  0  0
  -23.7187  -37.6399   23.6709 H   0  0  0  0  0  0
  -26.1629  -31.4721   20.6149 H   0  0  0  0  0  0
  -26.8768  -30.7632   22.0271 H   0  0  0  0  0  0
  -28.1368  -28.7962   21.2156 H   0  0  0  0  0  0
  -25.8738  -25.8493   19.0012 H   0  0  0  0  0  0
  -23.9668  -27.3062   18.9879 H   0  0  0  0  0  0
  -23.8075  -30.5750   19.4020 H   0  0  0  0  0  0
  -22.7834  -29.2446   19.8442 H   0  0  0  0  0  0
  -25.1296  -36.1831   25.0800 H   0  0  0  0  0  0
  -21.0023  -28.3313   24.1351 H   0  0  0  0  0  0
  -20.5685  -26.2343   23.3635 H   0  0  0  0  0  0
  -21.6657  -26.7426   22.1194 H   0  0  0  0  0  0
  -19.6919  -25.6283   21.1271 H   0  0  0  0  0  0
  -19.6689  -27.3173   20.6732 H   0  0  0  0  0  0
  -17.4215  -26.6685   21.4039 H   0  0  0  0  0  0
  -18.0336  -26.0078   22.9032 H   0  0  0  0  0  0
  -19.7962  -30.7317   24.2201 H   0  0  0  0  0  0
  -17.5030  -31.6264   24.5170 H   0  0  0  0  0  0
  -15.5371  -30.2968   23.7678 H   0  0  0  0  0  0
  -15.8701  -28.0817   22.7071 H   0  0  0  0  0  0
  -24.5872  -30.7147   25.7693 H   0  0  0  0  0  0
  -24.8902  -32.2969   26.4760 H   0  0  0  0  0  0
  -25.7950  -30.8965   27.0212 H   0  0  0  0  0  0
  -26.3040  -29.6685   24.1290 H   0  0  0  0  0  0
  -27.3995  -29.7269   25.4893 H   0  0  0  0  0  0
  -27.8953  -30.4210   23.9650 H   0  0  0  0  0  0
  -27.2644  -33.3654   26.2053 H   0  0  0  0  0  0
  -28.3903  -32.6889   25.0381 H   0  0  0  0  0  0
  -28.0689  -31.8494   26.5482 H   0  0  0  0  0  0
  -28.2539  -38.0117   24.7589 H   0  0  0  0  0  0
  -28.1132  -36.2655   24.6170 H   0  0  0  0  0  0
  -27.2313  -37.1269   25.8860 H   0  0  0  0  0  0
  -20.9491  -29.8763   21.6781 H   0  0  0  0  0  0
  -26.0121  -38.2814   24.1501 H   0  0  0  0  0  0
  -31.6176  -20.4945   20.2775 H   0  0  0  0  0  0
  -30.5048  -19.3453   22.2120 H   0  0  0  0  0  0
  -29.0700  -18.3927   22.3851 H   0  0  0  0  0  0
  -28.1836  -18.7546   18.8461 H   0  0  0  0  0  0
  -29.9117  -18.5862   18.7827 H   0  0  0  0  0  0
  -31.1395  -16.9688   22.1925 H   0  0  0  0  0  0
  -31.5012  -17.6181   20.6253 H   0  0  0  0  0  0
  -28.8187  -16.3141   18.8609 H   0  0  0  0  0  0
  -27.9377  -16.7145   20.2999 H   0  0  0  0  0  0
  -30.4346  -25.4545   19.1003 H   0  0  0  0  0  0
  -32.0100  -24.8498   19.5804 H   0  0  0  0  0  0
  -30.9213  -25.5014   20.8036 H   0  0  0  0  0  0
  -27.1994  -24.4355   20.9741 H   0  0  0  0  0  0
  -27.3750  -24.4189   19.2462 H   0  0  0  0  0  0
  1 25  1  0  0  0
  1 30  2  0  0  0
  1 84  1  0  0  0
  2  3  1  0  0  0
  2 25  1  0  0  0
  2 85  1  0  0  0
  2 86  1  0  0  0
  3  4  1  0  0  0
  3 87  1  0  0  0
  3 88  1  0  0  0
  4  5  1  0  0  0
  4 89  1  0  0  0
  4 90  1  0  0  0
  5  6  1  0  0  0
  5 26  1  0  0  0
  5 91  1  0  0  0
  6 25  1  0  0  0
  6 92  1  0  0  0
  6 93  1  0  0  0
  7  8  2  0  0  0
  7 26  1  0  0  0
  7 29  1  0  0  0
  8  9  1  0  0  0
  8 22  1  0  0  0
  9 10  1  0  0  0
  9 27  2  0  0  0
 10 11  2  0  0  0
 10 15  1  0  0  0
 11 12  1  0  0  0
 11 94  1  0  0  0
 12 13  2  0  0  0
 12 95  1  0  0  0
 13 14  1  0  0  0
 13 31  1  0  0  0
 14 15  2  0  0  0
 14 96  1  0  0  0
 15 97  1  0  0  0
 16 17  2  0  0  0
 16 21  1  0  0  0
 16 31  1  0  0  0
 17 18  1  0  0  0
 17 98  1  0  0  0
 18 19  2  0  0  0
 18 99  1  0  0  0
 19 20  1  0  0  0
 19 24  1  0  0  0
 20 21  2  0  0  0
 20100  1  0  0  0
 21 23  1  0  0  0
 22 28  1  0  0  0
 22 32  2  0  0  0
 26 27  1  0  0  0
 28101  1  0  0  0
 28102  1  0  0  0
 29103  1  0  0  0
 29104  1  0  0  0
 33 34  1  0  0  0
 33 66  1  0  0  0
 33 70  2  0  0  0
 34 36  1  0  0  0
 34 59  1  0  0  0
 34105  1  0  0  0
 35 44  2  0  0  0
 35 45  1  0  0  0
 35 68  1  0  0  0
 36 56  1  0  0  0
 36106  1  0  0  0
 37 39  1  0  0  0
 37 47  1  0  0  0
 37 66  1  0  0  0
 37107  1  0  0  0
 38 43  2  0  0  0
 38 46  1  0  0  0
 38 47  1  0  0  0
 39 64  1  0  0  0
 39 67  2  0  0  0
 40 52  1  0  0  0
 40 53  2  0  0  0
 40 58  1  0  0  0
 41108  1  0  0  0
 41109  1  0  0  0
 41110  1  0  0  0
 41 48  1  0  0  0
 42 43  1  0  0  0
 42 66  1  0  0  0
 42111  1  0  0  0
 42112  1  0  0  0
 43 44  1  0  0  0
 44113  1  0  0  0
 45 46  2  0  0  0
 45114  1  0  0  0
 46115  1  0  0  0
 47116  1  0  0  0
 47117  1  0  0  0
 48 56  1  0  0  0
 48 65  1  0  0  0
 48118  1  0  0  0
 49 50  1  0  0  0
 49 53  1  0  0  0
 49 64  1  0  0  0
 49119  1  0  0  0
 50 51  1  0  0  0
 50120  1  0  0  0
 50121  1  0  0  0
 51 52  1  0  0  0
 51122  1  0  0  0
 51123  1  0  0  0
 52124  1  0  0  0
 52125  1  0  0  0
 53 54  1  0  0  0
 54 55  2  0  0  0
 54126  1  0  0  0
 55 57  1  0  0  0
 55127  1  0  0  0
 56 69  2  0  0  0
 57 58  2  0  0  0
 57128  1  0  0  0
 58129  1  0  0  0
 59 60  1  0  0  0
 59 61  1  0  0  0
 59 62  1  0  0  0
 60130  1  0  0  0
 60131  1  0  0  0
 60132  1  0  0  0
 61133  1  0  0  0
 61134  1  0  0  0
 61135  1  0  0  0
 62136  1  0  0  0
 62137  1  0  0  0
 62138  1  0  0  0
 63 65  1  0  0  0
 63139  1  0  0  0
 63140  1  0  0  0
 63141  1  0  0  0
 64142  1  0  0  0
 65143  1  0  0  0
 68 80  1  0  0  0
 71 74  2  0  0  0
 71 81  1  0  0  0
 71144  1  0  0  0
 72 73  1  0  0  0
 72 79  1  0  0  0
 72 81  2  0  0  0
 73 80  1  0  0  0
 73 82  2  0  0  0
 74 82  1  0  0  0
 74 83  1  0  0  0
 75 77  1  0  0  0
 75 83  1  0  0  0
 75145  1  0  0  0
 75146  1  0  0  0
 76 78  1  0  0  0
 76 83  1  0  0  0
 76147  1  0  0  0
 76148  1  0  0  0
 77 84  1  0  0  0
 77149  1  0  0  0
 77150  1  0  0  0
 78 84  1  0  0  0
 78151  1  0  0  0
 78152  1  0  0  0
 79153  1  0  0  0
 79154  1  0  0  0
 79155  1  0  0  0
 80156  1  0  0  0
 80157  1  0  0  0
M  ISO  4   1 100  68 101  80 101  84 100
M  END
> <chiral flag>
0

> <version>
0

> <s_m_source_file>
/data/baiqing/PycharmProjects/Reinvent-master-3.2/result/LINK_invent/BTK/process_docking_weight1_custom_sum_contain_oxygen_bond_distance_aromatic_linkinvent_7_9_3/rearranged_h_0184.sdf

> <i_m_source_file_index>
32

> <r_mmod_Potential_Energy-OPLS-2005>
729.900085449219

> <r_mmod_Stretch_Energy-OPLS-2005>
235.931259155273

> <r_mmod_Bend_Energy-OPLS-2005>
261.532989501953

> <r_mmod_Torsional_Energy-OPLS-2005>
375.165679931641

> <r_mmod_Improper_Torsional_Energy-OPLS-2005>
8.69714260101318

> <r_mmod_Van_der_Waal_Energy-OPLS-2005>
146.328979492188

> <r_mmod_Electrostatic_Energy-OPLS-2005>
-253.008972167969

> <r_mmod_Solvation_Energy-OPLS-2005>
-234.312210083008

> <b_mmod_Minimization_Converged-OPLS-2005>
0

> <r_mmod_RMS_Derivative-OPLS-2005>
1.96794283390045

$$$$
32
                    3D
 Structure written by MMmdl.
145154  0  0  1  0            999 V2000
  -30.3823  -15.4446   20.3549 C   0  0  0  0  0  0
  -30.4176  -12.9435   19.5326 C   0  0  0  0  0  0
  -29.5360  -12.6075   18.3026 C   0  0  0  0  0  0
  -28.0936  -12.2991   18.7355 C   0  0  0  0  0  0
  -27.5936  -13.2946   19.8111 C   0  0  2  0  0  0
  -28.6147  -13.5592   20.9365 C   0  0  0  0  0  0
  -25.2314  -13.8282   20.5783 C   0  0  0  0  0  0
  -24.1687  -13.0442   20.9267 C   0  0  0  0  0  0
  -24.6374  -11.6948   20.8747 C   0  0  0  0  0  0
  -23.9089  -10.4296   21.0407 C   0  0  0  0  0  0
  -24.3644   -9.4208   21.9193 C   0  0  0  0  0  0
  -23.6297   -8.2247   22.0763 C   0  0  0  0  0  0
  -22.4277   -8.0288   21.3551 C   0  0  0  0  0  0
  -21.9910   -9.0271   20.4662 C   0  0  0  0  0  0
  -22.7251  -10.2141   20.3068 C   0  0  0  0  0  0
  -21.6856   -6.0734   22.5275 C   0  0  0  0  0  0
  -21.4029   -6.5641   23.8214 C   0  0  0  0  0  0
  -21.3656   -5.6794   24.9177 C   0  0  0  0  0  0
  -21.6040   -4.3058   24.7220 C   0  0  0  0  0  0
  -21.8813   -3.8142   23.4341 C   0  0  0  0  0  0
  -21.9190   -4.6961   22.3399 C   0  0  0  0  0  0
  -22.7711  -13.5181   21.1915 C   0  0  0  0  0  0
  -22.1651   -4.2154   21.0972 F   0  0  0  0  0  0
  -21.5625   -3.4543   25.7729 F   0  0  0  0  0  0
  -29.8119  -14.1208   20.2848 N   0  0  0  0  0  0
  -26.2734  -12.9587   20.3196 N   0  0  0  0  0  0
  -25.9313  -11.6676   20.5698 N   0  0  0  0  0  0
  -22.0371  -12.8185   22.0482 N   0  0  0  0  0  0
  -25.3950  -15.2027   20.4288 N   0  0  0  0  0  0
  -31.6165  -15.3643   20.2261 O   0  0  0  0  0  0
  -21.6638   -6.8885   21.4239 O   0  0  0  0  0  0
  -22.3390  -14.5475   20.6740 O   0  0  0  0  0  0
  -24.6721  -31.8115   23.1612 C   0  0  0  0  0  0
  -25.9352  -32.4519   23.8134 C   0  0  1  0  0  0
  -27.2112  -26.7964   20.2162 C   0  0  0  0  0  0
  -25.5972  -33.8346   24.2019 N   0  0  0  0  0  0
  -23.4927  -30.4179   21.5115 C   0  0  2  0  0  0
  -24.9416  -28.7715   20.1192 C   0  0  0  0  0  0
  -22.7709  -29.4385   22.4738 C   0  0  0  0  0  0
  -18.0333  -28.1416   22.8464 C   0  0  0  0  0  0
  -24.1502  -36.7197   23.2659 C   0  0  0  0  0  0
  -26.0657  -30.5731   21.4136 C   0  0  0  0  0  0
  -26.1249  -29.1466   20.7668 C   0  0  0  0  0  0
  -27.2454  -28.1834   20.7843 C   0  0  0  0  0  0
  -26.0000  -26.6042   19.5074 C   0  0  0  0  0  0
  -24.9117  -27.5239   19.4705 C   0  0  0  0  0  0
  -23.7385  -29.7207   20.1429 C   0  0  0  0  0  0
  -25.4149  -36.2929   24.0286 C   0  0  1  0  0  0
  -20.5956  -28.3771   23.1162 C   0  0  2  0  0  0
  -20.6802  -26.9440   22.5402 C   0  0  0  0  0  0
  -19.5784  -26.6368   21.5219 C   0  0  0  0  0  0
  -18.1964  -26.7945   22.1622 C   0  0  0  0  0  0
  -19.1591  -28.8918   23.2792 C   0  0  0  0  0  0
  -18.9501  -30.1500   23.8843 C   0  0  0  0  0  0
  -17.6490  -30.6595   24.0556 C   0  0  0  0  0  0
  -25.9109  -34.9308   23.4981 C   0  0  0  0  0  0
  -16.5383  -29.9081   23.6340 C   0  0  0  0  0  0
  -16.7309  -28.6500   23.0363 C   0  0  0  0  0  0
  -26.4556  -31.6529   25.0733 C   0  0  0  0  0  0
  -25.3640  -31.3829   26.1364 C   0  0  0  0  0  0
  -27.0481  -30.2873   24.6588 C   0  0  0  0  0  0
  -27.6012  -32.4385   25.7542 C   0  0  0  0  0  0
  -27.5554  -37.1790   24.8484 C   0  0  0  0  0  0
  -21.4366  -29.3041   22.3487 N   0  0  0  0  0  0
  -26.4305  -37.3652   23.9363 N   0  0  0  0  0  0
  -24.7657  -30.9656   22.0817 N   0  0  0  0  0  0
  -23.4197  -28.7970   23.3036 O   0  0  0  0  0  0
  -28.2628  -25.6990   20.2520 O   0  0  0  0  0  0
  -26.5737  -34.8850   22.4590 O   0  0  0  0  0  0
  -23.5763  -32.1151   23.6619 O   0  0  0  0  0  0
  -27.6028  -21.7588   20.0943 C   0  0  0  0  0  0
  -28.8796  -21.0345   20.3127 C   0  0  0  0  0  0
  -28.3309  -24.1532   20.2851 C   0  0  0  0  0  0
  -30.1336  -18.1716   21.1934 C   0  0  0  0  0  0
  -28.7355  -17.7908   19.7532 C   0  0  0  0  0  0
  -29.3553  -19.2707   20.2269 C   0  0  0  0  0  0
  -27.3467  -23.1936   20.0822 N   0  0  0  0  0  0
  -29.7970  -22.0942   20.4952 N   0  0  0  0  0  0
  -29.5549  -23.5025   20.4876 N   0  0  0  0  0  0
  -29.7173  -16.8162   20.5104 N   0  0  0  0  0  0
  -31.4301  -13.1647   19.1908 H   0  0  0  0  0  0
  -30.5194  -12.0750   20.1833 H   0  0  0  0  0  0
  -29.9529  -11.7630   17.7516 H   0  0  0  0  0  0
  -29.5408  -13.4541   17.6155 H   0  0  0  0  0  0
  -28.0808  -11.2867   19.1411 H   0  0  0  0  0  0
  -27.4253  -12.2976   17.8733 H   0  0  0  0  0  0
  -27.4775  -14.2386   19.2761 H   0  0  0  0  0  0
  -28.8302  -12.6554   21.5088 H   0  0  0  0  0  0
  -28.2165  -14.2895   21.6431 H   0  0  0  0  0  0
  -25.2797   -9.5682   22.4770 H   0  0  0  0  0  0
  -24.0003   -7.4641   22.7492 H   0  0  0  0  0  0
  -21.0832   -8.8805   19.8984 H   0  0  0  0  0  0
  -22.3713  -10.9687   19.6182 H   0  0  0  0  0  0
  -21.2042   -7.6156   23.9714 H   0  0  0  0  0  0
  -21.1480   -6.0532   25.9083 H   0  0  0  0  0  0
  -22.0592   -2.7604   23.2838 H   0  0  0  0  0  0
  -22.3989  -11.9869   22.4904 H   0  0  0  0  0  0
  -21.0991  -13.1227   22.2683 H   0  0  0  0  0  0
  -24.6324  -15.8571   20.5703 H   0  0  0  0  0  0
  -26.2528  -15.6503   20.1323 H   0  0  0  0  0  0
  -26.7429  -32.5007   23.0845 H   0  0  0  0  0  0
  -25.0038  -33.9423   25.0115 H   0  0  0  0  0  0
  -22.8123  -31.2523   21.3298 H   0  0  0  0  0  0
  -23.3723  -35.9581   23.3399 H   0  0  0  0  0  0
  -24.3534  -36.8773   22.2057 H   0  0  0  0  0  0
  -23.7345  -37.6442   23.6678 H   0  0  0  0  0  0
  -26.2654  -31.3025   20.6270 H   0  0  0  0  0  0
  -26.9187  -30.6324   22.0781 H   0  0  0  0  0  0
  -28.1453  -28.4754   21.3095 H   0  0  0  0  0  0
  -25.8656  -25.6597   18.9991 H   0  0  0  0  0  0
  -24.0169  -27.2326   18.9374 H   0  0  0  0  0  0
  -23.9156  -30.4857   19.3858 H   0  0  0  0  0  0
  -22.8437  -29.1872   19.8158 H   0  0  0  0  0  0
  -25.1368  -36.1731   25.0784 H   0  0  0  0  0  0
  -21.0047  -28.3399   24.1285 H   0  0  0  0  0  0
  -20.5690  -26.2399   23.3658 H   0  0  0  0  0  0
  -21.6668  -26.7416   22.1218 H   0  0  0  0  0  0
  -19.6955  -25.6261   21.1307 H   0  0  0  0  0  0
  -19.6723  -27.3123   20.6706 H   0  0  0  0  0  0
  -17.4232  -26.6682   21.4018 H   0  0  0  0  0  0
  -18.0356  -26.0093   22.9031 H   0  0  0  0  0  0
  -19.7972  -30.7334   24.2189 H   0  0  0  0  0  0
  -17.5037  -31.6275   24.5170 H   0  0  0  0  0  0
  -15.5380  -30.2969   23.7695 H   0  0  0  0  0  0
  -15.8708  -28.0801   22.7111 H   0  0  0  0  0  0
  -24.5813  -30.7192   25.7665 H   0  0  0  0  0  0
  -24.8845  -32.3057   26.4645 H   0  0  0  0  0  0
  -25.7821  -30.9081   27.0250 H   0  0  0  0  0  0
  -26.3175  -29.6490   24.1604 H   0  0  0  0  0  0
  -27.3948  -29.7303   25.5307 H   0  0  0  0  0  0
  -27.9142  -30.4004   24.0063 H   0  0  0  0  0  0
  -27.2526  -33.3700   26.2003 H   0  0  0  0  0  0
  -28.3870  -32.6941   25.0426 H   0  0  0  0  0  0
  -28.0635  -31.8631   26.5570 H   0  0  0  0  0  0
  -28.2645  -37.9999   24.7345 H   0  0  0  0  0  0
  -28.0968  -36.2521   24.6546 H   0  0  0  0  0  0
  -27.2241  -37.1709   25.8880 H   0  0  0  0  0  0
  -20.9637  -29.8690   21.6571 H   0  0  0  0  0  0
  -26.0156  -38.2741   24.1229 H   0  0  0  0  0  0
  -26.7285  -21.1584   19.8872 H   0  0  0  0  0  0
  -29.7604  -18.2291   22.2170 H   0  0  0  0  0  0
  -31.2115  -18.3375   21.2184 H   0  0  0  0  0  0
  -28.7542  -17.6701   18.6693 H   0  0  0  0  0  0
  -27.7039  -17.6670   20.0862 H   0  0  0  0  0  0
  -30.0973  -19.4336   19.4445 H   0  0  0  0  0  0
  1 25  1  0  0  0
  1 30  2  0  0  0
  1 80  1  0  0  0
  2  3  1  0  0  0
  2 25  1  0  0  0
  2 81  1  0  0  0
  2 82  1  0  0  0
  3  4  1  0  0  0
  3 83  1  0  0  0
  3 84  1  0  0  0
  4  5  1  0  0  0
  4 85  1  0  0  0
  4 86  1  0  0  0
  5  6  1  0  0  0
  5 26  1  0  0  0
  5 87  1  0  0  0
  6 25  1  0  0  0
  6 88  1  0  0  0
  6 89  1  0  0  0
  7  8  2  0  0  0
  7 26  1  0  0  0
  7 29  1  0  0  0
  8  9  1  0  0  0
  8 22  1  0  0  0
  9 10  1  0  0  0
  9 27  2  0  0  0
 10 11  2  0  0  0
 10 15  1  0  0  0
 11 12  1  0  0  0
 11 90  1  0  0  0
 12 13  2  0  0  0
 12 91  1  0  0  0
 13 14  1  0  0  0
 13 31  1  0  0  0
 14 15  2  0  0  0
 14 92  1  0  0  0
 15 93  1  0  0  0
 16 17  2  0  0  0
 16 21  1  0  0  0
 16 31  1  0  0  0
 17 18  1  0  0  0
 17 94  1  0  0  0
 18 19  2  0  0  0
 18 95  1  0  0  0
 19 20  1  0  0  0
 19 24  1  0  0  0
 20 21  2  0  0  0
 20 96  1  0  0  0
 21 23  1  0  0  0
 22 28  1  0  0  0
 22 32  2  0  0  0
 26 27  1  0  0  0
 28 97  1  0  0  0
 28 98  1  0  0  0
 29 99  1  0  0  0
 29100  1  0  0  0
 33 34  1  0  0  0
 33 66  1  0  0  0
 33 70  2  0  0  0
 34 36  1  0  0  0
 34 59  1  0  0  0
 34101  1  0  0  0
 35 44  2  0  0  0
 35 45  1  0  0  0
 35 68  1  0  0  0
 36 56  1  0  0  0
 36102  1  0  0  0
 37 39  1  0  0  0
 37 47  1  0  0  0
 37 66  1  0  0  0
 37103  1  0  0  0
 38 43  2  0  0  0
 38 46  1  0  0  0
 38 47  1  0  0  0
 39 64  1  0  0  0
 39 67  2  0  0  0
 40 52  1  0  0  0
 40 53  2  0  0  0
 40 58  1  0  0  0
 41104  1  0  0  0
 41105  1  0  0  0
 41106  1  0  0  0
 41 48  1  0  0  0
 42 43  1  0  0  0
 42 66  1  0  0  0
 42107  1  0  0  0
 42108  1  0  0  0
 43 44  1  0  0  0
 44109  1  0  0  0
 45 46  2  0  0  0
 45110  1  0  0  0
 46111  1  0  0  0
 47112  1  0  0  0
 47113  1  0  0  0
 48 56  1  0  0  0
 48 65  1  0  0  0
 48114  1  0  0  0
 49 50  1  0  0  0
 49 53  1  0  0  0
 49 64  1  0  0  0
 49115  1  0  0  0
 50 51  1  0  0  0
 50116  1  0  0  0
 50117  1  0  0  0
 51 52  1  0  0  0
 51118  1  0  0  0
 51119  1  0  0  0
 52120  1  0  0  0
 52121  1  0  0  0
 53 54  1  0  0  0
 54 55  2  0  0  0
 54122  1  0  0  0
 55 57  1  0  0  0
 55123  1  0  0  0
 56 69  2  0  0  0
 57 58  2  0  0  0
 57124  1  0  0  0
 58125  1  0  0  0
 59 60  1  0  0  0
 59 61  1  0  0  0
 59 62  1  0  0  0
 60126  1  0  0  0
 60127  1  0  0  0
 60128  1  0  0  0
 61129  1  0  0  0
 61130  1  0  0  0
 61131  1  0  0  0
 62132  1  0  0  0
 62133  1  0  0  0
 62134  1  0  0  0
 63 65  1  0  0  0
 63135  1  0  0  0
 63136  1  0  0  0
 63137  1  0  0  0
 64138  1  0  0  0
 65139  1  0  0  0
 68 73  1  0  0  0
 71 72  2  0  0  0
 71 77  1  0  0  0
 71140  1  0  0  0
 72 78  1  0  0  0
 72 76  1  0  0  0
 73 77  2  0  0  0
 73 79  1  0  0  0
 74 76  1  0  0  0
 74 80  1  0  0  0
 74141  1  0  0  0
 74142  1  0  0  0
 75 76  1  0  0  0
 75 80  1  0  0  0
 75143  1  0  0  0
 75144  1  0  0  0
 76145  1  0  0  0
 78 79  2  0  0  0
M  ISO  4   1 100  68 101  73 101  80 100
M  END
> <chiral flag>
0

> <version>
0

> <s_m_source_file>
/data/baiqing/PycharmProjects/Reinvent-master-3.2/result/LINK_invent/BTK/process_docking_weight1_custom_sum_contain_oxygen_bond_distance_aromatic_linkinvent_7_9_3/rearranged_h_0184.sdf

> <i_m_source_file_index>
33

> <r_mmod_Potential_Energy-OPLS-2005>
1759.43994140625

> <r_mmod_Stretch_Energy-OPLS-2005>
639.1162109375

> <r_mmod_Bend_Energy-OPLS-2005>
622.091186523438

> <r_mmod_Torsional_Energy-OPLS-2005>
269.050018310547

> <r_mmod_Improper_Torsional_Energy-OPLS-2005>
4.41612577438354

> <r_mmod_Van_der_Waal_Energy-OPLS-2005>
128.383773803711

> <r_mmod_Electrostatic_Energy-OPLS-2005>
-314.636383056641

> <r_mmod_Solvation_Energy-OPLS-2005>
-239.767623901367

> <b_mmod_Minimization_Converged-OPLS-2005>
0

> <r_mmod_RMS_Derivative-OPLS-2005>
2.35411667823792

$$$$
33
                    3D
 Structure written by MMmdl.
159169  0  0  1  0            999 V2000
  -30.5809  -14.9242   20.4558 C   0  0  0  0  0  0
  -30.4364  -12.5821   19.4941 C   0  0  0  0  0  0
  -29.5161  -12.5400   18.2528 C   0  0  0  0  0  0
  -28.0479  -12.3299   18.6677 C   0  0  0  0  0  0
  -27.6322  -13.2453   19.8484 C   0  0  2  0  0  0
  -28.6804  -13.2327   20.9828 C   0  0  0  0  0  0
  -25.2411  -13.8189   20.5638 C   0  0  0  0  0  0
  -24.1762  -13.0412   20.9220 C   0  0  0  0  0  0
  -24.6397  -11.6912   20.8774 C   0  0  0  0  0  0
  -23.9081  -10.4286   21.0423 C   0  0  0  0  0  0
  -24.3630   -9.4200   21.9193 C   0  0  0  0  0  0
  -23.6301   -8.2236   22.0752 C   0  0  0  0  0  0
  -22.4276   -8.0284   21.3549 C   0  0  0  0  0  0
  -21.9927   -9.0260   20.4644 C   0  0  0  0  0  0
  -22.7259  -10.2137   20.3058 C   0  0  0  0  0  0
  -21.6845   -6.0744   22.5281 C   0  0  0  0  0  0
  -21.4012   -6.5646   23.8217 C   0  0  0  0  0  0
  -21.3661   -5.6791   24.9176 C   0  0  0  0  0  0
  -21.6043   -4.3055   24.7221 C   0  0  0  0  0  0
  -21.8817   -3.8154   23.4338 C   0  0  0  0  0  0
  -21.9190   -4.6977   22.3401 C   0  0  0  0  0  0
  -22.7783  -13.5197   21.1874 C   0  0  0  0  0  0
  -22.1653   -4.2171   21.0972 F   0  0  0  0  0  0
  -21.5635   -3.4536   25.7729 F   0  0  0  0  0  0
  -29.9510  -13.6761   20.3887 N   0  0  0  0  0  0
  -26.2887  -12.9439   20.3287 N   0  0  0  0  0  0
  -25.9337  -11.6570   20.5796 N   0  0  0  0  0  0
  -22.0442  -12.8197   22.0443 N   0  0  0  0  0  0
  -25.3933  -15.1903   20.3909 N   0  0  0  0  0  0
  -31.7718  -14.9517   20.1229 O   0  0  0  0  0  0
  -21.6635   -6.8887   21.4243 O   0  0  0  0  0  0
  -22.3469  -14.5498   20.6709 O   0  0  0  0  0  0
  -24.6434  -31.8450   23.1906 C   0  0  0  0  0  0
  -25.9211  -32.4702   23.8292 C   0  0  1  0  0  0
  -27.2152  -27.1480   20.1519 C   0  0  0  0  0  0
  -25.5966  -33.8507   24.2209 N   0  0  0  0  0  0
  -23.4469  -30.4645   21.5364 C   0  0  2  0  0  0
  -24.8962  -28.8931   20.1141 C   0  0  0  0  0  0
  -22.7568  -29.4547   22.4879 C   0  0  0  0  0  0
  -18.0301  -28.1395   22.8476 C   0  0  0  0  0  0
  -24.1487  -36.7249   23.2644 C   0  0  0  0  0  0
  -26.0027  -30.7217   21.3889 C   0  0  0  0  0  0
  -26.0746  -29.3336   20.7311 C   0  0  0  0  0  0
  -27.2393  -28.4778   20.7315 C   0  0  0  0  0  0
  -26.0153  -26.8105   19.4906 C   0  0  0  0  0  0
  -24.8781  -27.6434   19.4779 C   0  0  0  0  0  0
  -23.6730  -29.7943   20.1559 C   0  0  0  0  0  0
  -25.4122  -36.3035   24.0318 C   0  0  1  0  0  0
  -20.5915  -28.3720   23.1235 C   0  0  2  0  0  0
  -20.6783  -26.9422   22.5400 C   0  0  0  0  0  0
  -19.5757  -26.6380   21.5209 C   0  0  0  0  0  0
  -18.1940  -26.7936   22.1619 C   0  0  0  0  0  0
  -19.1558  -28.8876   23.2849 C   0  0  0  0  0  0
  -18.9476  -30.1472   23.8871 C   0  0  0  0  0  0
  -17.6475  -30.6592   24.0557 C   0  0  0  0  0  0
  -25.9072  -34.9409   23.5068 C   0  0  0  0  0  0
  -16.5364  -29.9081   23.6342 C   0  0  0  0  0  0
  -16.7286  -28.6500   23.0362 C   0  0  0  0  0  0
  -26.4530  -31.6571   25.0731 C   0  0  0  0  0  0
  -25.3716  -31.3751   26.1427 C   0  0  0  0  0  0
  -27.0404  -30.2970   24.6316 C   0  0  0  0  0  0
  -27.6065  -32.4336   25.7507 C   0  0  0  0  0  0
  -27.5574  -37.1783   24.8469 C   0  0  0  0  0  0
  -21.4261  -29.3050   22.3618 N   0  0  0  0  0  0
  -26.4285  -37.3749   23.9411 N   0  0  0  0  0  0
  -24.7174  -31.0308   22.0941 N   0  0  0  0  0  0
  -23.4205  -28.8100   23.3041 O   0  0  0  0  0  0
  -28.2493  -26.1470   20.1740 O   0  0  0  0  0  0
  -26.5651  -34.8903   22.4641 O   0  0  0  0  0  0
  -23.5551  -32.1322   23.7119 O   0  0  0  0  0  0
  -29.4537  -22.5126   21.1943 C   0  0  0  0  0  0
  -29.0040  -20.3198   20.2668 C   0  0  0  0  0  0
  -28.0876  -21.0551   19.4149 C   0  0  0  0  0  0
  -28.5349  -23.2457   20.3555 C   0  0  0  0  0  0
  -25.7328  -20.7464   18.2748 C   0  0  0  0  0  0
  -26.1018  -19.4173   18.8678 C   0  0  0  0  0  0
  -28.4748  -17.9889   21.5904 C   0  0  0  0  0  0
  -28.7185  -16.4428   21.4536 C   0  0  0  0  0  0
  -30.2693  -17.5963   20.1201 C   0  0  0  0  0  0
  -29.0582  -18.6581   20.3446 C   0  0  2  0  0  0
  -27.1969  -20.3665   18.4144 C   0  0  0  0  0  0
  -27.8975  -24.7325   20.7034 C   0  0  0  0  0  0
  -29.6885  -21.1301   21.1480 N   0  0  0  0  0  0
  -27.8889  -22.4363   19.4520 N   0  0  0  0  0  0
  -29.8713  -16.1655   20.5730 N   0  0  0  0  0  0
  -31.4700  -12.7299   19.1774 H   0  0  0  0  0  0
  -30.4275  -11.6231   20.0153 H   0  0  0  0  0  0
  -29.8313  -11.7487   17.5718 H   0  0  0  0  0  0
  -29.6108  -13.4755   17.6984 H   0  0  0  0  0  0
  -27.9326  -11.2840   18.9552 H   0  0  0  0  0  0
  -27.3850  -12.4849   17.8161 H   0  0  0  0  0  0
  -27.6041  -14.2556   19.4401 H   0  0  0  0  0  0
  -28.7750  -12.2330   21.4095 H   0  0  0  0  0  0
  -28.3768  -13.8680   21.8112 H   0  0  0  0  0  0
  -25.2773   -9.5689   22.4773 H   0  0  0  0  0  0
  -24.0018   -7.4626   22.7460 H   0  0  0  0  0  0
  -21.0862   -8.8784   19.8933 H   0  0  0  0  0  0
  -22.3724  -10.9682   19.6166 H   0  0  0  0  0  0
  -21.1996   -7.6153   23.9734 H   0  0  0  0  0  0
  -21.1481   -6.0516   25.9083 H   0  0  0  0  0  0
  -22.0594   -2.7621   23.2826 H   0  0  0  0  0  0
  -22.4065  -11.9863   22.4829 H   0  0  0  0  0  0
  -21.1052  -13.1207   22.2642 H   0  0  0  0  0  0
  -24.6084  -15.8268   20.4773 H   0  0  0  0  0  0
  -26.2185  -15.6285   20.0055 H   0  0  0  0  0  0
  -26.7282  -32.5307   23.1027 H   0  0  0  0  0  0
  -25.0128  -33.9637   25.0365 H   0  0  0  0  0  0
  -22.7502  -31.2904   21.3821 H   0  0  0  0  0  0
  -23.3761  -35.9567   23.3291 H   0  0  0  0  0  0
  -24.3576  -36.8892   22.2064 H   0  0  0  0  0  0
  -23.7224  -37.6434   23.6683 H   0  0  0  0  0  0
  -26.1590  -31.4752   20.6156 H   0  0  0  0  0  0
  -26.8734  -30.7703   22.0315 H   0  0  0  0  0  0
  -28.1391  -28.8121   21.2286 H   0  0  0  0  0  0
  -25.9371  -25.8560   18.9898 H   0  0  0  0  0  0
  -23.9811  -27.3016   18.9797 H   0  0  0  0  0  0
  -23.8110  -30.5689   19.4006 H   0  0  0  0  0  0
  -22.7882  -29.2362   19.8447 H   0  0  0  0  0  0
  -25.1307  -36.1866   25.0811 H   0  0  0  0  0  0
  -21.0004  -28.3300   24.1359 H   0  0  0  0  0  0
  -20.5675  -26.2336   23.3624 H   0  0  0  0  0  0
  -21.6651  -26.7430   22.1200 H   0  0  0  0  0  0
  -19.6920  -25.6284   21.1262 H   0  0  0  0  0  0
  -19.6697  -27.3172   20.6727 H   0  0  0  0  0  0
  -17.4215  -26.6687   21.4018 H   0  0  0  0  0  0
  -18.0331  -26.0078   22.9014 H   0  0  0  0  0  0
  -19.7950  -30.7292   24.2231 H   0  0  0  0  0  0
  -17.5024  -31.6272   24.5155 H   0  0  0  0  0  0
  -15.5360  -30.2974   23.7679 H   0  0  0  0  0  0
  -15.8686  -28.0804   22.7103 H   0  0  0  0  0  0
  -24.5923  -30.7065   25.7750 H   0  0  0  0  0  0
  -24.8875  -32.2924   26.4787 H   0  0  0  0  0  0
  -25.8009  -30.8980   27.0249 H   0  0  0  0  0  0
  -26.3032  -29.6689   24.1309 H   0  0  0  0  0  0
  -27.4005  -29.7272   25.4895 H   0  0  0  0  0  0
  -27.8936  -30.4212   23.9644 H   0  0  0  0  0  0
  -27.2674  -33.3667   26.2016 H   0  0  0  0  0  0
  -28.3907  -32.6850   25.0352 H   0  0  0  0  0  0
  -28.0699  -31.8511   26.5482 H   0  0  0  0  0  0
  -28.2585  -38.0088   24.7524 H   0  0  0  0  0  0
  -28.1079  -36.2621   24.6281 H   0  0  0  0  0  0
  -27.2294  -37.1406   25.8873 H   0  0  0  0  0  0
  -20.9479  -29.8762   21.6792 H   0  0  0  0  0  0
  -26.0150  -38.2812   24.1430 H   0  0  0  0  0  0
  -29.9541  -23.0318   21.9985 H   0  0  0  0  0  0
  -25.3238  -21.4920   18.9541 H   0  0  0  0  0  0
  -25.2957  -20.7348   17.2785 H   0  0  0  0  0  0
  -25.9056  -18.5364   18.2590 H   0  0  0  0  0  0
  -25.9477  -19.2892   19.9375 H   0  0  0  0  0  0
  -28.9956  -18.3665   22.4719 H   0  0  0  0  0  0
  -27.4175  -18.2219   21.7217 H   0  0  0  0  0  0
  -27.8363  -15.9869   21.0158 H   0  0  0  0  0  0
  -28.8653  -15.9985   22.4386 H   0  0  0  0  0  0
  -31.1382  -17.9015   20.7045 H   0  0  0  0  0  0
  -30.5854  -17.5843   19.0764 H   0  0  0  0  0  0
  -28.3869  -18.3651   19.5420 H   0  0  0  0  0  0
  -27.7430  -20.1155   17.5068 H   0  0  0  0  0  0
  -28.0192  -24.8265   21.7825 H   0  0  0  0  0  0
  -26.8245  -24.5873   20.5919 H   0  0  0  0  0  0
  1 25  1  0  0  0
  1 30  2  0  0  0
  1 85  1  0  0  0
  2  3  1  0  0  0
  2 25  1  0  0  0
  2 86  1  0  0  0
  2 87  1  0  0  0
  3  4  1  0  0  0
  3 88  1  0  0  0
  3 89  1  0  0  0
  4  5  1  0  0  0
  4 90  1  0  0  0
  4 91  1  0  0  0
  5  6  1  0  0  0
  5 26  1  0  0  0
  5 92  1  0  0  0
  6 25  1  0  0  0
  6 93  1  0  0  0
  6 94  1  0  0  0
  7  8  2  0  0  0
  7 26  1  0  0  0
  7 29  1  0  0  0
  8  9  1  0  0  0
  8 22  1  0  0  0
  9 10  1  0  0  0
  9 27  2  0  0  0
 10 11  2  0  0  0
 10 15  1  0  0  0
 11 12  1  0  0  0
 11 95  1  0  0  0
 12 13  2  0  0  0
 12 96  1  0  0  0
 13 14  1  0  0  0
 13 31  1  0  0  0
 14 15  2  0  0  0
 14 97  1  0  0  0
 15 98  1  0  0  0
 16 17  2  0  0  0
 16 21  1  0  0  0
 16 31  1  0  0  0
 17 18  1  0  0  0
 17 99  1  0  0  0
 18 19  2  0  0  0
 18100  1  0  0  0
 19 20  1  0  0  0
 19 24  1  0  0  0
 20 21  2  0  0  0
 20101  1  0  0  0
 21 23  1  0  0  0
 22 28  1  0  0  0
 22 32  2  0  0  0
 26 27  1  0  0  0
 28102  1  0  0  0
 28103  1  0  0  0
 29104  1  0  0  0
 29105  1  0  0  0
 33 34  1  0  0  0
 33 66  1  0  0  0
 33 70  2  0  0  0
 34 36  1  0  0  0
 34 59  1  0  0  0
 34106  1  0  0  0
 35 44  2  0  0  0
 35 45  1  0  0  0
 35 68  1  0  0  0
 36 56  1  0  0  0
 36107  1  0  0  0
 37 39  1  0  0  0
 37 47  1  0  0  0
 37 66  1  0  0  0
 37108  1  0  0  0
 38 43  2  0  0  0
 38 46  1  0  0  0
 38 47  1  0  0  0
 39 64  1  0  0  0
 39 67  2  0  0  0
 40 52  1  0  0  0
 40 53  2  0  0  0
 40 58  1  0  0  0
 41109  1  0  0  0
 41110  1  0  0  0
 41111  1  0  0  0
 41 48  1  0  0  0
 42 43  1  0  0  0
 42 66  1  0  0  0
 42112  1  0  0  0
 42113  1  0  0  0
 43 44  1  0  0  0
 44114  1  0  0  0
 45 46  2  0  0  0
 45115  1  0  0  0
 46116  1  0  0  0
 47117  1  0  0  0
 47118  1  0  0  0
 48 56  1  0  0  0
 48 65  1  0  0  0
 48119  1  0  0  0
 49 50  1  0  0  0
 49 53  1  0  0  0
 49 64  1  0  0  0
 49120  1  0  0  0
 50 51  1  0  0  0
 50121  1  0  0  0
 50122  1  0  0  0
 51 52  1  0  0  0
 51123  1  0  0  0
 51124  1  0  0  0
 52125  1  0  0  0
 52126  1  0  0  0
 53 54  1  0  0  0
 54 55  2  0  0  0
 54127  1  0  0  0
 55 57  1  0  0  0
 55128  1  0  0  0
 56 69  2  0  0  0
 57 58  2  0  0  0
 57129  1  0  0  0
 58130  1  0  0  0
 59 60  1  0  0  0
 59 61  1  0  0  0
 59 62  1  0  0  0
 60131  1  0  0  0
 60132  1  0  0  0
 60133  1  0  0  0
 61134  1  0  0  0
 61135  1  0  0  0
 61136  1  0  0  0
 62137  1  0  0  0
 62138  1  0  0  0
 62139  1  0  0  0
 63 65  1  0  0  0
 63140  1  0  0  0
 63141  1  0  0  0
 63142  1  0  0  0
 64143  1  0  0  0
 65144  1  0  0  0
 68 82  1  0  0  0
 71 74  2  0  0  0
 71 83  1  0  0  0
 71145  1  0  0  0
 72 73  1  0  0  0
 72 83  2  0  0  0
 72 80  1  0  0  0
 73 84  2  0  0  0
 73 81  1  0  0  0
 74 82  1  0  0  0
 74 84  1  0  0  0
 75 76  1  0  0  0
 75 81  1  0  0  0
 75146  1  0  0  0
 75147  1  0  0  0
 76 81  1  0  0  0
 76148  1  0  0  0
 76149  1  0  0  0
 77 78  1  0  0  0
 77 80  1  0  0  0
 77150  1  0  0  0
 77151  1  0  0  0
 78 85  1  0  0  0
 78152  1  0  0  0
 78153  1  0  0  0
 79 80  1  0  0  0
 79 85  1  0  0  0
 79154  1  0  0  0
 79155  1  0  0  0
 80156  1  0  0  0
 81157  1  0  0  0
 82158  1  0  0  0
 82159  1  0  0  0
M  ISO  4   1 100  68 101  82 101  85 100
M  END
> <chiral flag>
0

> <version>
0

> <s_m_source_file>
/data/baiqing/PycharmProjects/Reinvent-master-3.2/result/LINK_invent/BTK/process_docking_weight1_custom_sum_contain_oxygen_bond_distance_aromatic_linkinvent_7_9_3/rearranged_h_0184.sdf

> <i_m_source_file_index>
34

> <r_mmod_Potential_Energy-OPLS-2005>
769.672790527344

> <r_mmod_Stretch_Energy-OPLS-2005>
226.589828491211

> <r_mmod_Bend_Energy-OPLS-2005>
299.877258300781

> <r_mmod_Torsional_Energy-OPLS-2005>
348.673309326172

> <r_mmod_Improper_Torsional_Energy-OPLS-2005>
13.1205606460571

> <r_mmod_Van_der_Waal_Energy-OPLS-2005>
130.329544067383

> <r_mmod_Electrostatic_Energy-OPLS-2005>
-203.071273803711

> <r_mmod_Solvation_Energy-OPLS-2005>
-220.176803588867

> <b_mmod_Minimization_Converged-OPLS-2005>
0

> <r_mmod_RMS_Derivative-OPLS-2005>
1.20902025699615

$$$$
34
                    3D
 Structure written by MMmdl.
156165  0  0  1  0            999 V2000
  -30.6338  -14.8011   20.4749 C   0  0  0  0  0  0
  -30.4298  -12.5020   19.4808 C   0  0  0  0  0  0
  -29.5107  -12.5202   18.2403 C   0  0  0  0  0  0
  -28.0386  -12.3336   18.6542 C   0  0  0  0  0  0
  -27.6385  -13.2379   19.8507 C   0  0  2  0  0  0
  -28.6860  -13.1860   20.9837 C   0  0  0  0  0  0
  -25.2472  -13.8197   20.5678 C   0  0  0  0  0  0
  -24.1783  -13.0433   20.9211 C   0  0  0  0  0  0
  -24.6391  -11.6919   20.8755 C   0  0  0  0  0  0
  -23.9073  -10.4293   21.0410 C   0  0  0  0  0  0
  -24.3622   -9.4207   21.9186 C   0  0  0  0  0  0
  -23.6296   -8.2242   22.0750 C   0  0  0  0  0  0
  -22.4281   -8.0279   21.3543 C   0  0  0  0  0  0
  -21.9919   -9.0255   20.4648 C   0  0  0  0  0  0
  -22.7248  -10.2135   20.3059 C   0  0  0  0  0  0
  -21.6855   -6.0737   22.5281 C   0  0  0  0  0  0
  -21.4015   -6.5637   23.8213 C   0  0  0  0  0  0
  -21.3658   -5.6789   24.9176 C   0  0  0  0  0  0
  -21.6044   -4.3050   24.7224 C   0  0  0  0  0  0
  -21.8817   -3.8145   23.4344 C   0  0  0  0  0  0
  -21.9193   -4.6964   22.3404 C   0  0  0  0  0  0
  -22.7804  -13.5216   21.1864 C   0  0  0  0  0  0
  -22.1663   -4.2148   21.0980 F   0  0  0  0  0  0
  -21.5631   -3.4534   25.7738 F   0  0  0  0  0  0
  -29.9721  -13.5831   20.3948 N   0  0  0  0  0  0
  -26.2922  -12.9424   20.3291 N   0  0  0  0  0  0
  -25.9330  -11.6561   20.5769 N   0  0  0  0  0  0
  -22.0447  -12.8218   22.0426 N   0  0  0  0  0  0
  -25.4094  -15.1917   20.4032 N   0  0  0  0  0  0
  -31.8202  -14.8299   20.1306 O   0  0  0  0  0  0
  -21.6639   -6.8881   21.4241 O   0  0  0  0  0  0
  -22.3492  -14.5520   20.6703 O   0  0  0  0  0  0
  -24.6367  -31.8532   23.1973 C   0  0  0  0  0  0
  -25.9175  -32.4743   23.8328 C   0  0  1  0  0  0
  -27.2096  -27.2171   20.1262 C   0  0  0  0  0  0
  -25.5953  -33.8547   24.2245 N   0  0  0  0  0  0
  -23.4349  -30.4787   21.5427 C   0  0  2  0  0  0
  -24.8805  -28.9280   20.1078 C   0  0  0  0  0  0
  -22.7537  -29.4598   22.4897 C   0  0  0  0  0  0
  -18.0299  -28.1397   22.8486 C   0  0  0  0  0  0
  -24.1492  -36.7280   23.2639 C   0  0  0  0  0  0
  -25.9873  -30.7517   21.3859 C   0  0  0  0  0  0
  -26.0574  -29.3729   20.7233 C   0  0  0  0  0  0
  -27.2246  -28.5317   20.7217 C   0  0  0  0  0  0
  -26.0060  -26.8668   19.4660 C   0  0  0  0  0  0
  -24.8634  -27.6849   19.4666 C   0  0  0  0  0  0
  -23.6551  -29.8202   20.1575 C   0  0  0  0  0  0
  -25.4119  -36.3063   24.0323 C   0  0  1  0  0  0
  -20.5910  -28.3714   23.1256 C   0  0  2  0  0  0
  -20.6788  -26.9428   22.5403 C   0  0  0  0  0  0
  -19.5754  -26.6387   21.5219 C   0  0  0  0  0  0
  -18.1937  -26.7937   22.1633 C   0  0  0  0  0  0
  -19.1555  -28.8873   23.2864 C   0  0  0  0  0  0
  -18.9472  -30.1473   23.8881 C   0  0  0  0  0  0
  -17.6468  -30.6592   24.0564 C   0  0  0  0  0  0
  -25.9067  -34.9434   23.5086 C   0  0  0  0  0  0
  -16.5360  -29.9087   23.6335 C   0  0  0  0  0  0
  -16.7285  -28.6509   23.0351 C   0  0  0  0  0  0
  -26.4514  -31.6581   25.0738 C   0  0  0  0  0  0
  -25.3715  -31.3753   26.1448 C   0  0  0  0  0  0
  -27.0363  -30.2986   24.6267 C   0  0  0  0  0  0
  -27.6059  -32.4333   25.7510 C   0  0  0  0  0  0
  -27.5581  -37.1795   24.8463 C   0  0  0  0  0  0
  -21.4238  -29.3054   22.3641 N   0  0  0  0  0  0
  -26.4289  -37.3768   23.9410 N   0  0  0  0  0  0
  -24.7060  -31.0462   22.0976 N   0  0  0  0  0  0
  -23.4222  -28.8132   23.3001 O   0  0  0  0  0  0
  -28.2651  -26.2563   20.2044 O   0  0  0  0  0  0
  -26.5640  -34.8915   22.4657 O   0  0  0  0  0  0
  -23.5508  -32.1376   23.7241 O   0  0  0  0  0  0
  -28.5124  -22.0752   20.1925 C   0  0  0  0  0  0
  -28.8221  -23.5130   20.2828 C   0  0  0  0  0  0
  -29.6516  -21.3343   20.5115 C   0  0  0  0  0  0
  -28.8801  -17.9597   21.6994 C   0  0  0  0  0  0
  -28.8809  -16.4058   21.5148 C   0  0  0  0  0  0
  -30.4197  -17.3657   20.0282 C   0  0  0  0  0  0
  -29.4604  -18.5877   20.4258 C   0  0  2  0  0  0
  -31.9696  -22.1935   21.1585 C   0  0  0  0  0  0
  -27.9034  -24.7925   19.9752 C   0  0  0  0  0  0
  -30.0929  -23.6239   20.6464 N   0  0  0  0  0  0
  -30.5769  -22.3476   20.7763 N   0  0  0  0  0  0
  -29.9419  -16.0279   20.5682 N   0  0  0  0  0  0
  -30.1145  -19.9466   20.6246 N   0  0  0  0  0  0
  -31.4686  -12.6232   19.1707 H   0  0  0  0  0  0
  -30.3886  -11.5320   19.9789 H   0  0  0  0  0  0
  -29.8067  -11.7386   17.5392 H   0  0  0  0  0  0
  -29.6266  -13.4673   17.7114 H   0  0  0  0  0  0
  -27.9054  -11.2859   18.9259 H   0  0  0  0  0  0
  -27.3791  -12.5128   17.8041 H   0  0  0  0  0  0
  -27.6268  -14.2574   19.4648 H   0  0  0  0  0  0
  -28.7485  -12.1824   21.4070 H   0  0  0  0  0  0
  -28.4009  -13.8316   21.8108 H   0  0  0  0  0  0
  -25.2764   -9.5688   22.4761 H   0  0  0  0  0  0
  -24.0009   -7.4632   22.7467 H   0  0  0  0  0  0
  -21.0852   -8.8779   19.8956 H   0  0  0  0  0  0
  -22.3706  -10.9675   19.6171 H   0  0  0  0  0  0
  -21.2008   -7.6146   23.9720 H   0  0  0  0  0  0
  -21.1483   -6.0517   25.9079 H   0  0  0  0  0  0
  -22.0598   -2.7607   23.2840 H   0  0  0  0  0  0
  -22.4063  -11.9897   22.4848 H   0  0  0  0  0  0
  -21.1057  -13.1246   22.2602 H   0  0  0  0  0  0
  -24.6371  -15.8405   20.5094 H   0  0  0  0  0  0
  -26.2512  -15.6323   20.0567 H   0  0  0  0  0  0
  -26.7242  -32.5373   23.1066 H   0  0  0  0  0  0
  -25.0083  -33.9672   25.0377 H   0  0  0  0  0  0
  -22.7334  -31.3032   21.3988 H   0  0  0  0  0  0
  -23.3758  -35.9607   23.3290 H   0  0  0  0  0  0
  -24.3583  -36.8917   22.2056 H   0  0  0  0  0  0
  -23.7236  -37.6473   23.6674 H   0  0  0  0  0  0
  -26.1352  -31.5125   20.6185 H   0  0  0  0  0  0
  -26.8618  -30.7968   22.0233 H   0  0  0  0  0  0
  -28.1199  -28.8653   21.2275 H   0  0  0  0  0  0
  -25.8929  -25.9257   18.9515 H   0  0  0  0  0  0
  -23.9656  -27.3415   18.9709 H   0  0  0  0  0  0
  -23.7850  -30.6005   19.4065 H   0  0  0  0  0  0
  -22.7708  -29.2605   19.8472 H   0  0  0  0  0  0
  -25.1300  -36.1906   25.0816 H   0  0  0  0  0  0
  -21.0004  -28.3295   24.1377 H   0  0  0  0  0  0
  -20.5704  -26.2328   23.3615 H   0  0  0  0  0  0
  -21.6651  -26.7450   22.1187 H   0  0  0  0  0  0
  -19.6914  -25.6295   21.1255 H   0  0  0  0  0  0
  -19.6684  -27.3192   20.6745 H   0  0  0  0  0  0
  -17.4209  -26.6688   21.4034 H   0  0  0  0  0  0
  -18.0331  -26.0081   22.9031 H   0  0  0  0  0  0
  -19.7944  -30.7298   24.2242 H   0  0  0  0  0  0
  -17.5017  -31.6269   24.5169 H   0  0  0  0  0  0
  -15.5358  -30.2980   23.7663 H   0  0  0  0  0  0
  -15.8689  -28.0823   22.7064 H   0  0  0  0  0  0
  -24.5871  -30.7133   25.7760 H   0  0  0  0  0  0
  -24.8935  -32.2936   26.4870 H   0  0  0  0  0  0
  -25.8006  -30.8910   27.0229 H   0  0  0  0  0  0
  -26.2963  -29.6725   24.1269 H   0  0  0  0  0  0
  -27.3994  -29.7261   25.4811 H   0  0  0  0  0  0
  -27.8867  -30.4237   23.9559 H   0  0  0  0  0  0
  -27.2658  -33.3633   26.2075 H   0  0  0  0  0  0
  -28.3871  -32.6895   25.0341 H   0  0  0  0  0  0
  -28.0732  -31.8473   26.5435 H   0  0  0  0  0  0
  -28.2591  -38.0099   24.7519 H   0  0  0  0  0  0
  -28.1084  -36.2631   24.6277 H   0  0  0  0  0  0
  -27.2303  -37.1428   25.8866 H   0  0  0  0  0  0
  -20.9440  -29.8787   21.6845 H   0  0  0  0  0  0
  -26.0167  -38.2841   24.1411 H   0  0  0  0  0  0
  -27.5595  -21.6512   19.9115 H   0  0  0  0  0  0
  -29.5201  -18.2058   22.5481 H   0  0  0  0  0  0
  -27.8864  -18.3452   21.9325 H   0  0  0  0  0  0
  -27.9237  -16.0854   21.1087 H   0  0  0  0  0  0
  -29.0155  -15.9123   22.4783 H   0  0  0  0  0  0
  -31.4189  -17.5399   20.4292 H   0  0  0  0  0  0
  -30.5289  -17.3061   18.9445 H   0  0  0  0  0  0
  -28.6682  -18.6763   19.6803 H   0  0  0  0  0  0
  -32.0314  -21.7788   22.1647 H   0  0  0  0  0  0
  -32.4866  -23.1537   21.1407 H   0  0  0  0  0  0
  -32.4719  -21.5201   20.4636 H   0  0  0  0  0  0
  -26.9687  -24.6161   20.5090 H   0  0  0  0  0  0
  -27.6556  -24.7163   18.9167 H   0  0  0  0  0  0
  -31.0893  -19.8881   20.8996 H   0  0  0  0  0  0
  1 25  1  0  0  0
  1 30  2  0  0  0
  1 82  1  0  0  0
  2  3  1  0  0  0
  2 25  1  0  0  0
  2 84  1  0  0  0
  2 85  1  0  0  0
  3  4  1  0  0  0
  3 86  1  0  0  0
  3 87  1  0  0  0
  4  5  1  0  0  0
  4 88  1  0  0  0
  4 89  1  0  0  0
  5  6  1  0  0  0
  5 26  1  0  0  0
  5 90  1  0  0  0
  6 25  1  0  0  0
  6 91  1  0  0  0
  6 92  1  0  0  0
  7  8  2  0  0  0
  7 26  1  0  0  0
  7 29  1  0  0  0
  8  9  1  0  0  0
  8 22  1  0  0  0
  9 10  1  0  0  0
  9 27  2  0  0  0
 10 11  2  0  0  0
 10 15  1  0  0  0
 11 12  1  0  0  0
 11 93  1  0  0  0
 12 13  2  0  0  0
 12 94  1  0  0  0
 13 14  1  0  0  0
 13 31  1  0  0  0
 14 15  2  0  0  0
 14 95  1  0  0  0
 15 96  1  0  0  0
 16 17  2  0  0  0
 16 21  1  0  0  0
 16 31  1  0  0  0
 17 18  1  0  0  0
 17 97  1  0  0  0
 18 19  2  0  0  0
 18 98  1  0  0  0
 19 20  1  0  0  0
 19 24  1  0  0  0
 20 21  2  0  0  0
 20 99  1  0  0  0
 21 23  1  0  0  0
 22 28  1  0  0  0
 22 32  2  0  0  0
 26 27  1  0  0  0
 28100  1  0  0  0
 28101  1  0  0  0
 29102  1  0  0  0
 29103  1  0  0  0
 33 34  1  0  0  0
 33 66  1  0  0  0
 33 70  2  0  0  0
 34 36  1  0  0  0
 34 59  1  0  0  0
 34104  1  0  0  0
 35 44  2  0  0  0
 35 45  1  0  0  0
 35 68  1  0  0  0
 36 56  1  0  0  0
 36105  1  0  0  0
 37 39  1  0  0  0
 37 47  1  0  0  0
 37 66  1  0  0  0
 37106  1  0  0  0
 38 43  2  0  0  0
 38 46  1  0  0  0
 38 47  1  0  0  0
 39 64  1  0  0  0
 39 67  2  0  0  0
 40 52  1  0  0  0
 40 53  2  0  0  0
 40 58  1  0  0  0
 41107  1  0  0  0
 41108  1  0  0  0
 41109  1  0  0  0
 41 48  1  0  0  0
 42 43  1  0  0  0
 42 66  1  0  0  0
 42110  1  0  0  0
 42111  1  0  0  0
 43 44  1  0  0  0
 44112  1  0  0  0
 45 46  2  0  0  0
 45113  1  0  0  0
 46114  1  0  0  0
 47115  1  0  0  0
 47116  1  0  0  0
 48 56  1  0  0  0
 48 65  1  0  0  0
 48117  1  0  0  0
 49 50  1  0  0  0
 49 53  1  0  0  0
 49 64  1  0  0  0
 49118  1  0  0  0
 50 51  1  0  0  0
 50119  1  0  0  0
 50120  1  0  0  0
 51 52  1  0  0  0
 51121  1  0  0  0
 51122  1  0  0  0
 52123  1  0  0  0
 52124  1  0  0  0
 53 54  1  0  0  0
 54 55  2  0  0  0
 54125  1  0  0  0
 55 57  1  0  0  0
 55126  1  0  0  0
 56 69  2  0  0  0
 57 58  2  0  0  0
 57127  1  0  0  0
 58128  1  0  0  0
 59 60  1  0  0  0
 59 61  1  0  0  0
 59 62  1  0  0  0
 60129  1  0  0  0
 60130  1  0  0  0
 60131  1  0  0  0
 61132  1  0  0  0
 61133  1  0  0  0
 61134  1  0  0  0
 62135  1  0  0  0
 62136  1  0  0  0
 62137  1  0  0  0
 63 65  1  0  0  0
 63138  1  0  0  0
 63139  1  0  0  0
 63140  1  0  0  0
 64141  1  0  0  0
 65142  1  0  0  0
 68 79  1  0  0  0
 71 72  1  0  0  0
 71 73  2  0  0  0
 71143  1  0  0  0
 72 79  1  0  0  0
 72 80  2  0  0  0
 73 81  1  0  0  0
 73 83  1  0  0  0
 74 75  1  0  0  0
 74 77  1  0  0  0
 74144  1  0  0  0
 74145  1  0  0  0
 75 82  1  0  0  0
 75146  1  0  0  0
 75147  1  0  0  0
 76 77  1  0  0  0
 76 82  1  0  0  0
 76148  1  0  0  0
 76149  1  0  0  0
 77 83  1  0  0  0
 77150  1  0  0  0
 78 81  1  0  0  0
 78151  1  0  0  0
 78152  1  0  0  0
 78153  1  0  0  0
 79154  1  0  0  0
 79155  1  0  0  0
 80 81  1  0  0  0
 83156  1  0  0  0
M  ISO  4   1 100  68 101  79 101  82 100
M  END
> <chiral flag>
0

> <version>
0

> <s_m_source_file>
/data/baiqing/PycharmProjects/Reinvent-master-3.2/result/LINK_invent/BTK/process_docking_weight1_custom_sum_contain_oxygen_bond_distance_aromatic_linkinvent_7_9_3/rearranged_h_0184.sdf

> <i_m_source_file_index>
35

> <r_mmod_Potential_Energy-OPLS-2005>
335.921569824219

> <r_mmod_Stretch_Energy-OPLS-2005>
139.585647583008

> <r_mmod_Bend_Energy-OPLS-2005>
239.155181884766

> <r_mmod_Torsional_Energy-OPLS-2005>
304.466827392578

> <r_mmod_Improper_Torsional_Energy-OPLS-2005>
11.0023097991943

> <r_mmod_Van_der_Waal_Energy-OPLS-2005>
120.392524719238

> <r_mmod_Electrostatic_Energy-OPLS-2005>
-363.59228515625

> <r_mmod_Solvation_Energy-OPLS-2005>
-229.260681152344

> <b_mmod_Minimization_Converged-OPLS-2005>
0

> <r_mmod_RMS_Derivative-OPLS-2005>
0.757742464542389

$$$$
35
                    3D
 Structure written by MMmdl.
164173  0  0  1  0            999 V2000
  -30.5156  -15.0291   20.3939 C   0  0  0  0  0  0
  -30.4477  -12.6500   19.4734 C   0  0  0  0  0  0
  -29.5219  -12.5313   18.2401 C   0  0  0  0  0  0
  -28.0584  -12.3093   18.6704 C   0  0  0  0  0  0
  -27.6249  -13.2511   19.8243 C   0  0  2  0  0  0
  -28.6761  -13.3169   20.9501 C   0  0  0  0  0  0
  -25.2447  -13.8216   20.5704 C   0  0  0  0  0  0
  -24.1767  -13.0438   20.9225 C   0  0  0  0  0  0
  -24.6393  -11.6925   20.8746 C   0  0  0  0  0  0
  -23.9066  -10.4294   21.0397 C   0  0  0  0  0  0
  -24.3619   -9.4210   21.9175 C   0  0  0  0  0  0
  -23.6286   -8.2246   22.0742 C   0  0  0  0  0  0
  -22.4274   -8.0269   21.3521 C   0  0  0  0  0  0
  -21.9899   -9.0256   20.4634 C   0  0  0  0  0  0
  -22.7239  -10.2129   20.3048 C   0  0  0  0  0  0
  -21.6863   -6.0722   22.5269 C   0  0  0  0  0  0
  -21.4037   -6.5620   23.8206 C   0  0  0  0  0  0
  -21.3675   -5.6764   24.9153 C   0  0  0  0  0  0
  -21.6039   -4.3030   24.7205 C   0  0  0  0  0  0
  -21.8821   -3.8129   23.4327 C   0  0  0  0  0  0
  -21.9194   -4.6946   22.3384 C   0  0  0  0  0  0
  -22.7782  -13.5212   21.1894 C   0  0  0  0  0  0
  -22.1671   -4.2136   21.0960 F   0  0  0  0  0  0
  -21.5620   -3.4515   25.7723 F   0  0  0  0  0  0
  -29.9297  -13.7582   20.3240 N   0  0  0  0  0  0
  -26.2875  -12.9458   20.3213 N   0  0  0  0  0  0
  -25.9325  -11.6582   20.5716 N   0  0  0  0  0  0
  -22.0443  -12.8201   22.0453 N   0  0  0  0  0  0
  -25.4084  -15.1948   20.4125 N   0  0  0  0  0  0
  -31.7411  -15.0787   20.2501 O   0  0  0  0  0  0
  -21.6636   -6.8870   21.4231 O   0  0  0  0  0  0
  -22.3453  -14.5529   20.6775 O   0  0  0  0  0  0
  -24.6485  -31.8388   23.1828 C   0  0  0  0  0  0
  -25.9228  -32.4674   23.8242 C   0  0  1  0  0  0
  -27.2280  -27.0854   20.1507 C   0  0  0  0  0  0
  -25.5954  -33.8481   24.2163 N   0  0  0  0  0  0
  -23.4552  -30.4559   21.5287 C   0  0  2  0  0  0
  -24.9065  -28.8639   20.1139 C   0  0  0  0  0  0
  -22.7602  -29.4538   22.4846 C   0  0  0  0  0  0
  -18.0329  -28.1411   22.8481 C   0  0  0  0  0  0
  -24.1475  -36.7227   23.2646 C   0  0  0  0  0  0
  -26.0147  -30.6940   21.3897 C   0  0  0  0  0  0
  -26.0853  -29.2984   20.7328 C   0  0  0  0  0  0
  -27.2427  -28.4239   20.7337 C   0  0  0  0  0  0
  -26.0203  -26.7617   19.4956 C   0  0  0  0  0  0
  -24.8880  -27.6099   19.4838 C   0  0  0  0  0  0
  -23.6850  -29.7738   20.1524 C   0  0  0  0  0  0
  -25.4114  -36.3023   24.0322 C   0  0  1  0  0  0
  -20.5940  -28.3743   23.1227 C   0  0  2  0  0  0
  -20.6808  -26.9443   22.5404 C   0  0  0  0  0  0
  -19.5776  -26.6394   21.5219 C   0  0  0  0  0  0
  -18.1963  -26.7946   22.1630 C   0  0  0  0  0  0
  -19.1584  -28.8901   23.2839 C   0  0  0  0  0  0
  -18.9499  -30.1488   23.8877 C   0  0  0  0  0  0
  -17.6490  -30.6602   24.0585 C   0  0  0  0  0  0
  -25.9075  -34.9403   23.5058 C   0  0  0  0  0  0
  -16.5388  -29.9102   23.6333 C   0  0  0  0  0  0
  -16.7305  -28.6519   23.0357 C   0  0  0  0  0  0
  -26.4515  -31.6569   25.0716 C   0  0  0  0  0  0
  -25.3665  -31.3804   26.1396 C   0  0  0  0  0  0
  -27.0414  -30.2969   24.6349 C   0  0  0  0  0  0
  -27.6039  -32.4349   25.7503 C   0  0  0  0  0  0
  -27.5570  -37.1776   24.8471 C   0  0  0  0  0  0
  -21.4286  -29.3057   22.3585 N   0  0  0  0  0  0
  -26.4270  -37.3748   23.9429 N   0  0  0  0  0  0
  -24.7263  -31.0192   22.0884 N   0  0  0  0  0  0
  -23.4208  -28.8105   23.3045 O   0  0  0  0  0  0
  -28.2812  -26.0824   20.2210 O   0  0  0  0  0  0
  -26.5662  -34.8906   22.4635 O   0  0  0  0  0  0
  -23.5577  -32.1300   23.7005 O   0  0  0  0  0  0
  -30.0173  -21.5123   18.5315 C   0  0  0  0  0  0
  -30.3065  -20.2231   18.0751 C   0  0  0  0  0  0
  -29.3609  -21.6821   19.7886 C   0  0  0  0  0  0
  -29.6591  -19.1580   19.9876 C   0  0  0  0  0  0
  -31.0360  -20.2363   16.7626 C   0  0  0  0  0  0
  -30.6842  -22.5177   17.5666 C   0  0  0  0  0  0
  -31.9772  -23.0679   18.2071 C   0  0  0  0  0  0
  -29.8065  -23.7264   17.1647 C   0  0  0  0  0  0
  -30.4834  -21.9403   15.0719 C   0  0  0  0  0  0
  -29.0936  -23.2145   20.4431 C   0  0  0  0  0  0
  -29.9000  -17.7473   20.8412 C   0  0  0  0  0  0
  -28.0769  -24.5272   19.9759 C   0  0  0  0  0  0
  -30.1169  -19.0709   18.7484 N   0  0  0  0  0  0
  -29.2624  -20.4262   20.4967 N   0  0  0  0  0  0
  -29.7142  -16.2147   20.4166 N   0  0  0  0  0  0
  -31.1068  -21.6699   16.3928 N   0  3  2  0  0  0
  -31.4706  -12.8393   19.1449 H   0  0  0  0  0  0
  -30.4747  -11.7139   20.0344 H   0  0  0  0  0  0
  -29.8562  -11.7183   17.5930 H   0  0  0  0  0  0
  -29.5894  -13.4409   17.6402 H   0  0  0  0  0  0
  -27.9642  -11.2705   18.9891 H   0  0  0  0  0  0
  -27.3926  -12.4274   17.8146 H   0  0  0  0  0  0
  -27.5764  -14.2456   19.3783 H   0  0  0  0  0  0
  -28.7940  -12.3518   21.4495 H   0  0  0  0  0  0
  -28.3641  -14.0312   21.7148 H   0  0  0  0  0  0
  -25.2771   -9.5699   22.4729 H   0  0  0  0  0  0
  -24.0001   -7.4640   22.7465 H   0  0  0  0  0  0
  -21.0827   -8.8803   19.8921 H   0  0  0  0  0  0
  -22.3735  -10.9666   19.6130 H   0  0  0  0  0  0
  -21.2076   -7.6136   23.9721 H   0  0  0  0  0  0
  -21.1493   -6.0481   25.9061 H   0  0  0  0  0  0
  -22.0599   -2.7589   23.2827 H   0  0  0  0  0  0
  -22.4053  -11.9852   22.4819 H   0  0  0  0  0  0
  -21.1079  -13.1203   22.2704 H   0  0  0  0  0  0
  -24.6297  -15.8393   20.5090 H   0  0  0  0  0  0
  -26.2527  -15.6416   20.0807 H   0  0  0  0  0  0
  -26.7295  -32.5255   23.0958 H   0  0  0  0  0  0
  -25.0109  -33.9579   25.0323 H   0  0  0  0  0  0
  -22.7597  -31.2829   21.3664 H   0  0  0  0  0  0
  -23.3763  -35.9530   23.3287 H   0  0  0  0  0  0
  -24.3562  -36.8881   22.2065 H   0  0  0  0  0  0
  -23.7194  -37.6403   23.6690 H   0  0  0  0  0  0
  -26.1787  -31.4451   20.6156 H   0  0  0  0  0  0
  -26.8812  -30.7459   22.0380 H   0  0  0  0  0  0
  -28.1388  -28.7494   21.2431 H   0  0  0  0  0  0
  -25.9173  -25.8024   19.0107 H   0  0  0  0  0  0
  -23.9864  -27.2693   18.9927 H   0  0  0  0  0  0
  -23.8289  -30.5423   19.3919 H   0  0  0  0  0  0
  -22.7969  -29.2203   19.8413 H   0  0  0  0  0  0
  -25.1302  -36.1843   25.0813 H   0  0  0  0  0  0
  -21.0036  -28.3351   24.1349 H   0  0  0  0  0  0
  -20.5724  -26.2369   23.3637 H   0  0  0  0  0  0
  -21.6674  -26.7469   22.1210 H   0  0  0  0  0  0
  -19.6947  -25.6298   21.1282 H   0  0  0  0  0  0
  -19.6706  -27.3174   20.6724 H   0  0  0  0  0  0
  -17.4234  -26.6700   21.4028 H   0  0  0  0  0  0
  -18.0353  -26.0099   22.9036 H   0  0  0  0  0  0
  -19.7972  -30.7310   24.2246 H   0  0  0  0  0  0
  -17.5051  -31.6273   24.5196 H   0  0  0  0  0  0
  -15.5388  -30.3003   23.7678 H   0  0  0  0  0  0
  -15.8708  -28.0834   22.7087 H   0  0  0  0  0  0
  -24.5822  -30.7169   25.7718 H   0  0  0  0  0  0
  -24.8858  -32.3003   26.4737 H   0  0  0  0  0  0
  -25.7904  -30.9028   27.0234 H   0  0  0  0  0  0
  -26.3067  -29.6659   24.1327 H   0  0  0  0  0  0
  -27.3996  -29.7307   25.4956 H   0  0  0  0  0  0
  -27.8970  -30.4226   23.9712 H   0  0  0  0  0  0
  -27.2633  -33.3676   26.2003 H   0  0  0  0  0  0
  -28.3878  -32.6865   25.0350 H   0  0  0  0  0  0
  -28.0654  -31.8519   26.5479 H   0  0  0  0  0  0
  -28.2588  -38.0075   24.7546 H   0  0  0  0  0  0
  -28.1070  -36.2620   24.6262 H   0  0  0  0  0  0
  -27.2301  -37.1382   25.8875 H   0  0  0  0  0  0
  -20.9523  -29.8706   21.6697 H   0  0  0  0  0  0
  -26.0135  -38.2812   24.1441 H   0  0  0  0  0  0
  -30.5238  -19.6198   16.0237 H   0  0  0  0  0  0
  -32.0439  -19.8454   16.8998 H   0  0  0  0  0  0
  -31.7796  -23.6690   19.0919 H   0  0  0  0  0  0
  -32.5237  -23.7074   17.5131 H   0  0  0  0  0  0
  -32.6556  -22.2698   18.5104 H   0  0  0  0  0  0
  -29.7472  -24.4457   17.9747 H   0  0  0  0  0  0
  -28.7973  -23.4415   16.8631 H   0  0  0  0  0  0
  -30.2543  -24.3015   16.3544 H   0  0  0  0  0  0
  -30.8600  -21.2455   14.3208 H   0  0  0  0  0  0
  -30.7275  -22.9359   14.7062 H   0  0  0  0  0  0
  -29.3986  -21.8316   15.1095 H   0  0  0  0  0  0
  -30.0888  -23.6432   20.5104 H   0  0  0  0  0  0
  -28.8485  -23.0225   21.4886 H   0  0  0  0  0  0
  -29.2638  -17.8634   21.7174 H   0  0  0  0  0  0
  -30.9160  -17.8241   21.2299 H   0  0  0  0  0  0
  -27.1138  -24.2936   20.4288 H   0  0  0  0  0  0
  -27.8622  -24.4273   18.9148 H   0  0  0  0  0  0
  -28.7388  -16.0033   20.2853 H   0  0  0  0  0  0
  -32.0908  -21.8517   16.2542 H   0  0  0  0  0  0
  1 25  1  0  0  0
  1 30  2  0  0  0
  1 85  1  0  0  0
  2  3  1  0  0  0
  2 25  1  0  0  0
  2 87  1  0  0  0
  2 88  1  0  0  0
  3  4  1  0  0  0
  3 89  1  0  0  0
  3 90  1  0  0  0
  4  5  1  0  0  0
  4 91  1  0  0  0
  4 92  1  0  0  0
  5  6  1  0  0  0
  5 26  1  0  0  0
  5 93  1  0  0  0
  6 25  1  0  0  0
  6 94  1  0  0  0
  6 95  1  0  0  0
  7  8  2  0  0  0
  7 26  1  0  0  0
  7 29  1  0  0  0
  8  9  1  0  0  0
  8 22  1  0  0  0
  9 10  1  0  0  0
  9 27  2  0  0  0
 10 11  2  0  0  0
 10 15  1  0  0  0
 11 12  1  0  0  0
 11 96  1  0  0  0
 12 13  2  0  0  0
 12 97  1  0  0  0
 13 14  1  0  0  0
 13 31  1  0  0  0
 14 15  2  0  0  0
 14 98  1  0  0  0
 15 99  1  0  0  0
 16 17  2  0  0  0
 16 21  1  0  0  0
 16 31  1  0  0  0
 17 18  1  0  0  0
 17100  1  0  0  0
 18 19  2  0  0  0
 18101  1  0  0  0
 19 20  1  0  0  0
 19 24  1  0  0  0
 20 21  2  0  0  0
 20102  1  0  0  0
 21 23  1  0  0  0
 22 28  1  0  0  0
 22 32  2  0  0  0
 26 27  1  0  0  0
 28103  1  0  0  0
 28104  1  0  0  0
 29105  1  0  0  0
 29106  1  0  0  0
 33 34  1  0  0  0
 33 66  1  0  0  0
 33 70  2  0  0  0
 34 36  1  0  0  0
 34 59  1  0  0  0
 34107  1  0  0  0
 35 44  2  0  0  0
 35 45  1  0  0  0
 35 68  1  0  0  0
 36 56  1  0  0  0
 36108  1  0  0  0
 37 39  1  0  0  0
 37 47  1  0  0  0
 37 66  1  0  0  0
 37109  1  0  0  0
 38 43  2  0  0  0
 38 46  1  0  0  0
 38 47  1  0  0  0
 39 64  1  0  0  0
 39 67  2  0  0  0
 40 52  1  0  0  0
 40 53  2  0  0  0
 40 58  1  0  0  0
 41110  1  0  0  0
 41111  1  0  0  0
 41112  1  0  0  0
 41 48  1  0  0  0
 42 43  1  0  0  0
 42 66  1  0  0  0
 42113  1  0  0  0
 42114  1  0  0  0
 43 44  1  0  0  0
 44115  1  0  0  0
 45 46  2  0  0  0
 45116  1  0  0  0
 46117  1  0  0  0
 47118  1  0  0  0
 47119  1  0  0  0
 48 56  1  0  0  0
 48 65  1  0  0  0
 48120  1  0  0  0
 49 50  1  0  0  0
 49 53  1  0  0  0
 49 64  1  0  0  0
 49121  1  0  0  0
 50 51  1  0  0  0
 50122  1  0  0  0
 50123  1  0  0  0
 51 52  1  0  0  0
 51124  1  0  0  0
 51125  1  0  0  0
 52126  1  0  0  0
 52127  1  0  0  0
 53 54  1  0  0  0
 54 55  2  0  0  0
 54128  1  0  0  0
 55 57  1  0  0  0
 55129  1  0  0  0
 56 69  2  0  0  0
 57 58  2  0  0  0
 57130  1  0  0  0
 58131  1  0  0  0
 59 60  1  0  0  0
 59 61  1  0  0  0
 59 62  1  0  0  0
 60132  1  0  0  0
 60133  1  0  0  0
 60134  1  0  0  0
 61135  1  0  0  0
 61136  1  0  0  0
 61137  1  0  0  0
 62138  1  0  0  0
 62139  1  0  0  0
 62140  1  0  0  0
 63 65  1  0  0  0
 63141  1  0  0  0
 63142  1  0  0  0
 63143  1  0  0  0
 64144  1  0  0  0
 65145  1  0  0  0
 68 82  1  0  0  0
 71 72  2  0  0  0
 71 73  1  0  0  0
 71 76  1  0  0  0
 72 75  1  0  0  0
 72 83  1  0  0  0
 73 80  1  0  0  0
 73 84  2  0  0  0
 74 81  1  0  0  0
 74 83  2  0  0  0
 74 84  1  0  0  0
 75 86  1  0  0  0
 75146  1  0  0  0
 75147  1  0  0  0
 76 77  1  0  0  0
 76 78  1  0  0  0
 76 86  1  0  0  0
 77148  1  0  0  0
 77149  1  0  0  0
 77150  1  0  0  0
 78151  1  0  0  0
 78152  1  0  0  0
 78153  1  0  0  0
 79154  1  0  0  0
 79155  1  0  0  0
 79156  1  0  0  0
 79 86  1  0  0  0
 80 82  1  0  0  0
 80157  1  0  0  0
 80158  1  0  0  0
 81 85  1  0  0  0
 81159  1  0  0  0
 81160  1  0  0  0
 82161  1  0  0  0
 82162  1  0  0  0
 85163  1  0  0  0
 86164  1  0  0  0
M  CHG  1  86   1
M  ISO  4   1 100  68 101  82 101  85 100
M  END
> <chiral flag>
0

> <version>
0

> <s_m_source_file>
/data/baiqing/PycharmProjects/Reinvent-master-3.2/result/LINK_invent/BTK/process_docking_weight1_custom_sum_contain_oxygen_bond_distance_aromatic_linkinvent_7_9_3/rearranged_h_0184.sdf

> <i_m_source_file_index>
36

> <r_mmod_Potential_Energy-OPLS-2005>
91.5896987915039

> <r_mmod_Stretch_Energy-OPLS-2005>
332.890258789062

> <r_mmod_Bend_Energy-OPLS-2005>
372.413513183594

> <r_mmod_Torsional_Energy-OPLS-2005>
253.070602416992

> <r_mmod_Improper_Torsional_Energy-OPLS-2005>
9.40420055389404

> <r_mmod_Van_der_Waal_Energy-OPLS-2005>
137.898300170898

> <r_mmod_Electrostatic_Energy-OPLS-2005>
-777.695434570312

> <r_mmod_Solvation_Energy-OPLS-2005>
-486.849578857422

> <b_mmod_Minimization_Converged-OPLS-2005>
0

> <r_mmod_RMS_Derivative-OPLS-2005>
3.08522987365723

$$$$
36
                    3D
 Structure written by MMmdl.
161171  0  0  1  0            999 V2000
  -30.6536  -14.6865   20.5038 C   0  0  0  0  0  0
  -30.4272  -12.4299   19.4621 C   0  0  0  0  0  0
  -29.5025  -12.5140   18.2282 C   0  0  0  0  0  0
  -28.0265  -12.3491   18.6405 C   0  0  0  0  0  0
  -27.6462  -13.2263   19.8634 C   0  0  2  0  0  0
  -28.6945  -13.1015   20.9900 C   0  0  0  0  0  0
  -25.2511  -13.8184   20.5683 C   0  0  0  0  0  0
  -24.1801  -13.0437   20.9204 C   0  0  0  0  0  0
  -24.6388  -11.6913   20.8757 C   0  0  0  0  0  0
  -23.9067  -10.4291   21.0408 C   0  0  0  0  0  0
  -24.3619   -9.4209   21.9183 C   0  0  0  0  0  0
  -23.6293   -8.2243   22.0754 C   0  0  0  0  0  0
  -22.4275   -8.0282   21.3544 C   0  0  0  0  0  0
  -21.9909   -9.0256   20.4647 C   0  0  0  0  0  0
  -22.7238  -10.2134   20.3057 C   0  0  0  0  0  0
  -21.6847   -6.0739   22.5279 C   0  0  0  0  0  0
  -21.4008   -6.5645   23.8213 C   0  0  0  0  0  0
  -21.3660   -5.6796   24.9175 C   0  0  0  0  0  0
  -21.6046   -4.3057   24.7224 C   0  0  0  0  0  0
  -21.8819   -3.8152   23.4341 C   0  0  0  0  0  0
  -21.9192   -4.6969   22.3399 C   0  0  0  0  0  0
  -22.7826  -13.5223   21.1860 C   0  0  0  0  0  0
  -22.1663   -4.2154   21.0976 F   0  0  0  0  0  0
  -21.5631   -3.4541   25.7735 F   0  0  0  0  0  0
  -29.9919  -13.4796   20.4139 N   0  0  0  0  0  0
  -26.2959  -12.9388   20.3348 N   0  0  0  0  0  0
  -25.9320  -11.6531   20.5786 N   0  0  0  0  0  0
  -22.0474  -12.8216   22.0422 N   0  0  0  0  0  0
  -25.4174  -15.1900   20.4039 N   0  0  0  0  0  0
  -31.8291  -14.7507   20.1283 O   0  0  0  0  0  0
  -21.6635   -6.8882   21.4239 O   0  0  0  0  0  0
  -22.3508  -14.5525   20.6702 O   0  0  0  0  0  0
  -24.6282  -31.8586   23.2023 C   0  0  0  0  0  0
  -25.9125  -32.4769   23.8358 C   0  0  1  0  0  0
  -27.2179  -27.3006   20.1294 C   0  0  0  0  0  0
  -25.5941  -33.8571   24.2286 N   0  0  0  0  0  0
  -23.4241  -30.4822   21.5437 C   0  0  2  0  0  0
  -24.8739  -28.9387   20.1072 C   0  0  0  0  0  0
  -22.7492  -29.4613   22.4915 C   0  0  0  0  0  0
  -18.0289  -28.1385   22.8478 C   0  0  0  0  0  0
  -24.1488  -36.7280   23.2638 C   0  0  0  0  0  0
  -25.9675  -30.7835   21.3786 C   0  0  0  0  0  0
  -26.0433  -29.4105   20.7189 C   0  0  0  0  0  0
  -27.2228  -28.6030   20.7215 C   0  0  0  0  0  0
  -26.0354  -26.8962   19.4730 C   0  0  0  0  0  0
  -24.8729  -27.6881   19.4718 C   0  0  0  0  0  0
  -23.6417  -29.8194   20.1582 C   0  0  0  0  0  0
  -25.4114  -36.3075   24.0335 C   0  0  1  0  0  0
  -20.5892  -28.3691   23.1272 C   0  0  2  0  0  0
  -20.6775  -26.9408   22.5413 C   0  0  0  0  0  0
  -19.5759  -26.6381   21.5208 C   0  0  0  0  0  0
  -18.1935  -26.7934   22.1607 C   0  0  0  0  0  0
  -19.1543  -28.8854   23.2873 C   0  0  0  0  0  0
  -18.9463  -30.1455   23.8895 C   0  0  0  0  0  0
  -17.6463  -30.6586   24.0560 C   0  0  0  0  0  0
  -25.9055  -34.9446   23.5107 C   0  0  0  0  0  0
  -16.5355  -29.9080   23.6333 C   0  0  0  0  0  0
  -16.7277  -28.6499   23.0354 C   0  0  0  0  0  0
  -26.4504  -31.6579   25.0731 C   0  0  0  0  0  0
  -25.3736  -31.3733   26.1460 C   0  0  0  0  0  0
  -27.0337  -30.2993   24.6205 C   0  0  0  0  0  0
  -27.6079  -32.4303   25.7492 C   0  0  0  0  0  0
  -27.5586  -37.1787   24.8460 C   0  0  0  0  0  0
  -21.4202  -29.3039   22.3658 N   0  0  0  0  0  0
  -26.4287  -37.3776   23.9422 N   0  0  0  0  0  0
  -24.6916  -31.0583   22.0980 N   0  0  0  0  0  0
  -23.4208  -28.8149   23.2997 O   0  0  0  0  0  0
  -28.2809  -26.3829   20.1851 O   0  0  0  0  0  0
  -26.5610  -34.8917   22.4664 O   0  0  0  0  0  0
  -23.5436  -32.1384   23.7340 O   0  0  0  0  0  0
  -27.8475  -22.5808   20.1252 C   0  0  0  0  0  0
  -30.3379  -22.1649   21.0254 C   0  0  0  0  0  0
  -28.6167  -23.7049   20.5636 C   0  0  0  0  0  0
  -29.5573  -21.0401   20.5900 C   0  0  0  0  0  0
  -32.0225  -21.1718   22.7768 C   0  0  0  0  0  0
  -32.1722  -22.6672   22.8453 C   0  0  0  0  0  0
  -29.0157  -17.7810   21.8607 C   0  0  0  0  0  0
  -28.9880  -16.2374   21.6872 C   0  0  0  0  0  0
  -30.3531  -17.1798   20.0101 C   0  0  0  0  0  0
  -31.7399  -22.0133   21.5470 C   0  0  0  0  0  0
  -29.4385  -18.3655   20.5117 C   0  0  2  0  0  0
  -27.9419  -25.1055   20.8768 C   0  0  0  0  0  0
  -28.3006  -21.2793   20.1289 N   0  0  0  0  0  0
  -29.8831  -23.4625   21.0037 N   0  0  0  0  0  0
  -29.9340  -15.8735   20.6229 N   0  0  0  0  0  0
  -30.1014  -19.7072   20.6092 N   0  0  0  0  0  0
  -31.4682  -12.5428   19.1551 H   0  0  0  0  0  0
  -30.3659  -11.4434   19.9241 H   0  0  0  0  0  0
  -29.7750  -11.7511   17.4976 H   0  0  0  0  0  0
  -29.6389  -13.4764   17.7322 H   0  0  0  0  0  0
  -27.8683  -11.2966   18.8787 H   0  0  0  0  0  0
  -27.3703  -12.5710   17.7980 H   0  0  0  0  0  0
  -27.6571  -14.2594   19.5159 H   0  0  0  0  0  0
  -28.7298  -12.0770   21.3635 H   0  0  0  0  0  0
  -28.4304  -13.7075   21.8536 H   0  0  0  0  0  0
  -25.2759   -9.5687   22.4759 H   0  0  0  0  0  0
  -24.0007   -7.4631   22.7466 H   0  0  0  0  0  0
  -21.0845   -8.8772   19.8947 H   0  0  0  0  0  0
  -22.3695  -10.9675   19.6172 H   0  0  0  0  0  0
  -21.1993   -7.6152   23.9720 H   0  0  0  0  0  0
  -21.1485   -6.0522   25.9079 H   0  0  0  0  0  0
  -22.0595   -2.7615   23.2835 H   0  0  0  0  0  0
  -22.4091  -11.9872   22.4800 H   0  0  0  0  0  0
  -21.1102  -13.1250   22.2645 H   0  0  0  0  0  0
  -24.6445  -15.8395   20.4996 H   0  0  0  0  0  0
  -26.2640  -15.6288   20.0660 H   0  0  0  0  0  0
  -26.7194  -32.5436   23.1106 H   0  0  0  0  0  0
  -25.0120  -33.9717   25.0452 H   0  0  0  0  0  0
  -22.7191  -31.3036   21.4000 H   0  0  0  0  0  0
  -23.3765  -35.9594   23.3275 H   0  0  0  0  0  0
  -24.3588  -36.8918   22.2056 H   0  0  0  0  0  0
  -23.7220  -37.6468   23.6671 H   0  0  0  0  0  0
  -26.1042  -31.5473   20.6120 H   0  0  0  0  0  0
  -26.8454  -30.8302   22.0112 H   0  0  0  0  0  0
  -28.1161  -28.9537   21.2194 H   0  0  0  0  0  0
  -25.9967  -25.9356   18.9788 H   0  0  0  0  0  0
  -23.9792  -27.3246   18.9828 H   0  0  0  0  0  0
  -23.7632  -30.5972   19.4036 H   0  0  0  0  0  0
  -22.7621  -29.2502   19.8530 H   0  0  0  0  0  0
  -25.1289  -36.1919   25.0826 H   0  0  0  0  0  0
  -20.9986  -28.3263   24.1393 H   0  0  0  0  0  0
  -20.5656  -26.2299   23.3614 H   0  0  0  0  0  0
  -21.6644  -26.7427   22.1215 H   0  0  0  0  0  0
  -19.6918  -25.6288   21.1246 H   0  0  0  0  0  0
  -19.6713  -27.3184   20.6734 H   0  0  0  0  0  0
  -17.4212  -26.6687   21.4000 H   0  0  0  0  0  0
  -18.0325  -26.0075   22.8998 H   0  0  0  0  0  0
  -19.7942  -30.7264   24.2264 H   0  0  0  0  0  0
  -17.5023  -31.6269   24.5154 H   0  0  0  0  0  0
  -15.5355  -30.2979   23.7673 H   0  0  0  0  0  0
  -15.8673  -28.0820   22.7073 H   0  0  0  0  0  0
  -24.5939  -30.7037   25.7807 H   0  0  0  0  0  0
  -24.8887  -32.2897   26.4838 H   0  0  0  0  0  0
  -25.8063  -30.8967   27.0265 H   0  0  0  0  0  0
  -26.2905  -29.6743   24.1237 H   0  0  0  0  0  0
  -27.4021  -29.7257   25.4720 H   0  0  0  0  0  0
  -27.8790  -30.4257   23.9437 H   0  0  0  0  0  0
  -27.2721  -33.3624   26.2049 H   0  0  0  0  0  0
  -28.3901  -32.6819   25.0317 H   0  0  0  0  0  0
  -28.0735  -31.8431   26.5418 H   0  0  0  0  0  0
  -28.2584  -38.0102   24.7536 H   0  0  0  0  0  0
  -28.1099  -36.2638   24.6239 H   0  0  0  0  0  0
  -27.2316  -37.1378   25.8863 H   0  0  0  0  0  0
  -20.9379  -29.8758   21.6865 H   0  0  0  0  0  0
  -26.0164  -38.2842   24.1449 H   0  0  0  0  0  0
  -26.8173  -22.7159   19.8290 H   0  0  0  0  0  0
  -31.1763  -20.7341   23.3035 H   0  0  0  0  0  0
  -32.9388  -20.5846   22.7925 H   0  0  0  0  0  0
  -33.1860  -23.0575   22.9039 H   0  0  0  0  0  0
  -31.4255  -23.2171   23.4154 H   0  0  0  0  0  0
  -29.7562  -18.0345   22.6215 H   0  0  0  0  0  0
  -28.0584  -18.1766   22.2033 H   0  0  0  0  0  0
  -27.9874  -15.9239   21.3923 H   0  0  0  0  0  0
  -29.2316  -15.7408   22.6278 H   0  0  0  0  0  0
  -31.3906  -17.3663   20.2919 H   0  0  0  0  0  0
  -30.3306  -17.1077   18.9217 H   0  0  0  0  0  0
  -32.4589  -21.9709   20.7310 H   0  0  0  0  0  0
  -28.5617  -18.4390   19.8653 H   0  0  0  0  0  0
  -28.1432  -25.2945   21.9317 H   0  0  0  0  0  0
  -26.8685  -24.9204   20.8532 H   0  0  0  0  0  0
  -31.0633  -19.6725   20.9298 H   0  0  0  0  0  0
  1 25  1  0  0  0
  1 30  2  0  0  0
  1 85  1  0  0  0
  2  3  1  0  0  0
  2 25  1  0  0  0
  2 87  1  0  0  0
  2 88  1  0  0  0
  3  4  1  0  0  0
  3 89  1  0  0  0
  3 90  1  0  0  0
  4  5  1  0  0  0
  4 91  1  0  0  0
  4 92  1  0  0  0
  5  6  1  0  0  0
  5 26  1  0  0  0
  5 93  1  0  0  0
  6 25  1  0  0  0
  6 94  1  0  0  0
  6 95  1  0  0  0
  7  8  2  0  0  0
  7 26  1  0  0  0
  7 29  1  0  0  0
  8  9  1  0  0  0
  8 22  1  0  0  0
  9 10  1  0  0  0
  9 27  2  0  0  0
 10 11  2  0  0  0
 10 15  1  0  0  0
 11 12  1  0  0  0
 11 96  1  0  0  0
 12 13  2  0  0  0
 12 97  1  0  0  0
 13 14  1  0  0  0
 13 31  1  0  0  0
 14 15  2  0  0  0
 14 98  1  0  0  0
 15 99  1  0  0  0
 16 17  2  0  0  0
 16 21  1  0  0  0
 16 31  1  0  0  0
 17 18  1  0  0  0
 17100  1  0  0  0
 18 19  2  0  0  0
 18101  1  0  0  0
 19 20  1  0  0  0
 19 24  1  0  0  0
 20 21  2  0  0  0
 20102  1  0  0  0
 21 23  1  0  0  0
 22 28  1  0  0  0
 22 32  2  0  0  0
 26 27  1  0  0  0
 28103  1  0  0  0
 28104  1  0  0  0
 29105  1  0  0  0
 29106  1  0  0  0
 33 34  1  0  0  0
 33 66  1  0  0  0
 33 70  2  0  0  0
 34 36  1  0  0  0
 34 59  1  0  0  0
 34107  1  0  0  0
 35 44  2  0  0  0
 35 45  1  0  0  0
 35 68  1  0  0  0
 36 56  1  0  0  0
 36108  1  0  0  0
 37 39  1  0  0  0
 37 47  1  0  0  0
 37 66  1  0  0  0
 37109  1  0  0  0
 38 43  2  0  0  0
 38 46  1  0  0  0
 38 47  1  0  0  0
 39 64  1  0  0  0
 39 67  2  0  0  0
 40 52  1  0  0  0
 40 53  2  0  0  0
 40 58  1  0  0  0
 41110  1  0  0  0
 41111  1  0  0  0
 41112  1  0  0  0
 41 48  1  0  0  0
 42 43  1  0  0  0
 42 66  1  0  0  0
 42113  1  0  0  0
 42114  1  0  0  0
 43 44  1  0  0  0
 44115  1  0  0  0
 45 46  2  0  0  0
 45116  1  0  0  0
 46117  1  0  0  0
 47118  1  0  0  0
 47119  1  0  0  0
 48 56  1  0  0  0
 48 65  1  0  0  0
 48120  1  0  0  0
 49 50  1  0  0  0
 49 53  1  0  0  0
 49 64  1  0  0  0
 49121  1  0  0  0
 50 51  1  0  0  0
 50122  1  0  0  0
 50123  1  0  0  0
 51 52  1  0  0  0
 51124  1  0  0  0
 51125  1  0  0  0
 52126  1  0  0  0
 52127  1  0  0  0
 53 54  1  0  0  0
 54 55  2  0  0  0
 54128  1  0  0  0
 55 57  1  0  0  0
 55129  1  0  0  0
 56 69  2  0  0  0
 57 58  2  0  0  0
 57130  1  0  0  0
 58131  1  0  0  0
 59 60  1  0  0  0
 59 61  1  0  0  0
 59 62  1  0  0  0
 60132  1  0  0  0
 60133  1  0  0  0
 60134  1  0  0  0
 61135  1  0  0  0
 61136  1  0  0  0
 61137  1  0  0  0
 62138  1  0  0  0
 62139  1  0  0  0
 62140  1  0  0  0
 63 65  1  0  0  0
 63141  1  0  0  0
 63142  1  0  0  0
 63143  1  0  0  0
 64144  1  0  0  0
 65145  1  0  0  0
 68 82  1  0  0  0
 71 73  2  0  0  0
 71 83  1  0  0  0
 71146  1  0  0  0
 72 74  1  0  0  0
 72 84  2  0  0  0
 72 80  1  0  0  0
 73 82  1  0  0  0
 73 84  1  0  0  0
 74 83  2  0  0  0
 74 86  1  0  0  0
 75 76  1  0  0  0
 75 80  1  0  0  0
 75147  1  0  0  0
 75148  1  0  0  0
 76 80  1  0  0  0
 76149  1  0  0  0
 76150  1  0  0  0
 77 78  1  0  0  0
 77 81  1  0  0  0
 77151  1  0  0  0
 77152  1  0  0  0
 78 85  1  0  0  0
 78153  1  0  0  0
 78154  1  0  0  0
 79 81  1  0  0  0
 79 85  1  0  0  0
 79155  1  0  0  0
 79156  1  0  0  0
 80157  1  0  0  0
 81 86  1  0  0  0
 81158  1  0  0  0
 82159  1  0  0  0
 82160  1  0  0  0
 86161  1  0  0  0
M  ISO  4   1 100  68 101  82 101  85 100
M  END
> <chiral flag>
0

> <version>
0

> <s_m_source_file>
/data/baiqing/PycharmProjects/Reinvent-master-3.2/result/LINK_invent/BTK/process_docking_weight1_custom_sum_contain_oxygen_bond_distance_aromatic_linkinvent_7_9_3/rearranged_h_0184.sdf

> <i_m_source_file_index>
37

> <r_mmod_Potential_Energy-OPLS-2005>
363.014495849609

> <r_mmod_Stretch_Energy-OPLS-2005>
92.8371276855469

> <r_mmod_Bend_Energy-OPLS-2005>
191.574249267578

> <r_mmod_Torsional_Energy-OPLS-2005>
355.859588623047

> <r_mmod_Improper_Torsional_Energy-OPLS-2005>
15.0836334228516

> <r_mmod_Van_der_Waal_Energy-OPLS-2005>
138.794830322266

> <r_mmod_Electrostatic_Energy-OPLS-2005>
-274.182434082031

> <r_mmod_Solvation_Energy-OPLS-2005>
-221.61994934082

> <b_mmod_Minimization_Converged-OPLS-2005>
0

> <r_mmod_RMS_Derivative-OPLS-2005>
0.884585618972778

$$$$
37
                    3D
 Structure written by MMmdl.
157166  0  0  1  0            999 V2000
  -30.5344  -15.0246   20.3972 C   0  0  0  0  0  0
  -30.4328  -12.6434   19.4949 C   0  0  0  0  0  0
  -29.5180  -12.5308   18.2550 C   0  0  0  0  0  0
  -28.0559  -12.3050   18.6817 C   0  0  0  0  0  0
  -27.6191  -13.2577   19.8258 C   0  0  2  0  0  0
  -28.6621  -13.3433   20.9577 C   0  0  0  0  0  0
  -25.2436  -13.8237   20.5734 C   0  0  0  0  0  0
  -24.1760  -13.0446   20.9234 C   0  0  0  0  0  0
  -24.6391  -11.6934   20.8757 C   0  0  0  0  0  0
  -23.9082  -10.4297   21.0409 C   0  0  0  0  0  0
  -24.3631   -9.4209   21.9184 C   0  0  0  0  0  0
  -23.6302   -8.2245   22.0754 C   0  0  0  0  0  0
  -22.4282   -8.0284   21.3545 C   0  0  0  0  0  0
  -21.9923   -9.0258   20.4646 C   0  0  0  0  0  0
  -22.7255  -10.2135   20.3057 C   0  0  0  0  0  0
  -21.6854   -6.0739   22.5281 C   0  0  0  0  0  0
  -21.4014   -6.5642   23.8215 C   0  0  0  0  0  0
  -21.3659   -5.6795   24.9177 C   0  0  0  0  0  0
  -21.6044   -4.3057   24.7226 C   0  0  0  0  0  0
  -21.8817   -3.8150   23.4346 C   0  0  0  0  0  0
  -21.9191   -4.6967   22.3403 C   0  0  0  0  0  0
  -22.7780  -13.5208   21.1888 C   0  0  0  0  0  0
  -22.1660   -4.2153   21.0980 F   0  0  0  0  0  0
  -21.5628   -3.4541   25.7737 F   0  0  0  0  0  0
  -29.9175  -13.7701   20.3305 N   0  0  0  0  0  0
  -26.2847  -12.9480   20.3227 N   0  0  0  0  0  0
  -25.9323  -11.6602   20.5734 N   0  0  0  0  0  0
  -22.0436  -12.8191   22.0442 N   0  0  0  0  0  0
  -25.4124  -15.1969   20.4200 N   0  0  0  0  0  0
  -31.7630  -15.0144   20.2400 O   0  0  0  0  0  0
  -21.6643   -6.8883   21.4243 O   0  0  0  0  0  0
  -22.3460  -14.5511   20.6732 O   0  0  0  0  0  0
  -24.6479  -31.8388   23.1826 C   0  0  0  0  0  0
  -25.9228  -32.4668   23.8237 C   0  0  1  0  0  0
  -27.2156  -27.0843   20.1722 C   0  0  0  0  0  0
  -25.5955  -33.8474   24.2154 N   0  0  0  0  0  0
  -23.4537  -30.4551   21.5296 C   0  0  2  0  0  0
  -24.9026  -28.8638   20.1188 C   0  0  0  0  0  0
  -22.7586  -29.4523   22.4849 C   0  0  0  0  0  0
  -18.0307  -28.1400   22.8475 C   0  0  0  0  0  0
  -24.1491  -36.7244   23.2645 C   0  0  0  0  0  0
  -26.0121  -30.6977   21.3859 C   0  0  0  0  0  0
  -26.0828  -29.3007   20.7345 C   0  0  0  0  0  0
  -27.2427  -28.4309   20.7339 C   0  0  0  0  0  0
  -26.0075  -26.7512   19.5268 C   0  0  0  0  0  0
  -24.8799  -27.6041   19.4983 C   0  0  0  0  0  0
  -23.6834  -29.7754   20.1531 C   0  0  0  0  0  0
  -25.4126  -36.3014   24.0312 C   0  0  1  0  0  0
  -20.5922  -28.3728   23.1228 C   0  0  2  0  0  0
  -20.6789  -26.9427   22.5404 C   0  0  0  0  0  0
  -19.5764  -26.6382   21.5213 C   0  0  0  0  0  0
  -18.1945  -26.7936   22.1624 C   0  0  0  0  0  0
  -19.1564  -28.8882   23.2842 C   0  0  0  0  0  0
  -18.9480  -30.1477   23.8870 C   0  0  0  0  0  0
  -17.6476  -30.6593   24.0558 C   0  0  0  0  0  0
  -25.9079  -34.9393   23.5047 C   0  0  0  0  0  0
  -16.5367  -29.9085   23.6338 C   0  0  0  0  0  0
  -16.7292  -28.6505   23.0357 C   0  0  0  0  0  0
  -26.4533  -31.6555   25.0701 C   0  0  0  0  0  0
  -25.3705  -31.3757   26.1389 C   0  0  0  0  0  0
  -27.0408  -30.2947   24.6314 C   0  0  0  0  0  0
  -27.6050  -32.4334   25.7495 C   0  0  0  0  0  0
  -27.5573  -37.1779   24.8467 C   0  0  0  0  0  0
  -21.4273  -29.3048   22.3597 N   0  0  0  0  0  0
  -26.4284  -37.3734   23.9408 N   0  0  0  0  0  0
  -24.7250  -31.0201   22.0878 N   0  0  0  0  0  0
  -23.4207  -28.8080   23.3022 O   0  0  0  0  0  0
  -28.2794  -26.0986   20.1591 O   0  0  0  0  0  0
  -26.5675  -34.8900   22.4631 O   0  0  0  0  0  0
  -23.5587  -32.1283   23.7021 O   0  0  0  0  0  0
  -30.0304  -18.4835   18.9008 C   0  0  0  0  0  0
  -30.6782  -19.9385   20.9475 C   0  0  0  0  0  0
  -29.9587  -16.9100   18.8370 C   0  0  0  0  0  0
  -29.4585  -17.5298   21.0003 C   0  0  0  0  0  0
  -30.4480  -21.4481   20.5700 C   0  0  0  0  0  0
  -28.4669  -20.2842   20.2005 C   0  0  0  0  0  0
  -29.5973  -19.0382   20.2807 C   0  0  2  0  0  0
  -28.5500  -23.1139   19.8449 C   0  0  0  0  0  0
  -28.1474  -24.5905   20.6235 C   0  0  0  0  0  0
  -29.8108  -16.2583   20.1578 N   0  0  0  0  0  0
  -28.9885  -21.7278   20.5587 N   0  3  2  0  0  0
  -31.4631  -12.8081   19.1756 H   0  0  0  0  0  0
  -30.4411  -11.7107   20.0612 H   0  0  0  0  0  0
  -29.8512  -11.7184   17.6078 H   0  0  0  0  0  0
  -29.5901  -13.4449   17.6634 H   0  0  0  0  0  0
  -27.9699  -11.2699   19.0145 H   0  0  0  0  0  0
  -27.3886  -12.4055   17.8248 H   0  0  0  0  0  0
  -27.5636  -14.2471   19.3702 H   0  0  0  0  0  0
  -28.7739  -12.3885   21.4734 H   0  0  0  0  0  0
  -28.3518  -14.0738   21.7069 H   0  0  0  0  0  0
  -25.2774   -9.5683   22.4763 H   0  0  0  0  0  0
  -24.0007   -7.4636   22.7476 H   0  0  0  0  0  0
  -21.0852   -8.8782   19.8952 H   0  0  0  0  0  0
  -22.3714  -10.9676   19.6168 H   0  0  0  0  0  0
  -21.2010   -7.6151   23.9720 H   0  0  0  0  0  0
  -21.1482   -6.0525   25.9080 H   0  0  0  0  0  0
  -22.0596   -2.7611   23.2847 H   0  0  0  0  0  0
  -22.4063  -11.9859   22.4833 H   0  0  0  0  0  0
  -21.1047  -13.1202   22.2644 H   0  0  0  0  0  0
  -24.6498  -15.8538   20.5443 H   0  0  0  0  0  0
  -26.2720  -15.6389   20.1194 H   0  0  0  0  0  0
  -26.7294  -32.5259   23.0961 H   0  0  0  0  0  0
  -25.0067  -33.9577   25.0279 H   0  0  0  0  0  0
  -22.7591  -31.2821   21.3688 H   0  0  0  0  0  0
  -23.3759  -35.9569   23.3290 H   0  0  0  0  0  0
  -24.3574  -36.8896   22.2062 H   0  0  0  0  0  0
  -23.7243  -37.6431   23.6698 H   0  0  0  0  0  0
  -26.1702  -31.4461   20.6081 H   0  0  0  0  0  0
  -26.8815  -30.7535   22.0296 H   0  0  0  0  0  0
  -28.1490  -28.7692   21.2164 H   0  0  0  0  0  0
  -25.9231  -25.7865   19.0466 H   0  0  0  0  0  0
  -23.9791  -27.2643   19.0057 H   0  0  0  0  0  0
  -23.8277  -30.5451   19.3941 H   0  0  0  0  0  0
  -22.7962  -29.2213   19.8415 H   0  0  0  0  0  0
  -25.1317  -36.1832   25.0804 H   0  0  0  0  0  0
  -21.0012  -28.3322   24.1350 H   0  0  0  0  0  0
  -20.5678  -26.2343   23.3628 H   0  0  0  0  0  0
  -21.6655  -26.7425   22.1205 H   0  0  0  0  0  0
  -19.6923  -25.6285   21.1260 H   0  0  0  0  0  0
  -19.6700  -27.3177   20.6730 H   0  0  0  0  0  0
  -17.4213  -26.6678   21.4030 H   0  0  0  0  0  0
  -18.0345  -26.0086   22.9029 H   0  0  0  0  0  0
  -19.7955  -30.7302   24.2227 H   0  0  0  0  0  0
  -17.5028  -31.6271   24.5165 H   0  0  0  0  0  0
  -15.5366  -30.2977   23.7678 H   0  0  0  0  0  0
  -15.8692  -28.0815   22.7086 H   0  0  0  0  0  0
  -24.5895  -30.7093   25.7709 H   0  0  0  0  0  0
  -24.8882  -32.2943   26.4741 H   0  0  0  0  0  0
  -25.7979  -30.8981   27.0214 H   0  0  0  0  0  0
  -26.3038  -29.6656   24.1312 H   0  0  0  0  0  0
  -27.3998  -29.7265   25.4906 H   0  0  0  0  0  0
  -27.8952  -30.4175   23.9655 H   0  0  0  0  0  0
  -27.2634  -33.3661   26.1995 H   0  0  0  0  0  0
  -28.3903  -32.6852   25.0355 H   0  0  0  0  0  0
  -28.0670  -31.8511   26.5477 H   0  0  0  0  0  0
  -28.2581  -38.0083   24.7510 H   0  0  0  0  0  0
  -28.1078  -36.2611   24.6299 H   0  0  0  0  0  0
  -27.2289  -37.1430   25.8869 H   0  0  0  0  0  0
  -20.9494  -29.8751   21.6761 H   0  0  0  0  0  0
  -26.0145  -38.2799   24.1411 H   0  0  0  0  0  0
  -29.4289  -18.9076   18.0960 H   0  0  0  0  0  0
  -31.0531  -18.7915   18.6793 H   0  0  0  0  0  0
  -30.5814  -19.8510   22.0304 H   0  0  0  0  0  0
  -31.6941  -19.6178   20.7141 H   0  0  0  0  0  0
  -30.8224  -16.5247   18.2912 H   0  0  0  0  0  0
  -29.0880  -16.6191   18.2476 H   0  0  0  0  0  0
  -28.4296  -17.4056   21.3396 H   0  0  0  0  0  0
  -30.0629  -17.4998   21.9077 H   0  0  0  0  0  0
  -30.8508  -21.6221   19.5714 H   0  0  0  0  0  0
  -30.9715  -22.1213   21.2497 H   0  0  0  0  0  0
  -27.6407  -20.0607   20.8759 H   0  0  0  0  0  0
  -28.0211  -20.3162   19.2064 H   0  0  0  0  0  0
  -29.3445  -23.3522   19.1383 H   0  0  0  0  0  0
  -27.7012  -22.8692   19.2068 H   0  0  0  0  0  0
  -28.7478  -24.5842   21.5331 H   0  0  0  0  0  0
  -27.1283  -24.4751   20.9929 H   0  0  0  0  0  0
  -28.7299  -21.8379   21.5288 H   0  0  0  0  0  0
  1 25  1  0  0  0
  1 30  2  0  0  0
  1 80  1  0  0  0
  2  3  1  0  0  0
  2 25  1  0  0  0
  2 82  1  0  0  0
  2 83  1  0  0  0
  3  4  1  0  0  0
  3 84  1  0  0  0
  3 85  1  0  0  0
  4  5  1  0  0  0
  4 86  1  0  0  0
  4 87  1  0  0  0
  5  6  1  0  0  0
  5 26  1  0  0  0
  5 88  1  0  0  0
  6 25  1  0  0  0
  6 89  1  0  0  0
  6 90  1  0  0  0
  7  8  2  0  0  0
  7 26  1  0  0  0
  7 29  1  0  0  0
  8  9  1  0  0  0
  8 22  1  0  0  0
  9 10  1  0  0  0
  9 27  2  0  0  0
 10 11  2  0  0  0
 10 15  1  0  0  0
 11 12  1  0  0  0
 11 91  1  0  0  0
 12 13  2  0  0  0
 12 92  1  0  0  0
 13 14  1  0  0  0
 13 31  1  0  0  0
 14 15  2  0  0  0
 14 93  1  0  0  0
 15 94  1  0  0  0
 16 17  2  0  0  0
 16 21  1  0  0  0
 16 31  1  0  0  0
 17 18  1  0  0  0
 17 95  1  0  0  0
 18 19  2  0  0  0
 18 96  1  0  0  0
 19 20  1  0  0  0
 19 24  1  0  0  0
 20 21  2  0  0  0
 20 97  1  0  0  0
 21 23  1  0  0  0
 22 28  1  0  0  0
 22 32  2  0  0  0
 26 27  1  0  0  0
 28 98  1  0  0  0
 28 99  1  0  0  0
 29100  1  0  0  0
 29101  1  0  0  0
 33 34  1  0  0  0
 33 66  1  0  0  0
 33 70  2  0  0  0
 34 36  1  0  0  0
 34 59  1  0  0  0
 34102  1  0  0  0
 35 44  2  0  0  0
 35 45  1  0  0  0
 35 68  1  0  0  0
 36 56  1  0  0  0
 36103  1  0  0  0
 37 39  1  0  0  0
 37 47  1  0  0  0
 37 66  1  0  0  0
 37104  1  0  0  0
 38 43  2  0  0  0
 38 46  1  0  0  0
 38 47  1  0  0  0
 39 64  1  0  0  0
 39 67  2  0  0  0
 40 52  1  0  0  0
 40 53  2  0  0  0
 40 58  1  0  0  0
 41105  1  0  0  0
 41106  1  0  0  0
 41107  1  0  0  0
 41 48  1  0  0  0
 42 43  1  0  0  0
 42 66  1  0  0  0
 42108  1  0  0  0
 42109  1  0  0  0
 43 44  1  0  0  0
 44110  1  0  0  0
 45 46  2  0  0  0
 45111  1  0  0  0
 46112  1  0  0  0
 47113  1  0  0  0
 47114  1  0  0  0
 48 56  1  0  0  0
 48 65  1  0  0  0
 48115  1  0  0  0
 49 50  1  0  0  0
 49 53  1  0  0  0
 49 64  1  0  0  0
 49116  1  0  0  0
 50 51  1  0  0  0
 50117  1  0  0  0
 50118  1  0  0  0
 51 52  1  0  0  0
 51119  1  0  0  0
 51120  1  0  0  0
 52121  1  0  0  0
 52122  1  0  0  0
 53 54  1  0  0  0
 54 55  2  0  0  0
 54123  1  0  0  0
 55 57  1  0  0  0
 55124  1  0  0  0
 56 69  2  0  0  0
 57 58  2  0  0  0
 57125  1  0  0  0
 58126  1  0  0  0
 59 60  1  0  0  0
 59 61  1  0  0  0
 59 62  1  0  0  0
 60127  1  0  0  0
 60128  1  0  0  0
 60129  1  0  0  0
 61130  1  0  0  0
 61131  1  0  0  0
 61132  1  0  0  0
 62133  1  0  0  0
 62134  1  0  0  0
 62135  1  0  0  0
 63 65  1  0  0  0
 63136  1  0  0  0
 63137  1  0  0  0
 63138  1  0  0  0
 64139  1  0  0  0
 65140  1  0  0  0
 68 79  1  0  0  0
 71 73  1  0  0  0
 71141  1  0  0  0
 71142  1  0  0  0
 71 77  1  0  0  0
 72 75  1  0  0  0
 72 77  1  0  0  0
 72143  1  0  0  0
 72144  1  0  0  0
 73 80  1  0  0  0
 73145  1  0  0  0
 73146  1  0  0  0
 74 77  1  0  0  0
 74 80  1  0  0  0
 74147  1  0  0  0
 74148  1  0  0  0
 75 81  1  0  0  0
 75149  1  0  0  0
 75150  1  0  0  0
 76 77  1  0  0  0
 76 81  1  0  0  0
 76151  1  0  0  0
 76152  1  0  0  0
 78 79  1  0  0  0
 78153  1  0  0  0
 78154  1  0  0  0
 78 81  1  0  0  0
 79155  1  0  0  0
 79156  1  0  0  0
 81157  1  0  0  0
M  CHG  1  81   1
M  ISO  4   1 100  68 101  79 101  80 100
M  END
> <chiral flag>
0

> <version>
0

> <s_m_source_file>
/data/baiqing/PycharmProjects/Reinvent-master-3.2/result/LINK_invent/BTK/process_docking_weight1_custom_sum_contain_oxygen_bond_distance_aromatic_linkinvent_7_9_3/rearranged_h_0184.sdf

> <i_m_source_file_index>
38

> <r_mmod_Potential_Energy-OPLS-2005>
927.569702148438

> <r_mmod_Stretch_Energy-OPLS-2005>
305.279296875

> <r_mmod_Bend_Energy-OPLS-2005>
368.008117675781

> <r_mmod_Torsional_Energy-OPLS-2005>
464.003479003906

> <r_mmod_Improper_Torsional_Energy-OPLS-2005>
18.1620864868164

> <r_mmod_Van_der_Waal_Energy-OPLS-2005>
103.67064666748

> <r_mmod_Electrostatic_Energy-OPLS-2005>
-148.670425415039

> <r_mmod_Solvation_Energy-OPLS-2005>
-425.488372802734

> <b_mmod_Minimization_Converged-OPLS-2005>
0

> <r_mmod_RMS_Derivative-OPLS-2005>
0.302180260419846

$$$$
38
                    3D
 Structure written by MMmdl.
152161  0  0  1  0            999 V2000
  -30.4923  -15.1161   20.3904 C   0  0  0  0  0  0
  -30.4329  -12.7028   19.5121 C   0  0  0  0  0  0
  -29.5236  -12.5495   18.2699 C   0  0  0  0  0  0
  -28.0660  -12.3028   18.6947 C   0  0  0  0  0  0
  -27.6154  -13.2636   19.8247 C   0  0  2  0  0  0
  -28.6527  -13.3796   20.9609 C   0  0  0  0  0  0
  -25.2419  -13.8245   20.5735 C   0  0  0  0  0  0
  -24.1752  -13.0450   20.9240 C   0  0  0  0  0  0
  -24.6385  -11.6938   20.8741 C   0  0  0  0  0  0
  -23.9082  -10.4299   21.0389 C   0  0  0  0  0  0
  -24.3638   -9.4208   21.9164 C   0  0  0  0  0  0
  -23.6309   -8.2242   22.0739 C   0  0  0  0  0  0
  -22.4282   -8.0284   21.3545 C   0  0  0  0  0  0
  -21.9928   -9.0249   20.4631 C   0  0  0  0  0  0
  -22.7261  -10.2123   20.3031 C   0  0  0  0  0  0
  -21.6852   -6.0741   22.5279 C   0  0  0  0  0  0
  -21.4011   -6.5640   23.8215 C   0  0  0  0  0  0
  -21.3657   -5.6788   24.9176 C   0  0  0  0  0  0
  -21.6044   -4.3054   24.7217 C   0  0  0  0  0  0
  -21.8825   -3.8150   23.4338 C   0  0  0  0  0  0
  -21.9196   -4.6972   22.3396 C   0  0  0  0  0  0
  -22.7776  -13.5196   21.1904 C   0  0  0  0  0  0
  -22.1666   -4.2160   21.0972 F   0  0  0  0  0  0
  -21.5629   -3.4532   25.7727 F   0  0  0  0  0  0
  -29.9053  -13.8356   20.3453 N   0  0  0  0  0  0
  -26.2825  -12.9491   20.3211 N   0  0  0  0  0  0
  -25.9316  -11.6611   20.5714 N   0  0  0  0  0  0
  -22.0445  -12.8162   22.0450 N   0  0  0  0  0  0
  -25.4140  -15.1983   20.4215 N   0  0  0  0  0  0
  -31.7070  -15.1294   20.1478 O   0  0  0  0  0  0
  -21.6647   -6.8885   21.4238 O   0  0  0  0  0  0
  -22.3444  -14.5498   20.6758 O   0  0  0  0  0  0
  -24.6534  -31.8341   23.1782 C   0  0  0  0  0  0
  -25.9260  -32.4643   23.8208 C   0  0  1  0  0  0
  -27.2152  -27.0179   20.1754 C   0  0  0  0  0  0
  -25.5967  -33.8455   24.2126 N   0  0  0  0  0  0
  -23.4638  -30.4488   21.5264 C   0  0  2  0  0  0
  -24.9140  -28.8508   20.1150 C   0  0  0  0  0  0
  -22.7625  -29.4503   22.4826 C   0  0  0  0  0  0
  -18.0329  -28.1405   22.8479 C   0  0  0  0  0  0
  -24.1497  -36.7230   23.2644 C   0  0  0  0  0  0
  -26.0279  -30.6684   21.3963 C   0  0  0  0  0  0
  -26.0961  -29.2675   20.7403 C   0  0  0  0  0  0
  -27.2449  -28.3707   20.7470 C   0  0  0  0  0  0
  -26.0036  -26.7310   19.5085 C   0  0  0  0  0  0
  -24.8872  -27.5997   19.4811 C   0  0  0  0  0  0
  -23.6971  -29.7691   20.1504 C   0  0  0  0  0  0
  -25.4135  -36.3010   24.0313 C   0  0  1  0  0  0
  -20.5942  -28.3753   23.1210 C   0  0  2  0  0  0
  -20.6809  -26.9444   22.5403 C   0  0  0  0  0  0
  -19.5785  -26.6386   21.5212 C   0  0  0  0  0  0
  -18.1968  -26.7944   22.1621 C   0  0  0  0  0  0
  -19.1581  -28.8901   23.2835 C   0  0  0  0  0  0
  -18.9490  -30.1487   23.8874 C   0  0  0  0  0  0
  -17.6483  -30.6596   24.0561 C   0  0  0  0  0  0
  -25.9094  -34.9386   23.5038 C   0  0  0  0  0  0
  -16.5377  -29.9087   23.6333 C   0  0  0  0  0  0
  -16.7311  -28.6502   23.0366 C   0  0  0  0  0  0
  -26.4537  -31.6550   25.0696 C   0  0  0  0  0  0
  -25.3676  -31.3757   26.1356 C   0  0  0  0  0  0
  -27.0428  -30.2937   24.6361 C   0  0  0  0  0  0
  -27.6061  -32.4326   25.7489 C   0  0  0  0  0  0
  -27.5586  -37.1772   24.8470 C   0  0  0  0  0  0
  -21.4310  -29.3058   22.3571 N   0  0  0  0  0  0
  -26.4297  -37.3729   23.9413 N   0  0  0  0  0  0
  -24.7357  -31.0077   22.0880 N   0  0  0  0  0  0
  -23.4204  -28.8069   23.3041 O   0  0  0  0  0  0
  -28.2458  -25.9700   20.2328 O   0  0  0  0  0  0
  -26.5693  -34.8900   22.4627 O   0  0  0  0  0  0
  -23.5622  -32.1299   23.6911 O   0  0  0  0  0  0
  -28.5724  -21.3956   20.4511 C   0  0  0  0  0  0
  -30.4448  -23.2933   20.6467 C   0  0  0  0  0  0
  -30.1508  -23.1323   19.1872 C   0  0  0  0  0  0
  -29.4195  -17.4429   19.4841 C   0  0  0  0  0  0
  -30.1823  -17.6382   21.2980 C   0  0  0  0  0  0
  -29.1219  -18.5965   20.5651 C   0  0  0  0  0  0
  -29.0198  -23.0086   20.1966 C   0  0  0  0  0  0
  -27.9672  -24.3797   20.2510 C   0  0  0  0  0  0
  -29.7506  -16.3678   20.5399 N   0  0  0  0  0  0
  -29.3835  -20.1910   20.3052 N   0  0  0  0  0  0
  -27.4111  -21.2125   20.8165 O   0  0  0  0  0  0
  -31.4611  -12.8784   19.1927 H   0  0  0  0  0  0
  -30.4581  -11.7771   20.0886 H   0  0  0  0  0  0
  -29.8763  -11.7345   17.6364 H   0  0  0  0  0  0
  -29.5775  -13.4542   17.6630 H   0  0  0  0  0  0
  -27.9983  -11.2724   19.0450 H   0  0  0  0  0  0
  -27.3981  -12.3785   17.8353 H   0  0  0  0  0  0
  -27.5496  -14.2447   19.3528 H   0  0  0  0  0  0
  -28.7839  -12.4298   21.4799 H   0  0  0  0  0  0
  -28.3213  -14.1018   21.7086 H   0  0  0  0  0  0
  -25.2785   -9.5687   22.4743 H   0  0  0  0  0  0
  -24.0025   -7.4630   22.7452 H   0  0  0  0  0  0
  -21.0869   -8.8763   19.8928 H   0  0  0  0  0  0
  -22.3726  -10.9661   19.6134 H   0  0  0  0  0  0
  -21.2002   -7.6147   23.9725 H   0  0  0  0  0  0
  -21.1473   -6.0512   25.9080 H   0  0  0  0  0  0
  -22.0609   -2.7613   23.2827 H   0  0  0  0  0  0
  -22.4093  -11.9823   22.4827 H   0  0  0  0  0  0
  -21.1042  -13.1136   22.2644 H   0  0  0  0  0  0
  -24.6581  -15.8629   20.5458 H   0  0  0  0  0  0
  -26.2843  -15.6352   20.1441 H   0  0  0  0  0  0
  -26.7328  -32.5202   23.0925 H   0  0  0  0  0  0
  -25.0078  -33.9542   25.0252 H   0  0  0  0  0  0
  -22.7721  -31.2780   21.3610 H   0  0  0  0  0  0
  -23.3784  -35.9535   23.3279 H   0  0  0  0  0  0
  -24.3583  -36.8895   22.2064 H   0  0  0  0  0  0
  -23.7219  -37.6402   23.6705 H   0  0  0  0  0  0
  -26.1975  -31.4143   20.6186 H   0  0  0  0  0  0
  -26.8927  -30.7208   22.0468 H   0  0  0  0  0  0
  -28.1422  -28.6875   21.2590 H   0  0  0  0  0  0
  -25.8820  -25.7804   19.0132 H   0  0  0  0  0  0
  -23.9879  -27.2740   18.9773 H   0  0  0  0  0  0
  -23.8462  -30.5396   19.3931 H   0  0  0  0  0  0
  -22.8085  -29.2198   19.8354 H   0  0  0  0  0  0
  -25.1320  -36.1835   25.0804 H   0  0  0  0  0  0
  -21.0027  -28.3354   24.1334 H   0  0  0  0  0  0
  -20.5712  -26.2368   23.3636 H   0  0  0  0  0  0
  -21.6672  -26.7455   22.1194 H   0  0  0  0  0  0
  -19.6950  -25.6285   21.1279 H   0  0  0  0  0  0
  -19.6714  -27.3167   20.6715 H   0  0  0  0  0  0
  -17.4236  -26.6698   21.4024 H   0  0  0  0  0  0
  -18.0366  -26.0093   22.9022 H   0  0  0  0  0  0
  -19.7962  -30.7311   24.2235 H   0  0  0  0  0  0
  -17.5033  -31.6275   24.5161 H   0  0  0  0  0  0
  -15.5373  -30.2975   23.7666 H   0  0  0  0  0  0
  -15.8718  -28.0797   22.7102 H   0  0  0  0  0  0
  -24.5890  -30.7079   25.7646 H   0  0  0  0  0  0
  -24.8813  -32.2933   26.4678 H   0  0  0  0  0  0
  -25.7906  -30.8988   27.0209 H   0  0  0  0  0  0
  -26.3072  -29.6629   24.1359 H   0  0  0  0  0  0
  -27.4005  -29.7272   25.4973 H   0  0  0  0  0  0
  -27.8996  -30.4161   23.9731 H   0  0  0  0  0  0
  -27.2675  -33.3677   26.1968 H   0  0  0  0  0  0
  -28.3922  -32.6807   25.0340 H   0  0  0  0  0  0
  -28.0686  -31.8513   26.5483 H   0  0  0  0  0  0
  -28.2583  -38.0087   24.7535 H   0  0  0  0  0  0
  -28.1103  -36.2618   24.6280 H   0  0  0  0  0  0
  -27.2306  -37.1392   25.8871 H   0  0  0  0  0  0
  -20.9553  -29.8714   21.6686 H   0  0  0  0  0  0
  -26.0168  -38.2803   24.1398 H   0  0  0  0  0  0
  -30.6553  -24.2961   21.0165 H   0  0  0  0  0  0
  -31.0017  -22.4972   21.1387 H   0  0  0  0  0  0
  -30.5016  -22.2274   18.6951 H   0  0  0  0  0  0
  -30.1536  -24.0199   18.5574 H   0  0  0  0  0  0
  -30.2539  -17.6753   18.8164 H   0  0  0  0  0  0
  -28.5401  -17.2022   18.8836 H   0  0  0  0  0  0
  -31.2233  -17.9179   21.1122 H   0  0  0  0  0  0
  -30.0142  -17.5827   22.3749 H   0  0  0  0  0  0
  -28.1344  -18.4356   21.0014 H   0  0  0  0  0  0
  -27.2835  -24.2041   19.4222 H   0  0  0  0  0  0
  -27.3532  -24.2229   21.1378 H   0  0  0  0  0  0
  -30.3265  -20.3896   19.9999 H   0  0  0  0  0  0
  1 25  1  0  0  0
  1 30  2  0  0  0
  1 79  1  0  0  0
  2  3  1  0  0  0
  2 25  1  0  0  0
  2 82  1  0  0  0
  2 83  1  0  0  0
  3  4  1  0  0  0
  3 84  1  0  0  0
  3 85  1  0  0  0
  4  5  1  0  0  0
  4 86  1  0  0  0
  4 87  1  0  0  0
  5  6  1  0  0  0
  5 26  1  0  0  0
  5 88  1  0  0  0
  6 25  1  0  0  0
  6 89  1  0  0  0
  6 90  1  0  0  0
  7  8  2  0  0  0
  7 26  1  0  0  0
  7 29  1  0  0  0
  8  9  1  0  0  0
  8 22  1  0  0  0
  9 10  1  0  0  0
  9 27  2  0  0  0
 10 11  2  0  0  0
 10 15  1  0  0  0
 11 12  1  0  0  0
 11 91  1  0  0  0
 12 13  2  0  0  0
 12 92  1  0  0  0
 13 14  1  0  0  0
 13 31  1  0  0  0
 14 15  2  0  0  0
 14 93  1  0  0  0
 15 94  1  0  0  0
 16 17  2  0  0  0
 16 21  1  0  0  0
 16 31  1  0  0  0
 17 18  1  0  0  0
 17 95  1  0  0  0
 18 19  2  0  0  0
 18 96  1  0  0  0
 19 20  1  0  0  0
 19 24  1  0  0  0
 20 21  2  0  0  0
 20 97  1  0  0  0
 21 23  1  0  0  0
 22 28  1  0  0  0
 22 32  2  0  0  0
 26 27  1  0  0  0
 28 98  1  0  0  0
 28 99  1  0  0  0
 29100  1  0  0  0
 29101  1  0  0  0
 33 34  1  0  0  0
 33 66  1  0  0  0
 33 70  2  0  0  0
 34 36  1  0  0  0
 34 59  1  0  0  0
 34102  1  0  0  0
 35 44  2  0  0  0
 35 45  1  0  0  0
 35 68  1  0  0  0
 36 56  1  0  0  0
 36103  1  0  0  0
 37 39  1  0  0  0
 37 47  1  0  0  0
 37 66  1  0  0  0
 37104  1  0  0  0
 38 43  2  0  0  0
 38 46  1  0  0  0
 38 47  1  0  0  0
 39 64  1  0  0  0
 39 67  2  0  0  0
 40 52  1  0  0  0
 40 53  2  0  0  0
 40 58  1  0  0  0
 41105  1  0  0  0
 41106  1  0  0  0
 41107  1  0  0  0
 41 48  1  0  0  0
 42 43  1  0  0  0
 42 66  1  0  0  0
 42108  1  0  0  0
 42109  1  0  0  0
 43 44  1  0  0  0
 44110  1  0  0  0
 45 46  2  0  0  0
 45111  1  0  0  0
 46112  1  0  0  0
 47113  1  0  0  0
 47114  1  0  0  0
 48 56  1  0  0  0
 48 65  1  0  0  0
 48115  1  0  0  0
 49 50  1  0  0  0
 49 53  1  0  0  0
 49 64  1  0  0  0
 49116  1  0  0  0
 50 51  1  0  0  0
 50117  1  0  0  0
 50118  1  0  0  0
 51 52  1  0  0  0
 51119  1  0  0  0
 51120  1  0  0  0
 52121  1  0  0  0
 52122  1  0  0  0
 53 54  1  0  0  0
 54 55  2  0  0  0
 54123  1  0  0  0
 55 57  1  0  0  0
 55124  1  0  0  0
 56 69  2  0  0  0
 57 58  2  0  0  0
 57125  1  0  0  0
 58126  1  0  0  0
 59 60  1  0  0  0
 59 61  1  0  0  0
 59 62  1  0  0  0
 60127  1  0  0  0
 60128  1  0  0  0
 60129  1  0  0  0
 61130  1  0  0  0
 61131  1  0  0  0
 61132  1  0  0  0
 62133  1  0  0  0
 62134  1  0  0  0
 62135  1  0  0  0
 63 65  1  0  0  0
 63136  1  0  0  0
 63137  1  0  0  0
 63138  1  0  0  0
 64139  1  0  0  0
 65140  1  0  0  0
 68 78  1  0  0  0
 71 77  1  0  0  0
 71 80  1  0  0  0
 71 81  2  0  0  0
 72 73  1  0  0  0
 72 77  1  0  0  0
 72141  1  0  0  0
 72142  1  0  0  0
 73 77  1  0  0  0
 73143  1  0  0  0
 73144  1  0  0  0
 74 76  1  0  0  0
 74 79  1  0  0  0
 74145  1  0  0  0
 74146  1  0  0  0
 75 76  1  0  0  0
 75 79  1  0  0  0
 75147  1  0  0  0
 75148  1  0  0  0
 76 80  1  0  0  0
 76149  1  0  0  0
 77 78  1  0  0  0
 78150  1  0  0  0
 78151  1  0  0  0
 80152  1  0  0  0
M  ISO  4   1 100  68 101  78 101  79 100
M  END
> <chiral flag>
0

> <version>
0

> <s_m_source_file>
/data/baiqing/PycharmProjects/Reinvent-master-3.2/result/LINK_invent/BTK/process_docking_weight1_custom_sum_contain_oxygen_bond_distance_aromatic_linkinvent_7_9_3/rearranged_h_0184.sdf

> <i_m_source_file_index>
39

> <r_mmod_Potential_Energy-OPLS-2005>
881.952087402344

> <r_mmod_Stretch_Energy-OPLS-2005>
406.163513183594

> <r_mmod_Bend_Energy-OPLS-2005>
346.721832275391

> <r_mmod_Torsional_Energy-OPLS-2005>
296.762725830078

> <r_mmod_Improper_Torsional_Energy-OPLS-2005>
10.2810831069946

> <r_mmod_Van_der_Waal_Energy-OPLS-2005>
108.415298461914

> <r_mmod_Electrostatic_Energy-OPLS-2005>
-376.506530761719

> <r_mmod_Solvation_Energy-OPLS-2005>
-230.721694946289

> <b_mmod_Minimization_Converged-OPLS-2005>
0

> <r_mmod_RMS_Derivative-OPLS-2005>
1.82463121414185

$$$$
39
                    3D
 Structure written by MMmdl.
156165  0  0  1  0            999 V2000
  -30.2917  -15.6634   20.2873 C   0  0  0  0  0  0
  -30.4108  -13.1118   19.4839 C   0  0  0  0  0  0
  -29.5181  -12.6342   18.3070 C   0  0  0  0  0  0
  -28.1201  -12.2442   18.8093 C   0  0  0  0  0  0
  -27.5839  -13.2674   19.8343 C   0  0  2  0  0  0
  -28.6186  -13.6653   20.9124 C   0  0  0  0  0  0
  -25.2334  -13.8160   20.5987 C   0  0  0  0  0  0
  -24.1660  -13.0363   20.9365 C   0  0  0  0  0  0
  -24.6313  -11.6854   20.8856 C   0  0  0  0  0  0
  -23.9013  -10.4239   21.0463 C   0  0  0  0  0  0
  -24.3582   -9.4145   21.9220 C   0  0  0  0  0  0
  -23.6260   -8.2183   22.0758 C   0  0  0  0  0  0
  -22.4243   -8.0240   21.3537 C   0  0  0  0  0  0
  -21.9883   -9.0217   20.4633 C   0  0  0  0  0  0
  -22.7212  -10.2099   20.3066 C   0  0  0  0  0  0
  -21.6833   -6.0701   22.5266 C   0  0  0  0  0  0
  -21.3981   -6.5618   23.8193 C   0  0  0  0  0  0
  -21.3644   -5.6783   24.9163 C   0  0  0  0  0  0
  -21.6045   -4.3047   24.7223 C   0  0  0  0  0  0
  -21.8836   -3.8132   23.4352 C   0  0  0  0  0  0
  -21.9184   -4.6931   22.3400 C   0  0  0  0  0  0
  -22.7682  -13.5144   21.1947 C   0  0  0  0  0  0
  -22.1665   -4.2115   21.0976 F   0  0  0  0  0  0
  -21.5634   -3.4538   25.7748 F   0  0  0  0  0  0
  -29.7581  -14.3011   20.1991 N   0  0  0  0  0  0
  -26.2737  -12.9383   20.3569 N   0  0  0  0  0  0
  -25.9258  -11.6496   20.5904 N   0  0  0  0  0  0
  -22.0301  -12.8129   22.0460 N   0  0  0  0  0  0
  -25.4054  -15.1902   20.4455 N   0  0  0  0  0  0
  -31.5364  -15.5660   20.2620 O   0  0  0  0  0  0
  -21.6610   -6.8843   21.4226 O   0  0  0  0  0  0
  -22.3405  -14.5460   20.6773 O   0  0  0  0  0  0
  -24.6857  -31.7975   23.1464 C   0  0  0  0  0  0
  -25.9417  -32.4465   23.8020 C   0  0  1  0  0  0
  -27.2368  -26.6888   20.2274 C   0  0  0  0  0  0
  -25.5993  -33.8281   24.1931 N   0  0  0  0  0  0
  -23.5128  -30.3972   21.5008 C   0  0  2  0  0  0
  -24.9740  -28.7332   20.1193 C   0  0  0  0  0  0
  -22.7769  -29.4304   22.4684 C   0  0  0  0  0  0
  -18.0342  -28.1406   22.8473 C   0  0  0  0  0  0
  -24.1477  -36.7136   23.2658 C   0  0  0  0  0  0
  -26.0940  -30.5285   21.4106 C   0  0  0  0  0  0
  -26.1620  -29.0893   20.7666 C   0  0  0  0  0  0
  -27.2773  -28.0958   20.7885 C   0  0  0  0  0  0
  -26.0149  -26.5456   19.5209 C   0  0  0  0  0  0
  -24.9404  -27.4854   19.4718 C   0  0  0  0  0  0
  -23.7684  -29.6871   20.1397 C   0  0  0  0  0  0
  -25.4122  -36.2888   24.0303 C   0  0  1  0  0  0
  -20.5994  -28.3762   23.1136 C   0  0  2  0  0  0
  -20.6796  -26.9421   22.5404 C   0  0  0  0  0  0
  -19.5775  -26.6381   21.5204 C   0  0  0  0  0  0
  -18.1955  -26.7943   22.1616 C   0  0  0  0  0  0
  -19.1623  -28.8910   23.2784 C   0  0  0  0  0  0
  -18.9523  -30.1495   23.8838 C   0  0  0  0  0  0
  -17.6515  -30.6601   24.0546 C   0  0  0  0  0  0
  -25.9126  -34.9290   23.4961 C   0  0  0  0  0  0
  -16.5403  -29.9090   23.6345 C   0  0  0  0  0  0
  -16.7323  -28.6500   23.0383 C   0  0  0  0  0  0
  -26.4604  -31.6476   25.0633 C   0  0  0  0  0  0
  -25.3677  -31.3770   26.1245 C   0  0  0  0  0  0
  -27.0527  -30.2823   24.6487 C   0  0  0  0  0  0
  -27.6091  -32.4317   25.7405 C   0  0  0  0  0  0
  -27.5550  -37.1691   24.8484 C   0  0  0  0  0  0
  -21.4418  -29.3017   22.3451 N   0  0  0  0  0  0
  -26.4238  -37.3656   23.9461 N   0  0  0  0  0  0
  -24.7879  -30.9417   22.0722 N   0  0  0  0  0  0
  -23.4201  -28.7888   23.3021 O   0  0  0  0  0  0
  -28.1920  -25.4588   20.3136 O   0  0  0  0  0  0
  -26.5782  -34.8878   22.4590 O   0  0  0  0  0  0
  -23.5878  -32.1045   23.6424 O   0  0  0  0  0  0
  -29.3473  -19.6403   21.4952 C   0  0  0  0  0  0
  -29.0094  -21.1360   21.4546 C   0  0  0  0  0  0
  -29.4062  -18.6785   20.3640 C   0  0  0  0  0  0
  -29.0895  -19.6090   19.3008 C   0  0  0  0  0  0
  -28.6865  -22.0203   20.2938 C   0  0  0  0  0  0
  -29.1306  -18.7514   18.0711 C   0  0  0  0  0  0
  -29.3382  -17.2229   18.4848 C   0  0  2  0  0  0
  -26.4238  -17.0673   16.1737 C   0  0  0  0  0  0
  -27.9051  -23.7278   20.1533 C   0  0  0  0  0  0
  -28.1626  -16.3743   17.9528 C   0  0  0  0  0  0
  -27.8315  -16.5109   16.4482 C   0  0  0  0  0  0
  -28.7632  -21.0439   19.2408 N   0  0  0  0  0  0
  -29.5845  -17.0388   19.9673 N   0  0  0  0  0  0
  -31.3810  -13.3991   19.0789 H   0  0  0  0  0  0
  -30.6168  -12.2921   20.1748 H   0  0  0  0  0  0
  -29.9772  -11.7968   17.7830 H   0  0  0  0  0  0
  -29.4297  -13.4312   17.5691 H   0  0  0  0  0  0
  -28.2094  -11.2744   19.3028 H   0  0  0  0  0  0
  -27.4239  -12.1040   17.9817 H   0  0  0  0  0  0
  -27.3814  -14.1502   19.2509 H   0  0  0  0  0  0
  -28.9174  -12.8133   21.5258 H   0  0  0  0  0  0
  -28.1832  -14.3981   21.5934 H   0  0  0  0  0  0
  -25.2708   -9.5625   22.4832 H   0  0  0  0  0  0
  -23.9946   -7.4566   22.7476 H   0  0  0  0  0  0
  -21.0827   -8.8749   19.8937 H   0  0  0  0  0  0
  -22.3680  -10.9658   19.6200 H   0  0  0  0  0  0
  -21.1955   -7.6121   23.9686 H   0  0  0  0  0  0
  -21.1450   -6.0511   25.9066 H   0  0  0  0  0  0
  -22.0630   -2.7587   23.2867 H   0  0  0  0  0  0
  -22.3893  -11.9769   22.4838 H   0  0  0  0  0  0
  -21.0903  -13.1140   22.2637 H   0  0  0  0  0  0
  -24.6513  -15.8563   20.5676 H   0  0  0  0  0  0
  -26.2823  -15.6261   20.1942 H   0  0  0  0  0  0
  -26.7490  -32.4950   23.0731 H   0  0  0  0  0  0
  -25.0016  -33.9292   25.0006 H   0  0  0  0  0  0
  -22.8395  -31.2346   21.3077 H   0  0  0  0  0  0
  -23.3770  -35.9424   23.3267 H   0  0  0  0  0  0
  -24.3556  -36.8842   22.2080 H   0  0  0  0  0  0
  -23.7180  -37.6285   23.6760 H   0  0  0  0  0  0
  -26.2894  -31.2481   20.6148 H   0  0  0  0  0  0
  -26.9484  -30.6052   22.0712 H   0  0  0  0  0  0
  -28.1663  -28.3769   21.3352 H   0  0  0  0  0  0
  -25.8437  -25.5998   19.0263 H   0  0  0  0  0  0
  -24.0444  -27.2016   18.9368 H   0  0  0  0  0  0
  -23.9373  -30.4427   19.3716 H   0  0  0  0  0  0
  -22.8732  -29.1494   19.8192 H   0  0  0  0  0  0
  -25.1313  -36.1656   25.0782 H   0  0  0  0  0  0
  -21.0068  -28.3379   24.1268 H   0  0  0  0  0  0
  -20.5627  -26.2382   23.3651 H   0  0  0  0  0  0
  -21.6641  -26.7353   22.1223 H   0  0  0  0  0  0
  -19.6917  -25.6281   21.1254 H   0  0  0  0  0  0
  -19.6699  -27.3162   20.6712 H   0  0  0  0  0  0
  -17.4212  -26.6716   21.4027 H   0  0  0  0  0  0
  -18.0343  -26.0081   22.9020 H   0  0  0  0  0  0
  -19.8010  -30.7321   24.2164 H   0  0  0  0  0  0
  -17.5080  -31.6273   24.5159 H   0  0  0  0  0  0
  -15.5400  -30.2979   23.7685 H   0  0  0  0  0  0
  -15.8727  -28.0781   22.7153 H   0  0  0  0  0  0
  -24.5935  -30.7055   25.7512 H   0  0  0  0  0  0
  -24.8793  -32.2976   26.4465 H   0  0  0  0  0  0
  -25.7885  -30.9068   27.0145 H   0  0  0  0  0  0
  -26.3240  -29.6456   24.1466 H   0  0  0  0  0  0
  -27.3962  -29.7244   25.5204 H   0  0  0  0  0  0
  -27.9210  -30.3966   23.9992 H   0  0  0  0  0  0
  -27.2697  -33.3728   26.1730 H   0  0  0  0  0  0
  -28.3986  -32.6683   25.0262 H   0  0  0  0  0  0
  -28.0636  -31.8589   26.5492 H   0  0  0  0  0  0
  -28.2546  -38.0010   24.7553 H   0  0  0  0  0  0
  -28.1068  -36.2547   24.6281 H   0  0  0  0  0  0
  -27.2286  -37.1278   25.8887 H   0  0  0  0  0  0
  -20.9713  -29.8678   21.6524 H   0  0  0  0  0  0
  -26.0087  -38.2694   24.1548 H   0  0  0  0  0  0
  -29.5257  -19.2222   22.4754 H   0  0  0  0  0  0
  -28.9561  -21.6203   22.4207 H   0  0  0  0  0  0
  -29.9669  -19.0804   17.4538 H   0  0  0  0  0  0
  -28.2204  -18.9295   17.5009 H   0  0  0  0  0  0
  -30.2337  -16.8805   17.9619 H   0  0  0  0  0  0
  -26.2973  -18.0794   16.5568 H   0  0  0  0  0  0
  -25.6619  -16.4372   16.6358 H   0  0  0  0  0  0
  -26.2162  -17.1037   15.1028 H   0  0  0  0  0  0
  -27.0130  -23.5942   20.7667 H   0  0  0  0  0  0
  -27.5284  -23.6850   19.1338 H   0  0  0  0  0  0
  -27.2702  -16.5279   18.5615 H   0  0  0  0  0  0
  -28.4664  -15.3451   18.0680 H   0  0  0  0  0  0
  -28.5821  -17.1088   15.9304 H   0  0  0  0  0  0
  -27.9013  -15.5234   15.9885 H   0  0  0  0  0  0
  1 25  1  0  0  0
  1 30  2  0  0  0
  1 83  1  0  0  0
  2  3  1  0  0  0
  2 25  1  0  0  0
  2 84  1  0  0  0
  2 85  1  0  0  0
  3  4  1  0  0  0
  3 86  1  0  0  0
  3 87  1  0  0  0
  4  5  1  0  0  0
  4 88  1  0  0  0
  4 89  1  0  0  0
  5  6  1  0  0  0
  5 26  1  0  0  0
  5 90  1  0  0  0
  6 25  1  0  0  0
  6 91  1  0  0  0
  6 92  1  0  0  0
  7  8  2  0  0  0
  7 26  1  0  0  0
  7 29  1  0  0  0
  8  9  1  0  0  0
  8 22  1  0  0  0
  9 10  1  0  0  0
  9 27  2  0  0  0
 10 11  2  0  0  0
 10 15  1  0  0  0
 11 12  1  0  0  0
 11 93  1  0  0  0
 12 13  2  0  0  0
 12 94  1  0  0  0
 13 14  1  0  0  0
 13 31  1  0  0  0
 14 15  2  0  0  0
 14 95  1  0  0  0
 15 96  1  0  0  0
 16 17  2  0  0  0
 16 21  1  0  0  0
 16 31  1  0  0  0
 17 18  1  0  0  0
 17 97  1  0  0  0
 18 19  2  0  0  0
 18 98  1  0  0  0
 19 20  1  0  0  0
 19 24  1  0  0  0
 20 21  2  0  0  0
 20 99  1  0  0  0
 21 23  1  0  0  0
 22 28  1  0  0  0
 22 32  2  0  0  0
 26 27  1  0  0  0
 28100  1  0  0  0
 28101  1  0  0  0
 29102  1  0  0  0
 29103  1  0  0  0
 33 34  1  0  0  0
 33 66  1  0  0  0
 33 70  2  0  0  0
 34 36  1  0  0  0
 34 59  1  0  0  0
 34104  1  0  0  0
 35 44  2  0  0  0
 35 45  1  0  0  0
 35 68  1  0  0  0
 36 56  1  0  0  0
 36105  1  0  0  0
 37 39  1  0  0  0
 37 47  1  0  0  0
 37 66  1  0  0  0
 37106  1  0  0  0
 38 43  2  0  0  0
 38 46  1  0  0  0
 38 47  1  0  0  0
 39 64  1  0  0  0
 39 67  2  0  0  0
 40 52  1  0  0  0
 40 53  2  0  0  0
 40 58  1  0  0  0
 41107  1  0  0  0
 41108  1  0  0  0
 41109  1  0  0  0
 41 48  1  0  0  0
 42 43  1  0  0  0
 42 66  1  0  0  0
 42110  1  0  0  0
 42111  1  0  0  0
 43 44  1  0  0  0
 44112  1  0  0  0
 45 46  2  0  0  0
 45113  1  0  0  0
 46114  1  0  0  0
 47115  1  0  0  0
 47116  1  0  0  0
 48 56  1  0  0  0
 48 65  1  0  0  0
 48117  1  0  0  0
 49 50  1  0  0  0
 49 53  1  0  0  0
 49 64  1  0  0  0
 49118  1  0  0  0
 50 51  1  0  0  0
 50119  1  0  0  0
 50120  1  0  0  0
 51 52  1  0  0  0
 51121  1  0  0  0
 51122  1  0  0  0
 52123  1  0  0  0
 52124  1  0  0  0
 53 54  1  0  0  0
 54 55  2  0  0  0
 54125  1  0  0  0
 55 57  1  0  0  0
 55126  1  0  0  0
 56 69  2  0  0  0
 57 58  2  0  0  0
 57127  1  0  0  0
 58128  1  0  0  0
 59 60  1  0  0  0
 59 61  1  0  0  0
 59 62  1  0  0  0
 60129  1  0  0  0
 60130  1  0  0  0
 60131  1  0  0  0
 61132  1  0  0  0
 61133  1  0  0  0
 61134  1  0  0  0
 62135  1  0  0  0
 62136  1  0  0  0
 62137  1  0  0  0
 63 65  1  0  0  0
 63138  1  0  0  0
 63139  1  0  0  0
 63140  1  0  0  0
 64141  1  0  0  0
 65142  1  0  0  0
 68 79  1  0  0  0
 71 72  2  0  0  0
 71 73  1  0  0  0
 71143  1  0  0  0
 72 75  1  0  0  0
 72144  1  0  0  0
 73 74  2  0  0  0
 73 83  1  0  0  0
 74 76  1  0  0  0
 74 82  1  0  0  0
 75 79  1  0  0  0
 75 82  2  0  0  0
 76 77  1  0  0  0
 76145  1  0  0  0
 76146  1  0  0  0
 77 80  1  0  0  0
 77 83  1  0  0  0
 77147  1  0  0  0
 78 81  1  0  0  0
 78148  1  0  0  0
 78149  1  0  0  0
 78150  1  0  0  0
 79151  1  0  0  0
 79152  1  0  0  0
 80 81  1  0  0  0
 80153  1  0  0  0
 80154  1  0  0  0
 81155  1  0  0  0
 81156  1  0  0  0
M  ISO  4   1 100  68 101  79 101  83 100
M  END
> <chiral flag>
0

> <version>
0

> <s_m_source_file>
/data/baiqing/PycharmProjects/Reinvent-master-3.2/result/LINK_invent/BTK/process_docking_weight1_custom_sum_contain_oxygen_bond_distance_aromatic_linkinvent_7_9_3/rearranged_h_0184.sdf

> <i_m_source_file_index>
40

> <r_mmod_Potential_Energy-OPLS-2005>
2527.5380859375

> <r_mmod_Stretch_Energy-OPLS-2005>
949.542846679688

> <r_mmod_Bend_Energy-OPLS-2005>
764.155944824219

> <r_mmod_Torsional_Energy-OPLS-2005>
325.339782714844

> <r_mmod_Improper_Torsional_Energy-OPLS-2005>
20.3948783874512

> <r_mmod_Van_der_Waal_Energy-OPLS-2005>
132.042953491211

> <r_mmod_Electrostatic_Energy-OPLS-2005>
-408.305969238281

> <r_mmod_Solvation_Energy-OPLS-2005>
-206.815216064453

> <b_mmod_Minimization_Converged-OPLS-2005>
0

> <r_mmod_RMS_Derivative-OPLS-2005>
3.84613299369812

$$$$
40
                    3D
 Structure written by MMmdl.
155164  0  0  1  0            999 V2000
  -30.6701  -14.5356   20.5211 C   0  0  0  0  0  0
  -30.4284  -12.3298   19.4433 C   0  0  0  0  0  0
  -29.5023  -12.4977   18.2190 C   0  0  0  0  0  0
  -28.0233  -12.3526   18.6288 C   0  0  0  0  0  0
  -27.6589  -13.2090   19.8712 C   0  0  2  0  0  0
  -28.7017  -13.0291   21.0000 C   0  0  0  0  0  0
  -25.2582  -13.8159   20.5682 C   0  0  0  0  0  0
  -24.1838  -13.0436   20.9187 C   0  0  0  0  0  0
  -24.6394  -11.6904   20.8742 C   0  0  0  0  0  0
  -23.9060  -10.4290   21.0407 C   0  0  0  0  0  0
  -24.3613   -9.4206   21.9184 C   0  0  0  0  0  0
  -23.6289   -8.2241   22.0753 C   0  0  0  0  0  0
  -22.4272   -8.0279   21.3544 C   0  0  0  0  0  0
  -21.9907   -9.0253   20.4645 C   0  0  0  0  0  0
  -22.7234  -10.2132   20.3055 C   0  0  0  0  0  0
  -21.6852   -6.0735   22.5279 C   0  0  0  0  0  0
  -21.4012   -6.5639   23.8212 C   0  0  0  0  0  0
  -21.3659   -5.6791   24.9174 C   0  0  0  0  0  0
  -21.6044   -4.3053   24.7224 C   0  0  0  0  0  0
  -21.8819   -3.8146   23.4345 C   0  0  0  0  0  0
  -21.9193   -4.6963   22.3402 C   0  0  0  0  0  0
  -22.7861  -13.5236   21.1848 C   0  0  0  0  0  0
  -22.1662   -4.2150   21.0980 F   0  0  0  0  0  0
  -21.5630   -3.4536   25.7736 F   0  0  0  0  0  0
  -30.0291  -13.3349   20.4436 N   0  0  0  0  0  0
  -26.3013  -12.9330   20.3350 N   0  0  0  0  0  0
  -25.9322  -11.6490   20.5772 N   0  0  0  0  0  0
  -22.0497  -12.8230   22.0398 N   0  0  0  0  0  0
  -25.4306  -15.1879   20.4077 N   0  0  0  0  0  0
  -31.8153  -14.7065   20.0953 O   0  0  0  0  0  0
  -21.6638   -6.8876   21.4240 O   0  0  0  0  0  0
  -22.3553  -14.5549   20.6701 O   0  0  0  0  0  0
  -24.6175  -31.8655   23.2074 C   0  0  0  0  0  0
  -25.9053  -32.4812   23.8382 C   0  0  1  0  0  0
  -27.2340  -27.4077   20.1042 C   0  0  0  0  0  0
  -25.5899  -33.8609   24.2316 N   0  0  0  0  0  0
  -23.4086  -30.4875   21.5475 C   0  0  2  0  0  0
  -24.8592  -28.9514   20.1111 C   0  0  0  0  0  0
  -22.7433  -29.4644   22.4968 C   0  0  0  0  0  0
  -18.0277  -28.1381   22.8491 C   0  0  0  0  0  0
  -24.1488  -36.7306   23.2638 C   0  0  0  0  0  0
  -25.9401  -30.8230   21.3656 C   0  0  0  0  0  0
  -26.0208  -29.4555   20.7120 C   0  0  0  0  0  0
  -27.2149  -28.6907   20.7072 C   0  0  0  0  0  0
  -26.0606  -26.9281   19.4890 C   0  0  0  0  0  0
  -24.8755  -27.6881   19.4943 C   0  0  0  0  0  0
  -23.6201  -29.8187   20.1626 C   0  0  0  0  0  0
  -25.4108  -36.3103   24.0338 C   0  0  1  0  0  0
  -20.5871  -28.3671   23.1308 C   0  0  2  0  0  0
  -20.6768  -26.9403   22.5414 C   0  0  0  0  0  0
  -19.5744  -26.6386   21.5215 C   0  0  0  0  0  0
  -18.1923  -26.7928   22.1624 C   0  0  0  0  0  0
  -19.1528  -28.8843   23.2897 C   0  0  0  0  0  0
  -18.9455  -30.1449   23.8909 C   0  0  0  0  0  0
  -17.6457  -30.6586   24.0568 C   0  0  0  0  0  0
  -25.9036  -34.9469   23.5126 C   0  0  0  0  0  0
  -16.5347  -29.9087   23.6331 C   0  0  0  0  0  0
  -16.7266  -28.6505   23.0351 C   0  0  0  0  0  0
  -26.4474  -31.6594   25.0716 C   0  0  0  0  0  0
  -25.3737  -31.3699   26.1463 C   0  0  0  0  0  0
  -27.0310  -30.3037   24.6095 C   0  0  0  0  0  0
  -27.6044  -32.4317   25.7482 C   0  0  0  0  0  0
  -27.5583  -37.1802   24.8463 C   0  0  0  0  0  0
  -21.4155  -29.3036   22.3713 N   0  0  0  0  0  0
  -26.4291  -37.3792   23.9415 N   0  0  0  0  0  0
  -24.6736  -31.0732   22.0986 N   0  0  0  0  0  0
  -23.4194  -28.8185   23.3018 O   0  0  0  0  0  0
  -28.3388  -26.5772   20.1380 O   0  0  0  0  0  0
  -26.5599  -34.8923   22.4687 O   0  0  0  0  0  0
  -23.5359  -32.1412   23.7450 O   0  0  0  0  0  0
  -30.4682  -22.6181   21.0263 C   0  0  0  0  0  0
  -27.8195  -23.0968   21.1197 C   0  0  0  0  0  0
  -29.5538  -21.5505   21.2473 C   0  0  0  0  0  0
  -28.7385  -24.1735   20.9921 C   0  0  0  0  0  0
  -31.0056  -17.9047   21.2474 C   0  0  0  0  0  0
  -29.0390  -18.0373   20.7634 C   0  0  0  0  0  0
  -30.1132  -16.9945   20.3997 C   0  0  2  0  0  0
  -30.0374  -20.1702   21.7636 C   0  0  0  0  0  0
  -28.2827  -25.6338   21.2365 C   0  0  0  0  0  0
  -28.2157  -21.7970   21.2471 N   0  0  0  0  0  0
  -30.0717  -23.9181   20.9020 N   0  0  0  0  0  0
  -29.8953  -15.5951   20.8560 N   0  0  0  0  0  0
  -30.1404  -19.0263   20.8038 N   0  3  1  0  0  0
  -31.4734  -12.4309   19.1445 H   0  0  0  0  0  0
  -30.3349  -11.3263   19.8615 H   0  0  0  0  0  0
  -29.7515  -11.7607   17.4545 H   0  0  0  0  0  0
  -29.6633  -13.4766   17.7641 H   0  0  0  0  0  0
  -27.8430  -11.2981   18.8411 H   0  0  0  0  0  0
  -27.3727  -12.6079   17.7915 H   0  0  0  0  0  0
  -27.6900  -14.2500   19.5494 H   0  0  0  0  0  0
  -28.6862  -12.0044   21.3744 H   0  0  0  0  0  0
  -28.4638  -13.6606   21.8573 H   0  0  0  0  0  0
  -25.2759   -9.5683   22.4757 H   0  0  0  0  0  0
  -24.0001   -7.4633   22.7471 H   0  0  0  0  0  0
  -21.0840   -8.8769   19.8950 H   0  0  0  0  0  0
  -22.3693  -10.9670   19.6163 H   0  0  0  0  0  0
  -21.2001   -7.6146   23.9717 H   0  0  0  0  0  0
  -21.1481   -6.0520   25.9078 H   0  0  0  0  0  0
  -22.0598   -2.7608   23.2844 H   0  0  0  0  0  0
  -22.4104  -11.9883   22.4781 H   0  0  0  0  0  0
  -21.1114  -13.1257   22.2600 H   0  0  0  0  0  0
  -24.6595  -15.8396   20.5046 H   0  0  0  0  0  0
  -26.2723  -15.6221   20.0523 H   0  0  0  0  0  0
  -26.7124  -32.5522   23.1144 H   0  0  0  0  0  0
  -25.0067  -33.9768   25.0473 H   0  0  0  0  0  0
  -22.6984  -31.3047   21.4057 H   0  0  0  0  0  0
  -23.3752  -35.9637   23.3300 H   0  0  0  0  0  0
  -24.3586  -36.8920   22.2053 H   0  0  0  0  0  0
  -23.7233  -37.6507   23.6652 H   0  0  0  0  0  0
  -26.0554  -31.5878   20.5963 H   0  0  0  0  0  0
  -26.8265  -30.8779   21.9856 H   0  0  0  0  0  0
  -28.1081  -29.0691   21.1846 H   0  0  0  0  0  0
  -26.0596  -25.9522   19.0237 H   0  0  0  0  0  0
  -23.9834  -27.2936   19.0274 H   0  0  0  0  0  0
  -23.7274  -30.5933   19.4026 H   0  0  0  0  0  0
  -22.7445  -29.2378   19.8669 H   0  0  0  0  0  0
  -25.1284  -36.1964   25.0830 H   0  0  0  0  0  0
  -20.9962  -28.3238   24.1430 H   0  0  0  0  0  0
  -20.5677  -26.2277   23.3603 H   0  0  0  0  0  0
  -21.6637  -26.7446   22.1201 H   0  0  0  0  0  0
  -19.6907  -25.6301   21.1233 H   0  0  0  0  0  0
  -19.6687  -27.3207   20.6755 H   0  0  0  0  0  0
  -17.4193  -26.6682   21.4024 H   0  0  0  0  0  0
  -18.0320  -26.0066   22.9015 H   0  0  0  0  0  0
  -19.7933  -30.7263   24.2279 H   0  0  0  0  0  0
  -17.5013  -31.6269   24.5164 H   0  0  0  0  0  0
  -15.5349  -30.2995   23.7653 H   0  0  0  0  0  0
  -15.8664  -28.0831   22.7058 H   0  0  0  0  0  0
  -24.5910  -30.7047   25.7799 H   0  0  0  0  0  0
  -24.8930  -32.2855   26.4919 H   0  0  0  0  0  0
  -25.8090  -30.8862   27.0216 H   0  0  0  0  0  0
  -26.2857  -29.6797   24.1150 H   0  0  0  0  0  0
  -27.4087  -29.7272   25.4548 H   0  0  0  0  0  0
  -27.8688  -30.4364   23.9245 H   0  0  0  0  0  0
  -27.2658  -33.3610   26.2074 H   0  0  0  0  0  0
  -28.3846  -32.6886   25.0304 H   0  0  0  0  0  0
  -28.0719  -31.8431   26.5386 H   0  0  0  0  0  0
  -28.2587  -38.0115   24.7533 H   0  0  0  0  0  0
  -28.1094  -36.2645   24.6260 H   0  0  0  0  0  0
  -27.2305  -37.1414   25.8865 H   0  0  0  0  0  0
  -20.9314  -29.8762   21.6937 H   0  0  0  0  0  0
  -26.0179  -38.2868   24.1426 H   0  0  0  0  0  0
  -31.5350  -22.4476   21.0537 H   0  0  0  0  0  0
  -26.7606  -23.2854   21.2237 H   0  0  0  0  0  0
  -32.0375  -17.9816   20.9030 H   0  0  0  0  0  0
  -30.9527  -17.7070   22.3211 H   0  0  0  0  0  0
  -28.5608  -17.8688   21.7316 H   0  0  0  0  0  0
  -28.3042  -18.2330   19.9819 H   0  0  0  0  0  0
  -30.3758  -17.0483   19.3387 H   0  0  0  0  0  0
  -29.4257  -19.8789   22.6175 H   0  0  0  0  0  0
  -31.0343  -20.3304   22.1752 H   0  0  0  0  0  0
  -28.9081  -26.0394   22.0325 H   0  0  0  0  0  0
  -27.2799  -25.5908   21.6680 H   0  0  0  0  0  0
  -28.9770  -15.3632   21.2049 H   0  0  0  0  0  0
  -30.4047  -19.3311   19.8805 H   0  0  0  0  0  0
  1 25  1  0  0  0
  1 30  2  0  0  0
  1 82  1  0  0  0
  2  3  1  0  0  0
  2 25  1  0  0  0
  2 84  1  0  0  0
  2 85  1  0  0  0
  3  4  1  0  0  0
  3 86  1  0  0  0
  3 87  1  0  0  0
  4  5  1  0  0  0
  4 88  1  0  0  0
  4 89  1  0  0  0
  5  6  1  0  0  0
  5 26  1  0  0  0
  5 90  1  0  0  0
  6 25  1  0  0  0
  6 91  1  0  0  0
  6 92  1  0  0  0
  7  8  2  0  0  0
  7 26  1  0  0  0
  7 29  1  0  0  0
  8  9  1  0  0  0
  8 22  1  0  0  0
  9 10  1  0  0  0
  9 27  2  0  0  0
 10 11  2  0  0  0
 10 15  1  0  0  0
 11 12  1  0  0  0
 11 93  1  0  0  0
 12 13  2  0  0  0
 12 94  1  0  0  0
 13 14  1  0  0  0
 13 31  1  0  0  0
 14 15  2  0  0  0
 14 95  1  0  0  0
 15 96  1  0  0  0
 16 17  2  0  0  0
 16 21  1  0  0  0
 16 31  1  0  0  0
 17 18  1  0  0  0
 17 97  1  0  0  0
 18 19  2  0  0  0
 18 98  1  0  0  0
 19 20  1  0  0  0
 19 24  1  0  0  0
 20 21  2  0  0  0
 20 99  1  0  0  0
 21 23  1  0  0  0
 22 28  1  0  0  0
 22 32  2  0  0  0
 26 27  1  0  0  0
 28100  1  0  0  0
 28101  1  0  0  0
 29102  1  0  0  0
 29103  1  0  0  0
 33 34  1  0  0  0
 33 66  1  0  0  0
 33 70  2  0  0  0
 34 36  1  0  0  0
 34 59  1  0  0  0
 34104  1  0  0  0
 35 44  2  0  0  0
 35 45  1  0  0  0
 35 68  1  0  0  0
 36 56  1  0  0  0
 36105  1  0  0  0
 37 39  1  0  0  0
 37 47  1  0  0  0
 37 66  1  0  0  0
 37106  1  0  0  0
 38 43  2  0  0  0
 38 46  1  0  0  0
 38 47  1  0  0  0
 39 64  1  0  0  0
 39 67  2  0  0  0
 40 52  1  0  0  0
 40 53  2  0  0  0
 40 58  1  0  0  0
 41107  1  0  0  0
 41108  1  0  0  0
 41109  1  0  0  0
 41 48  1  0  0  0
 42 43  1  0  0  0
 42 66  1  0  0  0
 42110  1  0  0  0
 42111  1  0  0  0
 43 44  1  0  0  0
 44112  1  0  0  0
 45 46  2  0  0  0
 45113  1  0  0  0
 46114  1  0  0  0
 47115  1  0  0  0
 47116  1  0  0  0
 48 56  1  0  0  0
 48 65  1  0  0  0
 48117  1  0  0  0
 49 50  1  0  0  0
 49 53  1  0  0  0
 49 64  1  0  0  0
 49118  1  0  0  0
 50 51  1  0  0  0
 50119  1  0  0  0
 50120  1  0  0  0
 51 52  1  0  0  0
 51121  1  0  0  0
 51122  1  0  0  0
 52123  1  0  0  0
 52124  1  0  0  0
 53 54  1  0  0  0
 54 55  2  0  0  0
 54125  1  0  0  0
 55 57  1  0  0  0
 55126  1  0  0  0
 56 69  2  0  0  0
 57 58  2  0  0  0
 57127  1  0  0  0
 58128  1  0  0  0
 59 60  1  0  0  0
 59 61  1  0  0  0
 59 62  1  0  0  0
 60129  1  0  0  0
 60130  1  0  0  0
 60131  1  0  0  0
 61132  1  0  0  0
 61133  1  0  0  0
 61134  1  0  0  0
 62135  1  0  0  0
 62136  1  0  0  0
 62137  1  0  0  0
 63 65  1  0  0  0
 63138  1  0  0  0
 63139  1  0  0  0
 63140  1  0  0  0
 64141  1  0  0  0
 65142  1  0  0  0
 68 79  1  0  0  0
 71 73  2  0  0  0
 71 81  1  0  0  0
 71143  1  0  0  0
 72 74  1  0  0  0
 72 80  2  0  0  0
 72144  1  0  0  0
 73 78  1  0  0  0
 73 80  1  0  0  0
 74 79  1  0  0  0
 74 81  2  0  0  0
 75 77  1  0  0  0
 75 83  1  0  0  0
 75145  1  0  0  0
 75146  1  0  0  0
 76 77  1  0  0  0
 76 83  1  0  0  0
 76147  1  0  0  0
 76148  1  0  0  0
 77 82  1  0  0  0
 77149  1  0  0  0
 78150  1  0  0  0
 78151  1  0  0  0
 78 83  1  0  0  0
 79152  1  0  0  0
 79153  1  0  0  0
 82154  1  0  0  0
 83155  1  0  0  0
M  CHG  1  83   1
M  ISO  4   1 100  68 101  79 101  82 100
M  END
> <chiral flag>
0

> <version>
0

> <s_m_source_file>
/data/baiqing/PycharmProjects/Reinvent-master-3.2/result/LINK_invent/BTK/process_docking_weight1_custom_sum_contain_oxygen_bond_distance_aromatic_linkinvent_7_9_3/rearranged_h_0184.sdf

> <i_m_source_file_index>
41

> <r_mmod_Potential_Energy-OPLS-2005>
-86.079231262207

> <r_mmod_Stretch_Energy-OPLS-2005>
51.0575828552246

> <r_mmod_Bend_Energy-OPLS-2005>
132.407806396484

> <r_mmod_Torsional_Energy-OPLS-2005>
282.400909423828

> <r_mmod_Improper_Torsional_Energy-OPLS-2005>
9.9431848526001

> <r_mmod_Van_der_Waal_Energy-OPLS-2005>
149.795364379883

> <r_mmod_Electrostatic_Energy-OPLS-2005>
-236.720809936523

> <r_mmod_Solvation_Energy-OPLS-2005>
-497.789398193359

> <b_mmod_Minimization_Converged-OPLS-2005>
0

> <r_mmod_RMS_Derivative-OPLS-2005>
0.347959578037262

$$$$
41
                    3D
 Structure written by MMmdl.
165175  0  0  1  0            999 V2000
  -30.6584  -14.6105   20.4867 C   0  0  0  0  0  0
  -30.4250  -12.3735   19.4470 C   0  0  0  0  0  0
  -29.4969  -12.5023   18.2205 C   0  0  0  0  0  0
  -28.0215  -12.3455   18.6369 C   0  0  0  0  0  0
  -27.6494  -13.2185   19.8648 C   0  0  2  0  0  0
  -28.6978  -13.0902   20.9928 C   0  0  0  0  0  0
  -25.2540  -13.8182   20.5713 C   0  0  0  0  0  0
  -24.1811  -13.0436   20.9204 C   0  0  0  0  0  0
  -24.6388  -11.6914   20.8764 C   0  0  0  0  0  0
  -23.9059  -10.4292   21.0421 C   0  0  0  0  0  0
  -24.3607   -9.4206   21.9190 C   0  0  0  0  0  0
  -23.6288   -8.2237   22.0763 C   0  0  0  0  0  0
  -22.4269   -8.0277   21.3548 C   0  0  0  0  0  0
  -21.9912   -9.0250   20.4643 C   0  0  0  0  0  0
  -22.7241  -10.2131   20.3062 C   0  0  0  0  0  0
  -21.6849   -6.0735   22.5284 C   0  0  0  0  0  0
  -21.4016   -6.5642   23.8216 C   0  0  0  0  0  0
  -21.3663   -5.6796   24.9179 C   0  0  0  0  0  0
  -21.6041   -4.3058   24.7232 C   0  0  0  0  0  0
  -21.8817   -3.8153   23.4355 C   0  0  0  0  0  0
  -21.9198   -4.6966   22.3410 C   0  0  0  0  0  0
  -22.7827  -13.5215   21.1869 C   0  0  0  0  0  0
  -22.1659   -4.2152   21.0985 F   0  0  0  0  0  0
  -21.5631   -3.4545   25.7745 F   0  0  0  0  0  0
  -30.0115  -13.4069   20.4142 N   0  0  0  0  0  0
  -26.2970  -12.9367   20.3366 N   0  0  0  0  0  0
  -25.9320  -11.6517   20.5807 N   0  0  0  0  0  0
  -22.0485  -12.8182   22.0414 N   0  0  0  0  0  0
  -25.4268  -15.1901   20.4134 N   0  0  0  0  0  0
  -31.8311  -14.7339   20.1231 O   0  0  0  0  0  0
  -21.6636   -6.8876   21.4244 O   0  0  0  0  0  0
  -22.3506  -14.5531   20.6738 O   0  0  0  0  0  0
  -24.6232  -31.8604   23.2041 C   0  0  0  0  0  0
  -25.9090  -32.4778   23.8355 C   0  0  1  0  0  0
  -27.2315  -27.3503   20.0907 C   0  0  0  0  0  0
  -25.5923  -33.8582   24.2295 N   0  0  0  0  0  0
  -23.4138  -30.4850   21.5479 C   0  0  2  0  0  0
  -24.8574  -28.9426   20.1132 C   0  0  0  0  0  0
  -22.7457  -29.4626   22.4965 C   0  0  0  0  0  0
  -18.0276  -28.1374   22.8489 C   0  0  0  0  0  0
  -24.1488  -36.7304   23.2639 C   0  0  0  0  0  0
  -25.9519  -30.7997   21.3686 C   0  0  0  0  0  0
  -26.0253  -29.4293   20.7111 C   0  0  0  0  0  0
  -27.2103  -28.6416   20.6965 C   0  0  0  0  0  0
  -26.0252  -26.8938   19.5057 C   0  0  0  0  0  0
  -24.8567  -27.6770   19.5073 C   0  0  0  0  0  0
  -23.6236  -29.8178   20.1635 C   0  0  0  0  0  0
  -25.4112  -36.3092   24.0331 C   0  0  1  0  0  0
  -20.5870  -28.3672   23.1296 C   0  0  2  0  0  0
  -20.6761  -26.9396   22.5414 C   0  0  0  0  0  0
  -19.5740  -26.6378   21.5209 C   0  0  0  0  0  0
  -18.1920  -26.7923   22.1614 C   0  0  0  0  0  0
  -19.1528  -28.8843   23.2887 C   0  0  0  0  0  0
  -18.9451  -30.1453   23.8892 C   0  0  0  0  0  0
  -17.6453  -30.6582   24.0567 C   0  0  0  0  0  0
  -25.9047  -34.9450   23.5113 C   0  0  0  0  0  0
  -16.5345  -29.9077   23.6335 C   0  0  0  0  0  0
  -16.7266  -28.6497   23.0347 C   0  0  0  0  0  0
  -26.4480  -31.6576   25.0710 C   0  0  0  0  0  0
  -25.3746  -31.3691   26.1459 C   0  0  0  0  0  0
  -27.0325  -30.3009   24.6133 C   0  0  0  0  0  0
  -27.6034  -32.4319   25.7488 C   0  0  0  0  0  0
  -27.5586  -37.1805   24.8463 C   0  0  0  0  0  0
  -21.4174  -29.3032   22.3706 N   0  0  0  0  0  0
  -26.4296  -37.3785   23.9411 N   0  0  0  0  0  0
  -24.6822  -31.0643   22.0976 N   0  0  0  0  0  0
  -23.4197  -28.8161   23.3028 O   0  0  0  0  0  0
  -28.3867  -26.5609   20.1343 O   0  0  0  0  0  0
  -26.5616  -34.8905   22.4682 O   0  0  0  0  0  0
  -23.5399  -32.1388   23.7390 O   0  0  0  0  0  0
  -28.4324  -22.7882   19.2986 C   0  0  0  0  0  0
  -30.3445  -22.6966   21.1892 C   0  0  0  0  0  0
  -28.9183  -24.0000   19.8714 C   0  0  0  0  0  0
  -29.8836  -21.4816   20.5791 C   0  0  0  0  0  0
  -31.3292  -22.1408   23.5636 C   0  0  0  0  0  0
  -31.4227  -23.6337   23.4072 C   0  0  0  0  0  0
  -29.5907  -16.4455   21.8280 C   0  0  0  0  0  0
  -29.5912  -16.5928   19.4005 C   0  0  0  0  0  0
  -30.2073  -17.8836   21.8961 C   0  0  0  0  0  0
  -30.1792  -18.0426   19.4687 C   0  0  0  0  0  0
  -31.4765  -22.7434   22.1802 C   0  0  0  0  0  0
  -30.6140  -20.1157   20.8328 C   0  0  0  0  0  0
  -28.5542  -25.3933   19.2598 C   0  0  0  0  0  0
  -28.8991  -21.5455   19.6424 N   0  0  0  0  0  0
  -29.8720  -23.9317   20.8354 N   0  0  0  0  0  0
  -29.8639  -15.7278   20.5713 N   0  0  0  0  0  0
  -29.8951  -18.7813   20.7359 N   0  3  0  0  0  0
  -31.4687  -12.4795   19.1452 H   0  0  0  0  0  0
  -30.3391  -11.3825   19.8945 H   0  0  0  0  0  0
  -29.7535  -11.7556   17.4676 H   0  0  0  0  0  0
  -29.6409  -13.4754   17.7487 H   0  0  0  0  0  0
  -27.8531  -11.2933   18.8676 H   0  0  0  0  0  0
  -27.3656  -12.5794   17.7986 H   0  0  0  0  0  0
  -27.6609  -14.2510   19.5173 H   0  0  0  0  0  0
  -28.6999  -12.0792   21.4032 H   0  0  0  0  0  0
  -28.4579  -13.7569   21.8220 H   0  0  0  0  0  0
  -25.2756   -9.5680   22.4753 H   0  0  0  0  0  0
  -24.0010   -7.4625   22.7468 H   0  0  0  0  0  0
  -21.0857   -8.8762   19.8926 H   0  0  0  0  0  0
  -22.3708  -10.9665   19.6163 H   0  0  0  0  0  0
  -21.1998   -7.6147   23.9719 H   0  0  0  0  0  0
  -21.1483   -6.0529   25.9079 H   0  0  0  0  0  0
  -22.0590   -2.7618   23.2863 H   0  0  0  0  0  0
  -22.4118  -11.9827   22.4757 H   0  0  0  0  0  0
  -21.1099  -13.1179   22.2647 H   0  0  0  0  0  0
  -24.6620  -15.8477   20.5196 H   0  0  0  0  0  0
  -26.2854  -15.6271   20.1052 H   0  0  0  0  0  0
  -26.7152  -32.5456   23.1098 H   0  0  0  0  0  0
  -25.0088  -33.9728   25.0449 H   0  0  0  0  0  0
  -22.7069  -31.3051   21.4069 H   0  0  0  0  0  0
  -23.3749  -35.9636   23.3284 H   0  0  0  0  0  0
  -24.3590  -36.8942   22.2058 H   0  0  0  0  0  0
  -23.7217  -37.6491   23.6671 H   0  0  0  0  0  0
  -26.0767  -31.5629   20.5992 H   0  0  0  0  0  0
  -26.8355  -30.8521   21.9932 H   0  0  0  0  0  0
  -28.1097  -29.0167   21.1648 H   0  0  0  0  0  0
  -25.9290  -25.9120   19.0709 H   0  0  0  0  0  0
  -23.9535  -27.2882   19.0578 H   0  0  0  0  0  0
  -23.7363  -30.5903   19.4030 H   0  0  0  0  0  0
  -22.7444  -29.2418   19.8678 H   0  0  0  0  0  0
  -25.1282  -36.1961   25.0824 H   0  0  0  0  0  0
  -20.9965  -28.3239   24.1414 H   0  0  0  0  0  0
  -20.5648  -26.2285   23.3612 H   0  0  0  0  0  0
  -21.6636  -26.7417   22.1222 H   0  0  0  0  0  0
  -19.6913  -25.6295   21.1223 H   0  0  0  0  0  0
  -19.6677  -27.3199   20.6747 H   0  0  0  0  0  0
  -17.4196  -26.6681   21.4008 H   0  0  0  0  0  0
  -18.0309  -26.0050   22.8993 H   0  0  0  0  0  0
  -19.7925  -30.7282   24.2239 H   0  0  0  0  0  0
  -17.4999  -31.6249   24.5193 H   0  0  0  0  0  0
  -15.5342  -30.2973   23.7664 H   0  0  0  0  0  0
  -15.8664  -28.0825   22.7045 H   0  0  0  0  0  0
  -24.5921  -30.7033   25.7802 H   0  0  0  0  0  0
  -24.8940  -32.2849   26.4907 H   0  0  0  0  0  0
  -25.8108  -30.8862   27.0214 H   0  0  0  0  0  0
  -26.2882  -29.6754   24.1187 H   0  0  0  0  0  0
  -27.4074  -29.7256   25.4608 H   0  0  0  0  0  0
  -27.8727  -30.4298   23.9306 H   0  0  0  0  0  0
  -27.2629  -33.3622   26.2044 H   0  0  0  0  0  0
  -28.3854  -32.6875   25.0330 H   0  0  0  0  0  0
  -28.0685  -31.8462   26.5423 H   0  0  0  0  0  0
  -28.2586  -38.0118   24.7535 H   0  0  0  0  0  0
  -28.1096  -36.2649   24.6264 H   0  0  0  0  0  0
  -27.2314  -37.1431   25.8867 H   0  0  0  0  0  0
  -20.9360  -29.8796   21.6946 H   0  0  0  0  0  0
  -26.0178  -38.2863   24.1411 H   0  0  0  0  0  0
  -27.7023  -22.8162   18.5025 H   0  0  0  0  0  0
  -30.3604  -21.7318   23.8447 H   0  0  0  0  0  0
  -32.1944  -21.6350   23.9894 H   0  0  0  0  0  0
  -32.3483  -24.1019   23.7363 H   0  0  0  0  0  0
  -30.5195  -24.2149   23.5829 H   0  0  0  0  0  0
  -28.5092  -16.5069   21.9536 H   0  0  0  0  0  0
  -29.9513  -15.8626   22.6772 H   0  0  0  0  0  0
  -29.9461  -16.1105   18.4874 H   0  0  0  0  0  0
  -28.5082  -16.6577   19.2880 H   0  0  0  0  0  0
  -31.2912  -17.7832   21.9700 H   0  0  0  0  0  0
  -29.8848  -18.3657   22.8203 H   0  0  0  0  0  0
  -29.8028  -18.6277   18.6280 H   0  0  0  0  0  0
  -31.2596  -17.9776   19.3298 H   0  0  0  0  0  0
  -32.4369  -22.6427   21.6777 H   0  0  0  0  0  0
  -31.0404  -20.1721   21.8313 H   0  0  0  0  0  0
  -31.4874  -20.1054   20.1803 H   0  0  0  0  0  0
  -27.7645  -25.2616   18.5266 H   0  0  0  0  0  0
  -29.4092  -25.6506   18.6344 H   0  0  0  0  0  0
  -28.9099  -18.9970   20.7666 H   0  0  0  0  0  0
  1 25  1  0  0  0
  1 30  2  0  0  0
  1 86  1  0  0  0
  2  3  1  0  0  0
  2 25  1  0  0  0
  2 88  1  0  0  0
  2 89  1  0  0  0
  3  4  1  0  0  0
  3 90  1  0  0  0
  3 91  1  0  0  0
  4  5  1  0  0  0
  4 92  1  0  0  0
  4 93  1  0  0  0
  5  6  1  0  0  0
  5 26  1  0  0  0
  5 94  1  0  0  0
  6 25  1  0  0  0
  6 95  1  0  0  0
  6 96  1  0  0  0
  7  8  2  0  0  0
  7 26  1  0  0  0
  7 29  1  0  0  0
  8  9  1  0  0  0
  8 22  1  0  0  0
  9 10  1  0  0  0
  9 27  2  0  0  0
 10 11  2  0  0  0
 10 15  1  0  0  0
 11 12  1  0  0  0
 11 97  1  0  0  0
 12 13  2  0  0  0
 12 98  1  0  0  0
 13 14  1  0  0  0
 13 31  1  0  0  0
 14 15  2  0  0  0
 14 99  1  0  0  0
 15100  1  0  0  0
 16 17  2  0  0  0
 16 21  1  0  0  0
 16 31  1  0  0  0
 17 18  1  0  0  0
 17101  1  0  0  0
 18 19  2  0  0  0
 18102  1  0  0  0
 19 20  1  0  0  0
 19 24  1  0  0  0
 20 21  2  0  0  0
 20103  1  0  0  0
 21 23  1  0  0  0
 22 28  1  0  0  0
 22 32  2  0  0  0
 26 27  1  0  0  0
 28104  1  0  0  0
 28105  1  0  0  0
 29106  1  0  0  0
 29107  1  0  0  0
 33 34  1  0  0  0
 33 66  1  0  0  0
 33 70  2  0  0  0
 34 36  1  0  0  0
 34 59  1  0  0  0
 34108  1  0  0  0
 35 44  2  0  0  0
 35 45  1  0  0  0
 35 68  1  0  0  0
 36 56  1  0  0  0
 36109  1  0  0  0
 37 39  1  0  0  0
 37 47  1  0  0  0
 37 66  1  0  0  0
 37110  1  0  0  0
 38 43  2  0  0  0
 38 46  1  0  0  0
 38 47  1  0  0  0
 39 64  1  0  0  0
 39 67  2  0  0  0
 40 52  1  0  0  0
 40 53  2  0  0  0
 40 58  1  0  0  0
 41111  1  0  0  0
 41112  1  0  0  0
 41113  1  0  0  0
 41 48  1  0  0  0
 42 43  1  0  0  0
 42 66  1  0  0  0
 42114  1  0  0  0
 42115  1  0  0  0
 43 44  1  0  0  0
 44116  1  0  0  0
 45 46  2  0  0  0
 45117  1  0  0  0
 46118  1  0  0  0
 47119  1  0  0  0
 47120  1  0  0  0
 48 56  1  0  0  0
 48 65  1  0  0  0
 48121  1  0  0  0
 49 50  1  0  0  0
 49 53  1  0  0  0
 49 64  1  0  0  0
 49122  1  0  0  0
 50 51  1  0  0  0
 50123  1  0  0  0
 50124  1  0  0  0
 51 52  1  0  0  0
 51125  1  0  0  0
 51126  1  0  0  0
 52127  1  0  0  0
 52128  1  0  0  0
 53 54  1  0  0  0
 54 55  2  0  0  0
 54129  1  0  0  0
 55 57  1  0  0  0
 55130  1  0  0  0
 56 69  2  0  0  0
 57 58  2  0  0  0
 57131  1  0  0  0
 58132  1  0  0  0
 59 60  1  0  0  0
 59 61  1  0  0  0
 59 62  1  0  0  0
 60133  1  0  0  0
 60134  1  0  0  0
 60135  1  0  0  0
 61136  1  0  0  0
 61137  1  0  0  0
 61138  1  0  0  0
 62139  1  0  0  0
 62140  1  0  0  0
 62141  1  0  0  0
 63 65  1  0  0  0
 63142  1  0  0  0
 63143  1  0  0  0
 63144  1  0  0  0
 64145  1  0  0  0
 65146  1  0  0  0
 68 83  1  0  0  0
 71 73  2  0  0  0
 71 84  1  0  0  0
 71147  1  0  0  0
 72 74  1  0  0  0
 72 85  2  0  0  0
 72 81  1  0  0  0
 73 83  1  0  0  0
 73 85  1  0  0  0
 74 82  1  0  0  0
 74 84  2  0  0  0
 75 76  1  0  0  0
 75 81  1  0  0  0
 75148  1  0  0  0
 75149  1  0  0  0
 76 81  1  0  0  0
 76150  1  0  0  0
 76151  1  0  0  0
 77 79  1  0  0  0
 77 86  1  0  0  0
 77152  1  0  0  0
 77153  1  0  0  0
 78 80  1  0  0  0
 78 86  1  0  0  0
 78154  1  0  0  0
 78155  1  0  0  0
 79 87  1  0  0  0
 79156  1  0  0  0
 79157  1  0  0  0
 80 87  1  0  0  0
 80158  1  0  0  0
 80159  1  0  0  0
 81160  1  0  0  0
 82161  1  0  0  0
 82162  1  0  0  0
 82 87  1  0  0  0
 83163  1  0  0  0
 83164  1  0  0  0
 87165  1  0  0  0
M  CHG  1  87   1
M  ISO  4   1 100  68 101  83 101  86 100
M  END
> <chiral flag>
0

> <version>
0

> <s_m_source_file>
/data/baiqing/PycharmProjects/Reinvent-master-3.2/result/LINK_invent/BTK/process_docking_weight1_custom_sum_contain_oxygen_bond_distance_aromatic_linkinvent_7_9_3/rearranged_h_0184.sdf

> <i_m_source_file_index>
42

> <r_mmod_Potential_Energy-OPLS-2005>
208.165176391602

> <r_mmod_Stretch_Energy-OPLS-2005>
72.0948944091797

> <r_mmod_Bend_Energy-OPLS-2005>
143.266952514648

> <r_mmod_Torsional_Energy-OPLS-2005>
425.330749511719

> <r_mmod_Improper_Torsional_Energy-OPLS-2005>
14.5672721862793

> <r_mmod_Van_der_Waal_Energy-OPLS-2005>
148.786636352539

> <r_mmod_Electrostatic_Energy-OPLS-2005>
-183.288116455078

> <r_mmod_Solvation_Energy-OPLS-2005>
-450.195495605469

> <b_mmod_Minimization_Converged-OPLS-2005>
0

> <r_mmod_RMS_Derivative-OPLS-2005>
1.71289956569672

$$$$
42
                    3D
 Structure written by MMmdl.
162172  0  0  1  0            999 V2000
  -30.6049  -14.7850   20.4805 C   0  0  0  0  0  0
  -30.4344  -12.4857   19.4851 C   0  0  0  0  0  0
  -29.5173  -12.5358   18.2439 C   0  0  0  0  0  0
  -28.0449  -12.3517   18.6590 C   0  0  0  0  0  0
  -27.6489  -13.2401   19.8671 C   0  0  2  0  0  0
  -28.6931  -13.1819   21.0041 C   0  0  0  0  0  0
  -25.2561  -13.8205   20.5783 C   0  0  0  0  0  0
  -24.1846  -13.0439   20.9222 C   0  0  0  0  0  0
  -24.6447  -11.6917   20.8775 C   0  0  0  0  0  0
  -23.9125  -10.4303   21.0437 C   0  0  0  0  0  0
  -24.3673   -9.4213   21.9213 C   0  0  0  0  0  0
  -23.6327   -8.2264   22.0770 C   0  0  0  0  0  0
  -22.4303   -8.0316   21.3573 C   0  0  0  0  0  0
  -21.9972   -9.0297   20.4671 C   0  0  0  0  0  0
  -22.7307  -10.2170   20.3076 C   0  0  0  0  0  0
  -21.6857   -6.0756   22.5299 C   0  0  0  0  0  0
  -21.4012   -6.5659   23.8236 C   0  0  0  0  0  0
  -21.3662   -5.6805   24.9192 C   0  0  0  0  0  0
  -21.6039   -4.3073   24.7240 C   0  0  0  0  0  0
  -21.8817   -3.8165   23.4351 C   0  0  0  0  0  0
  -21.9204   -4.6990   22.3414 C   0  0  0  0  0  0
  -22.7872  -13.5227   21.1868 C   0  0  0  0  0  0
  -22.1671   -4.2171   21.0988 F   0  0  0  0  0  0
  -21.5629   -3.4548   25.7744 F   0  0  0  0  0  0
  -29.9840  -13.5515   20.4159 N   0  0  0  0  0  0
  -26.3010  -12.9438   20.3402 N   0  0  0  0  0  0
  -25.9399  -11.6570   20.5815 N   0  0  0  0  0  0
  -22.0521  -12.8206   22.0383 N   0  0  0  0  0  0
  -25.4226  -15.1940   20.4232 N   0  0  0  0  0  0
  -31.7748  -14.8775   20.0957 O   0  0  0  0  0  0
  -21.6644   -6.8916   21.4267 O   0  0  0  0  0  0
  -22.3587  -14.5558   20.6730 O   0  0  0  0  0  0
  -24.6322  -31.8577   23.1993 C   0  0  0  0  0  0
  -25.9140  -32.4780   23.8342 C   0  0  1  0  0  0
  -27.2323  -27.2562   20.1510 C   0  0  0  0  0  0
  -25.5955  -33.8573   24.2305 N   0  0  0  0  0  0
  -23.4290  -30.4789   21.5403 C   0  0  2  0  0  0
  -24.8842  -28.9179   20.1169 C   0  0  0  0  0  0
  -22.7505  -29.4647   22.4910 C   0  0  0  0  0  0
  -18.0308  -28.1398   22.8481 C   0  0  0  0  0  0
  -24.1497  -36.7285   23.2639 C   0  0  0  0  0  0
  -25.9730  -30.7748   21.3735 C   0  0  0  0  0  0
  -26.0554  -29.3900   20.7274 C   0  0  0  0  0  0
  -27.2333  -28.5712   20.7348 C   0  0  0  0  0  0
  -26.0453  -26.8616   19.4997 C   0  0  0  0  0  0
  -24.8855  -27.6615   19.4913 C   0  0  0  0  0  0
  -23.6518  -29.8030   20.1602 C   0  0  0  0  0  0
  -25.4123  -36.3100   24.0350 C   0  0  1  0  0  0
  -20.5914  -28.3748   23.1252 C   0  0  2  0  0  0
  -20.6811  -26.9455   22.5414 C   0  0  0  0  0  0
  -19.5792  -26.6402   21.5215 C   0  0  0  0  0  0
  -18.1964  -26.7946   22.1609 C   0  0  0  0  0  0
  -19.1556  -28.8882   23.2863 C   0  0  0  0  0  0
  -18.9469  -30.1476   23.8892 C   0  0  0  0  0  0
  -17.6465  -30.6589   24.0572 C   0  0  0  0  0  0
  -25.9060  -34.9456   23.5140 C   0  0  0  0  0  0
  -16.5365  -29.9080   23.6331 C   0  0  0  0  0  0
  -16.7291  -28.6503   23.0347 C   0  0  0  0  0  0
  -26.4494  -31.6571   25.0712 C   0  0  0  0  0  0
  -25.3717  -31.3677   26.1434 C   0  0  0  0  0  0
  -27.0308  -30.3001   24.6119 C   0  0  0  0  0  0
  -27.6098  -32.4241   25.7465 C   0  0  0  0  0  0
  -27.5600  -37.1808   24.8457 C   0  0  0  0  0  0
  -21.4212  -29.3100   22.3635 N   0  0  0  0  0  0
  -26.4299  -37.3805   23.9424 N   0  0  0  0  0  0
  -24.6977  -31.0541   22.0963 N   0  0  0  0  0  0
  -23.4193  -28.8197   23.3032 O   0  0  0  0  0  0
  -28.3039  -26.3287   20.1806 O   0  0  0  0  0  0
  -26.5594  -34.8926   22.4692 O   0  0  0  0  0  0
  -23.5474  -32.1381   23.7303 O   0  0  0  0  0  0
  -28.3844  -22.2825   20.7832 C   0  0  0  0  0  0
  -28.6776  -23.6036   20.3942 C   0  0  0  0  0  0
  -30.0061  -22.1024   19.3154 C   0  0  0  0  0  0
  -32.3675  -21.0870   18.7197 C   0  0  0  0  0  0
  -32.2351  -22.3426   17.8880 C   0  0  0  0  0  0
  -29.3762  -18.0765   21.9220 C   0  0  0  0  0  0
  -29.6962  -16.5455   22.0359 C   0  0  0  0  0  0
  -29.7121  -17.1476   19.7821 C   0  0  0  0  0  0
  -30.9986  -21.5821   18.3174 C   0  0  0  0  0  0
  -29.7971  -18.5641   20.5265 C   0  0  1  0  0  0
  -28.0197  -24.9893   20.8156 C   0  0  0  0  0  0
  -28.9531  -19.8122   19.8855 C   0  0  0  0  0  0
  -29.1677  -21.3556   20.0749 N   0  0  0  0  0  0
  -29.7031  -23.4138   19.4972 N   0  3  0  0  0  0
  -29.8419  -15.9457   20.6980 N   0  0  0  0  0  0
  -31.4810  -12.5953   19.1932 H   0  0  0  0  0  0
  -30.3659  -11.5083   19.9699 H   0  0  0  0  0  0
  -29.8009  -11.7633   17.5272 H   0  0  0  0  0  0
  -29.6395  -13.4905   17.7283 H   0  0  0  0  0  0
  -27.9089  -11.3000   18.9164 H   0  0  0  0  0  0
  -27.3855  -12.5497   17.8130 H   0  0  0  0  0  0
  -27.6429  -14.2651   19.4935 H   0  0  0  0  0  0
  -28.7472  -12.1864   21.4491 H   0  0  0  0  0  0
  -28.4284  -13.8642   21.8128 H   0  0  0  0  0  0
  -25.2824   -9.5658   22.4783 H   0  0  0  0  0  0
  -24.0025   -7.4647   22.7493 H   0  0  0  0  0  0
  -21.0898   -8.8846   19.8971 H   0  0  0  0  0  0
  -22.3798  -10.9729   19.6185 H   0  0  0  0  0  0
  -21.1987   -7.6166   23.9736 H   0  0  0  0  0  0
  -21.1486   -6.0541   25.9097 H   0  0  0  0  0  0
  -22.0587   -2.7629   23.2856 H   0  0  0  0  0  0
  -22.4114  -11.9837   22.4735 H   0  0  0  0  0  0
  -21.1158  -13.1252   22.2613 H   0  0  0  0  0  0
  -24.6521  -15.8410   20.5391 H   0  0  0  0  0  0
  -26.2780  -15.6494   20.1336 H   0  0  0  0  0  0
  -26.7209  -32.5466   23.1090 H   0  0  0  0  0  0
  -25.0180  -33.9708   25.0502 H   0  0  0  0  0  0
  -22.7255  -31.3029   21.3903 H   0  0  0  0  0  0
  -23.3800  -35.9571   23.3256 H   0  0  0  0  0  0
  -24.3600  -36.8951   22.2059 H   0  0  0  0  0  0
  -23.7173  -37.6453   23.6665 H   0  0  0  0  0  0
  -26.0905  -31.5278   20.5919 H   0  0  0  0  0  0
  -26.8571  -30.8461   21.9945 H   0  0  0  0  0  0
  -28.1232  -28.9286   21.2340 H   0  0  0  0  0  0
  -26.0050  -25.8974   19.0111 H   0  0  0  0  0  0
  -23.9897  -27.2943   19.0084 H   0  0  0  0  0  0
  -23.7774  -30.5761   19.4016 H   0  0  0  0  0  0
  -22.7698  -29.2378   19.8534 H   0  0  0  0  0  0
  -25.1287  -36.1979   25.0839 H   0  0  0  0  0  0
  -21.0001  -28.3365   24.1376 H   0  0  0  0  0  0
  -20.5743  -26.2364   23.3627 H   0  0  0  0  0  0
  -21.6679  -26.7509   22.1205 H   0  0  0  0  0  0
  -19.6970  -25.6311   21.1255 H   0  0  0  0  0  0
  -19.6723  -27.3201   20.6728 H   0  0  0  0  0  0
  -17.4244  -26.6719   21.3985 H   0  0  0  0  0  0
  -18.0345  -26.0060   22.8971 H   0  0  0  0  0  0
  -19.7949  -30.7302   24.2252 H   0  0  0  0  0  0
  -17.5021  -31.6265   24.5196 H   0  0  0  0  0  0
  -15.5368  -30.2977   23.7660 H   0  0  0  0  0  0
  -15.8704  -28.0825   22.7043 H   0  0  0  0  0  0
  -24.5922  -30.6994   25.7748 H   0  0  0  0  0  0
  -24.8855  -32.2817   26.4846 H   0  0  0  0  0  0
  -25.8047  -30.8865   27.0212 H   0  0  0  0  0  0
  -26.2845  -29.6754   24.1186 H   0  0  0  0  0  0
  -27.4074  -29.7246   25.4585 H   0  0  0  0  0  0
  -27.8697  -30.4306   23.9275 H   0  0  0  0  0  0
  -27.2792  -33.3578   26.2001 H   0  0  0  0  0  0
  -28.3917  -32.6696   25.0273 H   0  0  0  0  0  0
  -28.0715  -31.8339   26.5384 H   0  0  0  0  0  0
  -28.2598  -38.0128   24.7582 H   0  0  0  0  0  0
  -28.1118  -36.2672   24.6193 H   0  0  0  0  0  0
  -27.2331  -37.1371   25.8859 H   0  0  0  0  0  0
  -20.9396  -29.8805   21.6819 H   0  0  0  0  0  0
  -26.0197  -38.2891   24.1429 H   0  0  0  0  0  0
  -27.6170  -21.9428   21.4646 H   0  0  0  0  0  0
  -32.6930  -21.2192   19.7499 H   0  0  0  0  0  0
  -32.7254  -20.1840   18.2284 H   0  0  0  0  0  0
  -32.5274  -22.2747   16.8409 H   0  0  0  0  0  0
  -32.4696  -23.2865   18.3766 H   0  0  0  0  0  0
  -29.8686  -18.6486   22.7100 H   0  0  0  0  0  0
  -28.3043  -18.2265   22.0570 H   0  0  0  0  0  0
  -30.6207  -16.3988   22.6002 H   0  0  0  0  0  0
  -28.9027  -16.0359   22.5844 H   0  0  0  0  0  0
  -30.4018  -17.0968   18.9382 H   0  0  0  0  0  0
  -28.7136  -17.0558   19.3519 H   0  0  0  0  0  0
  -30.4569  -21.0435   17.5448 H   0  0  0  0  0  0
  -30.8539  -18.8357   20.5555 H   0  0  0  0  0  0
  -28.2632  -25.1265   21.8697 H   0  0  0  0  0  0
  -26.9446  -24.8158   20.8210 H   0  0  0  0  0  0
  -27.8990  -19.6412   20.1013 H   0  0  0  0  0  0
  -29.0148  -19.6667   18.8072 H   0  0  0  0  0  0
  -30.1429  -24.1693   18.9830 H   0  0  0  0  0  0
  1 25  1  0  0  0
  1 30  2  0  0  0
  1 85  1  0  0  0
  2  3  1  0  0  0
  2 25  1  0  0  0
  2 86  1  0  0  0
  2 87  1  0  0  0
  3  4  1  0  0  0
  3 88  1  0  0  0
  3 89  1  0  0  0
  4  5  1  0  0  0
  4 90  1  0  0  0
  4 91  1  0  0  0
  5  6  1  0  0  0
  5 26  1  0  0  0
  5 92  1  0  0  0
  6 25  1  0  0  0
  6 93  1  0  0  0
  6 94  1  0  0  0
  7  8  2  0  0  0
  7 26  1  0  0  0
  7 29  1  0  0  0
  8  9  1  0  0  0
  8 22  1  0  0  0
  9 10  1  0  0  0
  9 27  2  0  0  0
 10 11  2  0  0  0
 10 15  1  0  0  0
 11 12  1  0  0  0
 11 95  1  0  0  0
 12 13  2  0  0  0
 12 96  1  0  0  0
 13 14  1  0  0  0
 13 31  1  0  0  0
 14 15  2  0  0  0
 14 97  1  0  0  0
 15 98  1  0  0  0
 16 17  2  0  0  0
 16 21  1  0  0  0
 16 31  1  0  0  0
 17 18  1  0  0  0
 17 99  1  0  0  0
 18 19  2  0  0  0
 18100  1  0  0  0
 19 20  1  0  0  0
 19 24  1  0  0  0
 20 21  2  0  0  0
 20101  1  0  0  0
 21 23  1  0  0  0
 22 28  1  0  0  0
 22 32  2  0  0  0
 26 27  1  0  0  0
 28102  1  0  0  0
 28103  1  0  0  0
 29104  1  0  0  0
 29105  1  0  0  0
 33 34  1  0  0  0
 33 66  1  0  0  0
 33 70  2  0  0  0
 34 36  1  0  0  0
 34 59  1  0  0  0
 34106  1  0  0  0
 35 44  2  0  0  0
 35 45  1  0  0  0
 35 68  1  0  0  0
 36 56  1  0  0  0
 36107  1  0  0  0
 37 39  1  0  0  0
 37 47  1  0  0  0
 37 66  1  0  0  0
 37108  1  0  0  0
 38 43  2  0  0  0
 38 46  1  0  0  0
 38 47  1  0  0  0
 39 64  1  0  0  0
 39 67  2  0  0  0
 40 52  1  0  0  0
 40 53  2  0  0  0
 40 58  1  0  0  0
 41109  1  0  0  0
 41110  1  0  0  0
 41111  1  0  0  0
 41 48  1  0  0  0
 42 43  1  0  0  0
 42 66  1  0  0  0
 42112  1  0  0  0
 42113  1  0  0  0
 43 44  1  0  0  0
 44114  1  0  0  0
 45 46  2  0  0  0
 45115  1  0  0  0
 46116  1  0  0  0
 47117  1  0  0  0
 47118  1  0  0  0
 48 56  1  0  0  0
 48 65  1  0  0  0
 48119  1  0  0  0
 49 50  1  0  0  0
 49 53  1  0  0  0
 49 64  1  0  0  0
 49120  1  0  0  0
 50 51  1  0  0  0
 50121  1  0  0  0
 50122  1  0  0  0
 51 52  1  0  0  0
 51123  1  0  0  0
 51124  1  0  0  0
 52125  1  0  0  0
 52126  1  0  0  0
 53 54  1  0  0  0
 54 55  2  0  0  0
 54127  1  0  0  0
 55 57  1  0  0  0
 55128  1  0  0  0
 56 69  2  0  0  0
 57 58  2  0  0  0
 57129  1  0  0  0
 58130  1  0  0  0
 59 60  1  0  0  0
 59 61  1  0  0  0
 59 62  1  0  0  0
 60131  1  0  0  0
 60132  1  0  0  0
 60133  1  0  0  0
 61134  1  0  0  0
 61135  1  0  0  0
 61136  1  0  0  0
 62137  1  0  0  0
 62138  1  0  0  0
 62139  1  0  0  0
 63 65  1  0  0  0
 63140  1  0  0  0
 63141  1  0  0  0
 63142  1  0  0  0
 64143  1  0  0  0
 65144  1  0  0  0
 68 81  1  0  0  0
 71 72  2  0  0  0
 71 83  1  0  0  0
 71145  1  0  0  0
 72 81  1  0  0  0
 72 84  1  0  0  0
 73 83  1  0  0  0
 73 84  2  0  0  0
 73 79  1  0  0  0
 74 75  1  0  0  0
 74 79  1  0  0  0
 74146  1  0  0  0
 74147  1  0  0  0
 75 79  1  0  0  0
 75148  1  0  0  0
 75149  1  0  0  0
 76 77  1  0  0  0
 76 80  1  0  0  0
 76150  1  0  0  0
 76151  1  0  0  0
 77 85  1  0  0  0
 77152  1  0  0  0
 77153  1  0  0  0
 78 80  1  0  0  0
 78 85  1  0  0  0
 78154  1  0  0  0
 78155  1  0  0  0
 79156  1  0  0  0
 80 82  1  0  0  0
 80157  1  0  0  0
 81158  1  0  0  0
 81159  1  0  0  0
 82 83  1  0  0  0
 82160  1  0  0  0
 82161  1  0  0  0
 84162  1  0  0  0
M  CHG  1  84   1
M  ISO  4   1 100  68 101  81 101  85 100
M  END
> <chiral flag>
0

> <version>
0

> <s_m_source_file>
/data/baiqing/PycharmProjects/Reinvent-master-3.2/result/LINK_invent/BTK/process_docking_weight1_custom_sum_contain_oxygen_bond_distance_aromatic_linkinvent_7_9_3/rearranged_h_0184.sdf

> <i_m_source_file_index>
43

> <r_mmod_Potential_Energy-OPLS-2005>
411.739807128906

> <r_mmod_Stretch_Energy-OPLS-2005>
133.998672485352

> <r_mmod_Bend_Energy-OPLS-2005>
214.30241394043

> <r_mmod_Torsional_Energy-OPLS-2005>
414.136199951172

> <r_mmod_Improper_Torsional_Energy-OPLS-2005>
12.7713556289673

> <r_mmod_Van_der_Waal_Energy-OPLS-2005>
102.281723022461

> <r_mmod_Electrostatic_Energy-OPLS-2005>
-161.684265136719

> <r_mmod_Solvation_Energy-OPLS-2005>
-400.117126464844

> <b_mmod_Minimization_Converged-OPLS-2005>
0

> <r_mmod_RMS_Derivative-OPLS-2005>
4.12896060943604

$$$$
43
                    3D
 Structure written by MMmdl.
153162  0  0  1  0            999 V2000
  -30.4700  -15.1972   20.3717 C   0  0  0  0  0  0
  -30.4345  -12.7599   19.5205 C   0  0  0  0  0  0
  -29.5278  -12.5593   18.2814 C   0  0  0  0  0  0
  -28.0733  -12.2995   18.7093 C   0  0  0  0  0  0
  -27.6129  -13.2692   19.8259 C   0  0  2  0  0  0
  -28.6491  -13.4227   20.9592 C   0  0  0  0  0  0
  -25.2396  -13.8245   20.5749 C   0  0  0  0  0  0
  -24.1743  -13.0439   20.9263 C   0  0  0  0  0  0
  -24.6390  -11.6932   20.8771 C   0  0  0  0  0  0
  -23.9080  -10.4294   21.0414 C   0  0  0  0  0  0
  -24.3627   -9.4205   21.9190 C   0  0  0  0  0  0
  -23.6310   -8.2239   22.0747 C   0  0  0  0  0  0
  -22.4290   -8.0281   21.3545 C   0  0  0  0  0  0
  -21.9928   -9.0251   20.4644 C   0  0  0  0  0  0
  -22.7250  -10.2136   20.3062 C   0  0  0  0  0  0
  -21.6855   -6.0742   22.5279 C   0  0  0  0  0  0
  -21.4011   -6.5646   23.8211 C   0  0  0  0  0  0
  -21.3659   -5.6799   24.9178 C   0  0  0  0  0  0
  -21.6046   -4.3062   24.7228 C   0  0  0  0  0  0
  -21.8818   -3.8153   23.4349 C   0  0  0  0  0  0
  -21.9198   -4.6970   22.3408 C   0  0  0  0  0  0
  -22.7760  -13.5193   21.1920 C   0  0  0  0  0  0
  -22.1667   -4.2154   21.0985 F   0  0  0  0  0  0
  -21.5631   -3.4543   25.7741 F   0  0  0  0  0  0
  -29.8894  -13.9046   20.3333 N   0  0  0  0  0  0
  -26.2816  -12.9509   20.3236 N   0  0  0  0  0  0
  -25.9326  -11.6616   20.5734 N   0  0  0  0  0  0
  -22.0433  -12.8158   22.0473 N   0  0  0  0  0  0
  -25.4034  -15.1975   20.4165 N   0  0  0  0  0  0
  -31.6889  -15.1949   20.1521 O   0  0  0  0  0  0
  -21.6649   -6.8881   21.4242 O   0  0  0  0  0  0
  -22.3433  -14.5499   20.6771 O   0  0  0  0  0  0
  -24.6589  -31.8276   23.1744 C   0  0  0  0  0  0
  -25.9298  -32.4611   23.8172 C   0  0  1  0  0  0
  -27.2078  -26.9665   20.1684 C   0  0  0  0  0  0
  -25.5982  -33.8419   24.2081 N   0  0  0  0  0  0
  -23.4709  -30.4437   21.5219 C   0  0  2  0  0  0
  -24.9222  -28.8445   20.1046 C   0  0  0  0  0  0
  -22.7643  -29.4470   22.4781 C   0  0  0  0  0  0
  -18.0323  -28.1414   22.8483 C   0  0  0  0  0  0
  -24.1489  -36.7201   23.2651 C   0  0  0  0  0  0
  -26.0391  -30.6463   21.3999 C   0  0  0  0  0  0
  -26.1049  -29.2417   20.7407 C   0  0  0  0  0  0
  -27.2431  -28.3213   20.7543 C   0  0  0  0  0  0
  -26.0010  -26.7238   19.4719 C   0  0  0  0  0  0
  -24.8938  -27.6047   19.4507 C   0  0  0  0  0  0
  -23.7071  -29.7670   20.1448 C   0  0  0  0  0  0
  -25.4134  -36.2971   24.0302 C   0  0  1  0  0  0
  -20.5946  -28.3748   23.1204 C   0  0  2  0  0  0
  -20.6798  -26.9437   22.5410 C   0  0  0  0  0  0
  -19.5767  -26.6390   21.5223 C   0  0  0  0  0  0
  -18.1950  -26.7949   22.1636 C   0  0  0  0  0  0
  -19.1583  -28.8902   23.2833 C   0  0  0  0  0  0
  -18.9499  -30.1493   23.8864 C   0  0  0  0  0  0
  -17.6495  -30.6612   24.0562 C   0  0  0  0  0  0
  -25.9099  -34.9363   23.5009 C   0  0  0  0  0  0
  -16.5381  -29.9108   23.6354 C   0  0  0  0  0  0
  -16.7304  -28.6521   23.0380 C   0  0  0  0  0  0
  -26.4556  -31.6545   25.0689 C   0  0  0  0  0  0
  -25.3697  -31.3809   26.1357 C   0  0  0  0  0  0
  -27.0435  -30.2909   24.6408 C   0  0  0  0  0  0
  -27.6034  -32.4360   25.7500 C   0  0  0  0  0  0
  -27.5548  -37.1775   24.8478 C   0  0  0  0  0  0
  -21.4314  -29.3045   22.3543 N   0  0  0  0  0  0
  -26.4273  -37.3708   23.9399 N   0  0  0  0  0  0
  -24.7441  -30.9979   22.0858 N   0  0  0  0  0  0
  -23.4217  -28.8036   23.3004 O   0  0  0  0  0  0
  -28.1880  -25.8546   20.2670 O   0  0  0  0  0  0
  -26.5692  -34.8899   22.4593 O   0  0  0  0  0  0
  -23.5676  -32.1224   23.6872 O   0  0  0  0  0  0
  -30.0976  -20.8405   19.7750 C   0  0  0  0  0  0
  -28.1911  -20.1677   20.8255 C   0  0  0  0  0  0
  -27.7654  -21.5748   20.7998 C   0  0  0  0  0  0
  -29.4292  -19.6413   20.2949 C   0  0  0  0  0  0
  -28.4991  -22.7201   20.2634 C   0  0  0  0  0  0
  -27.1340  -19.3099   21.4733 C   0  0  0  0  0  0
  -26.3768  -21.6795   21.3946 C   0  0  0  0  0  0
  -25.8926  -20.2214   21.5468 C   0  0  0  0  0  0
  -30.1566  -18.0551   20.2954 C   0  0  0  0  0  0
  -27.8248  -24.2995   19.9466 C   0  0  0  0  0  0
  -29.6847  -22.2089   19.7359 N   0  0  0  0  0  0
  -29.7277  -16.4694   20.4467 N   0  0  0  0  0  0
  -31.4565  -12.9495   19.1904 H   0  0  0  0  0  0
  -30.4831  -11.8478   20.1176 H   0  0  0  0  0  0
  -29.8935  -11.7324   17.6708 H   0  0  0  0  0  0
  -29.5687  -13.4487   17.6504 H   0  0  0  0  0  0
  -28.0172  -11.2724   19.0725 H   0  0  0  0  0  0
  -27.4039  -12.3577   17.8507 H   0  0  0  0  0  0
  -27.5358  -14.2414   19.3382 H   0  0  0  0  0  0
  -28.8002  -12.4846   21.4940 H   0  0  0  0  0  0
  -28.3013  -14.1482   21.6957 H   0  0  0  0  0  0
  -25.2765   -9.5696   22.4769 H   0  0  0  0  0  0
  -24.0031   -7.4622   22.7453 H   0  0  0  0  0  0
  -21.0861   -8.8767   19.8936 H   0  0  0  0  0  0
  -22.3699  -10.9682   19.6178 H   0  0  0  0  0  0
  -21.1993   -7.6149   23.9718 H   0  0  0  0  0  0
  -21.1482   -6.0528   25.9082 H   0  0  0  0  0  0
  -22.0596   -2.7613   23.2848 H   0  0  0  0  0  0
  -22.4082  -11.9818   22.4833 H   0  0  0  0  0  0
  -21.1045  -13.1144   22.2699 H   0  0  0  0  0  0
  -24.6285  -15.8439   20.5181 H   0  0  0  0  0  0
  -26.2389  -15.6341   20.0517 H   0  0  0  0  0  0
  -26.7368  -32.5146   23.0884 H   0  0  0  0  0  0
  -25.0097  -33.9495   25.0213 H   0  0  0  0  0  0
  -22.7820  -31.2753   21.3568 H   0  0  0  0  0  0
  -23.3745  -35.9540   23.3340 H   0  0  0  0  0  0
  -24.3556  -36.8815   22.2060 H   0  0  0  0  0  0
  -23.7271  -37.6413   23.6680 H   0  0  0  0  0  0
  -26.2181  -31.3942   20.6256 H   0  0  0  0  0  0
  -26.9001  -30.6955   22.0545 H   0  0  0  0  0  0
  -28.1343  -28.6197   21.2877 H   0  0  0  0  0  0
  -25.8652  -25.7843   18.9569 H   0  0  0  0  0  0
  -23.9977  -27.2992   18.9282 H   0  0  0  0  0  0
  -23.8596  -30.5383   19.3897 H   0  0  0  0  0  0
  -22.8165  -29.2224   19.8274 H   0  0  0  0  0  0
  -25.1349  -36.1756   25.0796 H   0  0  0  0  0  0
  -21.0042  -28.3355   24.1324 H   0  0  0  0  0  0
  -20.5680  -26.2374   23.3652 H   0  0  0  0  0  0
  -21.6661  -26.7429   22.1210 H   0  0  0  0  0  0
  -19.6923  -25.6293   21.1279 H   0  0  0  0  0  0
  -19.6696  -27.3178   20.6735 H   0  0  0  0  0  0
  -17.4219  -26.6706   21.4039 H   0  0  0  0  0  0
  -18.0336  -26.0106   22.9045 H   0  0  0  0  0  0
  -19.7975  -30.7321   24.2213 H   0  0  0  0  0  0
  -17.5054  -31.6288   24.5170 H   0  0  0  0  0  0
  -15.5381  -30.3001   23.7696 H   0  0  0  0  0  0
  -15.8705  -28.0825   22.7125 H   0  0  0  0  0  0
  -24.5870  -30.7160   25.7685 H   0  0  0  0  0  0
  -24.8892  -32.3019   26.4659 H   0  0  0  0  0  0
  -25.7941  -30.9062   27.0208 H   0  0  0  0  0  0
  -26.3086  -29.6601   24.1386 H   0  0  0  0  0  0
  -27.3936  -29.7265   25.5057 H   0  0  0  0  0  0
  -27.9052  -30.4092   23.9840 H   0  0  0  0  0  0
  -27.2571  -33.3687   26.1968 H   0  0  0  0  0  0
  -28.3905  -32.6882   25.0382 H   0  0  0  0  0  0
  -28.0631  -31.8561   26.5513 H   0  0  0  0  0  0
  -28.2613  -38.0020   24.7444 H   0  0  0  0  0  0
  -28.0998  -36.2546   24.6417 H   0  0  0  0  0  0
  -27.2255  -37.1570   25.8883 H   0  0  0  0  0  0
  -20.9546  -29.8744   21.6690 H   0  0  0  0  0  0
  -26.0115  -38.2773   24.1367 H   0  0  0  0  0  0
  -31.0720  -20.6965   19.3313 H   0  0  0  0  0  0
  -27.4686  -19.0258   22.4719 H   0  0  0  0  0  0
  -26.9398  -18.4000   20.9037 H   0  0  0  0  0  0
  -25.6966  -22.2534   20.7643 H   0  0  0  0  0  0
  -26.4409  -22.1701   22.3670 H   0  0  0  0  0  0
  -25.2759  -20.0531   22.4311 H   0  0  0  0  0  0
  -25.2653  -19.9931   20.6834 H   0  0  0  0  0  0
  -30.9363  -18.1585   21.0508 H   0  0  0  0  0  0
  -30.7171  -18.0542   19.3600 H   0  0  0  0  0  0
  -26.8087  -24.2058   20.3245 H   0  0  0  0  0  0
  -27.7062  -24.2927   18.8629 H   0  0  0  0  0  0
  -28.7379  -16.3298   20.5810 H   0  0  0  0  0  0
  1 25  1  0  0  0
  1 30  2  0  0  0
  1 82  1  0  0  0
  2  3  1  0  0  0
  2 25  1  0  0  0
  2 83  1  0  0  0
  2 84  1  0  0  0
  3  4  1  0  0  0
  3 85  1  0  0  0
  3 86  1  0  0  0
  4  5  1  0  0  0
  4 87  1  0  0  0
  4 88  1  0  0  0
  5  6  1  0  0  0
  5 26  1  0  0  0
  5 89  1  0  0  0
  6 25  1  0  0  0
  6 90  1  0  0  0
  6 91  1  0  0  0
  7  8  2  0  0  0
  7 26  1  0  0  0
  7 29  1  0  0  0
  8  9  1  0  0  0
  8 22  1  0  0  0
  9 10  1  0  0  0
  9 27  2  0  0  0
 10 11  2  0  0  0
 10 15  1  0  0  0
 11 12  1  0  0  0
 11 92  1  0  0  0
 12 13  2  0  0  0
 12 93  1  0  0  0
 13 14  1  0  0  0
 13 31  1  0  0  0
 14 15  2  0  0  0
 14 94  1  0  0  0
 15 95  1  0  0  0
 16 17  2  0  0  0
 16 21  1  0  0  0
 16 31  1  0  0  0
 17 18  1  0  0  0
 17 96  1  0  0  0
 18 19  2  0  0  0
 18 97  1  0  0  0
 19 20  1  0  0  0
 19 24  1  0  0  0
 20 21  2  0  0  0
 20 98  1  0  0  0
 21 23  1  0  0  0
 22 28  1  0  0  0
 22 32  2  0  0  0
 26 27  1  0  0  0
 28 99  1  0  0  0
 28100  1  0  0  0
 29101  1  0  0  0
 29102  1  0  0  0
 33 34  1  0  0  0
 33 66  1  0  0  0
 33 70  2  0  0  0
 34 36  1  0  0  0
 34 59  1  0  0  0
 34103  1  0  0  0
 35 44  2  0  0  0
 35 45  1  0  0  0
 35 68  1  0  0  0
 36 56  1  0  0  0
 36104  1  0  0  0
 37 39  1  0  0  0
 37 47  1  0  0  0
 37 66  1  0  0  0
 37105  1  0  0  0
 38 43  2  0  0  0
 38 46  1  0  0  0
 38 47  1  0  0  0
 39 64  1  0  0  0
 39 67  2  0  0  0
 40 52  1  0  0  0
 40 53  2  0  0  0
 40 58  1  0  0  0
 41106  1  0  0  0
 41107  1  0  0  0
 41108  1  0  0  0
 41 48  1  0  0  0
 42 43  1  0  0  0
 42 66  1  0  0  0
 42109  1  0  0  0
 42110  1  0  0  0
 43 44  1  0  0  0
 44111  1  0  0  0
 45 46  2  0  0  0
 45112  1  0  0  0
 46113  1  0  0  0
 47114  1  0  0  0
 47115  1  0  0  0
 48 56  1  0  0  0
 48 65  1  0  0  0
 48116  1  0  0  0
 49 50  1  0  0  0
 49 53  1  0  0  0
 49 64  1  0  0  0
 49117  1  0  0  0
 50 51  1  0  0  0
 50118  1  0  0  0
 50119  1  0  0  0
 51 52  1  0  0  0
 51120  1  0  0  0
 51121  1  0  0  0
 52122  1  0  0  0
 52123  1  0  0  0
 53 54  1  0  0  0
 54 55  2  0  0  0
 54124  1  0  0  0
 55 57  1  0  0  0
 55125  1  0  0  0
 56 69  2  0  0  0
 57 58  2  0  0  0
 57126  1  0  0  0
 58127  1  0  0  0
 59 60  1  0  0  0
 59 61  1  0  0  0
 59 62  1  0  0  0
 60128  1  0  0  0
 60129  1  0  0  0
 60130  1  0  0  0
 61131  1  0  0  0
 61132  1  0  0  0
 61133  1  0  0  0
 62134  1  0  0  0
 62135  1  0  0  0
 62136  1  0  0  0
 63 65  1  0  0  0
 63137  1  0  0  0
 63138  1  0  0  0
 63139  1  0  0  0
 64140  1  0  0  0
 65141  1  0  0  0
 68 80  1  0  0  0
 71 74  2  0  0  0
 71 81  1  0  0  0
 71142  1  0  0  0
 72 73  2  0  0  0
 72 74  1  0  0  0
 72 76  1  0  0  0
 73 75  1  0  0  0
 73 77  1  0  0  0
 74 79  1  0  0  0
 75 80  1  0  0  0
 75 81  2  0  0  0
 76 78  1  0  0  0
 76143  1  0  0  0
 76144  1  0  0  0
 77 78  1  0  0  0
 77145  1  0  0  0
 77146  1  0  0  0
 78147  1  0  0  0
 78148  1  0  0  0
 79 82  1  0  0  0
 79149  1  0  0  0
 79150  1  0  0  0
 80151  1  0  0  0
 80152  1  0  0  0
 82153  1  0  0  0
M  ISO  4   1 100  68 101  80 101  82 100
M  END
> <chiral flag>
0

> <version>
0

> <s_m_source_file>
/data/baiqing/PycharmProjects/Reinvent-master-3.2/result/LINK_invent/BTK/process_docking_weight1_custom_sum_contain_oxygen_bond_distance_aromatic_linkinvent_7_9_3/rearranged_h_0184.sdf

> <i_m_source_file_index>
44

> <r_mmod_Potential_Energy-OPLS-2005>
1002.09100341797

> <r_mmod_Stretch_Energy-OPLS-2005>
462.642791748047

> <r_mmod_Bend_Energy-OPLS-2005>
473.238067626953

> <r_mmod_Torsional_Energy-OPLS-2005>
222.927780151367

> <r_mmod_Improper_Torsional_Energy-OPLS-2005>
7.07298517227173

> <r_mmod_Van_der_Waal_Energy-OPLS-2005>
129.583206176758

> <r_mmod_Electrostatic_Energy-OPLS-2005>
-452.881500244141

> <r_mmod_Solvation_Energy-OPLS-2005>
-241.143905639648

> <b_mmod_Minimization_Converged-OPLS-2005>
0

> <r_mmod_RMS_Derivative-OPLS-2005>
1.53434777259827

$$$$
44
                    3D
 Structure written by MMmdl.
154163  0  0  1  0            999 V2000
  -30.5159  -15.1012   20.3842 C   0  0  0  0  0  0
  -30.4339  -12.6878   19.5240 C   0  0  0  0  0  0
  -29.5363  -12.5599   18.2725 C   0  0  0  0  0  0
  -28.0715  -12.3193   18.6827 C   0  0  0  0  0  0
  -27.6205  -13.2677   19.8260 C   0  0  2  0  0  0
  -28.6565  -13.3784   20.9637 C   0  0  0  0  0  0
  -25.2458  -13.8247   20.5738 C   0  0  0  0  0  0
  -24.1782  -13.0436   20.9231 C   0  0  0  0  0  0
  -24.6420  -11.6929   20.8738 C   0  0  0  0  0  0
  -23.9098  -10.4293   21.0376 C   0  0  0  0  0  0
  -24.3658   -9.4217   21.9163 C   0  0  0  0  0  0
  -23.6322   -8.2251   22.0735 C   0  0  0  0  0  0
  -22.4298   -8.0297   21.3541 C   0  0  0  0  0  0
  -21.9940   -9.0255   20.4629 C   0  0  0  0  0  0
  -22.7268  -10.2127   20.3021 C   0  0  0  0  0  0
  -21.6867   -6.0738   22.5269 C   0  0  0  0  0  0
  -21.4028   -6.5630   23.8210 C   0  0  0  0  0  0
  -21.3670   -5.6788   24.9172 C   0  0  0  0  0  0
  -21.6050   -4.3048   24.7215 C   0  0  0  0  0  0
  -21.8822   -3.8138   23.4337 C   0  0  0  0  0  0
  -21.9203   -4.6964   22.3390 C   0  0  0  0  0  0
  -22.7808  -13.5213   21.1861 C   0  0  0  0  0  0
  -22.1667   -4.2141   21.0970 F   0  0  0  0  0  0
  -21.5629   -3.4535   25.7730 F   0  0  0  0  0  0
  -29.9132  -13.8276   20.3503 N   0  0  0  0  0  0
  -26.2876  -12.9499   20.3215 N   0  0  0  0  0  0
  -25.9362  -11.6606   20.5703 N   0  0  0  0  0  0
  -22.0463  -12.8207   22.0425 N   0  0  0  0  0  0
  -25.4149  -15.1972   20.4196 N   0  0  0  0  0  0
  -31.7283  -15.0999   20.1387 O   0  0  0  0  0  0
  -21.6663   -6.8888   21.4231 O   0  0  0  0  0  0
  -22.3473  -14.5489   20.6673 O   0  0  0  0  0  0
  -24.6540  -31.8309   23.1777 C   0  0  0  0  0  0
  -25.9264  -32.4635   23.8203 C   0  0  1  0  0  0
  -27.2258  -27.0154   20.1743 C   0  0  0  0  0  0
  -25.5979  -33.8452   24.2127 N   0  0  0  0  0  0
  -23.4663  -30.4457   21.5260 C   0  0  2  0  0  0
  -24.9203  -28.8477   20.1184 C   0  0  0  0  0  0
  -22.7633  -29.4491   22.4822 C   0  0  0  0  0  0
  -18.0314  -28.1415   22.8459 C   0  0  0  0  0  0
  -24.1502  -36.7230   23.2638 C   0  0  0  0  0  0
  -26.0304  -30.6680   21.3934 C   0  0  0  0  0  0
  -26.1040  -29.2645   20.7416 C   0  0  0  0  0  0
  -27.2566  -28.3702   20.7445 C   0  0  0  0  0  0
  -26.0151  -26.7347   19.5033 C   0  0  0  0  0  0
  -24.8966  -27.5981   19.4814 C   0  0  0  0  0  0
  -23.7028  -29.7653   20.1510 C   0  0  0  0  0  0
  -25.4148  -36.3008   24.0299 C   0  0  1  0  0  0
  -20.5940  -28.3756   23.1193 C   0  0  2  0  0  0
  -20.6816  -26.9447   22.5395 C   0  0  0  0  0  0
  -19.5794  -26.6386   21.5215 C   0  0  0  0  0  0
  -18.1966  -26.7948   22.1614 C   0  0  0  0  0  0
  -19.1574  -28.8905   23.2812 C   0  0  0  0  0  0
  -18.9483  -30.1495   23.8851 C   0  0  0  0  0  0
  -17.6479  -30.6600   24.0568 C   0  0  0  0  0  0
  -25.9097  -34.9380   23.5029 C   0  0  0  0  0  0
  -16.5369  -29.9090   23.6347 C   0  0  0  0  0  0
  -16.7293  -28.6518   23.0348 C   0  0  0  0  0  0
  -26.4564  -31.6517   25.0666 C   0  0  0  0  0  0
  -25.3720  -31.3705   26.1328 C   0  0  0  0  0  0
  -27.0441  -30.2897   24.6319 C   0  0  0  0  0  0
  -27.6101  -32.4264   25.7468 C   0  0  0  0  0  0
  -27.5591  -37.1776   24.8464 C   0  0  0  0  0  0
  -21.4312  -29.3055   22.3550 N   0  0  0  0  0  0
  -26.4307  -37.3727   23.9391 N   0  0  0  0  0  0
  -24.7382  -31.0065   22.0862 N   0  0  0  0  0  0
  -23.4216  -28.8058   23.3039 O   0  0  0  0  0  0
  -28.2481  -25.9564   20.2019 O   0  0  0  0  0  0
  -26.5700  -34.8900   22.4618 O   0  0  0  0  0  0
  -23.5630  -32.1253   23.6912 O   0  0  0  0  0  0
  -28.5969  -21.5399   20.6402 C   0  0  0  0  0  0
  -29.3919  -20.3505   20.1470 C   0  0  0  0  0  0
  -28.8018  -22.9613   20.1414 C   0  0  0  0  0  0
  -30.4788  -21.9755   18.8480 C   0  0  0  0  0  0
  -29.3078  -17.3758   19.5175 C   0  0  0  0  0  0
  -30.4059  -17.6624   21.1594 C   0  0  0  0  0  0
  -29.3459  -18.6652   20.4879 C   0  0  0  0  0  0
  -31.5730  -22.2197   17.8235 C   0  0  0  0  0  0
  -27.9119  -24.3947   20.4416 C   0  0  0  0  0  0
  -30.3320  -20.6997   19.2425 N   0  0  0  0  0  0
  -29.7891  -23.0637   19.2266 N   0  0  0  0  0  0
  -29.8110  -16.3693   20.5678 N   0  0  0  0  0  0
  -27.6266  -21.3087   21.6218 N   0  0  0  0  0  0
  -31.4721  -12.8401   19.2255 H   0  0  0  0  0  0
  -30.4256  -11.7587   20.0967 H   0  0  0  0  0  0
  -29.8907  -11.7509   17.6330 H   0  0  0  0  0  0
  -29.6074  -13.4753   17.6829 H   0  0  0  0  0  0
  -27.9888  -11.2817   19.0078 H   0  0  0  0  0  0
  -27.4149  -12.4257   17.8184 H   0  0  0  0  0  0
  -27.5545  -14.2533   19.3634 H   0  0  0  0  0  0
  -28.7801  -12.4217   21.4722 H   0  0  0  0  0  0
  -28.3303  -14.0980   21.7175 H   0  0  0  0  0  0
  -25.2811   -9.5687   22.4752 H   0  0  0  0  0  0
  -24.0022   -7.4641   22.7456 H   0  0  0  0  0  0
  -21.0876   -8.8766   19.8937 H   0  0  0  0  0  0
  -22.3726  -10.9664   19.6125 H   0  0  0  0  0  0
  -21.2006   -7.6137   23.9708 H   0  0  0  0  0  0
  -21.1506   -6.0518   25.9082 H   0  0  0  0  0  0
  -22.0588   -2.7594   23.2845 H   0  0  0  0  0  0
  -22.4102  -11.9925   22.4882 H   0  0  0  0  0  0
  -21.1035  -13.1158   22.2505 H   0  0  0  0  0  0
  -24.6542  -15.8570   20.5358 H   0  0  0  0  0  0
  -26.2785  -15.6368   20.1247 H   0  0  0  0  0  0
  -26.7337  -32.5223   23.0932 H   0  0  0  0  0  0
  -25.0093  -33.9557   25.0255 H   0  0  0  0  0  0
  -22.7764  -31.2748   21.3608 H   0  0  0  0  0  0
  -23.3788  -35.9535   23.3267 H   0  0  0  0  0  0
  -24.3577  -36.8899   22.2058 H   0  0  0  0  0  0
  -23.7238  -37.6409   23.6694 H   0  0  0  0  0  0
  -26.1979  -31.4112   20.6132 H   0  0  0  0  0  0
  -26.8955  -30.7265   22.0409 H   0  0  0  0  0  0
  -28.1598  -28.6876   21.2472 H   0  0  0  0  0  0
  -25.9052  -25.7921   18.9904 H   0  0  0  0  0  0
  -23.9999  -27.2722   18.9721 H   0  0  0  0  0  0
  -23.8540  -30.5341   19.3920 H   0  0  0  0  0  0
  -22.8150  -29.2148   19.8349 H   0  0  0  0  0  0
  -25.1349  -36.1828   25.0793 H   0  0  0  0  0  0
  -21.0039  -28.3366   24.1313 H   0  0  0  0  0  0
  -20.5735  -26.2371   23.3626 H   0  0  0  0  0  0
  -21.6672  -26.7469   22.1174 H   0  0  0  0  0  0
  -19.6961  -25.6289   21.1263 H   0  0  0  0  0  0
  -19.6734  -27.3184   20.6738 H   0  0  0  0  0  0
  -17.4242  -26.6674   21.4014 H   0  0  0  0  0  0
  -18.0368  -26.0109   22.9027 H   0  0  0  0  0  0
  -19.7952  -30.7323   24.2203 H   0  0  0  0  0  0
  -17.5020  -31.6278   24.5173 H   0  0  0  0  0  0
  -15.5361  -30.2976   23.7693 H   0  0  0  0  0  0
  -15.8691  -28.0823   22.7078 H   0  0  0  0  0  0
  -24.5950  -30.7019   25.7601 H   0  0  0  0  0  0
  -24.8867  -32.2879   26.4664 H   0  0  0  0  0  0
  -25.7969  -30.8920   27.0160 H   0  0  0  0  0  0
  -26.3067  -29.6579   24.1357 H   0  0  0  0  0  0
  -27.4052  -29.7238   25.4920 H   0  0  0  0  0  0
  -27.8980  -30.4100   23.9649 H   0  0  0  0  0  0
  -27.2736  -33.3607   26.1972 H   0  0  0  0  0  0
  -28.3967  -32.6731   25.0321 H   0  0  0  0  0  0
  -28.0708  -31.8416   26.5448 H   0  0  0  0  0  0
  -28.2582  -38.0097   24.7540 H   0  0  0  0  0  0
  -28.1113  -36.2630   24.6269 H   0  0  0  0  0  0
  -27.2288  -37.1384   25.8857 H   0  0  0  0  0  0
  -20.9546  -29.8729   21.6676 H   0  0  0  0  0  0
  -26.0170  -38.2784   24.1402 H   0  0  0  0  0  0
  -29.9886  -17.4775   18.6701 H   0  0  0  0  0  0
  -28.3035  -17.1734   19.1432 H   0  0  0  0  0  0
  -30.3830  -17.7062   22.2488 H   0  0  0  0  0  0
  -31.4256  -17.8574   20.8200 H   0  0  0  0  0  0
  -28.4456  -18.5811   21.0970 H   0  0  0  0  0  0
  -32.0051  -21.2863   17.4638 H   0  0  0  0  0  0
  -32.3780  -22.8199   18.2488 H   0  0  0  0  0  0
  -31.1805  -22.7540   16.9590 H   0  0  0  0  0  0
  -27.6418  -24.3392   21.4964 H   0  0  0  0  0  0
  -26.9733  -24.2022   19.9284 H   0  0  0  0  0  0
  -27.6708  -20.4536   22.1728 H   0  0  0  0  0  0
  -27.2809  -22.0933   22.1693 H   0  0  0  0  0  0
  1 25  1  0  0  0
  1 30  2  0  0  0
  1 82  1  0  0  0
  2  3  1  0  0  0
  2 25  1  0  0  0
  2 84  1  0  0  0
  2 85  1  0  0  0
  3  4  1  0  0  0
  3 86  1  0  0  0
  3 87  1  0  0  0
  4  5  1  0  0  0
  4 88  1  0  0  0
  4 89  1  0  0  0
  5  6  1  0  0  0
  5 26  1  0  0  0
  5 90  1  0  0  0
  6 25  1  0  0  0
  6 91  1  0  0  0
  6 92  1  0  0  0
  7  8  2  0  0  0
  7 26  1  0  0  0
  7 29  1  0  0  0
  8  9  1  0  0  0
  8 22  1  0  0  0
  9 10  1  0  0  0
  9 27  2  0  0  0
 10 11  2  0  0  0
 10 15  1  0  0  0
 11 12  1  0  0  0
 11 93  1  0  0  0
 12 13  2  0  0  0
 12 94  1  0  0  0
 13 14  1  0  0  0
 13 31  1  0  0  0
 14 15  2  0  0  0
 14 95  1  0  0  0
 15 96  1  0  0  0
 16 17  2  0  0  0
 16 21  1  0  0  0
 16 31  1  0  0  0
 17 18  1  0  0  0
 17 97  1  0  0  0
 18 19  2  0  0  0
 18 98  1  0  0  0
 19 20  1  0  0  0
 19 24  1  0  0  0
 20 21  2  0  0  0
 20 99  1  0  0  0
 21 23  1  0  0  0
 22 28  1  0  0  0
 22 32  2  0  0  0
 26 27  1  0  0  0
 28100  1  0  0  0
 28101  1  0  0  0
 29102  1  0  0  0
 29103  1  0  0  0
 33 34  1  0  0  0
 33 66  1  0  0  0
 33 70  2  0  0  0
 34 36  1  0  0  0
 34 59  1  0  0  0
 34104  1  0  0  0
 35 44  2  0  0  0
 35 45  1  0  0  0
 35 68  1  0  0  0
 36 56  1  0  0  0
 36105  1  0  0  0
 37 39  1  0  0  0
 37 47  1  0  0  0
 37 66  1  0  0  0
 37106  1  0  0  0
 38 43  2  0  0  0
 38 46  1  0  0  0
 38 47  1  0  0  0
 39 64  1  0  0  0
 39 67  2  0  0  0
 40 52  1  0  0  0
 40 53  2  0  0  0
 40 58  1  0  0  0
 41107  1  0  0  0
 41108  1  0  0  0
 41109  1  0  0  0
 41 48  1  0  0  0
 42 43  1  0  0  0
 42 66  1  0  0  0
 42110  1  0  0  0
 42111  1  0  0  0
 43 44  1  0  0  0
 44112  1  0  0  0
 45 46  2  0  0  0
 45113  1  0  0  0
 46114  1  0  0  0
 47115  1  0  0  0
 47116  1  0  0  0
 48 56  1  0  0  0
 48 65  1  0  0  0
 48117  1  0  0  0
 49 50  1  0  0  0
 49 53  1  0  0  0
 49 64  1  0  0  0
 49118  1  0  0  0
 50 51  1  0  0  0
 50119  1  0  0  0
 50120  1  0  0  0
 51 52  1  0  0  0
 51121  1  0  0  0
 51122  1  0  0  0
 52123  1  0  0  0
 52124  1  0  0  0
 53 54  1  0  0  0
 54 55  2  0  0  0
 54125  1  0  0  0
 55 57  1  0  0  0
 55126  1  0  0  0
 56 69  2  0  0  0
 57 58  2  0  0  0
 57127  1  0  0  0
 58128  1  0  0  0
 59 60  1  0  0  0
 59 61  1  0  0  0
 59 62  1  0  0  0
 60129  1  0  0  0
 60130  1  0  0  0
 60131  1  0  0  0
 61132  1  0  0  0
 61133  1  0  0  0
 61134  1  0  0  0
 62135  1  0  0  0
 62136  1  0  0  0
 62137  1  0  0  0
 63 65  1  0  0  0
 63138  1  0  0  0
 63139  1  0  0  0
 63140  1  0  0  0
 64141  1  0  0  0
 65142  1  0  0  0
 68 79  1  0  0  0
 71 72  2  0  0  0
 71 73  1  0  0  0
 71 83  1  0  0  0
 72 80  1  0  0  0
 72 77  1  0  0  0
 73 79  1  0  0  0
 73 81  2  0  0  0
 74 78  1  0  0  0
 74 80  2  0  0  0
 74 81  1  0  0  0
 75 77  1  0  0  0
 75 82  1  0  0  0
 75143  1  0  0  0
 75144  1  0  0  0
 76 77  1  0  0  0
 76 82  1  0  0  0
 76145  1  0  0  0
 76146  1  0  0  0
 77147  1  0  0  0
 78148  1  0  0  0
 78149  1  0  0  0
 78150  1  0  0  0
 79151  1  0  0  0
 79152  1  0  0  0
 83153  1  0  0  0
 83154  1  0  0  0
M  ISO  4   1 100  68 101  79 101  82 100
M  END
> <chiral flag>
0

> <version>
0

> <s_m_source_file>
/data/baiqing/PycharmProjects/Reinvent-master-3.2/result/LINK_invent/BTK/process_docking_weight1_custom_sum_contain_oxygen_bond_distance_aromatic_linkinvent_7_9_3/rearranged_h_0184.sdf

> <i_m_source_file_index>
45

> <r_mmod_Potential_Energy-OPLS-2005>
611.815368652344

> <r_mmod_Stretch_Energy-OPLS-2005>
384.906219482422

> <r_mmod_Bend_Energy-OPLS-2005>
337.413848876953

> <r_mmod_Torsional_Energy-OPLS-2005>
268.072906494141

> <r_mmod_Improper_Torsional_Energy-OPLS-2005>
12.8136672973633

> <r_mmod_Van_der_Waal_Energy-OPLS-2005>
131.14128112793

> <r_mmod_Electrostatic_Energy-OPLS-2005>
-587.620239257812

> <r_mmod_Solvation_Energy-OPLS-2005>
-248.296112060547

> <b_mmod_Minimization_Converged-OPLS-2005>
0

> <r_mmod_RMS_Derivative-OPLS-2005>
3.0411958694458

$$$$
45
                    3D
 Structure written by MMmdl.
154163  0  0  1  0            999 V2000
  -30.4707  -15.2865   20.3717 C   0  0  0  0  0  0
  -30.4228  -12.8298   19.5243 C   0  0  0  0  0  0
  -29.5292  -12.5902   18.2837 C   0  0  0  0  0  0
  -28.0790  -12.3100   18.7104 C   0  0  0  0  0  0
  -27.6044  -13.2833   19.8193 C   0  0  2  0  0  0
  -28.6364  -13.4898   20.9481 C   0  0  0  0  0  0
  -25.2370  -13.8268   20.5782 C   0  0  0  0  0  0
  -24.1731  -13.0442   20.9265 C   0  0  0  0  0  0
  -24.6390  -11.6949   20.8754 C   0  0  0  0  0  0
  -23.9085  -10.4304   21.0392 C   0  0  0  0  0  0
  -24.3637   -9.4220   21.9183 C   0  0  0  0  0  0
  -23.6317   -8.2253   22.0750 C   0  0  0  0  0  0
  -22.4296   -8.0289   21.3541 C   0  0  0  0  0  0
  -21.9931   -9.0257   20.4634 C   0  0  0  0  0  0
  -22.7252  -10.2144   20.3034 C   0  0  0  0  0  0
  -21.6857   -6.0749   22.5290 C   0  0  0  0  0  0
  -21.4020   -6.5646   23.8226 C   0  0  0  0  0  0
  -21.3668   -5.6795   24.9187 C   0  0  0  0  0  0
  -21.6044   -4.3053   24.7230 C   0  0  0  0  0  0
  -21.8821   -3.8153   23.4347 C   0  0  0  0  0  0
  -21.9194   -4.6979   22.3411 C   0  0  0  0  0  0
  -22.7753  -13.5189   21.1921 C   0  0  0  0  0  0
  -22.1651   -4.2170   21.0985 F   0  0  0  0  0  0
  -21.5642   -3.4528   25.7736 F   0  0  0  0  0  0
  -29.8603  -13.9972   20.3065 N   0  0  0  0  0  0
  -26.2783  -12.9554   20.3223 N   0  0  0  0  0  0
  -25.9329  -11.6653   20.5722 N   0  0  0  0  0  0
  -22.0393  -12.8167   22.0463 N   0  0  0  0  0  0
  -25.4031  -15.2020   20.4320 N   0  0  0  0  0  0
  -31.6995  -15.2064   20.2182 O   0  0  0  0  0  0
  -21.6652   -6.8888   21.4245 O   0  0  0  0  0  0
  -22.3441  -14.5496   20.6761 O   0  0  0  0  0  0
  -24.6641  -31.8230   23.1681 C   0  0  0  0  0  0
  -25.9324  -32.4582   23.8157 C   0  0  1  0  0  0
  -27.2217  -26.9122   20.1979 C   0  0  0  0  0  0
  -25.5999  -33.8399   24.2074 N   0  0  0  0  0  0
  -23.4805  -30.4317   21.5170 C   0  0  2  0  0  0
  -24.9342  -28.8094   20.1185 C   0  0  0  0  0  0
  -22.7677  -29.4440   22.4774 C   0  0  0  0  0  0
  -18.0329  -28.1421   22.8462 C   0  0  0  0  0  0
  -24.1500  -36.7196   23.2647 C   0  0  0  0  0  0
  -26.0496  -30.6248   21.3992 C   0  0  0  0  0  0
  -26.1177  -29.2110   20.7484 C   0  0  0  0  0  0
  -27.2586  -28.2859   20.7565 C   0  0  0  0  0  0
  -26.0061  -26.6608   19.5252 C   0  0  0  0  0  0
  -24.9037  -27.5552   19.4856 C   0  0  0  0  0  0
  -23.7219  -29.7417   20.1458 C   0  0  0  0  0  0
  -25.4141  -36.2957   24.0296 C   0  0  1  0  0  0
  -20.5955  -28.3771   23.1187 C   0  0  2  0  0  0
  -20.6804  -26.9448   22.5401 C   0  0  0  0  0  0
  -19.5779  -26.6379   21.5220 C   0  0  0  0  0  0
  -18.1960  -26.7952   22.1621 C   0  0  0  0  0  0
  -19.1587  -28.8916   23.2811 C   0  0  0  0  0  0
  -18.9494  -30.1502   23.8849 C   0  0  0  0  0  0
  -17.6484  -30.6605   24.0558 C   0  0  0  0  0  0
  -25.9109  -34.9346   23.5008 C   0  0  0  0  0  0
  -16.5379  -29.9089   23.6342 C   0  0  0  0  0  0
  -16.7309  -28.6513   23.0356 C   0  0  0  0  0  0
  -26.4567  -31.6534   25.0693 C   0  0  0  0  0  0
  -25.3689  -31.3780   26.1345 C   0  0  0  0  0  0
  -27.0470  -30.2902   24.6441 C   0  0  0  0  0  0
  -27.6066  -32.4332   25.7498 C   0  0  0  0  0  0
  -27.5576  -37.1754   24.8460 C   0  0  0  0  0  0
  -21.4347  -29.3056   22.3525 N   0  0  0  0  0  0
  -26.4277  -37.3698   23.9411 N   0  0  0  0  0  0
  -24.7531  -30.9879   22.0818 N   0  0  0  0  0  0
  -23.4208  -28.8021   23.3037 O   0  0  0  0  0  0
  -28.2425  -25.8200   20.2378 O   0  0  0  0  0  0
  -26.5710  -34.8886   22.4592 O   0  0  0  0  0  0
  -23.5712  -32.1202   23.6779 O   0  0  0  0  0  0
  -28.1207  -22.8986   19.3735 C   0  0  0  0  0  0
  -29.0965  -23.0901   21.0956 C   0  0  0  0  0  0
  -28.9740  -17.4323   19.4980 C   0  0  0  0  0  0
  -30.5845  -17.8905   21.0442 C   0  0  0  0  0  0
  -28.3441  -18.9889   19.7269 C   0  0  0  0  0  0
  -29.9418  -19.4308   21.3007 C   0  0  0  0  0  0
  -28.4542  -21.7076   20.4742 C   0  0  2  0  0  0
  -28.0433  -24.1789   20.4193 C   0  0  1  0  0  0
  -29.8365  -16.6429   20.5069 N   0  0  0  0  0  0
  -29.1861  -20.2044   20.2005 N   0  3  0  0  0  0
  -31.4468  -13.0159   19.1972 H   0  0  0  0  0  0
  -30.4783  -11.9313   20.1414 H   0  0  0  0  0  0
  -29.9126  -11.7614   17.6866 H   0  0  0  0  0  0
  -29.5578  -13.4740   17.6430 H   0  0  0  0  0  0
  -28.0338  -11.2828   19.0744 H   0  0  0  0  0  0
  -27.4119  -12.3542   17.8478 H   0  0  0  0  0  0
  -27.5066  -14.2450   19.3145 H   0  0  0  0  0  0
  -28.8157  -12.5676   21.5048 H   0  0  0  0  0  0
  -28.2734  -14.2249   21.6683 H   0  0  0  0  0  0
  -25.2769   -9.5707   22.4775 H   0  0  0  0  0  0
  -24.0031   -7.4638   22.7457 H   0  0  0  0  0  0
  -21.0870   -8.8751   19.8931 H   0  0  0  0  0  0
  -22.3688  -10.9684   19.6147 H   0  0  0  0  0  0
  -21.1991   -7.6150   23.9737 H   0  0  0  0  0  0
  -21.1497   -6.0520   25.9094 H   0  0  0  0  0  0
  -22.0586   -2.7614   23.2836 H   0  0  0  0  0  0
  -22.3988  -11.9816   22.4851 H   0  0  0  0  0  0
  -21.0997  -13.1175   22.2636 H   0  0  0  0  0  0
  -24.6422  -15.8566   20.5782 H   0  0  0  0  0  0
  -26.2675  -15.6511   20.1597 H   0  0  0  0  0  0
  -26.7401  -32.5112   23.0880 H   0  0  0  0  0  0
  -25.0107  -33.9473   25.0206 H   0  0  0  0  0  0
  -22.7956  -31.2638   21.3421 H   0  0  0  0  0  0
  -23.3779  -35.9508   23.3261 H   0  0  0  0  0  0
  -24.3581  -36.8886   22.2069 H   0  0  0  0  0  0
  -23.7238  -37.6363   23.6733 H   0  0  0  0  0  0
  -26.2306  -31.3647   20.6182 H   0  0  0  0  0  0
  -26.9091  -30.6836   22.0547 H   0  0  0  0  0  0
  -28.1581  -28.5971   21.2676 H   0  0  0  0  0  0
  -25.8851  -25.7011   19.0424 H   0  0  0  0  0  0
  -24.0045  -27.2412   18.9753 H   0  0  0  0  0  0
  -23.8829  -30.5069   19.3861 H   0  0  0  0  0  0
  -22.8310  -29.1981   19.8257 H   0  0  0  0  0  0
  -25.1344  -36.1740   25.0785 H   0  0  0  0  0  0
  -21.0049  -28.3374   24.1313 H   0  0  0  0  0  0
  -20.5693  -26.2389   23.3644 H   0  0  0  0  0  0
  -21.6664  -26.7425   22.1204 H   0  0  0  0  0  0
  -19.6935  -25.6276   21.1285 H   0  0  0  0  0  0
  -19.6721  -27.3159   20.6726 H   0  0  0  0  0  0
  -17.4231  -26.6707   21.4017 H   0  0  0  0  0  0
  -18.0350  -26.0106   22.9029 H   0  0  0  0  0  0
  -19.7968  -30.7336   24.2195 H   0  0  0  0  0  0
  -17.5033  -31.6278   24.5170 H   0  0  0  0  0  0
  -15.5377  -30.2968   23.7701 H   0  0  0  0  0  0
  -15.8712  -28.0815   22.7092 H   0  0  0  0  0  0
  -24.5896  -30.7108   25.7648 H   0  0  0  0  0  0
  -24.8853  -32.2976   26.4645 H   0  0  0  0  0  0
  -25.7914  -30.9024   27.0207 H   0  0  0  0  0  0
  -26.3147  -29.6558   24.1436 H   0  0  0  0  0  0
  -27.3991  -29.7281   25.5106 H   0  0  0  0  0  0
  -27.9094  -30.4087   23.9876 H   0  0  0  0  0  0
  -27.2657  -33.3679   26.1961 H   0  0  0  0  0  0
  -28.3948  -32.6807   25.0376 H   0  0  0  0  0  0
  -28.0664  -31.8524   26.5506 H   0  0  0  0  0  0
  -28.2548  -38.0092   24.7535 H   0  0  0  0  0  0
  -28.1114  -36.2616   24.6249 H   0  0  0  0  0  0
  -27.2292  -37.1348   25.8860 H   0  0  0  0  0  0
  -20.9610  -29.8725   21.6632 H   0  0  0  0  0  0
  -26.0115  -38.2750   24.1427 H   0  0  0  0  0  0
  -27.1855  -22.7327   18.8392 H   0  0  0  0  0  0
  -28.9222  -23.0196   18.6404 H   0  0  0  0  0  0
  -30.1245  -23.2526   20.7610 H   0  0  0  0  0  0
  -29.0834  -23.1109   22.1851 H   0  0  0  0  0  0
  -29.5694  -17.4705   18.5825 H   0  0  0  0  0  0
  -28.1380  -16.7816   19.2411 H   0  0  0  0  0  0
  -31.0242  -17.5782   21.9921 H   0  0  0  0  0  0
  -31.4451  -18.0202   20.3840 H   0  0  0  0  0  0
  -27.5300  -18.8922   20.4482 H   0  0  0  0  0  0
  -27.8501  -19.2883   18.8029 H   0  0  0  0  0  0
  -30.7515  -20.0809   21.6335 H   0  0  0  0  0  0
  -29.2732  -19.3665   22.1595 H   0  0  0  0  0  0
  -27.5444  -21.4872   21.0351 H   0  0  0  0  0  0
  -27.1025  -24.0902   20.9622 H   0  0  0  0  0  0
  -29.8676  -20.3714   19.4758 H   0  0  0  0  0  0
  1 25  1  0  0  0
  1 30  2  0  0  0
  1 79  1  0  0  0
  2  3  1  0  0  0
  2 25  1  0  0  0
  2 81  1  0  0  0
  2 82  1  0  0  0
  3  4  1  0  0  0
  3 83  1  0  0  0
  3 84  1  0  0  0
  4  5  1  0  0  0
  4 85  1  0  0  0
  4 86  1  0  0  0
  5  6  1  0  0  0
  5 26  1  0  0  0
  5 87  1  0  0  0
  6 25  1  0  0  0
  6 88  1  0  0  0
  6 89  1  0  0  0
  7  8  2  0  0  0
  7 26  1  0  0  0
  7 29  1  0  0  0
  8  9  1  0  0  0
  8 22  1  0  0  0
  9 10  1  0  0  0
  9 27  2  0  0  0
 10 11  2  0  0  0
 10 15  1  0  0  0
 11 12  1  0  0  0
 11 90  1  0  0  0
 12 13  2  0  0  0
 12 91  1  0  0  0
 13 14  1  0  0  0
 13 31  1  0  0  0
 14 15  2  0  0  0
 14 92  1  0  0  0
 15 93  1  0  0  0
 16 17  2  0  0  0
 16 21  1  0  0  0
 16 31  1  0  0  0
 17 18  1  0  0  0
 17 94  1  0  0  0
 18 19  2  0  0  0
 18 95  1  0  0  0
 19 20  1  0  0  0
 19 24  1  0  0  0
 20 21  2  0  0  0
 20 96  1  0  0  0
 21 23  1  0  0  0
 22 28  1  0  0  0
 22 32  2  0  0  0
 26 27  1  0  0  0
 28 97  1  0  0  0
 28 98  1  0  0  0
 29 99  1  0  0  0
 29100  1  0  0  0
 33 34  1  0  0  0
 33 66  1  0  0  0
 33 70  2  0  0  0
 34 36  1  0  0  0
 34 59  1  0  0  0
 34101  1  0  0  0
 35 44  2  0  0  0
 35 45  1  0  0  0
 35 68  1  0  0  0
 36 56  1  0  0  0
 36102  1  0  0  0
 37 39  1  0  0  0
 37 47  1  0  0  0
 37 66  1  0  0  0
 37103  1  0  0  0
 38 43  2  0  0  0
 38 46  1  0  0  0
 38 47  1  0  0  0
 39 64  1  0  0  0
 39 67  2  0  0  0
 40 52  1  0  0  0
 40 53  2  0  0  0
 40 58  1  0  0  0
 41104  1  0  0  0
 41105  1  0  0  0
 41106  1  0  0  0
 41 48  1  0  0  0
 42 43  1  0  0  0
 42 66  1  0  0  0
 42107  1  0  0  0
 42108  1  0  0  0
 43 44  1  0  0  0
 44109  1  0  0  0
 45 46  2  0  0  0
 45110  1  0  0  0
 46111  1  0  0  0
 47112  1  0  0  0
 47113  1  0  0  0
 48 56  1  0  0  0
 48 65  1  0  0  0
 48114  1  0  0  0
 49 50  1  0  0  0
 49 53  1  0  0  0
 49 64  1  0  0  0
 49115  1  0  0  0
 50 51  1  0  0  0
 50116  1  0  0  0
 50117  1  0  0  0
 51 52  1  0  0  0
 51118  1  0  0  0
 51119  1  0  0  0
 52120  1  0  0  0
 52121  1  0  0  0
 53 54  1  0  0  0
 54 55  2  0  0  0
 54122  1  0  0  0
 55 57  1  0  0  0
 55123  1  0  0  0
 56 69  2  0  0  0
 57 58  2  0  0  0
 57124  1  0  0  0
 58125  1  0  0  0
 59 60  1  0  0  0
 59 61  1  0  0  0
 59 62  1  0  0  0
 60126  1  0  0  0
 60127  1  0  0  0
 60128  1  0  0  0
 61129  1  0  0  0
 61130  1  0  0  0
 61131  1  0  0  0
 62132  1  0  0  0
 62133  1  0  0  0
 62134  1  0  0  0
 63 65  1  0  0  0
 63135  1  0  0  0
 63136  1  0  0  0
 63137  1  0  0  0
 64138  1  0  0  0
 65139  1  0  0  0
 68 78  1  0  0  0
 71 78  1  0  0  0
 71140  1  0  0  0
 71141  1  0  0  0
 71 77  1  0  0  0
 72 77  1  0  0  0
 72 78  1  0  0  0
 72142  1  0  0  0
 72143  1  0  0  0
 73 75  1  0  0  0
 73 79  1  0  0  0
 73144  1  0  0  0
 73145  1  0  0  0
 74 76  1  0  0  0
 74 79  1  0  0  0
 74146  1  0  0  0
 74147  1  0  0  0
 75148  1  0  0  0
 75149  1  0  0  0
 75 80  1  0  0  0
 76 80  1  0  0  0
 76150  1  0  0  0
 76151  1  0  0  0
 77 80  1  0  0  0
 77152  1  0  0  0
 78153  1  0  0  0
 80154  1  0  0  0
M  CHG  1  80   1
M  ISO  4   1 100  68 101  78 101  79 100
M  END
> <chiral flag>
0

> <version>
0

> <s_m_source_file>
/data/baiqing/PycharmProjects/Reinvent-master-3.2/result/LINK_invent/BTK/process_docking_weight1_custom_sum_contain_oxygen_bond_distance_aromatic_linkinvent_7_9_3/rearranged_h_0184.sdf

> <i_m_source_file_index>
46

> <r_mmod_Potential_Energy-OPLS-2005>
1395.25659179688

> <r_mmod_Stretch_Energy-OPLS-2005>
511.579772949219

> <r_mmod_Bend_Energy-OPLS-2005>
560.447387695312

> <r_mmod_Torsional_Energy-OPLS-2005>
397.709442138672

> <r_mmod_Improper_Torsional_Energy-OPLS-2005>
6.13700723648071

> <r_mmod_Van_der_Waal_Energy-OPLS-2005>
114.300033569336

> <r_mmod_Electrostatic_Energy-OPLS-2005>
-198.208755493164

> <r_mmod_Solvation_Energy-OPLS-2005>
-469.849365234375

> <b_mmod_Minimization_Converged-OPLS-2005>
0

> <r_mmod_RMS_Derivative-OPLS-2005>
2.03610014915466

$$$$
46
                    3D
 Structure written by MMmdl.
173182  0  0  1  0            999 V2000
  -30.7252  -14.4697   20.4882 C   0  0  0  0  0  0
  -30.4137  -12.2791   19.4224 C   0  0  0  0  0  0
  -29.4868  -12.4491   18.2032 C   0  0  0  0  0  0
  -28.0062  -12.3354   18.6227 C   0  0  0  0  0  0
  -27.6491  -13.1914   19.8692 C   0  0  2  0  0  0
  -28.7077  -13.0372   20.9864 C   0  0  0  0  0  0
  -25.2568  -13.8104   20.5722 C   0  0  0  0  0  0
  -24.1805  -13.0394   20.9179 C   0  0  0  0  0  0
  -24.6356  -11.6868   20.8766 C   0  0  0  0  0  0
  -23.9020  -10.4278   21.0424 C   0  0  0  0  0  0
  -24.3593   -9.4202   21.9193 C   0  0  0  0  0  0
  -23.6286   -8.2231   22.0752 C   0  0  0  0  0  0
  -22.4268   -8.0269   21.3541 C   0  0  0  0  0  0
  -21.9896   -9.0237   20.4648 C   0  0  0  0  0  0
  -22.7205  -10.2128   20.3066 C   0  0  0  0  0  0
  -21.6841   -6.0737   22.5280 C   0  0  0  0  0  0
  -21.4013   -6.5639   23.8213 C   0  0  0  0  0  0
  -21.3648   -5.6790   24.9176 C   0  0  0  0  0  0
  -21.6049   -4.3052   24.7230 C   0  0  0  0  0  0
  -21.8826   -3.8151   23.4349 C   0  0  0  0  0  0
  -21.9186   -4.6968   22.3406 C   0  0  0  0  0  0
  -22.7838  -13.5207   21.1827 C   0  0  0  0  0  0
  -22.1636   -4.2152   21.0982 F   0  0  0  0  0  0
  -21.5640   -3.4533   25.7739 F   0  0  0  0  0  0
  -30.0312  -13.3036   20.4013 N   0  0  0  0  0  0
  -26.2976  -12.9224   20.3435 N   0  0  0  0  0  0
  -25.9282  -11.6409   20.5851 N   0  0  0  0  0  0
  -22.0505  -12.8215   22.0418 N   0  0  0  0  0  0
  -25.4299  -15.1828   20.4151 N   0  0  0  0  0  0
  -31.9167  -14.5705   20.1846 O   0  0  0  0  0  0
  -21.6630   -6.8877   21.4239 O   0  0  0  0  0  0
  -22.3517  -14.5491   20.6647 O   0  0  0  0  0  0
  -24.6100  -31.8709   23.2135 C   0  0  0  0  0  0
  -25.9011  -32.4840   23.8417 C   0  0  1  0  0  0
  -27.2398  -27.4792   20.0792 C   0  0  0  0  0  0
  -25.5882  -33.8638   24.2347 N   0  0  0  0  0  0
  -23.3960  -30.4936   21.5526 C   0  0  2  0  0  0
  -24.8433  -28.9627   20.1153 C   0  0  0  0  0  0
  -22.7383  -29.4667   22.5013 C   0  0  0  0  0  0
  -18.0266  -28.1370   22.8497 C   0  0  0  0  0  0
  -24.1486  -36.7325   23.2637 C   0  0  0  0  0  0
  -25.9199  -30.8457   21.3627 C   0  0  0  0  0  0
  -25.9977  -29.4808   20.7156 C   0  0  0  0  0  0
  -27.1957  -28.7383   20.7093 C   0  0  0  0  0  0
  -26.0693  -26.9580   19.4868 C   0  0  0  0  0  0
  -24.8703  -27.6958   19.5049 C   0  0  0  0  0  0
  -23.6031  -29.8248   20.1664 C   0  0  0  0  0  0
  -25.4104  -36.3125   24.0342 C   0  0  1  0  0  0
  -20.5850  -28.3650   23.1334 C   0  0  2  0  0  0
  -20.6755  -26.9392   22.5423 C   0  0  0  0  0  0
  -19.5737  -26.6384   21.5213 C   0  0  0  0  0  0
  -18.1914  -26.7920   22.1623 C   0  0  0  0  0  0
  -19.1513  -28.8827   23.2913 C   0  0  0  0  0  0
  -18.9444  -30.1435   23.8922 C   0  0  0  0  0  0
  -17.6447  -30.6581   24.0566 C   0  0  0  0  0  0
  -25.9026  -34.9488   23.5141 C   0  0  0  0  0  0
  -16.5338  -29.9086   23.6320 C   0  0  0  0  0  0
  -16.7257  -28.6499   23.0348 C   0  0  0  0  0  0
  -26.4457  -31.6606   25.0727 C   0  0  0  0  0  0
  -25.3742  -31.3693   26.1486 C   0  0  0  0  0  0
  -27.0280  -30.3059   24.6065 C   0  0  0  0  0  0
  -27.6043  -32.4317   25.7480 C   0  0  0  0  0  0
  -27.5583  -37.1813   24.8463 C   0  0  0  0  0  0
  -21.4117  -29.3027   22.3751 N   0  0  0  0  0  0
  -26.4295  -37.3803   23.9410 N   0  0  0  0  0  0
  -24.6596  -31.0840   22.1019 N   0  0  0  0  0  0
  -23.4175  -28.8212   23.3041 O   0  0  0  0  0  0
  -28.4150  -26.7739   20.0816 O   0  0  0  0  0  0
  -26.5589  -34.8928   22.4702 O   0  0  0  0  0  0
  -23.5304  -32.1445   23.7550 O   0  0  0  0  0  0
  -31.1179  -19.5078   19.0397 C   0  0  0  0  0  0
  -30.4263  -18.0654   21.0768 C   0  0  0  0  0  0
  -30.3938  -17.1267   18.7175 C   0  0  0  0  0  0
  -32.9920  -22.9260   16.2142 C   0  0  0  0  0  0
  -30.3765  -16.6159   21.6389 C   0  0  0  0  0  0
  -29.4090  -16.1759   19.4195 C   0  0  0  0  0  0
  -33.0122  -24.3616   16.7347 C   0  0  0  0  0  0
  -31.7648  -22.9932   18.2581 C   0  0  0  0  0  0
  -31.0927  -18.1111   19.6827 C   0  0  0  0  0  0
  -32.7177  -22.0891   17.4614 C   0  0  1  0  0  0
  -32.1544  -20.6985   17.1130 C   0  0  0  0  0  0
  -30.1792  -25.5679   19.0231 C   0  0  0  0  0  0
  -30.9218  -25.2764   17.7079 C   0  0  0  0  0  0
  -28.9037  -26.3893   18.8047 C   0  0  0  0  0  0
  -29.9805  -15.5903   20.6456 N   0  0  0  0  0  0
  -32.1516  -19.7527   18.2257 N   0  0  0  0  0  0
  -32.1017  -24.3964   17.9029 N   0  3  2  0  0  0
  -30.1849  -20.2975   19.1917 O   0  0  0  0  0  0
  -31.4582  -12.3584   19.1158 H   0  0  0  0  0  0
  -30.3034  -11.2844   19.8571 H   0  0  0  0  0  0
  -29.7126  -11.6890   17.4538 H   0  0  0  0  0  0
  -29.6734  -13.4071   17.7173 H   0  0  0  0  0  0
  -27.8101  -11.2822   18.8303 H   0  0  0  0  0  0
  -27.3585  -12.6013   17.7863 H   0  0  0  0  0  0
  -27.6432  -14.2245   19.5456 H   0  0  0  0  0  0
  -28.6847  -12.0277   21.3991 H   0  0  0  0  0  0
  -28.4965  -13.7125   21.8175 H   0  0  0  0  0  0
  -25.2752   -9.5680   22.4747 H   0  0  0  0  0  0
  -24.0018   -7.4620   22.7451 H   0  0  0  0  0  0
  -21.0831   -8.8743   19.8951 H   0  0  0  0  0  0
  -22.3661  -10.9663   19.6171 H   0  0  0  0  0  0
  -21.2005   -7.6148   23.9709 H   0  0  0  0  0  0
  -21.1443   -6.0525   25.9071 H   0  0  0  0  0  0
  -22.0622   -2.7617   23.2841 H   0  0  0  0  0  0
  -22.4122  -11.9858   22.4770 H   0  0  0  0  0  0
  -21.1131  -13.1249   22.2644 H   0  0  0  0  0  0
  -24.6676  -15.8417   20.5278 H   0  0  0  0  0  0
  -26.3010  -15.6277   20.1563 H   0  0  0  0  0  0
  -26.7083  -32.5568   23.1187 H   0  0  0  0  0  0
  -25.0042  -33.9809   25.0497 H   0  0  0  0  0  0
  -22.6831  -31.3092   21.4149 H   0  0  0  0  0  0
  -23.3744  -35.9661   23.3308 H   0  0  0  0  0  0
  -24.3584  -36.8928   22.2050 H   0  0  0  0  0  0
  -23.7239  -37.6534   23.6642 H   0  0  0  0  0  0
  -26.0257  -31.6105   20.5919 H   0  0  0  0  0  0
  -26.8111  -30.9034   21.9761 H   0  0  0  0  0  0
  -28.0889  -29.1340   21.1723 H   0  0  0  0  0  0
  -26.0749  -25.9823   19.0225 H   0  0  0  0  0  0
  -23.9796  -27.2870   19.0478 H   0  0  0  0  0  0
  -23.7068  -30.5994   19.4058 H   0  0  0  0  0  0
  -22.7287  -29.2409   19.8734 H   0  0  0  0  0  0
  -25.1277  -36.1998   25.0836 H   0  0  0  0  0  0
  -20.9941  -28.3206   24.1454 H   0  0  0  0  0  0
  -20.5656  -26.2254   23.3600 H   0  0  0  0  0  0
  -21.6626  -26.7439   22.1213 H   0  0  0  0  0  0
  -19.6895  -25.6301   21.1227 H   0  0  0  0  0  0
  -19.6677  -27.3209   20.6754 H   0  0  0  0  0  0
  -17.4184  -26.6677   21.4023 H   0  0  0  0  0  0
  -18.0311  -26.0054   22.9012 H   0  0  0  0  0  0
  -19.7920  -30.7246   24.2302 H   0  0  0  0  0  0
  -17.5002  -31.6267   24.5161 H   0  0  0  0  0  0
  -15.5339  -30.2998   23.7631 H   0  0  0  0  0  0
  -15.8655  -28.0829   22.7051 H   0  0  0  0  0  0
  -24.5912  -30.7042   25.7825 H   0  0  0  0  0  0
  -24.8938  -32.2843   26.4964 H   0  0  0  0  0  0
  -25.8114  -30.8843   27.0224 H   0  0  0  0  0  0
  -26.2809  -29.6828   24.1135 H   0  0  0  0  0  0
  -27.4086  -29.7280   25.4497 H   0  0  0  0  0  0
  -27.8627  -30.4393   23.9179 H   0  0  0  0  0  0
  -27.2670  -33.3602   26.2098 H   0  0  0  0  0  0
  -28.3830  -32.6901   25.0293 H   0  0  0  0  0  0
  -28.0735  -31.8418   26.5362 H   0  0  0  0  0  0
  -28.2601  -38.0112   24.7522 H   0  0  0  0  0  0
  -28.1081  -36.2646   24.6274 H   0  0  0  0  0  0
  -27.2305  -37.1446   25.8867 H   0  0  0  0  0  0
  -20.9267  -29.8757   21.6987 H   0  0  0  0  0  0
  -26.0189  -38.2883   24.1414 H   0  0  0  0  0  0
  -30.9569  -18.7171   21.7710 H   0  0  0  0  0  0
  -29.4126  -18.4653   21.0158 H   0  0  0  0  0  0
  -29.8522  -17.6468   17.9242 H   0  0  0  0  0  0
  -31.1607  -16.5452   18.2044 H   0  0  0  0  0  0
  -33.9218  -22.6510   15.7151 H   0  0  0  0  0  0
  -32.1805  -22.8105   15.4927 H   0  0  0  0  0  0
  -29.6801  -16.5705   22.4772 H   0  0  0  0  0  0
  -31.3573  -16.3770   22.0557 H   0  0  0  0  0  0
  -29.1335  -15.4165   18.6897 H   0  0  0  0  0  0
  -28.4858  -16.6999   19.6708 H   0  0  0  0  0  0
  -32.7523  -25.0775   15.9531 H   0  0  0  0  0  0
  -34.0146  -24.6160   17.0807 H   0  0  0  0  0  0
  -31.8440  -22.8251   19.3326 H   0  0  0  0  0  0
  -30.7336  -22.7743   17.9751 H   0  0  0  0  0  0
  -32.1252  -17.7826   19.8166 H   0  0  0  0  0  0
  -33.6548  -21.9823   18.0108 H   0  0  0  0  0  0
  -32.7703  -20.2533   16.3309 H   0  0  0  0  0  0
  -31.1534  -20.7827   16.6845 H   0  0  0  0  0  0
  -30.8448  -26.1080   19.6980 H   0  0  0  0  0  0
  -29.9107  -24.6401   19.5290 H   0  0  0  0  0  0
  -31.2506  -26.2274   17.2848 H   0  0  0  0  0  0
  -30.2477  -24.8321   16.9731 H   0  0  0  0  0  0
  -28.1772  -25.7981   18.2459 H   0  0  0  0  0  0
  -29.1203  -27.2851   18.2195 H   0  0  0  0  0  0
  -32.8820  -19.0515   18.2090 H   0  0  0  0  0  0
  -32.6451  -24.7859   18.6595 H   0  0  0  0  0  0
  1 25  1  0  0  0
  1 30  2  0  0  0
  1 85  1  0  0  0
  2  3  1  0  0  0
  2 25  1  0  0  0
  2 89  1  0  0  0
  2 90  1  0  0  0
  3  4  1  0  0  0
  3 91  1  0  0  0
  3 92  1  0  0  0
  4  5  1  0  0  0
  4 93  1  0  0  0
  4 94  1  0  0  0
  5  6  1  0  0  0
  5 26  1  0  0  0
  5 95  1  0  0  0
  6 25  1  0  0  0
  6 96  1  0  0  0
  6 97  1  0  0  0
  7  8  2  0  0  0
  7 26  1  0  0  0
  7 29  1  0  0  0
  8  9  1  0  0  0
  8 22  1  0  0  0
  9 10  1  0  0  0
  9 27  2  0  0  0
 10 11  2  0  0  0
 10 15  1  0  0  0
 11 12  1  0  0  0
 11 98  1  0  0  0
 12 13  2  0  0  0
 12 99  1  0  0  0
 13 14  1  0  0  0
 13 31  1  0  0  0
 14 15  2  0  0  0
 14100  1  0  0  0
 15101  1  0  0  0
 16 17  2  0  0  0
 16 21  1  0  0  0
 16 31  1  0  0  0
 17 18  1  0  0  0
 17102  1  0  0  0
 18 19  2  0  0  0
 18103  1  0  0  0
 19 20  1  0  0  0
 19 24  1  0  0  0
 20 21  2  0  0  0
 20104  1  0  0  0
 21 23  1  0  0  0
 22 28  1  0  0  0
 22 32  2  0  0  0
 26 27  1  0  0  0
 28105  1  0  0  0
 28106  1  0  0  0
 29107  1  0  0  0
 29108  1  0  0  0
 33 34  1  0  0  0
 33 66  1  0  0  0
 33 70  2  0  0  0
 34 36  1  0  0  0
 34 59  1  0  0  0
 34109  1  0  0  0
 35 44  2  0  0  0
 35 45  1  0  0  0
 35 68  1  0  0  0
 36 56  1  0  0  0
 36110  1  0  0  0
 37 39  1  0  0  0
 37 47  1  0  0  0
 37 66  1  0  0  0
 37111  1  0  0  0
 38 43  2  0  0  0
 38 46  1  0  0  0
 38 47  1  0  0  0
 39 64  1  0  0  0
 39 67  2  0  0  0
 40 52  1  0  0  0
 40 53  2  0  0  0
 40 58  1  0  0  0
 41112  1  0  0  0
 41113  1  0  0  0
 41114  1  0  0  0
 41 48  1  0  0  0
 42 43  1  0  0  0
 42 66  1  0  0  0
 42115  1  0  0  0
 42116  1  0  0  0
 43 44  1  0  0  0
 44117  1  0  0  0
 45 46  2  0  0  0
 45118  1  0  0  0
 46119  1  0  0  0
 47120  1  0  0  0
 47121  1  0  0  0
 48 56  1  0  0  0
 48 65  1  0  0  0
 48122  1  0  0  0
 49 50  1  0  0  0
 49 53  1  0  0  0
 49 64  1  0  0  0
 49123  1  0  0  0
 50 51  1  0  0  0
 50124  1  0  0  0
 50125  1  0  0  0
 51 52  1  0  0  0
 51126  1  0  0  0
 51127  1  0  0  0
 52128  1  0  0  0
 52129  1  0  0  0
 53 54  1  0  0  0
 54 55  2  0  0  0
 54130  1  0  0  0
 55 57  1  0  0  0
 55131  1  0  0  0
 56 69  2  0  0  0
 57 58  2  0  0  0
 57132  1  0  0  0
 58133  1  0  0  0
 59 60  1  0  0  0
 59 61  1  0  0  0
 59 62  1  0  0  0
 60134  1  0  0  0
 60135  1  0  0  0
 60136  1  0  0  0
 61137  1  0  0  0
 61138  1  0  0  0
 61139  1  0  0  0
 62140  1  0  0  0
 62141  1  0  0  0
 62142  1  0  0  0
 63 65  1  0  0  0
 63143  1  0  0  0
 63144  1  0  0  0
 63145  1  0  0  0
 64146  1  0  0  0
 65147  1  0  0  0
 68 84  1  0  0  0
 71 86  1  0  0  0
 71 88  2  0  0  0
 71 79  1  0  0  0
 72 75  1  0  0  0
 72 79  1  0  0  0
 72148  1  0  0  0
 72149  1  0  0  0
 73 76  1  0  0  0
 73 79  1  0  0  0
 73150  1  0  0  0
 73151  1  0  0  0
 74 77  1  0  0  0
 74 80  1  0  0  0
 74152  1  0  0  0
 74153  1  0  0  0
 75 85  1  0  0  0
 75154  1  0  0  0
 75155  1  0  0  0
 76 85  1  0  0  0
 76156  1  0  0  0
 76157  1  0  0  0
 77 87  1  0  0  0
 77158  1  0  0  0
 77159  1  0  0  0
 78 80  1  0  0  0
 78 87  1  0  0  0
 78160  1  0  0  0
 78161  1  0  0  0
 79162  1  0  0  0
 80 81  1  0  0  0
 80163  1  0  0  0
 81 86  1  0  0  0
 81164  1  0  0  0
 81165  1  0  0  0
 82 83  1  0  0  0
 82 84  1  0  0  0
 82166  1  0  0  0
 82167  1  0  0  0
 83168  1  0  0  0
 83169  1  0  0  0
 83 87  1  0  0  0
 84170  1  0  0  0
 84171  1  0  0  0
 86172  1  0  0  0
 87173  1  0  0  0
M  CHG  1  87   1
M  ISO  4   1 100  68 101  84 101  85 100
M  END
> <chiral flag>
0

> <version>
0

> <s_m_source_file>
/data/baiqing/PycharmProjects/Reinvent-master-3.2/result/LINK_invent/BTK/process_docking_weight1_custom_sum_contain_oxygen_bond_distance_aromatic_linkinvent_7_9_3/rearranged_h_0184.sdf

> <i_m_source_file_index>
47

> <r_mmod_Potential_Energy-OPLS-2005>
85.6167449951172

> <r_mmod_Stretch_Energy-OPLS-2005>
34.243824005127

> <r_mmod_Bend_Energy-OPLS-2005>
121.282112121582

> <r_mmod_Torsional_Energy-OPLS-2005>
435.844116210938

> <r_mmod_Improper_Torsional_Energy-OPLS-2005>
11.2050590515137

> <r_mmod_Van_der_Waal_Energy-OPLS-2005>
143.848709106445

> <r_mmod_Electrostatic_Energy-OPLS-2005>
-237.085189819336

> <r_mmod_Solvation_Energy-OPLS-2005>
-442.573638916016

> <b_mmod_Minimization_Converged-OPLS-2005>
0

> <r_mmod_RMS_Derivative-OPLS-2005>
1.32130098342896

$$$$
47
                    3D
 Structure written by MMmdl.
155164  0  0  1  0            999 V2000
  -30.5395  -15.1484   20.3902 C   0  0  0  0  0  0
  -30.4170  -12.7347   19.5096 C   0  0  0  0  0  0
  -29.5141  -12.5472   18.2704 C   0  0  0  0  0  0
  -28.0607  -12.2978   18.7041 C   0  0  0  0  0  0
  -27.6079  -13.2719   19.8217 C   0  0  2  0  0  0
  -28.6480  -13.4311   20.9505 C   0  0  0  0  0  0
  -25.2357  -13.8229   20.5734 C   0  0  0  0  0  0
  -24.1722  -13.0422   20.9257 C   0  0  0  0  0  0
  -24.6383  -11.6923   20.8781 C   0  0  0  0  0  0
  -23.9080  -10.4282   21.0411 C   0  0  0  0  0  0
  -24.3627   -9.4195   21.9194 C   0  0  0  0  0  0
  -23.6297   -8.2235   22.0761 C   0  0  0  0  0  0
  -22.4289   -8.0267   21.3538 C   0  0  0  0  0  0
  -21.9917   -9.0244   20.4654 C   0  0  0  0  0  0
  -22.7247  -10.2126   20.3067 C   0  0  0  0  0  0
  -21.6849   -6.0723   22.5267 C   0  0  0  0  0  0
  -21.4016   -6.5630   23.8197 C   0  0  0  0  0  0
  -21.3667   -5.6788   24.9164 C   0  0  0  0  0  0
  -21.6042   -4.3046   24.7223 C   0  0  0  0  0  0
  -21.8822   -3.8136   23.4346 C   0  0  0  0  0  0
  -21.9195   -4.6952   22.3396 C   0  0  0  0  0  0
  -22.7747  -13.5178   21.1902 C   0  0  0  0  0  0
  -22.1658   -4.2131   21.0975 F   0  0  0  0  0  0
  -21.5636   -3.4539   25.7741 F   0  0  0  0  0  0
  -29.8855  -13.8967   20.3091 N   0  0  0  0  0  0
  -26.2799  -12.9516   20.3242 N   0  0  0  0  0  0
  -25.9317  -11.6630   20.5765 N   0  0  0  0  0  0
  -22.0421  -12.8161   22.0464 N   0  0  0  0  0  0
  -25.3951  -15.1949   20.4093 N   0  0  0  0  0  0
  -31.7600  -15.0522   20.1968 O   0  0  0  0  0  0
  -21.6649   -6.8873   21.4237 O   0  0  0  0  0  0
  -22.3437  -14.5487   20.6740 O   0  0  0  0  0  0
  -24.6570  -31.8324   23.1777 C   0  0  0  0  0  0
  -25.9276  -32.4637   23.8212 C   0  0  1  0  0  0
  -27.1980  -26.9914   20.1797 C   0  0  0  0  0  0
  -25.5979  -33.8455   24.2121 N   0  0  0  0  0  0
  -23.4658  -30.4486   21.5296 C   0  0  2  0  0  0
  -24.9106  -28.8490   20.1126 C   0  0  0  0  0  0
  -22.7637  -29.4480   22.4842 C   0  0  0  0  0  0
  -18.0327  -28.1388   22.8479 C   0  0  0  0  0  0
  -24.1482  -36.7225   23.2640 C   0  0  0  0  0  0
  -26.0302  -30.6580   21.3960 C   0  0  0  0  0  0
  -26.0941  -29.2546   20.7418 C   0  0  0  0  0  0
  -27.2381  -28.3464   20.7518 C   0  0  0  0  0  0
  -25.9894  -26.7236   19.5020 C   0  0  0  0  0  0
  -24.8794  -27.6009   19.4734 C   0  0  0  0  0  0
  -23.6960  -29.7721   20.1529 C   0  0  0  0  0  0
  -25.4126  -36.3002   24.0300 C   0  0  1  0  0  0
  -20.5944  -28.3731   23.1207 C   0  0  2  0  0  0
  -20.6813  -26.9420   22.5407 C   0  0  0  0  0  0
  -19.5778  -26.6364   21.5218 C   0  0  0  0  0  0
  -18.1958  -26.7927   22.1626 C   0  0  0  0  0  0
  -19.1590  -28.8885   23.2813 C   0  0  0  0  0  0
  -18.9508  -30.1493   23.8812 C   0  0  0  0  0  0
  -17.6499  -30.6580   24.0560 C   0  0  0  0  0  0
  -25.9095  -34.9382   23.5028 C   0  0  0  0  0  0
  -16.5388  -29.9067   23.6349 C   0  0  0  0  0  0
  -16.7311  -28.6502   23.0337 C   0  0  0  0  0  0
  -26.4542  -31.6561   25.0726 C   0  0  0  0  0  0
  -25.3661  -31.3792   26.1381 C   0  0  0  0  0  0
  -27.0446  -30.2946   24.6405 C   0  0  0  0  0  0
  -27.6063  -32.4356   25.7497 C   0  0  0  0  0  0
  -27.5564  -37.1766   24.8461 C   0  0  0  0  0  0
  -21.4321  -29.3039   22.3577 N   0  0  0  0  0  0
  -26.4267  -37.3737   23.9418 N   0  0  0  0  0  0
  -24.7384  -31.0051   22.0872 N   0  0  0  0  0  0
  -23.4215  -28.8036   23.3050 O   0  0  0  0  0  0
  -28.2101  -25.9203   20.2383 O   0  0  0  0  0  0
  -26.5684  -34.8885   22.4611 O   0  0  0  0  0  0
  -23.5659  -32.1288   23.6908 O   0  0  0  0  0  0
  -28.9935  -19.8242   20.4306 C   0  0  0  0  0  0
  -28.3106  -18.6836   20.9989 C   0  0  0  0  0  0
  -28.4439  -21.2518   20.6286 C   0  0  0  0  0  0
  -26.7849  -20.1794   21.8831 C   0  0  0  0  0  0
  -30.2096  -19.2380   19.6492 C   0  0  0  0  0  0
  -28.6409  -17.0906   20.8548 C   0  0  0  0  0  0
  -30.8029  -17.7416   20.0262 C   0  0  0  0  0  0
  -25.5398  -20.3646   22.7263 C   0  0  0  0  0  0
  -28.8866  -22.8606   20.2663 C   0  0  0  0  0  0
  -27.8982  -24.3271   20.3190 C   0  0  0  0  0  0
  -27.2079  -18.9297   21.7229 N   0  0  0  0  0  0
  -27.3341  -21.2911   21.3952 N   0  0  0  0  0  0
  -29.9546  -16.5039   20.3522 N   0  0  0  0  0  0
  -31.4437  -12.8871   19.1769 H   0  0  0  0  0  0
  -30.4431  -11.8248   20.1111 H   0  0  0  0  0  0
  -29.8732  -11.7186   17.6589 H   0  0  0  0  0  0
  -29.5638  -13.4386   17.6429 H   0  0  0  0  0  0
  -28.0013  -11.2718   19.0673 H   0  0  0  0  0  0
  -27.3907  -12.3551   17.8451 H   0  0  0  0  0  0
  -27.5284  -14.2431   19.3321 H   0  0  0  0  0  0
  -28.7984  -12.4968   21.4928 H   0  0  0  0  0  0
  -28.3094  -14.1666   21.6808 H   0  0  0  0  0  0
  -25.2762   -9.5671   22.4775 H   0  0  0  0  0  0
  -23.9992   -7.4638   22.7487 H   0  0  0  0  0  0
  -21.0839   -8.8766   19.8970 H   0  0  0  0  0  0
  -22.3692  -10.9669   19.6185 H   0  0  0  0  0  0
  -21.2002   -7.6138   23.9692 H   0  0  0  0  0  0
  -21.1490   -6.0524   25.9066 H   0  0  0  0  0  0
  -22.0598   -2.7597   23.2847 H   0  0  0  0  0  0
  -22.4050  -11.9814   22.4815 H   0  0  0  0  0  0
  -21.1049  -13.1185   22.2714 H   0  0  0  0  0  0
  -24.6181  -15.8392   20.5184 H   0  0  0  0  0  0
  -26.2194  -15.6326   20.0213 H   0  0  0  0  0  0
  -26.7354  -32.5197   23.0935 H   0  0  0  0  0  0
  -25.0146  -33.9569   25.0280 H   0  0  0  0  0  0
  -22.7760  -31.2794   21.3706 H   0  0  0  0  0  0
  -23.3770  -35.9529   23.3287 H   0  0  0  0  0  0
  -24.3554  -36.8888   22.2057 H   0  0  0  0  0  0
  -23.7215  -37.6400   23.6708 H   0  0  0  0  0  0
  -26.1994  -31.4004   20.6159 H   0  0  0  0  0  0
  -26.8955  -30.7141   22.0466 H   0  0  0  0  0  0
  -28.1365  -28.6515   21.2690 H   0  0  0  0  0  0
  -25.8640  -25.7788   18.9954 H   0  0  0  0  0  0
  -23.9784  -27.2863   18.9641 H   0  0  0  0  0  0
  -23.8448  -30.5467   19.3990 H   0  0  0  0  0  0
  -22.8033  -29.2275   19.8415 H   0  0  0  0  0  0
  -25.1308  -36.1811   25.0791 H   0  0  0  0  0  0
  -21.0038  -28.3330   24.1322 H   0  0  0  0  0  0
  -20.5716  -26.2333   23.3637 H   0  0  0  0  0  0
  -21.6667  -26.7402   22.1184 H   0  0  0  0  0  0
  -19.6930  -25.6260   21.1272 H   0  0  0  0  0  0
  -19.6713  -27.3161   20.6733 H   0  0  0  0  0  0
  -17.4233  -26.6698   21.4018 H   0  0  0  0  0  0
  -18.0327  -26.0058   22.9005 H   0  0  0  0  0  0
  -19.7985  -30.7361   24.2086 H   0  0  0  0  0  0
  -17.5048  -31.6243   24.5201 H   0  0  0  0  0  0
  -15.5390  -30.2938   23.7715 H   0  0  0  0  0  0
  -15.8719  -28.0822   22.7021 H   0  0  0  0  0  0
  -24.5857  -30.7125   25.7690 H   0  0  0  0  0  0
  -24.8818  -32.2986   26.4693 H   0  0  0  0  0  0
  -25.7878  -30.9038   27.0242 H   0  0  0  0  0  0
  -26.3114  -29.6643   24.1366 H   0  0  0  0  0  0
  -27.3982  -29.7287   25.5033 H   0  0  0  0  0  0
  -27.9033  -30.4189   23.9803 H   0  0  0  0  0  0
  -27.2666  -33.3708   26.1952 H   0  0  0  0  0  0
  -28.3910  -32.6836   25.0337 H   0  0  0  0  0  0
  -28.0679  -31.8561   26.5504 H   0  0  0  0  0  0
  -28.2557  -38.0079   24.7540 H   0  0  0  0  0  0
  -28.1077  -36.2624   24.6249 H   0  0  0  0  0  0
  -27.2286  -37.1355   25.8855 H   0  0  0  0  0  0
  -20.9561  -29.8739   21.6721 H   0  0  0  0  0  0
  -26.0128  -38.2790   24.1466 H   0  0  0  0  0  0
  -31.0219  -19.9650   19.6845 H   0  0  0  0  0  0
  -29.9055  -19.2160   18.6019 H   0  0  0  0  0  0
  -27.8632  -16.6777   20.2153 H   0  0  0  0  0  0
  -28.4684  -16.6429   21.8352 H   0  0  0  0  0  0
  -31.4423  -17.8750   20.9010 H   0  0  0  0  0  0
  -31.4935  -17.4671   19.2263 H   0  0  0  0  0  0
  -24.9878  -19.4309   22.8361 H   0  0  0  0  0  0
  -24.8635  -21.0931   22.2766 H   0  0  0  0  0  0
  -25.8101  -20.7176   23.7211 H   0  0  0  0  0  0
  -29.3366  -22.8155   19.2755 H   0  0  0  0  0  0
  -29.7260  -23.0558   20.9323 H   0  0  0  0  0  0
  -27.3734  -24.2467   21.2716 H   0  0  0  0  0  0
  -27.1226  -24.1419   19.5789 H   0  0  0  0  0  0
  1 25  1  0  0  0
  1 30  2  0  0  0
  1 83  1  0  0  0
  2  3  1  0  0  0
  2 25  1  0  0  0
  2 84  1  0  0  0
  2 85  1  0  0  0
  3  4  1  0  0  0
  3 86  1  0  0  0
  3 87  1  0  0  0
  4  5  1  0  0  0
  4 88  1  0  0  0
  4 89  1  0  0  0
  5  6  1  0  0  0
  5 26  1  0  0  0
  5 90  1  0  0  0
  6 25  1  0  0  0
  6 91  1  0  0  0
  6 92  1  0  0  0
  7  8  2  0  0  0
  7 26  1  0  0  0
  7 29  1  0  0  0
  8  9  1  0  0  0
  8 22  1  0  0  0
  9 10  1  0  0  0
  9 27  2  0  0  0
 10 11  2  0  0  0
 10 15  1  0  0  0
 11 12  1  0  0  0
 11 93  1  0  0  0
 12 13  2  0  0  0
 12 94  1  0  0  0
 13 14  1  0  0  0
 13 31  1  0  0  0
 14 15  2  0  0  0
 14 95  1  0  0  0
 15 96  1  0  0  0
 16 17  2  0  0  0
 16 21  1  0  0  0
 16 31  1  0  0  0
 17 18  1  0  0  0
 17 97  1  0  0  0
 18 19  2  0  0  0
 18 98  1  0  0  0
 19 20  1  0  0  0
 19 24  1  0  0  0
 20 21  2  0  0  0
 20 99  1  0  0  0
 21 23  1  0  0  0
 22 28  1  0  0  0
 22 32  2  0  0  0
 26 27  1  0  0  0
 28100  1  0  0  0
 28101  1  0  0  0
 29102  1  0  0  0
 29103  1  0  0  0
 33 34  1  0  0  0
 33 66  1  0  0  0
 33 70  2  0  0  0
 34 36  1  0  0  0
 34 59  1  0  0  0
 34104  1  0  0  0
 35 44  2  0  0  0
 35 45  1  0  0  0
 35 68  1  0  0  0
 36 56  1  0  0  0
 36105  1  0  0  0
 37 39  1  0  0  0
 37 47  1  0  0  0
 37 66  1  0  0  0
 37106  1  0  0  0
 38 43  2  0  0  0
 38 46  1  0  0  0
 38 47  1  0  0  0
 39 64  1  0  0  0
 39 67  2  0  0  0
 40 52  1  0  0  0
 40 53  2  0  0  0
 40 58  1  0  0  0
 41107  1  0  0  0
 41108  1  0  0  0
 41109  1  0  0  0
 41 48  1  0  0  0
 42 43  1  0  0  0
 42 66  1  0  0  0
 42110  1  0  0  0
 42111  1  0  0  0
 43 44  1  0  0  0
 44112  1  0  0  0
 45 46  2  0  0  0
 45113  1  0  0  0
 46114  1  0  0  0
 47115  1  0  0  0
 47116  1  0  0  0
 48 56  1  0  0  0
 48 65  1  0  0  0
 48117  1  0  0  0
 49 50  1  0  0  0
 49 53  1  0  0  0
 49 64  1  0  0  0
 49118  1  0  0  0
 50 51  1  0  0  0
 50119  1  0  0  0
 50120  1  0  0  0
 51 52  1  0  0  0
 51121  1  0  0  0
 51122  1  0  0  0
 52123  1  0  0  0
 52124  1  0  0  0
 53 54  1  0  0  0
 54 55  2  0  0  0
 54125  1  0  0  0
 55 57  1  0  0  0
 55126  1  0  0  0
 56 69  2  0  0  0
 57 58  2  0  0  0
 57127  1  0  0  0
 58128  1  0  0  0
 59 60  1  0  0  0
 59 61  1  0  0  0
 59 62  1  0  0  0
 60129  1  0  0  0
 60130  1  0  0  0
 60131  1  0  0  0
 61132  1  0  0  0
 61133  1  0  0  0
 61134  1  0  0  0
 62135  1  0  0  0
 62136  1  0  0  0
 62137  1  0  0  0
 63 65  1  0  0  0
 63138  1  0  0  0
 63139  1  0  0  0
 63140  1  0  0  0
 64141  1  0  0  0
 65142  1  0  0  0
 68 80  1  0  0  0
 71 72  2  0  0  0
 71 73  1  0  0  0
 71 75  1  0  0  0
 72 76  1  0  0  0
 72 81  1  0  0  0
 73 79  1  0  0  0
 73 82  2  0  0  0
 74 78  1  0  0  0
 74 81  2  0  0  0
 74 82  1  0  0  0
 75 77  1  0  0  0
 75143  1  0  0  0
 75144  1  0  0  0
 76 83  1  0  0  0
 76145  1  0  0  0
 76146  1  0  0  0
 77 83  1  0  0  0
 77147  1  0  0  0
 77148  1  0  0  0
 78149  1  0  0  0
 78150  1  0  0  0
 78151  1  0  0  0
 79 80  1  0  0  0
 79152  1  0  0  0
 79153  1  0  0  0
 80154  1  0  0  0
 80155  1  0  0  0
M  ISO  4   1 100  68 101  80 101  83 100
M  END
> <chiral flag>
0

> <version>
0

> <s_m_source_file>
/data/baiqing/PycharmProjects/Reinvent-master-3.2/result/LINK_invent/BTK/process_docking_weight1_custom_sum_contain_oxygen_bond_distance_aromatic_linkinvent_7_9_3/rearranged_h_0184.sdf

> <i_m_source_file_index>
48

> <r_mmod_Potential_Energy-OPLS-2005>
623.022155761719

> <r_mmod_Stretch_Energy-OPLS-2005>
414.822265625

> <r_mmod_Bend_Energy-OPLS-2005>
423.399200439453

> <r_mmod_Torsional_Energy-OPLS-2005>
275.492370605469

> <r_mmod_Improper_Torsional_Energy-OPLS-2005>
9.31168365478516

> <r_mmod_Van_der_Waal_Energy-OPLS-2005>
136.277206420898

> <r_mmod_Electrostatic_Energy-OPLS-2005>
-753.947875976562

> <r_mmod_Solvation_Energy-OPLS-2005>
-234.074798583984

> <b_mmod_Minimization_Converged-OPLS-2005>
0

> <r_mmod_RMS_Derivative-OPLS-2005>
2.92057061195374

$$$$
48
                    3D
 Structure written by MMmdl.
158166  0  0  1  0            999 V2000
  -30.6378  -14.6955   20.4591 C   0  0  0  0  0  0
  -30.4361  -12.4287   19.4850 C   0  0  0  0  0  0
  -29.5149  -12.5119   18.2497 C   0  0  0  0  0  0
  -28.0382  -12.3450   18.6506 C   0  0  0  0  0  0
  -27.6436  -13.2377   19.8590 C   0  0  2  0  0  0
  -28.6866  -13.1614   20.9975 C   0  0  0  0  0  0
  -25.2491  -13.8230   20.5664 C   0  0  0  0  0  0
  -24.1767  -13.0453   20.9211 C   0  0  0  0  0  0
  -24.6367  -11.6945   20.8736 C   0  0  0  0  0  0
  -23.9042  -10.4322   21.0409 C   0  0  0  0  0  0
  -24.3600   -9.4242   21.9174 C   0  0  0  0  0  0
  -23.6283   -8.2274   22.0752 C   0  0  0  0  0  0
  -22.4259   -8.0309   21.3562 C   0  0  0  0  0  0
  -21.9908   -9.0275   20.4655 C   0  0  0  0  0  0
  -22.7223  -10.2153   20.3057 C   0  0  0  0  0  0
  -21.6872   -6.0750   22.5285 C   0  0  0  0  0  0
  -21.4003   -6.5649   23.8224 C   0  0  0  0  0  0
  -21.3659   -5.6806   24.9188 C   0  0  0  0  0  0
  -21.6035   -4.3070   24.7239 C   0  0  0  0  0  0
  -21.8817   -3.8152   23.4362 C   0  0  0  0  0  0
  -21.9187   -4.6970   22.3421 C   0  0  0  0  0  0
  -22.7789  -13.5252   21.1856 C   0  0  0  0  0  0
  -22.1655   -4.2161   21.0987 F   0  0  0  0  0  0
  -21.5636   -3.4546   25.7744 F   0  0  0  0  0  0
  -30.0051  -13.4799   20.4290 N   0  0  0  0  0  0
  -26.2922  -12.9448   20.3333 N   0  0  0  0  0  0
  -25.9307  -11.6575   20.5736 N   0  0  0  0  0  0
  -22.0390  -12.8279   22.0430 N   0  0  0  0  0  0
  -25.4161  -15.1935   20.4037 N   0  0  0  0  0  0
  -31.8175  -14.7983   20.1050 O   0  0  0  0  0  0
  -21.6639   -6.8888   21.4255 O   0  0  0  0  0  0
  -22.3456  -14.5514   20.6660 O   0  0  0  0  0  0
  -24.6321  -31.8563   23.1938 C   0  0  0  0  0  0
  -25.9184  -32.4755   23.8288 C   0  0  1  0  0  0
  -27.2091  -27.2944   20.1368 C   0  0  0  0  0  0
  -25.6001  -33.8546   24.2259 N   0  0  0  0  0  0
  -23.4257  -30.4859   21.5253 C   0  0  2  0  0  0
  -24.8744  -28.9436   20.0930 C   0  0  0  0  0  0
  -22.7487  -29.4671   22.4728 C   0  0  0  0  0  0
  -18.0316  -28.1451   22.8425 C   0  0  0  0  0  0
  -24.1508  -36.7275   23.2622 C   0  0  0  0  0  0
  -25.9679  -30.7950   21.3548 C   0  0  0  0  0  0
  -26.0442  -29.4174   20.7009 C   0  0  0  0  0  0
  -27.2211  -28.6055   20.7089 C   0  0  0  0  0  0
  -26.0265  -26.8804   19.4934 C   0  0  0  0  0  0
  -24.8707  -27.6825   19.4748 C   0  0  0  0  0  0
  -23.6416  -29.8251   20.1364 C   0  0  0  0  0  0
  -25.4148  -36.3044   24.0276 C   0  0  1  0  0  0
  -20.5922  -28.3768   23.1217 C   0  0  2  0  0  0
  -20.6785  -26.9450   22.5381 C   0  0  0  0  0  0
  -19.5762  -26.6410   21.5185 C   0  0  0  0  0  0
  -18.1940  -26.7973   22.1585 C   0  0  0  0  0  0
  -19.1582  -28.8899   23.2838 C   0  0  0  0  0  0
  -18.9502  -30.1482   23.8869 C   0  0  0  0  0  0
  -17.6507  -30.6613   24.0563 C   0  0  0  0  0  0
  -25.9080  -34.9421   23.5067 C   0  0  0  0  0  0
  -16.5400  -29.9126   23.6293 C   0  0  0  0  0  0
  -16.7303  -28.6566   23.0267 C   0  0  0  0  0  0
  -26.4542  -31.6540   25.0665 C   0  0  0  0  0  0
  -25.3819  -31.3702   26.1431 C   0  0  0  0  0  0
  -27.0335  -30.2944   24.6102 C   0  0  0  0  0  0
  -27.6073  -32.4253   25.7510 C   0  0  0  0  0  0
  -27.5563  -37.1791   24.8474 C   0  0  0  0  0  0
  -21.4186  -29.3143   22.3548 N   0  0  0  0  0  0
  -26.4304  -37.3732   23.9367 N   0  0  0  0  0  0
  -24.6927  -31.0618   22.0827 N   0  0  0  0  0  0
  -23.4190  -28.8183   23.2809 O   0  0  0  0  0  0
  -28.2855  -26.3949   20.1927 O   0  0  0  0  0  0
  -26.5619  -34.8887   22.4623 O   0  0  0  0  0  0
  -23.5486  -32.1366   23.7278 O   0  0  0  0  0  0
  -27.9440  -23.1816   18.8172 C   0  0  0  0  0  0
  -27.1640  -22.1519   19.6531 C   0  0  0  0  0  0
  -28.6055  -23.7068   20.1121 C   0  0  2  0  0  0
  -28.2823  -22.2480   20.6995 C   0  0  2  0  0  0
  -28.0049  -25.0421   20.7558 C   0  0  0  0  0  0
  -30.1215  -17.1934   20.0221 C   0  0  0  0  0  0
  -29.5211  -19.8665   19.8560 C   0  0  0  0  0  0
  -29.4401  -18.4848   20.6751 C   0  0  2  0  0  0
  -30.0584  -18.6756   21.9771 N   0  0  0  0  0  0
  -29.8690  -15.8237   20.6269 N   0  0  0  0  0  0
  -29.3531  -21.1588   20.6425 N   0  3  0  0  0  0
  -31.4778  -12.5491   19.1814 H   0  0  0  0  0  0
  -30.3798  -11.4499   19.9615 H   0  0  0  0  0  0
  -29.7972  -11.7511   17.5210 H   0  0  0  0  0  0
  -29.6554  -13.4758   17.7570 H   0  0  0  0  0  0
  -27.8799  -11.2932   18.8887 H   0  0  0  0  0  0
  -27.3937  -12.5617   17.7987 H   0  0  0  0  0  0
  -27.6448  -14.2630   19.4879 H   0  0  0  0  0  0
  -28.6959  -12.1694   21.4492 H   0  0  0  0  0  0
  -28.4251  -13.8645   21.7925 H   0  0  0  0  0  0
  -25.2749   -9.5719   22.4750 H   0  0  0  0  0  0
  -24.0011   -7.4660   22.7453 H   0  0  0  0  0  0
  -21.0865   -8.8773   19.8948 H   0  0  0  0  0  0
  -22.3673  -10.9687   19.6157 H   0  0  0  0  0  0
  -21.1983   -7.6152   23.9734 H   0  0  0  0  0  0
  -21.1480   -6.0527   25.9090 H   0  0  0  0  0  0
  -22.0582   -2.7614   23.2856 H   0  0  0  0  0  0
  -22.3966  -11.9993   22.4940 H   0  0  0  0  0  0
  -21.0965  -13.1258   22.2533 H   0  0  0  0  0  0
  -24.6422  -15.8443   20.4809 H   0  0  0  0  0  0
  -26.2598  -15.6293   20.0537 H   0  0  0  0  0  0
  -26.7302  -32.5416   23.1059 H   0  0  0  0  0  0
  -25.0260  -33.9683   25.0479 H   0  0  0  0  0  0
  -22.7202  -31.3039   21.3725 H   0  0  0  0  0  0
  -23.3752  -35.9631   23.3300 H   0  0  0  0  0  0
  -24.3606  -36.8900   22.2036 H   0  0  0  0  0  0
  -23.7275  -37.6470   23.6678 H   0  0  0  0  0  0
  -26.0958  -31.5598   20.5849 H   0  0  0  0  0  0
  -26.8538  -30.8504   21.9750 H   0  0  0  0  0  0
  -28.1156  -28.9578   21.2057 H   0  0  0  0  0  0
  -25.9764  -25.9047   19.0275 H   0  0  0  0  0  0
  -23.9768  -27.3110   18.9966 H   0  0  0  0  0  0
  -23.7429  -30.6001   19.3738 H   0  0  0  0  0  0
  -22.7605  -29.2529   19.8396 H   0  0  0  0  0  0
  -25.1302  -36.1852   25.0757 H   0  0  0  0  0  0
  -21.0102  -28.3384   24.1308 H   0  0  0  0  0  0
  -20.5649  -26.2349   23.3588 H   0  0  0  0  0  0
  -21.6642  -26.7399   22.1186 H   0  0  0  0  0  0
  -19.6905  -25.6322   21.1197 H   0  0  0  0  0  0
  -19.6732  -27.3207   20.6716 H   0  0  0  0  0  0
  -17.4181  -26.6699   21.4011 H   0  0  0  0  0  0
  -18.0347  -26.0188   22.9062 H   0  0  0  0  0  0
  -19.8011  -30.7298   24.2199 H   0  0  0  0  0  0
  -17.5090  -31.6251   24.5254 H   0  0  0  0  0  0
  -15.5407  -30.3028   23.7666 H   0  0  0  0  0  0
  -15.8700  -28.0927   22.6927 H   0  0  0  0  0  0
  -24.5994  -30.7009   25.7845 H   0  0  0  0  0  0
  -24.9030  -32.2890   26.4838 H   0  0  0  0  0  0
  -25.8240  -30.8933   27.0203 H   0  0  0  0  0  0
  -26.2896  -29.6750   24.1079 H   0  0  0  0  0  0
  -27.3973  -29.7096   25.4557 H   0  0  0  0  0  0
  -27.8772  -30.4166   23.9308 H   0  0  0  0  0  0
  -27.2630  -33.3519   26.2123 H   0  0  0  0  0  0
  -28.3956  -32.6886   25.0446 H   0  0  0  0  0  0
  -28.0701  -31.8363   26.5451 H   0  0  0  0  0  0
  -28.2572  -38.0074   24.7426 H   0  0  0  0  0  0
  -28.1017  -36.2567   24.6382 H   0  0  0  0  0  0
  -27.2234  -37.1549   25.8866 H   0  0  0  0  0  0
  -20.9325  -29.8932   21.6833 H   0  0  0  0  0  0
  -26.0142  -38.2783   24.1423 H   0  0  0  0  0  0
  -27.3241  -23.9089   18.2896 H   0  0  0  0  0  0
  -28.6452  -22.7041   18.1242 H   0  0  0  0  0  0
  -27.0055  -21.1901   19.1651 H   0  0  0  0  0  0
  -26.2215  -22.5384   20.0549 H   0  0  0  0  0  0
  -29.6803  -23.8038   19.9665 H   0  0  0  0  0  0
  -27.8905  -22.2990   21.7183 H   0  0  0  0  0  0
  -28.3659  -25.0855   21.7810 H   0  0  0  0  0  0
  -26.9306  -24.9223   20.8937 H   0  0  0  0  0  0
  -31.1961  -17.3649   19.9543 H   0  0  0  0  0  0
  -29.7930  -17.1330   18.9801 H   0  0  0  0  0  0
  -28.8455  -19.8400   18.9989 H   0  0  0  0  0  0
  -30.5142  -19.9372   19.4103 H   0  0  0  0  0  0
  -28.3918  -18.2364   20.8507 H   0  0  0  0  0  0
  -30.3956  -17.7849   22.3331 H   0  0  0  0  0  0
  -30.9054  -19.2280   21.8907 H   0  0  0  0  0  0
  -28.9313  -15.6586   20.9642 H   0  0  0  0  0  0
  -29.5298  -21.5334   19.7277 H   0  0  0  0  0  0
  -28.5757  -20.6010   20.9642 H   0  0  0  0  0  0
  1 25  1  0  0  0
  1 30  2  0  0  0
  1 80  1  0  0  0
  2  3  1  0  0  0
  2 25  1  0  0  0
  2 82  1  0  0  0
  2 83  1  0  0  0
  3  4  1  0  0  0
  3 84  1  0  0  0
  3 85  1  0  0  0
  4  5  1  0  0  0
  4 86  1  0  0  0
  4 87  1  0  0  0
  5  6  1  0  0  0
  5 26  1  0  0  0
  5 88  1  0  0  0
  6 25  1  0  0  0
  6 89  1  0  0  0
  6 90  1  0  0  0
  7  8  2  0  0  0
  7 26  1  0  0  0
  7 29  1  0  0  0
  8  9  1  0  0  0
  8 22  1  0  0  0
  9 10  1  0  0  0
  9 27  2  0  0  0
 10 11  2  0  0  0
 10 15  1  0  0  0
 11 12  1  0  0  0
 11 91  1  0  0  0
 12 13  2  0  0  0
 12 92  1  0  0  0
 13 14  1  0  0  0
 13 31  1  0  0  0
 14 15  2  0  0  0
 14 93  1  0  0  0
 15 94  1  0  0  0
 16 17  2  0  0  0
 16 21  1  0  0  0
 16 31  1  0  0  0
 17 18  1  0  0  0
 17 95  1  0  0  0
 18 19  2  0  0  0
 18 96  1  0  0  0
 19 20  1  0  0  0
 19 24  1  0  0  0
 20 21  2  0  0  0
 20 97  1  0  0  0
 21 23  1  0  0  0
 22 28  1  0  0  0
 22 32  2  0  0  0
 26 27  1  0  0  0
 28 98  1  0  0  0
 28 99  1  0  0  0
 29100  1  0  0  0
 29101  1  0  0  0
 33 34  1  0  0  0
 33 66  1  0  0  0
 33 70  2  0  0  0
 34 36  1  0  0  0
 34 59  1  0  0  0
 34102  1  0  0  0
 35 44  2  0  0  0
 35 45  1  0  0  0
 35 68  1  0  0  0
 36 56  1  0  0  0
 36103  1  0  0  0
 37 39  1  0  0  0
 37 47  1  0  0  0
 37 66  1  0  0  0
 37104  1  0  0  0
 38 43  2  0  0  0
 38 46  1  0  0  0
 38 47  1  0  0  0
 39 64  1  0  0  0
 39 67  2  0  0  0
 40 52  1  0  0  0
 40 53  2  0  0  0
 40 58  1  0  0  0
 41105  1  0  0  0
 41106  1  0  0  0
 41107  1  0  0  0
 41 48  1  0  0  0
 42 43  1  0  0  0
 42 66  1  0  0  0
 42108  1  0  0  0
 42109  1  0  0  0
 43 44  1  0  0  0
 44110  1  0  0  0
 45 46  2  0  0  0
 45111  1  0  0  0
 46112  1  0  0  0
 47113  1  0  0  0
 47114  1  0  0  0
 48 56  1  0  0  0
 48 65  1  0  0  0
 48115  1  0  0  0
 49 50  1  0  0  0
 49 53  1  0  0  0
 49 64  1  0  0  0
 49116  1  0  0  0
 50 51  1  0  0  0
 50117  1  0  0  0
 50118  1  0  0  0
 51 52  1  0  0  0
 51119  1  0  0  0
 51120  1  0  0  0
 52121  1  0  0  0
 52122  1  0  0  0
 53 54  1  0  0  0
 54 55  2  0  0  0
 54123  1  0  0  0
 55 57  1  0  0  0
 55124  1  0  0  0
 56 69  2  0  0  0
 57 58  2  0  0  0
 57125  1  0  0  0
 58126  1  0  0  0
 59 60  1  0  0  0
 59 61  1  0  0  0
 59 62  1  0  0  0
 60127  1  0  0  0
 60128  1  0  0  0
 60129  1  0  0  0
 61130  1  0  0  0
 61131  1  0  0  0
 61132  1  0  0  0
 62133  1  0  0  0
 62134  1  0  0  0
 62135  1  0  0  0
 63 65  1  0  0  0
 63136  1  0  0  0
 63137  1  0  0  0
 63138  1  0  0  0
 64139  1  0  0  0
 65140  1  0  0  0
 68 75  1  0  0  0
 71 72  1  0  0  0
 71 73  1  0  0  0
 71141  1  0  0  0
 71142  1  0  0  0
 72 74  1  0  0  0
 72143  1  0  0  0
 72144  1  0  0  0
 73 74  1  0  0  0
 73 75  1  0  0  0
 73145  1  0  0  0
 74 81  1  0  0  0
 74146  1  0  0  0
 75147  1  0  0  0
 75148  1  0  0  0
 76 78  1  0  0  0
 76 80  1  0  0  0
 76149  1  0  0  0
 76150  1  0  0  0
 77 78  1  0  0  0
 77 81  1  0  0  0
 77151  1  0  0  0
 77152  1  0  0  0
 78 79  1  0  0  0
 78153  1  0  0  0
 79154  1  0  0  0
 79155  1  0  0  0
 80156  1  0  0  0
 81157  1  0  0  0
 81158  1  0  0  0
M  CHG  1  81   1
M  ISO  4   1 100  68 101  75 101  80 100
M  END
> <chiral flag>
0

> <version>
0

> <s_m_source_file>
/data/baiqing/PycharmProjects/Reinvent-master-3.2/result/LINK_invent/BTK/process_docking_weight1_custom_sum_contain_oxygen_bond_distance_aromatic_linkinvent_7_9_3/rearranged_h_0184.sdf

> <i_m_source_file_index>
49

> <r_mmod_Potential_Energy-OPLS-2005>
136.869888305664

> <r_mmod_Stretch_Energy-OPLS-2005>
94.2698593139648

> <r_mmod_Bend_Energy-OPLS-2005>
361.643890380859

> <r_mmod_Torsional_Energy-OPLS-2005>
304.772399902344

> <r_mmod_Improper_Torsional_Energy-OPLS-2005>
7.3422384262085

> <r_mmod_Van_der_Waal_Energy-OPLS-2005>
120.444145202637

> <r_mmod_Electrostatic_Energy-OPLS-2005>
-331.515289306641

> <r_mmod_Solvation_Energy-OPLS-2005>
-490.920257568359

> <b_mmod_Minimization_Converged-OPLS-2005>
0

> <r_mmod_RMS_Derivative-OPLS-2005>
7.76468324661255

$$$$
49
                    3D
 Structure written by MMmdl.
156166  0  0  1  0            999 V2000
  -30.5695  -14.7910   20.4585 C   0  0  0  0  0  0
  -30.4455  -12.4818   19.4795 C   0  0  0  0  0  0
  -29.5183  -12.5181   18.2421 C   0  0  0  0  0  0
  -28.0443  -12.3313   18.6534 C   0  0  0  0  0  0
  -27.6451  -13.2287   19.8541 C   0  0  2  0  0  0
  -28.6896  -13.1568   20.9907 C   0  0  0  0  0  0
  -25.2527  -13.8183   20.5686 C   0  0  0  0  0  0
  -24.1816  -13.0438   20.9214 C   0  0  0  0  0  0
  -24.6400  -11.6913   20.8750 C   0  0  0  0  0  0
  -23.9071  -10.4292   21.0408 C   0  0  0  0  0  0
  -24.3620   -9.4207   21.9186 C   0  0  0  0  0  0
  -23.6295   -8.2242   22.0754 C   0  0  0  0  0  0
  -22.4277   -8.0281   21.3544 C   0  0  0  0  0  0
  -21.9913   -9.0256   20.4647 C   0  0  0  0  0  0
  -22.7242  -10.2136   20.3058 C   0  0  0  0  0  0
  -21.6853   -6.0736   22.5279 C   0  0  0  0  0  0
  -21.4014   -6.5639   23.8213 C   0  0  0  0  0  0
  -21.3659   -5.6792   24.9175 C   0  0  0  0  0  0
  -21.6044   -4.3055   24.7224 C   0  0  0  0  0  0
  -21.8819   -3.8146   23.4345 C   0  0  0  0  0  0
  -21.9193   -4.6964   22.3403 C   0  0  0  0  0  0
  -22.7837  -13.5226   21.1867 C   0  0  0  0  0  0
  -22.1661   -4.2149   21.0980 F   0  0  0  0  0  0
  -21.5630   -3.4539   25.7736 F   0  0  0  0  0  0
  -29.9900  -13.5362   20.4182 N   0  0  0  0  0  0
  -26.2953  -12.9383   20.3279 N   0  0  0  0  0  0
  -25.9331  -11.6531   20.5750 N   0  0  0  0  0  0
  -22.0476  -12.8219   22.0421 N   0  0  0  0  0  0
  -25.4214  -15.1906   20.4068 N   0  0  0  0  0  0
  -31.7459  -14.9241   20.1029 O   0  0  0  0  0  0
  -21.6640   -6.8880   21.4240 O   0  0  0  0  0  0
  -22.3528  -14.5533   20.6712 O   0  0  0  0  0  0
  -24.6352  -31.8525   23.1962 C   0  0  0  0  0  0
  -25.9160  -32.4740   23.8321 C   0  0  1  0  0  0
  -27.2179  -27.2275   20.1362 C   0  0  0  0  0  0
  -25.5942  -33.8543   24.2241 N   0  0  0  0  0  0
  -23.4342  -30.4748   21.5401 C   0  0  2  0  0  0
  -24.8832  -28.9199   20.1082 C   0  0  0  0  0  0
  -22.7526  -29.4588   22.4894 C   0  0  0  0  0  0
  -18.0297  -28.1390   22.8482 C   0  0  0  0  0  0
  -24.1490  -36.7277   23.2639 C   0  0  0  0  0  0
  -25.9837  -30.7550   21.3824 C   0  0  0  0  0  0
  -26.0571  -29.3754   20.7226 C   0  0  0  0  0  0
  -27.2286  -28.5436   20.7232 C   0  0  0  0  0  0
  -26.0251  -26.8601   19.4740 C   0  0  0  0  0  0
  -24.8749  -27.6719   19.4697 C   0  0  0  0  0  0
  -23.6550  -29.8099   20.1565 C   0  0  0  0  0  0
  -25.4117  -36.3061   24.0324 C   0  0  1  0  0  0
  -20.5905  -28.3708   23.1257 C   0  0  2  0  0  0
  -20.6784  -26.9420   22.5406 C   0  0  0  0  0  0
  -19.5758  -26.6383   21.5212 C   0  0  0  0  0  0
  -18.1940  -26.7931   22.1626 C   0  0  0  0  0  0
  -19.1552  -28.8866   23.2863 C   0  0  0  0  0  0
  -18.9470  -30.1465   23.8885 C   0  0  0  0  0  0
  -17.6468  -30.6589   24.0560 C   0  0  0  0  0  0
  -25.9063  -34.9432   23.5086 C   0  0  0  0  0  0
  -16.5359  -29.9084   23.6332 C   0  0  0  0  0  0
  -16.7283  -28.6502   23.0354 C   0  0  0  0  0  0
  -26.4512  -31.6577   25.0726 C   0  0  0  0  0  0
  -25.3719  -31.3738   26.1434 C   0  0  0  0  0  0
  -27.0368  -30.2986   24.6246 C   0  0  0  0  0  0
  -27.6056  -32.4327   25.7504 C   0  0  0  0  0  0
  -27.5580  -37.1791   24.8462 C   0  0  0  0  0  0
  -21.4228  -29.3048   22.3640 N   0  0  0  0  0  0
  -26.4287  -37.3765   23.9412 N   0  0  0  0  0  0
  -24.7035  -31.0460   22.0955 N   0  0  0  0  0  0
  -23.4210  -28.8124   23.3003 O   0  0  0  0  0  0
  -28.2801  -26.2795   20.2095 O   0  0  0  0  0  0
  -26.5638  -34.8913   22.4658 O   0  0  0  0  0  0
  -23.5491  -32.1360   23.7235 O   0  0  0  0  0  0
  -30.5593  -19.4685   19.7830 C   0  0  0  0  0  0
  -28.6850  -18.1246   21.1167 C   0  0  0  0  0  0
  -29.4554  -20.2242   20.3042 C   0  0  0  0  0  0
  -29.7767  -17.3540   20.5854 C   0  0  0  0  0  0
  -29.8695  -22.9005   20.9879 C   0  0  0  0  0  0
  -27.6287  -22.6910   21.4303 C   0  0  0  0  0  0
  -27.7312  -23.7215   19.3324 C   0  0  0  0  0  0
  -29.2495  -21.8128   20.0210 C   0  0  2  0  0  0
  -28.6602  -23.8239   21.4735 C   0  0  2  0  0  0
  -27.9391  -24.8101   20.4552 C   0  0  1  0  0  0
  -28.5212  -19.4946   20.9897 N   0  0  0  0  0  0
  -30.7188  -18.0959   19.9183 N   0  0  0  0  0  0
  -29.7425  -15.8683   20.7672 N   0  0  0  0  0  0
  -27.8500  -22.3544   20.0138 N   0  3  1  0  0  0
  -31.4834  -12.6258   19.1748 H   0  0  0  0  0  0
  -30.4100  -11.5031   19.9606 H   0  0  0  0  0  0
  -29.8090  -11.7450   17.5296 H   0  0  0  0  0  0
  -29.6354  -13.4709   17.7235 H   0  0  0  0  0  0
  -27.9075  -11.2820   18.9173 H   0  0  0  0  0  0
  -27.3864  -12.5189   17.8040 H   0  0  0  0  0  0
  -27.6398  -14.2506   19.4749 H   0  0  0  0  0  0
  -28.7357  -12.1510   21.4112 H   0  0  0  0  0  0
  -28.4117  -13.8144   21.8158 H   0  0  0  0  0  0
  -25.2765   -9.5683   22.4762 H   0  0  0  0  0  0
  -24.0004   -7.4633   22.7473 H   0  0  0  0  0  0
  -21.0844   -8.8776   19.8954 H   0  0  0  0  0  0
  -22.3699  -10.9676   19.6169 H   0  0  0  0  0  0
  -21.2006   -7.6147   23.9717 H   0  0  0  0  0  0
  -21.1482   -6.0521   25.9078 H   0  0  0  0  0  0
  -22.0598   -2.7608   23.2844 H   0  0  0  0  0  0
  -22.4087  -11.9880   22.4813 H   0  0  0  0  0  0
  -21.1093  -13.1248   22.2622 H   0  0  0  0  0  0
  -24.6405  -15.8324   20.4912 H   0  0  0  0  0  0
  -26.2410  -15.6198   19.9986 H   0  0  0  0  0  0
  -26.7227  -32.5380   23.1059 H   0  0  0  0  0  0
  -25.0075  -33.9674   25.0378 H   0  0  0  0  0  0
  -22.7324  -31.2984   21.3927 H   0  0  0  0  0  0
  -23.3758  -35.9603   23.3287 H   0  0  0  0  0  0
  -24.3582  -36.8917   22.2057 H   0  0  0  0  0  0
  -23.7235  -37.6469   23.6676 H   0  0  0  0  0  0
  -26.1285  -31.5152   20.6135 H   0  0  0  0  0  0
  -26.8584  -30.8030   22.0193 H   0  0  0  0  0  0
  -28.1228  -28.8847   21.2259 H   0  0  0  0  0  0
  -25.9540  -25.9109   18.9671 H   0  0  0  0  0  0
  -23.9803  -27.3218   18.9732 H   0  0  0  0  0  0
  -23.7823  -30.5869   19.4018 H   0  0  0  0  0  0
  -22.7725  -29.2459   19.8490 H   0  0  0  0  0  0
  -25.1299  -36.1901   25.0816 H   0  0  0  0  0  0
  -20.9998  -28.3290   24.1378 H   0  0  0  0  0  0
  -20.5683  -26.2320   23.3616 H   0  0  0  0  0  0
  -21.6651  -26.7438   22.1200 H   0  0  0  0  0  0
  -19.6919  -25.6291   21.1250 H   0  0  0  0  0  0
  -19.6694  -27.3186   20.6735 H   0  0  0  0  0  0
  -17.4208  -26.6675   21.4030 H   0  0  0  0  0  0
  -18.0342  -26.0077   22.9026 H   0  0  0  0  0  0
  -19.7946  -30.7284   24.2251 H   0  0  0  0  0  0
  -17.5021  -31.6268   24.5163 H   0  0  0  0  0  0
  -15.5359  -30.2982   23.7662 H   0  0  0  0  0  0
  -15.8684  -28.0815   22.7078 H   0  0  0  0  0  0
  -24.5904  -30.7078   25.7758 H   0  0  0  0  0  0
  -24.8899  -32.2910   26.4830 H   0  0  0  0  0  0
  -25.8022  -30.8935   27.0230 H   0  0  0  0  0  0
  -26.2966  -29.6724   24.1252 H   0  0  0  0  0  0
  -27.4010  -29.7265   25.4790 H   0  0  0  0  0  0
  -27.8861  -30.4248   23.9528 H   0  0  0  0  0  0
  -27.2657  -33.3635   26.2057 H   0  0  0  0  0  0
  -28.3879  -32.6874   25.0342 H   0  0  0  0  0  0
  -28.0710  -31.8469   26.5442 H   0  0  0  0  0  0
  -28.2580  -38.0106   24.7531 H   0  0  0  0  0  0
  -28.1095  -36.2637   24.6260 H   0  0  0  0  0  0
  -27.2302  -37.1402   25.8866 H   0  0  0  0  0  0
  -20.9421  -29.8772   21.6840 H   0  0  0  0  0  0
  -26.0162  -38.2835   24.1425 H   0  0  0  0  0  0
  -31.3295  -19.9724   19.2171 H   0  0  0  0  0  0
  -27.8942  -17.6212   21.6543 H   0  0  0  0  0  0
  -30.6429  -23.4873   20.4920 H   0  0  0  0  0  0
  -30.3370  -22.4093   21.8419 H   0  0  0  0  0  0
  -26.5984  -22.9879   21.6364 H   0  0  0  0  0  0
  -27.8571  -21.8709   22.1142 H   0  0  0  0  0  0
  -28.4639  -23.8330   18.5326 H   0  0  0  0  0  0
  -26.7460  -23.8197   18.8780 H   0  0  0  0  0  0
  -29.6609  -21.9603   19.0215 H   0  0  0  0  0  0
  -28.7938  -24.2522   22.4668 H   0  0  0  0  0  0
  -26.9620  -24.9408   20.9228 H   0  0  0  0  0  0
  -28.8593  -15.5469   21.1306 H   0  0  0  0  0  0
  -27.2008  -21.6672   19.6593 H   0  0  0  0  0  0
  1 25  1  0  0  0
  1 30  2  0  0  0
  1 83  1  0  0  0
  2  3  1  0  0  0
  2 25  1  0  0  0
  2 85  1  0  0  0
  2 86  1  0  0  0
  3  4  1  0  0  0
  3 87  1  0  0  0
  3 88  1  0  0  0
  4  5  1  0  0  0
  4 89  1  0  0  0
  4 90  1  0  0  0
  5  6  1  0  0  0
  5 26  1  0  0  0
  5 91  1  0  0  0
  6 25  1  0  0  0
  6 92  1  0  0  0
  6 93  1  0  0  0
  7  8  2  0  0  0
  7 26  1  0  0  0
  7 29  1  0  0  0
  8  9  1  0  0  0
  8 22  1  0  0  0
  9 10  1  0  0  0
  9 27  2  0  0  0
 10 11  2  0  0  0
 10 15  1  0  0  0
 11 12  1  0  0  0
 11 94  1  0  0  0
 12 13  2  0  0  0
 12 95  1  0  0  0
 13 14  1  0  0  0
 13 31  1  0  0  0
 14 15  2  0  0  0
 14 96  1  0  0  0
 15 97  1  0  0  0
 16 17  2  0  0  0
 16 21  1  0  0  0
 16 31  1  0  0  0
 17 18  1  0  0  0
 17 98  1  0  0  0
 18 19  2  0  0  0
 18 99  1  0  0  0
 19 20  1  0  0  0
 19 24  1  0  0  0
 20 21  2  0  0  0
 20100  1  0  0  0
 21 23  1  0  0  0
 22 28  1  0  0  0
 22 32  2  0  0  0
 26 27  1  0  0  0
 28101  1  0  0  0
 28102  1  0  0  0
 29103  1  0  0  0
 29104  1  0  0  0
 33 34  1  0  0  0
 33 66  1  0  0  0
 33 70  2  0  0  0
 34 36  1  0  0  0
 34 59  1  0  0  0
 34105  1  0  0  0
 35 44  2  0  0  0
 35 45  1  0  0  0
 35 68  1  0  0  0
 36 56  1  0  0  0
 36106  1  0  0  0
 37 39  1  0  0  0
 37 47  1  0  0  0
 37 66  1  0  0  0
 37107  1  0  0  0
 38 43  2  0  0  0
 38 46  1  0  0  0
 38 47  1  0  0  0
 39 64  1  0  0  0
 39 67  2  0  0  0
 40 52  1  0  0  0
 40 53  2  0  0  0
 40 58  1  0  0  0
 41108  1  0  0  0
 41109  1  0  0  0
 41110  1  0  0  0
 41 48  1  0  0  0
 42 43  1  0  0  0
 42 66  1  0  0  0
 42111  1  0  0  0
 42112  1  0  0  0
 43 44  1  0  0  0
 44113  1  0  0  0
 45 46  2  0  0  0
 45114  1  0  0  0
 46115  1  0  0  0
 47116  1  0  0  0
 47117  1  0  0  0
 48 56  1  0  0  0
 48 65  1  0  0  0
 48118  1  0  0  0
 49 50  1  0  0  0
 49 53  1  0  0  0
 49 64  1  0  0  0
 49119  1  0  0  0
 50 51  1  0  0  0
 50120  1  0  0  0
 50121  1  0  0  0
 51 52  1  0  0  0
 51122  1  0  0  0
 51123  1  0  0  0
 52124  1  0  0  0
 52125  1  0  0  0
 53 54  1  0  0  0
 54 55  2  0  0  0
 54126  1  0  0  0
 55 57  1  0  0  0
 55127  1  0  0  0
 56 69  2  0  0  0
 57 58  2  0  0  0
 57128  1  0  0  0
 58129  1  0  0  0
 59 60  1  0  0  0
 59 61  1  0  0  0
 59 62  1  0  0  0
 60130  1  0  0  0
 60131  1  0  0  0
 60132  1  0  0  0
 61133  1  0  0  0
 61134  1  0  0  0
 61135  1  0  0  0
 62136  1  0  0  0
 62137  1  0  0  0
 62138  1  0  0  0
 63 65  1  0  0  0
 63139  1  0  0  0
 63140  1  0  0  0
 63141  1  0  0  0
 64142  1  0  0  0
 65143  1  0  0  0
 68 80  1  0  0  0
 71 73  2  0  0  0
 71 82  1  0  0  0
 71144  1  0  0  0
 72 74  1  0  0  0
 72 81  2  0  0  0
 72145  1  0  0  0
 73 81  1  0  0  0
 73 78  1  0  0  0
 74 82  2  0  0  0
 74 83  1  0  0  0
 75 78  1  0  0  0
 75146  1  0  0  0
 75147  1  0  0  0
 75 79  1  0  0  0
 76 79  1  0  0  0
 76 84  1  0  0  0
 76148  1  0  0  0
 76149  1  0  0  0
 77 80  1  0  0  0
 77150  1  0  0  0
 77151  1  0  0  0
 77 84  1  0  0  0
 78 84  1  0  0  0
 78152  1  0  0  0
 79 80  1  0  0  0
 79153  1  0  0  0
 80154  1  0  0  0
 83155  1  0  0  0
 84156  1  0  0  0
M  CHG  1  84   1
M  ISO  4   1 100  68 101  80 101  83 100
M  END
> <chiral flag>
0

> <version>
0

> <s_m_source_file>
/data/baiqing/PycharmProjects/Reinvent-master-3.2/result/LINK_invent/BTK/process_docking_weight1_custom_sum_contain_oxygen_bond_distance_aromatic_linkinvent_7_9_3/rearranged_h_0184.sdf

> <i_m_source_file_index>
50

> <r_mmod_Potential_Energy-OPLS-2005>
349.967742919922

> <r_mmod_Stretch_Energy-OPLS-2005>
146.13134765625

> <r_mmod_Bend_Energy-OPLS-2005>
346.038665771484

> <r_mmod_Torsional_Energy-OPLS-2005>
307.223724365234

> <r_mmod_Improper_Torsional_Energy-OPLS-2005>
4.09844255447388

> <r_mmod_Van_der_Waal_Energy-OPLS-2005>
152.101608276367

> <r_mmod_Electrostatic_Energy-OPLS-2005>
-247.40673828125

> <r_mmod_Solvation_Energy-OPLS-2005>
-467.672393798828

> <b_mmod_Minimization_Converged-OPLS-2005>
0

> <r_mmod_RMS_Derivative-OPLS-2005>
0.225954249501228

$$$$
50
                    3D
 Structure written by MMmdl.
159169  0  0  1  0            999 V2000
  -30.5021  -15.0208   20.4318 C   0  0  0  0  0  0
  -30.4353  -12.6435   19.4875 C   0  0  0  0  0  0
  -29.5115  -12.5319   18.2503 C   0  0  0  0  0  0
  -28.0466  -12.3137   18.6724 C   0  0  0  0  0  0
  -27.6203  -13.2505   19.8320 C   0  0  2  0  0  0
  -28.6647  -13.3010   20.9633 C   0  0  0  0  0  0
  -25.2447  -13.8210   20.5723 C   0  0  0  0  0  0
  -24.1752  -13.0432   20.9187 C   0  0  0  0  0  0
  -24.6360  -11.6906   20.8725 C   0  0  0  0  0  0
  -23.9047  -10.4282   21.0388 C   0  0  0  0  0  0
  -24.3602   -9.4202   21.9168 C   0  0  0  0  0  0
  -23.6278   -8.2239   22.0748 C   0  0  0  0  0  0
  -22.4272   -8.0262   21.3532 C   0  0  0  0  0  0
  -21.9891   -9.0231   20.4641 C   0  0  0  0  0  0
  -22.7210  -10.2115   20.3043 C   0  0  0  0  0  0
  -21.6857   -6.0713   22.5253 C   0  0  0  0  0  0
  -21.4022   -6.5628   23.8184 C   0  0  0  0  0  0
  -21.3662   -5.6785   24.9152 C   0  0  0  0  0  0
  -21.6045   -4.3043   24.7206 C   0  0  0  0  0  0
  -21.8822   -3.8127   23.4334 C   0  0  0  0  0  0
  -21.9198   -4.6943   22.3385 C   0  0  0  0  0  0
  -22.7782  -13.5204   21.1841 C   0  0  0  0  0  0
  -22.1666   -4.2125   21.0966 F   0  0  0  0  0  0
  -21.5632   -3.4533   25.7726 F   0  0  0  0  0  0
  -29.9196  -13.7498   20.3491 N   0  0  0  0  0  0
  -26.2847  -12.9428   20.3247 N   0  0  0  0  0  0
  -25.9299  -11.6554   20.5734 N   0  0  0  0  0  0
  -22.0468  -12.8183   22.0422 N   0  0  0  0  0  0
  -25.4189  -15.1933   20.4195 N   0  0  0  0  0  0
  -31.7140  -15.0775   20.1867 O   0  0  0  0  0  0
  -21.6647   -6.8851   21.4217 O   0  0  0  0  0  0
  -22.3450  -14.5500   20.6691 O   0  0  0  0  0  0
  -24.6461  -31.8397   23.1854 C   0  0  0  0  0  0
  -25.9204  -32.4677   23.8250 C   0  0  1  0  0  0
  -27.2125  -27.0688   20.1632 C   0  0  0  0  0  0
  -25.5954  -33.8488   24.2181 N   0  0  0  0  0  0
  -23.4542  -30.4593   21.5319 C   0  0  2  0  0  0
  -24.9064  -28.8800   20.1088 C   0  0  0  0  0  0
  -22.7587  -29.4529   22.4830 C   0  0  0  0  0  0
  -18.0334  -28.1391   22.8496 C   0  0  0  0  0  0
  -24.1490  -36.7207   23.2656 C   0  0  0  0  0  0
  -26.0176  -30.6873   21.4026 C   0  0  0  0  0  0
  -26.0848  -29.2947   20.7421 C   0  0  0  0  0  0
  -27.2339  -28.4037   20.7587 C   0  0  0  0  0  0
  -26.0154  -26.7912   19.4588 C   0  0  0  0  0  0
  -24.8904  -27.6433   19.4516 C   0  0  0  0  0  0
  -23.6847  -29.7894   20.1518 C   0  0  0  0  0  0
  -25.4130  -36.3010   24.0323 C   0  0  1  0  0  0
  -20.5943  -28.3704   23.1231 C   0  0  2  0  0  0
  -20.6825  -26.9402   22.5408 C   0  0  0  0  0  0
  -19.5805  -26.6356   21.5223 C   0  0  0  0  0  0
  -18.1978  -26.7939   22.1611 C   0  0  0  0  0  0
  -19.1592  -28.8861   23.2855 C   0  0  0  0  0  0
  -18.9518  -30.1476   23.8853 C   0  0  0  0  0  0
  -17.6513  -30.6591   24.0569 C   0  0  0  0  0  0
  -25.9075  -34.9393   23.5058 C   0  0  0  0  0  0
  -16.5398  -29.9086   23.6358 C   0  0  0  0  0  0
  -16.7311  -28.6497   23.0379 C   0  0  0  0  0  0
  -26.4524  -31.6563   25.0705 C   0  0  0  0  0  0
  -25.3688  -31.3795   26.1382 C   0  0  0  0  0  0
  -27.0403  -30.2941   24.6329 C   0  0  0  0  0  0
  -27.6049  -32.4344   25.7483 C   0  0  0  0  0  0
  -27.5583  -37.1752   24.8471 C   0  0  0  0  0  0
  -21.4267  -29.3009   22.3566 N   0  0  0  0  0  0
  -26.4287  -37.3730   23.9428 N   0  0  0  0  0  0
  -24.7265  -31.0189   22.0928 N   0  0  0  0  0  0
  -23.4203  -28.8084   23.3003 O   0  0  0  0  0  0
  -28.2142  -26.0093   20.2790 O   0  0  0  0  0  0
  -26.5675  -34.8916   22.4639 O   0  0  0  0  0  0
  -23.5548  -32.1303   23.7013 O   0  0  0  0  0  0
  -28.5645  -21.7572   19.6096 C   0  0  0  0  0  0
  -28.5545  -23.0194   20.2885 C   0  0  0  0  0  0
  -29.3114  -21.2361   21.5842 C   0  0  0  0  0  0
  -28.8766  -19.7114   23.6849 C   0  0  0  0  0  0
  -29.4880  -20.9883   24.2141 C   0  0  0  0  0  0
  -29.6417  -16.9470   21.8126 C   0  0  0  0  0  0
  -29.8040  -20.5220   22.8089 C   0  0  0  0  0  0
  -29.9880  -17.7733   20.6064 C   0  0  2  0  0  0
  -28.7840  -18.8281   18.5835 C   0  0  0  0  0  0
  -27.8799  -24.5080   19.8998 C   0  0  0  0  0  0
  -28.9602  -19.0185   20.0987 C   0  0  2  0  0  0
  -29.0198  -20.6399   20.4005 N   0  0  0  0  0  0
  -29.0645  -22.5884   21.5065 N   0  3  0  0  0  0
  -29.7089  -16.2198   20.5803 N   0  0  0  0  0  0
  -31.4616  -12.8255   19.1640 H   0  0  0  0  0  0
  -30.4588  -11.7028   20.0400 H   0  0  0  0  0  0
  -29.8371  -11.7182   17.6007 H   0  0  0  0  0  0
  -29.5836  -13.4445   17.6562 H   0  0  0  0  0  0
  -27.9406  -11.2735   18.9793 H   0  0  0  0  0  0
  -27.3801  -12.4438   17.8189 H   0  0  0  0  0  0
  -27.5743  -14.2483   19.3941 H   0  0  0  0  0  0
  -28.7778  -12.3263   21.4403 H   0  0  0  0  0  0
  -28.3506  -13.9961   21.7433 H   0  0  0  0  0  0
  -25.2749   -9.5687   22.4735 H   0  0  0  0  0  0
  -23.9986   -7.4637   22.7475 H   0  0  0  0  0  0
  -21.0818   -8.8730   19.8950 H   0  0  0  0  0  0
  -22.3646  -10.9643   19.6151 H   0  0  0  0  0  0
  -21.2019   -7.6142   23.9671 H   0  0  0  0  0  0
  -21.1486   -6.0527   25.9051 H   0  0  0  0  0  0
  -22.0602   -2.7590   23.2834 H   0  0  0  0  0  0
  -22.4135  -11.9851   22.4773 H   0  0  0  0  0  0
  -21.1097  -13.1186   22.2682 H   0  0  0  0  0  0
  -24.6624  -15.8576   20.5402 H   0  0  0  0  0  0
  -26.2879  -15.6255   20.1311 H   0  0  0  0  0  0
  -26.7247  -32.5243   23.0953 H   0  0  0  0  0  0
  -25.0115  -33.9618   25.0334 H   0  0  0  0  0  0
  -22.7585  -31.2856   21.3749 H   0  0  0  0  0  0
  -23.3788  -35.9493   23.3283 H   0  0  0  0  0  0
  -24.3595  -36.8859   22.2077 H   0  0  0  0  0  0
  -23.7187  -37.6377   23.6700 H   0  0  0  0  0  0
  -26.1906  -31.4378   20.6305 H   0  0  0  0  0  0
  -26.8816  -30.7324   22.0541 H   0  0  0  0  0  0
  -28.1196  -28.7142   21.2938 H   0  0  0  0  0  0
  -25.8986  -25.8633   18.9208 H   0  0  0  0  0  0
  -23.9968  -27.3241   18.9338 H   0  0  0  0  0  0
  -23.8242  -30.5657   19.3978 H   0  0  0  0  0  0
  -22.7978  -29.2328   19.8421 H   0  0  0  0  0  0
  -25.1312  -36.1842   25.0809 H   0  0  0  0  0  0
  -21.0054  -28.3299   24.1347 H   0  0  0  0  0  0
  -20.5754  -26.2297   23.3618 H   0  0  0  0  0  0
  -21.6690  -26.7421   22.1195 H   0  0  0  0  0  0
  -19.6980  -25.6259   21.1274 H   0  0  0  0  0  0
  -19.6789  -27.3159   20.6756 H   0  0  0  0  0  0
  -17.4265  -26.6706   21.4000 H   0  0  0  0  0  0
  -18.0358  -26.0091   22.8998 H   0  0  0  0  0  0
  -19.8000  -30.7324   24.2154 H   0  0  0  0  0  0
  -17.5077  -31.6287   24.5154 H   0  0  0  0  0  0
  -15.5400  -30.2984   23.7717 H   0  0  0  0  0  0
  -15.8712  -28.0815   22.7100 H   0  0  0  0  0  0
  -24.5924  -30.7062   25.7731 H   0  0  0  0  0  0
  -24.8815  -32.2995   26.4608 H   0  0  0  0  0  0
  -25.7961  -30.9142   27.0265 H   0  0  0  0  0  0
  -26.3043  -29.6654   24.1297 H   0  0  0  0  0  0
  -27.3984  -29.7240   25.4910 H   0  0  0  0  0  0
  -27.8968  -30.4192   23.9696 H   0  0  0  0  0  0
  -27.2648  -33.3717   26.1897 H   0  0  0  0  0  0
  -28.3937  -32.6760   25.0345 H   0  0  0  0  0  0
  -28.0603  -31.8553   26.5524 H   0  0  0  0  0  0
  -28.2545  -38.0102   24.7561 H   0  0  0  0  0  0
  -28.1132  -36.2621   24.6233 H   0  0  0  0  0  0
  -27.2315  -37.1315   25.8881 H   0  0  0  0  0  0
  -20.9442  -29.8649   21.6716 H   0  0  0  0  0  0
  -26.0142  -38.2781   24.1481 H   0  0  0  0  0  0
  -28.2044  -21.5798   18.6077 H   0  0  0  0  0  0
  -27.8140  -19.7204   23.4480 H   0  0  0  0  0  0
  -29.2528  -18.7785   24.1013 H   0  0  0  0  0  0
  -30.2670  -20.8823   24.9674 H   0  0  0  0  0  0
  -28.8116  -21.8288   24.3587 H   0  0  0  0  0  0
  -28.6472  -17.0601   22.2418 H   0  0  0  0  0  0
  -30.4298  -16.7677   22.5425 H   0  0  0  0  0  0
  -30.7994  -20.1290   22.6121 H   0  0  0  0  0  0
  -31.0363  -18.0300   20.4688 H   0  0  0  0  0  0
  -28.6700  -17.7741   18.3285 H   0  0  0  0  0  0
  -29.6483  -19.2066   18.0377 H   0  0  0  0  0  0
  -27.8930  -19.3341   18.2127 H   0  0  0  0  0  0
  -26.8406  -24.3733   20.1976 H   0  0  0  0  0  0
  -27.8555  -24.5220   18.8097 H   0  0  0  0  0  0
  -27.9949  -18.7474   20.5281 H   0  0  0  0  0  0
  -29.1901  -23.2115   22.2958 H   0  0  0  0  0  0
  1 25  1  0  0  0
  1 30  2  0  0  0
  1 84  1  0  0  0
  2  3  1  0  0  0
  2 25  1  0  0  0
  2 85  1  0  0  0
  2 86  1  0  0  0
  3  4  1  0  0  0
  3 87  1  0  0  0
  3 88  1  0  0  0
  4  5  1  0  0  0
  4 89  1  0  0  0
  4 90  1  0  0  0
  5  6  1  0  0  0
  5 26  1  0  0  0
  5 91  1  0  0  0
  6 25  1  0  0  0
  6 92  1  0  0  0
  6 93  1  0  0  0
  7  8  2  0  0  0
  7 26  1  0  0  0
  7 29  1  0  0  0
  8  9  1  0  0  0
  8 22  1  0  0  0
  9 10  1  0  0  0
  9 27  2  0  0  0
 10 11  2  0  0  0
 10 15  1  0  0  0
 11 12  1  0  0  0
 11 94  1  0  0  0
 12 13  2  0  0  0
 12 95  1  0  0  0
 13 14  1  0  0  0
 13 31  1  0  0  0
 14 15  2  0  0  0
 14 96  1  0  0  0
 15 97  1  0  0  0
 16 17  2  0  0  0
 16 21  1  0  0  0
 16 31  1  0  0  0
 17 18  1  0  0  0
 17 98  1  0  0  0
 18 19  2  0  0  0
 18 99  1  0  0  0
 19 20  1  0  0  0
 19 24  1  0  0  0
 20 21  2  0  0  0
 20100  1  0  0  0
 21 23  1  0  0  0
 22 28  1  0  0  0
 22 32  2  0  0  0
 26 27  1  0  0  0
 28101  1  0  0  0
 28102  1  0  0  0
 29103  1  0  0  0
 29104  1  0  0  0
 33 34  1  0  0  0
 33 66  1  0  0  0
 33 70  2  0  0  0
 34 36  1  0  0  0
 34 59  1  0  0  0
 34105  1  0  0  0
 35 44  2  0  0  0
 35 45  1  0  0  0
 35 68  1  0  0  0
 36 56  1  0  0  0
 36106  1  0  0  0
 37 39  1  0  0  0
 37 47  1  0  0  0
 37 66  1  0  0  0
 37107  1  0  0  0
 38 43  2  0  0  0
 38 46  1  0  0  0
 38 47  1  0  0  0
 39 64  1  0  0  0
 39 67  2  0  0  0
 40 52  1  0  0  0
 40 53  2  0  0  0
 40 58  1  0  0  0
 41108  1  0  0  0
 41109  1  0  0  0
 41110  1  0  0  0
 41 48  1  0  0  0
 42 43  1  0  0  0
 42 66  1  0  0  0
 42111  1  0  0  0
 42112  1  0  0  0
 43 44  1  0  0  0
 44113  1  0  0  0
 45 46  2  0  0  0
 45114  1  0  0  0
 46115  1  0  0  0
 47116  1  0  0  0
 47117  1  0  0  0
 48 56  1  0  0  0
 48 65  1  0  0  0
 48118  1  0  0  0
 49 50  1  0  0  0
 49 53  1  0  0  0
 49 64  1  0  0  0
 49119  1  0  0  0
 50 51  1  0  0  0
 50120  1  0  0  0
 50121  1  0  0  0
 51 52  1  0  0  0
 51122  1  0  0  0
 51123  1  0  0  0
 52124  1  0  0  0
 52125  1  0  0  0
 53 54  1  0  0  0
 54 55  2  0  0  0
 54126  1  0  0  0
 55 57  1  0  0  0
 55127  1  0  0  0
 56 69  2  0  0  0
 57 58  2  0  0  0
 57128  1  0  0  0
 58129  1  0  0  0
 59 60  1  0  0  0
 59 61  1  0  0  0
 59 62  1  0  0  0
 60130  1  0  0  0
 60131  1  0  0  0
 60132  1  0  0  0
 61133  1  0  0  0
 61134  1  0  0  0
 61135  1  0  0  0
 62136  1  0  0  0
 62137  1  0  0  0
 62138  1  0  0  0
 63 65  1  0  0  0
 63139  1  0  0  0
 63140  1  0  0  0
 63141  1  0  0  0
 64142  1  0  0  0
 65143  1  0  0  0
 68 80  1  0  0  0
 71 72  2  0  0  0
 71 82  1  0  0  0
 71144  1  0  0  0
 72 80  1  0  0  0
 72 83  1  0  0  0
 73 82  1  0  0  0
 73 83  2  0  0  0
 73 77  1  0  0  0
 74 75  1  0  0  0
 74 77  1  0  0  0
 74145  1  0  0  0
 74146  1  0  0  0
 75 77  1  0  0  0
 75147  1  0  0  0
 75148  1  0  0  0
 76 84  1  0  0  0
 76149  1  0  0  0
 76150  1  0  0  0
 76 78  1  0  0  0
 77151  1  0  0  0
 78 81  1  0  0  0
 78 84  1  0  0  0
 78152  1  0  0  0
 79153  1  0  0  0
 79154  1  0  0  0
 79155  1  0  0  0
 79 81  1  0  0  0
 80156  1  0  0  0
 80157  1  0  0  0
 81 82  1  0  0  0
 81158  1  0  0  0
 83159  1  0  0  0
M  CHG  1  83   1
M  ISO  4   1 100  68 101  80 101  84 100
M  END
> <chiral flag>
0

> <version>
0

> <s_m_source_file>
/data/baiqing/PycharmProjects/Reinvent-master-3.2/result/LINK_invent/BTK/process_docking_weight1_custom_sum_contain_oxygen_bond_distance_aromatic_linkinvent_7_9_3/rearranged_h_0184.sdf

> <i_m_source_file_index>
51

> <r_mmod_Potential_Energy-OPLS-2005>
764.755676269531

> <r_mmod_Stretch_Energy-OPLS-2005>
331.051116943359

> <r_mmod_Bend_Energy-OPLS-2005>
311.341125488281

> <r_mmod_Torsional_Energy-OPLS-2005>
382.668548583984

> <r_mmod_Improper_Torsional_Energy-OPLS-2005>
14.8613414764404

> <r_mmod_Van_der_Waal_Energy-OPLS-2005>
102.244415283203

> <r_mmod_Electrostatic_Energy-OPLS-2005>
-220.624404907227

> <r_mmod_Solvation_Energy-OPLS-2005>
-417.102874755859

> <b_mmod_Minimization_Converged-OPLS-2005>
0

> <r_mmod_RMS_Derivative-OPLS-2005>
2.88515210151672

$$$$
51
                    3D
 Structure written by MMmdl.
150159  0  0  1  0            999 V2000
  -30.5595  -14.9854   20.4008 C   0  0  0  0  0  0
  -30.4272  -12.6152   19.4974 C   0  0  0  0  0  0
  -29.5158  -12.5155   18.2549 C   0  0  0  0  0  0
  -28.0529  -12.2994   18.6834 C   0  0  0  0  0  0
  -27.6215  -13.2538   19.8294 C   0  0  2  0  0  0
  -28.6642  -13.3280   20.9631 C   0  0  0  0  0  0
  -25.2448  -13.8216   20.5730 C   0  0  0  0  0  0
  -24.1769  -13.0437   20.9226 C   0  0  0  0  0  0
  -24.6391  -11.6919   20.8759 C   0  0  0  0  0  0
  -23.9077  -10.4288   21.0417 C   0  0  0  0  0  0
  -24.3631   -9.4198   21.9190 C   0  0  0  0  0  0
  -23.6305   -8.2241   22.0757 C   0  0  0  0  0  0
  -22.4280   -8.0287   21.3556 C   0  0  0  0  0  0
  -21.9920   -9.0256   20.4651 C   0  0  0  0  0  0
  -22.7250  -10.2137   20.3060 C   0  0  0  0  0  0
  -21.6849   -6.0750   22.5279 C   0  0  0  0  0  0
  -21.4002   -6.5653   23.8209 C   0  0  0  0  0  0
  -21.3641   -5.6806   24.9174 C   0  0  0  0  0  0
  -21.6030   -4.3070   24.7219 C   0  0  0  0  0  0
  -21.8817   -3.8161   23.4347 C   0  0  0  0  0  0
  -21.9192   -4.6980   22.3409 C   0  0  0  0  0  0
  -22.7792  -13.5213   21.1872 C   0  0  0  0  0  0
  -22.1665   -4.2173   21.0983 F   0  0  0  0  0  0
  -21.5617   -3.4555   25.7731 F   0  0  0  0  0  0
  -29.9240  -13.7431   20.3390 N   0  0  0  0  0  0
  -26.2860  -12.9460   20.3244 N   0  0  0  0  0  0
  -25.9324  -11.6587   20.5739 N   0  0  0  0  0  0
  -22.0460  -12.8211   22.0440 N   0  0  0  0  0  0
  -25.4143  -15.1935   20.4151 N   0  0  0  0  0  0
  -31.7730  -14.9705   20.1698 O   0  0  0  0  0  0
  -21.6639   -6.8885   21.4240 O   0  0  0  0  0  0
  -22.3478  -14.5524   20.6720 O   0  0  0  0  0  0
  -24.6468  -31.8429   23.1853 C   0  0  0  0  0  0
  -25.9235  -32.4689   23.8240 C   0  0  1  0  0  0
  -27.1973  -27.0959   20.1562 C   0  0  0  0  0  0
  -25.5972  -33.8493   24.2151 N   0  0  0  0  0  0
  -23.4503  -30.4640   21.5344 C   0  0  2  0  0  0
  -24.8971  -28.8892   20.1084 C   0  0  0  0  0  0
  -22.7572  -29.4570   22.4874 C   0  0  0  0  0  0
  -18.0285  -28.1423   22.8495 C   0  0  0  0  0  0
  -24.1464  -36.7210   23.2656 C   0  0  0  0  0  0
  -26.0135  -30.7004   21.3956 C   0  0  0  0  0  0
  -26.0772  -29.3114   20.7324 C   0  0  0  0  0  0
  -27.2333  -28.4331   20.7370 C   0  0  0  0  0  0
  -26.0006  -26.8019   19.4682 C   0  0  0  0  0  0
  -24.8759  -27.6501   19.4558 C   0  0  0  0  0  0
  -23.6742  -29.7924   20.1547 C   0  0  0  0  0  0
  -25.4099  -36.3011   24.0325 C   0  0  1  0  0  0
  -20.5906  -28.3751   23.1233 C   0  0  2  0  0  0
  -20.6789  -26.9449   22.5410 C   0  0  0  0  0  0
  -19.5741  -26.6374   21.5247 C   0  0  0  0  0  0
  -18.1909  -26.7966   22.1628 C   0  0  0  0  0  0
  -19.1546  -28.8902   23.2858 C   0  0  0  0  0  0
  -18.9482  -30.1510   23.8871 C   0  0  0  0  0  0
  -17.6486  -30.6633   24.0562 C   0  0  0  0  0  0
  -25.9074  -34.9405   23.5030 C   0  0  0  0  0  0
  -16.5368  -29.9124   23.6377 C   0  0  0  0  0  0
  -16.7268  -28.6537   23.0400 C   0  0  0  0  0  0
  -26.4526  -31.6610   25.0732 C   0  0  0  0  0  0
  -25.3680  -31.3898   26.1416 C   0  0  0  0  0  0
  -27.0422  -30.2995   24.6410 C   0  0  0  0  0  0
  -27.6044  -32.4426   25.7485 C   0  0  0  0  0  0
  -27.5539  -37.1733   24.8465 C   0  0  0  0  0  0
  -21.4255  -29.3088   22.3613 N   0  0  0  0  0  0
  -26.4229  -37.3747   23.9445 N   0  0  0  0  0  0
  -24.7241  -31.0241   22.0918 N   0  0  0  0  0  0
  -23.4208  -28.8112   23.3034 O   0  0  0  0  0  0
  -28.2023  -26.0481   20.2011 O   0  0  0  0  0  0
  -26.5660  -34.8926   22.4613 O   0  0  0  0  0  0
  -23.5583  -32.1311   23.7047 O   0  0  0  0  0  0
  -27.9236  -22.0983   19.4274 C   0  0  0  0  0  0
  -28.2668  -20.6807   19.4438 C   0  0  0  0  0  0
  -29.3501  -22.4060   21.2435 C   0  0  0  0  0  0
  -28.4450  -23.0792   20.3493 C   0  0  0  0  0  0
  -29.1619  -20.0936   20.3968 C   0  0  0  0  0  0
  -28.8777  -17.1243   20.9706 C   0  0  0  0  0  0
  -30.2873  -17.4932   19.4823 C   0  0  0  0  0  0
  -29.6136  -18.4767   20.5211 C   0  0  0  0  0  0
  -27.7625  -24.5885   20.5872 C   0  0  0  0  0  0
  -29.6817  -21.0403   21.2622 N   0  0  0  0  0  0
  -29.8701  -16.2378   20.2326 N   0  0  0  0  0  0
  -31.4608  -12.7557   19.1811 H   0  0  0  0  0  0
  -30.4202  -11.6817   20.0601 H   0  0  0  0  0  0
  -29.8436  -11.6982   17.6107 H   0  0  0  0  0  0
  -29.5965  -13.4274   17.6622 H   0  0  0  0  0  0
  -27.9639  -11.2635   19.0161 H   0  0  0  0  0  0
  -27.3837  -12.4014   17.8271 H   0  0  0  0  0  0
  -27.5703  -14.2452   19.3784 H   0  0  0  0  0  0
  -28.7665  -12.3677   21.4692 H   0  0  0  0  0  0
  -28.3569  -14.0507   21.7194 H   0  0  0  0  0  0
  -25.2783   -9.5674   22.4755 H   0  0  0  0  0  0
  -23.9999   -7.4639   22.7485 H   0  0  0  0  0  0
  -21.0843   -8.8780   19.8967 H   0  0  0  0  0  0
  -22.3710  -10.9679   19.6166 H   0  0  0  0  0  0
  -21.1991   -7.6163   23.9718 H   0  0  0  0  0  0
  -21.1446   -6.0542   25.9075 H   0  0  0  0  0  0
  -22.0607   -2.7630   23.2840 H   0  0  0  0  0  0
  -22.4098  -11.9865   22.4799 H   0  0  0  0  0  0
  -21.1092  -13.1236   22.2689 H   0  0  0  0  0  0
  -24.6472  -15.8472   20.5200 H   0  0  0  0  0  0
  -26.2631  -15.6267   20.0776 H   0  0  0  0  0  0
  -26.7303  -32.5264   23.0960 H   0  0  0  0  0  0
  -25.0152  -33.9620   25.0322 H   0  0  0  0  0  0
  -22.7543  -31.2911   21.3760 H   0  0  0  0  0  0
  -23.3792  -35.9475   23.3253 H   0  0  0  0  0  0
  -24.3555  -36.8912   22.2085 H   0  0  0  0  0  0
  -23.7137  -37.6345   23.6744 H   0  0  0  0  0  0
  -26.1856  -31.4582   20.6295 H   0  0  0  0  0  0
  -26.8789  -30.7377   22.0454 H   0  0  0  0  0  0
  -28.1326  -28.7514   21.2432 H   0  0  0  0  0  0
  -25.8986  -25.8672   18.9365 H   0  0  0  0  0  0
  -23.9824  -27.3289   18.9387 H   0  0  0  0  0  0
  -23.7991  -30.5640   19.3946 H   0  0  0  0  0  0
  -22.7868  -29.2312   19.8530 H   0  0  0  0  0  0
  -25.1282  -36.1802   25.0819 H   0  0  0  0  0  0
  -20.9966  -28.3337   24.1366 H   0  0  0  0  0  0
  -20.5727  -26.2363   23.3644 H   0  0  0  0  0  0
  -21.6633  -26.7483   22.1146 H   0  0  0  0  0  0
  -19.6910  -25.6272   21.1301 H   0  0  0  0  0  0
  -19.6678  -27.3162   20.6772 H   0  0  0  0  0  0
  -17.4178  -26.6757   21.4025 H   0  0  0  0  0  0
  -18.0260  -26.0119   22.9025 H   0  0  0  0  0  0
  -19.7978  -30.7330   24.2193 H   0  0  0  0  0  0
  -17.5062  -31.6330   24.5156 H   0  0  0  0  0  0
  -15.5371  -30.3036   23.7772 H   0  0  0  0  0  0
  -15.8652  -28.0864   22.7178 H   0  0  0  0  0  0
  -24.5733  -30.7416   25.7692 H   0  0  0  0  0  0
  -24.9054  -32.3167   26.4828 H   0  0  0  0  0  0
  -25.7873  -30.8974   27.0202 H   0  0  0  0  0  0
  -26.3102  -29.6681   24.1355 H   0  0  0  0  0  0
  -27.3958  -29.7330   25.5042 H   0  0  0  0  0  0
  -27.9023  -30.4221   23.9821 H   0  0  0  0  0  0
  -27.2641  -33.3816   26.1846 H   0  0  0  0  0  0
  -28.3926  -32.6835   25.0346 H   0  0  0  0  0  0
  -28.0615  -31.8707   26.5563 H   0  0  0  0  0  0
  -28.2516  -38.0069   24.7565 H   0  0  0  0  0  0
  -28.1065  -36.2603   24.6194 H   0  0  0  0  0  0
  -27.2278  -37.1238   25.8872 H   0  0  0  0  0  0
  -20.9472  -29.8776   21.6754 H   0  0  0  0  0  0
  -26.0086  -38.2787   24.1554 H   0  0  0  0  0  0
  -27.1788  -22.4244   18.7116 H   0  0  0  0  0  0
  -27.7962  -20.0326   18.7128 H   0  0  0  0  0  0
  -29.7964  -22.9745   22.0473 H   0  0  0  0  0  0
  -27.8684  -17.0519   20.5621 H   0  0  0  0  0  0
  -28.8474  -16.9853   22.0512 H   0  0  0  0  0  0
  -31.3621  -17.6462   19.3899 H   0  0  0  0  0  0
  -29.8225  -17.5644   18.4985 H   0  0  0  0  0  0
  -30.3871  -18.5834   21.2837 H   0  0  0  0  0  0
  -27.6634  -24.6433   21.6720 H   0  0  0  0  0  0
  -26.7335  -24.4461   20.2598 H   0  0  0  0  0  0
  1 25  1  0  0  0
  1 30  2  0  0  0
  1 81  1  0  0  0
  2  3  1  0  0  0
  2 25  1  0  0  0
  2 82  1  0  0  0
  2 83  1  0  0  0
  3  4  1  0  0  0
  3 84  1  0  0  0
  3 85  1  0  0  0
  4  5  1  0  0  0
  4 86  1  0  0  0
  4 87  1  0  0  0
  5  6  1  0  0  0
  5 26  1  0  0  0
  5 88  1  0  0  0
  6 25  1  0  0  0
  6 89  1  0  0  0
  6 90  1  0  0  0
  7  8  2  0  0  0
  7 26  1  0  0  0
  7 29  1  0  0  0
  8  9  1  0  0  0
  8 22  1  0  0  0
  9 10  1  0  0  0
  9 27  2  0  0  0
 10 11  2  0  0  0
 10 15  1  0  0  0
 11 12  1  0  0  0
 11 91  1  0  0  0
 12 13  2  0  0  0
 12 92  1  0  0  0
 13 14  1  0  0  0
 13 31  1  0  0  0
 14 15  2  0  0  0
 14 93  1  0  0  0
 15 94  1  0  0  0
 16 17  2  0  0  0
 16 21  1  0  0  0
 16 31  1  0  0  0
 17 18  1  0  0  0
 17 95  1  0  0  0
 18 19  2  0  0  0
 18 96  1  0  0  0
 19 20  1  0  0  0
 19 24  1  0  0  0
 20 21  2  0  0  0
 20 97  1  0  0  0
 21 23  1  0  0  0
 22 28  1  0  0  0
 22 32  2  0  0  0
 26 27  1  0  0  0
 28 98  1  0  0  0
 28 99  1  0  0  0
 29100  1  0  0  0
 29101  1  0  0  0
 33 34  1  0  0  0
 33 66  1  0  0  0
 33 70  2  0  0  0
 34 36  1  0  0  0
 34 59  1  0  0  0
 34102  1  0  0  0
 35 44  2  0  0  0
 35 45  1  0  0  0
 35 68  1  0  0  0
 36 56  1  0  0  0
 36103  1  0  0  0
 37 39  1  0  0  0
 37 47  1  0  0  0
 37 66  1  0  0  0
 37104  1  0  0  0
 38 43  2  0  0  0
 38 46  1  0  0  0
 38 47  1  0  0  0
 39 64  1  0  0  0
 39 67  2  0  0  0
 40 52  1  0  0  0
 40 53  2  0  0  0
 40 58  1  0  0  0
 41105  1  0  0  0
 41106  1  0  0  0
 41107  1  0  0  0
 41 48  1  0  0  0
 42 43  1  0  0  0
 42 66  1  0  0  0
 42108  1  0  0  0
 42109  1  0  0  0
 43 44  1  0  0  0
 44110  1  0  0  0
 45 46  2  0  0  0
 45111  1  0  0  0
 46112  1  0  0  0
 47113  1  0  0  0
 47114  1  0  0  0
 48 56  1  0  0  0
 48 65  1  0  0  0
 48115  1  0  0  0
 49 50  1  0  0  0
 49 53  1  0  0  0
 49 64  1  0  0  0
 49116  1  0  0  0
 50 51  1  0  0  0
 50117  1  0  0  0
 50118  1  0  0  0
 51 52  1  0  0  0
 51119  1  0  0  0
 51120  1  0  0  0
 52121  1  0  0  0
 52122  1  0  0  0
 53 54  1  0  0  0
 54 55  2  0  0  0
 54123  1  0  0  0
 55 57  1  0  0  0
 55124  1  0  0  0
 56 69  2  0  0  0
 57 58  2  0  0  0
 57125  1  0  0  0
 58126  1  0  0  0
 59 60  1  0  0  0
 59 61  1  0  0  0
 59 62  1  0  0  0
 60127  1  0  0  0
 60128  1  0  0  0
 60129  1  0  0  0
 61130  1  0  0  0
 61131  1  0  0  0
 61132  1  0  0  0
 62133  1  0  0  0
 62134  1  0  0  0
 62135  1  0  0  0
 63 65  1  0  0  0
 63136  1  0  0  0
 63137  1  0  0  0
 63138  1  0  0  0
 64139  1  0  0  0
 65140  1  0  0  0
 68 79  1  0  0  0
 71 72  2  0  0  0
 71 74  1  0  0  0
 71141  1  0  0  0
 72 75  1  0  0  0
 72142  1  0  0  0
 73 74  2  0  0  0
 73 80  1  0  0  0
 73143  1  0  0  0
 74 79  1  0  0  0
 75 80  2  0  0  0
 75 78  1  0  0  0
 76 78  1  0  0  0
 76 81  1  0  0  0
 76144  1  0  0  0
 76145  1  0  0  0
 77 78  1  0  0  0
 77 81  1  0  0  0
 77146  1  0  0  0
 77147  1  0  0  0
 78148  1  0  0  0
 79149  1  0  0  0
 79150  1  0  0  0
M  ISO  4   1 100  68 101  79 101  81 100
M  END
> <chiral flag>
0

> <version>
0

> <s_m_source_file>
/data/baiqing/PycharmProjects/Reinvent-master-3.2/result/LINK_invent/BTK/process_docking_weight1_custom_sum_contain_oxygen_bond_distance_aromatic_linkinvent_7_9_3/rearranged_h_0184.sdf

> <i_m_source_file_index>
52

> <r_mmod_Potential_Energy-OPLS-2005>
581.023559570312

> <r_mmod_Stretch_Energy-OPLS-2005>
253.867218017578

> <r_mmod_Bend_Energy-OPLS-2005>
317.722778320312

> <r_mmod_Torsional_Energy-OPLS-2005>
289.509429931641

> <r_mmod_Improper_Torsional_Energy-OPLS-2005>
20.9323501586914

> <r_mmod_Van_der_Waal_Energy-OPLS-2005>
132.551818847656

> <r_mmod_Electrostatic_Energy-OPLS-2005>
-441.501373291016

> <r_mmod_Solvation_Energy-OPLS-2005>
-223.053787231445

> <b_mmod_Minimization_Converged-OPLS-2005>
0

> <r_mmod_RMS_Derivative-OPLS-2005>
3.34109210968018

$$$$
52
                    3D
 Structure written by MMmdl.
162172  0  0  1  0            999 V2000
  -30.6453  -14.9728   20.3850 C   0  0  0  0  0  0
  -30.4085  -12.6040   19.5215 C   0  0  0  0  0  0
  -29.5236  -12.4800   18.2531 C   0  0  0  0  0  0
  -28.0256  -12.7504   18.5294 C   0  0  0  0  0  0
  -27.7187  -12.7970   20.0323 C   0  0  2  0  0  0
  -28.6664  -13.5231   20.9872 C   0  0  0  0  0  0
  -25.3067  -13.7590   20.5611 C   0  0  0  0  0  0
  -24.1867  -13.0366   20.9080 C   0  0  0  0  0  0
  -24.5831  -11.6680   20.8830 C   0  0  0  0  0  0
  -23.8519  -10.4203   21.0551 C   0  0  0  0  0  0
  -24.3267   -9.4150   21.9269 C   0  0  0  0  0  0
  -23.6087   -8.2126   22.0775 C   0  0  0  0  0  0
  -22.4084   -8.0168   21.3534 C   0  0  0  0  0  0
  -21.9607   -9.0109   20.4654 C   0  0  0  0  0  0
  -22.6785  -10.2054   20.3118 C   0  0  0  0  0  0
  -21.6766   -6.0682   22.5291 C   0  0  0  0  0  0
  -21.3974   -6.5619   23.8223 C   0  0  0  0  0  0
  -21.3629   -5.6770   24.9180 C   0  0  0  0  0  0
  -21.6035   -4.3038   24.7225 C   0  0  0  0  0  0
  -21.8821   -3.8126   23.4347 C   0  0  0  0  0  0
  -21.9165   -4.6937   22.3404 C   0  0  0  0  0  0
  -22.7990  -13.5470   21.1706 C   0  0  0  0  0  0
  -22.1637   -4.2142   21.0978 F   0  0  0  0  0  0
  -21.5621   -3.4521   25.7738 F   0  0  0  0  0  0
  -29.9456  -13.7791   20.3236 N   0  0  0  0  0  0
  -26.3111  -12.7997   20.3912 N   0  0  0  0  0  0
  -25.8504  -11.5580   20.5966 N   0  0  0  0  0  0
  -22.0490  -12.8570   22.0281 N   0  0  0  0  0  0
  -25.5447  -15.1191   20.3854 N   0  0  0  0  0  0
  -31.8526  -14.9194   20.1306 O   0  0  0  0  0  0
  -21.6499   -6.8757   21.4224 O   0  0  0  0  0  0
  -22.3780  -14.5746   20.6464 O   0  0  0  0  0  0
  -24.6417  -31.8442   23.1874 C   0  0  0  0  0  0
  -25.9182  -32.4709   23.8281 C   0  0  1  0  0  0
  -27.2273  -27.1529   20.1632 C   0  0  0  0  0  0
  -25.5932  -33.8513   24.2201 N   0  0  0  0  0  0
  -23.4441  -30.4582   21.5340 C   0  0  2  0  0  0
  -24.8944  -28.8764   20.1238 C   0  0  0  0  0  0
  -22.7563  -29.4530   22.4903 C   0  0  0  0  0  0
  -18.0290  -28.1401   22.8469 C   0  0  0  0  0  0
  -24.1476  -36.7265   23.2645 C   0  0  0  0  0  0
  -25.9977  -30.7255   21.3793 C   0  0  0  0  0  0
  -26.0709  -29.3312   20.7344 C   0  0  0  0  0  0
  -27.2422  -28.4897   20.7229 C   0  0  0  0  0  0
  -26.0221  -26.7790   19.5343 C   0  0  0  0  0  0
  -24.8817  -27.6135   19.5086 C   0  0  0  0  0  0
  -23.6693  -29.7770   20.1575 C   0  0  0  0  0  0
  -25.4114  -36.3059   24.0325 C   0  0  1  0  0  0
  -20.5905  -28.3708   23.1261 C   0  0  2  0  0  0
  -20.6787  -26.9422   22.5416 C   0  0  0  0  0  0
  -19.5767  -26.6383   21.5214 C   0  0  0  0  0  0
  -18.1941  -26.7938   22.1615 C   0  0  0  0  0  0
  -19.1548  -28.8878   23.2848 C   0  0  0  0  0  0
  -18.9464  -30.1479   23.8870 C   0  0  0  0  0  0
  -17.6463  -30.6600   24.0556 C   0  0  0  0  0  0
  -25.9064  -34.9425   23.5077 C   0  0  0  0  0  0
  -16.5353  -29.9092   23.6340 C   0  0  0  0  0  0
  -16.7277  -28.6514   23.0356 C   0  0  0  0  0  0
  -26.4517  -31.6585   25.0717 C   0  0  0  0  0  0
  -25.3709  -31.3771   26.1416 C   0  0  0  0  0  0
  -27.0389  -30.2993   24.6273 C   0  0  0  0  0  0
  -27.6055  -32.4352   25.7514 C   0  0  0  0  0  0
  -27.5575  -37.1790   24.8466 C   0  0  0  0  0  0
  -21.4262  -29.3025   22.3642 N   0  0  0  0  0  0
  -26.4284  -37.3768   23.9413 N   0  0  0  0  0  0
  -24.7147  -31.0305   22.0901 N   0  0  0  0  0  0
  -23.4216  -28.8097   23.3059 O   0  0  0  0  0  0
  -28.3491  -26.2707   20.0418 O   0  0  0  0  0  0
  -26.5659  -34.8919   22.4658 O   0  0  0  0  0  0
  -23.5538  -32.1318   23.7091 O   0  0  0  0  0  0
  -26.9357  -20.9732   19.9443 C   0  0  0  0  0  0
  -26.2754  -22.1850   19.8203 C   0  0  0  0  0  0
  -28.3246  -20.9161   20.2084 C   0  0  0  0  0  0
  -28.1401  -23.4071   20.2671 C   0  0  0  0  0  0
  -25.9504  -19.8311   19.8256 C   0  0  0  0  0  0
  -24.7931  -22.0275   19.6119 C   0  0  0  0  0  0
  -24.5848  -20.4980   19.5488 C   0  0  0  0  0  0
  -30.1569  -18.8218   19.4217 C   0  0  0  0  0  0
  -29.0725  -18.5246   21.6114 C   0  0  0  0  0  0
  -30.1731  -17.2125   19.2165 C   0  0  0  0  0  0
  -29.8232  -17.0799   21.6196 C   0  0  0  0  0  0
  -28.9900  -19.3824   20.2936 C   0  0  0  0  0  0
  -28.5995  -24.9093   20.7399 C   0  0  0  0  0  0
  -26.8514  -23.3830   19.9431 N   0  0  0  0  0  0
  -28.8892  -22.2094   20.4113 N   0  0  0  0  0  0
  -29.9868  -16.2465   20.3751 N   0  0  0  0  0  0
  -31.4576  -12.6740   19.2311 H   0  0  0  0  0  0
  -30.3426  -11.7016   20.1330 H   0  0  0  0  0  0
  -29.6507  -11.4817   17.8295 H   0  0  0  0  0  0
  -29.8738  -13.1729   17.4885 H   0  0  0  0  0  0
  -27.4092  -12.0014   18.0314 H   0  0  0  0  0  0
  -27.7493  -13.7107   18.0913 H   0  0  0  0  0  0
  -28.0414  -11.7790   20.2726 H   0  0  0  0  0  0
  -28.8251  -12.9511   21.9016 H   0  0  0  0  0  0
  -28.2138  -14.4661   21.2964 H   0  0  0  0  0  0
  -25.2390   -9.5720   22.4839 H   0  0  0  0  0  0
  -23.9826   -7.4520   22.7492 H   0  0  0  0  0  0
  -21.0517   -8.8562   19.8998 H   0  0  0  0  0  0
  -22.3173  -10.9608   19.6265 H   0  0  0  0  0  0
  -21.1981   -7.6126   23.9746 H   0  0  0  0  0  0
  -21.1434   -6.0482   25.9089 H   0  0  0  0  0  0
  -22.0641   -2.7601   23.2820 H   0  0  0  0  0  0
  -22.3929  -12.0215   22.4741 H   0  0  0  0  0  0
  -21.1110  -13.1695   22.2315 H   0  0  0  0  0  0
  -24.8207  -15.8247   20.4673 H   0  0  0  0  0  0
  -26.4371  -15.4948   20.0892 H   0  0  0  0  0  0
  -26.7253  -32.5333   23.1025 H   0  0  0  0  0  0
  -25.0071  -33.9632   25.0340 H   0  0  0  0  0  0
  -22.7454  -31.2816   21.3748 H   0  0  0  0  0  0
  -23.3750  -35.9586   23.3320 H   0  0  0  0  0  0
  -24.3559  -36.8879   22.2059 H   0  0  0  0  0  0
  -23.7214  -37.6459   23.6666 H   0  0  0  0  0  0
  -26.1403  -31.4704   20.5957 H   0  0  0  0  0  0
  -26.8740  -30.7863   22.0117 H   0  0  0  0  0  0
  -28.1611  -28.8544   21.1594 H   0  0  0  0  0  0
  -25.9626  -25.8150   19.0492 H   0  0  0  0  0  0
  -23.9838  -27.2651   19.0154 H   0  0  0  0  0  0
  -23.8021  -30.5420   19.3928 H   0  0  0  0  0  0
  -22.7864  -29.2106   19.8549 H   0  0  0  0  0  0
  -25.1294  -36.1910   25.0819 H   0  0  0  0  0  0
  -20.9963  -28.3285   24.1392 H   0  0  0  0  0  0
  -20.5690  -26.2313   23.3623 H   0  0  0  0  0  0
  -21.6655  -26.7452   22.1204 H   0  0  0  0  0  0
  -19.6933  -25.6284   21.1268 H   0  0  0  0  0  0
  -19.6716  -27.3176   20.6732 H   0  0  0  0  0  0
  -17.4214  -26.6667   21.4020 H   0  0  0  0  0  0
  -18.0341  -26.0099   22.9030 H   0  0  0  0  0  0
  -19.7942  -30.7301   24.2229 H   0  0  0  0  0  0
  -17.5018  -31.6278   24.5163 H   0  0  0  0  0  0
  -15.5357  -30.2985   23.7692 H   0  0  0  0  0  0
  -15.8670  -28.0829   22.7089 H   0  0  0  0  0  0
  -24.5872  -30.7138   25.7727 H   0  0  0  0  0  0
  -24.8916  -32.2958   26.4816 H   0  0  0  0  0  0
  -25.7985  -30.8955   27.0216 H   0  0  0  0  0  0
  -26.2997  -29.6721   24.1271 H   0  0  0  0  0  0
  -27.4012  -29.7288   25.4835 H   0  0  0  0  0  0
  -27.8899  -30.4258   23.9577 H   0  0  0  0  0  0
  -27.2639  -33.3645   26.2091 H   0  0  0  0  0  0
  -28.3879  -32.6927   25.0361 H   0  0  0  0  0  0
  -28.0719  -31.8486   26.5442 H   0  0  0  0  0  0
  -28.2590  -38.0090   24.7528 H   0  0  0  0  0  0
  -28.1073  -36.2622   24.6275 H   0  0  0  0  0  0
  -27.2299  -37.1422   25.8869 H   0  0  0  0  0  0
  -20.9489  -29.8707   21.6787 H   0  0  0  0  0  0
  -26.0162  -38.2835   24.1427 H   0  0  0  0  0  0
  -25.9288  -19.2638   20.7586 H   0  0  0  0  0  0
  -26.2151  -19.1592   19.0088 H   0  0  0  0  0  0
  -24.4630  -22.5183   18.6960 H   0  0  0  0  0  0
  -24.2512  -22.4655   20.4527 H   0  0  0  0  0  0
  -23.8199  -20.1715   20.2547 H   0  0  0  0  0  0
  -24.2469  -20.2242   18.5485 H   0  0  0  0  0  0
  -31.1055  -19.1512   19.8437 H   0  0  0  0  0  0
  -30.1034  -19.2863   18.4367 H   0  0  0  0  0  0
  -29.5424  -19.1446   22.3750 H   0  0  0  0  0  0
  -28.0535  -18.3709   21.9643 H   0  0  0  0  0  0
  -31.1058  -16.9655   18.7040 H   0  0  0  0  0  0
  -29.3978  -16.9593   18.4908 H   0  0  0  0  0  0
  -29.3562  -16.4517   22.3795 H   0  0  0  0  0  0
  -30.8387  -17.2429   21.9900 H   0  0  0  0  0  0
  -28.2099  -18.8341   19.7776 H   0  0  0  0  0  0
  -29.6866  -24.8563   20.8396 H   0  0  0  0  0  0
  -28.2408  -25.0264   21.7610 H   0  0  0  0  0  0
  1 25  1  0  0  0
  1 30  2  0  0  0
  1 86  1  0  0  0
  2  3  1  0  0  0
  2 25  1  0  0  0
  2 87  1  0  0  0
  2 88  1  0  0  0
  3  4  1  0  0  0
  3 89  1  0  0  0
  3 90  1  0  0  0
  4  5  1  0  0  0
  4 91  1  0  0  0
  4 92  1  0  0  0
  5  6  1  0  0  0
  5 26  1  0  0  0
  5 93  1  0  0  0
  6 25  1  0  0  0
  6 94  1  0  0  0
  6 95  1  0  0  0
  7  8  2  0  0  0
  7 26  1  0  0  0
  7 29  1  0  0  0
  8  9  1  0  0  0
  8 22  1  0  0  0
  9 10  1  0  0  0
  9 27  2  0  0  0
 10 11  2  0  0  0
 10 15  1  0  0  0
 11 12  1  0  0  0
 11 96  1  0  0  0
 12 13  2  0  0  0
 12 97  1  0  0  0
 13 14  1  0  0  0
 13 31  1  0  0  0
 14 15  2  0  0  0
 14 98  1  0  0  0
 15 99  1  0  0  0
 16 17  2  0  0  0
 16 21  1  0  0  0
 16 31  1  0  0  0
 17 18  1  0  0  0
 17100  1  0  0  0
 18 19  2  0  0  0
 18101  1  0  0  0
 19 20  1  0  0  0
 19 24  1  0  0  0
 20 21  2  0  0  0
 20102  1  0  0  0
 21 23  1  0  0  0
 22 28  1  0  0  0
 22 32  2  0  0  0
 26 27  1  0  0  0
 28103  1  0  0  0
 28104  1  0  0  0
 29105  1  0  0  0
 29106  1  0  0  0
 33 34  1  0  0  0
 33 66  1  0  0  0
 33 70  2  0  0  0
 34 36  1  0  0  0
 34 59  1  0  0  0
 34107  1  0  0  0
 35 44  2  0  0  0
 35 45  1  0  0  0
 35 68  1  0  0  0
 36 56  1  0  0  0
 36108  1  0  0  0
 37 39  1  0  0  0
 37 47  1  0  0  0
 37 66  1  0  0  0
 37109  1  0  0  0
 38 43  2  0  0  0
 38 46  1  0  0  0
 38 47  1  0  0  0
 39 64  1  0  0  0
 39 67  2  0  0  0
 40 52  1  0  0  0
 40 53  2  0  0  0
 40 58  1  0  0  0
 41110  1  0  0  0
 41111  1  0  0  0
 41112  1  0  0  0
 41 48  1  0  0  0
 42 43  1  0  0  0
 42 66  1  0  0  0
 42113  1  0  0  0
 42114  1  0  0  0
 43 44  1  0  0  0
 44115  1  0  0  0
 45 46  2  0  0  0
 45116  1  0  0  0
 46117  1  0  0  0
 47118  1  0  0  0
 47119  1  0  0  0
 48 56  1  0  0  0
 48 65  1  0  0  0
 48120  1  0  0  0
 49 50  1  0  0  0
 49 53  1  0  0  0
 49 64  1  0  0  0
 49121  1  0  0  0
 50 51  1  0  0  0
 50122  1  0  0  0
 50123  1  0  0  0
 51 52  1  0  0  0
 51124  1  0  0  0
 51125  1  0  0  0
 52126  1  0  0  0
 52127  1  0  0  0
 53 54  1  0  0  0
 54 55  2  0  0  0
 54128  1  0  0  0
 55 57  1  0  0  0
 55129  1  0  0  0
 56 69  2  0  0  0
 57 58  2  0  0  0
 57130  1  0  0  0
 58131  1  0  0  0
 59 60  1  0  0  0
 59 61  1  0  0  0
 59 62  1  0  0  0
 60132  1  0  0  0
 60133  1  0  0  0
 60134  1  0  0  0
 61135  1  0  0  0
 61136  1  0  0  0
 61137  1  0  0  0
 62138  1  0  0  0
 62139  1  0  0  0
 62140  1  0  0  0
 63 65  1  0  0  0
 63141  1  0  0  0
 63142  1  0  0  0
 63143  1  0  0  0
 64144  1  0  0  0
 65145  1  0  0  0
 68 83  1  0  0  0
 71 72  2  0  0  0
 71 73  1  0  0  0
 71 75  1  0  0  0
 72 76  1  0  0  0
 72 84  1  0  0  0
 73 85  2  0  0  0
 73 82  1  0  0  0
 74 83  1  0  0  0
 74 84  2  0  0  0
 74 85  1  0  0  0
 75 77  1  0  0  0
 75146  1  0  0  0
 75147  1  0  0  0
 76 77  1  0  0  0
 76148  1  0  0  0
 76149  1  0  0  0
 77150  1  0  0  0
 77151  1  0  0  0
 78 80  1  0  0  0
 78 82  1  0  0  0
 78152  1  0  0  0
 78153  1  0  0  0
 79 81  1  0  0  0
 79 82  1  0  0  0
 79154  1  0  0  0
 79155  1  0  0  0
 80 86  1  0  0  0
 80156  1  0  0  0
 80157  1  0  0  0
 81 86  1  0  0  0
 81158  1  0  0  0
 81159  1  0  0  0
 82160  1  0  0  0
 83161  1  0  0  0
 83162  1  0  0  0
M  ISO  4   1 100  68 101  83 101  86 100
M  END
> <chiral flag>
0

> <version>
0

> <s_m_source_file>
/data/baiqing/PycharmProjects/Reinvent-master-3.2/result/LINK_invent/BTK/process_docking_weight1_custom_sum_contain_oxygen_bond_distance_aromatic_linkinvent_7_9_3/rearranged_h_0184.sdf

> <i_m_source_file_index>
53

> <r_mmod_Potential_Energy-OPLS-2005>
590.358032226562

> <r_mmod_Stretch_Energy-OPLS-2005>
232.43994140625

> <r_mmod_Bend_Energy-OPLS-2005>
408.622131347656

> <r_mmod_Torsional_Energy-OPLS-2005>
392.261291503906

> <r_mmod_Improper_Torsional_Energy-OPLS-2005>
14.5607433319092

> <r_mmod_Van_der_Waal_Energy-OPLS-2005>
142.592956542969

> <r_mmod_Electrostatic_Energy-OPLS-2005>
-617.001831054688

> <r_mmod_Solvation_Energy-OPLS-2005>
-225.421844482422

> <b_mmod_Minimization_Converged-OPLS-2005>
0

> <r_mmod_RMS_Derivative-OPLS-2005>
3.70265293121338

$$$$
53
                    3D
 Structure written by MMmdl.
160169  0  0  1  0            999 V2000
  -30.5049  -15.0570   20.3652 C   0  0  0  0  0  0
  -30.4454  -12.6603   19.4857 C   0  0  0  0  0  0
  -29.5214  -12.5270   18.2530 C   0  0  0  0  0  0
  -28.0589  -12.2976   18.6835 C   0  0  0  0  0  0
  -27.6178  -13.2460   19.8293 C   0  0  2  0  0  0
  -28.6703  -13.3432   20.9515 C   0  0  0  0  0  0
  -25.2407  -13.8134   20.5768 C   0  0  0  0  0  0
  -24.1732  -13.0368   20.9252 C   0  0  0  0  0  0
  -24.6373  -11.6870   20.8774 C   0  0  0  0  0  0
  -23.9065  -10.4255   21.0414 C   0  0  0  0  0  0
  -24.3617   -9.4175   21.9189 C   0  0  0  0  0  0
  -23.6287   -8.2216   22.0754 C   0  0  0  0  0  0
  -22.4270   -8.0262   21.3541 C   0  0  0  0  0  0
  -21.9907   -9.0235   20.4643 C   0  0  0  0  0  0
  -22.7240  -10.2109   20.3056 C   0  0  0  0  0  0
  -21.6846   -6.0728   22.5278 C   0  0  0  0  0  0
  -21.4010   -6.5634   23.8212 C   0  0  0  0  0  0
  -21.3660   -5.6787   24.9174 C   0  0  0  0  0  0
  -21.6044   -4.3050   24.7223 C   0  0  0  0  0  0
  -21.8821   -3.8141   23.4346 C   0  0  0  0  0  0
  -21.9193   -4.6957   22.3402 C   0  0  0  0  0  0
  -22.7759  -13.5159   21.1894 C   0  0  0  0  0  0
  -22.1660   -4.2146   21.0978 F   0  0  0  0  0  0
  -21.5630   -3.4534   25.7736 F   0  0  0  0  0  0
  -29.9214  -13.7827   20.3168 N   0  0  0  0  0  0
  -26.2844  -12.9385   20.3286 N   0  0  0  0  0  0
  -25.9309  -11.6519   20.5770 N   0  0  0  0  0  0
  -22.0405  -12.8162   22.0454 N   0  0  0  0  0  0
  -25.4007  -15.1849   20.4236 N   0  0  0  0  0  0
  -31.7374  -15.0927   20.2747 O   0  0  0  0  0  0
  -21.6628   -6.8867   21.4239 O   0  0  0  0  0  0
  -22.3456  -14.5468   20.6734 O   0  0  0  0  0  0
  -24.6487  -31.8383   23.1820 C   0  0  0  0  0  0
  -25.9232  -32.4665   23.8234 C   0  0  1  0  0  0
  -27.2227  -27.0773   20.1660 C   0  0  0  0  0  0
  -25.5956  -33.8473   24.2150 N   0  0  0  0  0  0
  -23.4556  -30.4541   21.5291 C   0  0  2  0  0  0
  -24.9059  -28.8641   20.1154 C   0  0  0  0  0  0
  -22.7593  -29.4519   22.4845 C   0  0  0  0  0  0
  -18.0309  -28.1399   22.8475 C   0  0  0  0  0  0
  -24.1491  -36.7243   23.2644 C   0  0  0  0  0  0
  -26.0147  -30.6932   21.3887 C   0  0  0  0  0  0
  -26.0855  -29.2970   20.7341 C   0  0  0  0  0  0
  -27.2435  -28.4229   20.7346 C   0  0  0  0  0  0
  -26.0141  -26.7552   19.5113 C   0  0  0  0  0  0
  -24.8864  -27.6090   19.4870 C   0  0  0  0  0  0
  -23.6859  -29.7752   20.1521 C   0  0  0  0  0  0
  -25.4127  -36.3015   24.0311 C   0  0  1  0  0  0
  -20.5924  -28.3730   23.1224 C   0  0  2  0  0  0
  -20.6792  -26.9428   22.5406 C   0  0  0  0  0  0
  -19.5766  -26.6379   21.5215 C   0  0  0  0  0  0
  -18.1947  -26.7936   22.1623 C   0  0  0  0  0  0
  -19.1565  -28.8883   23.2840 C   0  0  0  0  0  0
  -18.9481  -30.1477   23.8871 C   0  0  0  0  0  0
  -17.6477  -30.6596   24.0557 C   0  0  0  0  0  0
  -25.9082  -34.9392   23.5045 C   0  0  0  0  0  0
  -16.5368  -29.9088   23.6336 C   0  0  0  0  0  0
  -16.7292  -28.6504   23.0359 C   0  0  0  0  0  0
  -26.4530  -31.6558   25.0705 C   0  0  0  0  0  0
  -25.3694  -31.3771   26.1387 C   0  0  0  0  0  0
  -27.0407  -30.2947   24.6333 C   0  0  0  0  0  0
  -27.6047  -32.4338   25.7500 C   0  0  0  0  0  0
  -27.5575  -37.1779   24.8465 C   0  0  0  0  0  0
  -21.4278  -29.3048   22.3590 N   0  0  0  0  0  0
  -26.4285  -37.3737   23.9407 N   0  0  0  0  0  0
  -24.7266  -31.0182   22.0882 N   0  0  0  0  0  0
  -23.4208  -28.8078   23.3025 O   0  0  0  0  0  0
  -28.2913  -26.0890   20.1974 O   0  0  0  0  0  0
  -26.5678  -34.8902   22.4631 O   0  0  0  0  0  0
  -23.5591  -32.1285   23.7006 O   0  0  0  0  0  0
  -30.3283  -24.2561   19.2148 C   0  0  0  0  0  0
  -29.3410  -23.4620   19.8389 C   0  0  0  0  0  0
  -29.6988  -21.9653   19.8589 C   0  0  0  0  0  0
  -31.6638  -22.5142   18.7135 C   0  0  0  0  0  0
  -28.1521  -17.4425   19.5060 C   0  0  0  0  0  0
  -29.1545  -16.5316   18.7887 C   0  0  0  0  0  0
  -29.2272  -17.7211   20.5462 C   0  0  2  0  0  0
  -32.9378  -21.9816   18.0947 C   0  0  0  0  0  0
  -31.1096  -19.2884   21.3522 C   0  0  0  0  0  0
  -28.1217  -24.5062   20.2682 C   0  0  0  0  0  0
  -29.9601  -19.2361   20.3309 C   0  0  2  0  0  0
  -31.4655  -23.8098   18.6693 N   0  0  0  0  0  0
  -30.8529  -21.6289   19.2541 N   0  0  0  0  0  0
  -29.7191  -16.2436   20.1061 N   0  0  0  0  0  0
  -29.1804  -20.6428   20.3420 N   0  0  0  0  0  0
  -31.4703  -12.8478   19.1611 H   0  0  0  0  0  0
  -30.4739  -11.7314   20.0574 H   0  0  0  0  0  0
  -29.8572  -11.7084   17.6150 H   0  0  0  0  0  0
  -29.5873  -13.4322   17.6477 H   0  0  0  0  0  0
  -27.9764  -11.2627   19.0165 H   0  0  0  0  0  0
  -27.3904  -12.3953   17.8274 H   0  0  0  0  0  0
  -27.5431  -14.2303   19.3758 H   0  0  0  0  0  0
  -28.7941  -12.3904   21.4681 H   0  0  0  0  0  0
  -28.3583  -14.0721   21.7015 H   0  0  0  0  0  0
  -25.2760   -9.5655   22.4768 H   0  0  0  0  0  0
  -23.9994   -7.4607   22.7474 H   0  0  0  0  0  0
  -21.0837   -8.8757   19.8952 H   0  0  0  0  0  0
  -22.3701  -10.9652   19.6169 H   0  0  0  0  0  0
  -21.2000   -7.6142   23.9715 H   0  0  0  0  0  0
  -21.1480   -6.0516   25.9078 H   0  0  0  0  0  0
  -22.0603   -2.7604   23.2843 H   0  0  0  0  0  0
  -22.4026  -11.9832   22.4853 H   0  0  0  0  0  0
  -21.1021  -13.1188   22.2652 H   0  0  0  0  0  0
  -24.6357  -15.8390   20.5474 H   0  0  0  0  0  0
  -26.2616  -15.6261   20.1302 H   0  0  0  0  0  0
  -26.7300  -32.5252   23.0958 H   0  0  0  0  0  0
  -25.0065  -33.9576   25.0272 H   0  0  0  0  0  0
  -22.7614  -31.2814   21.3682 H   0  0  0  0  0  0
  -23.3763  -35.9566   23.3289 H   0  0  0  0  0  0
  -24.3573  -36.8898   22.2062 H   0  0  0  0  0  0
  -23.7238  -37.6428   23.6698 H   0  0  0  0  0  0
  -26.1762  -31.4429   20.6129 H   0  0  0  0  0  0
  -26.8824  -30.7467   22.0347 H   0  0  0  0  0  0
  -28.1452  -28.7557   21.2291 H   0  0  0  0  0  0
  -25.9149  -25.8009   19.0169 H   0  0  0  0  0  0
  -23.9877  -27.2738   18.9875 H   0  0  0  0  0  0
  -23.8298  -30.5456   19.3938 H   0  0  0  0  0  0
  -22.7990  -29.2210   19.8399 H   0  0  0  0  0  0
  -25.1319  -36.1835   25.0803 H   0  0  0  0  0  0
  -21.0013  -28.3327   24.1346 H   0  0  0  0  0  0
  -20.5682  -26.2348   23.3630 H   0  0  0  0  0  0
  -21.6658  -26.7429   22.1205 H   0  0  0  0  0  0
  -19.6929  -25.6281   21.1266 H   0  0  0  0  0  0
  -19.6704  -27.3170   20.6728 H   0  0  0  0  0  0
  -17.4217  -26.6676   21.4027 H   0  0  0  0  0  0
  -18.0348  -26.0085   22.9026 H   0  0  0  0  0  0
  -19.7956  -30.7298   24.2232 H   0  0  0  0  0  0
  -17.5031  -31.6273   24.5161 H   0  0  0  0  0  0
  -15.5367  -30.2981   23.7676 H   0  0  0  0  0  0
  -15.8691  -28.0812   22.7095 H   0  0  0  0  0  0
  -24.5879  -30.7116   25.7700 H   0  0  0  0  0  0
  -24.8875  -32.2961   26.4734 H   0  0  0  0  0  0
  -25.7953  -30.8990   27.0216 H   0  0  0  0  0  0
  -26.3042  -29.6656   24.1323 H   0  0  0  0  0  0
  -27.3979  -29.7269   25.4934 H   0  0  0  0  0  0
  -27.8963  -30.4171   23.9689 H   0  0  0  0  0  0
  -27.2630  -33.3662   26.2007 H   0  0  0  0  0  0
  -28.3895  -32.6863   25.0358 H   0  0  0  0  0  0
  -28.0673  -31.8511   26.5476 H   0  0  0  0  0  0
  -28.2582  -38.0086   24.7513 H   0  0  0  0  0  0
  -28.1081  -36.2614   24.6290 H   0  0  0  0  0  0
  -27.2291  -37.1422   25.8867 H   0  0  0  0  0  0
  -20.9507  -29.8744   21.6743 H   0  0  0  0  0  0
  -26.0147  -38.2802   24.1412 H   0  0  0  0  0  0
  -30.2168  -25.3245   19.1198 H   0  0  0  0  0  0
  -27.2934  -16.9176   19.9167 H   0  0  0  0  0  0
  -27.8401  -18.3111   18.9248 H   0  0  0  0  0  0
  -29.8409  -17.0653   18.1279 H   0  0  0  0  0  0
  -28.6979  -15.6926   18.2665 H   0  0  0  0  0  0
  -28.7752  -17.6783   21.5384 H   0  0  0  0  0  0
  -33.5797  -22.7884   17.7404 H   0  0  0  0  0  0
  -32.7061  -21.3357   17.2480 H   0  0  0  0  0  0
  -33.5003  -21.3999   18.8250 H   0  0  0  0  0  0
  -31.7236  -18.3894   21.2872 H   0  0  0  0  0  0
  -30.7266  -19.3491   22.3710 H   0  0  0  0  0  0
  -31.7744  -20.1370   21.1975 H   0  0  0  0  0  0
  -27.8416  -24.2634   21.2935 H   0  0  0  0  0  0
  -27.2648  -24.2200   19.6608 H   0  0  0  0  0  0
  -30.4249  -19.1906   19.3452 H   0  0  0  0  0  0
  -28.2834  -20.6605   20.8160 H   0  0  0  0  0  0
  1 25  1  0  0  0
  1 30  2  0  0  0
  1 84  1  0  0  0
  2  3  1  0  0  0
  2 25  1  0  0  0
  2 86  1  0  0  0
  2 87  1  0  0  0
  3  4  1  0  0  0
  3 88  1  0  0  0
  3 89  1  0  0  0
  4  5  1  0  0  0
  4 90  1  0  0  0
  4 91  1  0  0  0
  5  6  1  0  0  0
  5 26  1  0  0  0
  5 92  1  0  0  0
  6 25  1  0  0  0
  6 93  1  0  0  0
  6 94  1  0  0  0
  7  8  2  0  0  0
  7 26  1  0  0  0
  7 29  1  0  0  0
  8  9  1  0  0  0
  8 22  1  0  0  0
  9 10  1  0  0  0
  9 27  2  0  0  0
 10 11  2  0  0  0
 10 15  1  0  0  0
 11 12  1  0  0  0
 11 95  1  0  0  0
 12 13  2  0  0  0
 12 96  1  0  0  0
 13 14  1  0  0  0
 13 31  1  0  0  0
 14 15  2  0  0  0
 14 97  1  0  0  0
 15 98  1  0  0  0
 16 17  2  0  0  0
 16 21  1  0  0  0
 16 31  1  0  0  0
 17 18  1  0  0  0
 17 99  1  0  0  0
 18 19  2  0  0  0
 18100  1  0  0  0
 19 20  1  0  0  0
 19 24  1  0  0  0
 20 21  2  0  0  0
 20101  1  0  0  0
 21 23  1  0  0  0
 22 28  1  0  0  0
 22 32  2  0  0  0
 26 27  1  0  0  0
 28102  1  0  0  0
 28103  1  0  0  0
 29104  1  0  0  0
 29105  1  0  0  0
 33 34  1  0  0  0
 33 66  1  0  0  0
 33 70  2  0  0  0
 34 36  1  0  0  0
 34 59  1  0  0  0
 34106  1  0  0  0
 35 44  2  0  0  0
 35 45  1  0  0  0
 35 68  1  0  0  0
 36 56  1  0  0  0
 36107  1  0  0  0
 37 39  1  0  0  0
 37 47  1  0  0  0
 37 66  1  0  0  0
 37108  1  0  0  0
 38 43  2  0  0  0
 38 46  1  0  0  0
 38 47  1  0  0  0
 39 64  1  0  0  0
 39 67  2  0  0  0
 40 52  1  0  0  0
 40 53  2  0  0  0
 40 58  1  0  0  0
 41109  1  0  0  0
 41110  1  0  0  0
 41111  1  0  0  0
 41 48  1  0  0  0
 42 43  1  0  0  0
 42 66  1  0  0  0
 42112  1  0  0  0
 42113  1  0  0  0
 43 44  1  0  0  0
 44114  1  0  0  0
 45 46  2  0  0  0
 45115  1  0  0  0
 46116  1  0  0  0
 47117  1  0  0  0
 47118  1  0  0  0
 48 56  1  0  0  0
 48 65  1  0  0  0
 48119  1  0  0  0
 49 50  1  0  0  0
 49 53  1  0  0  0
 49 64  1  0  0  0
 49120  1  0  0  0
 50 51  1  0  0  0
 50121  1  0  0  0
 50122  1  0  0  0
 51 52  1  0  0  0
 51123  1  0  0  0
 51124  1  0  0  0
 52125  1  0  0  0
 52126  1  0  0  0
 53 54  1  0  0  0
 54 55  2  0  0  0
 54127  1  0  0  0
 55 57  1  0  0  0
 55128  1  0  0  0
 56 69  2  0  0  0
 57 58  2  0  0  0
 57129  1  0  0  0
 58130  1  0  0  0
 59 60  1  0  0  0
 59 61  1  0  0  0
 59 62  1  0  0  0
 60131  1  0  0  0
 60132  1  0  0  0
 60133  1  0  0  0
 61134  1  0  0  0
 61135  1  0  0  0
 61136  1  0  0  0
 62137  1  0  0  0
 62138  1  0  0  0
 62139  1  0  0  0
 63 65  1  0  0  0
 63140  1  0  0  0
 63141  1  0  0  0
 63142  1  0  0  0
 64143  1  0  0  0
 65144  1  0  0  0
 68 80  1  0  0  0
 71 72  2  0  0  0
 71 82  1  0  0  0
 71145  1  0  0  0
 72 73  1  0  0  0
 72 80  1  0  0  0
 73 83  2  0  0  0
 73 85  1  0  0  0
 74 78  1  0  0  0
 74 82  2  0  0  0
 74 83  1  0  0  0
 75 76  1  0  0  0
 75146  1  0  0  0
 75147  1  0  0  0
 75 77  1  0  0  0
 76 84  1  0  0  0
 76148  1  0  0  0
 76149  1  0  0  0
 77 81  1  0  0  0
 77 84  1  0  0  0
 77150  1  0  0  0
 78151  1  0  0  0
 78152  1  0  0  0
 78153  1  0  0  0
 79154  1  0  0  0
 79155  1  0  0  0
 79156  1  0  0  0
 79 81  1  0  0  0
 80157  1  0  0  0
 80158  1  0  0  0
 81 85  1  0  0  0
 81159  1  0  0  0
 85160  1  0  0  0
M  ISO  4   1 100  68 101  80 101  84 100
M  END
> <chiral flag>
0

> <version>
0

> <s_m_source_file>
/data/baiqing/PycharmProjects/Reinvent-master-3.2/result/LINK_invent/BTK/process_docking_weight1_custom_sum_contain_oxygen_bond_distance_aromatic_linkinvent_7_9_3/rearranged_h_0184.sdf

> <i_m_source_file_index>
54

> <r_mmod_Potential_Energy-OPLS-2005>
460.179382324219

> <r_mmod_Stretch_Energy-OPLS-2005>
351.261138916016

> <r_mmod_Bend_Energy-OPLS-2005>
435.443328857422

> <r_mmod_Torsional_Energy-OPLS-2005>
329.042846679688

> <r_mmod_Improper_Torsional_Energy-OPLS-2005>
12.0703477859497

> <r_mmod_Van_der_Waal_Energy-OPLS-2005>
139.677291870117

> <r_mmod_Electrostatic_Energy-OPLS-2005>
-839.89599609375

> <r_mmod_Solvation_Energy-OPLS-2005>
-232.02766418457

> <b_mmod_Minimization_Converged-OPLS-2005>
0

> <r_mmod_RMS_Derivative-OPLS-2005>
0.464517861604691

$$$$
54
                    3D
 Structure written by MMmdl.
175184  0  0  1  0            999 V2000
  -30.7458  -14.4329   20.6101 C   0  0  0  0  0  0
  -30.4257  -12.3027   19.4067 C   0  0  0  0  0  0
  -29.4901  -12.4960   18.1950 C   0  0  0  0  0  0
  -28.0168  -12.3477   18.6145 C   0  0  0  0  0  0
  -27.6641  -13.1985   19.8633 C   0  0  2  0  0  0
  -28.7084  -12.9781   20.9852 C   0  0  0  0  0  0
  -25.2605  -13.8149   20.5649 C   0  0  0  0  0  0
  -24.1843  -13.0432   20.9197 C   0  0  0  0  0  0
  -24.6404  -11.6916   20.8722 C   0  0  0  0  0  0
  -23.9068  -10.4303   21.0408 C   0  0  0  0  0  0
  -24.3630   -9.4241   21.9192 C   0  0  0  0  0  0
  -23.6326   -8.2260   22.0766 C   0  0  0  0  0  0
  -22.4294   -8.0286   21.3568 C   0  0  0  0  0  0
  -21.9932   -9.0252   20.4652 C   0  0  0  0  0  0
  -22.7255  -10.2143   20.3067 C   0  0  0  0  0  0
  -21.6856   -6.0770   22.5324 C   0  0  0  0  0  0
  -21.4005   -6.5668   23.8262 C   0  0  0  0  0  0
  -21.3647   -5.6806   24.9211 C   0  0  0  0  0  0
  -21.6043   -4.3069   24.7265 C   0  0  0  0  0  0
  -21.8813   -3.8186   23.4374 C   0  0  0  0  0  0
  -21.9194   -4.7005   22.3439 C   0  0  0  0  0  0
  -22.7874  -13.5246   21.1848 C   0  0  0  0  0  0
  -22.1647   -4.2195   21.1006 F   0  0  0  0  0  0
  -21.5657   -3.4541   25.7766 F   0  0  0  0  0  0
  -30.0445  -13.2768   20.4410 N   0  0  0  0  0  0
  -26.3036  -12.9311   20.3307 N   0  0  0  0  0  0
  -25.9334  -11.6476   20.5736 N   0  0  0  0  0  0
  -22.0477  -12.8219   22.0354 N   0  0  0  0  0  0
  -25.4323  -15.1839   20.4059 N   0  0  0  0  0  0
  -31.8288  -14.6458   20.0598 O   0  0  0  0  0  0
  -21.6661   -6.8906   21.4273 O   0  0  0  0  0  0
  -22.3577  -14.5561   20.6703 O   0  0  0  0  0  0
  -24.6009  -31.8756   23.2126 C   0  0  0  0  0  0
  -25.8956  -32.4877   23.8422 C   0  0  1  0  0  0
  -27.2642  -27.5231   20.1155 C   0  0  0  0  0  0
  -25.5855  -33.8661   24.2389 N   0  0  0  0  0  0
  -23.3856  -30.4941   21.5525 C   0  0  2  0  0  0
  -24.8361  -28.9639   20.1203 C   0  0  0  0  0  0
  -22.7330  -29.4716   22.5064 C   0  0  0  0  0  0
  -18.0251  -28.1436   22.8492 C   0  0  0  0  0  0
  -24.1476  -36.7295   23.2634 C   0  0  0  0  0  0
  -25.8926  -30.8835   21.3403 C   0  0  0  0  0  0
  -25.9807  -29.5153   20.7045 C   0  0  0  0  0  0
  -27.1889  -28.8067   20.7087 C   0  0  0  0  0  0
  -26.1014  -26.9660   19.5445 C   0  0  0  0  0  0
  -24.8868  -27.6827   19.5420 C   0  0  0  0  0  0
  -23.5861  -29.8122   20.1693 C   0  0  0  0  0  0
  -25.4096  -36.3143   24.0359 C   0  0  1  0  0  0
  -20.5821  -28.3686   23.1382 C   0  0  2  0  0  0
  -20.6759  -26.9446   22.5438 C   0  0  0  0  0  0
  -19.5756  -26.6438   21.5224 C   0  0  0  0  0  0
  -18.1923  -26.8003   22.1609 C   0  0  0  0  0  0
  -19.1496  -28.8872   23.2933 C   0  0  0  0  0  0
  -18.9423  -30.1476   23.8957 C   0  0  0  0  0  0
  -17.6425  -30.6633   24.0585 C   0  0  0  0  0  0
  -25.9025  -34.9502   23.5187 C   0  0  0  0  0  0
  -16.5315  -29.9146   23.6337 C   0  0  0  0  0  0
  -16.7231  -28.6561   23.0349 C   0  0  0  0  0  0
  -26.4411  -31.6600   25.0689 C   0  0  0  0  0  0
  -25.3673  -31.3658   26.1424 C   0  0  0  0  0  0
  -27.0203  -30.3073   24.5969 C   0  0  0  0  0  0
  -27.6027  -32.4241   25.7438 C   0  0  0  0  0  0
  -27.5601  -37.1785   24.8462 C   0  0  0  0  0  0
  -21.4080  -29.3038   22.3794 N   0  0  0  0  0  0
  -26.4283  -37.3822   23.9429 N   0  0  0  0  0  0
  -24.6449  -31.0930   22.0972 N   0  0  0  0  0  0
  -23.4135  -28.8302   23.3097 O   0  0  0  0  0  0
  -28.4256  -26.7880   20.0672 O   0  0  0  0  0  0
  -26.5589  -34.8947   22.4764 O   0  0  0  0  0  0
  -23.5227  -32.1417   23.7625 O   0  0  0  0  0  0
  -31.5443  -23.0645   21.6505 C   0  0  0  0  0  0
  -32.1132  -22.6320   22.8722 C   0  0  0  0  0  0
  -30.7614  -22.1008   20.9705 C   0  0  0  0  0  0
  -31.2307  -20.5471   22.5778 C   0  0  0  0  0  0
  -30.8284  -16.8188   23.1797 C   0  0  0  0  0  0
  -30.6632  -17.8510   20.9163 C   0  0  0  0  0  0
  -30.0510  -15.5832   22.6720 C   0  0  0  0  0  0
  -29.7771  -16.6791   20.4671 C   0  0  0  0  0  0
  -30.4701  -18.1167   22.4288 C   0  0  0  0  0  0
  -32.9618  -23.5179   23.7677 C   0  0  0  0  0  0
  -28.6131  -22.8191   19.7932 C   0  0  0  0  0  0
  -31.8377  -24.4428   21.0512 C   0  0  0  0  0  0
  -30.0639  -22.3309   19.6328 C   0  0  0  0  0  0
  -30.7869  -26.5102   20.2476 C   0  0  0  0  0  0
  -29.6217  -27.4680   20.4411 C   0  0  0  0  0  0
  -31.9575  -21.3657   23.3141 N   0  0  0  0  0  0
  -30.5905  -20.8679   21.4711 N   0  0  0  0  0  0
  -30.0755  -15.4452   21.2068 N   0  0  0  0  0  0
  -31.2594  -19.2293   22.9638 N   0  0  0  0  0  0
  -30.7487  -25.4190   21.2438 N   0  3  0  0  0  0
  -31.4674  -12.4079   19.0994 H   0  0  0  0  0  0
  -30.3337  -11.2901   19.8020 H   0  0  0  0  0  0
  -29.7216  -11.7687   17.4160 H   0  0  0  0  0  0
  -29.6513  -13.4806   17.7532 H   0  0  0  0  0  0
  -27.8492  -11.2906   18.8246 H   0  0  0  0  0  0
  -27.3551  -12.5944   17.7850 H   0  0  0  0  0  0
  -27.7058  -14.2456   19.5560 H   0  0  0  0  0  0
  -28.6871  -11.9422   21.3321 H   0  0  0  0  0  0
  -28.4543  -13.5809   21.8551 H   0  0  0  0  0  0
  -25.2789   -9.5761   22.4740 H   0  0  0  0  0  0
  -24.0106   -7.4674   22.7459 H   0  0  0  0  0  0
  -21.0905   -8.8778   19.8897 H   0  0  0  0  0  0
  -22.3758  -10.9682   19.6163 H   0  0  0  0  0  0
  -21.1965   -7.6173   23.9802 H   0  0  0  0  0  0
  -21.1462   -6.0524   25.9117 H   0  0  0  0  0  0
  -22.0590   -2.7647   23.2893 H   0  0  0  0  0  0
  -22.4091  -11.9909   22.4787 H   0  0  0  0  0  0
  -21.1062  -13.1199   22.2478 H   0  0  0  0  0  0
  -24.6804  -15.8475   20.5580 H   0  0  0  0  0  0
  -26.2822  -15.6106   20.0602 H   0  0  0  0  0  0
  -26.7061  -32.5683   23.1235 H   0  0  0  0  0  0
  -24.9960  -33.9815   25.0522 H   0  0  0  0  0  0
  -22.6668  -31.3045   21.4126 H   0  0  0  0  0  0
  -23.3768  -35.9598   23.3279 H   0  0  0  0  0  0
  -24.3578  -36.8919   22.2054 H   0  0  0  0  0  0
  -23.7190  -37.6487   23.6628 H   0  0  0  0  0  0
  -25.9685  -31.6473   20.5657 H   0  0  0  0  0  0
  -26.7917  -30.9669   21.9388 H   0  0  0  0  0  0
  -28.0391  -29.2868   21.1703 H   0  0  0  0  0  0
  -26.1408  -25.9766   19.1080 H   0  0  0  0  0  0
  -24.0020  -27.2400   19.1073 H   0  0  0  0  0  0
  -23.6694  -30.5776   19.3969 H   0  0  0  0  0  0
  -22.7172  -29.2118   19.8936 H   0  0  0  0  0  0
  -25.1273  -36.2015   25.0847 H   0  0  0  0  0  0
  -20.9879  -28.3262   24.1510 H   0  0  0  0  0  0
  -20.5712  -26.2296   23.3591 H   0  0  0  0  0  0
  -21.6644  -26.7545   22.1215 H   0  0  0  0  0  0
  -19.6924  -25.6360   21.1255 H   0  0  0  0  0  0
  -19.6763  -27.3246   20.6748 H   0  0  0  0  0  0
  -17.4210  -26.6749   21.3987 H   0  0  0  0  0  0
  -18.0278  -26.0180   22.9018 H   0  0  0  0  0  0
  -19.7885  -30.7281   24.2393 H   0  0  0  0  0  0
  -17.4968  -31.6326   24.5185 H   0  0  0  0  0  0
  -15.5337  -30.3057   23.7654 H   0  0  0  0  0  0
  -15.8612  -28.0896   22.7054 H   0  0  0  0  0  0
  -24.5870  -30.7010   25.7689 H   0  0  0  0  0  0
  -24.8807  -32.2774   26.4874 H   0  0  0  0  0  0
  -25.8006  -30.8770   27.0163 H   0  0  0  0  0  0
  -26.2722  -29.6886   24.1001 H   0  0  0  0  0  0
  -27.3961  -29.7272   25.4408 H   0  0  0  0  0  0
  -27.8553  -30.4416   23.9101 H   0  0  0  0  0  0
  -27.2738  -33.3527   26.2116 H   0  0  0  0  0  0
  -28.3811  -32.6821   25.0235 H   0  0  0  0  0  0
  -28.0723  -31.8265   26.5260 H   0  0  0  0  0  0
  -28.2593  -38.0115   24.7568 H   0  0  0  0  0  0
  -28.1123  -36.2644   24.6203 H   0  0  0  0  0  0
  -27.2295  -37.1337   25.8857 H   0  0  0  0  0  0
  -20.9239  -29.8650   21.6941 H   0  0  0  0  0  0
  -26.0191  -38.2896   24.1490 H   0  0  0  0  0  0
  -31.8956  -16.6277   23.0673 H   0  0  0  0  0  0
  -30.6538  -16.9334   24.2512 H   0  0  0  0  0  0
  -30.3933  -18.7104   20.3040 H   0  0  0  0  0  0
  -31.7095  -17.6400   20.6948 H   0  0  0  0  0  0
  -29.0127  -15.6359   23.0020 H   0  0  0  0  0  0
  -30.4705  -14.6927   23.1415 H   0  0  0  0  0  0
  -29.8844  -16.5286   19.3901 H   0  0  0  0  0  0
  -28.7299  -16.9351   20.6293 H   0  0  0  0  0  0
  -29.4183  -18.3512   22.6114 H   0  0  0  0  0  0
  -32.3557  -24.2826   24.2523 H   0  0  0  0  0  0
  -33.7595  -24.0011   23.2083 H   0  0  0  0  0  0
  -33.4346  -22.9346   24.5579 H   0  0  0  0  0  0
  -28.1242  -22.9150   18.8245 H   0  0  0  0  0  0
  -28.5565  -23.7898   20.2829 H   0  0  0  0  0  0
  -28.0279  -22.1148   20.3839 H   0  0  0  0  0  0
  -32.0461  -24.3196   19.9894 H   0  0  0  0  0  0
  -32.7570  -24.8691   21.4472 H   0  0  0  0  0  0
  -30.0467  -21.3806   19.0967 H   0  0  0  0  0  0
  -30.6277  -22.9998   18.9869 H   0  0  0  0  0  0
  -31.7268  -27.0530   20.3422 H   0  0  0  0  0  0
  -30.7531  -26.1074   19.2342 H   0  0  0  0  0  0
  -29.7664  -28.3440   19.8052 H   0  0  0  0  0  0
  -29.5931  -27.8041   21.4779 H   0  0  0  0  0  0
  -31.7719  -19.0592   23.8204 H   0  0  0  0  0  0
  -30.8229  -25.8177   22.1681 H   0  0  0  0  0  0
  -29.8481  -24.9718   21.1822 H   0  0  0  0  0  0
  1 25  1  0  0  0
  1 30  2  0  0  0
  1 88  1  0  0  0
  2  3  1  0  0  0
  2 25  1  0  0  0
  2 91  1  0  0  0
  2 92  1  0  0  0
  3  4  1  0  0  0
  3 93  1  0  0  0
  3 94  1  0  0  0
  4  5  1  0  0  0
  4 95  1  0  0  0
  4 96  1  0  0  0
  5  6  1  0  0  0
  5 26  1  0  0  0
  5 97  1  0  0  0
  6 25  1  0  0  0
  6 98  1  0  0  0
  6 99  1  0  0  0
  7  8  2  0  0  0
  7 26  1  0  0  0
  7 29  1  0  0  0
  8  9  1  0  0  0
  8 22  1  0  0  0
  9 10  1  0  0  0
  9 27  2  0  0  0
 10 11  2  0  0  0
 10 15  1  0  0  0
 11 12  1  0  0  0
 11100  1  0  0  0
 12 13  2  0  0  0
 12101  1  0  0  0
 13 14  1  0  0  0
 13 31  1  0  0  0
 14 15  2  0  0  0
 14102  1  0  0  0
 15103  1  0  0  0
 16 17  2  0  0  0
 16 21  1  0  0  0
 16 31  1  0  0  0
 17 18  1  0  0  0
 17104  1  0  0  0
 18 19  2  0  0  0
 18105  1  0  0  0
 19 20  1  0  0  0
 19 24  1  0  0  0
 20 21  2  0  0  0
 20106  1  0  0  0
 21 23  1  0  0  0
 22 28  1  0  0  0
 22 32  2  0  0  0
 26 27  1  0  0  0
 28107  1  0  0  0
 28108  1  0  0  0
 29109  1  0  0  0
 29110  1  0  0  0
 33 34  1  0  0  0
 33 66  1  0  0  0
 33 70  2  0  0  0
 34 36  1  0  0  0
 34 59  1  0  0  0
 34111  1  0  0  0
 35 44  2  0  0  0
 35 45  1  0  0  0
 35 68  1  0  0  0
 36 56  1  0  0  0
 36112  1  0  0  0
 37 39  1  0  0  0
 37 47  1  0  0  0
 37 66  1  0  0  0
 37113  1  0  0  0
 38 43  2  0  0  0
 38 46  1  0  0  0
 38 47  1  0  0  0
 39 64  1  0  0  0
 39 67  2  0  0  0
 40 52  1  0  0  0
 40 53  2  0  0  0
 40 58  1  0  0  0
 41114  1  0  0  0
 41115  1  0  0  0
 41116  1  0  0  0
 41 48  1  0  0  0
 42 43  1  0  0  0
 42 66  1  0  0  0
 42117  1  0  0  0
 42118  1  0  0  0
 43 44  1  0  0  0
 44119  1  0  0  0
 45 46  2  0  0  0
 45120  1  0  0  0
 46121  1  0  0  0
 47122  1  0  0  0
 47123  1  0  0  0
 48 56  1  0  0  0
 48 65  1  0  0  0
 48124  1  0  0  0
 49 50  1  0  0  0
 49 53  1  0  0  0
 49 64  1  0  0  0
 49125  1  0  0  0
 50 51  1  0  0  0
 50126  1  0  0  0
 50127  1  0  0  0
 51 52  1  0  0  0
 51128  1  0  0  0
 51129  1  0  0  0
 52130  1  0  0  0
 52131  1  0  0  0
 53 54  1  0  0  0
 54 55  2  0  0  0
 54132  1  0  0  0
 55 57  1  0  0  0
 55133  1  0  0  0
 56 69  2  0  0  0
 57 58  2  0  0  0
 57134  1  0  0  0
 58135  1  0  0  0
 59 60  1  0  0  0
 59 61  1  0  0  0
 59 62  1  0  0  0
 60136  1  0  0  0
 60137  1  0  0  0
 60138  1  0  0  0
 61139  1  0  0  0
 61140  1  0  0  0
 61141  1  0  0  0
 62142  1  0  0  0
 62143  1  0  0  0
 62144  1  0  0  0
 63 65  1  0  0  0
 63145  1  0  0  0
 63146  1  0  0  0
 63147  1  0  0  0
 64148  1  0  0  0
 65149  1  0  0  0
 68 85  1  0  0  0
 71 72  2  0  0  0
 71 73  1  0  0  0
 71 82  1  0  0  0
 72 80  1  0  0  0
 72 86  1  0  0  0
 73 83  1  0  0  0
 73 87  2  0  0  0
 74 86  2  0  0  0
 74 87  1  0  0  0
 74 89  1  0  0  0
 75 77  1  0  0  0
 75 79  1  0  0  0
 75150  1  0  0  0
 75151  1  0  0  0
 76 78  1  0  0  0
 76 79  1  0  0  0
 76152  1  0  0  0
 76153  1  0  0  0
 77 88  1  0  0  0
 77154  1  0  0  0
 77155  1  0  0  0
 78 88  1  0  0  0
 78156  1  0  0  0
 78157  1  0  0  0
 79 89  1  0  0  0
 79158  1  0  0  0
 80159  1  0  0  0
 80160  1  0  0  0
 80161  1  0  0  0
 81 83  1  0  0  0
 81162  1  0  0  0
 81163  1  0  0  0
 81164  1  0  0  0
 82 90  1  0  0  0
 82165  1  0  0  0
 82166  1  0  0  0
 83167  1  0  0  0
 83168  1  0  0  0
 84 85  1  0  0  0
 84 90  1  0  0  0
 84169  1  0  0  0
 84170  1  0  0  0
 85171  1  0  0  0
 85172  1  0  0  0
 89173  1  0  0  0
 90174  1  0  0  0
 90175  1  0  0  0
M  CHG  1  90   1
M  ISO  4   1 100  68 101  85 101  88 100
M  END
> <chiral flag>
0

> <version>
0

> <s_m_source_file>
/data/baiqing/PycharmProjects/Reinvent-master-3.2/result/LINK_invent/BTK/process_docking_weight1_custom_sum_contain_oxygen_bond_distance_aromatic_linkinvent_7_9_3/rearranged_h_0184.sdf

> <i_m_source_file_index>
55

> <r_mmod_Potential_Energy-OPLS-2005>
-491.069030761719

> <r_mmod_Stretch_Energy-OPLS-2005>
34.7945213317871

> <r_mmod_Bend_Energy-OPLS-2005>
116.88436126709

> <r_mmod_Torsional_Energy-OPLS-2005>
300.169586181641

> <r_mmod_Improper_Torsional_Energy-OPLS-2005>
7.66751527786255

> <r_mmod_Van_der_Waal_Energy-OPLS-2005>
172.625259399414

> <r_mmod_Electrostatic_Energy-OPLS-2005>
-674.0908203125

> <r_mmod_Solvation_Energy-OPLS-2005>
-457.677978515625

> <b_mmod_Minimization_Converged-OPLS-2005>
0

> <r_mmod_RMS_Derivative-OPLS-2005>
4.80034065246582

$$$$
55
                    3D
 Structure written by MMmdl.
152161  0  0  1  0            999 V2000
  -30.4834  -15.1882   20.3469 C   0  0  0  0  0  0
  -30.4305  -12.7531   19.5319 C   0  0  0  0  0  0
  -29.5306  -12.5562   18.2919 C   0  0  0  0  0  0
  -28.0840  -12.2818   18.7263 C   0  0  0  0  0  0
  -27.6087  -13.2694   19.8207 C   0  0  2  0  0  0
  -28.6404  -13.4393   20.9541 C   0  0  0  0  0  0
  -25.2362  -13.8257   20.5754 C   0  0  0  0  0  0
  -24.1677  -13.0455   20.9246 C   0  0  0  0  0  0
  -24.6341  -11.6964   20.8783 C   0  0  0  0  0  0
  -23.9062  -10.4311   21.0430 C   0  0  0  0  0  0
  -24.3616   -9.4221   21.9179 C   0  0  0  0  0  0
  -23.6275   -8.2268   22.0753 C   0  0  0  0  0  0
  -22.4268   -8.0287   21.3542 C   0  0  0  0  0  0
  -21.9899   -9.0280   20.4680 C   0  0  0  0  0  0
  -22.7246  -10.2148   20.3079 C   0  0  0  0  0  0
  -21.6848   -6.0728   22.5274 C   0  0  0  0  0  0
  -21.4032   -6.5629   23.8215 C   0  0  0  0  0  0
  -21.3679   -5.6770   24.9172 C   0  0  0  0  0  0
  -21.6062   -4.3028   24.7207 C   0  0  0  0  0  0
  -21.8828   -3.8129   23.4320 C   0  0  0  0  0  0
  -21.9182   -4.6952   22.3385 C   0  0  0  0  0  0
  -22.7701  -13.5244   21.1881 C   0  0  0  0  0  0
  -22.1650   -4.2137   21.0952 F   0  0  0  0  0  0
  -21.5626   -3.4522   25.7720 F   0  0  0  0  0  0
  -29.8858  -13.9054   20.3290 N   0  0  0  0  0  0
  -26.2773  -12.9505   20.3220 N   0  0  0  0  0  0
  -25.9264  -11.6627   20.5716 N   0  0  0  0  0  0
  -22.0334  -12.8255   22.0465 N   0  0  0  0  0  0
  -25.4015  -15.1984   20.4262 N   0  0  0  0  0  0
  -31.7029  -15.1607   20.1278 O   0  0  0  0  0  0
  -21.6637   -6.8876   21.4240 O   0  0  0  0  0  0
  -22.3396  -14.5517   20.6671 O   0  0  0  0  0  0
  -24.6550  -31.8358   23.1778 C   0  0  0  0  0  0
  -25.9288  -32.4629   23.8185 C   0  0  1  0  0  0
  -27.2060  -27.0099   20.1602 C   0  0  0  0  0  0
  -25.6021  -33.8435   24.2140 N   0  0  0  0  0  0
  -23.4618  -30.4548   21.5246 C   0  0  2  0  0  0
  -24.9113  -28.8562   20.1113 C   0  0  0  0  0  0
  -22.7631  -29.4544   22.4806 C   0  0  0  0  0  0
  -18.0357  -28.1357   22.8502 C   0  0  0  0  0  0
  -24.1505  -36.7219   23.2648 C   0  0  0  0  0  0
  -26.0271  -30.6658   21.3983 C   0  0  0  0  0  0
  -26.0920  -29.2623   20.7434 C   0  0  0  0  0  0
  -27.2383  -28.3584   20.7511 C   0  0  0  0  0  0
  -26.0003  -26.7460   19.4790 C   0  0  0  0  0  0
  -24.8865  -27.6148   19.4578 C   0  0  0  0  0  0
  -23.6966  -29.7802   20.1470 C   0  0  0  0  0  0
  -25.4126  -36.2980   24.0315 C   0  0  1  0  0  0
  -20.5970  -28.3731   23.1197 C   0  0  2  0  0  0
  -20.6810  -26.9412   22.5407 C   0  0  0  0  0  0
  -19.5748  -26.6359   21.5245 C   0  0  0  0  0  0
  -18.1946  -26.7890   22.1673 C   0  0  0  0  0  0
  -19.1612  -28.8859   23.2835 C   0  0  0  0  0  0
  -18.9517  -30.1465   23.8834 C   0  0  0  0  0  0
  -17.6503  -30.6551   24.0563 C   0  0  0  0  0  0
  -25.9080  -34.9380   23.5029 C   0  0  0  0  0  0
  -16.5398  -29.9040   23.6329 C   0  0  0  0  0  0
  -16.7342  -28.6469   23.0333 C   0  0  0  0  0  0
  -26.4558  -31.6501   25.0665 C   0  0  0  0  0  0
  -25.3748  -31.3767   26.1377 C   0  0  0  0  0  0
  -27.0456  -30.2863   24.6359 C   0  0  0  0  0  0
  -27.6053  -32.4297   25.7489 C   0  0  0  0  0  0
  -27.5549  -37.1771   24.8473 C   0  0  0  0  0  0
  -21.4320  -29.3068   22.3558 N   0  0  0  0  0  0
  -26.4266  -37.3706   23.9403 N   0  0  0  0  0  0
  -24.7349  -31.0102   22.0875 N   0  0  0  0  0  0
  -23.4260  -28.8132   23.2988 O   0  0  0  0  0  0
  -28.2171  -25.9376   20.1611 O   0  0  0  0  0  0
  -26.5663  -34.8909   22.4607 O   0  0  0  0  0  0
  -23.5650  -32.1340   23.6924 O   0  0  0  0  0  0
  -29.4005  -23.0187   18.6506 C   0  0  0  0  0  0
  -29.9635  -21.8576   18.0881 C   0  0  0  0  0  0
  -28.7046  -22.9567   19.8653 C   0  0  0  0  0  0
  -29.2509  -20.4399   19.8242 C   0  0  0  0  0  0
  -30.4472  -17.8406   20.9079 C   0  0  0  0  0  0
  -29.0280  -17.3963   19.5418 C   0  0  0  0  0  0
  -29.2731  -18.7904   20.3454 C   0  0  0  0  0  0
  -30.6577  -21.9430   16.7322 C   0  0  0  0  0  0
  -27.8819  -24.3671   20.3725 C   0  0  0  0  0  0
  -29.9040  -20.6285   18.6716 N   0  0  0  0  0  0
  -28.6526  -21.6038   20.4123 N   0  0  0  0  0  0
  -29.8040  -16.4863   20.5164 N   0  0  0  0  0  0
  -31.4582  -12.9261   19.2112 H   0  0  0  0  0  0
  -30.4734  -11.8474   20.1385 H   0  0  0  0  0  0
  -29.9028  -11.7351   17.6786 H   0  0  0  0  0  0
  -29.5578  -13.4420   17.6586 H   0  0  0  0  0  0
  -28.0610  -11.2690   19.1262 H   0  0  0  0  0  0
  -27.4127  -12.2881   17.8667 H   0  0  0  0  0  0
  -27.5338  -14.2359   19.3205 H   0  0  0  0  0  0
  -28.7862  -12.5159   21.5166 H   0  0  0  0  0  0
  -28.2866  -14.1861   21.6657 H   0  0  0  0  0  0
  -25.2759   -9.5670   22.4736 H   0  0  0  0  0  0
  -24.0001   -7.4653   22.7436 H   0  0  0  0  0  0
  -21.0861   -8.8821   19.8954 H   0  0  0  0  0  0
  -22.3740  -10.9685   19.6179 H   0  0  0  0  0  0
  -21.2056   -7.6134   23.9712 H   0  0  0  0  0  0
  -21.1487   -6.0496   25.9084 H   0  0  0  0  0  0
  -22.0582   -2.7582   23.2803 H   0  0  0  0  0  0
  -22.3960  -11.9983   22.4948 H   0  0  0  0  0  0
  -21.0945  -13.1259   22.2641 H   0  0  0  0  0  0
  -24.6310  -15.8489   20.5419 H   0  0  0  0  0  0
  -26.2525  -15.6418   20.1068 H   0  0  0  0  0  0
  -26.7355  -32.5202   23.0910 H   0  0  0  0  0  0
  -25.0191  -33.9531   25.0310 H   0  0  0  0  0  0
  -22.7704  -31.2862   21.3644 H   0  0  0  0  0  0
  -23.3746  -35.9569   23.3303 H   0  0  0  0  0  0
  -24.3607  -36.8851   22.2064 H   0  0  0  0  0  0
  -23.7306  -37.6433   23.6685 H   0  0  0  0  0  0
  -26.1983  -31.4101   20.6193 H   0  0  0  0  0  0
  -26.8914  -30.7178   22.0485 H   0  0  0  0  0  0
  -28.1299  -28.6763   21.2717 H   0  0  0  0  0  0
  -25.8975  -25.8127   18.9485 H   0  0  0  0  0  0
  -23.9961  -27.2990   18.9341 H   0  0  0  0  0  0
  -23.8497  -30.5565   19.3943 H   0  0  0  0  0  0
  -22.8038  -29.2350   19.8309 H   0  0  0  0  0  0
  -25.1327  -36.1753   25.0799 H   0  0  0  0  0  0
  -21.0089  -28.3291   24.1308 H   0  0  0  0  0  0
  -20.5667  -26.2369   23.3650 H   0  0  0  0  0  0
  -21.6658  -26.7360   22.1202 H   0  0  0  0  0  0
  -19.6872  -25.6282   21.1238 H   0  0  0  0  0  0
  -19.6582  -27.3202   20.6785 H   0  0  0  0  0  0
  -17.4212  -26.6698   21.4069 H   0  0  0  0  0  0
  -18.0282  -26.0027   22.9051 H   0  0  0  0  0  0
  -19.8001  -30.7320   24.2104 H   0  0  0  0  0  0
  -17.5061  -31.6212   24.5199 H   0  0  0  0  0  0
  -15.5384  -30.2905   23.7653 H   0  0  0  0  0  0
  -15.8781  -28.0782   22.6981 H   0  0  0  0  0  0
  -24.5926  -30.7068   25.7759 H   0  0  0  0  0  0
  -24.8941  -32.2985   26.4638 H   0  0  0  0  0  0
  -25.8046  -30.9080   27.0237 H   0  0  0  0  0  0
  -26.3121  -29.6517   24.1351 H   0  0  0  0  0  0
  -27.4013  -29.7202   25.4970 H   0  0  0  0  0  0
  -27.9051  -30.4035   23.9762 H   0  0  0  0  0  0
  -27.2595  -33.3651   26.1910 H   0  0  0  0  0  0
  -28.3962  -32.6753   25.0389 H   0  0  0  0  0  0
  -28.0600  -31.8509   26.5537 H   0  0  0  0  0  0
  -28.2571  -38.0056   24.7460 H   0  0  0  0  0  0
  -28.1039  -36.2571   24.6359 H   0  0  0  0  0  0
  -27.2273  -37.1520   25.8886 H   0  0  0  0  0  0
  -20.9504  -29.8844   21.6801 H   0  0  0  0  0  0
  -26.0099  -38.2770   24.1337 H   0  0  0  0  0  0
  -29.4571  -23.9621   18.1202 H   0  0  0  0  0  0
  -31.3975  -18.0357   20.4046 H   0  0  0  0  0  0
  -30.5794  -17.9693   21.9827 H   0  0  0  0  0  0
  -27.9648  -17.1499   19.4607 H   0  0  0  0  0  0
  -29.4653  -17.4215   18.5415 H   0  0  0  0  0  0
  -28.5169  -18.8023   21.1291 H   0  0  0  0  0  0
  -30.7393  -20.9689   16.2479 H   0  0  0  0  0  0
  -31.6598  -22.3617   16.8263 H   0  0  0  0  0  0
  -30.0981  -22.5905   16.0536 H   0  0  0  0  0  0
  -27.7530  -24.2488   21.4471 H   0  0  0  0  0  0
  -26.8812  -24.2079   19.9783 H   0  0  0  0  0  0
  1 25  1  0  0  0
  1 30  2  0  0  0
  1 82  1  0  0  0
  2  3  1  0  0  0
  2 25  1  0  0  0
  2 83  1  0  0  0
  2 84  1  0  0  0
  3  4  1  0  0  0
  3 85  1  0  0  0
  3 86  1  0  0  0
  4  5  1  0  0  0
  4 87  1  0  0  0
  4 88  1  0  0  0
  5  6  1  0  0  0
  5 26  1  0  0  0
  5 89  1  0  0  0
  6 25  1  0  0  0
  6 90  1  0  0  0
  6 91  1  0  0  0
  7  8  2  0  0  0
  7 26  1  0  0  0
  7 29  1  0  0  0
  8  9  1  0  0  0
  8 22  1  0  0  0
  9 10  1  0  0  0
  9 27  2  0  0  0
 10 11  2  0  0  0
 10 15  1  0  0  0
 11 12  1  0  0  0
 11 92  1  0  0  0
 12 13  2  0  0  0
 12 93  1  0  0  0
 13 14  1  0  0  0
 13 31  1  0  0  0
 14 15  2  0  0  0
 14 94  1  0  0  0
 15 95  1  0  0  0
 16 17  2  0  0  0
 16 21  1  0  0  0
 16 31  1  0  0  0
 17 18  1  0  0  0
 17 96  1  0  0  0
 18 19  2  0  0  0
 18 97  1  0  0  0
 19 20  1  0  0  0
 19 24  1  0  0  0
 20 21  2  0  0  0
 20 98  1  0  0  0
 21 23  1  0  0  0
 22 28  1  0  0  0
 22 32  2  0  0  0
 26 27  1  0  0  0
 28 99  1  0  0  0
 28100  1  0  0  0
 29101  1  0  0  0
 29102  1  0  0  0
 33 34  1  0  0  0
 33 66  1  0  0  0
 33 70  2  0  0  0
 34 36  1  0  0  0
 34 59  1  0  0  0
 34103  1  0  0  0
 35 44  2  0  0  0
 35 45  1  0  0  0
 35 68  1  0  0  0
 36 56  1  0  0  0
 36104  1  0  0  0
 37 39  1  0  0  0
 37 47  1  0  0  0
 37 66  1  0  0  0
 37105  1  0  0  0
 38 43  2  0  0  0
 38 46  1  0  0  0
 38 47  1  0  0  0
 39 64  1  0  0  0
 39 67  2  0  0  0
 40 52  1  0  0  0
 40 53  2  0  0  0
 40 58  1  0  0  0
 41106  1  0  0  0
 41107  1  0  0  0
 41108  1  0  0  0
 41 48  1  0  0  0
 42 43  1  0  0  0
 42 66  1  0  0  0
 42109  1  0  0  0
 42110  1  0  0  0
 43 44  1  0  0  0
 44111  1  0  0  0
 45 46  2  0  0  0
 45112  1  0  0  0
 46113  1  0  0  0
 47114  1  0  0  0
 47115  1  0  0  0
 48 56  1  0  0  0
 48 65  1  0  0  0
 48116  1  0  0  0
 49 50  1  0  0  0
 49 53  1  0  0  0
 49 64  1  0  0  0
 49117  1  0  0  0
 50 51  1  0  0  0
 50118  1  0  0  0
 50119  1  0  0  0
 51 52  1  0  0  0
 51120  1  0  0  0
 51121  1  0  0  0
 52122  1  0  0  0
 52123  1  0  0  0
 53 54  1  0  0  0
 54 55  2  0  0  0
 54124  1  0  0  0
 55 57  1  0  0  0
 55125  1  0  0  0
 56 69  2  0  0  0
 57 58  2  0  0  0
 57126  1  0  0  0
 58127  1  0  0  0
 59 60  1  0  0  0
 59 61  1  0  0  0
 59 62  1  0  0  0
 60128  1  0  0  0
 60129  1  0  0  0
 60130  1  0  0  0
 61131  1  0  0  0
 61132  1  0  0  0
 61133  1  0  0  0
 62134  1  0  0  0
 62135  1  0  0  0
 62136  1  0  0  0
 63 65  1  0  0  0
 63137  1  0  0  0
 63138  1  0  0  0
 63139  1  0  0  0
 64140  1  0  0  0
 65141  1  0  0  0
 68 79  1  0  0  0
 71 72  2  0  0  0
 71 73  1  0  0  0
 71142  1  0  0  0
 72 78  1  0  0  0
 72 80  1  0  0  0
 73 79  1  0  0  0
 73 81  2  0  0  0
 74 80  2  0  0  0
 74 81  1  0  0  0
 74 77  1  0  0  0
 75 77  1  0  0  0
 75 82  1  0  0  0
 75143  1  0  0  0
 75144  1  0  0  0
 76 77  1  0  0  0
 76 82  1  0  0  0
 76145  1  0  0  0
 76146  1  0  0  0
 77147  1  0  0  0
 78148  1  0  0  0
 78149  1  0  0  0
 78150  1  0  0  0
 79151  1  0  0  0
 79152  1  0  0  0
M  ISO  4   1 100  68 101  79 101  82 100
M  END
> <chiral flag>
0

> <version>
0

> <s_m_source_file>
/data/baiqing/PycharmProjects/Reinvent-master-3.2/result/LINK_invent/BTK/process_docking_weight1_custom_sum_contain_oxygen_bond_distance_aromatic_linkinvent_7_9_3/rearranged_h_0184.sdf

> <i_m_source_file_index>
56

> <r_mmod_Potential_Energy-OPLS-2005>
611.597839355469

> <r_mmod_Stretch_Energy-OPLS-2005>
408.915161132812

> <r_mmod_Bend_Energy-OPLS-2005>
369.308410644531

> <r_mmod_Torsional_Energy-OPLS-2005>
269.096282958984

> <r_mmod_Improper_Torsional_Energy-OPLS-2005>
9.23587036132812

> <r_mmod_Van_der_Waal_Energy-OPLS-2005>
128.629913330078

> <r_mmod_Electrostatic_Energy-OPLS-2005>
-696.102355957031

> <r_mmod_Solvation_Energy-OPLS-2005>
-243.693145751953

> <b_mmod_Minimization_Converged-OPLS-2005>
0

> <r_mmod_RMS_Derivative-OPLS-2005>
5.41733837127686

$$$$
56
                    3D
 Structure written by MMmdl.
158167  0  0  1  0            999 V2000
  -30.6539  -14.7251   20.4605 C   0  0  0  0  0  0
  -30.4188  -12.4479   19.4723 C   0  0  0  0  0  0
  -29.5034  -12.5052   18.2328 C   0  0  0  0  0  0
  -28.0313  -12.3288   18.6498 C   0  0  0  0  0  0
  -27.6366  -13.2349   19.8477 C   0  0  2  0  0  0
  -28.6826  -13.1954   20.9823 C   0  0  0  0  0  0
  -25.2505  -13.8213   20.5719 C   0  0  0  0  0  0
  -24.1791  -13.0450   20.9198 C   0  0  0  0  0  0
  -24.6391  -11.6930   20.8750 C   0  0  0  0  0  0
  -23.9075  -10.4298   21.0412 C   0  0  0  0  0  0
  -24.3629   -9.4214   21.9183 C   0  0  0  0  0  0
  -23.6307   -8.2244   22.0749 C   0  0  0  0  0  0
  -22.4281   -8.0287   21.3547 C   0  0  0  0  0  0
  -21.9919   -9.0256   20.4644 C   0  0  0  0  0  0
  -22.7248  -10.2136   20.3057 C   0  0  0  0  0  0
  -21.6852   -6.0748   22.5283 C   0  0  0  0  0  0
  -21.4008   -6.5651   23.8212 C   0  0  0  0  0  0
  -21.3661   -5.6797   24.9172 C   0  0  0  0  0  0
  -21.6042   -4.3060   24.7219 C   0  0  0  0  0  0
  -21.8821   -3.8155   23.4337 C   0  0  0  0  0  0
  -21.9190   -4.6975   22.3403 C   0  0  0  0  0  0
  -22.7810  -13.5226   21.1852 C   0  0  0  0  0  0
  -22.1659   -4.2169   21.0976 F   0  0  0  0  0  0
  -21.5633   -3.4543   25.7732 F   0  0  0  0  0  0
  -29.9823  -13.5266   20.3898 N   0  0  0  0  0  0
  -26.2925  -12.9419   20.3303 N   0  0  0  0  0  0
  -25.9323  -11.6562   20.5778 N   0  0  0  0  0  0
  -22.0462  -12.8214   22.0408 N   0  0  0  0  0  0
  -25.4225  -15.1937   20.4173 N   0  0  0  0  0  0
  -31.8485  -14.7617   20.1482 O   0  0  0  0  0  0
  -21.6647   -6.8884   21.4242 O   0  0  0  0  0  0
  -22.3481  -14.5534   20.6709 O   0  0  0  0  0  0
  -24.6267  -31.8570   23.1990 C   0  0  0  0  0  0
  -25.9104  -32.4767   23.8337 C   0  0  1  0  0  0
  -27.2299  -27.2899   20.1191 C   0  0  0  0  0  0
  -25.5909  -33.8567   24.2264 N   0  0  0  0  0  0
  -23.4232  -30.4762   21.5407 C   0  0  2  0  0  0
  -24.8724  -28.9251   20.1037 C   0  0  0  0  0  0
  -22.7481  -29.4603   22.4929 C   0  0  0  0  0  0
  -18.0282  -28.1389   22.8497 C   0  0  0  0  0  0
  -24.1489  -36.7283   23.2641 C   0  0  0  0  0  0
  -25.9640  -30.7766   21.3744 C   0  0  0  0  0  0
  -26.0368  -29.3995   20.7186 C   0  0  0  0  0  0
  -27.2117  -28.5880   20.7264 C   0  0  0  0  0  0
  -26.0428  -26.8689   19.4811 C   0  0  0  0  0  0
  -24.8787  -27.6662   19.4769 C   0  0  0  0  0  0
  -23.6378  -29.8050   20.1562 C   0  0  0  0  0  0
  -25.4116  -36.3077   24.0328 C   0  0  1  0  0  0
  -20.5885  -28.3694   23.1288 C   0  0  2  0  0  0
  -20.6770  -26.9414   22.5426 C   0  0  0  0  0  0
  -19.5751  -26.6390   21.5226 C   0  0  0  0  0  0
  -18.1921  -26.7939   22.1619 C   0  0  0  0  0  0
  -19.1533  -28.8859   23.2889 C   0  0  0  0  0  0
  -18.9459  -30.1454   23.8922 C   0  0  0  0  0  0
  -17.6457  -30.6588   24.0567 C   0  0  0  0  0  0
  -25.9062  -34.9445   23.5106 C   0  0  0  0  0  0
  -16.5348  -29.9085   23.6333 C   0  0  0  0  0  0
  -16.7264  -28.6496   23.0366 C   0  0  0  0  0  0
  -26.4474  -31.6584   25.0721 C   0  0  0  0  0  0
  -25.3704  -31.3723   26.1447 C   0  0  0  0  0  0
  -27.0309  -30.3007   24.6191 C   0  0  0  0  0  0
  -27.6060  -32.4302   25.7462 C   0  0  0  0  0  0
  -27.5584  -37.1788   24.8456 C   0  0  0  0  0  0
  -21.4192  -29.3035   22.3673 N   0  0  0  0  0  0
  -26.4288  -37.3781   23.9416 N   0  0  0  0  0  0
  -24.6902  -31.0548   22.0954 N   0  0  0  0  0  0
  -23.4183  -28.8169   23.3047 O   0  0  0  0  0  0
  -28.3405  -26.4326   20.2298 O   0  0  0  0  0  0
  -26.5644  -34.8912   22.4686 O   0  0  0  0  0  0
  -23.5424  -32.1389   23.7298 O   0  0  0  0  0  0
  -28.3804  -23.8119   19.7651 C   0  0  0  0  0  0
  -28.8023  -21.7297   20.2745 C   0  0  0  0  0  0
  -28.8816  -18.1818   19.7607 C   0  0  0  0  0  0
  -30.0138  -18.2988   21.8829 C   0  0  0  0  0  0
  -29.4900  -16.7259   19.5282 C   0  0  0  0  0  0
  -30.6102  -16.8520   21.6930 C   0  0  0  0  0  0
  -29.8105  -19.1143   20.5787 C   0  0  0  0  0  0
  -30.4814  -23.4222   21.1474 C   0  0  0  0  0  0
  -28.6002  -25.3055   19.3000 C   0  0  0  0  0  0
  -27.3882  -23.0524   19.2598 N   0  0  0  0  0  0
  -27.6744  -21.7175   19.5614 N   0  0  0  0  0  0
  -29.2709  -23.0145   20.4542 N   0  0  0  0  0  0
  -29.9751  -15.9247   20.7055 N   0  0  0  0  0  0
  -29.4674  -20.5749   20.8149 N   0  0  0  0  0  0
  -31.4625  -12.5494   19.1695 H   0  0  0  0  0  0
  -30.3479  -11.4771   19.9653 H   0  0  0  0  0  0
  -29.7865  -11.7327   17.5168 H   0  0  0  0  0  0
  -29.6312  -13.4601   17.7212 H   0  0  0  0  0  0
  -27.8904  -11.2809   18.9176 H   0  0  0  0  0  0
  -27.3725  -12.5160   17.8007 H   0  0  0  0  0  0
  -27.6185  -14.2504   19.4570 H   0  0  0  0  0  0
  -28.7184  -12.2111   21.4511 H   0  0  0  0  0  0
  -28.4251  -13.9084   21.7672 H   0  0  0  0  0  0
  -25.2771   -9.5696   22.4762 H   0  0  0  0  0  0
  -24.0020   -7.4637   22.7467 H   0  0  0  0  0  0
  -21.0845   -8.8778   19.8950 H   0  0  0  0  0  0
  -22.3708  -10.9678   19.6171 H   0  0  0  0  0  0
  -21.1997   -7.6157   23.9724 H   0  0  0  0  0  0
  -21.1482   -6.0522   25.9073 H   0  0  0  0  0  0
  -22.0602   -2.7617   23.2833 H   0  0  0  0  0  0
  -22.4076  -11.9882   22.4806 H   0  0  0  0  0  0
  -21.1078  -13.1230   22.2624 H   0  0  0  0  0  0
  -24.6648  -15.8557   20.5429 H   0  0  0  0  0  0
  -26.2918  -15.6339   20.1428 H   0  0  0  0  0  0
  -26.7178  -32.5427   23.1087 H   0  0  0  0  0  0
  -25.0014  -33.9718   25.0375 H   0  0  0  0  0  0
  -22.7177  -31.2966   21.3938 H   0  0  0  0  0  0
  -23.3764  -35.9600   23.3274 H   0  0  0  0  0  0
  -24.3601  -36.8943   22.2066 H   0  0  0  0  0  0
  -23.7207  -37.6457   23.6691 H   0  0  0  0  0  0
  -26.0970  -31.5378   20.6041 H   0  0  0  0  0  0
  -26.8437  -30.8282   22.0040 H   0  0  0  0  0  0
  -28.0995  -28.9447   21.2305 H   0  0  0  0  0  0
  -25.9827  -25.8933   19.0215 H   0  0  0  0  0  0
  -23.9841  -27.2939   18.9967 H   0  0  0  0  0  0
  -23.7465  -30.5786   19.3954 H   0  0  0  0  0  0
  -22.7595  -29.2272   19.8631 H   0  0  0  0  0  0
  -25.1290  -36.1927   25.0820 H   0  0  0  0  0  0
  -20.9966  -28.3272   24.1413 H   0  0  0  0  0  0
  -20.5657  -26.2315   23.3631 H   0  0  0  0  0  0
  -21.6641  -26.7433   22.1230 H   0  0  0  0  0  0
  -19.6912  -25.6299   21.1263 H   0  0  0  0  0  0
  -19.6696  -27.3205   20.6762 H   0  0  0  0  0  0
  -17.4201  -26.6706   21.4008 H   0  0  0  0  0  0
  -18.0290  -26.0064   22.8991 H   0  0  0  0  0  0
  -19.7931  -30.7267   24.2299 H   0  0  0  0  0  0
  -17.5007  -31.6274   24.5150 H   0  0  0  0  0  0
  -15.5351  -30.2992   23.7653 H   0  0  0  0  0  0
  -15.8658  -28.0818   22.7086 H   0  0  0  0  0  0
  -24.5890  -30.7062   25.7765 H   0  0  0  0  0  0
  -24.8884  -32.2884   26.4875 H   0  0  0  0  0  0
  -25.8019  -30.8887   27.0219 H   0  0  0  0  0  0
  -26.2883  -29.6756   24.1226 H   0  0  0  0  0  0
  -27.4000  -29.7266   25.4696 H   0  0  0  0  0  0
  -27.8757  -30.4280   23.9425 H   0  0  0  0  0  0
  -27.2717  -33.3614   26.2037 H   0  0  0  0  0  0
  -28.3862  -32.6823   25.0270 H   0  0  0  0  0  0
  -28.0738  -31.8424   26.5370 H   0  0  0  0  0  0
  -28.2576  -38.0110   24.7539 H   0  0  0  0  0  0
  -28.1104  -36.2650   24.6214 H   0  0  0  0  0  0
  -27.2321  -37.1337   25.8861 H   0  0  0  0  0  0
  -20.9368  -29.8729   21.6862 H   0  0  0  0  0  0
  -26.0164  -38.2846   24.1448 H   0  0  0  0  0  0
  -27.9107  -18.0991   20.2523 H   0  0  0  0  0  0
  -28.6823  -18.6358   18.7894 H   0  0  0  0  0  0
  -30.6749  -18.8482   22.5537 H   0  0  0  0  0  0
  -29.0622  -18.2233   22.4124 H   0  0  0  0  0  0
  -30.3306  -16.8291   18.8386 H   0  0  0  0  0  0
  -28.7564  -16.1311   18.9861 H   0  0  0  0  0  0
  -30.6061  -16.3544   22.6644 H   0  0  0  0  0  0
  -31.6635  -16.9742   21.4326 H   0  0  0  0  0  0
  -30.7702  -19.1422   20.0590 H   0  0  0  0  0  0
  -30.5508  -24.5089   21.1940 H   0  0  0  0  0  0
  -31.3545  -23.0311   20.6234 H   0  0  0  0  0  0
  -30.4697  -23.0328   22.1664 H   0  0  0  0  0  0
  -28.0732  -25.4604   18.3582 H   0  0  0  0  0  0
  -29.6526  -25.3915   19.0278 H   0  0  0  0  0  0
  -30.1567  -20.9365   21.4646 H   0  0  0  0  0  0
  1 25  1  0  0  0
  1 30  2  0  0  0
  1 83  1  0  0  0
  2  3  1  0  0  0
  2 25  1  0  0  0
  2 85  1  0  0  0
  2 86  1  0  0  0
  3  4  1  0  0  0
  3 87  1  0  0  0
  3 88  1  0  0  0
  4  5  1  0  0  0
  4 89  1  0  0  0
  4 90  1  0  0  0
  5  6  1  0  0  0
  5 26  1  0  0  0
  5 91  1  0  0  0
  6 25  1  0  0  0
  6 92  1  0  0  0
  6 93  1  0  0  0
  7  8  2  0  0  0
  7 26  1  0  0  0
  7 29  1  0  0  0
  8  9  1  0  0  0
  8 22  1  0  0  0
  9 10  1  0  0  0
  9 27  2  0  0  0
 10 11  2  0  0  0
 10 15  1  0  0  0
 11 12  1  0  0  0
 11 94  1  0  0  0
 12 13  2  0  0  0
 12 95  1  0  0  0
 13 14  1  0  0  0
 13 31  1  0  0  0
 14 15  2  0  0  0
 14 96  1  0  0  0
 15 97  1  0  0  0
 16 17  2  0  0  0
 16 21  1  0  0  0
 16 31  1  0  0  0
 17 18  1  0  0  0
 17 98  1  0  0  0
 18 19  2  0  0  0
 18 99  1  0  0  0
 19 20  1  0  0  0
 19 24  1  0  0  0
 20 21  2  0  0  0
 20100  1  0  0  0
 21 23  1  0  0  0
 22 28  1  0  0  0
 22 32  2  0  0  0
 26 27  1  0  0  0
 28101  1  0  0  0
 28102  1  0  0  0
 29103  1  0  0  0
 29104  1  0  0  0
 33 34  1  0  0  0
 33 66  1  0  0  0
 33 70  2  0  0  0
 34 36  1  0  0  0
 34 59  1  0  0  0
 34105  1  0  0  0
 35 44  2  0  0  0
 35 45  1  0  0  0
 35 68  1  0  0  0
 36 56  1  0  0  0
 36106  1  0  0  0
 37 39  1  0  0  0
 37 47  1  0  0  0
 37 66  1  0  0  0
 37107  1  0  0  0
 38 43  2  0  0  0
 38 46  1  0  0  0
 38 47  1  0  0  0
 39 64  1  0  0  0
 39 67  2  0  0  0
 40 52  1  0  0  0
 40 53  2  0  0  0
 40 58  1  0  0  0
 41108  1  0  0  0
 41109  1  0  0  0
 41110  1  0  0  0
 41 48  1  0  0  0
 42 43  1  0  0  0
 42 66  1  0  0  0
 42111  1  0  0  0
 42112  1  0  0  0
 43 44  1  0  0  0
 44113  1  0  0  0
 45 46  2  0  0  0
 45114  1  0  0  0
 46115  1  0  0  0
 47116  1  0  0  0
 47117  1  0  0  0
 48 56  1  0  0  0
 48 65  1  0  0  0
 48118  1  0  0  0
 49 50  1  0  0  0
 49 53  1  0  0  0
 49 64  1  0  0  0
 49119  1  0  0  0
 50 51  1  0  0  0
 50120  1  0  0  0
 50121  1  0  0  0
 51 52  1  0  0  0
 51122  1  0  0  0
 51123  1  0  0  0
 52124  1  0  0  0
 52125  1  0  0  0
 53 54  1  0  0  0
 54 55  2  0  0  0
 54126  1  0  0  0
 55 57  1  0  0  0
 55127  1  0  0  0
 56 69  2  0  0  0
 57 58  2  0  0  0
 57128  1  0  0  0
 58129  1  0  0  0
 59 60  1  0  0  0
 59 61  1  0  0  0
 59 62  1  0  0  0
 60130  1  0  0  0
 60131  1  0  0  0
 60132  1  0  0  0
 61133  1  0  0  0
 61134  1  0  0  0
 61135  1  0  0  0
 62136  1  0  0  0
 62137  1  0  0  0
 62138  1  0  0  0
 63 65  1  0  0  0
 63139  1  0  0  0
 63140  1  0  0  0
 63141  1  0  0  0
 64142  1  0  0  0
 65143  1  0  0  0
 68 79  1  0  0  0
 71 79  1  0  0  0
 71 80  2  0  0  0
 71 82  1  0  0  0
 72 81  2  0  0  0
 72 82  1  0  0  0
 72 84  1  0  0  0
 73 75  1  0  0  0
 73 77  1  0  0  0
 73144  1  0  0  0
 73145  1  0  0  0
 74 76  1  0  0  0
 74 77  1  0  0  0
 74146  1  0  0  0
 74147  1  0  0  0
 75 83  1  0  0  0
 75148  1  0  0  0
 75149  1  0  0  0
 76 83  1  0  0  0
 76150  1  0  0  0
 76151  1  0  0  0
 77 84  1  0  0  0
 77152  1  0  0  0
 78 82  1  0  0  0
 78153  1  0  0  0
 78154  1  0  0  0
 78155  1  0  0  0
 79156  1  0  0  0
 79157  1  0  0  0
 80 81  1  0  0  0
 84158  1  0  0  0
M  ISO  4   1 100  68 101  79 101  83 100
M  END
> <chiral flag>
0

> <version>
0

> <s_m_source_file>
/data/baiqing/PycharmProjects/Reinvent-master-3.2/result/LINK_invent/BTK/process_docking_weight1_custom_sum_contain_oxygen_bond_distance_aromatic_linkinvent_7_9_3/rearranged_h_0184.sdf

> <i_m_source_file_index>
57

> <r_mmod_Potential_Energy-OPLS-2005>
280.6865234375

> <r_mmod_Stretch_Energy-OPLS-2005>
101.447639465332

> <r_mmod_Bend_Energy-OPLS-2005>
220.880508422852

> <r_mmod_Torsional_Energy-OPLS-2005>
330.724212646484

> <r_mmod_Improper_Torsional_Energy-OPLS-2005>
11.592791557312

> <r_mmod_Van_der_Waal_Energy-OPLS-2005>
115.956596374512

> <r_mmod_Electrostatic_Energy-OPLS-2005>
-342.150451660156

> <r_mmod_Solvation_Energy-OPLS-2005>
-234.634155273438

> <b_mmod_Minimization_Converged-OPLS-2005>
0

> <r_mmod_RMS_Derivative-OPLS-2005>
1.6679265499115

$$$$
57
                    3D
 Structure written by MMmdl.
159168  0  0  1  0            999 V2000
  -30.7098  -14.5554   20.5013 C   0  0  0  0  0  0
  -30.4105  -12.3431   19.4534 C   0  0  0  0  0  0
  -29.4938  -12.4867   18.2217 C   0  0  0  0  0  0
  -28.0180  -12.3420   18.6368 C   0  0  0  0  0  0
  -27.6490  -13.2237   19.8609 C   0  0  2  0  0  0
  -28.6937  -13.1009   20.9933 C   0  0  0  0  0  0
  -25.2531  -13.8197   20.5700 C   0  0  0  0  0  0
  -24.1807  -13.0446   20.9189 C   0  0  0  0  0  0
  -24.6390  -11.6921   20.8753 C   0  0  0  0  0  0
  -23.9065  -10.4293   21.0411 C   0  0  0  0  0  0
  -24.3617   -9.4206   21.9188 C   0  0  0  0  0  0
  -23.6291   -8.2243   22.0754 C   0  0  0  0  0  0
  -22.4278   -8.0281   21.3541 C   0  0  0  0  0  0
  -21.9914   -9.0252   20.4646 C   0  0  0  0  0  0
  -22.7237  -10.2134   20.3056 C   0  0  0  0  0  0
  -21.6852   -6.0734   22.5276 C   0  0  0  0  0  0
  -21.4014   -6.5638   23.8209 C   0  0  0  0  0  0
  -21.3658   -5.6794   24.9174 C   0  0  0  0  0  0
  -21.6042   -4.3057   24.7224 C   0  0  0  0  0  0
  -21.8819   -3.8149   23.4346 C   0  0  0  0  0  0
  -21.9190   -4.6963   22.3399 C   0  0  0  0  0  0
  -22.7827  -13.5229   21.1847 C   0  0  0  0  0  0
  -22.1659   -4.2146   21.0978 F   0  0  0  0  0  0
  -21.5626   -3.4545   25.7740 F   0  0  0  0  0  0
  -30.0135  -13.3852   20.4185 N   0  0  0  0  0  0
  -26.2971  -12.9399   20.3347 N   0  0  0  0  0  0
  -25.9325  -11.6541   20.5786 N   0  0  0  0  0  0
  -22.0477  -12.8217   22.0409 N   0  0  0  0  0  0
  -25.4233  -15.1917   20.4106 N   0  0  0  0  0  0
  -31.8806  -14.6315   20.1232 O   0  0  0  0  0  0
  -21.6639   -6.8878   21.4239 O   0  0  0  0  0  0
  -22.3502  -14.5533   20.6696 O   0  0  0  0  0  0
  -24.6202  -31.8644   23.2073 C   0  0  0  0  0  0
  -25.9073  -32.4807   23.8381 C   0  0  1  0  0  0
  -27.2206  -27.3784   20.1136 C   0  0  0  0  0  0
  -25.5911  -33.8610   24.2307 N   0  0  0  0  0  0
  -23.4096  -30.4888   21.5491 C   0  0  2  0  0  0
  -24.8554  -28.9511   20.1127 C   0  0  0  0  0  0
  -22.7442  -29.4639   22.4971 C   0  0  0  0  0  0
  -18.0278  -28.1376   22.8480 C   0  0  0  0  0  0
  -24.1484  -36.7302   23.2639 C   0  0  0  0  0  0
  -25.9443  -30.8153   21.3673 C   0  0  0  0  0  0
  -26.0200  -29.4454   20.7143 C   0  0  0  0  0  0
  -27.2092  -28.6694   20.7050 C   0  0  0  0  0  0
  -26.0421  -26.9233   19.4836 C   0  0  0  0  0  0
  -24.8652  -27.6932   19.4888 C   0  0  0  0  0  0
  -23.6203  -29.8247   20.1627 C   0  0  0  0  0  0
  -25.4105  -36.3103   24.0333 C   0  0  1  0  0  0
  -20.5870  -28.3668   23.1299 C   0  0  2  0  0  0
  -20.6764  -26.9400   22.5411 C   0  0  0  0  0  0
  -19.5743  -26.6380   21.5212 C   0  0  0  0  0  0
  -18.1921  -26.7916   22.1617 C   0  0  0  0  0  0
  -19.1529  -28.8841   23.2884 C   0  0  0  0  0  0
  -18.9460  -30.1445   23.8896 C   0  0  0  0  0  0
  -17.6462  -30.6580   24.0560 C   0  0  0  0  0  0
  -25.9041  -34.9469   23.5120 C   0  0  0  0  0  0
  -16.5354  -29.9081   23.6328 C   0  0  0  0  0  0
  -16.7263  -28.6503   23.0335 C   0  0  0  0  0  0
  -26.4482  -31.6595   25.0725 C   0  0  0  0  0  0
  -25.3737  -31.3700   26.1466 C   0  0  0  0  0  0
  -27.0328  -30.3041   24.6114 C   0  0  0  0  0  0
  -27.6052  -32.4322   25.7486 C   0  0  0  0  0  0
  -27.5574  -37.1804   24.8465 C   0  0  0  0  0  0
  -21.4162  -29.3039   22.3716 N   0  0  0  0  0  0
  -26.4284  -37.3790   23.9416 N   0  0  0  0  0  0
  -24.6767  -31.0712   22.0990 N   0  0  0  0  0  0
  -23.4205  -28.8165   23.3010 O   0  0  0  0  0  0
  -28.3539  -26.5769   20.1294 O   0  0  0  0  0  0
  -26.5606  -34.8929   22.4684 O   0  0  0  0  0  0
  -23.5387  -32.1409   23.7444 O   0  0  0  0  0  0
  -28.6254  -20.6917   21.0640 C   0  0  0  0  0  0
  -29.6736  -20.5393   20.1958 C   0  0  0  0  0  0
  -28.1853  -19.5472   21.7535 C   0  0  0  0  0  0
  -29.8429  -18.3088   20.7131 C   0  0  0  0  0  0
  -29.1430  -24.1919   19.8866 C   0  0  0  0  0  0
  -28.1719  -22.1479   21.0952 C   0  0  0  0  0  0
  -30.0212  -21.8661   19.5556 C   0  0  0  0  0  0
  -25.7359  -19.0234   22.1346 C   0  0  0  0  0  0
  -27.0304  -19.5839   22.7362 C   0  0  0  0  0  0
  -30.6884  -17.0207   20.6518 C   0  0  0  0  0  0
  -28.1717  -25.1927   20.5782 C   0  0  0  0  0  0
  -30.3010  -19.3572   20.0062 N   0  0  0  0  0  0
  -28.8057  -18.3514   21.5595 N   0  0  0  0  0  0
  -29.0901  -22.8536   20.1633 N   0  0  0  0  0  0
  -30.0403  -15.6929   20.8070 N   0  0  0  0  0  0
  -29.9690  -24.6390   19.0816 O   0  0  0  0  0  0
  -31.4574  -12.4170   19.1544 H   0  0  0  0  0  0
  -30.3009  -11.3551   19.9034 H   0  0  0  0  0  0
  -29.7471  -11.7341   17.4739 H   0  0  0  0  0  0
  -29.6518  -13.4572   17.7481 H   0  0  0  0  0  0
  -27.8492  -11.2912   18.8762 H   0  0  0  0  0  0
  -27.3634  -12.5705   17.7948 H   0  0  0  0  0  0
  -27.6648  -14.2563   19.5101 H   0  0  0  0  0  0
  -28.6830  -12.0980   21.4232 H   0  0  0  0  0  0
  -28.4600  -13.7851   21.8106 H   0  0  0  0  0  0
  -25.2763   -9.5680   22.4762 H   0  0  0  0  0  0
  -23.9995   -7.4635   22.7484 H   0  0  0  0  0  0
  -21.0839   -8.8768   19.8958 H   0  0  0  0  0  0
  -22.3694  -10.9669   19.6164 H   0  0  0  0  0  0
  -21.2014   -7.6145   23.9714 H   0  0  0  0  0  0
  -21.1478   -6.0527   25.9076 H   0  0  0  0  0  0
  -22.0603   -2.7610   23.2852 H   0  0  0  0  0  0
  -22.4094  -11.9870   22.4783 H   0  0  0  0  0  0
  -21.1101  -13.1237   22.2639 H   0  0  0  0  0  0
  -24.6571  -15.8467   20.5203 H   0  0  0  0  0  0
  -26.2799  -15.6346   20.1046 H   0  0  0  0  0  0
  -26.7133  -32.5510   23.1131 H   0  0  0  0  0  0
  -25.0090  -33.9753   25.0476 H   0  0  0  0  0  0
  -22.7011  -31.3074   21.4087 H   0  0  0  0  0  0
  -23.3744  -35.9635   23.3310 H   0  0  0  0  0  0
  -24.3577  -36.8920   22.2054 H   0  0  0  0  0  0
  -23.7237  -37.6509   23.6648 H   0  0  0  0  0  0
  -26.0618  -31.5780   20.5966 H   0  0  0  0  0  0
  -26.8311  -30.8725   21.9870 H   0  0  0  0  0  0
  -28.1080  -29.0438   21.1748 H   0  0  0  0  0  0
  -26.0222  -25.9680   18.9796 H   0  0  0  0  0  0
  -23.9757  -27.3125   19.0066 H   0  0  0  0  0  0
  -23.7324  -30.6026   19.4064 H   0  0  0  0  0  0
  -22.7408  -29.2521   19.8618 H   0  0  0  0  0  0
  -25.1287  -36.1955   25.0822 H   0  0  0  0  0  0
  -20.9971  -28.3231   24.1412 H   0  0  0  0  0  0
  -20.5674  -26.2273   23.3602 H   0  0  0  0  0  0
  -21.6628  -26.7427   22.1201 H   0  0  0  0  0  0
  -19.6914  -25.6299   21.1227 H   0  0  0  0  0  0
  -19.6688  -27.3196   20.6748 H   0  0  0  0  0  0
  -17.4194  -26.6673   21.4019 H   0  0  0  0  0  0
  -18.0316  -26.0045   22.9000 H   0  0  0  0  0  0
  -19.7941  -30.7260   24.2270 H   0  0  0  0  0  0
  -17.5015  -31.6260   24.5166 H   0  0  0  0  0  0
  -15.5358  -30.2985   23.7656 H   0  0  0  0  0  0
  -15.8656  -28.0839   22.7033 H   0  0  0  0  0  0
  -24.5909  -30.7045   25.7801 H   0  0  0  0  0  0
  -24.8923  -32.2858   26.4910 H   0  0  0  0  0  0
  -25.8084  -30.8869   27.0228 H   0  0  0  0  0  0
  -26.2884  -29.6789   24.1166 H   0  0  0  0  0  0
  -27.4113  -29.7283   25.4572 H   0  0  0  0  0  0
  -27.8703  -30.4380   23.9261 H   0  0  0  0  0  0
  -27.2677  -33.3627   26.2061 H   0  0  0  0  0  0
  -28.3855  -32.6885   25.0307 H   0  0  0  0  0  0
  -28.0713  -31.8445   26.5406 H   0  0  0  0  0  0
  -28.2589  -38.0102   24.7515 H   0  0  0  0  0  0
  -28.1077  -36.2636   24.6286 H   0  0  0  0  0  0
  -27.2296  -37.1454   25.8869 H   0  0  0  0  0  0
  -20.9327  -29.8789   21.6957 H   0  0  0  0  0  0
  -26.0173  -38.2868   24.1420 H   0  0  0  0  0  0
  -28.2547  -22.5565   22.1033 H   0  0  0  0  0  0
  -27.1363  -22.2336   20.7622 H   0  0  0  0  0  0
  -29.8762  -21.8172   18.4761 H   0  0  0  0  0  0
  -31.0597  -22.1280   19.7604 H   0  0  0  0  0  0
  -24.9230  -19.0610   22.8592 H   0  0  0  0  0  0
  -25.8636  -17.9845   21.8298 H   0  0  0  0  0  0
  -25.4323  -19.5948   21.2570 H   0  0  0  0  0  0
  -26.8685  -20.6085   23.0707 H   0  0  0  0  0  0
  -27.3054  -19.0177   23.6268 H   0  0  0  0  0  0
  -31.4647  -17.1110   21.4131 H   0  0  0  0  0  0
  -31.2103  -17.0395   19.6936 H   0  0  0  0  0  0
  -28.3673  -25.1632   21.6502 H   0  0  0  0  0  0
  -27.1568  -24.8208   20.4485 H   0  0  0  0  0  0
  -29.0697  -15.6802   21.0788 H   0  0  0  0  0  0
  1 25  1  0  0  0
  1 30  2  0  0  0
  1 85  1  0  0  0
  2  3  1  0  0  0
  2 25  1  0  0  0
  2 87  1  0  0  0
  2 88  1  0  0  0
  3  4  1  0  0  0
  3 89  1  0  0  0
  3 90  1  0  0  0
  4  5  1  0  0  0
  4 91  1  0  0  0
  4 92  1  0  0  0
  5  6  1  0  0  0
  5 26  1  0  0  0
  5 93  1  0  0  0
  6 25  1  0  0  0
  6 94  1  0  0  0
  6 95  1  0  0  0
  7  8  2  0  0  0
  7 26  1  0  0  0
  7 29  1  0  0  0
  8  9  1  0  0  0
  8 22  1  0  0  0
  9 10  1  0  0  0
  9 27  2  0  0  0
 10 11  2  0  0  0
 10 15  1  0  0  0
 11 12  1  0  0  0
 11 96  1  0  0  0
 12 13  2  0  0  0
 12 97  1  0  0  0
 13 14  1  0  0  0
 13 31  1  0  0  0
 14 15  2  0  0  0
 14 98  1  0  0  0
 15 99  1  0  0  0
 16 17  2  0  0  0
 16 21  1  0  0  0
 16 31  1  0  0  0
 17 18  1  0  0  0
 17100  1  0  0  0
 18 19  2  0  0  0
 18101  1  0  0  0
 19 20  1  0  0  0
 19 24  1  0  0  0
 20 21  2  0  0  0
 20102  1  0  0  0
 21 23  1  0  0  0
 22 28  1  0  0  0
 22 32  2  0  0  0
 26 27  1  0  0  0
 28103  1  0  0  0
 28104  1  0  0  0
 29105  1  0  0  0
 29106  1  0  0  0
 33 34  1  0  0  0
 33 66  1  0  0  0
 33 70  2  0  0  0
 34 36  1  0  0  0
 34 59  1  0  0  0
 34107  1  0  0  0
 35 44  2  0  0  0
 35 45  1  0  0  0
 35 68  1  0  0  0
 36 56  1  0  0  0
 36108  1  0  0  0
 37 39  1  0  0  0
 37 47  1  0  0  0
 37 66  1  0  0  0
 37109  1  0  0  0
 38 43  2  0  0  0
 38 46  1  0  0  0
 38 47  1  0  0  0
 39 64  1  0  0  0
 39 67  2  0  0  0
 40 52  1  0  0  0
 40 53  2  0  0  0
 40 58  1  0  0  0
 41110  1  0  0  0
 41111  1  0  0  0
 41112  1  0  0  0
 41 48  1  0  0  0
 42 43  1  0  0  0
 42 66  1  0  0  0
 42113  1  0  0  0
 42114  1  0  0  0
 43 44  1  0  0  0
 44115  1  0  0  0
 45 46  2  0  0  0
 45116  1  0  0  0
 46117  1  0  0  0
 47118  1  0  0  0
 47119  1  0  0  0
 48 56  1  0  0  0
 48 65  1  0  0  0
 48120  1  0  0  0
 49 50  1  0  0  0
 49 53  1  0  0  0
 49 64  1  0  0  0
 49121  1  0  0  0
 50 51  1  0  0  0
 50122  1  0  0  0
 50123  1  0  0  0
 51 52  1  0  0  0
 51124  1  0  0  0
 51125  1  0  0  0
 52126  1  0  0  0
 52127  1  0  0  0
 53 54  1  0  0  0
 54 55  2  0  0  0
 54128  1  0  0  0
 55 57  1  0  0  0
 55129  1  0  0  0
 56 69  2  0  0  0
 57 58  2  0  0  0
 57130  1  0  0  0
 58131  1  0  0  0
 59 60  1  0  0  0
 59 61  1  0  0  0
 59 62  1  0  0  0
 60132  1  0  0  0
 60133  1  0  0  0
 60134  1  0  0  0
 61135  1  0  0  0
 61136  1  0  0  0
 61137  1  0  0  0
 62138  1  0  0  0
 62139  1  0  0  0
 62140  1  0  0  0
 63 65  1  0  0  0
 63141  1  0  0  0
 63142  1  0  0  0
 63143  1  0  0  0
 64144  1  0  0  0
 65145  1  0  0  0
 68 81  1  0  0  0
 71 72  1  0  0  0
 71 73  2  0  0  0
 71 76  1  0  0  0
 72 77  1  0  0  0
 72 82  2  0  0  0
 73 79  1  0  0  0
 73 83  1  0  0  0
 74 80  1  0  0  0
 74 82  1  0  0  0
 74 83  2  0  0  0
 75 81  1  0  0  0
 75 84  1  0  0  0
 75 86  2  0  0  0
 76 84  1  0  0  0
 76146  1  0  0  0
 76147  1  0  0  0
 77 84  1  0  0  0
 77148  1  0  0  0
 77149  1  0  0  0
 78 79  1  0  0  0
 78150  1  0  0  0
 78151  1  0  0  0
 78152  1  0  0  0
 79153  1  0  0  0
 79154  1  0  0  0
 80 85  1  0  0  0
 80155  1  0  0  0
 80156  1  0  0  0
 81157  1  0  0  0
 81158  1  0  0  0
 85159  1  0  0  0
M  ISO  4   1 100  68 101  81 101  85 100
M  END
> <chiral flag>
0

> <version>
0

> <s_m_source_file>
/data/baiqing/PycharmProjects/Reinvent-master-3.2/result/LINK_invent/BTK/process_docking_weight1_custom_sum_contain_oxygen_bond_distance_aromatic_linkinvent_7_9_3/rearranged_h_0184.sdf

> <i_m_source_file_index>
58

> <r_mmod_Potential_Energy-OPLS-2005>
-584.660583496094

> <r_mmod_Stretch_Energy-OPLS-2005>
53.0533332824707

> <r_mmod_Bend_Energy-OPLS-2005>
165.2255859375

> <r_mmod_Torsional_Energy-OPLS-2005>
214.406890869141

> <r_mmod_Improper_Torsional_Energy-OPLS-2005>
5.08033418655396

> <r_mmod_Van_der_Waal_Energy-OPLS-2005>
152.286712646484

> <r_mmod_Electrostatic_Energy-OPLS-2005>
-940.648803710938

> <r_mmod_Solvation_Energy-OPLS-2005>
-264.210327148438

> <b_mmod_Minimization_Converged-OPLS-2005>
0

> <r_mmod_RMS_Derivative-OPLS-2005>
1.27150368690491

$$$$
58
                    3D
 Structure written by MMmdl.
157167  0  0  1  0            999 V2000
  -30.5442  -14.9353   20.4199 C   0  0  0  0  0  0
  -30.4424  -12.5812   19.4871 C   0  0  0  0  0  0
  -29.5175  -12.5197   18.2497 C   0  0  0  0  0  0
  -28.0521  -12.3070   18.6746 C   0  0  0  0  0  0
  -27.6300  -13.2435   19.8366 C   0  0  2  0  0  0
  -28.6757  -13.2703   20.9704 C   0  0  0  0  0  0
  -25.2476  -13.8206   20.5707 C   0  0  0  0  0  0
  -24.1786  -13.0441   20.9234 C   0  0  0  0  0  0
  -24.6397  -11.6923   20.8763 C   0  0  0  0  0  0
  -23.9077  -10.4294   21.0422 C   0  0  0  0  0  0
  -24.3628   -9.4208   21.9192 C   0  0  0  0  0  0
  -23.6303   -8.2238   22.0754 C   0  0  0  0  0  0
  -22.4282   -8.0283   21.3544 C   0  0  0  0  0  0
  -21.9923   -9.0256   20.4647 C   0  0  0  0  0  0
  -22.7250  -10.2138   20.3062 C   0  0  0  0  0  0
  -21.6852   -6.0741   22.5275 C   0  0  0  0  0  0
  -21.4016   -6.5643   23.8208 C   0  0  0  0  0  0
  -21.3659   -5.6795   24.9174 C   0  0  0  0  0  0
  -21.6039   -4.3058   24.7227 C   0  0  0  0  0  0
  -21.8819   -3.8154   23.4347 C   0  0  0  0  0  0
  -21.9191   -4.6969   22.3402 C   0  0  0  0  0  0
  -22.7806  -13.5215   21.1890 C   0  0  0  0  0  0
  -22.1662   -4.2150   21.0982 F   0  0  0  0  0  0
  -21.5626   -3.4546   25.7743 F   0  0  0  0  0  0
  -29.9495  -13.6779   20.3650 N   0  0  0  0  0  0
  -26.2893  -12.9429   20.3257 N   0  0  0  0  0  0
  -25.9328  -11.6564   20.5752 N   0  0  0  0  0  0
  -22.0457  -12.8195   22.0440 N   0  0  0  0  0  0
  -25.4149  -15.1935   20.4098 N   0  0  0  0  0  0
  -31.7550  -15.0043   20.1840 O   0  0  0  0  0  0
  -21.6641   -6.8884   21.4237 O   0  0  0  0  0  0
  -22.3487  -14.5515   20.6728 O   0  0  0  0  0  0
  -24.6438  -31.8433   23.1880 C   0  0  0  0  0  0
  -25.9214  -32.4687   23.8272 C   0  0  1  0  0  0
  -27.2145  -27.1379   20.1591 C   0  0  0  0  0  0
  -25.5962  -33.8491   24.2183 N   0  0  0  0  0  0
  -23.4462  -30.4634   21.5331 C   0  0  2  0  0  0
  -24.8966  -28.8892   20.1134 C   0  0  0  0  0  0
  -22.7563  -29.4534   22.4856 C   0  0  0  0  0  0
  -18.0292  -28.1391   22.8485 C   0  0  0  0  0  0
  -24.1480  -36.7256   23.2644 C   0  0  0  0  0  0
  -26.0022  -30.7185   21.3864 C   0  0  0  0  0  0
  -26.0744  -29.3282   20.7325 C   0  0  0  0  0  0
  -27.2375  -28.4692   20.7379 C   0  0  0  0  0  0
  -26.0161  -26.8030   19.4939 C   0  0  0  0  0  0
  -24.8794  -27.6383   19.4789 C   0  0  0  0  0  0
  -23.6730  -29.7919   20.1530 C   0  0  0  0  0  0
  -25.4113  -36.3025   24.0315 C   0  0  1  0  0  0
  -20.5912  -28.3713   23.1241 C   0  0  2  0  0  0
  -20.6782  -26.9415   22.5408 C   0  0  0  0  0  0
  -19.5757  -26.6373   21.5216 C   0  0  0  0  0  0
  -18.1928  -26.7932   22.1610 C   0  0  0  0  0  0
  -19.1556  -28.8869   23.2853 C   0  0  0  0  0  0
  -18.9484  -30.1467   23.8881 C   0  0  0  0  0  0
  -17.6485  -30.6600   24.0555 C   0  0  0  0  0  0
  -25.9072  -34.9404   23.5053 C   0  0  0  0  0  0
  -16.5374  -29.9096   23.6345 C   0  0  0  0  0  0
  -16.7280  -28.6501   23.0381 C   0  0  0  0  0  0
  -26.4547  -31.6570   25.0721 C   0  0  0  0  0  0
  -25.3735  -31.3758   26.1427 C   0  0  0  0  0  0
  -27.0443  -30.2975   24.6313 C   0  0  0  0  0  0
  -27.6064  -32.4359   25.7506 C   0  0  0  0  0  0
  -27.5571  -37.1770   24.8457 C   0  0  0  0  0  0
  -21.4252  -29.3046   22.3621 N   0  0  0  0  0  0
  -26.4266  -37.3747   23.9423 N   0  0  0  0  0  0
  -24.7167  -31.0299   22.0908 N   0  0  0  0  0  0
  -23.4212  -28.8074   23.2992 O   0  0  0  0  0  0
  -28.2558  -26.1417   20.1839 O   0  0  0  0  0  0
  -26.5652  -34.8907   22.4630 O   0  0  0  0  0  0
  -23.5563  -32.1305   23.7116 O   0  0  0  0  0  0
  -29.4846  -23.2764   19.0549 C   0  0  0  0  0  0
  -29.9154  -21.9614   18.9469 C   0  0  0  0  0  0
  -29.3640  -21.2165   20.0463 C   0  0  0  0  0  0
  -30.9517  -22.0783   16.5259 C   0  0  0  0  0  0
  -30.2879  -20.7291   16.6671 C   0  0  0  0  0  0
  -29.0147  -18.7145   21.2092 C   0  0  0  0  0  0
  -30.0861  -18.6579   19.4498 C   0  0  0  0  0  0
  -30.8416  -21.4262   17.8863 C   0  0  0  0  0  0
  -30.0945  -17.6471   20.6756 C   0  0  0  0  0  0
  -27.9236  -24.7359   20.6738 C   0  0  0  0  0  0
  -28.6273  -22.1500   20.7639 N   0  0  0  0  0  0
  -28.6924  -23.4524   20.1721 N   0  0  0  0  0  0
  -29.6937  -19.7570   20.3887 N   0  0  0  0  0  0
  -29.7543  -16.1096   20.5379 N   0  0  0  0  0  0
  -31.4728  -12.7467   19.1686 H   0  0  0  0  0  0
  -30.4437  -11.6303   20.0227 H   0  0  0  0  0  0
  -29.8333  -11.7186   17.5804 H   0  0  0  0  0  0
  -29.6026  -13.4464   17.6803 H   0  0  0  0  0  0
  -27.9516  -11.2668   18.9893 H   0  0  0  0  0  0
  -27.3845  -12.4322   17.8207 H   0  0  0  0  0  0
  -27.5933  -14.2441   19.4058 H   0  0  0  0  0  0
  -28.7631  -12.2948   21.4505 H   0  0  0  0  0  0
  -28.3799  -13.9741   21.7498 H   0  0  0  0  0  0
  -25.2775   -9.5675   22.4772 H   0  0  0  0  0  0
  -24.0005   -7.4630   22.7477 H   0  0  0  0  0  0
  -21.0849   -8.8785   19.8959 H   0  0  0  0  0  0
  -22.3713  -10.9682   19.6174 H   0  0  0  0  0  0
  -21.2008   -7.6152   23.9711 H   0  0  0  0  0  0
  -21.1480   -6.0533   25.9072 H   0  0  0  0  0  0
  -22.0597   -2.7616   23.2850 H   0  0  0  0  0  0
  -22.4090  -11.9865   22.4829 H   0  0  0  0  0  0
  -21.1072  -13.1206   22.2653 H   0  0  0  0  0  0
  -24.6420  -15.8423   20.5099 H   0  0  0  0  0  0
  -26.2467  -15.6279   20.0335 H   0  0  0  0  0  0
  -26.7277  -32.5306   23.0996 H   0  0  0  0  0  0
  -25.0127  -33.9607   25.0342 H   0  0  0  0  0  0
  -22.7492  -31.2894   21.3774 H   0  0  0  0  0  0
  -23.3753  -35.9575   23.3272 H   0  0  0  0  0  0
  -24.3563  -36.8929   22.2063 H   0  0  0  0  0  0
  -23.7232  -37.6437   23.6717 H   0  0  0  0  0  0
  -26.1572  -31.4710   20.6123 H   0  0  0  0  0  0
  -26.8729  -30.7706   22.0285 H   0  0  0  0  0  0
  -28.1358  -28.8004   21.2411 H   0  0  0  0  0  0
  -25.9391  -25.8507   18.9894 H   0  0  0  0  0  0
  -23.9810  -27.2981   18.9826 H   0  0  0  0  0  0
  -23.8121  -30.5663   19.3973 H   0  0  0  0  0  0
  -22.7872  -29.2349   19.8408 H   0  0  0  0  0  0
  -25.1294  -36.1832   25.0805 H   0  0  0  0  0  0
  -21.0003  -28.3298   24.1366 H   0  0  0  0  0  0
  -20.5678  -26.2319   23.3624 H   0  0  0  0  0  0
  -21.6649  -26.7418   22.1211 H   0  0  0  0  0  0
  -19.6923  -25.6275   21.1266 H   0  0  0  0  0  0
  -19.6714  -27.3170   20.6736 H   0  0  0  0  0  0
  -17.4213  -26.6712   21.3992 H   0  0  0  0  0  0
  -18.0301  -26.0057   22.8984 H   0  0  0  0  0  0
  -19.7965  -30.7276   24.2250 H   0  0  0  0  0  0
  -17.5046  -31.6287   24.5144 H   0  0  0  0  0  0
  -15.5381  -30.2997   23.7682 H   0  0  0  0  0  0
  -15.8669  -28.0811   22.7138 H   0  0  0  0  0  0
  -24.5932  -30.7070   25.7773 H   0  0  0  0  0  0
  -24.8906  -32.2938   26.4792 H   0  0  0  0  0  0
  -25.8037  -30.9002   27.0248 H   0  0  0  0  0  0
  -26.3089  -29.6665   24.1313 H   0  0  0  0  0  0
  -27.4066  -29.7308   25.4899 H   0  0  0  0  0  0
  -27.8969  -30.4233   23.9633 H   0  0  0  0  0  0
  -27.2657  -33.3691   26.2007 H   0  0  0  0  0  0
  -28.3920  -32.6878   25.0366 H   0  0  0  0  0  0
  -28.0681  -31.8538   26.5491 H   0  0  0  0  0  0
  -28.2558  -38.0096   24.7551 H   0  0  0  0  0  0
  -28.1101  -36.2637   24.6218 H   0  0  0  0  0  0
  -27.2302  -37.1334   25.8858 H   0  0  0  0  0  0
  -20.9462  -29.8787   21.6827 H   0  0  0  0  0  0
  -26.0124  -38.2801   24.1479 H   0  0  0  0  0  0
  -29.6914  -24.1210   18.4119 H   0  0  0  0  0  0
  -30.3099  -22.9273   16.3001 H   0  0  0  0  0  0
  -31.9364  -22.1058   16.0624 H   0  0  0  0  0  0
  -30.8280  -19.8584   16.3009 H   0  0  0  0  0  0
  -29.2060  -20.6866   16.5580 H   0  0  0  0  0  0
  -29.0613  -18.9011   22.2831 H   0  0  0  0  0  0
  -27.9914  -18.5301   20.8755 H   0  0  0  0  0  0
  -29.3143  -18.4552   18.7044 H   0  0  0  0  0  0
  -31.0636  -18.7922   18.9852 H   0  0  0  0  0  0
  -31.7615  -21.0286   18.3124 H   0  0  0  0  0  0
  -31.0287  -17.7712   21.2275 H   0  0  0  0  0  0
  -28.0601  -24.7641   21.7550 H   0  0  0  0  0  0
  -26.8656  -24.5261   20.5215 H   0  0  0  0  0  0
  -28.7714  -15.9068   20.6316 H   0  0  0  0  0  0
  1 25  1  0  0  0
  1 30  2  0  0  0
  1 84  1  0  0  0
  2  3  1  0  0  0
  2 25  1  0  0  0
  2 85  1  0  0  0
  2 86  1  0  0  0
  3  4  1  0  0  0
  3 87  1  0  0  0
  3 88  1  0  0  0
  4  5  1  0  0  0
  4 89  1  0  0  0
  4 90  1  0  0  0
  5  6  1  0  0  0
  5 26  1  0  0  0
  5 91  1  0  0  0
  6 25  1  0  0  0
  6 92  1  0  0  0
  6 93  1  0  0  0
  7  8  2  0  0  0
  7 26  1  0  0  0
  7 29  1  0  0  0
  8  9  1  0  0  0
  8 22  1  0  0  0
  9 10  1  0  0  0
  9 27  2  0  0  0
 10 11  2  0  0  0
 10 15  1  0  0  0
 11 12  1  0  0  0
 11 94  1  0  0  0
 12 13  2  0  0  0
 12 95  1  0  0  0
 13 14  1  0  0  0
 13 31  1  0  0  0
 14 15  2  0  0  0
 14 96  1  0  0  0
 15 97  1  0  0  0
 16 17  2  0  0  0
 16 21  1  0  0  0
 16 31  1  0  0  0
 17 18  1  0  0  0
 17 98  1  0  0  0
 18 19  2  0  0  0
 18 99  1  0  0  0
 19 20  1  0  0  0
 19 24  1  0  0  0
 20 21  2  0  0  0
 20100  1  0  0  0
 21 23  1  0  0  0
 22 28  1  0  0  0
 22 32  2  0  0  0
 26 27  1  0  0  0
 28101  1  0  0  0
 28102  1  0  0  0
 29103  1  0  0  0
 29104  1  0  0  0
 33 34  1  0  0  0
 33 66  1  0  0  0
 33 70  2  0  0  0
 34 36  1  0  0  0
 34 59  1  0  0  0
 34105  1  0  0  0
 35 44  2  0  0  0
 35 45  1  0  0  0
 35 68  1  0  0  0
 36 56  1  0  0  0
 36106  1  0  0  0
 37 39  1  0  0  0
 37 47  1  0  0  0
 37 66  1  0  0  0
 37107  1  0  0  0
 38 43  2  0  0  0
 38 46  1  0  0  0
 38 47  1  0  0  0
 39 64  1  0  0  0
 39 67  2  0  0  0
 40 52  1  0  0  0
 40 53  2  0  0  0
 40 58  1  0  0  0
 41108  1  0  0  0
 41109  1  0  0  0
 41110  1  0  0  0
 41 48  1  0  0  0
 42 43  1  0  0  0
 42 66  1  0  0  0
 42111  1  0  0  0
 42112  1  0  0  0
 43 44  1  0  0  0
 44113  1  0  0  0
 45 46  2  0  0  0
 45114  1  0  0  0
 46115  1  0  0  0
 47116  1  0  0  0
 47117  1  0  0  0
 48 56  1  0  0  0
 48 65  1  0  0  0
 48118  1  0  0  0
 49 50  1  0  0  0
 49 53  1  0  0  0
 49 64  1  0  0  0
 49119  1  0  0  0
 50 51  1  0  0  0
 50120  1  0  0  0
 50121  1  0  0  0
 51 52  1  0  0  0
 51122  1  0  0  0
 51123  1  0  0  0
 52124  1  0  0  0
 52125  1  0  0  0
 53 54  1  0  0  0
 54 55  2  0  0  0
 54126  1  0  0  0
 55 57  1  0  0  0
 55127  1  0  0  0
 56 69  2  0  0  0
 57 58  2  0  0  0
 57128  1  0  0  0
 58129  1  0  0  0
 59 60  1  0  0  0
 59 61  1  0  0  0
 59 62  1  0  0  0
 60130  1  0  0  0
 60131  1  0  0  0
 60132  1  0  0  0
 61133  1  0  0  0
 61134  1  0  0  0
 61135  1  0  0  0
 62136  1  0  0  0
 62137  1  0  0  0
 62138  1  0  0  0
 63 65  1  0  0  0
 63139  1  0  0  0
 63140  1  0  0  0
 63141  1  0  0  0
 64142  1  0  0  0
 65143  1  0  0  0
 68 80  1  0  0  0
 71 72  2  0  0  0
 71 82  1  0  0  0
 71144  1  0  0  0
 72 73  1  0  0  0
 72 78  1  0  0  0
 73 81  2  0  0  0
 73 83  1  0  0  0
 74 75  1  0  0  0
 74 78  1  0  0  0
 74145  1  0  0  0
 74146  1  0  0  0
 75 78  1  0  0  0
 75147  1  0  0  0
 75148  1  0  0  0
 76 79  1  0  0  0
 76 83  1  0  0  0
 76149  1  0  0  0
 76150  1  0  0  0
 77 79  1  0  0  0
 77 83  1  0  0  0
 77151  1  0  0  0
 77152  1  0  0  0
 78153  1  0  0  0
 79 84  1  0  0  0
 79154  1  0  0  0
 80 82  1  0  0  0
 80155  1  0  0  0
 80156  1  0  0  0
 81 82  1  0  0  0
 84157  1  0  0  0
M  ISO  4   1 100  68 101  80 101  84 100
M  END
> <chiral flag>
0

> <version>
0

> <s_m_source_file>
/data/baiqing/PycharmProjects/Reinvent-master-3.2/result/LINK_invent/BTK/process_docking_weight1_custom_sum_contain_oxygen_bond_distance_aromatic_linkinvent_7_9_3/rearranged_h_0184.sdf

> <i_m_source_file_index>
59

> <r_mmod_Potential_Energy-OPLS-2005>
395.756439208984

> <r_mmod_Stretch_Energy-OPLS-2005>
216.389129638672

> <r_mmod_Bend_Energy-OPLS-2005>
314.485046386719

> <r_mmod_Torsional_Energy-OPLS-2005>
264.798126220703

> <r_mmod_Improper_Torsional_Energy-OPLS-2005>
9.9483585357666

> <r_mmod_Van_der_Waal_Energy-OPLS-2005>
106.049354553223

> <r_mmod_Electrostatic_Energy-OPLS-2005>
-452.977905273438

> <r_mmod_Solvation_Energy-OPLS-2005>
-252.044677734375

> <b_mmod_Minimization_Converged-OPLS-2005>
0

> <r_mmod_RMS_Derivative-OPLS-2005>
1.43759536743164

$$$$
59
                    3D
 Structure written by MMmdl.
161170  0  0  1  0            999 V2000
  -30.5213  -15.0108   20.4099 C   0  0  0  0  0  0
  -30.4425  -12.6305   19.5083 C   0  0  0  0  0  0
  -29.5289  -12.5323   18.2635 C   0  0  0  0  0  0
  -28.0657  -12.3008   18.6864 C   0  0  0  0  0  0
  -27.6251  -13.2510   19.8297 C   0  0  2  0  0  0
  -28.6626  -13.3149   20.9685 C   0  0  0  0  0  0
  -25.2435  -13.8218   20.5686 C   0  0  0  0  0  0
  -24.1765  -13.0434   20.9229 C   0  0  0  0  0  0
  -24.6390  -11.6918   20.8742 C   0  0  0  0  0  0
  -23.9079  -10.4287   21.0401 C   0  0  0  0  0  0
  -24.3625   -9.4199   21.9181 C   0  0  0  0  0  0
  -23.6290   -8.2239   22.0756 C   0  0  0  0  0  0
  -22.4274   -8.0286   21.3551 C   0  0  0  0  0  0
  -21.9912   -9.0258   20.4652 C   0  0  0  0  0  0
  -22.7249  -10.2131   20.3052 C   0  0  0  0  0  0
  -21.6854   -6.0733   22.5282 C   0  0  0  0  0  0
  -21.4018   -6.5631   23.8218 C   0  0  0  0  0  0
  -21.3653   -5.6784   24.9176 C   0  0  0  0  0  0
  -21.6051   -4.3050   24.7227 C   0  0  0  0  0  0
  -21.8811   -3.8140   23.4346 C   0  0  0  0  0  0
  -21.9182   -4.6956   22.3404 C   0  0  0  0  0  0
  -22.7780  -13.5203   21.1876 C   0  0  0  0  0  0
  -22.1652   -4.2136   21.0984 F   0  0  0  0  0  0
  -21.5625   -3.4539   25.7740 F   0  0  0  0  0  0
  -29.9313  -13.7426   20.3662 N   0  0  0  0  0  0
  -26.2854  -12.9447   20.3189 N   0  0  0  0  0  0
  -25.9321  -11.6573   20.5711 N   0  0  0  0  0  0
  -22.0426  -12.8212   22.0444 N   0  0  0  0  0  0
  -25.4093  -15.1954   20.4092 N   0  0  0  0  0  0
  -31.7295  -15.0612   20.1569 O   0  0  0  0  0  0
  -21.6640   -6.8884   21.4246 O   0  0  0  0  0  0
  -22.3459  -14.5492   20.6699 O   0  0  0  0  0  0
  -24.6473  -31.8405   23.1842 C   0  0  0  0  0  0
  -25.9225  -32.4674   23.8255 C   0  0  1  0  0  0
  -27.2212  -27.0902   20.1674 C   0  0  0  0  0  0
  -25.5957  -33.8478   24.2162 N   0  0  0  0  0  0
  -23.4551  -30.4559   21.5300 C   0  0  2  0  0  0
  -24.9092  -28.8784   20.1088 C   0  0  0  0  0  0
  -22.7596  -29.4510   22.4832 C   0  0  0  0  0  0
  -18.0311  -28.1411   22.8472 C   0  0  0  0  0  0
  -24.1498  -36.7243   23.2644 C   0  0  0  0  0  0
  -26.0136  -30.6999   21.3923 C   0  0  0  0  0  0
  -26.0869  -29.3067   20.7341 C   0  0  0  0  0  0
  -27.2431  -28.4306   20.7454 C   0  0  0  0  0  0
  -26.0193  -26.7800   19.4919 C   0  0  0  0  0  0
  -24.8916  -27.6303   19.4689 C   0  0  0  0  0  0
  -23.6865  -29.7840   20.1502 C   0  0  0  0  0  0
  -25.4126  -36.3008   24.0309 C   0  0  1  0  0  0
  -20.5922  -28.3735   23.1216 C   0  0  2  0  0  0
  -20.6798  -26.9433   22.5396 C   0  0  0  0  0  0
  -19.5770  -26.6386   21.5211 C   0  0  0  0  0  0
  -18.1954  -26.7947   22.1626 C   0  0  0  0  0  0
  -19.1568  -28.8892   23.2833 C   0  0  0  0  0  0
  -18.9487  -30.1488   23.8866 C   0  0  0  0  0  0
  -17.6481  -30.6602   24.0558 C   0  0  0  0  0  0
  -25.9080  -34.9385   23.5044 C   0  0  0  0  0  0
  -16.5371  -29.9095   23.6339 C   0  0  0  0  0  0
  -16.7293  -28.6514   23.0355 C   0  0  0  0  0  0
  -26.4528  -31.6558   25.0718 C   0  0  0  0  0  0
  -25.3693  -31.3773   26.1402 C   0  0  0  0  0  0
  -27.0415  -30.2957   24.6330 C   0  0  0  0  0  0
  -27.6064  -32.4321   25.7500 C   0  0  0  0  0  0
  -27.5566  -37.1769   24.8457 C   0  0  0  0  0  0
  -21.4286  -29.3046   22.3579 N   0  0  0  0  0  0
  -26.4282  -37.3727   23.9397 N   0  0  0  0  0  0
  -24.7249  -31.0201   22.0907 N   0  0  0  0  0  0
  -23.4219  -28.8071   23.3010 O   0  0  0  0  0  0
  -28.2488  -26.0653   20.2679 O   0  0  0  0  0  0
  -26.5667  -34.8890   22.4622 O   0  0  0  0  0  0
  -23.5570  -32.1303   23.7014 O   0  0  0  0  0  0
  -29.9813  -23.3908   21.3044 C   0  0  0  0  0  0
  -30.7345  -22.2673   21.7166 C   0  0  0  0  0  0
  -28.8597  -23.2070   20.4834 C   0  0  0  0  0  0
  -29.3727  -20.7443   20.5909 C   0  0  0  0  0  0
  -33.3172  -22.1392   22.1589 C   0  0  0  0  0  0
  -31.9050  -22.3731   22.6545 C   0  0  2  0  0  0
  -31.5211  -22.2367   24.1262 C   0  0  0  0  0  0
  -33.3332  -24.3787   23.3133 C   0  0  0  0  0  0
  -27.9312  -24.5321   20.0578 C   0  0  0  0  0  0
  -29.0191  -19.1134   20.4379 C   0  0  0  0  0  0
  -30.1059  -17.7826   20.4775 C   0  0  0  0  0  0
  -30.4168  -20.9954   21.3702 N   0  0  0  0  0  0
  -28.5895  -21.8357   20.1594 N   0  0  0  0  0  0
  -29.7476  -16.2145   20.5338 N   0  0  0  0  0  0
  -32.7732  -23.4811   22.2779 N   0  3  1  0  0  0
  -31.4748  -12.7961   19.1973 H   0  0  0  0  0  0
  -30.4485  -11.6901   20.0626 H   0  0  0  0  0  0
  -29.8640  -11.7255   17.6100 H   0  0  0  0  0  0
  -29.6042  -13.4512   17.6805 H   0  0  0  0  0  0
  -27.9829  -11.2658   19.0209 H   0  0  0  0  0  0
  -27.3990  -12.3988   17.8282 H   0  0  0  0  0  0
  -27.5793  -14.2433   19.3775 H   0  0  0  0  0  0
  -28.7624  -12.3482   21.4638 H   0  0  0  0  0  0
  -28.3501  -14.0260   21.7348 H   0  0  0  0  0  0
  -25.2775   -9.5666   22.4753 H   0  0  0  0  0  0
  -23.9993   -7.4622   22.7478 H   0  0  0  0  0  0
  -21.0838   -8.8786   19.8961 H   0  0  0  0  0  0
  -22.3719  -10.9666   19.6154 H   0  0  0  0  0  0
  -21.2036   -7.6143   23.9721 H   0  0  0  0  0  0
  -21.1478   -6.0518   25.9078 H   0  0  0  0  0  0
  -22.0598   -2.7602   23.2857 H   0  0  0  0  0  0
  -22.4031  -11.9902   22.4894 H   0  0  0  0  0  0
  -21.1031  -13.1237   22.2607 H   0  0  0  0  0  0
  -24.6359  -15.8441   20.5146 H   0  0  0  0  0  0
  -26.2444  -15.6352   20.0456 H   0  0  0  0  0  0
  -26.7296  -32.5267   23.0982 H   0  0  0  0  0  0
  -25.0059  -33.9593   25.0278 H   0  0  0  0  0  0
  -22.7600  -31.2820   21.3701 H   0  0  0  0  0  0
  -23.3761  -35.9574   23.3288 H   0  0  0  0  0  0
  -24.3590  -36.8903   22.2065 H   0  0  0  0  0  0
  -23.7266  -37.6434   23.6705 H   0  0  0  0  0  0
  -26.1723  -31.4517   20.6178 H   0  0  0  0  0  0
  -26.8828  -30.7533   22.0369 H   0  0  0  0  0  0
  -28.1355  -28.7501   21.2654 H   0  0  0  0  0  0
  -25.9085  -25.8267   18.9991 H   0  0  0  0  0  0
  -23.9955  -27.2989   18.9625 H   0  0  0  0  0  0
  -23.8282  -30.5580   19.3954 H   0  0  0  0  0  0
  -22.8026  -29.2272   19.8364 H   0  0  0  0  0  0
  -25.1318  -36.1823   25.0803 H   0  0  0  0  0  0
  -21.0004  -28.3345   24.1344 H   0  0  0  0  0  0
  -20.5707  -26.2349   23.3624 H   0  0  0  0  0  0
  -21.6662  -26.7452   22.1183 H   0  0  0  0  0  0
  -19.6926  -25.6289   21.1268 H   0  0  0  0  0  0
  -19.6709  -27.3180   20.6729 H   0  0  0  0  0  0
  -17.4213  -26.6677   21.4042 H   0  0  0  0  0  0
  -18.0360  -26.0110   22.9046 H   0  0  0  0  0  0
  -19.7959  -30.7306   24.2232 H   0  0  0  0  0  0
  -17.5034  -31.6284   24.5164 H   0  0  0  0  0  0
  -15.5370  -30.2982   23.7684 H   0  0  0  0  0  0
  -15.8699  -28.0825   22.7080 H   0  0  0  0  0  0
  -24.5851  -30.7162   25.7695 H   0  0  0  0  0  0
  -24.8912  -32.2973   26.4773 H   0  0  0  0  0  0
  -25.7938  -30.8954   27.0217 H   0  0  0  0  0  0
  -26.3060  -29.6662   24.1319 H   0  0  0  0  0  0
  -27.4002  -29.7275   25.4917 H   0  0  0  0  0  0
  -27.8968  -30.4197   23.9691 H   0  0  0  0  0  0
  -27.2678  -33.3633   26.2044 H   0  0  0  0  0  0
  -28.3896  -32.6856   25.0347 H   0  0  0  0  0  0
  -28.0722  -31.8477   26.5441 H   0  0  0  0  0  0
  -28.2559  -38.0084   24.7494 H   0  0  0  0  0  0
  -28.1081  -36.2605   24.6291 H   0  0  0  0  0  0
  -27.2276  -37.1424   25.8859 H   0  0  0  0  0  0
  -20.9509  -29.8749   21.6746 H   0  0  0  0  0  0
  -26.0135  -38.2786   24.1419 H   0  0  0  0  0  0
  -30.2108  -24.3933   21.6435 H   0  0  0  0  0  0
  -33.4987  -21.9060   21.1122 H   0  0  0  0  0  0
  -34.1274  -21.9693   22.8634 H   0  0  0  0  0  0
  -30.9624  -21.3109   24.2710 H   0  0  0  0  0  0
  -30.8888  -23.0669   24.4409 H   0  0  0  0  0  0
  -32.3995  -22.1886   24.7687 H   0  0  0  0  0  0
  -34.0877  -25.0245   22.8649 H   0  0  0  0  0  0
  -33.8086  -23.8487   24.1380 H   0  0  0  0  0  0
  -32.5516  -25.0193   23.7222 H   0  0  0  0  0  0
  -26.9777  -24.3563   20.5548 H   0  0  0  0  0  0
  -27.7277  -24.4090   18.9948 H   0  0  0  0  0  0
  -28.4564  -19.0318   19.5089 H   0  0  0  0  0  0
  -28.2812  -18.9267   21.2182 H   0  0  0  0  0  0
  -30.7429  -17.9510   21.3463 H   0  0  0  0  0  0
  -30.7733  -17.9048   19.6247 H   0  0  0  0  0  0
  -28.7676  -16.0304   20.6892 H   0  0  0  0  0  0
  -32.4526  -23.8942   21.4170 H   0  0  0  0  0  0
  1 25  1  0  0  0
  1 30  2  0  0  0
  1 84  1  0  0  0
  2  3  1  0  0  0
  2 25  1  0  0  0
  2 86  1  0  0  0
  2 87  1  0  0  0
  3  4  1  0  0  0
  3 88  1  0  0  0
  3 89  1  0  0  0
  4  5  1  0  0  0
  4 90  1  0  0  0
  4 91  1  0  0  0
  5  6  1  0  0  0
  5 26  1  0  0  0
  5 92  1  0  0  0
  6 25  1  0  0  0
  6 93  1  0  0  0
  6 94  1  0  0  0
  7  8  2  0  0  0
  7 26  1  0  0  0
  7 29  1  0  0  0
  8  9  1  0  0  0
  8 22  1  0  0  0
  9 10  1  0  0  0
  9 27  2  0  0  0
 10 11  2  0  0  0
 10 15  1  0  0  0
 11 12  1  0  0  0
 11 95  1  0  0  0
 12 13  2  0  0  0
 12 96  1  0  0  0
 13 14  1  0  0  0
 13 31  1  0  0  0
 14 15  2  0  0  0
 14 97  1  0  0  0
 15 98  1  0  0  0
 16 17  2  0  0  0
 16 21  1  0  0  0
 16 31  1  0  0  0
 17 18  1  0  0  0
 17 99  1  0  0  0
 18 19  2  0  0  0
 18100  1  0  0  0
 19 20  1  0  0  0
 19 24  1  0  0  0
 20 21  2  0  0  0
 20101  1  0  0  0
 21 23  1  0  0  0
 22 28  1  0  0  0
 22 32  2  0  0  0
 26 27  1  0  0  0
 28102  1  0  0  0
 28103  1  0  0  0
 29104  1  0  0  0
 29105  1  0  0  0
 33 34  1  0  0  0
 33 66  1  0  0  0
 33 70  2  0  0  0
 34 36  1  0  0  0
 34 59  1  0  0  0
 34106  1  0  0  0
 35 44  2  0  0  0
 35 45  1  0  0  0
 35 68  1  0  0  0
 36 56  1  0  0  0
 36107  1  0  0  0
 37 39  1  0  0  0
 37 47  1  0  0  0
 37 66  1  0  0  0
 37108  1  0  0  0
 38 43  2  0  0  0
 38 46  1  0  0  0
 38 47  1  0  0  0
 39 64  1  0  0  0
 39 67  2  0  0  0
 40 52  1  0  0  0
 40 53  2  0  0  0
 40 58  1  0  0  0
 41109  1  0  0  0
 41110  1  0  0  0
 41111  1  0  0  0
 41 48  1  0  0  0
 42 43  1  0  0  0
 42 66  1  0  0  0
 42112  1  0  0  0
 42113  1  0  0  0
 43 44  1  0  0  0
 44114  1  0  0  0
 45 46  2  0  0  0
 45115  1  0  0  0
 46116  1  0  0  0
 47117  1  0  0  0
 47118  1  0  0  0
 48 56  1  0  0  0
 48 65  1  0  0  0
 48119  1  0  0  0
 49 50  1  0  0  0
 49 53  1  0  0  0
 49 64  1  0  0  0
 49120  1  0  0  0
 50 51  1  0  0  0
 50121  1  0  0  0
 50122  1  0  0  0
 51 52  1  0  0  0
 51123  1  0  0  0
 51124  1  0  0  0
 52125  1  0  0  0
 52126  1  0  0  0
 53 54  1  0  0  0
 54 55  2  0  0  0
 54127  1  0  0  0
 55 57  1  0  0  0
 55128  1  0  0  0
 56 69  2  0  0  0
 57 58  2  0  0  0
 57129  1  0  0  0
 58130  1  0  0  0
 59 60  1  0  0  0
 59 61  1  0  0  0
 59 62  1  0  0  0
 60131  1  0  0  0
 60132  1  0  0  0
 60133  1  0  0  0
 61134  1  0  0  0
 61135  1  0  0  0
 61136  1  0  0  0
 62137  1  0  0  0
 62138  1  0  0  0
 62139  1  0  0  0
 63 65  1  0  0  0
 63140  1  0  0  0
 63141  1  0  0  0
 63142  1  0  0  0
 64143  1  0  0  0
 65144  1  0  0  0
 68 79  1  0  0  0
 71 72  2  0  0  0
 71 73  1  0  0  0
 71145  1  0  0  0
 72 76  1  0  0  0
 72 82  1  0  0  0
 73 79  1  0  0  0
 73 83  2  0  0  0
 74 80  1  0  0  0
 74 82  2  0  0  0
 74 83  1  0  0  0
 75 76  1  0  0  0
 75 85  1  0  0  0
 75146  1  0  0  0
 75147  1  0  0  0
 76 77  1  0  0  0
 76 85  1  0  0  0
 77148  1  0  0  0
 77149  1  0  0  0
 77150  1  0  0  0
 78151  1  0  0  0
 78152  1  0  0  0
 78153  1  0  0  0
 78 85  1  0  0  0
 79154  1  0  0  0
 79155  1  0  0  0
 80 81  1  0  0  0
 80156  1  0  0  0
 80157  1  0  0  0
 81 84  1  0  0  0
 81158  1  0  0  0
 81159  1  0  0  0
 84160  1  0  0  0
 85161  1  0  0  0
M  CHG  1  85   1
M  ISO  4   1 100  68 101  79 101  84 100
M  END
> <chiral flag>
0

> <version>
0

> <s_m_source_file>
/data/baiqing/PycharmProjects/Reinvent-master-3.2/result/LINK_invent/BTK/process_docking_weight1_custom_sum_contain_oxygen_bond_distance_aromatic_linkinvent_7_9_3/rearranged_h_0184.sdf

> <i_m_source_file_index>
60

> <r_mmod_Potential_Energy-OPLS-2005>
-12.9105319976807

> <r_mmod_Stretch_Energy-OPLS-2005>
314.557647705078

> <r_mmod_Bend_Energy-OPLS-2005>
296.250671386719

> <r_mmod_Torsional_Energy-OPLS-2005>
251.472564697266

> <r_mmod_Improper_Torsional_Energy-OPLS-2005>
5.70881652832031

> <r_mmod_Van_der_Waal_Energy-OPLS-2005>
134.659652709961

> <r_mmod_Electrostatic_Energy-OPLS-2005>
-757.1103515625

> <r_mmod_Solvation_Energy-OPLS-2005>
-501.064453125

> <b_mmod_Minimization_Converged-OPLS-2005>
0

> <r_mmod_RMS_Derivative-OPLS-2005>
1.97992634773254

$$$$
60
                    3D
 Structure written by MMmdl.
162171  0  0  1  0            999 V2000
  -30.4606  -15.4382   20.3436 C   0  0  0  0  0  0
  -30.4237  -12.9360   19.5356 C   0  0  0  0  0  0
  -29.5450  -12.6183   18.3023 C   0  0  0  0  0  0
  -28.1007  -12.3218   18.7309 C   0  0  0  0  0  0
  -27.6027  -13.3107   19.8142 C   0  0  2  0  0  0
  -28.6349  -13.5907   20.9344 C   0  0  0  0  0  0
  -25.2342  -13.8298   20.5767 C   0  0  0  0  0  0
  -24.1751  -13.0450   20.9282 C   0  0  0  0  0  0
  -24.6451  -11.6976   20.8787 C   0  0  0  0  0  0
  -23.9157  -10.4303   21.0373 C   0  0  0  0  0  0
  -24.3668   -9.4202   21.9165 C   0  0  0  0  0  0
  -23.6326   -8.2240   22.0749 C   0  0  0  0  0  0
  -22.4307   -8.0278   21.3538 C   0  0  0  0  0  0
  -21.9947   -9.0266   20.4635 C   0  0  0  0  0  0
  -22.7305  -10.2141   20.3037 C   0  0  0  0  0  0
  -21.6859   -6.0742   22.5276 C   0  0  0  0  0  0
  -21.4037   -6.5637   23.8218 C   0  0  0  0  0  0
  -21.3673   -5.6781   24.9174 C   0  0  0  0  0  0
  -21.6062   -4.3053   24.7218 C   0  0  0  0  0  0
  -21.8812   -3.8144   23.4335 C   0  0  0  0  0  0
  -21.9207   -4.6964   22.3401 C   0  0  0  0  0  0
  -22.7740  -13.5164   21.1933 C   0  0  0  0  0  0
  -22.1653   -4.2137   21.0979 F   0  0  0  0  0  0
  -21.5629   -3.4547   25.7728 F   0  0  0  0  0  0
  -29.8395  -14.1336   20.2756 N   0  0  0  0  0  0
  -26.2795  -12.9662   20.3233 N   0  0  0  0  0  0
  -25.9409  -11.6732   20.5735 N   0  0  0  0  0  0
  -22.0410  -12.8159   22.0467 N   0  0  0  0  0  0
  -25.3916  -15.2058   20.4194 N   0  0  0  0  0  0
  -31.6833  -15.3128   20.1572 O   0  0  0  0  0  0
  -21.6674   -6.8891   21.4237 O   0  0  0  0  0  0
  -22.3395  -14.5448   20.6755 O   0  0  0  0  0  0
  -24.6748  -31.8059   23.1571 C   0  0  0  0  0  0
  -25.9385  -32.4499   23.8080 C   0  0  1  0  0  0
  -27.2223  -26.7694   20.2196 C   0  0  0  0  0  0
  -25.5992  -33.8313   24.1969 N   0  0  0  0  0  0
  -23.4976  -30.4128   21.5059 C   0  0  2  0  0  0
  -24.9573  -28.7678   20.1073 C   0  0  0  0  0  0
  -22.7732  -29.4368   22.4703 C   0  0  0  0  0  0
  -18.0344  -28.1436   22.8479 C   0  0  0  0  0  0
  -24.1487  -36.7156   23.2653 C   0  0  0  0  0  0
  -26.0735  -30.5612   21.4121 C   0  0  0  0  0  0
  -26.1388  -29.1332   20.7632 C   0  0  0  0  0  0
  -27.2547  -28.1575   20.7944 C   0  0  0  0  0  0
  -26.0182  -26.5980   19.4952 C   0  0  0  0  0  0
  -24.9329  -27.5260   19.4493 C   0  0  0  0  0  0
  -23.7495  -29.7169   20.1345 C   0  0  0  0  0  0
  -25.4133  -36.2900   24.0287 C   0  0  1  0  0  0
  -20.5971  -28.3784   23.1163 C   0  0  2  0  0  0
  -20.6808  -26.9439   22.5421 C   0  0  0  0  0  0
  -19.5778  -26.6380   21.5245 C   0  0  0  0  0  0
  -18.1958  -26.7959   22.1642 C   0  0  0  0  0  0
  -19.1607  -28.8924   23.2803 C   0  0  0  0  0  0
  -18.9521  -30.1523   23.8846 C   0  0  0  0  0  0
  -17.6510  -30.6612   24.0555 C   0  0  0  0  0  0
  -25.9108  -34.9292   23.4948 C   0  0  0  0  0  0
  -16.5394  -29.9103   23.6357 C   0  0  0  0  0  0
  -16.7325  -28.6520   23.0363 C   0  0  0  0  0  0
  -26.4582  -31.6503   25.0676 C   0  0  0  0  0  0
  -25.3677  -31.3829   26.1315 C   0  0  0  0  0  0
  -27.0491  -30.2838   24.6528 C   0  0  0  0  0  0
  -27.6041  -32.4352   25.7482 C   0  0  0  0  0  0
  -27.5555  -37.1727   24.8460 C   0  0  0  0  0  0
  -21.4383  -29.3036   22.3470 N   0  0  0  0  0  0
  -26.4252  -37.3668   23.9412 N   0  0  0  0  0  0
  -24.7717  -30.9585   22.0782 N   0  0  0  0  0  0
  -23.4216  -28.7964   23.3028 O   0  0  0  0  0  0
  -28.1997  -25.5935   20.3751 O   0  0  0  0  0  0
  -26.5753  -34.8865   22.4561 O   0  0  0  0  0  0
  -23.5803  -32.1092   23.6587 O   0  0  0  0  0  0
  -27.7317  -22.0130   22.8698 C   0  0  0  0  0  0
  -27.0992  -22.0666   21.4913 C   0  0  0  0  0  0
  -30.5095  -18.1761   19.7200 C   0  0  0  0  0  0
  -28.7356  -17.6671   20.9345 C   0  0  0  0  0  0
  -30.2454  -19.7619   20.3422 C   0  0  0  0  0  0
  -28.1603  -19.2190   20.4129 C   0  0  0  0  0  0
  -29.0854  -22.2952   22.2130 C   0  0  1  0  0  0
  -28.4738  -22.2023   20.7737 C   0  0  2  0  0  0
  -29.6464  -24.0255   23.9447 C   0  0  0  0  0  0
  -28.2271  -23.9136   19.9685 C   0  0  0  0  0  0
  -29.8638  -16.8511   20.2606 N   0  0  0  0  0  0
  -28.9295  -20.5692   20.1815 N   0  0  0  0  0  0
  -29.7852  -23.5581   22.5494 N   0  3  0  0  0  0
  -31.4448  -13.1295   19.2001 H   0  0  0  0  0  0
  -30.5058  -12.0669   20.1917 H   0  0  0  0  0  0
  -29.9560  -11.7808   17.7382 H   0  0  0  0  0  0
  -29.5583  -13.4776   17.6311 H   0  0  0  0  0  0
  -28.0765  -11.3067   19.1271 H   0  0  0  0  0  0
  -27.4364  -12.3402   17.8656 H   0  0  0  0  0  0
  -27.4817  -14.2529   19.2772 H   0  0  0  0  0  0
  -28.8476  -12.7014   21.5311 H   0  0  0  0  0  0
  -28.2491  -14.3429   21.6241 H   0  0  0  0  0  0
  -25.2807   -9.5697   22.4756 H   0  0  0  0  0  0
  -24.0046   -7.4650   22.7478 H   0  0  0  0  0  0
  -21.0871   -8.8802   19.8952 H   0  0  0  0  0  0
  -22.3750  -10.9687   19.6160 H   0  0  0  0  0  0
  -21.2028   -7.6148   23.9711 H   0  0  0  0  0  0
  -21.1503   -6.0517   25.9077 H   0  0  0  0  0  0
  -22.0584   -2.7601   23.2840 H   0  0  0  0  0  0
  -22.4043  -11.9847   22.4905 H   0  0  0  0  0  0
  -21.0973  -13.1120   22.2632 H   0  0  0  0  0  0
  -24.6183  -15.8511   20.5267 H   0  0  0  0  0  0
  -26.2237  -15.6443   20.0484 H   0  0  0  0  0  0
  -26.7452  -32.4972   23.0785 H   0  0  0  0  0  0
  -25.0070  -33.9373   25.0075 H   0  0  0  0  0  0
  -22.8188  -31.2496   21.3253 H   0  0  0  0  0  0
  -23.3762  -35.9480   23.3269 H   0  0  0  0  0  0
  -24.3571  -36.8850   22.2079 H   0  0  0  0  0  0
  -23.7238  -37.6320   23.6752 H   0  0  0  0  0  0
  -26.2671  -31.2933   20.6256 H   0  0  0  0  0  0
  -26.9250  -30.6231   22.0770 H   0  0  0  0  0  0
  -28.1328  -28.4378   21.3555 H   0  0  0  0  0  0
  -25.8661  -25.6558   18.9927 H   0  0  0  0  0  0
  -24.0415  -27.2432   18.9093 H   0  0  0  0  0  0
  -23.9187  -30.4814   19.3734 H   0  0  0  0  0  0
  -22.8540  -29.1838   19.8112 H   0  0  0  0  0  0
  -25.1335  -36.1650   25.0785 H   0  0  0  0  0  0
  -21.0086  -28.3416   24.1281 H   0  0  0  0  0  0
  -20.5694  -26.2395   23.3679 H   0  0  0  0  0  0
  -21.6659  -26.7394   22.1214 H   0  0  0  0  0  0
  -19.6904  -25.6281   21.1298 H   0  0  0  0  0  0
  -19.6706  -27.3177   20.6764 H   0  0  0  0  0  0
  -17.4220  -26.6735   21.4044 H   0  0  0  0  0  0
  -18.0323  -26.0121   22.9053 H   0  0  0  0  0  0
  -19.7988  -30.7366   24.2162 H   0  0  0  0  0  0
  -17.5051  -31.6286   24.5179 H   0  0  0  0  0  0
  -15.5387  -30.2978   23.7717 H   0  0  0  0  0  0
  -15.8730  -28.0835   22.7094 H   0  0  0  0  0  0
  -24.5889  -30.7136   25.7639 H   0  0  0  0  0  0
  -24.8853  -32.3063   26.4521 H   0  0  0  0  0  0
  -25.7897  -30.9147   27.0212 H   0  0  0  0  0  0
  -26.3191  -29.6475   24.1514 H   0  0  0  0  0  0
  -27.3915  -29.7265   25.5252 H   0  0  0  0  0  0
  -27.9168  -30.3960   24.0033 H   0  0  0  0  0  0
  -27.2579  -33.3717   26.1854 H   0  0  0  0  0  0
  -28.3955  -32.6784   25.0387 H   0  0  0  0  0  0
  -28.0572  -31.8601   26.5556 H   0  0  0  0  0  0
  -28.2513  -38.0075   24.7525 H   0  0  0  0  0  0
  -28.1096  -36.2587   24.6241 H   0  0  0  0  0  0
  -27.2275  -37.1311   25.8866 H   0  0  0  0  0  0
  -20.9666  -29.8707   21.6556 H   0  0  0  0  0  0
  -26.0057  -38.2697   24.1478 H   0  0  0  0  0  0
  -27.6880  -21.0175   23.3152 H   0  0  0  0  0  0
  -27.3388  -22.7646   23.5515 H   0  0  0  0  0  0
  -26.4606  -22.9476   21.4061 H   0  0  0  0  0  0
  -26.4919  -21.2106   21.2171 H   0  0  0  0  0  0
  -31.5865  -18.0083   19.7384 H   0  0  0  0  0  0
  -30.2544  -18.2139   18.6584 H   0  0  0  0  0  0
  -27.8835  -16.9922   21.0019 H   0  0  0  0  0  0
  -29.0852  -17.7889   21.9602 H   0  0  0  0  0  0
  -31.0423  -20.3902   19.9442 H   0  0  0  0  0  0
  -30.4569  -19.7008   21.4141 H   0  0  0  0  0  0
  -27.3292  -19.4114   21.0801 H   0  0  0  0  0  0
  -27.6862  -19.0439   19.4433 H   0  0  0  0  0  0
  -29.7604  -21.4723   22.4512 H   0  0  0  0  0  0
  -30.3888  -24.7958   24.1553 H   0  0  0  0  0  0
  -29.7850  -23.2151   24.6623 H   0  0  0  0  0  0
  -28.6650  -24.4684   24.1135 H   0  0  0  0  0  0
  -27.2527  -23.8309   19.4855 H   0  0  0  0  0  0
  -28.8979  -23.9066   19.1084 H   0  0  0  0  0  0
  -29.5036  -24.2963   21.9250 H   0  0  0  0  0  0
  -30.7658  -23.3905   22.3895 H   0  0  0  0  0  0
  1 25  1  0  0  0
  1 30  2  0  0  0
  1 81  1  0  0  0
  2  3  1  0  0  0
  2 25  1  0  0  0
  2 84  1  0  0  0
  2 85  1  0  0  0
  3  4  1  0  0  0
  3 86  1  0  0  0
  3 87  1  0  0  0
  4  5  1  0  0  0
  4 88  1  0  0  0
  4 89  1  0  0  0
  5  6  1  0  0  0
  5 26  1  0  0  0
  5 90  1  0  0  0
  6 25  1  0  0  0
  6 91  1  0  0  0
  6 92  1  0  0  0
  7  8  2  0  0  0
  7 26  1  0  0  0
  7 29  1  0  0  0
  8  9  1  0  0  0
  8 22  1  0  0  0
  9 10  1  0  0  0
  9 27  2  0  0  0
 10 11  2  0  0  0
 10 15  1  0  0  0
 11 12  1  0  0  0
 11 93  1  0  0  0
 12 13  2  0  0  0
 12 94  1  0  0  0
 13 14  1  0  0  0
 13 31  1  0  0  0
 14 15  2  0  0  0
 14 95  1  0  0  0
 15 96  1  0  0  0
 16 17  2  0  0  0
 16 21  1  0  0  0
 16 31  1  0  0  0
 17 18  1  0  0  0
 17 97  1  0  0  0
 18 19  2  0  0  0
 18 98  1  0  0  0
 19 20  1  0  0  0
 19 24  1  0  0  0
 20 21  2  0  0  0
 20 99  1  0  0  0
 21 23  1  0  0  0
 22 28  1  0  0  0
 22 32  2  0  0  0
 26 27  1  0  0  0
 28100  1  0  0  0
 28101  1  0  0  0
 29102  1  0  0  0
 29103  1  0  0  0
 33 34  1  0  0  0
 33 66  1  0  0  0
 33 70  2  0  0  0
 34 36  1  0  0  0
 34 59  1  0  0  0
 34104  1  0  0  0
 35 44  2  0  0  0
 35 45  1  0  0  0
 35 68  1  0  0  0
 36 56  1  0  0  0
 36105  1  0  0  0
 37 39  1  0  0  0
 37 47  1  0  0  0
 37 66  1  0  0  0
 37106  1  0  0  0
 38 43  2  0  0  0
 38 46  1  0  0  0
 38 47  1  0  0  0
 39 64  1  0  0  0
 39 67  2  0  0  0
 40 52  1  0  0  0
 40 53  2  0  0  0
 40 58  1  0  0  0
 41107  1  0  0  0
 41108  1  0  0  0
 41109  1  0  0  0
 41 48  1  0  0  0
 42 43  1  0  0  0
 42 66  1  0  0  0
 42110  1  0  0  0
 42111  1  0  0  0
 43 44  1  0  0  0
 44112  1  0  0  0
 45 46  2  0  0  0
 45113  1  0  0  0
 46114  1  0  0  0
 47115  1  0  0  0
 47116  1  0  0  0
 48 56  1  0  0  0
 48 65  1  0  0  0
 48117  1  0  0  0
 49 50  1  0  0  0
 49 53  1  0  0  0
 49 64  1  0  0  0
 49118  1  0  0  0
 50 51  1  0  0  0
 50119  1  0  0  0
 50120  1  0  0  0
 51 52  1  0  0  0
 51121  1  0  0  0
 51122  1  0  0  0
 52123  1  0  0  0
 52124  1  0  0  0
 53 54  1  0  0  0
 54 55  2  0  0  0
 54125  1  0  0  0
 55 57  1  0  0  0
 55126  1  0  0  0
 56 69  2  0  0  0
 57 58  2  0  0  0
 57127  1  0  0  0
 58128  1  0  0  0
 59 60  1  0  0  0
 59 61  1  0  0  0
 59 62  1  0  0  0
 60129  1  0  0  0
 60130  1  0  0  0
 60131  1  0  0  0
 61132  1  0  0  0
 61133  1  0  0  0
 61134  1  0  0  0
 62135  1  0  0  0
 62136  1  0  0  0
 62137  1  0  0  0
 63 65  1  0  0  0
 63138  1  0  0  0
 63139  1  0  0  0
 63140  1  0  0  0
 64141  1  0  0  0
 65142  1  0  0  0
 68 80  1  0  0  0
 71 72  1  0  0  0
 71 77  1  0  0  0
 71143  1  0  0  0
 71144  1  0  0  0
 72 78  1  0  0  0
 72145  1  0  0  0
 72146  1  0  0  0
 73 75  1  0  0  0
 73 81  1  0  0  0
 73147  1  0  0  0
 73148  1  0  0  0
 74 76  1  0  0  0
 74 81  1  0  0  0
 74149  1  0  0  0
 74150  1  0  0  0
 75151  1  0  0  0
 75152  1  0  0  0
 75 82  1  0  0  0
 76 82  1  0  0  0
 76153  1  0  0  0
 76154  1  0  0  0
 77 78  1  0  0  0
 77 83  1  0  0  0
 77155  1  0  0  0
 78 80  1  0  0  0
 78 82  1  0  0  0
 79 83  1  0  0  0
 79156  1  0  0  0
 79157  1  0  0  0
 79158  1  0  0  0
 80159  1  0  0  0
 80160  1  0  0  0
 83161  1  0  0  0
 83162  1  0  0  0
M  CHG  1  83   1
M  ISO  4   1 100  68 101  80 101  81 100
M  END
> <chiral flag>
0

> <version>
0

> <s_m_source_file>
/data/baiqing/PycharmProjects/Reinvent-master-3.2/result/LINK_invent/BTK/process_docking_weight1_custom_sum_contain_oxygen_bond_distance_aromatic_linkinvent_7_9_3/rearranged_h_0184.sdf

> <i_m_source_file_index>
61

> <r_mmod_Potential_Energy-OPLS-2005>
2147.5830078125

> <r_mmod_Stretch_Energy-OPLS-2005>
866.718444824219

> <r_mmod_Bend_Energy-OPLS-2005>
745.316040039062

> <r_mmod_Torsional_Energy-OPLS-2005>
435.343414306641

> <r_mmod_Improper_Torsional_Energy-OPLS-2005>
11.128888130188

> <r_mmod_Van_der_Waal_Energy-OPLS-2005>
137.675064086914

> <r_mmod_Electrostatic_Energy-OPLS-2005>
-272.226165771484

> <r_mmod_Solvation_Energy-OPLS-2005>
-459.370330810547

> <b_mmod_Minimization_Converged-OPLS-2005>
0

> <r_mmod_RMS_Derivative-OPLS-2005>
5.61614322662354

$$$$
61
                    3D
 Structure written by MMmdl.
154163  0  0  1  0            999 V2000
  -30.5040  -15.0497   20.4009 C   0  0  0  0  0  0
  -30.4389  -12.6592   19.4989 C   0  0  0  0  0  0
  -29.5246  -12.5324   18.2587 C   0  0  0  0  0  0
  -28.0617  -12.3029   18.6833 C   0  0  0  0  0  0
  -27.6173  -13.2560   19.8230 C   0  0  2  0  0  0
  -28.6550  -13.3368   20.9590 C   0  0  0  0  0  0
  -25.2377  -13.8219   20.5703 C   0  0  0  0  0  0
  -24.1723  -13.0439   20.9254 C   0  0  0  0  0  0
  -24.6349  -11.6927   20.8757 C   0  0  0  0  0  0
  -23.9031  -10.4291   21.0403 C   0  0  0  0  0  0
  -24.3587   -9.4208   21.9174 C   0  0  0  0  0  0
  -23.6271   -8.2236   22.0744 C   0  0  0  0  0  0
  -22.4254   -8.0261   21.3538 C   0  0  0  0  0  0
  -21.9884   -9.0236   20.4639 C   0  0  0  0  0  0
  -22.7201  -10.2119   20.3051 C   0  0  0  0  0  0
  -21.6846   -6.0702   22.5280 C   0  0  0  0  0  0
  -21.4021   -6.5610   23.8215 C   0  0  0  0  0  0
  -21.3679   -5.6766   24.9181 C   0  0  0  0  0  0
  -21.6047   -4.3030   24.7231 C   0  0  0  0  0  0
  -21.8816   -3.8115   23.4351 C   0  0  0  0  0  0
  -21.9189   -4.6926   22.3406 C   0  0  0  0  0  0
  -22.7728  -13.5188   21.1928 C   0  0  0  0  0  0
  -22.1641   -4.2114   21.0978 F   0  0  0  0  0  0
  -21.5646   -3.4516   25.7745 F   0  0  0  0  0  0
  -29.9131  -13.7789   20.3444 N   0  0  0  0  0  0
  -26.2805  -12.9469   20.3165 N   0  0  0  0  0  0
  -25.9276  -11.6592   20.5684 N   0  0  0  0  0  0
  -22.0359  -12.8208   22.0489 N   0  0  0  0  0  0
  -25.4006  -15.1955   20.4124 N   0  0  0  0  0  0
  -31.7233  -15.0738   20.1953 O   0  0  0  0  0  0
  -21.6627   -6.8849   21.4239 O   0  0  0  0  0  0
  -22.3407  -14.5483   20.6734 O   0  0  0  0  0  0
  -24.6480  -31.8396   23.1809 C   0  0  0  0  0  0
  -25.9236  -32.4665   23.8231 C   0  0  1  0  0  0
  -27.2045  -27.0780   20.1770 C   0  0  0  0  0  0
  -25.5973  -33.8476   24.2145 N   0  0  0  0  0  0
  -23.4544  -30.4576   21.5269 C   0  0  2  0  0  0
  -24.9041  -28.8712   20.1125 C   0  0  0  0  0  0
  -22.7598  -29.4531   22.4808 C   0  0  0  0  0  0
  -18.0324  -28.1394   22.8483 C   0  0  0  0  0  0
  -24.1501  -36.7250   23.2638 C   0  0  0  0  0  0
  -26.0137  -30.6983   21.3869 C   0  0  0  0  0  0
  -26.0836  -29.3008   20.7365 C   0  0  0  0  0  0
  -27.2382  -28.4219   20.7471 C   0  0  0  0  0  0
  -26.0038  -26.7645   19.5097 C   0  0  0  0  0  0
  -24.8799  -27.6190   19.4804 C   0  0  0  0  0  0
  -23.6854  -29.7818   20.1484 C   0  0  0  0  0  0
  -25.4126  -36.3014   24.0306 C   0  0  1  0  0  0
  -20.5941  -28.3731   23.1215 C   0  0  2  0  0  0
  -20.6808  -26.9428   22.5401 C   0  0  0  0  0  0
  -19.5771  -26.6376   21.5221 C   0  0  0  0  0  0
  -18.1951  -26.7932   22.1631 C   0  0  0  0  0  0
  -19.1583  -28.8881   23.2846 C   0  0  0  0  0  0
  -18.9488  -30.1476   23.8874 C   0  0  0  0  0  0
  -17.6483  -30.6584   24.0565 C   0  0  0  0  0  0
  -25.9087  -34.9391   23.5032 C   0  0  0  0  0  0
  -16.5374  -29.9080   23.6335 C   0  0  0  0  0  0
  -16.7308  -28.6501   23.0350 C   0  0  0  0  0  0
  -26.4536  -31.6545   25.0682 C   0  0  0  0  0  0
  -25.3714  -31.3753   26.1367 C   0  0  0  0  0  0
  -27.0409  -30.2937   24.6296 C   0  0  0  0  0  0
  -27.6043  -32.4319   25.7485 C   0  0  0  0  0  0
  -27.5580  -37.1765   24.8451 C   0  0  0  0  0  0
  -21.4278  -29.3054   22.3571 N   0  0  0  0  0  0
  -26.4277  -37.3734   23.9416 N   0  0  0  0  0  0
  -24.7259  -31.0215   22.0859 N   0  0  0  0  0  0
  -23.4228  -28.8085   23.2974 O   0  0  0  0  0  0
  -28.2266  -26.0463   20.1884 O   0  0  0  0  0  0
  -26.5672  -34.8894   22.4609 O   0  0  0  0  0  0
  -23.5587  -32.1277   23.7005 O   0  0  0  0  0  0
  -28.7900  -21.1512   18.9582 C   0  0  0  0  0  0
  -28.3823  -22.4880   18.8744 C   0  0  0  0  0  0
  -28.4585  -23.0811   20.1827 C   0  0  0  0  0  0
  -29.0724  -18.8568   22.2458 C   0  0  0  0  0  0
  -30.2857  -17.8919   22.2201 C   0  0  0  0  0  0
  -29.5379  -19.3892   20.9029 C   0  0  1  0  0  0
  -30.2505  -17.8060   20.6615 C   0  0  1  0  0  0
  -27.8814  -23.1943   17.6414 C   0  0  0  0  0  0
  -27.9294  -24.5883   20.7191 C   0  0  0  0  0  0
  -28.8339  -21.9897   20.9871 N   0  0  0  0  0  0
  -29.0392  -20.7585   20.2710 N   0  0  0  0  0  0
  -29.7515  -16.2843   20.4900 N   0  0  0  0  0  0
  -31.4662  -12.8387   19.1775 H   0  0  0  0  0  0
  -30.4650  -11.7223   20.0585 H   0  0  0  0  0  0
  -29.8613  -11.7134   17.6208 H   0  0  0  0  0  0
  -29.5983  -13.4409   17.6598 H   0  0  0  0  0  0
  -27.9855  -11.2694   19.0222 H   0  0  0  0  0  0
  -27.3974  -12.3908   17.8235 H   0  0  0  0  0  0
  -27.5644  -14.2466   19.3699 H   0  0  0  0  0  0
  -28.7672  -12.3754   21.4635 H   0  0  0  0  0  0
  -28.3346  -14.0520   21.7177 H   0  0  0  0  0  0
  -25.2744   -9.5682   22.4737 H   0  0  0  0  0  0
  -23.9988   -7.4627   22.7467 H   0  0  0  0  0  0
  -21.0812   -8.8739   19.8948 H   0  0  0  0  0  0
  -22.3658  -10.9638   19.6146 H   0  0  0  0  0  0
  -21.2002   -7.6118   23.9714 H   0  0  0  0  0  0
  -21.1515   -6.0489   25.9085 H   0  0  0  0  0  0
  -22.0578   -2.7572   23.2856 H   0  0  0  0  0  0
  -22.3947  -11.9899   22.4941 H   0  0  0  0  0  0
  -21.0955  -13.1229   22.2646 H   0  0  0  0  0  0
  -24.6221  -15.8372   20.5211 H   0  0  0  0  0  0
  -26.2283  -15.6395   20.0385 H   0  0  0  0  0  0
  -26.7302  -32.5257   23.0959 H   0  0  0  0  0  0
  -25.0136  -33.9596   25.0310 H   0  0  0  0  0  0
  -22.7585  -31.2836   21.3658 H   0  0  0  0  0  0
  -23.3763  -35.9577   23.3248 H   0  0  0  0  0  0
  -24.3609  -36.8940   22.2066 H   0  0  0  0  0  0
  -23.7235  -37.6422   23.6713 H   0  0  0  0  0  0
  -26.1734  -31.4468   20.6105 H   0  0  0  0  0  0
  -26.8818  -30.7548   22.0320 H   0  0  0  0  0  0
  -28.1374  -28.7456   21.2528 H   0  0  0  0  0  0
  -25.9166  -25.8045   19.0209 H   0  0  0  0  0  0
  -23.9827  -27.2869   18.9759 H   0  0  0  0  0  0
  -23.8278  -30.5514   19.3882 H   0  0  0  0  0  0
  -22.7984  -29.2270   19.8374 H   0  0  0  0  0  0
  -25.1310  -36.1829   25.0793 H   0  0  0  0  0  0
  -21.0047  -28.3331   24.1326 H   0  0  0  0  0  0
  -20.5705  -26.2350   23.3628 H   0  0  0  0  0  0
  -21.6667  -26.7423   22.1191 H   0  0  0  0  0  0
  -19.6933  -25.6281   21.1259 H   0  0  0  0  0  0
  -19.6697  -27.3177   20.6741 H   0  0  0  0  0  0
  -17.4225  -26.6685   21.4030 H   0  0  0  0  0  0
  -18.0345  -26.0076   22.9030 H   0  0  0  0  0  0
  -19.7962  -30.7306   24.2209 H   0  0  0  0  0  0
  -17.5031  -31.6251   24.5179 H   0  0  0  0  0  0
  -15.5370  -30.2968   23.7652 H   0  0  0  0  0  0
  -15.8714  -28.0806   22.7056 H   0  0  0  0  0  0
  -24.5919  -30.7066   25.7694 H   0  0  0  0  0  0
  -24.8871  -32.2944   26.4679 H   0  0  0  0  0  0
  -25.7987  -30.9014   27.0213 H   0  0  0  0  0  0
  -26.3039  -29.6627   24.1306 H   0  0  0  0  0  0
  -27.4026  -29.7258   25.4879 H   0  0  0  0  0  0
  -27.8944  -30.4152   23.9616 H   0  0  0  0  0  0
  -27.2625  -33.3653   26.1967 H   0  0  0  0  0  0
  -28.3911  -32.6819   25.0356 H   0  0  0  0  0  0
  -28.0648  -31.8508   26.5487 H   0  0  0  0  0  0
  -28.2532  -38.0130   24.7565 H   0  0  0  0  0  0
  -28.1145  -36.2652   24.6188 H   0  0  0  0  0  0
  -27.2320  -37.1298   25.8861 H   0  0  0  0  0  0
  -20.9485  -29.8787   21.6773 H   0  0  0  0  0  0
  -26.0135  -38.2790   24.1450 H   0  0  0  0  0  0
  -28.8850  -20.4260   18.1629 H   0  0  0  0  0  0
  -29.0958  -19.5798   23.0634 H   0  0  0  0  0  0
  -28.1044  -18.3582   22.1797 H   0  0  0  0  0  0
  -30.0927  -16.9701   22.7721 H   0  0  0  0  0  0
  -31.2036  -18.3511   22.5931 H   0  0  0  0  0  0
  -30.4872  -19.8851   21.1387 H   0  0  0  0  0  0
  -31.2548  -17.9206   20.2518 H   0  0  0  0  0  0
  -28.2464  -24.2201   17.5775 H   0  0  0  0  0  0
  -26.7918  -23.2468   17.6338 H   0  0  0  0  0  0
  -28.1728  -22.6909   16.7193 H   0  0  0  0  0  0
  -26.8459  -24.5160   20.8179 H   0  0  0  0  0  0
  -28.2558  -24.6487   21.7572 H   0  0  0  0  0  0
  -28.7515  -16.1585   20.5450 H   0  0  0  0  0  0
  1 25  1  0  0  0
  1 30  2  0  0  0
  1 82  1  0  0  0
  2  3  1  0  0  0
  2 25  1  0  0  0
  2 83  1  0  0  0
  2 84  1  0  0  0
  3  4  1  0  0  0
  3 85  1  0  0  0
  3 86  1  0  0  0
  4  5  1  0  0  0
  4 87  1  0  0  0
  4 88  1  0  0  0
  5  6  1  0  0  0
  5 26  1  0  0  0
  5 89  1  0  0  0
  6 25  1  0  0  0
  6 90  1  0  0  0
  6 91  1  0  0  0
  7  8  2  0  0  0
  7 26  1  0  0  0
  7 29  1  0  0  0
  8  9  1  0  0  0
  8 22  1  0  0  0
  9 10  1  0  0  0
  9 27  2  0  0  0
 10 11  2  0  0  0
 10 15  1  0  0  0
 11 12  1  0  0  0
 11 92  1  0  0  0
 12 13  2  0  0  0
 12 93  1  0  0  0
 13 14  1  0  0  0
 13 31  1  0  0  0
 14 15  2  0  0  0
 14 94  1  0  0  0
 15 95  1  0  0  0
 16 17  2  0  0  0
 16 21  1  0  0  0
 16 31  1  0  0  0
 17 18  1  0  0  0
 17 96  1  0  0  0
 18 19  2  0  0  0
 18 97  1  0  0  0
 19 20  1  0  0  0
 19 24  1  0  0  0
 20 21  2  0  0  0
 20 98  1  0  0  0
 21 23  1  0  0  0
 22 28  1  0  0  0
 22 32  2  0  0  0
 26 27  1  0  0  0
 28 99  1  0  0  0
 28100  1  0  0  0
 29101  1  0  0  0
 29102  1  0  0  0
 33 34  1  0  0  0
 33 66  1  0  0  0
 33 70  2  0  0  0
 34 36  1  0  0  0
 34 59  1  0  0  0
 34103  1  0  0  0
 35 44  2  0  0  0
 35 45  1  0  0  0
 35 68  1  0  0  0
 36 56  1  0  0  0
 36104  1  0  0  0
 37 39  1  0  0  0
 37 47  1  0  0  0
 37 66  1  0  0  0
 37105  1  0  0  0
 38 43  2  0  0  0
 38 46  1  0  0  0
 38 47  1  0  0  0
 39 64  1  0  0  0
 39 67  2  0  0  0
 40 52  1  0  0  0
 40 53  2  0  0  0
 40 58  1  0  0  0
 41106  1  0  0  0
 41107  1  0  0  0
 41108  1  0  0  0
 41 48  1  0  0  0
 42 43  1  0  0  0
 42 66  1  0  0  0
 42109  1  0  0  0
 42110  1  0  0  0
 43 44  1  0  0  0
 44111  1  0  0  0
 45 46  2  0  0  0
 45112  1  0  0  0
 46113  1  0  0  0
 47114  1  0  0  0
 47115  1  0  0  0
 48 56  1  0  0  0
 48 65  1  0  0  0
 48116  1  0  0  0
 49 50  1  0  0  0
 49 53  1  0  0  0
 49 64  1  0  0  0
 49117  1  0  0  0
 50 51  1  0  0  0
 50118  1  0  0  0
 50119  1  0  0  0
 51 52  1  0  0  0
 51120  1  0  0  0
 51121  1  0  0  0
 52122  1  0  0  0
 52123  1  0  0  0
 53 54  1  0  0  0
 54 55  2  0  0  0
 54124  1  0  0  0
 55 57  1  0  0  0
 55125  1  0  0  0
 56 69  2  0  0  0
 57 58  2  0  0  0
 57126  1  0  0  0
 58127  1  0  0  0
 59 60  1  0  0  0
 59 61  1  0  0  0
 59 62  1  0  0  0
 60128  1  0  0  0
 60129  1  0  0  0
 60130  1  0  0  0
 61131  1  0  0  0
 61132  1  0  0  0
 61133  1  0  0  0
 62134  1  0  0  0
 62135  1  0  0  0
 62136  1  0  0  0
 63 65  1  0  0  0
 63137  1  0  0  0
 63138  1  0  0  0
 63139  1  0  0  0
 64140  1  0  0  0
 65141  1  0  0  0
 68 79  1  0  0  0
 71 72  2  0  0  0
 71 81  1  0  0  0
 71142  1  0  0  0
 72 73  1  0  0  0
 72 78  1  0  0  0
 73 79  1  0  0  0
 73 80  2  0  0  0
 74 75  1  0  0  0
 74 76  1  0  0  0
 74143  1  0  0  0
 74144  1  0  0  0
 75 77  1  0  0  0
 75145  1  0  0  0
 75146  1  0  0  0
 76 77  1  0  0  0
 76 81  1  0  0  0
 76147  1  0  0  0
 77 82  1  0  0  0
 77148  1  0  0  0
 78149  1  0  0  0
 78150  1  0  0  0
 78151  1  0  0  0
 79152  1  0  0  0
 79153  1  0  0  0
 80 81  1  0  0  0
 82154  1  0  0  0
M  ISO  4   1 100  68 101  79 101  82 100
M  END
> <chiral flag>
0

> <version>
0

> <s_m_source_file>
/data/baiqing/PycharmProjects/Reinvent-master-3.2/result/LINK_invent/BTK/process_docking_weight1_custom_sum_contain_oxygen_bond_distance_aromatic_linkinvent_7_9_3/rearranged_h_0184.sdf

> <i_m_source_file_index>
62

> <r_mmod_Potential_Energy-OPLS-2005>
899.466003417969

> <r_mmod_Stretch_Energy-OPLS-2005>
342.132415771484

> <r_mmod_Bend_Energy-OPLS-2005>
452.017120361328

> <r_mmod_Torsional_Energy-OPLS-2005>
278.253051757812

> <r_mmod_Improper_Torsional_Energy-OPLS-2005>
5.62674617767334

> <r_mmod_Van_der_Waal_Energy-OPLS-2005>
113.702072143555

> <r_mmod_Electrostatic_Energy-OPLS-2005>
-329.693115234375

> <r_mmod_Solvation_Energy-OPLS-2005>
-225.538970947266

> <b_mmod_Minimization_Converged-OPLS-2005>
0

> <r_mmod_RMS_Derivative-OPLS-2005>
2.76812076568604

$$$$
62
                    3D
 Structure written by MMmdl.
161169  0  0  1  0            999 V2000
  -30.7316  -14.4966   20.6197 C   0  0  0  0  0  0
  -30.4229  -12.3438   19.4224 C   0  0  0  0  0  0
  -29.4950  -12.5202   18.2032 C   0  0  0  0  0  0
  -28.0162  -12.3751   18.6129 C   0  0  0  0  0  0
  -27.6609  -13.2125   19.8694 C   0  0  2  0  0  0
  -28.7011  -12.9988   20.9880 C   0  0  0  0  0  0
  -25.2592  -13.8171   20.5650 C   0  0  0  0  0  0
  -24.1844  -13.0449   20.9151 C   0  0  0  0  0  0
  -24.6408  -11.6917   20.8703 C   0  0  0  0  0  0
  -23.9060  -10.4303   21.0372 C   0  0  0  0  0  0
  -24.3613   -9.4222   21.9162 C   0  0  0  0  0  0
  -23.6292   -8.2255   22.0741 C   0  0  0  0  0  0
  -22.4276   -8.0281   21.3533 C   0  0  0  0  0  0
  -21.9901   -9.0254   20.4638 C   0  0  0  0  0  0
  -22.7223  -10.2140   20.3037 C   0  0  0  0  0  0
  -21.6868   -6.0730   22.5272 C   0  0  0  0  0  0
  -21.4029   -6.5634   23.8204 C   0  0  0  0  0  0
  -21.3658   -5.6785   24.9166 C   0  0  0  0  0  0
  -21.6043   -4.3049   24.7214 C   0  0  0  0  0  0
  -21.8831   -3.8137   23.4337 C   0  0  0  0  0  0
  -21.9204   -4.6960   22.3394 C   0  0  0  0  0  0
  -22.7875  -13.5250   21.1819 C   0  0  0  0  0  0
  -22.1669   -4.2139   21.0974 F   0  0  0  0  0  0
  -21.5617   -3.4536   25.7728 F   0  0  0  0  0  0
  -30.0289  -13.3340   20.4443 N   0  0  0  0  0  0
  -26.3028  -12.9350   20.3324 N   0  0  0  0  0  0
  -25.9335  -11.6505   20.5732 N   0  0  0  0  0  0
  -22.0506  -12.8257   22.0376 N   0  0  0  0  0  0
  -25.4319  -15.1886   20.4054 N   0  0  0  0  0  0
  -31.8212  -14.6772   20.0691 O   0  0  0  0  0  0
  -21.6645   -6.8877   21.4231 O   0  0  0  0  0  0
  -22.3561  -14.5559   20.6666 O   0  0  0  0  0  0
  -24.6202  -31.8661   23.2094 C   0  0  0  0  0  0
  -25.9095  -32.4805   23.8376 C   0  0  1  0  0  0
  -27.2202  -27.3950   20.0870 C   0  0  0  0  0  0
  -25.5940  -33.8607   24.2308 N   0  0  0  0  0  0
  -23.4056  -30.4936   21.5543 C   0  0  2  0  0  0
  -24.8476  -28.9633   20.1110 C   0  0  0  0  0  0
  -22.7433  -29.4657   22.5015 C   0  0  0  0  0  0
  -18.0274  -28.1360   22.8509 C   0  0  0  0  0  0
  -24.1489  -36.7312   23.2638 C   0  0  0  0  0  0
  -25.9413  -30.8206   21.3683 C   0  0  0  0  0  0
  -26.0149  -29.4554   20.7085 C   0  0  0  0  0  0
  -27.2050  -28.6813   20.6897 C   0  0  0  0  0  0
  -26.0278  -26.9395   19.4743 C   0  0  0  0  0  0
  -24.8520  -27.7075   19.4891 C   0  0  0  0  0  0
  -23.6121  -29.8333   20.1669 C   0  0  0  0  0  0
  -25.4112  -36.3099   24.0330 C   0  0  1  0  0  0
  -20.5865  -28.3646   23.1336 C   0  0  2  0  0  0
  -20.6762  -26.9383   22.5433 C   0  0  0  0  0  0
  -19.5742  -26.6375   21.5231 C   0  0  0  0  0  0
  -18.1920  -26.7913   22.1631 C   0  0  0  0  0  0
  -19.1523  -28.8827   23.2913 C   0  0  0  0  0  0
  -18.9447  -30.1438   23.8913 C   0  0  0  0  0  0
  -17.6448  -30.6572   24.0567 C   0  0  0  0  0  0
  -25.9049  -34.9470   23.5106 C   0  0  0  0  0  0
  -16.5338  -29.9071   23.6325 C   0  0  0  0  0  0
  -16.7266  -28.6483   23.0360 C   0  0  0  0  0  0
  -26.4519  -31.6590   25.0713 C   0  0  0  0  0  0
  -25.3772  -31.3720   26.1453 C   0  0  0  0  0  0
  -27.0360  -30.3023   24.6114 C   0  0  0  0  0  0
  -27.6085  -32.4317   25.7475 C   0  0  0  0  0  0
  -27.5581  -37.1807   24.8465 C   0  0  0  0  0  0
  -21.4161  -29.3012   22.3751 N   0  0  0  0  0  0
  -26.4297  -37.3786   23.9407 N   0  0  0  0  0  0
  -24.6743  -31.0742   22.1014 N   0  0  0  0  0  0
  -23.4204  -28.8195   23.3057 O   0  0  0  0  0  0
  -28.3678  -26.6074   20.1102 O   0  0  0  0  0  0
  -26.5604  -34.8926   22.4659 O   0  0  0  0  0  0
  -23.5393  -32.1443   23.7482 O   0  0  0  0  0  0
  -30.5521  -16.8487   22.8251 C   0  0  0  0  0  0
  -29.8283  -15.5190   22.7003 C   0  0  0  0  0  0
  -30.5918  -16.9500   21.3067 C   0  0  2  0  0  0
  -31.2420  -22.0433   21.1452 C   0  0  0  0  0  0
  -29.6854  -17.9778   20.5715 C   0  0  0  0  0  0
  -29.4136  -24.2813   20.2392 C   0  0  0  0  0  0
  -29.6505  -20.4141   19.8278 C   0  0  0  0  0  0
  -28.1733  -25.1769   19.9533 C   0  0  0  0  0  0
  -30.1557  -21.8955   20.0584 C   0  0  1  0  0  0
  -30.1128  -15.5316   21.2575 N   0  0  0  0  0  0
  -29.0540  -22.8461   20.3051 N   0  0  0  0  0  0
  -30.1023  -19.3948   20.8233 N   0  3  0  0  0  0
  -31.4656  -12.4436   19.1151 H   0  0  0  0  0  0
  -30.3327  -11.3332   19.8230 H   0  0  0  0  0  0
  -29.7431  -11.7900   17.4305 H   0  0  0  0  0  0
  -29.6539  -13.5032   17.7588 H   0  0  0  0  0  0
  -27.8295  -11.3202   18.8104 H   0  0  0  0  0  0
  -27.3669  -12.6479   17.7801 H   0  0  0  0  0  0
  -27.7044  -14.2615   19.5761 H   0  0  0  0  0  0
  -28.6925  -11.9595   21.3217 H   0  0  0  0  0  0
  -28.4283  -13.5800   21.8634 H   0  0  0  0  0  0
  -25.2761   -9.5709   22.4732 H   0  0  0  0  0  0
  -24.0008   -7.4661   22.7477 H   0  0  0  0  0  0
  -21.0817   -8.8772   19.8964 H   0  0  0  0  0  0
  -22.3667  -10.9672   19.6139 H   0  0  0  0  0  0
  -21.2034   -7.6145   23.9712 H   0  0  0  0  0  0
  -21.1459   -6.0506   25.9070 H   0  0  0  0  0  0
  -22.0612   -2.7601   23.2832 H   0  0  0  0  0  0
  -22.4126  -11.9935   22.4794 H   0  0  0  0  0  0
  -21.1121  -13.1291   22.2567 H   0  0  0  0  0  0
  -24.6680  -15.8471   20.5088 H   0  0  0  0  0  0
  -26.2914  -15.6196   20.0879 H   0  0  0  0  0  0
  -26.7158  -32.5507   23.1128 H   0  0  0  0  0  0
  -25.0113  -33.9755   25.0469 H   0  0  0  0  0  0
  -22.6930  -31.3102   21.4204 H   0  0  0  0  0  0
  -23.3739  -35.9658   23.3315 H   0  0  0  0  0  0
  -24.3577  -36.8919   22.2049 H   0  0  0  0  0  0
  -23.7255  -37.6525   23.6650 H   0  0  0  0  0  0
  -26.0581  -31.5884   20.6018 H   0  0  0  0  0  0
  -26.8271  -30.8700   21.9896 H   0  0  0  0  0  0
  -28.1046  -29.0576   21.1572 H   0  0  0  0  0  0
  -25.9684  -25.9855   18.9733 H   0  0  0  0  0  0
  -23.9578  -27.3259   19.0159 H   0  0  0  0  0  0
  -23.7176  -30.6107   19.4096 H   0  0  0  0  0  0
  -22.7335  -29.2564   19.8730 H   0  0  0  0  0  0
  -25.1290  -36.1952   25.0825 H   0  0  0  0  0  0
  -20.9955  -28.3201   24.1459 H   0  0  0  0  0  0
  -20.5679  -26.2250   23.3619 H   0  0  0  0  0  0
  -21.6630  -26.7446   22.1212 H   0  0  0  0  0  0
  -19.6897  -25.6296   21.1236 H   0  0  0  0  0  0
  -19.6671  -27.3207   20.6779 H   0  0  0  0  0  0
  -17.4202  -26.6705   21.4011 H   0  0  0  0  0  0
  -18.0283  -26.0032   22.8995 H   0  0  0  0  0  0
  -19.7925  -30.7253   24.2283 H   0  0  0  0  0  0
  -17.5000  -31.6253   24.5157 H   0  0  0  0  0  0
  -15.5336  -30.2970   23.7638 H   0  0  0  0  0  0
  -15.8671  -28.0800   22.7068 H   0  0  0  0  0  0
  -24.5920  -30.7099   25.7785 H   0  0  0  0  0  0
  -24.9005  -32.2901   26.4898 H   0  0  0  0  0  0
  -25.8111  -30.8873   27.0207 H   0  0  0  0  0  0
  -26.2912  -29.6740   24.1208 H   0  0  0  0  0  0
  -27.4175  -29.7297   25.4580 H   0  0  0  0  0  0
  -27.8730  -30.4327   23.9245 H   0  0  0  0  0  0
  -27.2689  -33.3594   26.2086 H   0  0  0  0  0  0
  -28.3876  -32.6911   25.0295 H   0  0  0  0  0  0
  -28.0780  -31.8424   26.5360 H   0  0  0  0  0  0
  -28.2613  -38.0091   24.7497 H   0  0  0  0  0  0
  -28.1059  -36.2621   24.6302 H   0  0  0  0  0  0
  -27.2303  -37.1479   25.8871 H   0  0  0  0  0  0
  -20.9324  -29.8738   21.6976 H   0  0  0  0  0  0
  -26.0181  -38.2869   24.1380 H   0  0  0  0  0  0
  -31.5468  -16.7627   23.2661 H   0  0  0  0  0  0
  -29.9632  -17.6210   23.3205 H   0  0  0  0  0  0
  -28.7673  -15.5884   22.9429 H   0  0  0  0  0  0
  -30.3106  -14.7160   23.2631 H   0  0  0  0  0  0
  -31.6304  -17.0457   20.9843 H   0  0  0  0  0  0
  -32.0952  -21.3954   20.9419 H   0  0  0  0  0  0
  -30.8667  -21.8009   22.1401 H   0  0  0  0  0  0
  -31.6423  -23.0571   21.1847 H   0  0  0  0  0  0
  -28.6422  -17.8584   20.8676 H   0  0  0  0  0  0
  -29.7229  -17.7834   19.4993 H   0  0  0  0  0  0
  -29.8738  -24.5811   21.1816 H   0  0  0  0  0  0
  -30.1557  -24.4516   19.4577 H   0  0  0  0  0  0
  -30.0051  -20.0879   18.8484 H   0  0  0  0  0  0
  -28.5605  -20.3871   19.7654 H   0  0  0  0  0  0
  -27.3617  -24.8610   20.6129 H   0  0  0  0  0  0
  -27.8588  -24.9684   18.9290 H   0  0  0  0  0  0
  -30.6093  -22.2045   19.1139 H   0  0  0  0  0  0
  -28.5936  -22.6505   21.1912 H   0  0  0  0  0  0
  -31.1085  -19.4210   20.8438 H   0  0  0  0  0  0
  -29.7699  -19.6695   21.7332 H   0  0  0  0  0  0
  1 25  1  0  0  0
  1 30  2  0  0  0
  1 80  1  0  0  0
  2  3  1  0  0  0
  2 25  1  0  0  0
  2 83  1  0  0  0
  2 84  1  0  0  0
  3  4  1  0  0  0
  3 85  1  0  0  0
  3 86  1  0  0  0
  4  5  1  0  0  0
  4 87  1  0  0  0
  4 88  1  0  0  0
  5  6  1  0  0  0
  5 26  1  0  0  0
  5 89  1  0  0  0
  6 25  1  0  0  0
  6 90  1  0  0  0
  6 91  1  0  0  0
  7  8  2  0  0  0
  7 26  1  0  0  0
  7 29  1  0  0  0
  8  9  1  0  0  0
  8 22  1  0  0  0
  9 10  1  0  0  0
  9 27  2  0  0  0
 10 11  2  0  0  0
 10 15  1  0  0  0
 11 12  1  0  0  0
 11 92  1  0  0  0
 12 13  2  0  0  0
 12 93  1  0  0  0
 13 14  1  0  0  0
 13 31  1  0  0  0
 14 15  2  0  0  0
 14 94  1  0  0  0
 15 95  1  0  0  0
 16 17  2  0  0  0
 16 21  1  0  0  0
 16 31  1  0  0  0
 17 18  1  0  0  0
 17 96  1  0  0  0
 18 19  2  0  0  0
 18 97  1  0  0  0
 19 20  1  0  0  0
 19 24  1  0  0  0
 20 21  2  0  0  0
 20 98  1  0  0  0
 21 23  1  0  0  0
 22 28  1  0  0  0
 22 32  2  0  0  0
 26 27  1  0  0  0
 28 99  1  0  0  0
 28100  1  0  0  0
 29101  1  0  0  0
 29102  1  0  0  0
 33 34  1  0  0  0
 33 66  1  0  0  0
 33 70  2  0  0  0
 34 36  1  0  0  0
 34 59  1  0  0  0
 34103  1  0  0  0
 35 44  2  0  0  0
 35 45  1  0  0  0
 35 68  1  0  0  0
 36 56  1  0  0  0
 36104  1  0  0  0
 37 39  1  0  0  0
 37 47  1  0  0  0
 37 66  1  0  0  0
 37105  1  0  0  0
 38 43  2  0  0  0
 38 46  1  0  0  0
 38 47  1  0  0  0
 39 64  1  0  0  0
 39 67  2  0  0  0
 40 52  1  0  0  0
 40 53  2  0  0  0
 40 58  1  0  0  0
 41106  1  0  0  0
 41107  1  0  0  0
 41108  1  0  0  0
 41 48  1  0  0  0
 42 43  1  0  0  0
 42 66  1  0  0  0
 42109  1  0  0  0
 42110  1  0  0  0
 43 44  1  0  0  0
 44111  1  0  0  0
 45 46  2  0  0  0
 45112  1  0  0  0
 46113  1  0  0  0
 47114  1  0  0  0
 47115  1  0  0  0
 48 56  1  0  0  0
 48 65  1  0  0  0
 48116  1  0  0  0
 49 50  1  0  0  0
 49 53  1  0  0  0
 49 64  1  0  0  0
 49117  1  0  0  0
 50 51  1  0  0  0
 50118  1  0  0  0
 50119  1  0  0  0
 51 52  1  0  0  0
 51120  1  0  0  0
 51121  1  0  0  0
 52122  1  0  0  0
 52123  1  0  0  0
 53 54  1  0  0  0
 54 55  2  0  0  0
 54124  1  0  0  0
 55 57  1  0  0  0
 55125  1  0  0  0
 56 69  2  0  0  0
 57 58  2  0  0  0
 57126  1  0  0  0
 58127  1  0  0  0
 59 60  1  0  0  0
 59 61  1  0  0  0
 59 62  1  0  0  0
 60128  1  0  0  0
 60129  1  0  0  0
 60130  1  0  0  0
 61131  1  0  0  0
 61132  1  0  0  0
 61133  1  0  0  0
 62134  1  0  0  0
 62135  1  0  0  0
 62136  1  0  0  0
 63 65  1  0  0  0
 63137  1  0  0  0
 63138  1  0  0  0
 63139  1  0  0  0
 64140  1  0  0  0
 65141  1  0  0  0
 68 78  1  0  0  0
 71 72  1  0  0  0
 71 73  1  0  0  0
 71142  1  0  0  0
 71143  1  0  0  0
 72 80  1  0  0  0
 72144  1  0  0  0
 72145  1  0  0  0
 73 75  1  0  0  0
 73 80  1  0  0  0
 73146  1  0  0  0
 74147  1  0  0  0
 74148  1  0  0  0
 74149  1  0  0  0
 74 79  1  0  0  0
 75 82  1  0  0  0
 75150  1  0  0  0
 75151  1  0  0  0
 76 78  1  0  0  0
 76 81  1  0  0  0
 76152  1  0  0  0
 76153  1  0  0  0
 77 79  1  0  0  0
 77 82  1  0  0  0
 77154  1  0  0  0
 77155  1  0  0  0
 78156  1  0  0  0
 78157  1  0  0  0
 79 81  1  0  0  0
 79158  1  0  0  0
 81159  1  0  0  0
 82160  1  0  0  0
 82161  1  0  0  0
M  CHG  1  82   1
M  ISO  4   1 100  68 101  78 101  80 100
M  END
> <chiral flag>
0

> <version>
0

> <s_m_source_file>
/data/baiqing/PycharmProjects/Reinvent-master-3.2/result/LINK_invent/BTK/process_docking_weight1_custom_sum_contain_oxygen_bond_distance_aromatic_linkinvent_7_9_3/rearranged_h_0184.sdf

> <i_m_source_file_index>
63

> <r_mmod_Potential_Energy-OPLS-2005>
-88.0540771484375

> <r_mmod_Stretch_Energy-OPLS-2005>
52.4521141052246

> <r_mmod_Bend_Energy-OPLS-2005>
115.078842163086

> <r_mmod_Torsional_Energy-OPLS-2005>
287.998138427734

> <r_mmod_Improper_Torsional_Energy-OPLS-2005>
10.0185956954956

> <r_mmod_Van_der_Waal_Energy-OPLS-2005>
139.722991943359

> <r_mmod_Electrostatic_Energy-OPLS-2005>
-247.852844238281

> <r_mmod_Solvation_Energy-OPLS-2005>
-463.132568359375

> <b_mmod_Minimization_Converged-OPLS-2005>
0

> <r_mmod_RMS_Derivative-OPLS-2005>
1.96132838726044

$$$$
63
                    3D
 Structure written by MMmdl.
164173  0  0  1  0            999 V2000
  -30.6709  -14.7613   20.4680 C   0  0  0  0  0  0
  -30.4181  -12.4773   19.4703 C   0  0  0  0  0  0
  -29.4982  -12.5014   18.2328 C   0  0  0  0  0  0
  -28.0308  -12.3092   18.6563 C   0  0  0  0  0  0
  -27.6291  -13.2268   19.8401 C   0  0  2  0  0  0
  -28.6805  -13.2247   20.9726 C   0  0  0  0  0  0
  -25.2461  -13.8168   20.5708 C   0  0  0  0  0  0
  -24.1765  -13.0416   20.9231 C   0  0  0  0  0  0
  -24.6363  -11.6898   20.8776 C   0  0  0  0  0  0
  -23.9051  -10.4277   21.0419 C   0  0  0  0  0  0
  -24.3609   -9.4194   21.9191 C   0  0  0  0  0  0
  -23.6283   -8.2230   22.0755 C   0  0  0  0  0  0
  -22.4267   -8.0270   21.3543 C   0  0  0  0  0  0
  -21.9904   -9.0242   20.4644 C   0  0  0  0  0  0
  -22.7231  -10.2120   20.3057 C   0  0  0  0  0  0
  -21.6846   -6.0731   22.5280 C   0  0  0  0  0  0
  -21.4009   -6.5637   23.8213 C   0  0  0  0  0  0
  -21.3658   -5.6791   24.9174 C   0  0  0  0  0  0
  -21.6044   -4.3054   24.7224 C   0  0  0  0  0  0
  -21.8821   -3.8145   23.4344 C   0  0  0  0  0  0
  -21.9189   -4.6961   22.3400 C   0  0  0  0  0  0
  -22.7788  -13.5200   21.1879 C   0  0  0  0  0  0
  -22.1659   -4.2150   21.0979 F   0  0  0  0  0  0
  -21.5627   -3.4538   25.7735 F   0  0  0  0  0  0
  -29.9755  -13.5698   20.3726 N   0  0  0  0  0  0
  -26.2876  -12.9362   20.3290 N   0  0  0  0  0  0
  -25.9291  -11.6516   20.5788 N   0  0  0  0  0  0
  -22.0437  -12.8189   22.0437 N   0  0  0  0  0  0
  -25.4106  -15.1889   20.4088 N   0  0  0  0  0  0
  -31.8738  -14.7610   20.1914 O   0  0  0  0  0  0
  -21.6631   -6.8870   21.4240 O   0  0  0  0  0  0
  -22.3478  -14.5508   20.6724 O   0  0  0  0  0  0
  -24.6340  -31.8563   23.2007 C   0  0  0  0  0  0
  -25.9163  -32.4760   23.8349 C   0  0  1  0  0  0
  -27.2051  -27.2375   20.1222 C   0  0  0  0  0  0
  -25.5956  -33.8563   24.2269 N   0  0  0  0  0  0
  -23.4312  -30.4834   21.5447 C   0  0  2  0  0  0
  -24.8768  -28.9411   20.1049 C   0  0  0  0  0  0
  -22.7521  -29.4614   22.4899 C   0  0  0  0  0  0
  -18.0296  -28.1396   22.8485 C   0  0  0  0  0  0
  -24.1488  -36.7272   23.2642 C   0  0  0  0  0  0
  -25.9825  -30.7595   21.3893 C   0  0  0  0  0  0
  -26.0517  -29.3833   20.7265 C   0  0  0  0  0  0
  -27.2169  -28.5426   20.7317 C   0  0  0  0  0  0
  -26.0113  -26.9001   19.4349 C   0  0  0  0  0  0
  -24.8642  -27.7080   19.4473 C   0  0  0  0  0  0
  -23.6499  -29.8293   20.1577 C   0  0  0  0  0  0
  -25.4115  -36.3068   24.0331 C   0  0  1  0  0  0
  -20.5904  -28.3711   23.1253 C   0  0  2  0  0  0
  -20.6784  -26.9426   22.5401 C   0  0  0  0  0  0
  -19.5757  -26.6388   21.5209 C   0  0  0  0  0  0
  -18.1936  -26.7940   22.1620 C   0  0  0  0  0  0
  -19.1552  -28.8869   23.2867 C   0  0  0  0  0  0
  -18.9477  -30.1467   23.8893 C   0  0  0  0  0  0
  -17.6476  -30.6595   24.0565 C   0  0  0  0  0  0
  -25.9064  -34.9442   23.5098 C   0  0  0  0  0  0
  -16.5364  -29.9093   23.6336 C   0  0  0  0  0  0
  -16.7281  -28.6508   23.0357 C   0  0  0  0  0  0
  -26.4515  -31.6589   25.0746 C   0  0  0  0  0  0
  -25.3725  -31.3735   26.1451 C   0  0  0  0  0  0
  -27.0374  -30.3005   24.6255 C   0  0  0  0  0  0
  -27.6062  -32.4339   25.7520 C   0  0  0  0  0  0
  -27.5576  -37.1790   24.8466 C   0  0  0  0  0  0
  -21.4225  -29.3061   22.3641 N   0  0  0  0  0  0
  -26.4282  -37.3773   23.9421 N   0  0  0  0  0  0
  -24.7017  -31.0511   22.1003 N   0  0  0  0  0  0
  -23.4211  -28.8137   23.2991 O   0  0  0  0  0  0
  -28.2515  -26.2727   20.2232 O   0  0  0  0  0  0
  -26.5630  -34.8918   22.4665 O   0  0  0  0  0  0
  -23.5483  -32.1402   23.7282 O   0  0  0  0  0  0
  -29.1138  -20.6749   20.7382 C   0  0  0  0  0  0
  -28.3182  -21.4924   21.6102 C   0  0  0  0  0  0
  -29.4716  -22.6781   19.4889 C   0  0  0  0  0  0
  -28.6169  -23.4797   20.3268 C   0  0  0  0  0  0
  -28.8391  -18.1274   19.7874 C   0  0  0  0  0  0
  -30.6936  -18.5208   21.2905 C   0  0  0  0  0  0
  -28.8653  -16.5648   20.1057 C   0  0  0  0  0  0
  -30.7214  -16.9840   21.6888 C   0  0  0  0  0  0
  -29.2942  -19.0808   20.9298 C   0  0  0  0  0  0
  -27.6335  -20.9166   22.8361 C   0  0  0  0  0  0
  -31.6493  -23.5110   18.4950 C   0  0  0  0  0  0
  -30.1553  -23.2539   18.2572 C   0  0  0  0  0  0
  -27.8885  -24.8425   19.8792 C   0  0  0  0  0  0
  -29.7155  -21.3278   19.6967 N   0  0  0  0  0  0
  -28.0795  -22.8334   21.4055 N   0  0  0  0  0  0
  -30.0511  -15.9767   20.8013 N   0  0  0  0  0  0
  -31.4583  -12.5830   19.1583 H   0  0  0  0  0  0
  -30.3585  -11.5140   19.9796 H   0  0  0  0  0  0
  -29.7894  -11.7202   17.5295 H   0  0  0  0  0  0
  -29.6101  -13.4494   17.7039 H   0  0  0  0  0  0
  -27.9062  -11.2640   18.9422 H   0  0  0  0  0  0
  -27.3660  -12.4728   17.8072 H   0  0  0  0  0  0
  -27.5901  -14.2264   19.4193 H   0  0  0  0  0  0
  -28.7291  -12.2498   21.4595 H   0  0  0  0  0  0
  -28.4097  -13.9444   21.7468 H   0  0  0  0  0  0
  -25.2752   -9.5672   22.4770 H   0  0  0  0  0  0
  -23.9992   -7.4621   22.7472 H   0  0  0  0  0  0
  -21.0839   -8.8757   19.8945 H   0  0  0  0  0  0
  -22.3691  -10.9660   19.6165 H   0  0  0  0  0  0
  -21.2002   -7.6145   23.9716 H   0  0  0  0  0  0
  -21.1475   -6.0519   25.9078 H   0  0  0  0  0  0
  -22.0601   -2.7609   23.2843 H   0  0  0  0  0  0
  -22.4050  -11.9848   22.4823 H   0  0  0  0  0  0
  -21.1051  -13.1202   22.2642 H   0  0  0  0  0  0
  -24.6390  -15.8379   20.5182 H   0  0  0  0  0  0
  -26.2560  -15.6308   20.0736 H   0  0  0  0  0  0
  -26.7227  -32.5401   23.1084 H   0  0  0  0  0  0
  -25.0108  -33.9709   25.0415 H   0  0  0  0  0  0
  -22.7289  -31.3075   21.4024 H   0  0  0  0  0  0
  -23.3766  -35.9587   23.3290 H   0  0  0  0  0  0
  -24.3579  -36.8907   22.2060 H   0  0  0  0  0  0
  -23.7221  -37.6461   23.6672 H   0  0  0  0  0  0
  -26.1299  -31.5209   20.6222 H   0  0  0  0  0  0
  -26.8577  -30.8037   22.0256 H   0  0  0  0  0  0
  -28.1063  -28.8688   21.2525 H   0  0  0  0  0  0
  -25.9037  -25.9769   18.8874 H   0  0  0  0  0  0
  -23.9711  -27.3722   18.9383 H   0  0  0  0  0  0
  -23.7762  -30.6117   19.4083 H   0  0  0  0  0  0
  -22.7671  -29.2672   19.8477 H   0  0  0  0  0  0
  -25.1291  -36.1910   25.0821 H   0  0  0  0  0  0
  -20.9998  -28.3293   24.1372 H   0  0  0  0  0  0
  -20.5685  -26.2328   23.3612 H   0  0  0  0  0  0
  -21.6651  -26.7447   22.1191 H   0  0  0  0  0  0
  -19.6923  -25.6297   21.1245 H   0  0  0  0  0  0
  -19.6693  -27.3196   20.6738 H   0  0  0  0  0  0
  -17.4205  -26.6697   21.4021 H   0  0  0  0  0  0
  -18.0330  -26.0079   22.9011 H   0  0  0  0  0  0
  -19.7955  -30.7283   24.2263 H   0  0  0  0  0  0
  -17.5032  -31.6278   24.5164 H   0  0  0  0  0  0
  -15.5368  -30.2996   23.7669 H   0  0  0  0  0  0
  -15.8676  -28.0826   22.7082 H   0  0  0  0  0  0
  -24.5927  -30.7056   25.7772 H   0  0  0  0  0  0
  -24.8883  -32.2897   26.4841 H   0  0  0  0  0  0
  -25.8032  -30.8941   27.0251 H   0  0  0  0  0  0
  -26.2976  -29.6744   24.1256 H   0  0  0  0  0  0
  -27.4026  -29.7274   25.4788 H   0  0  0  0  0  0
  -27.8862  -30.4279   23.9533 H   0  0  0  0  0  0
  -27.2677  -33.3665   26.2046 H   0  0  0  0  0  0
  -28.3896  -32.6861   25.0360 H   0  0  0  0  0  0
  -28.0701  -31.8497   26.5477 H   0  0  0  0  0  0
  -28.2573  -38.0108   24.7536 H   0  0  0  0  0  0
  -28.1090  -36.2638   24.6252 H   0  0  0  0  0  0
  -27.2300  -37.1387   25.8871 H   0  0  0  0  0  0
  -20.9413  -29.8797   21.6857 H   0  0  0  0  0  0
  -26.0155  -38.2839   24.1444 H   0  0  0  0  0  0
  -27.8269  -18.4004   19.4868 H   0  0  0  0  0  0
  -29.4613  -18.3198   18.9122 H   0  0  0  0  0  0
  -31.3757  -18.6942   20.4573 H   0  0  0  0  0  0
  -31.0957  -19.0989   22.1235 H   0  0  0  0  0  0
  -28.7267  -16.0468   19.1570 H   0  0  0  0  0  0
  -27.9993  -16.3262   20.7221 H   0  0  0  0  0  0
  -30.2400  -16.8842   22.6624 H   0  0  0  0  0  0
  -31.7601  -16.6984   21.8629 H   0  0  0  0  0  0
  -28.6579  -18.8196   21.7729 H   0  0  0  0  0  0
  -26.8645  -20.2026   22.5413 H   0  0  0  0  0  0
  -27.1560  -21.6934   23.4343 H   0  0  0  0  0  0
  -28.3558  -20.4084   23.4747 H   0  0  0  0  0  0
  -32.1217  -23.9164   17.6002 H   0  0  0  0  0  0
  -32.1717  -22.5907   18.7578 H   0  0  0  0  0  0
  -31.8008  -24.2247   19.3054 H   0  0  0  0  0  0
  -29.6830  -24.1819   17.9410 H   0  0  0  0  0  0
  -30.0296  -22.5589   17.4258 H   0  0  0  0  0  0
  -26.8881  -24.6777   20.2808 H   0  0  0  0  0  0
  -27.7680  -24.7924   18.7978 H   0  0  0  0  0  0
  1 25  1  0  0  0
  1 30  2  0  0  0
  1 86  1  0  0  0
  2  3  1  0  0  0
  2 25  1  0  0  0
  2 87  1  0  0  0
  2 88  1  0  0  0
  3  4  1  0  0  0
  3 89  1  0  0  0
  3 90  1  0  0  0
  4  5  1  0  0  0
  4 91  1  0  0  0
  4 92  1  0  0  0
  5  6  1  0  0  0
  5 26  1  0  0  0
  5 93  1  0  0  0
  6 25  1  0  0  0
  6 94  1  0  0  0
  6 95  1  0  0  0
  7  8  2  0  0  0
  7 26  1  0  0  0
  7 29  1  0  0  0
  8  9  1  0  0  0
  8 22  1  0  0  0
  9 10  1  0  0  0
  9 27  2  0  0  0
 10 11  2  0  0  0
 10 15  1  0  0  0
 11 12  1  0  0  0
 11 96  1  0  0  0
 12 13  2  0  0  0
 12 97  1  0  0  0
 13 14  1  0  0  0
 13 31  1  0  0  0
 14 15  2  0  0  0
 14 98  1  0  0  0
 15 99  1  0  0  0
 16 17  2  0  0  0
 16 21  1  0  0  0
 16 31  1  0  0  0
 17 18  1  0  0  0
 17100  1  0  0  0
 18 19  2  0  0  0
 18101  1  0  0  0
 19 20  1  0  0  0
 19 24  1  0  0  0
 20 21  2  0  0  0
 20102  1  0  0  0
 21 23  1  0  0  0
 22 28  1  0  0  0
 22 32  2  0  0  0
 26 27  1  0  0  0
 28103  1  0  0  0
 28104  1  0  0  0
 29105  1  0  0  0
 29106  1  0  0  0
 33 34  1  0  0  0
 33 66  1  0  0  0
 33 70  2  0  0  0
 34 36  1  0  0  0
 34 59  1  0  0  0
 34107  1  0  0  0
 35 44  2  0  0  0
 35 45  1  0  0  0
 35 68  1  0  0  0
 36 56  1  0  0  0
 36108  1  0  0  0
 37 39  1  0  0  0
 37 47  1  0  0  0
 37 66  1  0  0  0
 37109  1  0  0  0
 38 43  2  0  0  0
 38 46  1  0  0  0
 38 47  1  0  0  0
 39 64  1  0  0  0
 39 67  2  0  0  0
 40 52  1  0  0  0
 40 53  2  0  0  0
 40 58  1  0  0  0
 41110  1  0  0  0
 41111  1  0  0  0
 41112  1  0  0  0
 41 48  1  0  0  0
 42 43  1  0  0  0
 42 66  1  0  0  0
 42113  1  0  0  0
 42114  1  0  0  0
 43 44  1  0  0  0
 44115  1  0  0  0
 45 46  2  0  0  0
 45116  1  0  0  0
 46117  1  0  0  0
 47118  1  0  0  0
 47119  1  0  0  0
 48 56  1  0  0  0
 48 65  1  0  0  0
 48120  1  0  0  0
 49 50  1  0  0  0
 49 53  1  0  0  0
 49 64  1  0  0  0
 49121  1  0  0  0
 50 51  1  0  0  0
 50122  1  0  0  0
 50123  1  0  0  0
 51 52  1  0  0  0
 51124  1  0  0  0
 51125  1  0  0  0
 52126  1  0  0  0
 52127  1  0  0  0
 53 54  1  0  0  0
 54 55  2  0  0  0
 54128  1  0  0  0
 55 57  1  0  0  0
 55129  1  0  0  0
 56 69  2  0  0  0
 57 58  2  0  0  0
 57130  1  0  0  0
 58131  1  0  0  0
 59 60  1  0  0  0
 59 61  1  0  0  0
 59 62  1  0  0  0
 60132  1  0  0  0
 60133  1  0  0  0
 60134  1  0  0  0
 61135  1  0  0  0
 61136  1  0  0  0
 61137  1  0  0  0
 62138  1  0  0  0
 62139  1  0  0  0
 62140  1  0  0  0
 63 65  1  0  0  0
 63141  1  0  0  0
 63142  1  0  0  0
 63143  1  0  0  0
 64144  1  0  0  0
 65145  1  0  0  0
 68 83  1  0  0  0
 71 72  2  0  0  0
 71 84  1  0  0  0
 71 79  1  0  0  0
 72 80  1  0  0  0
 72 85  1  0  0  0
 73 74  1  0  0  0
 73 82  1  0  0  0
 73 84  2  0  0  0
 74 83  1  0  0  0
 74 85  2  0  0  0
 75 77  1  0  0  0
 75 79  1  0  0  0
 75146  1  0  0  0
 75147  1  0  0  0
 76 78  1  0  0  0
 76 79  1  0  0  0
 76148  1  0  0  0
 76149  1  0  0  0
 77 86  1  0  0  0
 77150  1  0  0  0
 77151  1  0  0  0
 78 86  1  0  0  0
 78152  1  0  0  0
 78153  1  0  0  0
 79154  1  0  0  0
 80155  1  0  0  0
 80156  1  0  0  0
 80157  1  0  0  0
 81 82  1  0  0  0
 81158  1  0  0  0
 81159  1  0  0  0
 81160  1  0  0  0
 82161  1  0  0  0
 82162  1  0  0  0
 83163  1  0  0  0
 83164  1  0  0  0
M  ISO  4   1 100  68 101  83 101  86 100
M  END
> <chiral flag>
0

> <version>
0

> <s_m_source_file>
/data/baiqing/PycharmProjects/Reinvent-master-3.2/result/LINK_invent/BTK/process_docking_weight1_custom_sum_contain_oxygen_bond_distance_aromatic_linkinvent_7_9_3/rearranged_h_0184.sdf

> <i_m_source_file_index>
64

> <r_mmod_Potential_Energy-OPLS-2005>
498.611602783203

> <r_mmod_Stretch_Energy-OPLS-2005>
134.175003051758

> <r_mmod_Bend_Energy-OPLS-2005>
208.991836547852

> <r_mmod_Torsional_Energy-OPLS-2005>
319.133361816406

> <r_mmod_Improper_Torsional_Energy-OPLS-2005>
5.90472745895386

> <r_mmod_Van_der_Waal_Energy-OPLS-2005>
153.982284545898

> <r_mmod_Electrostatic_Energy-OPLS-2005>
-215.710403442383

> <r_mmod_Solvation_Energy-OPLS-2005>
-215.673583984375

> <b_mmod_Minimization_Converged-OPLS-2005>
0

> <r_mmod_RMS_Derivative-OPLS-2005>
0.691400468349457

$$$$
64
                    3D
 Structure written by MMmdl.
147155  0  0  1  0            999 V2000
  -30.1951  -16.1164   20.3061 C   0  0  0  0  0  0
  -30.3636  -13.4580   19.5246 C   0  0  0  0  0  0
  -29.5539  -12.7898   18.3636 C   0  0  0  0  0  0
  -28.1759  -12.3264   18.8398 C   0  0  0  0  0  0
  -27.5783  -13.3660   19.8067 C   0  0  2  0  0  0
  -28.5608  -13.9260   20.8817 C   0  0  0  0  0  0
  -25.2251  -13.8385   20.5903 C   0  0  0  0  0  0
  -24.1685  -13.0453   20.9328 C   0  0  0  0  0  0
  -24.6463  -11.6990   20.8761 C   0  0  0  0  0  0
  -23.9178  -10.4305   21.0371 C   0  0  0  0  0  0
  -24.3699   -9.4215   21.9161 C   0  0  0  0  0  0
  -23.6344   -8.2263   22.0750 C   0  0  0  0  0  0
  -22.4319   -8.0307   21.3542 C   0  0  0  0  0  0
  -21.9977   -9.0284   20.4634 C   0  0  0  0  0  0
  -22.7335  -10.2147   20.3028 C   0  0  0  0  0  0
  -21.6869   -6.0754   22.5280 C   0  0  0  0  0  0
  -21.4031   -6.5646   23.8217 C   0  0  0  0  0  0
  -21.3670   -5.6797   24.9175 C   0  0  0  0  0  0
  -21.6047   -4.3059   24.7220 C   0  0  0  0  0  0
  -21.8809   -3.8151   23.4338 C   0  0  0  0  0  0
  -21.9198   -4.6977   22.3398 C   0  0  0  0  0  0
  -22.7677  -13.5141   21.1928 C   0  0  0  0  0  0
  -22.1665   -4.2161   21.0981 F   0  0  0  0  0  0
  -21.5629   -3.4540   25.7730 F   0  0  0  0  0  0
  -29.6434  -14.6991   20.1749 N   0  0  0  0  0  0
  -26.2768  -12.9826   20.3355 N   0  0  0  0  0  0
  -25.9437  -11.6828   20.5688 N   0  0  0  0  0  0
  -22.0351  -12.8112   22.0479 N   0  0  0  0  0  0
  -25.3779  -15.2136   20.4363 N   0  0  0  0  0  0
  -31.4275  -15.8591   20.2402 O   0  0  0  0  0  0
  -21.6668   -6.8908   21.4243 O   0  0  0  0  0  0
  -22.3341  -14.5422   20.6749 O   0  0  0  0  0  0
  -24.7148  -31.7608   23.1226 C   0  0  0  0  0  0
  -25.9565  -32.4277   23.7903 C   0  0  1  0  0  0
  -27.2457  -26.3687   20.2457 C   0  0  0  0  0  0
  -25.6002  -33.8120   24.1751 N   0  0  0  0  0  0
  -23.5565  -30.3465   21.4843 C   0  0  2  0  0  0
  -25.0191  -28.6159   20.1277 C   0  0  0  0  0  0
  -22.7909  -29.4106   22.4616 C   0  0  0  0  0  0
  -18.0363  -28.1440   22.8441 C   0  0  0  0  0  0
  -24.1502  -36.7083   23.2661 C   0  0  0  0  0  0
  -26.1494  -30.3826   21.4386 C   0  0  0  0  0  0
  -26.2121  -28.9098   20.7959 C   0  0  0  0  0  0
  -27.2915  -27.8251   20.8135 C   0  0  0  0  0  0
  -26.0162  -26.3706   19.5104 C   0  0  0  0  0  0
  -24.9802  -27.3761   19.4595 C   0  0  0  0  0  0
  -23.8296  -29.6102   20.1354 C   0  0  0  0  0  0
  -25.4165  -36.2788   24.0253 C   0  0  1  0  0  0
  -20.6015  -28.3816   23.1076 C   0  0  2  0  0  0
  -20.6812  -26.9441   22.5409 C   0  0  0  0  0  0
  -19.5795  -26.6357   21.5224 C   0  0  0  0  0  0
  -18.1978  -26.7959   22.1618 C   0  0  0  0  0  0
  -19.1638  -28.8959   23.2729 C   0  0  0  0  0  0
  -18.9536  -30.1535   23.8789 C   0  0  0  0  0  0
  -17.6523  -30.6612   24.0541 C   0  0  0  0  0  0
  -25.9157  -34.9184   23.4865 C   0  0  0  0  0  0
  -16.5410  -29.9086   23.6357 C   0  0  0  0  0  0
  -16.7341  -28.6508   23.0372 C   0  0  0  0  0  0
  -26.4640  -31.6451   25.0661 C   0  0  0  0  0  0
  -25.3615  -31.3867   26.1211 C   0  0  0  0  0  0
  -27.0625  -30.2752   24.6805 C   0  0  0  0  0  0
  -27.6019  -32.4394   25.7503 C   0  0  0  0  0  0
  -27.5557  -37.1702   24.8464 C   0  0  0  0  0  0
  -21.4525  -29.2997   22.3358 N   0  0  0  0  0  0
  -26.4269  -37.3581   23.9392 N   0  0  0  0  0  0
  -24.8342  -30.8721   22.0669 N   0  0  0  0  0  0
  -23.4192  -28.7765   23.3121 O   0  0  0  0  0  0
  -28.1740  -25.0039   20.3306 O   0  0  0  0  0  0
  -26.5862  -34.8824   22.4526 O   0  0  0  0  0  0
  -23.6098  -32.0840   23.5963 O   0  0  0  0  0  0
  -30.2331  -20.4770   19.7171 C   0  0  0  0  0  0
  -30.7174  -18.8867   20.0409 C   0  0  0  0  0  0
  -28.6236  -19.1627   20.3861 C   0  0  0  0  0  0
  -28.9670  -21.1105   20.4870 C   0  0  2  0  0  0
  -28.1280  -23.0747   20.1449 C   0  0  0  0  0  0
  -29.7183  -17.7366   20.2547 N   0  0  0  0  0  0
  -29.3768  -21.2763   21.8955 N   0  3  0  0  0  0
  -31.3173  -13.7639   19.0940 H   0  0  0  0  0  0
  -30.6418  -12.7164   20.2754 H   0  0  0  0  0  0
  -30.1100  -11.9542   17.9361 H   0  0  0  0  0  0
  -29.4302  -13.5176   17.5611 H   0  0  0  0  0  0
  -28.2970  -11.3750   19.3601 H   0  0  0  0  0  0
  -27.5123  -12.1403   17.9938 H   0  0  0  0  0  0
  -27.3679  -14.2118   19.1491 H   0  0  0  0  0  0
  -28.9372  -13.1434   21.5427 H   0  0  0  0  0  0
  -28.0309  -14.6258   21.5292 H   0  0  0  0  0  0
  -25.2835   -9.5694   22.4752 H   0  0  0  0  0  0
  -24.0039   -7.4654   22.7483 H   0  0  0  0  0  0
  -21.0903   -8.8817   19.8940 H   0  0  0  0  0  0
  -22.3791  -10.9692   19.6140 H   0  0  0  0  0  0
  -21.2033   -7.6152   23.9728 H   0  0  0  0  0  0
  -21.1506   -6.0522   25.9082 H   0  0  0  0  0  0
  -22.0578   -2.7612   23.2832 H   0  0  0  0  0  0
  -22.4021  -11.9818   22.4899 H   0  0  0  0  0  0
  -21.0941  -13.1071   22.2645 H   0  0  0  0  0  0
  -24.6056  -15.8604   20.5545 H   0  0  0  0  0  0
  -26.2307  -15.6651   20.1313 H   0  0  0  0  0  0
  -26.7681  -32.4673   23.0637 H   0  0  0  0  0  0
  -24.9983  -33.9102   24.9791 H   0  0  0  0  0  0
  -22.9010  -31.1920   21.2643 H   0  0  0  0  0  0
  -23.3782  -35.9394   23.3256 H   0  0  0  0  0  0
  -24.3550  -36.8837   22.2089 H   0  0  0  0  0  0
  -23.7256  -37.6225   23.6815 H   0  0  0  0  0  0
  -26.3851  -31.0827   20.6359 H   0  0  0  0  0  0
  -26.9887  -30.4645   22.1159 H   0  0  0  0  0  0
  -28.1809  -28.0707   21.3760 H   0  0  0  0  0  0
  -25.7945  -25.4571   18.9772 H   0  0  0  0  0  0
  -24.0901  -27.1357   18.8934 H   0  0  0  0  0  0
  -24.0281  -30.3547   19.3636 H   0  0  0  0  0  0
  -22.9279  -29.0905   19.8067 H   0  0  0  0  0  0
  -25.1396  -36.1508   25.0746 H   0  0  0  0  0  0
  -21.0085  -28.3473   24.1210 H   0  0  0  0  0  0
  -20.5645  -26.2457   23.3708 H   0  0  0  0  0  0
  -21.6671  -26.7332   22.1253 H   0  0  0  0  0  0
  -19.6945  -25.6235   21.1334 H   0  0  0  0  0  0
  -19.6745  -27.3100   20.6703 H   0  0  0  0  0  0
  -17.4246  -26.6697   21.4019 H   0  0  0  0  0  0
  -18.0353  -26.0128   22.9042 H   0  0  0  0  0  0
  -19.8010  -30.7378   24.2108 H   0  0  0  0  0  0
  -17.5070  -31.6282   24.5167 H   0  0  0  0  0  0
  -15.5403  -30.2956   23.7741 H   0  0  0  0  0  0
  -15.8743  -28.0793   22.7147 H   0  0  0  0  0  0
  -24.5835  -30.7194   25.7489 H   0  0  0  0  0  0
  -24.8777  -32.3124   26.4338 H   0  0  0  0  0  0
  -25.7702  -30.9210   27.0188 H   0  0  0  0  0  0
  -26.3408  -29.6268   24.1835 H   0  0  0  0  0  0
  -27.3952  -29.7328   25.5666 H   0  0  0  0  0  0
  -27.9422  -30.3800   24.0456 H   0  0  0  0  0  0
  -27.2508  -33.3800   26.1766 H   0  0  0  0  0  0
  -28.3990  -32.6797   25.0452 H   0  0  0  0  0  0
  -28.0519  -31.8747   26.5680 H   0  0  0  0  0  0
  -28.2533  -38.0033   24.7490 H   0  0  0  0  0  0
  -28.1097  -36.2548   24.6325 H   0  0  0  0  0  0
  -27.2265  -37.1369   25.8865 H   0  0  0  0  0  0
  -20.9907  -29.8590   21.6320 H   0  0  0  0  0  0
  -26.0071  -38.2621   24.1384 H   0  0  0  0  0  0
  -30.0098  -20.5331   18.6506 H   0  0  0  0  0  0
  -31.0962  -21.1338   19.8394 H   0  0  0  0  0  0
  -31.3371  -18.9027   20.9386 H   0  0  0  0  0  0
  -31.3996  -18.5758   19.2476 H   0  0  0  0  0  0
  -27.9806  -19.0447   19.5124 H   0  0  0  0  0  0
  -27.9559  -18.9236   21.2142 H   0  0  0  0  0  0
  -27.1467  -22.9217   20.5933 H   0  0  0  0  0  0
  -27.9271  -23.0153   19.0755 H   0  0  0  0  0  0
  -29.8627  -20.4661   22.2355 H   0  0  0  0  0  0
  -28.5735  -21.4272   22.4818 H   0  0  0  0  0  0
  -29.9820  -22.0727   22.0016 H   0  0  0  0  0  0
  1 25  1  0  0  0
  1 30  2  0  0  0
  1 76  1  0  0  0
  2  3  1  0  0  0
  2 25  1  0  0  0
  2 78  1  0  0  0
  2 79  1  0  0  0
  3  4  1  0  0  0
  3 80  1  0  0  0
  3 81  1  0  0  0
  4  5  1  0  0  0
  4 82  1  0  0  0
  4 83  1  0  0  0
  5  6  1  0  0  0
  5 26  1  0  0  0
  5 84  1  0  0  0
  6 25  1  0  0  0
  6 85  1  0  0  0
  6 86  1  0  0  0
  7  8  2  0  0  0
  7 26  1  0  0  0
  7 29  1  0  0  0
  8  9  1  0  0  0
  8 22  1  0  0  0
  9 10  1  0  0  0
  9 27  2  0  0  0
 10 11  2  0  0  0
 10 15  1  0  0  0
 11 12  1  0  0  0
 11 87  1  0  0  0
 12 13  2  0  0  0
 12 88  1  0  0  0
 13 14  1  0  0  0
 13 31  1  0  0  0
 14 15  2  0  0  0
 14 89  1  0  0  0
 15 90  1  0  0  0
 16 17  2  0  0  0
 16 21  1  0  0  0
 16 31  1  0  0  0
 17 18  1  0  0  0
 17 91  1  0  0  0
 18 19  2  0  0  0
 18 92  1  0  0  0
 19 20  1  0  0  0
 19 24  1  0  0  0
 20 21  2  0  0  0
 20 93  1  0  0  0
 21 23  1  0  0  0
 22 28  1  0  0  0
 22 32  2  0  0  0
 26 27  1  0  0  0
 28 94  1  0  0  0
 28 95  1  0  0  0
 29 96  1  0  0  0
 29 97  1  0  0  0
 33 34  1  0  0  0
 33 66  1  0  0  0
 33 70  2  0  0  0
 34 36  1  0  0  0
 34 59  1  0  0  0
 34 98  1  0  0  0
 35 44  2  0  0  0
 35 45  1  0  0  0
 35 68  1  0  0  0
 36 56  1  0  0  0
 36 99  1  0  0  0
 37 39  1  0  0  0
 37 47  1  0  0  0
 37 66  1  0  0  0
 37100  1  0  0  0
 38 43  2  0  0  0
 38 46  1  0  0  0
 38 47  1  0  0  0
 39 64  1  0  0  0
 39 67  2  0  0  0
 40 52  1  0  0  0
 40 53  2  0  0  0
 40 58  1  0  0  0
 41101  1  0  0  0
 41102  1  0  0  0
 41103  1  0  0  0
 41 48  1  0  0  0
 42 43  1  0  0  0
 42 66  1  0  0  0
 42104  1  0  0  0
 42105  1  0  0  0
 43 44  1  0  0  0
 44106  1  0  0  0
 45 46  2  0  0  0
 45107  1  0  0  0
 46108  1  0  0  0
 47109  1  0  0  0
 47110  1  0  0  0
 48 56  1  0  0  0
 48 65  1  0  0  0
 48111  1  0  0  0
 49 50  1  0  0  0
 49 53  1  0  0  0
 49 64  1  0  0  0
 49112  1  0  0  0
 50 51  1  0  0  0
 50113  1  0  0  0
 50114  1  0  0  0
 51 52  1  0  0  0
 51115  1  0  0  0
 51116  1  0  0  0
 52117  1  0  0  0
 52118  1  0  0  0
 53 54  1  0  0  0
 54 55  2  0  0  0
 54119  1  0  0  0
 55 57  1  0  0  0
 55120  1  0  0  0
 56 69  2  0  0  0
 57 58  2  0  0  0
 57121  1  0  0  0
 58122  1  0  0  0
 59 60  1  0  0  0
 59 61  1  0  0  0
 59 62  1  0  0  0
 60123  1  0  0  0
 60124  1  0  0  0
 60125  1  0  0  0
 61126  1  0  0  0
 61127  1  0  0  0
 61128  1  0  0  0
 62129  1  0  0  0
 62130  1  0  0  0
 62131  1  0  0  0
 63 65  1  0  0  0
 63132  1  0  0  0
 63133  1  0  0  0
 63134  1  0  0  0
 64135  1  0  0  0
 65136  1  0  0  0
 68 75  1  0  0  0
 71 72  1  0  0  0
 71 74  1  0  0  0
 71137  1  0  0  0
 71138  1  0  0  0
 72 76  1  0  0  0
 72139  1  0  0  0
 72140  1  0  0  0
 73 74  1  0  0  0
 73 76  1  0  0  0
 73141  1  0  0  0
 73142  1  0  0  0
 74 75  1  0  0  0
 74 77  1  0  0  0
 75143  1  0  0  0
 75144  1  0  0  0
 77145  1  0  0  0
 77146  1  0  0  0
 77147  1  0  0  0
M  CHG  1  77   1
M  ISO  4   1 100  68 101  75 101  76 100
M  END
> <chiral flag>
0

> <version>
0

> <s_m_source_file>
/data/baiqing/PycharmProjects/Reinvent-master-3.2/result/LINK_invent/BTK/process_docking_weight1_custom_sum_contain_oxygen_bond_distance_aromatic_linkinvent_7_9_3/rearranged_h_0184.sdf

> <i_m_source_file_index>
65

> <r_mmod_Potential_Energy-OPLS-2005>
4566.18115234375

> <r_mmod_Stretch_Energy-OPLS-2005>
1949.79931640625

> <r_mmod_Bend_Energy-OPLS-2005>
1101.81262207031

> <r_mmod_Torsional_Energy-OPLS-2005>
365.144104003906

> <r_mmod_Improper_Torsional_Energy-OPLS-2005>
8.19753932952881

> <r_mmod_Van_der_Waal_Energy-OPLS-2005>
115.117393493652

> <r_mmod_Electrostatic_Energy-OPLS-2005>
-209.190551757812

> <r_mmod_Solvation_Energy-OPLS-2005>
-503.916748046875

> <b_mmod_Minimization_Converged-OPLS-2005>
0

> <r_mmod_RMS_Derivative-OPLS-2005>
1.46117961406708

$$$$
65
                    3D
 Structure written by MMmdl.
148157  0  0  1  0            999 V2000
  -30.5011  -15.0270   20.4021 C   0  0  0  0  0  0
  -30.4433  -12.6388   19.5001 C   0  0  0  0  0  0
  -29.5243  -12.5429   18.2595 C   0  0  0  0  0  0
  -28.0627  -12.3033   18.6805 C   0  0  0  0  0  0
  -27.6268  -13.2465   19.8305 C   0  0  2  0  0  0
  -28.6681  -13.3048   20.9680 C   0  0  0  0  0  0
  -25.2453  -13.8209   20.5656 C   0  0  0  0  0  0
  -24.1776  -13.0429   20.9208 C   0  0  0  0  0  0
  -24.6393  -11.6909   20.8733 C   0  0  0  0  0  0
  -23.9079  -10.4285   21.0388 C   0  0  0  0  0  0
  -24.3633   -9.4203   21.9169 C   0  0  0  0  0  0
  -23.6294   -8.2250   22.0761 C   0  0  0  0  0  0
  -22.4278   -8.0278   21.3550 C   0  0  0  0  0  0
  -21.9914   -9.0251   20.4648 C   0  0  0  0  0  0
  -22.7250  -10.2119   20.3042 C   0  0  0  0  0  0
  -21.6854   -6.0726   22.5279 C   0  0  0  0  0  0
  -21.4020   -6.5635   23.8207 C   0  0  0  0  0  0
  -21.3662   -5.6782   24.9168 C   0  0  0  0  0  0
  -21.6052   -4.3049   24.7226 C   0  0  0  0  0  0
  -21.8820   -3.8143   23.4346 C   0  0  0  0  0  0
  -21.9195   -4.6959   22.3403 C   0  0  0  0  0  0
  -22.7802  -13.5194   21.1838 C   0  0  0  0  0  0
  -22.1652   -4.2141   21.0981 F   0  0  0  0  0  0
  -21.5636   -3.4532   25.7747 F   0  0  0  0  0  0
  -29.9325  -13.7460   20.3655 N   0  0  0  0  0  0
  -26.2873  -12.9426   20.3199 N   0  0  0  0  0  0
  -25.9328  -11.6559   20.5724 N   0  0  0  0  0  0
  -22.0447  -12.8208   22.0411 N   0  0  0  0  0  0
  -25.4121  -15.1933   20.3995 N   0  0  0  0  0  0
  -31.7068  -15.0930   20.1324 O   0  0  0  0  0  0
  -21.6650   -6.8872   21.4243 O   0  0  0  0  0  0
  -22.3485  -14.5487   20.6629 O   0  0  0  0  0  0
  -24.6510  -31.8394   23.1880 C   0  0  0  0  0  0
  -25.9245  -32.4673   23.8308 C   0  0  1  0  0  0
  -27.2054  -27.0644   20.1551 C   0  0  0  0  0  0
  -25.5987  -33.8490   24.2222 N   0  0  0  0  0  0
  -23.4569  -30.4594   21.5347 C   0  0  2  0  0  0
  -24.9056  -28.8791   20.1085 C   0  0  0  0  0  0
  -22.7600  -29.4532   22.4858 C   0  0  0  0  0  0
  -18.0297  -28.1411   22.8457 C   0  0  0  0  0  0
  -24.1490  -36.7236   23.2636 C   0  0  0  0  0  0
  -26.0201  -30.6845   21.4019 C   0  0  0  0  0  0
  -26.0861  -29.2910   20.7401 C   0  0  0  0  0  0
  -27.2343  -28.4008   20.7484 C   0  0  0  0  0  0
  -25.9972  -26.7788   19.4763 C   0  0  0  0  0  0
  -24.8785  -27.6384   19.4593 C   0  0  0  0  0  0
  -23.6880  -29.7926   20.1526 C   0  0  0  0  0  0
  -25.4117  -36.3021   24.0329 C   0  0  1  0  0  0
  -20.5913  -28.3745   23.1214 C   0  0  2  0  0  0
  -20.6790  -26.9444   22.5391 C   0  0  0  0  0  0
  -19.5767  -26.6391   21.5198 C   0  0  0  0  0  0
  -18.1943  -26.7946   22.1609 C   0  0  0  0  0  0
  -19.1550  -28.8898   23.2829 C   0  0  0  0  0  0
  -18.9469  -30.1491   23.8863 C   0  0  0  0  0  0
  -17.6461  -30.6598   24.0556 C   0  0  0  0  0  0
  -25.9086  -34.9396   23.5086 C   0  0  0  0  0  0
  -16.5355  -29.9088   23.6337 C   0  0  0  0  0  0
  -16.7278  -28.6512   23.0348 C   0  0  0  0  0  0
  -26.4543  -31.6555   25.0771 C   0  0  0  0  0  0
  -25.3735  -31.3715   26.1472 C   0  0  0  0  0  0
  -27.0400  -30.2936   24.6401 C   0  0  0  0  0  0
  -27.6086  -32.4333   25.7538 C   0  0  0  0  0  0
  -27.5581  -37.1761   24.8455 C   0  0  0  0  0  0
  -21.4285  -29.3066   22.3593 N   0  0  0  0  0  0
  -26.4271  -37.3741   23.9428 N   0  0  0  0  0  0
  -24.7296  -31.0177   22.0958 N   0  0  0  0  0  0
  -23.4211  -28.8060   23.3023 O   0  0  0  0  0  0
  -28.2176  -26.0147   20.2325 O   0  0  0  0  0  0
  -26.5648  -34.8898   22.4653 O   0  0  0  0  0  0
  -23.5607  -32.1324   23.7034 O   0  0  0  0  0  0
  -30.1335  -22.8513   20.4090 C   0  0  0  0  0  0
  -30.3779  -21.4762   20.4324 C   0  0  0  0  0  0
  -28.7287  -23.0768   20.2352 C   0  0  0  0  0  0
  -29.4982  -18.5817   21.6428 C   0  0  0  0  0  0
  -28.9518  -19.1346   20.3530 C   0  0  2  0  0  0
  -29.9850  -17.7740   20.4554 C   0  0  2  0  0  0
  -27.8336  -24.4891   20.0291 C   0  0  0  0  0  0
  -28.2169  -21.7626   20.1916 N   0  0  0  0  0  0
  -29.2073  -20.7295   20.3238 N   0  0  0  0  0  0
  -29.7030  -16.2152   20.5520 N   0  0  0  0  0  0
  -31.4707  -12.8166   19.1821 H   0  0  0  0  0  0
  -30.4636  -11.6933   20.0472 H   0  0  0  0  0  0
  -29.8617  -11.7493   17.5932 H   0  0  0  0  0  0
  -29.5921  -13.4708   17.6881 H   0  0  0  0  0  0
  -27.9786  -11.2661   19.0058 H   0  0  0  0  0  0
  -27.3976  -12.4059   17.8220 H   0  0  0  0  0  0
  -27.5776  -14.2401   19.3841 H   0  0  0  0  0  0
  -28.7797  -12.3315   21.4484 H   0  0  0  0  0  0
  -28.3528  -14.0030   21.7444 H   0  0  0  0  0  0
  -25.2775   -9.5676   22.4750 H   0  0  0  0  0  0
  -23.9993   -7.4650   22.7493 H   0  0  0  0  0  0
  -21.0850   -8.8760   19.8963 H   0  0  0  0  0  0
  -22.3699  -10.9652   19.6159 H   0  0  0  0  0  0
  -21.2010   -7.6139   23.9709 H   0  0  0  0  0  0
  -21.1479   -6.0516   25.9068 H   0  0  0  0  0  0
  -22.0598   -2.7608   23.2855 H   0  0  0  0  0  0
  -22.4029  -11.9887   22.4847 H   0  0  0  0  0  0
  -21.1065  -13.1265   22.2576 H   0  0  0  0  0  0
  -24.6357  -15.8419   20.4837 H   0  0  0  0  0  0
  -26.2422  -15.6247   20.0141 H   0  0  0  0  0  0
  -26.7309  -32.5257   23.1031 H   0  0  0  0  0  0
  -25.0146  -33.9620   25.0374 H   0  0  0  0  0  0
  -22.7651  -31.2901   21.3789 H   0  0  0  0  0  0
  -23.3792  -35.9526   23.3251 H   0  0  0  0  0  0
  -24.3581  -36.8914   22.2061 H   0  0  0  0  0  0
  -23.7205  -37.6400   23.6705 H   0  0  0  0  0  0
  -26.1907  -31.4343   20.6283 H   0  0  0  0  0  0
  -26.8858  -30.7317   22.0503 H   0  0  0  0  0  0
  -28.1255  -28.7055   21.2773 H   0  0  0  0  0  0
  -25.8670  -25.8390   18.9647 H   0  0  0  0  0  0
  -23.9823  -27.3181   18.9445 H   0  0  0  0  0  0
  -23.8404  -30.5735   19.4075 H   0  0  0  0  0  0
  -22.8002  -29.2477   19.8269 H   0  0  0  0  0  0
  -25.1295  -36.1833   25.0817 H   0  0  0  0  0  0
  -20.9994  -28.3334   24.1340 H   0  0  0  0  0  0
  -20.5673  -26.2363   23.3612 H   0  0  0  0  0  0
  -21.6658  -26.7449   22.1191 H   0  0  0  0  0  0
  -19.6934  -25.6288   21.1258 H   0  0  0  0  0  0
  -19.6712  -27.3181   20.6713 H   0  0  0  0  0  0
  -17.4212  -26.6673   21.4017 H   0  0  0  0  0  0
  -18.0360  -26.0092   22.9014 H   0  0  0  0  0  0
  -19.7939  -30.7311   24.2236 H   0  0  0  0  0  0
  -17.5007  -31.6268   24.5169 H   0  0  0  0  0  0
  -15.5353  -30.2979   23.7691 H   0  0  0  0  0  0
  -15.8674  -28.0821   22.7100 H   0  0  0  0  0  0
  -24.5945  -30.7023   25.7791 H   0  0  0  0  0  0
  -24.8889  -32.2864   26.4892 H   0  0  0  0  0  0
  -25.8050  -30.8903   27.0258 H   0  0  0  0  0  0
  -26.3011  -29.6665   24.1396 H   0  0  0  0  0  0
  -27.3937  -29.7243   25.5008 H   0  0  0  0  0  0
  -27.8978  -30.4146   23.9785 H   0  0  0  0  0  0
  -27.2701  -33.3670   26.2042 H   0  0  0  0  0  0
  -28.3923  -32.6828   25.0373 H   0  0  0  0  0  0
  -28.0725  -31.8503   26.5501 H   0  0  0  0  0  0
  -28.2538  -38.0115   24.7579 H   0  0  0  0  0  0
  -28.1147  -36.2657   24.6185 H   0  0  0  0  0  0
  -27.2323  -37.1277   25.8858 H   0  0  0  0  0  0
  -20.9515  -29.8788   21.6761 H   0  0  0  0  0  0
  -26.0141  -38.2800   24.1473 H   0  0  0  0  0  0
  -30.8937  -23.6146   20.4905 H   0  0  0  0  0  0
  -31.3203  -20.9547   20.5313 H   0  0  0  0  0  0
  -28.7600  -18.1418   22.3107 H   0  0  0  0  0  0
  -30.2629  -19.1576   22.1624 H   0  0  0  0  0  0
  -27.9062  -18.9380   20.1172 H   0  0  0  0  0  0
  -30.9809  -18.0006   20.0786 H   0  0  0  0  0  0
  -26.9239  -24.3557   20.6139 H   0  0  0  0  0  0
  -27.4949  -24.4391   18.9951 H   0  0  0  0  0  0
  -28.7374  -15.9988   20.7506 H   0  0  0  0  0  0
  1 25  1  0  0  0
  1 30  2  0  0  0
  1 80  1  0  0  0
  2  3  1  0  0  0
  2 25  1  0  0  0
  2 81  1  0  0  0
  2 82  1  0  0  0
  3  4  1  0  0  0
  3 83  1  0  0  0
  3 84  1  0  0  0
  4  5  1  0  0  0
  4 85  1  0  0  0
  4 86  1  0  0  0
  5  6  1  0  0  0
  5 26  1  0  0  0
  5 87  1  0  0  0
  6 25  1  0  0  0
  6 88  1  0  0  0
  6 89  1  0  0  0
  7  8  2  0  0  0
  7 26  1  0  0  0
  7 29  1  0  0  0
  8  9  1  0  0  0
  8 22  1  0  0  0
  9 10  1  0  0  0
  9 27  2  0  0  0
 10 11  2  0  0  0
 10 15  1  0  0  0
 11 12  1  0  0  0
 11 90  1  0  0  0
 12 13  2  0  0  0
 12 91  1  0  0  0
 13 14  1  0  0  0
 13 31  1  0  0  0
 14 15  2  0  0  0
 14 92  1  0  0  0
 15 93  1  0  0  0
 16 17  2  0  0  0
 16 21  1  0  0  0
 16 31  1  0  0  0
 17 18  1  0  0  0
 17 94  1  0  0  0
 18 19  2  0  0  0
 18 95  1  0  0  0
 19 20  1  0  0  0
 19 24  1  0  0  0
 20 21  2  0  0  0
 20 96  1  0  0  0
 21 23  1  0  0  0
 22 28  1  0  0  0
 22 32  2  0  0  0
 26 27  1  0  0  0
 28 97  1  0  0  0
 28 98  1  0  0  0
 29 99  1  0  0  0
 29100  1  0  0  0
 33 34  1  0  0  0
 33 66  1  0  0  0
 33 70  2  0  0  0
 34 36  1  0  0  0
 34 59  1  0  0  0
 34101  1  0  0  0
 35 44  2  0  0  0
 35 45  1  0  0  0
 35 68  1  0  0  0
 36 56  1  0  0  0
 36102  1  0  0  0
 37 39  1  0  0  0
 37 47  1  0  0  0
 37 66  1  0  0  0
 37103  1  0  0  0
 38 43  2  0  0  0
 38 46  1  0  0  0
 38 47  1  0  0  0
 39 64  1  0  0  0
 39 67  2  0  0  0
 40 52  1  0  0  0
 40 53  2  0  0  0
 40 58  1  0  0  0
 41104  1  0  0  0
 41105  1  0  0  0
 41106  1  0  0  0
 41 48  1  0  0  0
 42 43  1  0  0  0
 42 66  1  0  0  0
 42107  1  0  0  0
 42108  1  0  0  0
 43 44  1  0  0  0
 44109  1  0  0  0
 45 46  2  0  0  0
 45110  1  0  0  0
 46111  1  0  0  0
 47112  1  0  0  0
 47113  1  0  0  0
 48 56  1  0  0  0
 48 65  1  0  0  0
 48114  1  0  0  0
 49 50  1  0  0  0
 49 53  1  0  0  0
 49 64  1  0  0  0
 49115  1  0  0  0
 50 51  1  0  0  0
 50116  1  0  0  0
 50117  1  0  0  0
 51 52  1  0  0  0
 51118  1  0  0  0
 51119  1  0  0  0
 52120  1  0  0  0
 52121  1  0  0  0
 53 54  1  0  0  0
 54 55  2  0  0  0
 54122  1  0  0  0
 55 57  1  0  0  0
 55123  1  0  0  0
 56 69  2  0  0  0
 57 58  2  0  0  0
 57124  1  0  0  0
 58125  1  0  0  0
 59 60  1  0  0  0
 59 61  1  0  0  0
 59 62  1  0  0  0
 60126  1  0  0  0
 60127  1  0  0  0
 60128  1  0  0  0
 61129  1  0  0  0
 61130  1  0  0  0
 61131  1  0  0  0
 62132  1  0  0  0
 62133  1  0  0  0
 62134  1  0  0  0
 63 65  1  0  0  0
 63135  1  0  0  0
 63136  1  0  0  0
 63137  1  0  0  0
 64138  1  0  0  0
 65139  1  0  0  0
 68 77  1  0  0  0
 71 72  2  0  0  0
 71 73  1  0  0  0
 71140  1  0  0  0
 72 79  1  0  0  0
 72141  1  0  0  0
 73 77  1  0  0  0
 73 78  2  0  0  0
 74 75  1  0  0  0
 74 76  1  0  0  0
 74142  1  0  0  0
 74143  1  0  0  0
 75 76  1  0  0  0
 75 79  1  0  0  0
 75144  1  0  0  0
 76 80  1  0  0  0
 76145  1  0  0  0
 77146  1  0  0  0
 77147  1  0  0  0
 78 79  1  0  0  0
 80148  1  0  0  0
M  ISO  4   1 100  68 101  77 101  80 100
M  END
> <chiral flag>
0

> <version>
0

> <s_m_source_file>
/data/baiqing/PycharmProjects/Reinvent-master-3.2/result/LINK_invent/BTK/process_docking_weight1_custom_sum_contain_oxygen_bond_distance_aromatic_linkinvent_7_9_3/rearranged_h_0184.sdf

> <i_m_source_file_index>
66

> <r_mmod_Potential_Energy-OPLS-2005>
727.04638671875

> <r_mmod_Stretch_Energy-OPLS-2005>
334.985076904297

> <r_mmod_Bend_Energy-OPLS-2005>
304.969665527344

> <r_mmod_Torsional_Energy-OPLS-2005>
282.71435546875

> <r_mmod_Improper_Torsional_Energy-OPLS-2005>
4.2627420425415

> <r_mmod_Van_der_Waal_Energy-OPLS-2005>
112.028060913086

> <r_mmod_Electrostatic_Energy-OPLS-2005>
-341.108367919922

> <r_mmod_Solvation_Energy-OPLS-2005>
-231.773513793945

> <b_mmod_Minimization_Converged-OPLS-2005>
0

> <r_mmod_RMS_Derivative-OPLS-2005>
2.84604072570801

$$$$
66
                    3D
 Structure written by MMmdl.
168179  0  0  1  0            999 V2000
  -30.6508  -14.6639   20.4808 C   0  0  0  0  0  0
  -30.4187  -12.4135   19.4490 C   0  0  0  0  0  0
  -29.4963  -12.5180   18.2162 C   0  0  0  0  0  0
  -28.0200  -12.3557   18.6258 C   0  0  0  0  0  0
  -27.6414  -13.2305   19.8513 C   0  0  2  0  0  0
  -28.6868  -13.1225   20.9806 C   0  0  0  0  0  0
  -25.2511  -13.8193   20.5711 C   0  0  0  0  0  0
  -24.1789  -13.0450   20.9215 C   0  0  0  0  0  0
  -24.6366  -11.6928   20.8730 C   0  0  0  0  0  0
  -23.9050  -10.4297   21.0417 C   0  0  0  0  0  0
  -24.3615   -9.4203   21.9193 C   0  0  0  0  0  0
  -23.6293   -8.2236   22.0765 C   0  0  0  0  0  0
  -22.4268   -8.0272   21.3551 C   0  0  0  0  0  0
  -21.9893   -9.0244   20.4656 C   0  0  0  0  0  0
  -22.7219  -10.2131   20.3065 C   0  0  0  0  0  0
  -21.6855   -6.0716   22.5270 C   0  0  0  0  0  0
  -21.4020   -6.5629   23.8199 C   0  0  0  0  0  0
  -21.3672   -5.6785   24.9162 C   0  0  0  0  0  0
  -21.6058   -4.3049   24.7223 C   0  0  0  0  0  0
  -21.8825   -3.8131   23.4344 C   0  0  0  0  0  0
  -21.9204   -4.6942   22.3396 C   0  0  0  0  0  0
  -22.7819  -13.5255   21.1863 C   0  0  0  0  0  0
  -22.1678   -4.2128   21.0981 F   0  0  0  0  0  0
  -21.5635   -3.4550   25.7748 F   0  0  0  0  0  0
  -29.9914  -13.4617   20.3999 N   0  0  0  0  0  0
  -26.2924  -12.9399   20.3284 N   0  0  0  0  0  0
  -25.9293  -11.6538   20.5719 N   0  0  0  0  0  0
  -22.0458  -12.8254   22.0404 N   0  0  0  0  0  0
  -25.4237  -15.1914   20.4127 N   0  0  0  0  0  0
  -31.8441  -14.7275   20.1670 O   0  0  0  0  0  0
  -21.6638   -6.8861   21.4233 O   0  0  0  0  0  0
  -22.3528  -14.5570   20.6706 O   0  0  0  0  0  0
  -24.6271  -31.8604   23.2029 C   0  0  0  0  0  0
  -25.9128  -32.4777   23.8351 C   0  0  1  0  0  0
  -27.2161  -27.3110   20.1016 C   0  0  0  0  0  0
  -25.5936  -33.8572   24.2272 N   0  0  0  0  0  0
  -23.4188  -30.4863   21.5494 C   0  0  2  0  0  0
  -24.8596  -28.9390   20.1162 C   0  0  0  0  0  0
  -22.7471  -29.4621   22.4967 C   0  0  0  0  0  0
  -18.0298  -28.1345   22.8498 C   0  0  0  0  0  0
  -24.1500  -36.7292   23.2641 C   0  0  0  0  0  0
  -25.9633  -30.7866   21.3767 C   0  0  0  0  0  0
  -26.0327  -29.4144   20.7150 C   0  0  0  0  0  0
  -27.2133  -28.6126   20.6972 C   0  0  0  0  0  0
  -26.0089  -26.8807   19.5066 C   0  0  0  0  0  0
  -24.8490  -27.6759   19.5083 C   0  0  0  0  0  0
  -23.6318  -29.8242   20.1644 C   0  0  0  0  0  0
  -25.4124  -36.3082   24.0335 C   0  0  1  0  0  0
  -20.5898  -28.3658   23.1304 C   0  0  2  0  0  0
  -20.6781  -26.9366   22.5472 C   0  0  0  0  0  0
  -19.5778  -26.6319   21.5256 C   0  0  0  0  0  0
  -18.1952  -26.7872   22.1671 C   0  0  0  0  0  0
  -19.1545  -28.8824   23.2890 C   0  0  0  0  0  0
  -18.9458  -30.1427   23.8902 C   0  0  0  0  0  0
  -17.6467  -30.6569   24.0547 C   0  0  0  0  0  0
  -25.9064  -34.9453   23.5112 C   0  0  0  0  0  0
  -16.5359  -29.9056   23.6314 C   0  0  0  0  0  0
  -16.7280  -28.6471   23.0346 C   0  0  0  0  0  0
  -26.4498  -31.6578   25.0719 C   0  0  0  0  0  0
  -25.3714  -31.3717   26.1433 C   0  0  0  0  0  0
  -27.0346  -30.2996   24.6202 C   0  0  0  0  0  0
  -27.6085  -32.4284   25.7460 C   0  0  0  0  0  0
  -27.5594  -37.1805   24.8465 C   0  0  0  0  0  0
  -21.4199  -29.2998   22.3682 N   0  0  0  0  0  0
  -26.4306  -37.3771   23.9400 N   0  0  0  0  0  0
  -24.6891  -31.0608   22.0991 N   0  0  0  0  0  0
  -23.4200  -28.8181   23.3064 O   0  0  0  0  0  0
  -28.3511  -26.4812   20.1234 O   0  0  0  0  0  0
  -26.5632  -34.8927   22.4679 O   0  0  0  0  0  0
  -23.5432  -32.1406   23.7352 O   0  0  0  0  0  0
  -26.9340  -19.9480   20.5100 C   0  0  0  0  0  0
  -26.2090  -21.1356   20.3598 C   0  0  0  0  0  0
  -28.3320  -20.0218   20.5412 C   0  0  0  0  0  0
  -28.1441  -22.3715   20.3253 C   0  0  0  0  0  0
  -22.6632  -22.0247   21.7990 C   0  0  0  0  0  0
  -23.2253  -20.8518   22.5606 C   0  0  0  0  0  0
  -29.6505  -24.4676   19.5438 C   0  0  0  0  0  0
  -30.0081  -18.3741   19.6562 C   0  0  0  0  0  0
  -28.4930  -17.6855   21.4607 C   0  0  0  0  0  0
  -30.0505  -16.8151   19.3519 C   0  0  0  0  0  0
  -29.4975  -16.5171   21.7184 C   0  0  0  0  0  0
  -28.6879  -23.8236   20.5139 C   0  0  1  0  0  0
  -24.1342  -21.6845   21.6800 C   0  0  0  0  0  0
  -28.2708  -25.0744   19.6443 C   0  0  1  0  0  0
  -24.6899  -21.1491   20.3667 C   0  0  0  0  0  0
  -26.8198  -22.3267   20.2584 N   0  0  0  0  0  0
  -28.9290  -21.2594   20.4521 N   0  0  0  0  0  0
  -29.0966  -18.8126   20.7245 N   0  0  0  0  0  0
  -29.8989  -15.8281   20.4745 N   0  0  0  0  0  0
  -31.4612  -12.5200   19.1434 H   0  0  0  0  0  0
  -30.3412  -11.4272   19.9078 H   0  0  0  0  0  0
  -29.7625  -11.7662   17.4736 H   0  0  0  0  0  0
  -29.6371  -13.4870   17.7342 H   0  0  0  0  0  0
  -27.8551  -11.3030   18.8534 H   0  0  0  0  0  0
  -27.3667  -12.5878   17.7822 H   0  0  0  0  0  0
  -27.6501  -14.2618   19.4977 H   0  0  0  0  0  0
  -28.7049  -12.1133   21.3958 H   0  0  0  0  0  0
  -28.4296  -13.7879   21.8015 H   0  0  0  0  0  0
  -25.2750   -9.5714   22.4780 H   0  0  0  0  0  0
  -24.0018   -7.4647   22.7496 H   0  0  0  0  0  0
  -21.0821   -8.8764   19.8970 H   0  0  0  0  0  0
  -22.3660  -10.9683   19.6194 H   0  0  0  0  0  0
  -21.2002   -7.6139   23.9708 H   0  0  0  0  0  0
  -21.1501   -6.0506   25.9072 H   0  0  0  0  0  0
  -22.0590   -2.7596   23.2851 H   0  0  0  0  0  0
  -22.4053  -11.9919   22.4809 H   0  0  0  0  0  0
  -21.1093  -13.1328   22.2629 H   0  0  0  0  0  0
  -24.6520  -15.8411   20.5033 H   0  0  0  0  0  0
  -26.2701  -15.6180   20.0611 H   0  0  0  0  0  0
  -26.7200  -32.5438   23.1097 H   0  0  0  0  0  0
  -25.0083  -33.9686   25.0422 H   0  0  0  0  0  0
  -22.7136  -31.3076   21.4100 H   0  0  0  0  0  0
  -23.3771  -35.9623   23.3314 H   0  0  0  0  0  0
  -24.3583  -36.8876   22.2049 H   0  0  0  0  0  0
  -23.7255  -37.6498   23.6652 H   0  0  0  0  0  0
  -26.0996  -31.5550   20.6137 H   0  0  0  0  0  0
  -26.8413  -30.8256   22.0114 H   0  0  0  0  0  0
  -28.1162  -28.9770   21.1680 H   0  0  0  0  0  0
  -25.9103  -25.9126   19.0443 H   0  0  0  0  0  0
  -23.9444  -27.2988   19.0519 H   0  0  0  0  0  0
  -23.7542  -30.6024   19.4102 H   0  0  0  0  0  0
  -22.7493  -29.2582   19.8607 H   0  0  0  0  0  0
  -25.1309  -36.1947   25.0831 H   0  0  0  0  0  0
  -20.9980  -28.3265   24.1425 H   0  0  0  0  0  0
  -20.5637  -26.2265   23.3683 H   0  0  0  0  0  0
  -21.6656  -26.7354   22.1300 H   0  0  0  0  0  0
  -19.6966  -25.6219   21.1316 H   0  0  0  0  0  0
  -19.6717  -27.3110   20.6780 H   0  0  0  0  0  0
  -17.4199  -26.6553   21.4108 H   0  0  0  0  0  0
  -18.0382  -26.0035   22.9104 H   0  0  0  0  0  0
  -19.7936  -30.7229   24.2291 H   0  0  0  0  0  0
  -17.5019  -31.6242   24.5148 H   0  0  0  0  0  0
  -15.5355  -30.2952   23.7623 H   0  0  0  0  0  0
  -15.8689  -28.0773   22.7062 H   0  0  0  0  0  0
  -24.5912  -30.7041   25.7760 H   0  0  0  0  0  0
  -24.8876  -32.2870   26.4845 H   0  0  0  0  0  0
  -25.8009  -30.8901   27.0225 H   0  0  0  0  0  0
  -26.2931  -29.6715   24.1251 H   0  0  0  0  0  0
  -27.4053  -29.7273   25.4717 H   0  0  0  0  0  0
  -27.8796  -30.4262   23.9431 H   0  0  0  0  0  0
  -27.2750  -33.3592   26.2058 H   0  0  0  0  0  0
  -28.3874  -32.6805   25.0254 H   0  0  0  0  0  0
  -28.0801  -31.8390   26.5329 H   0  0  0  0  0  0
  -28.2632  -38.0085   24.7499 H   0  0  0  0  0  0
  -28.1060  -36.2612   24.6312 H   0  0  0  0  0  0
  -27.2301  -37.1486   25.8864 H   0  0  0  0  0  0
  -20.9389  -29.8662   21.6842 H   0  0  0  0  0  0
  -26.0199  -38.2857   24.1364 H   0  0  0  0  0  0
  -26.4008  -19.0126   20.6019 H   0  0  0  0  0  0
  -22.4067  -22.9195   22.3630 H   0  0  0  0  0  0
  -22.0259  -21.8159   20.9424 H   0  0  0  0  0  0
  -22.9522  -19.8549   22.2174 H   0  0  0  0  0  0
  -23.3316  -20.9603   23.6381 H   0  0  0  0  0  0
  -29.8805  -23.9175   18.6334 H   0  0  0  0  0  0
  -30.4860  -25.0158   19.9727 H   0  0  0  0  0  0
  -29.7685  -18.9077   18.7338 H   0  0  0  0  0  0
  -31.0050  -18.7120   19.9367 H   0  0  0  0  0  0
  -28.1039  -18.0516   22.4123 H   0  0  0  0  0  0
  -27.6402  -17.2935   20.9067 H   0  0  0  0  0  0
  -30.9558  -16.6168   18.7746 H   0  0  0  0  0  0
  -29.2371  -16.5927   18.6615 H   0  0  0  0  0  0
  -29.0434  -15.8021   22.4025 H   0  0  0  0  0  0
  -30.3856  -16.8933   22.2290 H   0  0  0  0  0  0
  -28.8471  -24.0089   21.5731 H   0  0  0  0  0  0
  -24.7886  -22.4008   22.1739 H   0  0  0  0  0  0
  -27.7075  -24.9410   18.7241 H   0  0  0  0  0  0
  -24.3005  -20.1484   20.1809 H   0  0  0  0  0  0
  -24.3359  -21.7760   19.5469 H   0  0  0  0  0  0
  1 25  1  0  0  0
  1 30  2  0  0  0
  1 89  1  0  0  0
  2  3  1  0  0  0
  2 25  1  0  0  0
  2 90  1  0  0  0
  2 91  1  0  0  0
  3  4  1  0  0  0
  3 92  1  0  0  0
  3 93  1  0  0  0
  4  5  1  0  0  0
  4 94  1  0  0  0
  4 95  1  0  0  0
  5  6  1  0  0  0
  5 26  1  0  0  0
  5 96  1  0  0  0
  6 25  1  0  0  0
  6 97  1  0  0  0
  6 98  1  0  0  0
  7  8  2  0  0  0
  7 26  1  0  0  0
  7 29  1  0  0  0
  8  9  1  0  0  0
  8 22  1  0  0  0
  9 10  1  0  0  0
  9 27  2  0  0  0
 10 11  2  0  0  0
 10 15  1  0  0  0
 11 12  1  0  0  0
 11 99  1  0  0  0
 12 13  2  0  0  0
 12100  1  0  0  0
 13 14  1  0  0  0
 13 31  1  0  0  0
 14 15  2  0  0  0
 14101  1  0  0  0
 15102  1  0  0  0
 16 17  2  0  0  0
 16 21  1  0  0  0
 16 31  1  0  0  0
 17 18  1  0  0  0
 17103  1  0  0  0
 18 19  2  0  0  0
 18104  1  0  0  0
 19 20  1  0  0  0
 19 24  1  0  0  0
 20 21  2  0  0  0
 20105  1  0  0  0
 21 23  1  0  0  0
 22 28  1  0  0  0
 22 32  2  0  0  0
 26 27  1  0  0  0
 28106  1  0  0  0
 28107  1  0  0  0
 29108  1  0  0  0
 29109  1  0  0  0
 33 34  1  0  0  0
 33 66  1  0  0  0
 33 70  2  0  0  0
 34 36  1  0  0  0
 34 59  1  0  0  0
 34110  1  0  0  0
 35 44  2  0  0  0
 35 45  1  0  0  0
 35 68  1  0  0  0
 36 56  1  0  0  0
 36111  1  0  0  0
 37 39  1  0  0  0
 37 47  1  0  0  0
 37 66  1  0  0  0
 37112  1  0  0  0
 38 43  2  0  0  0
 38 46  1  0  0  0
 38 47  1  0  0  0
 39 64  1  0  0  0
 39 67  2  0  0  0
 40 52  1  0  0  0
 40 53  2  0  0  0
 40 58  1  0  0  0
 41113  1  0  0  0
 41114  1  0  0  0
 41115  1  0  0  0
 41 48  1  0  0  0
 42 43  1  0  0  0
 42 66  1  0  0  0
 42116  1  0  0  0
 42117  1  0  0  0
 43 44  1  0  0  0
 44118  1  0  0  0
 45 46  2  0  0  0
 45119  1  0  0  0
 46120  1  0  0  0
 47121  1  0  0  0
 47122  1  0  0  0
 48 56  1  0  0  0
 48 65  1  0  0  0
 48123  1  0  0  0
 49 50  1  0  0  0
 49 53  1  0  0  0
 49 64  1  0  0  0
 49124  1  0  0  0
 50 51  1  0  0  0
 50125  1  0  0  0
 50126  1  0  0  0
 51 52  1  0  0  0
 51127  1  0  0  0
 51128  1  0  0  0
 52129  1  0  0  0
 52130  1  0  0  0
 53 54  1  0  0  0
 54 55  2  0  0  0
 54131  1  0  0  0
 55 57  1  0  0  0
 55132  1  0  0  0
 56 69  2  0  0  0
 57 58  2  0  0  0
 57133  1  0  0  0
 58134  1  0  0  0
 59 60  1  0  0  0
 59 61  1  0  0  0
 59 62  1  0  0  0
 60135  1  0  0  0
 60136  1  0  0  0
 60137  1  0  0  0
 61138  1  0  0  0
 61139  1  0  0  0
 61140  1  0  0  0
 62141  1  0  0  0
 62142  1  0  0  0
 62143  1  0  0  0
 63 65  1  0  0  0
 63144  1  0  0  0
 63145  1  0  0  0
 63146  1  0  0  0
 64147  1  0  0  0
 65148  1  0  0  0
 68 84  1  0  0  0
 71 72  2  0  0  0
 71 73  1  0  0  0
 71149  1  0  0  0
 72 85  1  0  0  0
 72 86  1  0  0  0
 73 87  2  0  0  0
 73 88  1  0  0  0
 74 86  2  0  0  0
 74 87  1  0  0  0
 74 82  1  0  0  0
 75 76  1  0  0  0
 75 83  1  0  0  0
 75150  1  0  0  0
 75151  1  0  0  0
 76 83  1  0  0  0
 76152  1  0  0  0
 76153  1  0  0  0
 77 82  1  0  0  0
 77 84  1  0  0  0
 77154  1  0  0  0
 77155  1  0  0  0
 78 80  1  0  0  0
 78 88  1  0  0  0
 78156  1  0  0  0
 78157  1  0  0  0
 79 81  1  0  0  0
 79 88  1  0  0  0
 79158  1  0  0  0
 79159  1  0  0  0
 80 89  1  0  0  0
 80160  1  0  0  0
 80161  1  0  0  0
 81 89  1  0  0  0
 81162  1  0  0  0
 81163  1  0  0  0
 82 84  1  0  0  0
 82164  1  0  0  0
 83 85  1  0  0  0
 83165  1  0  0  0
 84166  1  0  0  0
 85167  1  0  0  0
 85168  1  0  0  0
M  ISO  4   1 100  68 101  84 101  89 100
M  END
> <chiral flag>
0

> <version>
0

> <s_m_source_file>
/data/baiqing/PycharmProjects/Reinvent-master-3.2/result/LINK_invent/BTK/process_docking_weight1_custom_sum_contain_oxygen_bond_distance_aromatic_linkinvent_7_9_3/rearranged_h_0184.sdf

> <i_m_source_file_index>
67

> <r_mmod_Potential_Energy-OPLS-2005>
-146.094100952148

> <r_mmod_Stretch_Energy-OPLS-2005>
87.9128646850586

> <r_mmod_Bend_Energy-OPLS-2005>
161.202484130859

> <r_mmod_Torsional_Energy-OPLS-2005>
397.557922363281

> <r_mmod_Improper_Torsional_Energy-OPLS-2005>
19.499324798584

> <r_mmod_Van_der_Waal_Energy-OPLS-2005>
152.85823059082

> <r_mmod_Electrostatic_Energy-OPLS-2005>
-779.191528320312

> <r_mmod_Solvation_Energy-OPLS-2005>
-239.988967895508

> <b_mmod_Minimization_Converged-OPLS-2005>
0

> <r_mmod_RMS_Derivative-OPLS-2005>
2.71431446075439

$$$$
67
                    3D
 Structure written by MMmdl.
160169  0  0  1  0            999 V2000
  -30.7231  -14.4960   20.5329 C   0  0  0  0  0  0
  -30.4163  -12.3204   19.4245 C   0  0  0  0  0  0
  -29.5036  -12.5273   18.2013 C   0  0  0  0  0  0
  -28.0236  -12.3896   18.6097 C   0  0  0  0  0  0
  -27.6621  -13.2262   19.8715 C   0  0  2  0  0  0
  -28.7081  -13.0451   20.9949 C   0  0  0  0  0  0
  -25.2599  -13.8211   20.5730 C   0  0  0  0  0  0
  -24.1875  -13.0450   20.9194 C   0  0  0  0  0  0
  -24.6454  -11.6934   20.8727 C   0  0  0  0  0  0
  -23.9130  -10.4306   21.0405 C   0  0  0  0  0  0
  -24.3662   -9.4207   21.9188 C   0  0  0  0  0  0
  -23.6305   -8.2260   22.0767 C   0  0  0  0  0  0
  -22.4289   -8.0311   21.3549 C   0  0  0  0  0  0
  -21.9941   -9.0292   20.4656 C   0  0  0  0  0  0
  -22.7294  -10.2151   20.3060 C   0  0  0  0  0  0
  -21.6871   -6.0753   22.5271 C   0  0  0  0  0  0
  -21.4033   -6.5662   23.8198 C   0  0  0  0  0  0
  -21.3646   -5.6801   24.9166 C   0  0  0  0  0  0
  -21.6026   -4.3064   24.7212 C   0  0  0  0  0  0
  -21.8818   -3.8162   23.4343 C   0  0  0  0  0  0
  -21.9195   -4.6984   22.3395 C   0  0  0  0  0  0
  -22.7876  -13.5247   21.1769 C   0  0  0  0  0  0
  -22.1651   -4.2184   21.0964 F   0  0  0  0  0  0
  -21.5620   -3.4532   25.7715 F   0  0  0  0  0  0
  -30.0350  -13.3266   20.4281 N   0  0  0  0  0  0
  -26.3056  -12.9408   20.3361 N   0  0  0  0  0  0
  -25.9397  -11.6549   20.5761 N   0  0  0  0  0  0
  -22.0444  -12.8305   22.0318 N   0  0  0  0  0  0
  -25.4235  -15.1948   20.4192 N   0  0  0  0  0  0
  -31.8680  -14.6327   20.1001 O   0  0  0  0  0  0
  -21.6647   -6.8918   21.4241 O   0  0  0  0  0  0
  -22.3592  -14.5514   20.6543 O   0  0  0  0  0  0
  -24.6186  -31.8668   23.2055 C   0  0  0  0  0  0
  -25.9078  -32.4817   23.8343 C   0  0  1  0  0  0
  -27.2224  -27.4037   20.1034 C   0  0  0  0  0  0
  -25.5950  -33.8609   24.2288 N   0  0  0  0  0  0
  -23.4052  -30.4899   21.5476 C   0  0  2  0  0  0
  -24.8453  -28.9465   20.1117 C   0  0  0  0  0  0
  -22.7413  -29.4699   22.5001 C   0  0  0  0  0  0
  -18.0300  -28.1412   22.8504 C   0  0  0  0  0  0
  -24.1496  -36.7293   23.2634 C   0  0  0  0  0  0
  -25.9328  -30.8214   21.3565 C   0  0  0  0  0  0
  -26.0040  -29.4491   20.7141 C   0  0  0  0  0  0
  -27.1936  -28.6811   20.7128 C   0  0  0  0  0  0
  -26.0446  -26.9183   19.4917 C   0  0  0  0  0  0
  -24.8605  -27.6809   19.4973 C   0  0  0  0  0  0
  -23.6112  -29.8184   20.1602 C   0  0  0  0  0  0
  -25.4114  -36.3098   24.0332 C   0  0  1  0  0  0
  -20.5890  -28.3696   23.1320 C   0  0  2  0  0  0
  -20.6822  -26.9442   22.5410 C   0  0  0  0  0  0
  -19.5792  -26.6411   21.5227 C   0  0  0  0  0  0
  -18.1962  -26.7957   22.1621 C   0  0  0  0  0  0
  -19.1557  -28.8863   23.2896 C   0  0  0  0  0  0
  -18.9487  -30.1473   23.8890 C   0  0  0  0  0  0
  -17.6493  -30.6600   24.0600 C   0  0  0  0  0  0
  -25.9045  -34.9473   23.5095 C   0  0  0  0  0  0
  -16.5382  -29.9112   23.6343 C   0  0  0  0  0  0
  -16.7296  -28.6548   23.0329 C   0  0  0  0  0  0
  -26.4473  -31.6589   25.0681 C   0  0  0  0  0  0
  -25.3718  -31.3729   26.1415 C   0  0  0  0  0  0
  -27.0279  -30.3045   24.6000 C   0  0  0  0  0  0
  -27.6053  -32.4286   25.7468 C   0  0  0  0  0  0
  -27.5561  -37.1793   24.8467 C   0  0  0  0  0  0
  -21.4145  -29.3062   22.3724 N   0  0  0  0  0  0
  -26.4273  -37.3797   23.9420 N   0  0  0  0  0  0
  -24.6718  -31.0719   22.0971 N   0  0  0  0  0  0
  -23.4170  -28.8254   23.3067 O   0  0  0  0  0  0
  -28.3995  -26.6803   20.0673 O   0  0  0  0  0  0
  -26.5581  -34.8948   22.4645 O   0  0  0  0  0  0
  -23.5363  -32.1422   23.7443 O   0  0  0  0  0  0
  -28.8431  -24.5035   19.0049 C   0  0  0  0  0  0
  -28.3950  -25.2935   20.0916 C   0  0  0  0  0  0
  -28.4898  -22.6170   20.2537 C   0  0  0  0  0  0
  -28.9552  -20.1774   19.2038 C   0  0  0  0  0  0
  -29.6848  -20.3604   21.1555 C   0  0  0  0  0  0
  -28.5796  -21.0874   20.3822 C   0  0  2  0  0  0
  -29.2690  -25.1030   17.6835 C   0  0  0  0  0  0
  -31.1496  -17.4331   22.1332 C   0  0  0  0  0  0
  -29.3035  -17.9494   20.3924 C   0  0  0  0  0  0
  -30.4588  -16.9859   20.8287 C   0  0  2  0  0  0
  -28.8995  -23.1525   19.0965 N   0  0  0  0  0  0
  -28.0075  -24.6730   21.2403 N   0  0  0  0  0  0
  -28.0563  -23.3245   21.3193 N   0  0  0  0  0  0
  -30.0188  -15.5720   20.9524 N   0  0  0  0  0  0
  -29.7734  -19.3424   20.0960 N   0  3  1  0  0  0
  -31.4674  -12.3883   19.1324 H   0  0  0  0  0  0
  -30.2831  -11.3175   19.8305 H   0  0  0  0  0  0
  -29.7496  -11.8043   17.4205 H   0  0  0  0  0  0
  -29.6806  -13.5142   17.7671 H   0  0  0  0  0  0
  -27.8292  -11.3332   18.7912 H   0  0  0  0  0  0
  -27.3818  -12.6758   17.7757 H   0  0  0  0  0  0
  -27.6913  -14.2737   19.5687 H   0  0  0  0  0  0
  -28.6852  -12.0268   21.3828 H   0  0  0  0  0  0
  -28.4813  -13.6929   21.8441 H   0  0  0  0  0  0
  -25.2813   -9.5689   22.4757 H   0  0  0  0  0  0
  -24.0004   -7.4681   22.7518 H   0  0  0  0  0  0
  -21.0860   -8.8833   19.8985 H   0  0  0  0  0  0
  -22.3762  -10.9695   19.6172 H   0  0  0  0  0  0
  -21.2033   -7.6170   23.9724 H   0  0  0  0  0  0
  -21.1452   -6.0523   25.9062 H   0  0  0  0  0  0
  -22.0601   -2.7635   23.2812 H   0  0  0  0  0  0
  -22.4011  -12.0077   22.4942 H   0  0  0  0  0  0
  -21.1007  -13.1342   22.2267 H   0  0  0  0  0  0
  -24.6475  -15.8375   20.5348 H   0  0  0  0  0  0
  -26.2681  -15.6446   20.0931 H   0  0  0  0  0  0
  -26.7158  -32.5500   23.1102 H   0  0  0  0  0  0
  -25.0283  -33.9796   25.0564 H   0  0  0  0  0  0
  -22.6984  -31.3087   21.4039 H   0  0  0  0  0  0
  -23.3761  -35.9623   23.3323 H   0  0  0  0  0  0
  -24.3588  -36.8863   22.2037 H   0  0  0  0  0  0
  -23.7251  -37.6503   23.6634 H   0  0  0  0  0  0
  -26.0271  -31.5758   20.5757 H   0  0  0  0  0  0
  -26.8324  -30.8881   21.9611 H   0  0  0  0  0  0
  -28.0915  -29.0651   21.1749 H   0  0  0  0  0  0
  -26.0330  -25.9528   19.0072 H   0  0  0  0  0  0
  -23.9719  -27.2885   19.0241 H   0  0  0  0  0  0
  -23.7244  -30.5894   19.3987 H   0  0  0  0  0  0
  -22.7337  -29.2396   19.8661 H   0  0  0  0  0  0
  -25.1315  -36.1924   25.0822 H   0  0  0  0  0  0
  -20.9971  -28.3252   24.1439 H   0  0  0  0  0  0
  -20.5794  -26.2305   23.3592 H   0  0  0  0  0  0
  -21.6692  -26.7568   22.1160 H   0  0  0  0  0  0
  -19.6987  -25.6327   21.1243 H   0  0  0  0  0  0
  -19.6718  -27.3244   20.6775 H   0  0  0  0  0  0
  -17.4252  -26.6719   21.3996 H   0  0  0  0  0  0
  -18.0329  -26.0094   22.9004 H   0  0  0  0  0  0
  -19.7970  -30.7304   24.2203 H   0  0  0  0  0  0
  -17.5073  -31.6269   24.5224 H   0  0  0  0  0  0
  -15.5390  -30.3043   23.7665 H   0  0  0  0  0  0
  -15.8696  -28.0901   22.6998 H   0  0  0  0  0  0
  -24.5923  -30.7040   25.7756 H   0  0  0  0  0  0
  -24.8880  -32.2901   26.4787 H   0  0  0  0  0  0
  -25.8047  -30.8954   27.0206 H   0  0  0  0  0  0
  -26.2810  -29.6875   24.0982 H   0  0  0  0  0  0
  -27.4032  -29.7207   25.4395 H   0  0  0  0  0  0
  -27.8658  -30.4413   23.9158 H   0  0  0  0  0  0
  -27.2692  -33.3603   26.2027 H   0  0  0  0  0  0
  -28.3878  -32.6794   25.0303 H   0  0  0  0  0  0
  -28.0693  -31.8399   26.5369 H   0  0  0  0  0  0
  -28.2608  -38.0072   24.7531 H   0  0  0  0  0  0
  -28.1025  -36.2605   24.6288 H   0  0  0  0  0  0
  -27.2273  -37.1441   25.8868 H   0  0  0  0  0  0
  -20.9301  -29.8717   21.6903 H   0  0  0  0  0  0
  -26.0146  -38.2871   24.1428 H   0  0  0  0  0  0
  -29.5821  -20.6722   18.4602 H   0  0  0  0  0  0
  -28.1112  -19.6777   18.7279 H   0  0  0  0  0  0
  -29.3543  -19.9818   22.1227 H   0  0  0  0  0  0
  -30.6024  -20.9411   21.2492 H   0  0  0  0  0  0
  -27.6126  -20.7524   20.7663 H   0  0  0  0  0  0
  -29.8157  -26.0322   17.8372 H   0  0  0  0  0  0
  -28.3839  -25.3150   17.0854 H   0  0  0  0  0  0
  -29.9072  -24.4159   17.1250 H   0  0  0  0  0  0
  -31.6369  -18.4042   22.0231 H   0  0  0  0  0  0
  -31.9291  -16.7330   22.4349 H   0  0  0  0  0  0
  -30.4383  -17.5075   22.9556 H   0  0  0  0  0  0
  -28.4994  -17.9638   21.1268 H   0  0  0  0  0  0
  -28.8674  -17.5423   19.4785 H   0  0  0  0  0  0
  -31.2063  -17.0321   20.0329 H   0  0  0  0  0  0
  -29.0843  -15.3912   21.2856 H   0  0  0  0  0  0
  -30.7132  -19.3046   19.7290 H   0  0  0  0  0  0
  1 25  1  0  0  0
  1 30  2  0  0  0
  1 84  1  0  0  0
  2  3  1  0  0  0
  2 25  1  0  0  0
  2 86  1  0  0  0
  2 87  1  0  0  0
  3  4  1  0  0  0
  3 88  1  0  0  0
  3 89  1  0  0  0
  4  5  1  0  0  0
  4 90  1  0  0  0
  4 91  1  0  0  0
  5  6  1  0  0  0
  5 26  1  0  0  0
  5 92  1  0  0  0
  6 25  1  0  0  0
  6 93  1  0  0  0
  6 94  1  0  0  0
  7  8  2  0  0  0
  7 26  1  0  0  0
  7 29  1  0  0  0
  8  9  1  0  0  0
  8 22  1  0  0  0
  9 10  1  0  0  0
  9 27  2  0  0  0
 10 11  2  0  0  0
 10 15  1  0  0  0
 11 12  1  0  0  0
 11 95  1  0  0  0
 12 13  2  0  0  0
 12 96  1  0  0  0
 13 14  1  0  0  0
 13 31  1  0  0  0
 14 15  2  0  0  0
 14 97  1  0  0  0
 15 98  1  0  0  0
 16 17  2  0  0  0
 16 21  1  0  0  0
 16 31  1  0  0  0
 17 18  1  0  0  0
 17 99  1  0  0  0
 18 19  2  0  0  0
 18100  1  0  0  0
 19 20  1  0  0  0
 19 24  1  0  0  0
 20 21  2  0  0  0
 20101  1  0  0  0
 21 23  1  0  0  0
 22 28  1  0  0  0
 22 32  2  0  0  0
 26 27  1  0  0  0
 28102  1  0  0  0
 28103  1  0  0  0
 29104  1  0  0  0
 29105  1  0  0  0
 33 34  1  0  0  0
 33 66  1  0  0  0
 33 70  2  0  0  0
 34 36  1  0  0  0
 34 59  1  0  0  0
 34106  1  0  0  0
 35 44  2  0  0  0
 35 45  1  0  0  0
 35 68  1  0  0  0
 36 56  1  0  0  0
 36107  1  0  0  0
 37 39  1  0  0  0
 37 47  1  0  0  0
 37 66  1  0  0  0
 37108  1  0  0  0
 38 43  2  0  0  0
 38 46  1  0  0  0
 38 47  1  0  0  0
 39 64  1  0  0  0
 39 67  2  0  0  0
 40 52  1  0  0  0
 40 53  2  0  0  0
 40 58  1  0  0  0
 41109  1  0  0  0
 41110  1  0  0  0
 41111  1  0  0  0
 41 48  1  0  0  0
 42 43  1  0  0  0
 42 66  1  0  0  0
 42112  1  0  0  0
 42113  1  0  0  0
 43 44  1  0  0  0
 44114  1  0  0  0
 45 46  2  0  0  0
 45115  1  0  0  0
 46116  1  0  0  0
 47117  1  0  0  0
 47118  1  0  0  0
 48 56  1  0  0  0
 48 65  1  0  0  0
 48119  1  0  0  0
 49 50  1  0  0  0
 49 53  1  0  0  0
 49 64  1  0  0  0
 49120  1  0  0  0
 50 51  1  0  0  0
 50121  1  0  0  0
 50122  1  0  0  0
 51 52  1  0  0  0
 51123  1  0  0  0
 51124  1  0  0  0
 52125  1  0  0  0
 52126  1  0  0  0
 53 54  1  0  0  0
 54 55  2  0  0  0
 54127  1  0  0  0
 55 57  1  0  0  0
 55128  1  0  0  0
 56 69  2  0  0  0
 57 58  2  0  0  0
 57129  1  0  0  0
 58130  1  0  0  0
 59 60  1  0  0  0
 59 61  1  0  0  0
 59 62  1  0  0  0
 60131  1  0  0  0
 60132  1  0  0  0
 60133  1  0  0  0
 61134  1  0  0  0
 61135  1  0  0  0
 61136  1  0  0  0
 62137  1  0  0  0
 62138  1  0  0  0
 62139  1  0  0  0
 63 65  1  0  0  0
 63140  1  0  0  0
 63141  1  0  0  0
 63142  1  0  0  0
 64143  1  0  0  0
 65144  1  0  0  0
 68 72  1  0  0  0
 71 72  2  0  0  0
 71 77  1  0  0  0
 71 81  1  0  0  0
 72 82  1  0  0  0
 73 81  2  0  0  0
 73 83  1  0  0  0
 73 76  1  0  0  0
 74 76  1  0  0  0
 74 85  1  0  0  0
 74145  1  0  0  0
 74146  1  0  0  0
 75 76  1  0  0  0
 75 85  1  0  0  0
 75147  1  0  0  0
 75148  1  0  0  0
 76149  1  0  0  0
 77150  1  0  0  0
 77151  1  0  0  0
 77152  1  0  0  0
 78153  1  0  0  0
 78154  1  0  0  0
 78155  1  0  0  0
 78 80  1  0  0  0
 79 80  1  0  0  0
 79156  1  0  0  0
 79157  1  0  0  0
 79 85  1  0  0  0
 80 84  1  0  0  0
 80158  1  0  0  0
 82 83  2  0  0  0
 84159  1  0  0  0
 85160  1  0  0  0
M  CHG  1  85   1
M  ISO  4   1 100  68 101  72 101  84 100
M  END
> <chiral flag>
0

> <version>
0

> <s_m_source_file>
/data/baiqing/PycharmProjects/Reinvent-master-3.2/result/LINK_invent/BTK/process_docking_weight1_custom_sum_contain_oxygen_bond_distance_aromatic_linkinvent_7_9_3/rearranged_h_0184.sdf

> <i_m_source_file_index>
68

> <r_mmod_Potential_Energy-OPLS-2005>
-219.339920043945

> <r_mmod_Stretch_Energy-OPLS-2005>
45.5878143310547

> <r_mmod_Bend_Energy-OPLS-2005>
116.309020996094

> <r_mmod_Torsional_Energy-OPLS-2005>
263.386077880859

> <r_mmod_Improper_Torsional_Energy-OPLS-2005>
4.69035816192627

> <r_mmod_Van_der_Waal_Energy-OPLS-2005>
152.740432739258

> <r_mmod_Electrostatic_Energy-OPLS-2005>
-317.851196289062

> <r_mmod_Solvation_Energy-OPLS-2005>
-501.594268798828

> <b_mmod_Minimization_Converged-OPLS-2005>
0

> <r_mmod_RMS_Derivative-OPLS-2005>
4.17219018936157

$$$$
68
                    3D
 Structure written by MMmdl.
158167  0  0  1  0            999 V2000
  -30.6095  -14.6510   20.4473 C   0  0  0  0  0  0
  -30.4546  -12.3921   19.4247 C   0  0  0  0  0  0
  -29.5083  -12.4886   18.2072 C   0  0  0  0  0  0
  -28.0292  -12.3464   18.6290 C   0  0  0  0  0  0
  -27.6594  -13.2093   19.8663 C   0  0  2  0  0  0
  -28.7233  -13.0609   20.9778 C   0  0  0  0  0  0
  -25.2597  -13.8132   20.5802 C   0  0  0  0  0  0
  -24.1864  -13.0422   20.9309 C   0  0  0  0  0  0
  -24.6414  -11.6879   20.8785 C   0  0  0  0  0  0
  -23.9040  -10.4301   21.0422 C   0  0  0  0  0  0
  -24.3582   -9.4228   21.9192 C   0  0  0  0  0  0
  -23.6284   -8.2243   22.0745 C   0  0  0  0  0  0
  -22.4258   -8.0274   21.3539 C   0  0  0  0  0  0
  -21.9891   -9.0254   20.4650 C   0  0  0  0  0  0
  -22.7206  -10.2160   20.3073 C   0  0  0  0  0  0
  -21.6836   -6.0733   22.5269 C   0  0  0  0  0  0
  -21.4019   -6.5649   23.8211 C   0  0  0  0  0  0
  -21.3655   -5.6782   24.9169 C   0  0  0  0  0  0
  -21.6052   -4.3058   24.7203 C   0  0  0  0  0  0
  -21.8818   -3.8146   23.4334 C   0  0  0  0  0  0
  -21.9203   -4.6963   22.3392 C   0  0  0  0  0  0
  -22.7877  -13.5196   21.1987 C   0  0  0  0  0  0
  -22.1670   -4.2162   21.0957 F   0  0  0  0  0  0
  -21.5627   -3.4519   25.7718 F   0  0  0  0  0  0
  -30.0198  -13.4172   20.3854 N   0  0  0  0  0  0
  -26.3045  -12.9319   20.3423 N   0  0  0  0  0  0
  -25.9351  -11.6487   20.5825 N   0  0  0  0  0  0
  -22.0455  -12.8190   22.0498 N   0  0  0  0  0  0
  -25.4284  -15.1867   20.4202 N   0  0  0  0  0  0
  -31.8029  -14.8213   20.1839 O   0  0  0  0  0  0
  -21.6626   -6.8871   21.4240 O   0  0  0  0  0  0
  -22.3592  -14.5519   20.6849 O   0  0  0  0  0  0
  -24.6198  -31.8622   23.2107 C   0  0  0  0  0  0
  -25.9096  -32.4804   23.8396 C   0  0  1  0  0  0
  -27.2187  -27.3502   20.1079 C   0  0  0  0  0  0
  -25.5947  -33.8604   24.2334 N   0  0  0  0  0  0
  -23.4101  -30.4928   21.5494 C   0  0  2  0  0  0
  -24.8537  -28.9524   20.1073 C   0  0  0  0  0  0
  -22.7446  -29.4646   22.4941 C   0  0  0  0  0  0
  -18.0272  -28.1383   22.8478 C   0  0  0  0  0  0
  -24.1468  -36.7279   23.2643 C   0  0  0  0  0  0
  -25.9472  -30.7996   21.3808 C   0  0  0  0  0  0
  -26.0161  -29.4286   20.7244 C   0  0  0  0  0  0
  -27.1931  -28.6331   20.7299 C   0  0  0  0  0  0
  -26.0405  -26.9178   19.4629 C   0  0  0  0  0  0
  -24.8671  -27.6990   19.4684 C   0  0  0  0  0  0
  -23.6252  -29.8393   20.1582 C   0  0  0  0  0  0
  -25.4092  -36.3102   24.0355 C   0  0  1  0  0  0
  -20.5875  -28.3685   23.1304 C   0  0  2  0  0  0
  -20.6748  -26.9420   22.5433 C   0  0  0  0  0  0
  -19.5744  -26.6385   21.5215 C   0  0  0  0  0  0
  -18.1912  -26.7915   22.1607 C   0  0  0  0  0  0
  -19.1529  -28.8844   23.2885 C   0  0  0  0  0  0
  -18.9446  -30.1422   23.8940 C   0  0  0  0  0  0
  -17.6451  -30.6594   24.0563 C   0  0  0  0  0  0
  -25.9045  -34.9478   23.5156 C   0  0  0  0  0  0
  -16.5349  -29.9112   23.6308 C   0  0  0  0  0  0
  -16.7250  -28.6513   23.0346 C   0  0  0  0  0  0
  -26.4486  -31.6579   25.0757 C   0  0  0  0  0  0
  -25.3759  -31.3707   26.1525 C   0  0  0  0  0  0
  -27.0291  -30.3000   24.6162 C   0  0  0  0  0  0
  -27.6077  -32.4284   25.7546 C   0  0  0  0  0  0
  -27.5566  -37.1819   24.8480 C   0  0  0  0  0  0
  -21.4164  -29.3061   22.3710 N   0  0  0  0  0  0
  -26.4263  -37.3804   23.9446 N   0  0  0  0  0  0
  -24.6780  -31.0673   22.1054 N   0  0  0  0  0  0
  -23.4182  -28.8147   23.2998 O   0  0  0  0  0  0
  -28.3614  -26.5501   20.1849 O   0  0  0  0  0  0
  -26.5582  -34.8933   22.4698 O   0  0  0  0  0  0
  -23.5402  -32.1419   23.7498 O   0  0  0  0  0  0
  -27.2542  -21.3347   19.9986 C   0  0  0  0  0  0
  -26.3852  -22.4375   19.9869 C   0  0  0  0  0  0
  -28.6308  -21.5977   19.8965 C   0  0  0  0  0  0
  -28.1402  -23.9219   19.8090 C   0  0  0  0  0  0
  -28.7496  -18.1492   20.5772 C   0  0  0  0  0  0
  -30.6209  -18.1068   19.8418 C   0  0  0  0  0  0
  -29.9354  -17.1727   20.8631 C   0  0  2  0  0  0
  -24.8910  -22.2259   19.8930 C   0  0  0  0  0  0
  -29.6151  -20.4360   19.5381 C   0  0  0  0  0  0
  -28.5687  -25.3637   19.3429 C   0  0  0  0  0  0
  -26.8297  -23.7087   19.9089 N   0  0  0  0  0  0
  -29.0507  -22.9124   19.8020 N   0  0  0  0  0  0
  -29.7379  -15.6993   20.5987 N   0  0  0  0  0  0
  -29.7845  -19.2073   20.4135 N   0  3  1  0  0  0
  -26.7712  -20.0708   19.9909 F   0  0  0  0  0  0
  -31.4890  -12.5340   19.1079 H   0  0  0  0  0  0
  -30.4112  -11.3979   19.8716 H   0  0  0  0  0  0
  -29.7583  -11.7144   17.4819 H   0  0  0  0  0  0
  -29.6526  -13.4434   17.6960 H   0  0  0  0  0  0
  -27.8596  -11.2918   18.8512 H   0  0  0  0  0  0
  -27.3709  -12.5951   17.7971 H   0  0  0  0  0  0
  -27.6714  -14.2474   19.5330 H   0  0  0  0  0  0
  -28.7532  -12.0370   21.3560 H   0  0  0  0  0  0
  -28.5053  -13.6944   21.8356 H   0  0  0  0  0  0
  -25.2718   -9.5701   22.4780 H   0  0  0  0  0  0
  -24.0006   -7.4632   22.7452 H   0  0  0  0  0  0
  -21.0821   -8.8766   19.8958 H   0  0  0  0  0  0
  -22.3646  -10.9700   19.6197 H   0  0  0  0  0  0
  -21.2022   -7.6157   23.9709 H   0  0  0  0  0  0
  -21.1470   -6.0522   25.9070 H   0  0  0  0  0  0
  -22.0608   -2.7602   23.2811 H   0  0  0  0  0  0
  -22.3997  -11.9795   22.4858 H   0  0  0  0  0  0
  -21.1084  -13.1278   22.2709 H   0  0  0  0  0  0
  -24.6592  -15.8300   20.5660 H   0  0  0  0  0  0
  -26.2434  -15.6264   20.0147 H   0  0  0  0  0  0
  -26.7167  -32.5458   23.1151 H   0  0  0  0  0  0
  -25.0169  -33.9739   25.0535 H   0  0  0  0  0  0
  -22.7027  -31.3167   21.4236 H   0  0  0  0  0  0
  -23.3754  -35.9586   23.3295 H   0  0  0  0  0  0
  -24.3577  -36.8894   22.2062 H   0  0  0  0  0  0
  -23.7188  -37.6474   23.6640 H   0  0  0  0  0  0
  -26.0830  -31.5645   20.6131 H   0  0  0  0  0  0
  -26.8286  -30.8446   22.0081 H   0  0  0  0  0  0
  -28.0784  -28.9946   21.2346 H   0  0  0  0  0  0
  -25.9987  -25.9614   18.9675 H   0  0  0  0  0  0
  -23.9809  -27.3295   18.9698 H   0  0  0  0  0  0
  -23.7564  -30.6338   19.4225 H   0  0  0  0  0  0
  -22.7367  -29.2917   19.8353 H   0  0  0  0  0  0
  -25.1267  -36.1970   25.0843 H   0  0  0  0  0  0
  -20.9957  -28.3248   24.1431 H   0  0  0  0  0  0
  -20.5612  -26.2314   23.3630 H   0  0  0  0  0  0
  -21.6618  -26.7409   22.1282 H   0  0  0  0  0  0
  -19.6908  -25.6291   21.1256 H   0  0  0  0  0  0
  -19.6689  -27.3185   20.6739 H   0  0  0  0  0  0
  -17.4190  -26.6662   21.4002 H   0  0  0  0  0  0
  -18.0307  -26.0052   22.8997 H   0  0  0  0  0  0
  -19.7920  -30.7199   24.2375 H   0  0  0  0  0  0
  -17.5024  -31.6288   24.5148 H   0  0  0  0  0  0
  -15.5354  -30.3044   23.7602 H   0  0  0  0  0  0
  -15.8632  -28.0839   22.7069 H   0  0  0  0  0  0
  -24.5996  -30.6938   25.7919 H   0  0  0  0  0  0
  -24.8869  -32.2848   26.4907 H   0  0  0  0  0  0
  -25.8166  -30.8991   27.0326 H   0  0  0  0  0  0
  -26.2807  -29.6825   24.1162 H   0  0  0  0  0  0
  -27.3958  -29.7207   25.4653 H   0  0  0  0  0  0
  -27.8722  -30.4306   23.9381 H   0  0  0  0  0  0
  -27.2702  -33.3601   26.2113 H   0  0  0  0  0  0
  -28.3916  -32.6787   25.0383 H   0  0  0  0  0  0
  -28.0677  -31.8377   26.5492 H   0  0  0  0  0  0
  -28.2610  -38.0089   24.7506 H   0  0  0  0  0  0
  -28.1033  -36.2632   24.6305 H   0  0  0  0  0  0
  -27.2307  -37.1487   25.8889 H   0  0  0  0  0  0
  -20.9298  -29.8838   21.6992 H   0  0  0  0  0  0
  -26.0149  -38.2885   24.1432 H   0  0  0  0  0  0
  -28.0827  -18.3161   21.4249 H   0  0  0  0  0  0
  -28.1810  -17.9424   19.6653 H   0  0  0  0  0  0
  -30.3904  -17.8976   18.7930 H   0  0  0  0  0  0
  -31.6915  -18.2546   19.9836 H   0  0  0  0  0  0
  -30.3379  -17.3346   21.8659 H   0  0  0  0  0  0
  -24.5241  -21.6534   20.7434 H   0  0  0  0  0  0
  -24.6778  -21.6618   18.9827 H   0  0  0  0  0  0
  -24.3573  -23.1755   19.8354 H   0  0  0  0  0  0
  -30.6058  -20.8838   19.4903 H   0  0  0  0  0  0
  -29.3811  -20.1319   18.5199 H   0  0  0  0  0  0
  -28.1457  -25.5423   18.3533 H   0  0  0  0  0  0
  -29.6428  -25.3249   19.1648 H   0  0  0  0  0  0
  -28.7809  -15.3864   20.6540 H   0  0  0  0  0  0
  -30.1354  -19.4894   21.3142 H   0  0  0  0  0  0
  1 25  1  0  0  0
  1 30  2  0  0  0
  1 83  1  0  0  0
  2  3  1  0  0  0
  2 25  1  0  0  0
  2 86  1  0  0  0
  2 87  1  0  0  0
  3  4  1  0  0  0
  3 88  1  0  0  0
  3 89  1  0  0  0
  4  5  1  0  0  0
  4 90  1  0  0  0
  4 91  1  0  0  0
  5  6  1  0  0  0
  5 26  1  0  0  0
  5 92  1  0  0  0
  6 25  1  0  0  0
  6 93  1  0  0  0
  6 94  1  0  0  0
  7  8  2  0  0  0
  7 26  1  0  0  0
  7 29  1  0  0  0
  8  9  1  0  0  0
  8 22  1  0  0  0
  9 10  1  0  0  0
  9 27  2  0  0  0
 10 11  2  0  0  0
 10 15  1  0  0  0
 11 12  1  0  0  0
 11 95  1  0  0  0
 12 13  2  0  0  0
 12 96  1  0  0  0
 13 14  1  0  0  0
 13 31  1  0  0  0
 14 15  2  0  0  0
 14 97  1  0  0  0
 15 98  1  0  0  0
 16 17  2  0  0  0
 16 21  1  0  0  0
 16 31  1  0  0  0
 17 18  1  0  0  0
 17 99  1  0  0  0
 18 19  2  0  0  0
 18100  1  0  0  0
 19 20  1  0  0  0
 19 24  1  0  0  0
 20 21  2  0  0  0
 20101  1  0  0  0
 21 23  1  0  0  0
 22 28  1  0  0  0
 22 32  2  0  0  0
 26 27  1  0  0  0
 28102  1  0  0  0
 28103  1  0  0  0
 29104  1  0  0  0
 29105  1  0  0  0
 33 34  1  0  0  0
 33 66  1  0  0  0
 33 70  2  0  0  0
 34 36  1  0  0  0
 34 59  1  0  0  0
 34106  1  0  0  0
 35 44  2  0  0  0
 35 45  1  0  0  0
 35 68  1  0  0  0
 36 56  1  0  0  0
 36107  1  0  0  0
 37 39  1  0  0  0
 37 47  1  0  0  0
 37 66  1  0  0  0
 37108  1  0  0  0
 38 43  2  0  0  0
 38 46  1  0  0  0
 38 47  1  0  0  0
 39 64  1  0  0  0
 39 67  2  0  0  0
 40 52  1  0  0  0
 40 53  2  0  0  0
 40 58  1  0  0  0
 41109  1  0  0  0
 41110  1  0  0  0
 41111  1  0  0  0
 41 48  1  0  0  0
 42 43  1  0  0  0
 42 66  1  0  0  0
 42112  1  0  0  0
 42113  1  0  0  0
 43 44  1  0  0  0
 44114  1  0  0  0
 45 46  2  0  0  0
 45115  1  0  0  0
 46116  1  0  0  0
 47117  1  0  0  0
 47118  1  0  0  0
 48 56  1  0  0  0
 48 65  1  0  0  0
 48119  1  0  0  0
 49 50  1  0  0  0
 49 53  1  0  0  0
 49 64  1  0  0  0
 49120  1  0  0  0
 50 51  1  0  0  0
 50121  1  0  0  0
 50122  1  0  0  0
 51 52  1  0  0  0
 51123  1  0  0  0
 51124  1  0  0  0
 52125  1  0  0  0
 52126  1  0  0  0
 53 54  1  0  0  0
 54 55  2  0  0  0
 54127  1  0  0  0
 55 57  1  0  0  0
 55128  1  0  0  0
 56 69  2  0  0  0
 57 58  2  0  0  0
 57129  1  0  0  0
 58130  1  0  0  0
 59 60  1  0  0  0
 59 61  1  0  0  0
 59 62  1  0  0  0
 60131  1  0  0  0
 60132  1  0  0  0
 60133  1  0  0  0
 61134  1  0  0  0
 61135  1  0  0  0
 61136  1  0  0  0
 62137  1  0  0  0
 62138  1  0  0  0
 62139  1  0  0  0
 63 65  1  0  0  0
 63140  1  0  0  0
 63141  1  0  0  0
 63142  1  0  0  0
 64143  1  0  0  0
 65144  1  0  0  0
 68 80  1  0  0  0
 71 72  2  0  0  0
 71 73  1  0  0  0
 71 85  1  0  0  0
 72 78  1  0  0  0
 72 81  1  0  0  0
 73 79  1  0  0  0
 73 82  2  0  0  0
 74 80  1  0  0  0
 74 81  2  0  0  0
 74 82  1  0  0  0
 75 77  1  0  0  0
 75 84  1  0  0  0
 75145  1  0  0  0
 75146  1  0  0  0
 76 77  1  0  0  0
 76 84  1  0  0  0
 76147  1  0  0  0
 76148  1  0  0  0
 77 83  1  0  0  0
 77149  1  0  0  0
 78150  1  0  0  0
 78151  1  0  0  0
 78152  1  0  0  0
 79153  1  0  0  0
 79154  1  0  0  0
 79 84  1  0  0  0
 80155  1  0  0  0
 80156  1  0  0  0
 83157  1  0  0  0
 84158  1  0  0  0
M  CHG  1  84   1
M  ISO  4   1 100  68 101  80 101  83 100
M  END
> <chiral flag>
0

> <version>
0

> <s_m_source_file>
/data/baiqing/PycharmProjects/Reinvent-master-3.2/result/LINK_invent/BTK/process_docking_weight1_custom_sum_contain_oxygen_bond_distance_aromatic_linkinvent_7_9_3/rearranged_h_0184.sdf

> <i_m_source_file_index>
69

> <r_mmod_Potential_Energy-OPLS-2005>
-419.263305664062

> <r_mmod_Stretch_Energy-OPLS-2005>
74.2576522827148

> <r_mmod_Bend_Energy-OPLS-2005>
201.171936035156

> <r_mmod_Torsional_Energy-OPLS-2005>
231.786437988281

> <r_mmod_Improper_Torsional_Energy-OPLS-2005>
10.6097192764282

> <r_mmod_Van_der_Waal_Energy-OPLS-2005>
148.238327026367

> <r_mmod_Electrostatic_Energy-OPLS-2005>
-642.837341308594

> <r_mmod_Solvation_Energy-OPLS-2005>
-490.891204833984

> <b_mmod_Minimization_Converged-OPLS-2005>
0

> <r_mmod_RMS_Derivative-OPLS-2005>
5.64613962173462

$$$$
69
                    3D
 Structure written by MMmdl.
149157  0  0  1  0            999 V2000
  -30.4073  -15.4702   20.3449 C   0  0  0  0  0  0
  -30.4242  -12.9668   19.5232 C   0  0  0  0  0  0
  -29.5386  -12.6160   18.2998 C   0  0  0  0  0  0
  -28.1007  -12.3012   18.7393 C   0  0  0  0  0  0
  -27.5978  -13.2997   19.8095 C   0  0  2  0  0  0
  -28.6247  -13.5844   20.9282 C   0  0  0  0  0  0
  -25.2344  -13.8292   20.5795 C   0  0  0  0  0  0
  -24.1718  -13.0448   20.9276 C   0  0  0  0  0  0
  -24.6408  -11.6953   20.8762 C   0  0  0  0  0  0
  -23.9114  -10.4301   21.0400 C   0  0  0  0  0  0
  -24.3654   -9.4212   21.9179 C   0  0  0  0  0  0
  -23.6317   -8.2250   22.0748 C   0  0  0  0  0  0
  -22.4294   -8.0291   21.3543 C   0  0  0  0  0  0
  -21.9941   -9.0268   20.4640 C   0  0  0  0  0  0
  -22.7283  -10.2142   20.3051 C   0  0  0  0  0  0
  -21.6860   -6.0741   22.5278 C   0  0  0  0  0  0
  -21.4020   -6.5641   23.8214 C   0  0  0  0  0  0
  -21.3661   -5.6789   24.9175 C   0  0  0  0  0  0
  -21.6045   -4.3052   24.7222 C   0  0  0  0  0  0
  -21.8820   -3.8146   23.4342 C   0  0  0  0  0  0
  -21.9194   -4.6967   22.3400 C   0  0  0  0  0  0
  -22.7730  -13.5176   21.1911 C   0  0  0  0  0  0
  -22.1659   -4.2155   21.0977 F   0  0  0  0  0  0
  -21.5632   -3.4535   25.7733 F   0  0  0  0  0  0
  -29.8189  -14.1506   20.2686 N   0  0  0  0  0  0
  -26.2779  -12.9609   20.3220 N   0  0  0  0  0  0
  -25.9353  -11.6688   20.5696 N   0  0  0  0  0  0
  -22.0389  -12.8161   22.0471 N   0  0  0  0  0  0
  -25.3973  -15.2036   20.4277 N   0  0  0  0  0  0
  -31.6424  -15.3625   20.2335 O   0  0  0  0  0  0
  -21.6648   -6.8893   21.4244 O   0  0  0  0  0  0
  -22.3402  -14.5468   20.6734 O   0  0  0  0  0  0
  -24.6763  -31.8091   23.1596 C   0  0  0  0  0  0
  -25.9383  -32.4511   23.8112 C   0  0  1  0  0  0
  -27.2200  -26.7953   20.2037 C   0  0  0  0  0  0
  -25.5998  -33.8336   24.2007 N   0  0  0  0  0  0
  -23.4974  -30.4161   21.5104 C   0  0  2  0  0  0
  -24.9524  -28.7753   20.1168 C   0  0  0  0  0  0
  -22.7731  -29.4368   22.4729 C   0  0  0  0  0  0
  -18.0334  -28.1411   22.8458 C   0  0  0  0  0  0
  -24.1494  -36.7175   23.2651 C   0  0  0  0  0  0
  -26.0734  -30.5727   21.4096 C   0  0  0  0  0  0
  -26.1400  -29.1479   20.7579 C   0  0  0  0  0  0
  -27.2650  -28.1838   20.7702 C   0  0  0  0  0  0
  -26.0007  -26.6077   19.5099 C   0  0  0  0  0  0
  -24.9165  -27.5292   19.4697 C   0  0  0  0  0  0
  -23.7459  -29.7207   20.1423 C   0  0  0  0  0  0
  -25.4140  -36.2922   24.0290 C   0  0  1  0  0  0
  -20.5965  -28.3765   23.1155 C   0  0  2  0  0  0
  -20.6803  -26.9436   22.5398 C   0  0  0  0  0  0
  -19.5776  -26.6369   21.5213 C   0  0  0  0  0  0
  -18.1957  -26.7943   22.1616 C   0  0  0  0  0  0
  -19.1600  -28.8910   23.2791 C   0  0  0  0  0  0
  -18.9507  -30.1490   23.8844 C   0  0  0  0  0  0
  -17.6500  -30.6595   24.0557 C   0  0  0  0  0  0
  -25.9115  -34.9308   23.4975 C   0  0  0  0  0  0
  -16.5389  -29.9083   23.6348 C   0  0  0  0  0  0
  -16.7315  -28.6503   23.0372 C   0  0  0  0  0  0
  -26.4592  -31.6512   25.0699 C   0  0  0  0  0  0
  -25.3681  -31.3804   26.1331 C   0  0  0  0  0  0
  -27.0515  -30.2861   24.6539 C   0  0  0  0  0  0
  -27.6052  -32.4357   25.7514 C   0  0  0  0  0  0
  -27.5565  -37.1746   24.8466 C   0  0  0  0  0  0
  -21.4385  -29.3033   22.3486 N   0  0  0  0  0  0
  -26.4274  -37.3674   23.9407 N   0  0  0  0  0  0
  -24.7715  -30.9634   22.0793 N   0  0  0  0  0  0
  -23.4217  -28.7952   23.3030 O   0  0  0  0  0  0
  -28.1946  -25.6201   20.2662 O   0  0  0  0  0  0
  -26.5738  -34.8871   22.4582 O   0  0  0  0  0  0
  -23.5801  -32.1122   23.6612 O   0  0  0  0  0  0
  -28.9823  -22.4735   20.2585 C   0  0  0  0  0  0
  -28.9937  -19.4657   19.2609 C   0  0  0  0  0  0
  -29.6071  -19.6608   21.4474 C   0  0  0  0  0  0
  -28.8845  -17.7523   19.5126 C   0  0  0  0  0  0
  -30.3699  -18.1384   21.1606 C   0  0  0  0  0  0
  -28.7710  -20.6597   20.4013 C   0  0  0  0  0  0
  -27.8960  -23.9316   20.2104 C   0  0  0  0  0  0
  -29.7721  -16.8696   20.4632 N   0  0  0  0  0  0
  -30.1755  -22.7813   20.1852 O   0  0  0  0  0  0
  -31.4300  -13.1928   19.1668 H   0  0  0  0  0  0
  -30.5417  -12.1050   20.1809 H   0  0  0  0  0  0
  -29.9598  -11.7724   17.7513 H   0  0  0  0  0  0
  -29.5317  -13.4607   17.6083 H   0  0  0  0  0  0
  -28.0937  -11.2904   19.1491 H   0  0  0  0  0  0
  -27.4320  -12.2888   17.8778 H   0  0  0  0  0  0
  -27.4756  -14.2380   19.2664 H   0  0  0  0  0  0
  -28.8508  -12.6893   21.5097 H   0  0  0  0  0  0
  -28.2231  -14.3191   21.6282 H   0  0  0  0  0  0
  -25.2798   -9.5682   22.4762 H   0  0  0  0  0  0
  -24.0018   -7.4639   22.7470 H   0  0  0  0  0  0
  -21.0869   -8.8799   19.8945 H   0  0  0  0  0  0
  -22.3744  -10.9685   19.6161 H   0  0  0  0  0  0
  -21.2015   -7.6151   23.9721 H   0  0  0  0  0  0
  -21.1481   -6.0515   25.9078 H   0  0  0  0  0  0
  -22.0599   -2.7609   23.2838 H   0  0  0  0  0  0
  -22.4017  -11.9848   22.4900 H   0  0  0  0  0  0
  -21.0989  -13.1158   22.2641 H   0  0  0  0  0  0
  -24.6321  -15.8572   20.5564 H   0  0  0  0  0  0
  -26.2546  -15.6496   20.1289 H   0  0  0  0  0  0
  -26.7461  -32.5012   23.0826 H   0  0  0  0  0  0
  -25.0089  -33.9388   25.0121 H   0  0  0  0  0  0
  -22.8175  -31.2509   21.3279 H   0  0  0  0  0  0
  -23.3770  -35.9490   23.3272 H   0  0  0  0  0  0
  -24.3567  -36.8872   22.2073 H   0  0  0  0  0  0
  -23.7236  -37.6341   23.6746 H   0  0  0  0  0  0
  -26.2693  -31.3045   20.6244 H   0  0  0  0  0  0
  -26.9278  -30.6351   22.0714 H   0  0  0  0  0  0
  -28.1615  -28.4736   21.2999 H   0  0  0  0  0  0
  -25.8496  -25.6612   19.0113 H   0  0  0  0  0  0
  -24.0180  -27.2370   18.9439 H   0  0  0  0  0  0
  -23.9169  -30.4837   19.3819 H   0  0  0  0  0  0
  -22.8530  -29.1835   19.8193 H   0  0  0  0  0  0
  -25.1344  -36.1701   25.0780 H   0  0  0  0  0  0
  -21.0049  -28.3381   24.1277 H   0  0  0  0  0  0
  -21.6664  -26.7384   22.1213 H   0  0  0  0  0  0
  -20.5668  -26.2390   23.3653 H   0  0  0  0  0  0
  -19.6933  -25.6262   21.1284 H   0  0  0  0  0  0
  -19.6717  -27.3143   20.6713 H   0  0  0  0  0  0
  -17.4229  -26.6687   21.4019 H   0  0  0  0  0  0
  -18.0346  -26.0094   22.9021 H   0  0  0  0  0  0
  -19.7983  -30.7313   24.2195 H   0  0  0  0  0  0
  -17.5055  -31.6270   24.5167 H   0  0  0  0  0  0
  -15.5388  -30.2974   23.7702 H   0  0  0  0  0  0
  -15.8711  -28.0801   22.7129 H   0  0  0  0  0  0
  -24.5884  -30.7132   25.7638 H   0  0  0  0  0  0
  -24.8850  -32.3016   26.4595 H   0  0  0  0  0  0
  -25.7882  -30.9074   27.0214 H   0  0  0  0  0  0
  -26.3213  -29.6492   24.1531 H   0  0  0  0  0  0
  -27.3974  -29.7289   25.5256 H   0  0  0  0  0  0
  -27.9184  -30.4012   24.0030 H   0  0  0  0  0  0
  -27.2599  -33.3715   26.1923 H   0  0  0  0  0  0
  -28.3954  -32.6826   25.0412 H   0  0  0  0  0  0
  -28.0621  -31.8596   26.5572 H   0  0  0  0  0  0
  -28.2555  -38.0068   24.7514 H   0  0  0  0  0  0
  -28.1087  -36.2587   24.6290 H   0  0  0  0  0  0
  -27.2279  -37.1382   25.8870 H   0  0  0  0  0  0
  -20.9670  -29.8717   21.6589 H   0  0  0  0  0  0
  -26.0108  -38.2726   24.1417 H   0  0  0  0  0  0
  -28.2921  -19.6956   18.4579 H   0  0  0  0  0  0
  -29.9675  -19.6548   18.8052 H   0  0  0  0  0  0
  -30.3711  -20.2919   21.9027 H   0  0  0  0  0  0
  -28.9119  -19.4773   22.2672 H   0  0  0  0  0  0
  -27.8556  -17.5421   19.8058 H   0  0  0  0  0  0
  -28.9836  -17.2895   18.5301 H   0  0  0  0  0  0
  -31.2921  -18.3484   20.6153 H   0  0  0  0  0  0
  -30.7198  -17.7846   22.1314 H   0  0  0  0  0  0
  -27.7216  -20.5853   20.6893 H   0  0  0  0  0  0
  -27.3216  -23.7908   19.2948 H   0  0  0  0  0  0
  -27.1735  -23.7545   21.0067 H   0  0  0  0  0  0
  1 25  1  0  0  0
  1 30  2  0  0  0
  1 78  1  0  0  0
  2  3  1  0  0  0
  2 25  1  0  0  0
  2 80  1  0  0  0
  2 81  1  0  0  0
  3  4  1  0  0  0
  3 82  1  0  0  0
  3 83  1  0  0  0
  4  5  1  0  0  0
  4 84  1  0  0  0
  4 85  1  0  0  0
  5  6  1  0  0  0
  5 26  1  0  0  0
  5 86  1  0  0  0
  6 25  1  0  0  0
  6 87  1  0  0  0
  6 88  1  0  0  0
  7  8  2  0  0  0
  7 26  1  0  0  0
  7 29  1  0  0  0
  8  9  1  0  0  0
  8 22  1  0  0  0
  9 10  1  0  0  0
  9 27  2  0  0  0
 10 11  2  0  0  0
 10 15  1  0  0  0
 11 12  1  0  0  0
 11 89  1  0  0  0
 12 13  2  0  0  0
 12 90  1  0  0  0
 13 14  1  0  0  0
 13 31  1  0  0  0
 14 15  2  0  0  0
 14 91  1  0  0  0
 15 92  1  0  0  0
 16 17  2  0  0  0
 16 21  1  0  0  0
 16 31  1  0  0  0
 17 18  1  0  0  0
 17 93  1  0  0  0
 18 19  2  0  0  0
 18 94  1  0  0  0
 19 20  1  0  0  0
 19 24  1  0  0  0
 20 21  2  0  0  0
 20 95  1  0  0  0
 21 23  1  0  0  0
 22 28  1  0  0  0
 22 32  2  0  0  0
 26 27  1  0  0  0
 28 96  1  0  0  0
 28 97  1  0  0  0
 29 98  1  0  0  0
 29 99  1  0  0  0
 33 34  1  0  0  0
 33 66  1  0  0  0
 33 70  2  0  0  0
 34 36  1  0  0  0
 34 59  1  0  0  0
 34100  1  0  0  0
 35 44  2  0  0  0
 35 45  1  0  0  0
 35 68  1  0  0  0
 36 56  1  0  0  0
 36101  1  0  0  0
 37 39  1  0  0  0
 37 47  1  0  0  0
 37 66  1  0  0  0
 37102  1  0  0  0
 38 43  2  0  0  0
 38 46  1  0  0  0
 38 47  1  0  0  0
 39 64  1  0  0  0
 39 67  2  0  0  0
 40 52  1  0  0  0
 40 53  2  0  0  0
 40 58  1  0  0  0
 41103  1  0  0  0
 41104  1  0  0  0
 41105  1  0  0  0
 41 48  1  0  0  0
 42 43  1  0  0  0
 42 66  1  0  0  0
 42106  1  0  0  0
 42107  1  0  0  0
 43 44  1  0  0  0
 44108  1  0  0  0
 45 46  2  0  0  0
 45109  1  0  0  0
 46110  1  0  0  0
 47111  1  0  0  0
 47112  1  0  0  0
 48 56  1  0  0  0
 48 65  1  0  0  0
 48113  1  0  0  0
 49 50  1  0  0  0
 49 53  1  0  0  0
 49 64  1  0  0  0
 49114  1  0  0  0
 50 51  1  0  0  0
 50115  1  0  0  0
 50116  1  0  0  0
 51 52  1  0  0  0
 51117  1  0  0  0
 51118  1  0  0  0
 52119  1  0  0  0
 52120  1  0  0  0
 53 54  1  0  0  0
 54 55  2  0  0  0
 54121  1  0  0  0
 55 57  1  0  0  0
 55122  1  0  0  0
 56 69  2  0  0  0
 57 58  2  0  0  0
 57123  1  0  0  0
 58124  1  0  0  0
 59 60  1  0  0  0
 59 61  1  0  0  0
 59 62  1  0  0  0
 60125  1  0  0  0
 60126  1  0  0  0
 60127  1  0  0  0
 61128  1  0  0  0
 61129  1  0  0  0
 61130  1  0  0  0
 62131  1  0  0  0
 62132  1  0  0  0
 62133  1  0  0  0
 63 65  1  0  0  0
 63134  1  0  0  0
 63135  1  0  0  0
 63136  1  0  0  0
 64137  1  0  0  0
 65138  1  0  0  0
 68 77  1  0  0  0
 71 77  1  0  0  0
 71 79  2  0  0  0
 71 76  1  0  0  0
 72 74  1  0  0  0
 72 76  1  0  0  0
 72139  1  0  0  0
 72140  1  0  0  0
 73 75  1  0  0  0
 73 76  1  0  0  0
 73141  1  0  0  0
 73142  1  0  0  0
 74 78  1  0  0  0
 74143  1  0  0  0
 74144  1  0  0  0
 75 78  1  0  0  0
 75145  1  0  0  0
 75146  1  0  0  0
 76147  1  0  0  0
 77148  1  0  0  0
 77149  1  0  0  0
M  ISO  4   1 100  68 101  77 101  78 100
M  END
> <chiral flag>
0

> <version>
0

> <s_m_source_file>
/data/baiqing/PycharmProjects/Reinvent-master-3.2/result/LINK_invent/BTK/process_docking_weight1_custom_sum_contain_oxygen_bond_distance_aromatic_linkinvent_7_9_3/rearranged_h_0184.sdf

> <i_m_source_file_index>
70

> <r_mmod_Potential_Energy-OPLS-2005>
2107.31591796875

> <r_mmod_Stretch_Energy-OPLS-2005>
791.070495605469

> <r_mmod_Bend_Energy-OPLS-2005>
630.622497558594

> <r_mmod_Torsional_Energy-OPLS-2005>
342.614654541016

> <r_mmod_Improper_Torsional_Energy-OPLS-2005>
4.66442584991455

> <r_mmod_Van_der_Waal_Energy-OPLS-2005>
118.101135253906

> <r_mmod_Electrostatic_Energy-OPLS-2005>
-239.005294799805

> <r_mmod_Solvation_Energy-OPLS-2005>
-228.17008972168

> <b_mmod_Minimization_Converged-OPLS-2005>
0

> <r_mmod_RMS_Derivative-OPLS-2005>
0.974368691444397

$$$$
70
                    3D
 Structure written by MMmdl.
165175  0  0  1  0            999 V2000
  -30.5442  -15.1306   20.3957 C   0  0  0  0  0  0
  -30.4266  -12.7257   19.5050 C   0  0  0  0  0  0
  -29.5193  -12.5517   18.2660 C   0  0  0  0  0  0
  -28.0645  -12.3040   18.6978 C   0  0  0  0  0  0
  -27.6126  -13.2735   19.8198 C   0  0  2  0  0  0
  -28.6534  -13.4238   20.9490 C   0  0  0  0  0  0
  -25.2403  -13.8264   20.5746 C   0  0  0  0  0  0
  -24.1753  -13.0455   20.9259 C   0  0  0  0  0  0
  -24.6402  -11.6948   20.8767 C   0  0  0  0  0  0
  -23.9099  -10.4305   21.0409 C   0  0  0  0  0  0
  -24.3643   -9.4214   21.9185 C   0  0  0  0  0  0
  -23.6315   -8.2251   22.0753 C   0  0  0  0  0  0
  -22.4295   -8.0292   21.3549 C   0  0  0  0  0  0
  -21.9936   -9.0271   20.4655 C   0  0  0  0  0  0
  -22.7270  -10.2146   20.3061 C   0  0  0  0  0  0
  -21.6863   -6.0742   22.5279 C   0  0  0  0  0  0
  -21.4022   -6.5643   23.8214 C   0  0  0  0  0  0
  -21.3660   -5.6796   24.9176 C   0  0  0  0  0  0
  -21.6048   -4.3059   24.7224 C   0  0  0  0  0  0
  -21.8822   -3.8149   23.4347 C   0  0  0  0  0  0
  -21.9195   -4.6967   22.3404 C   0  0  0  0  0  0
  -22.7772  -13.5204   21.1903 C   0  0  0  0  0  0
  -22.1659   -4.2151   21.0978 F   0  0  0  0  0  0
  -21.5627   -3.4543   25.7737 F   0  0  0  0  0  0
  -29.8979  -13.8780   20.3131 N   0  0  0  0  0  0
  -26.2829  -12.9540   20.3224 N   0  0  0  0  0  0
  -25.9336  -11.6646   20.5733 N   0  0  0  0  0  0
  -22.0434  -12.8187   22.0457 N   0  0  0  0  0  0
  -25.4057  -15.1990   20.4172 N   0  0  0  0  0  0
  -31.7694  -15.0671   20.2400 O   0  0  0  0  0  0
  -21.6656   -6.8889   21.4242 O   0  0  0  0  0  0
  -22.3446  -14.5496   20.6729 O   0  0  0  0  0  0
  -24.6570  -31.8325   23.1822 C   0  0  0  0  0  0
  -25.9286  -32.4634   23.8242 C   0  0  1  0  0  0
  -27.1997  -26.9882   20.1637 C   0  0  0  0  0  0
  -25.5975  -33.8448   24.2132 N   0  0  0  0  0  0
  -23.4678  -30.4522   21.5313 C   0  0  2  0  0  0
  -24.9189  -28.8659   20.1130 C   0  0  0  0  0  0
  -22.7644  -29.4485   22.4815 C   0  0  0  0  0  0
  -18.0320  -28.1401   22.8460 C   0  0  0  0  0  0
  -24.1494  -36.7236   23.2644 C   0  0  0  0  0  0
  -26.0378  -30.6545   21.4120 C   0  0  0  0  0  0
  -26.1028  -29.2533   20.7540 C   0  0  0  0  0  0
  -27.2409  -28.3325   20.7669 C   0  0  0  0  0  0
  -26.0043  -26.7793   19.4347 C   0  0  0  0  0  0
  -24.8923  -27.6452   19.4336 C   0  0  0  0  0  0
  -23.7044  -29.7852   20.1523 C   0  0  0  0  0  0
  -25.4131  -36.2994   24.0301 C   0  0  1  0  0  0
  -20.5945  -28.3740   23.1196 C   0  0  2  0  0  0
  -20.6809  -26.9429   22.5392 C   0  0  0  0  0  0
  -19.5780  -26.6371   21.5210 C   0  0  0  0  0  0
  -18.1959  -26.7931   22.1619 C   0  0  0  0  0  0
  -19.1581  -28.8892   23.2815 C   0  0  0  0  0  0
  -18.9490  -30.1483   23.8849 C   0  0  0  0  0  0
  -17.6486  -30.6590   24.0556 C   0  0  0  0  0  0
  -25.9095  -34.9374   23.5033 C   0  0  0  0  0  0
  -16.5376  -29.9080   23.6340 C   0  0  0  0  0  0
  -16.7302  -28.6503   23.0351 C   0  0  0  0  0  0
  -26.4558  -31.6548   25.0737 C   0  0  0  0  0  0
  -25.3698  -31.3783   26.1398 C   0  0  0  0  0  0
  -27.0451  -30.2914   24.6449 C   0  0  0  0  0  0
  -27.6056  -32.4355   25.7525 C   0  0  0  0  0  0
  -27.5572  -37.1776   24.8462 C   0  0  0  0  0  0
  -21.4321  -29.3045   22.3556 N   0  0  0  0  0  0
  -26.4283  -37.3720   23.9405 N   0  0  0  0  0  0
  -24.7417  -31.0043   22.0948 N   0  0  0  0  0  0
  -23.4225  -28.8029   23.3013 O   0  0  0  0  0  0
  -28.1624  -25.8585   20.2151 O   0  0  0  0  0  0
  -26.5697  -34.8890   22.4624 O   0  0  0  0  0  0
  -23.5654  -32.1283   23.6938 O   0  0  0  0  0  0
  -26.8756  -21.7939   19.9803 C   0  0  0  0  0  0
  -27.9531  -22.6673   20.2296 C   0  0  0  0  0  0
  -28.6150  -20.2759   20.2336 C   0  0  0  0  0  0
  -24.5472  -21.6676   21.0669 C   0  0  0  0  0  0
  -30.4497  -17.8532   20.9336 C   0  0  0  0  0  0
  -28.6608  -17.1975   20.1841 C   0  0  0  0  0  0
  -23.1724  -22.2910   20.8057 C   0  0  0  0  0  0
  -24.7456  -23.4210   19.5626 C   0  0  0  0  0  0
  -25.3641  -22.0464   19.8341 C   0  0  1  0  0  0
  -29.3332  -18.6951   20.1253 C   0  0  0  0  0  0
  -26.6366  -18.9567   17.9941 C   0  0  0  0  0  0
  -27.6197  -24.3560   20.4661 C   0  0  0  0  0  0
  -26.4349  -19.3167   19.4734 C   0  0  0  0  0  0
  -29.0375  -21.6340   20.4078 N   0  0  0  0  0  0
  -27.3034  -20.4252   19.8945 N   0  0  0  0  0  0
  -29.9306  -16.4567   20.5361 N   0  0  0  0  0  0
  -23.3542  -23.1787   19.7055 O   0  0  0  0  0  0
  -31.4534  -12.8911   19.1758 H   0  0  0  0  0  0
  -30.4524  -11.8112   20.1005 H   0  0  0  0  0  0
  -29.8733  -11.7274   17.6454 H   0  0  0  0  0  0
  -29.5702  -13.4485   17.6464 H   0  0  0  0  0  0
  -28.0008  -11.2753   19.0540 H   0  0  0  0  0  0
  -27.3945  -12.3715   17.8403 H   0  0  0  0  0  0
  -27.5368  -14.2478   19.3354 H   0  0  0  0  0  0
  -28.7932  -12.4898   21.4954 H   0  0  0  0  0  0
  -28.3193  -14.1670   21.6749 H   0  0  0  0  0  0
  -25.2784   -9.5692   22.4763 H   0  0  0  0  0  0
  -24.0023   -7.4643   22.7475 H   0  0  0  0  0  0
  -21.0872   -8.8798   19.8953 H   0  0  0  0  0  0
  -22.3735  -10.9686   19.6169 H   0  0  0  0  0  0
  -21.2019   -7.6150   23.9715 H   0  0  0  0  0  0
  -21.1473   -6.0525   25.9079 H   0  0  0  0  0  0
  -22.0595   -2.7609   23.2847 H   0  0  0  0  0  0
  -22.4072  -11.9856   22.4844 H   0  0  0  0  0  0
  -21.1042  -13.1190   22.2648 H   0  0  0  0  0  0
  -24.6355  -15.8490   20.5268 H   0  0  0  0  0  0
  -26.2536  -15.6338   20.0821 H   0  0  0  0  0  0
  -26.7350  -32.5186   23.0956 H   0  0  0  0  0  0
  -25.0056  -33.9549   25.0234 H   0  0  0  0  0  0
  -22.7769  -31.2825   21.3714 H   0  0  0  0  0  0
  -23.3758  -35.9565   23.3282 H   0  0  0  0  0  0
  -24.3572  -36.8908   22.2064 H   0  0  0  0  0  0
  -23.7255  -37.6421   23.6715 H   0  0  0  0  0  0
  -26.2178  -31.4001   20.6366 H   0  0  0  0  0  0
  -26.8990  -30.7040   22.0660 H   0  0  0  0  0  0
  -28.1301  -28.6210   21.3094 H   0  0  0  0  0  0
  -25.8768  -25.8984   18.8312 H   0  0  0  0  0  0
  -24.0063  -27.3558   18.8852 H   0  0  0  0  0  0
  -23.8567  -30.5619   19.4021 H   0  0  0  0  0  0
  -22.8151  -29.2400   19.8307 H   0  0  0  0  0  0
  -25.1325  -36.1806   25.0792 H   0  0  0  0  0  0
  -21.0025  -28.3338   24.1325 H   0  0  0  0  0  0
  -20.5705  -26.2354   23.3622 H   0  0  0  0  0  0
  -21.6671  -26.7420   22.1191 H   0  0  0  0  0  0
  -19.6949  -25.6273   21.1264 H   0  0  0  0  0  0
  -19.6723  -27.3157   20.6722 H   0  0  0  0  0  0
  -17.4229  -26.6659   21.4024 H   0  0  0  0  0  0
  -18.0366  -26.0090   22.9035 H   0  0  0  0  0  0
  -19.7967  -30.7308   24.2196 H   0  0  0  0  0  0
  -17.5038  -31.6262   24.5168 H   0  0  0  0  0  0
  -15.5375  -30.2966   23.7691 H   0  0  0  0  0  0
  -15.8702  -28.0808   22.7088 H   0  0  0  0  0  0
  -24.5885  -30.7128   25.7708 H   0  0  0  0  0  0
  -24.8882  -32.2981   26.4724 H   0  0  0  0  0  0
  -25.7938  -30.9013   27.0243 H   0  0  0  0  0  0
  -26.3119  -29.6595   24.1425 H   0  0  0  0  0  0
  -27.3956  -29.7268   25.5100 H   0  0  0  0  0  0
  -27.9075  -30.4098   23.9885 H   0  0  0  0  0  0
  -27.2620  -33.3690   26.1996 H   0  0  0  0  0  0
  -28.3912  -32.6863   25.0384 H   0  0  0  0  0  0
  -28.0675  -31.8560   26.5529 H   0  0  0  0  0  0
  -28.2569  -38.0091   24.7502 H   0  0  0  0  0  0
  -28.1087  -36.2616   24.6291 H   0  0  0  0  0  0
  -27.2288  -37.1422   25.8863 H   0  0  0  0  0  0
  -20.9559  -29.8757   21.6713 H   0  0  0  0  0  0
  -26.0136  -38.2782   24.1408 H   0  0  0  0  0  0
  -24.4808  -20.5987   21.2630 H   0  0  0  0  0  0
  -24.9898  -22.1261   21.9522 H   0  0  0  0  0  0
  -31.4623  -18.0628   20.5870 H   0  0  0  0  0  0
  -30.3943  -18.0316   22.0087 H   0  0  0  0  0  0
  -28.2258  -16.8835   19.2352 H   0  0  0  0  0  0
  -27.9245  -17.0915   20.9820 H   0  0  0  0  0  0
  -22.8134  -22.8318   21.6822 H   0  0  0  0  0  0
  -22.4299  -21.5361   20.5446 H   0  0  0  0  0  0
  -24.9801  -23.8092   18.5711 H   0  0  0  0  0  0
  -24.9910  -24.1605   20.3233 H   0  0  0  0  0  0
  -25.0130  -21.4733   18.9762 H   0  0  0  0  0  0
  -29.7566  -18.7497   19.1220 H   0  0  0  0  0  0
  -26.0143  -18.1057   17.7153 H   0  0  0  0  0  0
  -27.6706  -18.6990   17.7695 H   0  0  0  0  0  0
  -26.3605  -19.7928   17.3512 H   0  0  0  0  0  0
  -27.0163  -24.4365   21.3706 H   0  0  0  0  0  0
  -26.9589  -24.4257   19.6273 H   0  0  0  0  0  0
  -26.5646  -18.4736   20.1360 H   0  0  0  0  0  0
  -25.3843  -19.5309   19.6229 H   0  0  0  0  0  0
  1 25  1  0  0  0
  1 30  2  0  0  0
  1 86  1  0  0  0
  2  3  1  0  0  0
  2 25  1  0  0  0
  2 88  1  0  0  0
  2 89  1  0  0  0
  3  4  1  0  0  0
  3 90  1  0  0  0
  3 91  1  0  0  0
  4  5  1  0  0  0
  4 92  1  0  0  0
  4 93  1  0  0  0
  5  6  1  0  0  0
  5 26  1  0  0  0
  5 94  1  0  0  0
  6 25  1  0  0  0
  6 95  1  0  0  0
  6 96  1  0  0  0
  7  8  2  0  0  0
  7 26  1  0  0  0
  7 29  1  0  0  0
  8  9  1  0  0  0
  8 22  1  0  0  0
  9 10  1  0  0  0
  9 27  2  0  0  0
 10 11  2  0  0  0
 10 15  1  0  0  0
 11 12  1  0  0  0
 11 97  1  0  0  0
 12 13  2  0  0  0
 12 98  1  0  0  0
 13 14  1  0  0  0
 13 31  1  0  0  0
 14 15  2  0  0  0
 14 99  1  0  0  0
 15100  1  0  0  0
 16 17  2  0  0  0
 16 21  1  0  0  0
 16 31  1  0  0  0
 17 18  1  0  0  0
 17101  1  0  0  0
 18 19  2  0  0  0
 18102  1  0  0  0
 19 20  1  0  0  0
 19 24  1  0  0  0
 20 21  2  0  0  0
 20103  1  0  0  0
 21 23  1  0  0  0
 22 28  1  0  0  0
 22 32  2  0  0  0
 26 27  1  0  0  0
 28104  1  0  0  0
 28105  1  0  0  0
 29106  1  0  0  0
 29107  1  0  0  0
 33 34  1  0  0  0
 33 66  1  0  0  0
 33 70  2  0  0  0
 34 36  1  0  0  0
 34 59  1  0  0  0
 34108  1  0  0  0
 35 44  2  0  0  0
 35 45  1  0  0  0
 35 68  1  0  0  0
 36 56  1  0  0  0
 36109  1  0  0  0
 37 39  1  0  0  0
 37 47  1  0  0  0
 37 66  1  0  0  0
 37110  1  0  0  0
 38 43  2  0  0  0
 38 46  1  0  0  0
 38 47  1  0  0  0
 39 64  1  0  0  0
 39 67  2  0  0  0
 40 52  1  0  0  0
 40 53  2  0  0  0
 40 58  1  0  0  0
 41111  1  0  0  0
 41112  1  0  0  0
 41113  1  0  0  0
 41 48  1  0  0  0
 42 43  1  0  0  0
 42 66  1  0  0  0
 42114  1  0  0  0
 42115  1  0  0  0
 43 44  1  0  0  0
 44116  1  0  0  0
 45 46  2  0  0  0
 45117  1  0  0  0
 46118  1  0  0  0
 47119  1  0  0  0
 47120  1  0  0  0
 48 56  1  0  0  0
 48 65  1  0  0  0
 48121  1  0  0  0
 49 50  1  0  0  0
 49 53  1  0  0  0
 49 64  1  0  0  0
 49122  1  0  0  0
 50 51  1  0  0  0
 50123  1  0  0  0
 50124  1  0  0  0
 51 52  1  0  0  0
 51125  1  0  0  0
 51126  1  0  0  0
 52127  1  0  0  0
 52128  1  0  0  0
 53 54  1  0  0  0
 54 55  2  0  0  0
 54129  1  0  0  0
 55 57  1  0  0  0
 55130  1  0  0  0
 56 69  2  0  0  0
 57 58  2  0  0  0
 57131  1  0  0  0
 58132  1  0  0  0
 59 60  1  0  0  0
 59 61  1  0  0  0
 59 62  1  0  0  0
 60133  1  0  0  0
 60134  1  0  0  0
 60135  1  0  0  0
 61136  1  0  0  0
 61137  1  0  0  0
 61138  1  0  0  0
 62139  1  0  0  0
 62140  1  0  0  0
 62141  1  0  0  0
 63 65  1  0  0  0
 63142  1  0  0  0
 63143  1  0  0  0
 63144  1  0  0  0
 64145  1  0  0  0
 65146  1  0  0  0
 68 82  1  0  0  0
 71 72  2  0  0  0
 71 85  1  0  0  0
 71 79  1  0  0  0
 72 82  1  0  0  0
 72 84  1  0  0  0
 73 84  2  0  0  0
 73 85  1  0  0  0
 73 80  1  0  0  0
 74 77  1  0  0  0
 74 79  1  0  0  0
 74147  1  0  0  0
 74148  1  0  0  0
 75 80  1  0  0  0
 75 86  1  0  0  0
 75149  1  0  0  0
 75150  1  0  0  0
 76 80  1  0  0  0
 76 86  1  0  0  0
 76151  1  0  0  0
 76152  1  0  0  0
 77 87  1  0  0  0
 77153  1  0  0  0
 77154  1  0  0  0
 78 79  1  0  0  0
 78 87  1  0  0  0
 78155  1  0  0  0
 78156  1  0  0  0
 79157  1  0  0  0
 80158  1  0  0  0
 81 83  1  0  0  0
 81159  1  0  0  0
 81160  1  0  0  0
 81161  1  0  0  0
 82162  1  0  0  0
 82163  1  0  0  0
 83 85  1  0  0  0
 83164  1  0  0  0
 83165  1  0  0  0
M  ISO  4   1 100  68 101  82 101  86 100
M  END
> <chiral flag>
0

> <version>
0

> <s_m_source_file>
/data/baiqing/PycharmProjects/Reinvent-master-3.2/result/LINK_invent/BTK/process_docking_weight1_custom_sum_contain_oxygen_bond_distance_aromatic_linkinvent_7_9_3/rearranged_h_0184.sdf

> <i_m_source_file_index>
71

> <r_mmod_Potential_Energy-OPLS-2005>
1314.05346679688

> <r_mmod_Stretch_Energy-OPLS-2005>
438.389495849609

> <r_mmod_Bend_Energy-OPLS-2005>
582.350219726562

> <r_mmod_Torsional_Energy-OPLS-2005>
340.963226318359

> <r_mmod_Improper_Torsional_Energy-OPLS-2005>
5.64286613464355

> <r_mmod_Van_der_Waal_Energy-OPLS-2005>
130.038711547852

> <r_mmod_Electrostatic_Energy-OPLS-2005>
-295.373748779297

> <r_mmod_Solvation_Energy-OPLS-2005>
-245.125595092773

> <b_mmod_Minimization_Converged-OPLS-2005>
0

> <r_mmod_RMS_Derivative-OPLS-2005>
0.758805632591248

$$$$
71
                    3D
 Structure written by MMmdl.
167176  0  0  1  0            999 V2000
  -30.6095  -14.8406   20.4951 C   0  0  0  0  0  0
  -30.4426  -12.5489   19.4857 C   0  0  0  0  0  0
  -29.5148  -12.5356   18.2509 C   0  0  0  0  0  0
  -28.0505  -12.3003   18.6659 C   0  0  0  0  0  0
  -27.6279  -13.2029   19.8493 C   0  0  2  0  0  0
  -28.6788  -13.2057   20.9876 C   0  0  0  0  0  0
  -25.2390  -13.8063   20.5629 C   0  0  0  0  0  0
  -24.1725  -13.0361   20.9221 C   0  0  0  0  0  0
  -24.6336  -11.6831   20.8806 C   0  0  0  0  0  0
  -23.9018  -10.4248   21.0431 C   0  0  0  0  0  0
  -24.3589   -9.4167   21.9190 C   0  0  0  0  0  0
  -23.6279   -8.2208   22.0763 C   0  0  0  0  0  0
  -22.4253   -8.0261   21.3552 C   0  0  0  0  0  0
  -21.9890   -9.0223   20.4633 C   0  0  0  0  0  0
  -22.7216  -10.2092   20.3051 C   0  0  0  0  0  0
  -21.6844   -6.0735   22.5280 C   0  0  0  0  0  0
  -21.4026   -6.5659   23.8204 C   0  0  0  0  0  0
  -21.3633   -5.6810   24.9167 C   0  0  0  0  0  0
  -21.6025   -4.3078   24.7209 C   0  0  0  0  0  0
  -21.8833   -3.8161   23.4346 C   0  0  0  0  0  0
  -21.9208   -4.6976   22.3399 C   0  0  0  0  0  0
  -22.7744  -13.5139   21.1855 C   0  0  0  0  0  0
  -22.1681   -4.2165   21.0978 F   0  0  0  0  0  0
  -21.5590   -3.4554   25.7717 F   0  0  0  0  0  0
  -29.9586  -13.6197   20.3939 N   0  0  0  0  0  0
  -26.2850  -12.9251   20.3308 N   0  0  0  0  0  0
  -25.9272  -11.6421   20.5842 N   0  0  0  0  0  0
  -22.0430  -12.8121   22.0412 N   0  0  0  0  0  0
  -25.3827  -15.1807   20.3853 N   0  0  0  0  0  0
  -31.8206  -14.8656   20.2570 O   0  0  0  0  0  0
  -21.6638   -6.8861   21.4224 O   0  0  0  0  0  0
  -22.3433  -14.5451   20.6695 O   0  0  0  0  0  0
  -24.6321  -31.8538   23.2029 C   0  0  0  0  0  0
  -25.9160  -32.4751   23.8352 C   0  0  1  0  0  0
  -27.2296  -27.2894   20.1501 C   0  0  0  0  0  0
  -25.5929  -33.8547   24.2238 N   0  0  0  0  0  0
  -23.4226  -30.4802   21.5456 C   0  0  2  0  0  0
  -24.8689  -28.9184   20.1250 C   0  0  0  0  0  0
  -22.7504  -29.4584   22.4929 C   0  0  0  0  0  0
  -18.0269  -28.1358   22.8489 C   0  0  0  0  0  0
  -24.1454  -36.7323   23.2642 C   0  0  0  0  0  0
  -25.9634  -30.7908   21.3569 C   0  0  0  0  0  0
  -26.0434  -29.4061   20.7159 C   0  0  0  0  0  0
  -27.2334  -28.6125   20.6996 C   0  0  0  0  0  0
  -26.0316  -26.8491   19.5491 C   0  0  0  0  0  0
  -24.8678  -27.6466   19.5260 C   0  0  0  0  0  0
  -23.6399  -29.8119   20.1617 C   0  0  0  0  0  0
  -25.4079  -36.3032   24.0297 C   0  0  1  0  0  0
  -20.5888  -28.3655   23.1292 C   0  0  2  0  0  0
  -20.6714  -26.9376   22.5422 C   0  0  0  0  0  0
  -19.5692  -26.6354   21.5196 C   0  0  0  0  0  0
  -18.1887  -26.7901   22.1619 C   0  0  0  0  0  0
  -19.1533  -28.8819   23.2884 C   0  0  0  0  0  0
  -18.9461  -30.1426   23.8897 C   0  0  0  0  0  0
  -17.6464  -30.6565   24.0558 C   0  0  0  0  0  0
  -25.9046  -34.9418   23.5063 C   0  0  0  0  0  0
  -16.5354  -29.9080   23.6306 C   0  0  0  0  0  0
  -16.7261  -28.6484   23.0356 C   0  0  0  0  0  0
  -26.4493  -31.6603   25.0766 C   0  0  0  0  0  0
  -25.3727  -31.3809   26.1507 C   0  0  0  0  0  0
  -27.0364  -30.3027   24.6239 C   0  0  0  0  0  0
  -27.5983  -32.4392   25.7626 C   0  0  0  0  0  0
  -27.5531  -37.1829   24.8446 C   0  0  0  0  0  0
  -21.4206  -29.3036   22.3722 N   0  0  0  0  0  0
  -26.4209  -37.3767   23.9423 N   0  0  0  0  0  0
  -24.6932  -31.0585   22.0926 N   0  0  0  0  0  0
  -23.4254  -28.8084   23.2953 O   0  0  0  0  0  0
  -28.3314  -26.4136   20.1420 O   0  0  0  0  0  0
  -26.5642  -34.8895   22.4651 O   0  0  0  0  0  0
  -23.5497  -32.1268   23.7417 O   0  0  0  0  0  0
  -29.1379  -23.6843   18.9543 C   0  0  0  0  0  0
  -29.5729  -22.4694   18.3974 C   0  0  0  0  0  0
  -28.7400  -23.7339   20.3012 C   0  0  0  0  0  0
  -28.8287  -22.4646   21.0354 C   0  0  0  0  0  0
  -29.3192  -21.2527   20.3789 C   0  0  0  0  0  0
  -28.2780  -17.8971   20.3515 C   0  0  0  0  0  0
  -28.5618  -16.3731   20.2661 C   0  0  0  0  0  0
  -30.5044  -17.4309   21.0059 C   0  0  0  0  0  0
  -29.6287  -18.6003   20.3538 C   0  0  2  0  0  0
  -27.3443  -21.3118   22.8278 C   0  0  0  0  0  0
  -30.1037  -23.7198   23.7748 C   0  0  0  0  0  0
  -28.1903  -25.1192   20.8790 C   0  0  0  0  0  0
  -28.3589  -22.4323   22.5081 C   0  0  1  0  0  0
  -29.6554  -21.3007   19.0759 N   0  0  0  0  0  0
  -29.9219  -16.0554   20.7216 N   0  0  0  0  0  0
  -29.5616  -19.9683   21.0118 N   0  0  0  0  0  0
  -29.5031  -22.4101   23.4548 N   0  3  0  0  0  0
  -31.4676  -12.7256   19.1604 H   0  0  0  0  0  0
  -30.4541  -11.5849   19.9949 H   0  0  0  0  0  0
  -29.8384  -11.7774   17.5381 H   0  0  0  0  0  0
  -29.5876  -13.4941   17.7340 H   0  0  0  0  0  0
  -27.9437  -11.2493   18.9379 H   0  0  0  0  0  0
  -27.3898  -12.4694   17.8159 H   0  0  0  0  0  0
  -27.5729  -14.1823   19.3990 H   0  0  0  0  0  0
  -28.7649  -12.2125   21.4311 H   0  0  0  0  0  0
  -28.3911  -13.8680   21.8062 H   0  0  0  0  0  0
  -25.2738   -9.5665   22.4752 H   0  0  0  0  0  0
  -23.9993   -7.4608   22.7499 H   0  0  0  0  0  0
  -21.0828   -8.8746   19.8928 H   0  0  0  0  0  0
  -22.3697  -10.9639   19.6161 H   0  0  0  0  0  0
  -21.2054   -7.6174   23.9704 H   0  0  0  0  0  0
  -21.1404   -6.0547   25.9053 H   0  0  0  0  0  0
  -22.0627   -2.7627   23.2858 H   0  0  0  0  0  0
  -22.4134  -11.9827   22.4822 H   0  0  0  0  0  0
  -21.1009  -13.1014   22.2558 H   0  0  0  0  0  0
  -24.5863  -15.8022   20.4768 H   0  0  0  0  0  0
  -26.2015  -15.6395   20.0125 H   0  0  0  0  0  0
  -26.7274  -32.5418   23.1151 H   0  0  0  0  0  0
  -24.9991  -33.9678   25.0316 H   0  0  0  0  0  0
  -22.7161  -31.3019   21.4106 H   0  0  0  0  0  0
  -23.3647  -35.9718   23.3235 H   0  0  0  0  0  0
  -24.3524  -36.9058   22.2074 H   0  0  0  0  0  0
  -23.7286  -37.6525   23.6743 H   0  0  0  0  0  0
  -26.0796  -31.5409   20.5723 H   0  0  0  0  0  0
  -26.8531  -30.8643   21.9707 H   0  0  0  0  0  0
  -28.1489  -29.0011   21.1258 H   0  0  0  0  0  0
  -26.0029  -25.8634   19.1038 H   0  0  0  0  0  0
  -23.9692  -27.2712   19.0540 H   0  0  0  0  0  0
  -23.7783  -30.5932   19.4125 H   0  0  0  0  0  0
  -22.7499  -29.2626   19.8464 H   0  0  0  0  0  0
  -25.1262  -36.1805   25.0780 H   0  0  0  0  0  0
  -20.9985  -28.3199   24.1403 H   0  0  0  0  0  0
  -20.5492  -26.2308   23.3646 H   0  0  0  0  0  0
  -21.6599  -26.7296   22.1315 H   0  0  0  0  0  0
  -19.6837  -25.6255   21.1246 H   0  0  0  0  0  0
  -19.6591  -27.3129   20.6705 H   0  0  0  0  0  0
  -17.4163  -26.6649   21.4031 H   0  0  0  0  0  0
  -18.0271  -26.0025   22.8996 H   0  0  0  0  0  0
  -19.7947  -30.7211   24.2303 H   0  0  0  0  0  0
  -17.5027  -31.6237   24.5170 H   0  0  0  0  0  0
  -15.5354  -30.2992   23.7591 H   0  0  0  0  0  0
  -15.8666  -28.0780   22.7095 H   0  0  0  0  0  0
  -24.5876  -30.7139   25.7912 H   0  0  0  0  0  0
  -24.8952  -32.3036   26.4832 H   0  0  0  0  0  0
  -25.8068  -30.9106   27.0347 H   0  0  0  0  0  0
  -26.2985  -29.6820   24.1144 H   0  0  0  0  0  0
  -27.3940  -29.7218   25.4752 H   0  0  0  0  0  0
  -27.8871  -30.4298   23.9542 H   0  0  0  0  0  0
  -27.2475  -33.3697   26.2086 H   0  0  0  0  0  0
  -28.3904  -32.6957   25.0593 H   0  0  0  0  0  0
  -28.0488  -31.8609   26.5692 H   0  0  0  0  0  0
  -28.2517  -38.0152   24.7480 H   0  0  0  0  0  0
  -28.1049  -36.2688   24.6226 H   0  0  0  0  0  0
  -27.2289  -37.1466   25.8859 H   0  0  0  0  0  0
  -20.9357  -29.8924   21.7092 H   0  0  0  0  0  0
  -26.0024  -38.2802   24.1458 H   0  0  0  0  0  0
  -29.0880  -24.5698   18.3316 H   0  0  0  0  0  0
  -29.8675  -22.4320   17.3594 H   0  0  0  0  0  0
  -27.7469  -18.1135   21.2813 H   0  0  0  0  0  0
  -27.6411  -18.2465   19.5367 H   0  0  0  0  0  0
  -28.4703  -16.0724   19.2222 H   0  0  0  0  0  0
  -27.8362  -15.8517   20.8837 H   0  0  0  0  0  0
  -30.5131  -17.5542   22.0908 H   0  0  0  0  0  0
  -31.5419  -17.4999   20.6780 H   0  0  0  0  0  0
  -29.9603  -18.7192   19.3226 H   0  0  0  0  0  0
  -26.5697  -21.2395   22.0605 H   0  0  0  0  0  0
  -26.8361  -21.5112   23.7736 H   0  0  0  0  0  0
  -27.8032  -20.3304   22.9261 H   0  0  0  0  0  0
  -30.9980  -23.5836   24.3837 H   0  0  0  0  0  0
  -29.3997  -24.3271   24.3437 H   0  0  0  0  0  0
  -30.3991  -24.2569   22.8741 H   0  0  0  0  0  0
  -28.7299  -25.3009   21.8054 H   0  0  0  0  0  0
  -27.1577  -24.9615   21.1858 H   0  0  0  0  0  0
  -27.7893  -23.3357   22.7112 H   0  0  0  0  0  0
  -29.4269  -19.9133   22.0120 H   0  0  0  0  0  0
  -29.1948  -22.0159   24.3295 H   0  0  0  0  0  0
  -30.2333  -21.8223   23.0922 H   0  0  0  0  0  0
  1 25  1  0  0  0
  1 30  2  0  0  0
  1 85  1  0  0  0
  2  3  1  0  0  0
  2 25  1  0  0  0
  2 88  1  0  0  0
  2 89  1  0  0  0
  3  4  1  0  0  0
  3 90  1  0  0  0
  3 91  1  0  0  0
  4  5  1  0  0  0
  4 92  1  0  0  0
  4 93  1  0  0  0
  5  6  1  0  0  0
  5 26  1  0  0  0
  5 94  1  0  0  0
  6 25  1  0  0  0
  6 95  1  0  0  0
  6 96  1  0  0  0
  7  8  2  0  0  0
  7 26  1  0  0  0
  7 29  1  0  0  0
  8  9  1  0  0  0
  8 22  1  0  0  0
  9 10  1  0  0  0
  9 27  2  0  0  0
 10 11  2  0  0  0
 10 15  1  0  0  0
 11 12  1  0  0  0
 11 97  1  0  0  0
 12 13  2  0  0  0
 12 98  1  0  0  0
 13 14  1  0  0  0
 13 31  1  0  0  0
 14 15  2  0  0  0
 14 99  1  0  0  0
 15100  1  0  0  0
 16 17  2  0  0  0
 16 21  1  0  0  0
 16 31  1  0  0  0
 17 18  1  0  0  0
 17101  1  0  0  0
 18 19  2  0  0  0
 18102  1  0  0  0
 19 20  1  0  0  0
 19 24  1  0  0  0
 20 21  2  0  0  0
 20103  1  0  0  0
 21 23  1  0  0  0
 22 28  1  0  0  0
 22 32  2  0  0  0
 26 27  1  0  0  0
 28104  1  0  0  0
 28105  1  0  0  0
 29106  1  0  0  0
 29107  1  0  0  0
 33 34  1  0  0  0
 33 66  1  0  0  0
 33 70  2  0  0  0
 34 36  1  0  0  0
 34 59  1  0  0  0
 34108  1  0  0  0
 35 44  2  0  0  0
 35 45  1  0  0  0
 35 68  1  0  0  0
 36 56  1  0  0  0
 36109  1  0  0  0
 37 39  1  0  0  0
 37 47  1  0  0  0
 37 66  1  0  0  0
 37110  1  0  0  0
 38 43  2  0  0  0
 38 46  1  0  0  0
 38 47  1  0  0  0
 39 64  1  0  0  0
 39 67  2  0  0  0
 40 52  1  0  0  0
 40 53  2  0  0  0
 40 58  1  0  0  0
 41111  1  0  0  0
 41112  1  0  0  0
 41113  1  0  0  0
 41 48  1  0  0  0
 42 43  1  0  0  0
 42 66  1  0  0  0
 42114  1  0  0  0
 42115  1  0  0  0
 43 44  1  0  0  0
 44116  1  0  0  0
 45 46  2  0  0  0
 45117  1  0  0  0
 46118  1  0  0  0
 47119  1  0  0  0
 47120  1  0  0  0
 48 56  1  0  0  0
 48 65  1  0  0  0
 48121  1  0  0  0
 49 50  1  0  0  0
 49 53  1  0  0  0
 49 64  1  0  0  0
 49122  1  0  0  0
 50 51  1  0  0  0
 50123  1  0  0  0
 50124  1  0  0  0
 51 52  1  0  0  0
 51125  1  0  0  0
 51126  1  0  0  0
 52127  1  0  0  0
 52128  1  0  0  0
 53 54  1  0  0  0
 54 55  2  0  0  0
 54129  1  0  0  0
 55 57  1  0  0  0
 55130  1  0  0  0
 56 69  2  0  0  0
 57 58  2  0  0  0
 57131  1  0  0  0
 58132  1  0  0  0
 59 60  1  0  0  0
 59 61  1  0  0  0
 59 62  1  0  0  0
 60133  1  0  0  0
 60134  1  0  0  0
 60135  1  0  0  0
 61136  1  0  0  0
 61137  1  0  0  0
 61138  1  0  0  0
 62139  1  0  0  0
 62140  1  0  0  0
 62141  1  0  0  0
 63 65  1  0  0  0
 63142  1  0  0  0
 63143  1  0  0  0
 63144  1  0  0  0
 64145  1  0  0  0
 65146  1  0  0  0
 68 82  1  0  0  0
 71 72  2  0  0  0
 71 73  1  0  0  0
 71147  1  0  0  0
 72 84  1  0  0  0
 72148  1  0  0  0
 73 74  2  0  0  0
 73 82  1  0  0  0
 74 75  1  0  0  0
 74 83  1  0  0  0
 75 84  2  0  0  0
 75 86  1  0  0  0
 76 77  1  0  0  0
 76 79  1  0  0  0
 76149  1  0  0  0
 76150  1  0  0  0
 77 85  1  0  0  0
 77151  1  0  0  0
 77152  1  0  0  0
 78 79  1  0  0  0
 78 85  1  0  0  0
 78153  1  0  0  0
 78154  1  0  0  0
 79 86  1  0  0  0
 79155  1  0  0  0
 80156  1  0  0  0
 80157  1  0  0  0
 80158  1  0  0  0
 80 83  1  0  0  0
 81 87  1  0  0  0
 81159  1  0  0  0
 81160  1  0  0  0
 81161  1  0  0  0
 82162  1  0  0  0
 82163  1  0  0  0
 83 87  1  0  0  0
 83164  1  0  0  0
 86165  1  0  0  0
 87166  1  0  0  0
 87167  1  0  0  0
M  CHG  1  87   1
M  ISO  4   1 100  68 101  82 101  85 100
M  END
> <chiral flag>
0

> <version>
0

> <s_m_source_file>
/data/baiqing/PycharmProjects/Reinvent-master-3.2/result/LINK_invent/BTK/process_docking_weight1_custom_sum_contain_oxygen_bond_distance_aromatic_linkinvent_7_9_3/rearranged_h_0184.sdf

> <i_m_source_file_index>
72

> <r_mmod_Potential_Energy-OPLS-2005>
49.3874206542969

> <r_mmod_Stretch_Energy-OPLS-2005>
125.892311096191

> <r_mmod_Bend_Energy-OPLS-2005>
210.523559570312

> <r_mmod_Torsional_Energy-OPLS-2005>
337.801696777344

> <r_mmod_Improper_Torsional_Energy-OPLS-2005>
5.25761413574219

> <r_mmod_Van_der_Waal_Energy-OPLS-2005>
136.63899230957

> <r_mmod_Electrostatic_Energy-OPLS-2005>
-376.318634033203

> <r_mmod_Solvation_Energy-OPLS-2005>
-495.1025390625

> <b_mmod_Minimization_Converged-OPLS-2005>
0

> <r_mmod_RMS_Derivative-OPLS-2005>
5.44340133666992

$$$$
72
                    3D
 Structure written by MMmdl.
163171  0  0  1  0            999 V2000
  -29.7073  -15.7665   20.8837 C   0  0  0  0  0  0
  -30.3292  -13.2885   19.7743 C   0  0  0  0  0  0
  -29.5710  -12.7943   18.4848 C   0  0  0  0  0  0
  -28.1435  -12.3310   18.8114 C   0  0  0  0  0  0
  -27.5439  -13.2797   19.8681 C   0  0  2  0  0  0
  -28.4301  -13.4811   21.1010 C   0  0  0  0  0  0
  -25.1955  -13.8148   20.5641 C   0  0  0  0  0  0
  -24.1400  -13.0340   20.9235 C   0  0  0  0  0  0
  -24.6091  -11.6840   20.8697 C   0  0  0  0  0  0
  -23.8886  -10.4225   21.0412 C   0  0  0  0  0  0
  -24.3520   -9.4177   21.9179 C   0  0  0  0  0  0
  -23.6246   -8.2194   22.0739 C   0  0  0  0  0  0
  -22.4225   -8.0210   21.3538 C   0  0  0  0  0  0
  -21.9816   -9.0156   20.4628 C   0  0  0  0  0  0
  -22.7093  -10.2054   20.3036 C   0  0  0  0  0  0
  -21.6829   -6.0687   22.5292 C   0  0  0  0  0  0
  -21.4004   -6.5608   23.8222 C   0  0  0  0  0  0
  -21.3662   -5.6773   24.9191 C   0  0  0  0  0  0
  -21.6052   -4.3034   24.7248 C   0  0  0  0  0  0
  -21.8821   -3.8112   23.4371 C   0  0  0  0  0  0
  -21.9192   -4.6921   22.3420 C   0  0  0  0  0  0
  -22.7479  -13.5146   21.1960 C   0  0  0  0  0  0
  -22.1654   -4.2110   21.0992 F   0  0  0  0  0  0
  -21.5643   -3.4517   25.7758 F   0  0  0  0  0  0
  -29.5219  -14.3160   20.6416 N   0  0  0  0  0  0
  -26.2217  -12.9362   20.2974 N   0  0  0  0  0  0
  -25.8966  -11.6487   20.5550 N   0  0  0  0  0  0
  -22.0170  -12.8146   22.0535 N   0  0  0  0  0  0
  -25.3661  -15.1902   20.4196 N   0  0  0  0  0  0
  -30.9020  -15.9344   20.4994 O   0  0  0  0  0  0
  -21.6603   -6.8807   21.4244 O   0  0  0  0  0  0
  -22.3208  -14.5493   20.6832 O   0  0  0  0  0  0
  -24.8278  -31.8497   23.2357 C   0  0  0  0  0  0
  -26.0319  -32.5280   23.8968 C   0  0  1  0  0  0
  -25.4640  -27.4413   20.4280 C   0  0  0  0  0  0
  -25.6411  -33.8895   24.2654 N   0  0  0  0  0  0
  -24.1314  -30.0071   21.7873 C   0  0  2  0  0  0
  -25.4128  -29.6914   19.5214 C   0  0  0  0  0  0
  -24.0673  -28.3467   22.5922 C   0  0  0  0  0  0
  -18.2132  -27.8869   22.6961 C   0  0  0  0  0  0
  -24.1454  -36.7382   23.2566 C   0  0  0  0  0  0
  -26.3720  -30.7935   21.5534 C   0  0  0  0  0  0
  -26.3340  -29.6352   20.5552 C   0  0  0  0  0  0
  -26.5109  -28.3134   20.9600 C   0  0  0  0  0  0
  -25.7822  -27.2960   19.1049 C   0  0  0  0  0  0
  -25.3341  -28.5513   18.6250 C   0  0  0  0  0  0
  -24.2014  -30.3205   20.1325 C   0  0  0  0  0  0
  -25.4065  -36.3227   24.0308 C   0  0  1  0  0  0
  -20.9760  -27.1991   22.7776 C   0  0  2  0  0  0
  -20.5620  -26.1025   21.9233 C   0  0  0  0  0  0
  -19.3469  -26.3957   21.0982 C   0  0  0  0  0  0
  -18.1189  -26.5985   21.9578 C   0  0  0  0  0  0
  -19.5279  -28.2915   23.1343 C   0  0  0  0  0  0
  -19.2703  -29.5054   23.9622 C   0  0  0  0  0  0
  -18.0540  -30.2698   24.0878 C   0  0  0  0  0  0
  -25.9095  -34.9650   23.5171 C   0  0  0  0  0  0
  -16.8594  -29.7860   23.5550 C   0  0  0  0  0  0
  -16.9595  -28.5563   22.8988 C   0  0  0  0  0  0
  -26.5103  -31.7014   25.1462 C   0  0  0  0  0  0
  -25.3810  -31.3908   26.1589 C   0  0  0  0  0  0
  -27.1710  -30.3641   24.7387 C   0  0  0  0  0  0
  -27.6166  -32.4933   25.8674 C   0  0  0  0  0  0
  -27.5537  -37.1919   24.8487 C   0  0  0  0  0  0
  -22.8432  -27.2424   22.4785 N   0  0  0  0  0  0
  -26.4254  -37.3914   23.9412 N   0  0  0  0  0  0
  -25.1109  -30.8985   22.3101 N   0  0  0  0  0  0
  -24.7611  -28.3062   23.5583 O   0  0  0  0  0  0
  -23.9176  -27.7649   20.2886 O   0  0  0  0  0  0
  -26.5457  -34.9055   22.4607 O   0  0  0  0  0  0
  -23.6858  -32.1311   23.6433 O   0  0  0  0  0  0
  -25.2848  -23.1443   23.3669 C   0  0  0  0  0  0
  -24.8842  -21.7926   22.7816 C   0  0  0  0  0  0
  -26.7372  -22.6975   23.3566 C   0  0  0  0  0  0
  -27.0271  -20.1728   22.4097 C   0  0  0  0  0  0
  -23.4003  -21.6629   22.5098 C   0  0  0  0  0  0
  -27.6892  -23.7822   23.8127 C   0  0  0  0  0  0
  -24.3967  -24.9139   23.6101 C   0  0  0  0  0  0
  -28.1110  -18.7241   21.5592 C   0  0  0  0  0  0
  -23.2760  -26.2867   24.7243 C   0  0  0  0  0  0
  -21.9574  -29.3181   23.2003 C   0  0  0  0  0  0
  -22.2386  -28.8072   20.9535 C   0  0  0  0  0  0
  -25.6380  -20.5477   22.3656 N   0  0  0  0  0  0
  -27.4564  -21.4381   22.9410 N   0  0  0  0  0  0
  -28.6476  -16.9095   21.4049 N   0  0  0  0  0  0
  -22.4760  -28.0628   24.6492 N   0  3  0  0  0  0
  -31.2745  -13.7302   19.4580 H   0  0  0  0  0  0
  -30.6244  -12.4326   20.3846 H   0  0  0  0  0  0
  -30.1299  -12.0008   17.9851 H   0  0  0  0  0  0
  -29.5159  -13.6235   17.7776 H   0  0  0  0  0  0
  -28.1900  -11.3163   19.2099 H   0  0  0  0  0  0
  -27.5274  -12.2960   17.9118 H   0  0  0  0  0  0
  -27.4519  -14.2403   19.3568 H   0  0  0  0  0  0
  -28.7464  -12.5317   21.5395 H   0  0  0  0  0  0
  -27.8875  -14.0135   21.8851 H   0  0  0  0  0  0
  -25.2661   -9.5699   22.4741 H   0  0  0  0  0  0
  -23.9970   -7.4586   22.7439 H   0  0  0  0  0  0
  -21.0761   -8.8642   19.8926 H   0  0  0  0  0  0
  -22.3536  -10.9581   19.6135 H   0  0  0  0  0  0
  -21.1974   -7.6114   23.9722 H   0  0  0  0  0  0
  -21.1489   -6.0496   25.9101 H   0  0  0  0  0  0
  -22.0597   -2.7570   23.2884 H   0  0  0  0  0  0
  -22.3806  -11.9829   22.4948 H   0  0  0  0  0  0
  -21.0779  -13.1148   22.2747 H   0  0  0  0  0  0
  -24.5762  -15.8207   20.4984 H   0  0  0  0  0  0
  -26.1816  -15.6268   20.0116 H   0  0  0  0  0  0
  -26.8790  -32.6057   23.2152 H   0  0  0  0  0  0
  -25.0579  -33.9941   25.0824 H   0  0  0  0  0  0
  -23.2629  -30.6490   21.8938 H   0  0  0  0  0  0
  -23.3704  -35.9733   23.3289 H   0  0  0  0  0  0
  -24.3561  -36.8911   22.1971 H   0  0  0  0  0  0
  -23.7232  -37.6638   23.6512 H   0  0  0  0  0  0
  -26.5213  -31.7226   20.9979 H   0  0  0  0  0  0
  -27.2543  -30.6652   22.1715 H   0  0  0  0  0  0
  -26.9828  -28.0992   21.9101 H   0  0  0  0  0  0
  -25.4098  -26.4648   18.5209 H   0  0  0  0  0  0
  -24.7117  -28.5803   17.7420 H   0  0  0  0  0  0
  -24.2862  -31.4015   19.9958 H   0  0  0  0  0  0
  -23.4304  -30.1113   19.4025 H   0  0  0  0  0  0
  -25.1208  -36.2073   25.0793 H   0  0  0  0  0  0
  -20.8684  -26.6620   23.7172 H   0  0  0  0  0  0
  -20.3722  -25.1889   22.4946 H   0  0  0  0  0  0
  -21.3643  -25.8207   21.2399 H   0  0  0  0  0  0
  -19.1773  -25.5302   20.4537 H   0  0  0  0  0  0
  -19.4898  -27.2334   20.4161 H   0  0  0  0  0  0
  -17.2448  -26.6062   21.3034 H   0  0  0  0  0  0
  -17.9840  -25.7747   22.6603 H   0  0  0  0  0  0
  -20.0210  -29.8764   24.6417 H   0  0  0  0  0  0
  -18.0412  -31.1703   24.6868 H   0  0  0  0  0  0
  -15.9183  -30.3034   23.6823 H   0  0  0  0  0  0
  -16.0476  -28.1246   22.5062 H   0  0  0  0  0  0
  -24.6384  -30.6986   25.7610 H   0  0  0  0  0  0
  -24.8549  -32.2985   26.4584 H   0  0  0  0  0  0
  -25.7736  -30.9370   27.0688 H   0  0  0  0  0  0
  -26.5320  -29.7166   24.1604 H   0  0  0  0  0  0
  -27.4626  -29.7903   25.6182 H   0  0  0  0  0  0
  -28.0850  -30.5292   24.1677 H   0  0  0  0  0  0
  -27.2362  -33.4168   26.3045 H   0  0  0  0  0  0
  -28.4297  -32.7620   25.1921 H   0  0  0  0  0  0
  -28.0512  -31.9178   26.6858 H   0  0  0  0  0  0
  -28.2594  -38.0172   24.7453 H   0  0  0  0  0  0
  -28.0986  -36.2698   24.6414 H   0  0  0  0  0  0
  -27.2236  -37.1715   25.8890 H   0  0  0  0  0  0
  -23.2229  -26.3138   22.5817 H   0  0  0  0  0  0
  -26.0114  -38.2966   24.1492 H   0  0  0  0  0  0
  -22.9515  -22.6415   22.3430 H   0  0  0  0  0  0
  -22.8846  -21.2123   23.3591 H   0  0  0  0  0  0
  -23.2062  -21.0652   21.6200 H   0  0  0  0  0  0
  -27.6286  -24.6261   23.1267 H   0  0  0  0  0  0
  -28.7245  -23.4484   23.8488 H   0  0  0  0  0  0
  -27.4105  -24.1398   24.8067 H   0  0  0  0  0  0
  -23.8332  -24.8777   22.6799 H   0  0  0  0  0  0
  -25.2520  -25.5429   23.3678 H   0  0  0  0  0  0
  -29.0489  -19.2507   21.3808 H   0  0  0  0  0  0
  -27.6203  -18.7877   20.5870 H   0  0  0  0  0  0
  -23.8315  -26.3419   25.6609 H   0  0  0  0  0  0
  -22.4150  -25.6792   25.0007 H   0  0  0  0  0  0
  -21.3075  -30.1721   23.2359 H   0  0  0  0  0  0
  -22.6259  -30.0358   23.6642 H   0  0  0  0  0  0
  -21.8614  -29.6659   20.4078 H   0  0  0  0  0  0
  -21.4369  -28.1676   20.6000 H   0  0  0  0  0  0
  -27.8399  -16.3836   21.7016 H   0  0  0  0  0  0
  -21.7276  -28.0457   25.3257 H   0  0  0  0  0  0
  -23.2221  -28.5767   25.0960 H   0  0  0  0  0  0
  1 25  1  0  0  0
  1 30  2  0  0  0
  1 84  1  0  0  0
  2  3  1  0  0  0
  2 25  1  0  0  0
  2 86  1  0  0  0
  2 87  1  0  0  0
  3  4  1  0  0  0
  3 88  1  0  0  0
  3 89  1  0  0  0
  4  5  1  0  0  0
  4 90  1  0  0  0
  4 91  1  0  0  0
  5  6  1  0  0  0
  5 26  1  0  0  0
  5 92  1  0  0  0
  6 25  1  0  0  0
  6 93  1  0  0  0
  6 94  1  0  0  0
  7  8  2  0  0  0
  7 26  1  0  0  0
  7 29  1  0  0  0
  8  9  1  0  0  0
  8 22  1  0  0  0
  9 10  1  0  0  0
  9 27  2  0  0  0
 10 11  2  0  0  0
 10 15  1  0  0  0
 11 12  1  0  0  0
 11 95  1  0  0  0
 12 13  2  0  0  0
 12 96  1  0  0  0
 13 14  1  0  0  0
 13 31  1  0  0  0
 14 15  2  0  0  0
 14 97  1  0  0  0
 15 98  1  0  0  0
 16 17  2  0  0  0
 16 21  1  0  0  0
 16 31  1  0  0  0
 17 18  1  0  0  0
 17 99  1  0  0  0
 18 19  2  0  0  0
 18100  1  0  0  0
 19 20  1  0  0  0
 19 24  1  0  0  0
 20 21  2  0  0  0
 20101  1  0  0  0
 21 23  1  0  0  0
 22 28  1  0  0  0
 22 32  2  0  0  0
 26 27  1  0  0  0
 28102  1  0  0  0
 28103  1  0  0  0
 29104  1  0  0  0
 29105  1  0  0  0
 33 34  1  0  0  0
 33 66  1  0  0  0
 33 70  2  0  0  0
 34 36  1  0  0  0
 34 59  1  0  0  0
 34106  1  0  0  0
 35 44  2  0  0  0
 35 45  1  0  0  0
 35 68  1  0  0  0
 36 56  1  0  0  0
 36107  1  0  0  0
 37 39  1  0  0  0
 37 47  1  0  0  0
 37 66  1  0  0  0
 37108  1  0  0  0
 38 43  2  0  0  0
 38 46  1  0  0  0
 38 47  1  0  0  0
 39 64  1  0  0  0
 39 67  2  0  0  0
 40 52  1  0  0  0
 40 53  2  0  0  0
 40 58  1  0  0  0
 41109  1  0  0  0
 41110  1  0  0  0
 41111  1  0  0  0
 41 48  1  0  0  0
 42 43  1  0  0  0
 42 66  1  0  0  0
 42112  1  0  0  0
 42113  1  0  0  0
 43 44  1  0  0  0
 44114  1  0  0  0
 45 46  2  0  0  0
 45115  1  0  0  0
 46116  1  0  0  0
 47117  1  0  0  0
 47118  1  0  0  0
 48 56  1  0  0  0
 48 65  1  0  0  0
 48119  1  0  0  0
 49 50  1  0  0  0
 49 53  1  0  0  0
 49 64  1  0  0  0
 49120  1  0  0  0
 50 51  1  0  0  0
 50121  1  0  0  0
 50122  1  0  0  0
 51 52  1  0  0  0
 51123  1  0  0  0
 51124  1  0  0  0
 52125  1  0  0  0
 52126  1  0  0  0
 53 54  1  0  0  0
 54 55  2  0  0  0
 54127  1  0  0  0
 55 57  1  0  0  0
 55128  1  0  0  0
 56 69  2  0  0  0
 57 58  2  0  0  0
 57129  1  0  0  0
 58130  1  0  0  0
 59 60  1  0  0  0
 59 61  1  0  0  0
 59 62  1  0  0  0
 60131  1  0  0  0
 60132  1  0  0  0
 60133  1  0  0  0
 61134  1  0  0  0
 61135  1  0  0  0
 61136  1  0  0  0
 62137  1  0  0  0
 62138  1  0  0  0
 62139  1  0  0  0
 63 65  1  0  0  0
 63140  1  0  0  0
 63141  1  0  0  0
 63142  1  0  0  0
 64143  1  0  0  0
 65144  1  0  0  0
 68 81  1  0  0  0
 71 72  2  0  0  0
 71 73  1  0  0  0
 71 77  1  0  0  0
 72 75  1  0  0  0
 72 82  1  0  0  0
 73 76  1  0  0  0
 73 83  2  0  0  0
 74 78  1  0  0  0
 74 82  2  0  0  0
 74 83  1  0  0  0
 75145  1  0  0  0
 75146  1  0  0  0
 75147  1  0  0  0
 76148  1  0  0  0
 76149  1  0  0  0
 76150  1  0  0  0
 77 79  1  0  0  0
 77151  1  0  0  0
 77152  1  0  0  0
 78 84  1  0  0  0
 78153  1  0  0  0
 78154  1  0  0  0
 79 85  1  0  0  0
 79155  1  0  0  0
 79156  1  0  0  0
 80 81  1  0  0  0
 80 85  1  0  0  0
 80157  1  0  0  0
 80158  1  0  0  0
 81159  1  0  0  0
 81160  1  0  0  0
 84161  1  0  0  0
 85162  1  0  0  0
 85163  1  0  0  0
M  CHG  1  85   1
M  ISO  4   1 100  68 101  81 101  84 100
M  END
> <chiral flag>
0

> <version>
0

> <s_m_source_file>
/data/baiqing/PycharmProjects/Reinvent-master-3.2/result/LINK_invent/BTK/process_docking_weight1_custom_sum_contain_oxygen_bond_distance_aromatic_linkinvent_7_9_3/rearranged_h_0184.sdf

> <i_m_source_file_index>
73

> <r_mmod_Potential_Energy-OPLS-2005>
13587.220703125

> <r_mmod_Stretch_Energy-OPLS-2005>
4807.23828125

> <r_mmod_Bend_Energy-OPLS-2005>
1823.44787597656

> <r_mmod_Torsional_Energy-OPLS-2005>
650.876159667969

> <r_mmod_Improper_Torsional_Energy-OPLS-2005>
93.2355041503906

> <r_mmod_Van_der_Waal_Energy-OPLS-2005>
1813.060546875

> <r_mmod_Electrostatic_Energy-OPLS-2005>
-790.017333984375

> <r_mmod_Solvation_Energy-OPLS-2005>
-451.346313476562

> <b_mmod_Minimization_Converged-OPLS-2005>
0

> <r_mmod_RMS_Derivative-OPLS-2005>
6.66148138046265

$$$$
73
                    3D
 Structure written by MMmdl.
156164  0  0  1  0            999 V2000
  -30.2796  -15.6577   20.3332 C   0  0  0  0  0  0
  -30.4193  -13.1015   19.5375 C   0  0  0  0  0  0
  -29.5497  -12.6624   18.3241 C   0  0  0  0  0  0
  -28.1260  -12.2986   18.7698 C   0  0  0  0  0  0
  -27.5925  -13.3079   19.8094 C   0  0  2  0  0  0
  -28.6038  -13.6501   20.9278 C   0  0  0  0  0  0
  -25.2316  -13.8282   20.5802 C   0  0  0  0  0  0
  -24.1707  -13.0436   20.9301 C   0  0  0  0  0  0
  -24.6404  -11.6953   20.8769 C   0  0  0  0  0  0
  -23.9115  -10.4300   21.0397 C   0  0  0  0  0  0
  -24.3646   -9.4215   21.9182 C   0  0  0  0  0  0
  -23.6307   -8.2254   22.0753 C   0  0  0  0  0  0
  -22.4289   -8.0288   21.3543 C   0  0  0  0  0  0
  -21.9931   -9.0273   20.4643 C   0  0  0  0  0  0
  -22.7277  -10.2146   20.3054 C   0  0  0  0  0  0
  -21.6862   -6.0749   22.5279 C   0  0  0  0  0  0
  -21.4020   -6.5651   23.8215 C   0  0  0  0  0  0
  -21.3658   -5.6796   24.9173 C   0  0  0  0  0  0
  -21.6039   -4.3056   24.7220 C   0  0  0  0  0  0
  -21.8822   -3.8157   23.4337 C   0  0  0  0  0  0
  -21.9195   -4.6977   22.3397 C   0  0  0  0  0  0
  -22.7714  -13.5172   21.1928 C   0  0  0  0  0  0
  -22.1665   -4.2163   21.0972 F   0  0  0  0  0  0
  -21.5619   -3.4536   25.7736 F   0  0  0  0  0  0
  -29.7709  -14.2840   20.2719 N   0  0  0  0  0  0
  -26.2751  -12.9607   20.3212 N   0  0  0  0  0  0
  -25.9346  -11.6684   20.5683 N   0  0  0  0  0  0
  -22.0377  -12.8147   22.0467 N   0  0  0  0  0  0
  -25.3920  -15.2021   20.4246 N   0  0  0  0  0  0
  -31.5153  -15.5989   20.1839 O   0  0  0  0  0  0
  -21.6641   -6.8895   21.4241 O   0  0  0  0  0  0
  -22.3403  -14.5482   20.6776 O   0  0  0  0  0  0
  -24.6872  -31.7985   23.1492 C   0  0  0  0  0  0
  -25.9451  -32.4457   23.8048 C   0  0  1  0  0  0
  -27.2249  -26.6793   20.2198 C   0  0  0  0  0  0
  -25.6023  -33.8281   24.1943 N   0  0  0  0  0  0
  -23.5124  -30.3996   21.5053 C   0  0  2  0  0  0
  -24.9696  -28.7346   20.1209 C   0  0  0  0  0  0
  -22.7775  -29.4316   22.4718 C   0  0  0  0  0  0
  -18.0345  -28.1434   22.8456 C   0  0  0  0  0  0
  -24.1495  -36.7135   23.2647 C   0  0  0  0  0  0
  -26.0946  -30.5269   21.4144 C   0  0  0  0  0  0
  -26.1601  -29.0878   20.7661 C   0  0  0  0  0  0
  -27.2734  -28.0892   20.7796 C   0  0  0  0  0  0
  -25.9993  -26.5410   19.5194 C   0  0  0  0  0  0
  -24.9299  -27.4894   19.4711 C   0  0  0  0  0  0
  -23.7674  -29.6947   20.1414 C   0  0  0  0  0  0
  -25.4145  -36.2880   24.0282 C   0  0  1  0  0  0
  -20.5986  -28.3801   23.1139 C   0  0  2  0  0  0
  -20.6806  -26.9461   22.5400 C   0  0  0  0  0  0
  -19.5780  -26.6387   21.5214 C   0  0  0  0  0  0
  -18.1964  -26.7963   22.1619 C   0  0  0  0  0  0
  -19.1610  -28.8943   23.2777 C   0  0  0  0  0  0
  -18.9512  -30.1529   23.8817 C   0  0  0  0  0  0
  -17.6499  -30.6605   24.0567 C   0  0  0  0  0  0
  -25.9134  -34.9274   23.4951 C   0  0  0  0  0  0
  -16.5393  -29.9087   23.6351 C   0  0  0  0  0  0
  -16.7322  -28.6524   23.0350 C   0  0  0  0  0  0
  -26.4628  -31.6483   25.0666 C   0  0  0  0  0  0
  -25.3695  -31.3819   26.1286 C   0  0  0  0  0  0
  -27.0551  -30.2818   24.6558 C   0  0  0  0  0  0
  -27.6086  -32.4325   25.7480 C   0  0  0  0  0  0
  -27.5553  -37.1733   24.8466 C   0  0  0  0  0  0
  -21.4427  -29.3033   22.3449 N   0  0  0  0  0  0
  -26.4266  -37.3645   23.9404 N   0  0  0  0  0  0
  -24.7886  -30.9409   22.0758 N   0  0  0  0  0  0
  -23.4209  -28.7923   23.3073 O   0  0  0  0  0  0
  -28.1911  -25.4546   20.2805 O   0  0  0  0  0  0
  -26.5762  -34.8856   22.4555 O   0  0  0  0  0  0
  -23.5891  -32.1072   23.6436 O   0  0  0  0  0  0
  -29.5689  -21.2667   19.0329 C   0  0  0  0  0  0
  -28.9109  -21.9528   20.3243 C   0  0  2  0  0  0
  -29.6117  -18.8138   20.3429 C   0  0  2  0  0  0
  -28.5864  -20.2344   20.8321 C   0  0  1  0  0  0
  -29.8042  -19.6084   18.9682 C   0  0  0  0  0  0
  -31.2191  -19.3143   18.4381 C   0  0  0  0  0  0
  -28.8059  -19.0278   17.9417 C   0  0  0  0  0  0
  -27.9885  -23.6903   20.2426 C   0  0  0  0  0  0
  -29.5037  -17.0193   20.3808 N   0  0  0  0  0  0
  -28.3469  -20.1765   22.2828 N   0  3  0  0  0  0
  -31.4073  -13.3764   19.1684 H   0  0  0  0  0  0
  -30.5897  -12.2625   20.2131 H   0  0  0  0  0  0
  -30.0083  -11.8186   17.8071 H   0  0  0  0  0  0
  -29.5066  -13.4769   17.6001 H   0  0  0  0  0  0
  -28.1626  -11.3048   19.2172 H   0  0  0  0  0  0
  -27.4577  -12.2305   17.9104 H   0  0  0  0  0  0
  -27.4505  -14.2244   19.2348 H   0  0  0  0  0  0
  -28.8698  -12.7729   21.5196 H   0  0  0  0  0  0
  -28.1615  -14.3668   21.6217 H   0  0  0  0  0  0
  -25.2784   -9.5687   22.4776 H   0  0  0  0  0  0
  -24.0013   -7.4643   22.7479 H   0  0  0  0  0  0
  -21.0862   -8.8803   19.8953 H   0  0  0  0  0  0
  -22.3727  -10.9691   19.6179 H   0  0  0  0  0  0
  -21.2013   -7.6161   23.9723 H   0  0  0  0  0  0
  -21.1471   -6.0524   25.9081 H   0  0  0  0  0  0
  -22.0594   -2.7618   23.2836 H   0  0  0  0  0  0
  -22.3992  -11.9813   22.4867 H   0  0  0  0  0  0
  -21.0991  -13.1170   22.2674 H   0  0  0  0  0  0
  -24.6164  -15.8470   20.5266 H   0  0  0  0  0  0
  -26.2209  -15.6390   20.0436 H   0  0  0  0  0  0
  -26.7536  -32.4946   23.0763 H   0  0  0  0  0  0
  -25.0115  -33.9314   25.0062 H   0  0  0  0  0  0
  -22.8394  -31.2383   21.3143 H   0  0  0  0  0  0
  -23.3769  -35.9450   23.3281 H   0  0  0  0  0  0
  -24.3545  -36.8815   22.2058 H   0  0  0  0  0  0
  -23.7252  -37.6314   23.6739 H   0  0  0  0  0  0
  -26.2960  -31.2507   20.6229 H   0  0  0  0  0  0
  -26.9446  -30.5975   22.0804 H   0  0  0  0  0  0
  -28.1732  -28.3699   21.3089 H   0  0  0  0  0  0
  -25.8279  -25.5977   19.0221 H   0  0  0  0  0  0
  -24.0322  -27.2108   18.9360 H   0  0  0  0  0  0
  -23.9467  -30.4540   19.3794 H   0  0  0  0  0  0
  -22.8714  -29.1632   19.8164 H   0  0  0  0  0  0
  -25.1354  -36.1641   25.0775 H   0  0  0  0  0  0
  -21.0075  -28.3433   24.1266 H   0  0  0  0  0  0
  -20.5660  -26.2429   23.3662 H   0  0  0  0  0  0
  -21.6668  -26.7387   22.1226 H   0  0  0  0  0  0
  -19.6931  -25.6280   21.1277 H   0  0  0  0  0  0
  -19.6714  -27.3164   20.6719 H   0  0  0  0  0  0
  -17.4234  -26.6718   21.4020 H   0  0  0  0  0  0
  -18.0354  -26.0115   22.9025 H   0  0  0  0  0  0
  -19.7989  -30.7381   24.2132 H   0  0  0  0  0  0
  -17.5042  -31.6264   24.5204 H   0  0  0  0  0  0
  -15.5388  -30.2955   23.7713 H   0  0  0  0  0  0
  -15.8733  -28.0813   22.7085 H   0  0  0  0  0  0
  -24.5914  -30.7126   25.7605 H   0  0  0  0  0  0
  -24.8864  -32.3050   26.4494 H   0  0  0  0  0  0
  -25.7875  -30.9143   27.0207 H   0  0  0  0  0  0
  -26.3284  -29.6440   24.1523 H   0  0  0  0  0  0
  -27.3954  -29.7252   25.5298 H   0  0  0  0  0  0
  -27.9262  -30.3928   24.0099 H   0  0  0  0  0  0
  -27.2656  -33.3706   26.1847 H   0  0  0  0  0  0
  -28.4007  -32.6741   25.0382 H   0  0  0  0  0  0
  -28.0628  -31.8595   26.5573 H   0  0  0  0  0  0
  -28.2569  -38.0030   24.7480 H   0  0  0  0  0  0
  -28.1061  -36.2555   24.6339 H   0  0  0  0  0  0
  -27.2264  -37.1413   25.8870 H   0  0  0  0  0  0
  -20.9754  -29.8671   21.6489 H   0  0  0  0  0  0
  -26.0095  -38.2701   24.1405 H   0  0  0  0  0  0
  -30.5245  -21.7642   18.8633 H   0  0  0  0  0  0
  -28.9687  -21.5645   18.1725 H   0  0  0  0  0  0
  -29.7497  -22.2112   20.9708 H   0  0  0  0  0  0
  -30.5247  -18.9617   20.9206 H   0  0  0  0  0  0
  -27.6055  -20.0205   20.4034 H   0  0  0  0  0  0
  -31.9848  -19.6809   19.1227 H   0  0  0  0  0  0
  -31.3894  -19.7834   17.4685 H   0  0  0  0  0  0
  -31.3827  -18.2426   18.3159 H   0  0  0  0  0  0
  -27.7697  -19.1903   18.2385 H   0  0  0  0  0  0
  -28.9388  -17.9540   17.8057 H   0  0  0  0  0  0
  -28.9323  -19.4907   16.9623 H   0  0  0  0  0  0
  -27.2977  -23.5920   21.0800 H   0  0  0  0  0  0
  -27.3409  -23.5724   19.3741 H   0  0  0  0  0  0
  -28.5265  -16.7765   20.4490 H   0  0  0  0  0  0
  -29.1876  -20.3788   22.7924 H   0  0  0  0  0  0
  -28.0257  -19.2632   22.5490 H   0  0  0  0  0  0
  -27.6452  -20.8425   22.5501 H   0  0  0  0  0  0
  1 25  1  0  0  0
  1 30  2  0  0  0
  1 79  1  0  0  0
  2  3  1  0  0  0
  2 25  1  0  0  0
  2 81  1  0  0  0
  2 82  1  0  0  0
  3  4  1  0  0  0
  3 83  1  0  0  0
  3 84  1  0  0  0
  4  5  1  0  0  0
  4 85  1  0  0  0
  4 86  1  0  0  0
  5  6  1  0  0  0
  5 26  1  0  0  0
  5 87  1  0  0  0
  6 25  1  0  0  0
  6 88  1  0  0  0
  6 89  1  0  0  0
  7  8  2  0  0  0
  7 26  1  0  0  0
  7 29  1  0  0  0
  8  9  1  0  0  0
  8 22  1  0  0  0
  9 10  1  0  0  0
  9 27  2  0  0  0
 10 11  2  0  0  0
 10 15  1  0  0  0
 11 12  1  0  0  0
 11 90  1  0  0  0
 12 13  2  0  0  0
 12 91  1  0  0  0
 13 14  1  0  0  0
 13 31  1  0  0  0
 14 15  2  0  0  0
 14 92  1  0  0  0
 15 93  1  0  0  0
 16 17  2  0  0  0
 16 21  1  0  0  0
 16 31  1  0  0  0
 17 18  1  0  0  0
 17 94  1  0  0  0
 18 19  2  0  0  0
 18 95  1  0  0  0
 19 20  1  0  0  0
 19 24  1  0  0  0
 20 21  2  0  0  0
 20 96  1  0  0  0
 21 23  1  0  0  0
 22 28  1  0  0  0
 22 32  2  0  0  0
 26 27  1  0  0  0
 28 97  1  0  0  0
 28 98  1  0  0  0
 29 99  1  0  0  0
 29100  1  0  0  0
 33 34  1  0  0  0
 33 66  1  0  0  0
 33 70  2  0  0  0
 34 36  1  0  0  0
 34 59  1  0  0  0
 34101  1  0  0  0
 35 44  2  0  0  0
 35 45  1  0  0  0
 35 68  1  0  0  0
 36 56  1  0  0  0
 36102  1  0  0  0
 37 39  1  0  0  0
 37 47  1  0  0  0
 37 66  1  0  0  0
 37103  1  0  0  0
 38 43  2  0  0  0
 38 46  1  0  0  0
 38 47  1  0  0  0
 39 64  1  0  0  0
 39 67  2  0  0  0
 40 52  1  0  0  0
 40 53  2  0  0  0
 40 58  1  0  0  0
 41104  1  0  0  0
 41105  1  0  0  0
 41106  1  0  0  0
 41 48  1  0  0  0
 42 43  1  0  0  0
 42 66  1  0  0  0
 42107  1  0  0  0
 42108  1  0  0  0
 43 44  1  0  0  0
 44109  1  0  0  0
 45 46  2  0  0  0
 45110  1  0  0  0
 46111  1  0  0  0
 47112  1  0  0  0
 47113  1  0  0  0
 48 56  1  0  0  0
 48 65  1  0  0  0
 48114  1  0  0  0
 49 50  1  0  0  0
 49 53  1  0  0  0
 49 64  1  0  0  0
 49115  1  0  0  0
 50 51  1  0  0  0
 50116  1  0  0  0
 50117  1  0  0  0
 51 52  1  0  0  0
 51118  1  0  0  0
 51119  1  0  0  0
 52120  1  0  0  0
 52121  1  0  0  0
 53 54  1  0  0  0
 54 55  2  0  0  0
 54122  1  0  0  0
 55 57  1  0  0  0
 55123  1  0  0  0
 56 69  2  0  0  0
 57 58  2  0  0  0
 57124  1  0  0  0
 58125  1  0  0  0
 59 60  1  0  0  0
 59 61  1  0  0  0
 59 62  1  0  0  0
 60126  1  0  0  0
 60127  1  0  0  0
 60128  1  0  0  0
 61129  1  0  0  0
 61130  1  0  0  0
 61131  1  0  0  0
 62132  1  0  0  0
 62133  1  0  0  0
 62134  1  0  0  0
 63 65  1  0  0  0
 63135  1  0  0  0
 63136  1  0  0  0
 63137  1  0  0  0
 64138  1  0  0  0
 65139  1  0  0  0
 68 78  1  0  0  0
 71 72  1  0  0  0
 71 75  1  0  0  0
 71140  1  0  0  0
 71141  1  0  0  0
 72 74  1  0  0  0
 72 78  1  0  0  0
 72142  1  0  0  0
 73 74  1  0  0  0
 73 75  1  0  0  0
 73 79  1  0  0  0
 73143  1  0  0  0
 74 80  1  0  0  0
 74144  1  0  0  0
 75 76  1  0  0  0
 75 77  1  0  0  0
 76145  1  0  0  0
 76146  1  0  0  0
 76147  1  0  0  0
 77148  1  0  0  0
 77149  1  0  0  0
 77150  1  0  0  0
 78151  1  0  0  0
 78152  1  0  0  0
 79153  1  0  0  0
 80154  1  0  0  0
 80155  1  0  0  0
 80156  1  0  0  0
M  CHG  1  80   1
M  ISO  4   1 100  68 101  78 101  79 100
M  END
> <chiral flag>
0

> <version>
0

> <s_m_source_file>
/data/baiqing/PycharmProjects/Reinvent-master-3.2/result/LINK_invent/BTK/process_docking_weight1_custom_sum_contain_oxygen_bond_distance_aromatic_linkinvent_7_9_3/rearranged_h_0184.sdf

> <i_m_source_file_index>
74

> <r_mmod_Potential_Energy-OPLS-2005>
2314.19897460938

> <r_mmod_Stretch_Energy-OPLS-2005>
1117.986328125

> <r_mmod_Bend_Energy-OPLS-2005>
729.489624023438

> <r_mmod_Torsional_Energy-OPLS-2005>
315.536865234375

> <r_mmod_Improper_Torsional_Energy-OPLS-2005>
3.6875216960907

> <r_mmod_Van_der_Waal_Energy-OPLS-2005>
106.938415527344

> <r_mmod_Electrostatic_Energy-OPLS-2005>
-370.826049804688

> <r_mmod_Solvation_Energy-OPLS-2005>
-531.416564941406

> <b_mmod_Minimization_Converged-OPLS-2005>
0

> <r_mmod_RMS_Derivative-OPLS-2005>
2.19021058082581

$$$$
74
                    3D
 Structure written by MMmdl.
153162  0  0  1  0            999 V2000
  -30.3019  -15.6085   20.3334 C   0  0  0  0  0  0
  -30.4391  -13.0657   19.5234 C   0  0  0  0  0  0
  -29.5446  -12.6326   18.3249 C   0  0  0  0  0  0
  -28.1274  -12.2681   18.7879 C   0  0  0  0  0  0
  -27.6023  -13.2927   19.8161 C   0  0  2  0  0  0
  -28.6237  -13.6133   20.9336 C   0  0  0  0  0  0
  -25.2347  -13.8264   20.5785 C   0  0  0  0  0  0
  -24.1720  -13.0440   20.9285 C   0  0  0  0  0  0
  -24.6395  -11.6945   20.8782 C   0  0  0  0  0  0
  -23.9098  -10.4292   21.0414 C   0  0  0  0  0  0
  -24.3632   -9.4210   21.9191 C   0  0  0  0  0  0
  -23.6295   -8.2250   22.0754 C   0  0  0  0  0  0
  -22.4280   -8.0285   21.3538 C   0  0  0  0  0  0
  -21.9931   -9.0267   20.4649 C   0  0  0  0  0  0
  -22.7265  -10.2140   20.3065 C   0  0  0  0  0  0
  -21.6859   -6.0730   22.5271 C   0  0  0  0  0  0
  -21.4017   -6.5632   23.8200 C   0  0  0  0  0  0
  -21.3655   -5.6785   24.9166 C   0  0  0  0  0  0
  -21.6048   -4.3051   24.7219 C   0  0  0  0  0  0
  -21.8815   -3.8148   23.4339 C   0  0  0  0  0  0
  -21.9191   -4.6960   22.3394 C   0  0  0  0  0  0
  -22.7726  -13.5193   21.1911 C   0  0  0  0  0  0
  -22.1654   -4.2140   21.0970 F   0  0  0  0  0  0
  -21.5630   -3.4538   25.7737 F   0  0  0  0  0  0
  -29.8023  -14.2336   20.2847 N   0  0  0  0  0  0
  -26.2795  -12.9561   20.3253 N   0  0  0  0  0  0
  -25.9343  -11.6647   20.5745 N   0  0  0  0  0  0
  -22.0369  -12.8181   22.0462 N   0  0  0  0  0  0
  -25.4010  -15.1999   20.4221 N   0  0  0  0  0  0
  -31.5332  -15.5732   20.1442 O   0  0  0  0  0  0
  -21.6634   -6.8888   21.4237 O   0  0  0  0  0  0
  -22.3423  -14.5487   20.6742 O   0  0  0  0  0  0
  -24.6856  -31.7948   23.1494 C   0  0  0  0  0  0
  -25.9425  -32.4452   23.8039 C   0  0  1  0  0  0
  -27.2270  -26.6932   20.2152 C   0  0  0  0  0  0
  -25.6010  -33.8272   24.1947 N   0  0  0  0  0  0
  -23.5122  -30.3996   21.5002 C   0  0  2  0  0  0
  -24.9692  -28.7386   20.1120 C   0  0  0  0  0  0
  -22.7755  -29.4306   22.4657 C   0  0  0  0  0  0
  -18.0340  -28.1463   22.8475 C   0  0  0  0  0  0
  -24.1460  -36.7129   23.2641 C   0  0  0  0  0  0
  -26.0918  -30.5285   21.4088 C   0  0  0  0  0  0
  -26.1568  -29.0903   20.7654 C   0  0  0  0  0  0
  -27.2674  -28.0936   20.7906 C   0  0  0  0  0  0
  -26.0106  -26.5569   19.4937 C   0  0  0  0  0  0
  -24.9354  -27.4977   19.4506 C   0  0  0  0  0  0
  -23.7673  -29.6972   20.1347 C   0  0  0  0  0  0
  -25.4104  -36.2854   24.0271 C   0  0  1  0  0  0
  -20.5988  -28.3800   23.1147 C   0  0  2  0  0  0
  -20.6815  -26.9457   22.5395 C   0  0  0  0  0  0
  -19.5772  -26.6409   21.5224 C   0  0  0  0  0  0
  -18.1951  -26.7993   22.1626 C   0  0  0  0  0  0
  -19.1612  -28.8944   23.2809 C   0  0  0  0  0  0
  -18.9524  -30.1546   23.8835 C   0  0  0  0  0  0
  -17.6516  -30.6638   24.0577 C   0  0  0  0  0  0
  -25.9117  -34.9268   23.4939 C   0  0  0  0  0  0
  -16.5398  -29.9135   23.6377 C   0  0  0  0  0  0
  -16.7321  -28.6554   23.0385 C   0  0  0  0  0  0
  -26.4630  -31.6486   25.0640 C   0  0  0  0  0  0
  -25.3748  -31.3847   26.1299 C   0  0  0  0  0  0
  -27.0524  -30.2811   24.6512 C   0  0  0  0  0  0
  -27.6048  -32.4365   25.7475 C   0  0  0  0  0  0
  -27.5534  -37.1715   24.8462 C   0  0  0  0  0  0
  -21.4383  -29.3060   22.3450 N   0  0  0  0  0  0
  -26.4204  -37.3638   23.9453 N   0  0  0  0  0  0
  -24.7875  -30.9406   22.0738 N   0  0  0  0  0  0
  -23.4205  -28.7860   23.2963 O   0  0  0  0  0  0
  -28.1731  -25.4627   20.3325 O   0  0  0  0  0  0
  -26.5721  -34.8851   22.4535 O   0  0  0  0  0  0
  -23.5884  -32.0981   23.6482 O   0  0  0  0  0  0
  -28.2073  -19.4058   20.9567 C   0  0  0  0  0  0
  -27.8770  -20.8921   20.9276 C   0  0  0  0  0  0
  -28.6092  -22.0203   20.2937 C   0  0  0  0  0  0
  -29.7525  -21.1971   19.7643 C   0  0  0  0  0  0
  -29.3393  -18.6388   20.3909 C   0  0  0  0  0  0
  -32.2792  -21.6173   19.0647 C   0  0  0  0  0  0
  -31.7552  -22.8358   19.7792 C   0  0  0  0  0  0
  -30.7998  -21.9536   19.0022 C   0  0  0  0  0  0
  -26.5897  -21.2645   21.6391 C   0  0  0  0  0  0
  -27.9663  -23.7588   19.9648 C   0  0  0  0  0  0
  -30.0579  -19.7437   19.8179 N   0  0  0  0  0  0
  -29.4743  -16.9198   20.4482 N   0  0  0  0  0  0
  -31.4133  -13.3535   19.1226 H   0  0  0  0  0  0
  -30.6435  -12.2261   20.1878 H   0  0  0  0  0  0
  -29.9940  -11.7912   17.7949 H   0  0  0  0  0  0
  -29.4860  -13.4539   17.6100 H   0  0  0  0  0  0
  -28.1751  -11.2841   19.2571 H   0  0  0  0  0  0
  -27.4495  -12.1685   17.9389 H   0  0  0  0  0  0
  -27.4752  -14.2082   19.2382 H   0  0  0  0  0  0
  -28.8849  -12.7227   21.5081 H   0  0  0  0  0  0
  -28.1933  -14.3233   21.6420 H   0  0  0  0  0  0
  -25.2764   -9.5677   22.4782 H   0  0  0  0  0  0
  -23.9982   -7.4644   22.7496 H   0  0  0  0  0  0
  -21.0842   -8.8804   19.8972 H   0  0  0  0  0  0
  -22.3717  -10.9684   19.6179 H   0  0  0  0  0  0
  -21.2008   -7.6138   23.9700 H   0  0  0  0  0  0
  -21.1478   -6.0519   25.9066 H   0  0  0  0  0  0
  -22.0601   -2.7614   23.2840 H   0  0  0  0  0  0
  -22.3934  -11.9828   22.4877 H   0  0  0  0  0  0
  -21.0995  -13.1234   22.2666 H   0  0  0  0  0  0
  -24.6353  -15.8552   20.5401 H   0  0  0  0  0  0
  -26.2381  -15.6390   20.0656 H   0  0  0  0  0  0
  -26.7504  -32.4949   23.0759 H   0  0  0  0  0  0
  -25.0193  -33.9318   25.0136 H   0  0  0  0  0  0
  -22.8422  -31.2394   21.3116 H   0  0  0  0  0  0
  -23.3732  -35.9450   23.3219 H   0  0  0  0  0  0
  -24.3536  -36.8880   22.2073 H   0  0  0  0  0  0
  -23.7204  -37.6271   23.6787 H   0  0  0  0  0  0
  -26.2840  -31.2460   20.6086 H   0  0  0  0  0  0
  -26.9489  -30.6102   22.0657 H   0  0  0  0  0  0
  -28.1568  -28.3630   21.3436 H   0  0  0  0  0  0
  -25.8444  -25.6176   18.9821 H   0  0  0  0  0  0
  -24.0406  -27.2271   18.9043 H   0  0  0  0  0  0
  -23.9479  -30.4567   19.3741 H   0  0  0  0  0  0
  -22.8709  -29.1670   19.8097 H   0  0  0  0  0  0
  -25.1326  -36.1567   25.0753 H   0  0  0  0  0  0
  -21.0120  -28.3411   24.1264 H   0  0  0  0  0  0
  -20.5679  -26.2408   23.3650 H   0  0  0  0  0  0
  -21.6671  -26.7410   22.1194 H   0  0  0  0  0  0
  -19.6903  -25.6303   21.1284 H   0  0  0  0  0  0
  -19.6722  -27.3200   20.6743 H   0  0  0  0  0  0
  -17.4227  -26.6783   21.4019 H   0  0  0  0  0  0
  -18.0318  -26.0165   22.9044 H   0  0  0  0  0  0
  -19.8008  -30.7407   24.2138 H   0  0  0  0  0  0
  -17.5078  -31.6308   24.5214 H   0  0  0  0  0  0
  -15.5407  -30.3040   23.7743 H   0  0  0  0  0  0
  -15.8721  -28.0883   22.7130 H   0  0  0  0  0  0
  -24.5925  -30.7156   25.7709 H   0  0  0  0  0  0
  -24.8934  -32.3084   26.4514 H   0  0  0  0  0  0
  -25.7977  -30.9202   27.0214 H   0  0  0  0  0  0
  -26.3215  -29.6459   24.1479 H   0  0  0  0  0  0
  -27.3944  -29.7213   25.5233 H   0  0  0  0  0  0
  -27.9215  -30.3918   24.0014 H   0  0  0  0  0  0
  -27.2564  -33.3780   26.1742 H   0  0  0  0  0  0
  -28.4038  -32.6751   25.0445 H   0  0  0  0  0  0
  -28.0495  -31.8683   26.5656 H   0  0  0  0  0  0
  -28.2497  -38.0068   24.7565 H   0  0  0  0  0  0
  -28.1086  -36.2602   24.6212 H   0  0  0  0  0  0
  -27.2277  -37.1255   25.8866 H   0  0  0  0  0  0
  -20.9638  -29.8731   21.6560 H   0  0  0  0  0  0
  -25.9996  -38.2645   24.1573 H   0  0  0  0  0  0
  -27.4800  -18.7908   21.4678 H   0  0  0  0  0  0
  -32.5922  -20.7635   19.6693 H   0  0  0  0  0  0
  -32.8766  -21.7934   18.1711 H   0  0  0  0  0  0
  -31.9820  -23.8143   19.3583 H   0  0  0  0  0  0
  -31.7338  -22.7859   20.8683 H   0  0  0  0  0  0
  -30.4027  -22.3407   18.0640 H   0  0  0  0  0  0
  -26.4343  -20.6466   22.5241 H   0  0  0  0  0  0
  -25.7333  -21.1412   20.9774 H   0  0  0  0  0  0
  -26.6141  -22.2990   21.9801 H   0  0  0  0  0  0
  -26.8974  -23.6337   20.1260 H   0  0  0  0  0  0
  -28.0420  -23.7864   18.8776 H   0  0  0  0  0  0
  -28.5534  -16.5703   20.6552 H   0  0  0  0  0  0
  1 25  1  0  0  0
  1 30  2  0  0  0
  1 82  1  0  0  0
  2  3  1  0  0  0
  2 25  1  0  0  0
  2 83  1  0  0  0
  2 84  1  0  0  0
  3  4  1  0  0  0
  3 85  1  0  0  0
  3 86  1  0  0  0
  4  5  1  0  0  0
  4 87  1  0  0  0
  4 88  1  0  0  0
  5  6  1  0  0  0
  5 26  1  0  0  0
  5 89  1  0  0  0
  6 25  1  0  0  0
  6 90  1  0  0  0
  6 91  1  0  0  0
  7  8  2  0  0  0
  7 26  1  0  0  0
  7 29  1  0  0  0
  8  9  1  0  0  0
  8 22  1  0  0  0
  9 10  1  0  0  0
  9 27  2  0  0  0
 10 11  2  0  0  0
 10 15  1  0  0  0
 11 12  1  0  0  0
 11 92  1  0  0  0
 12 13  2  0  0  0
 12 93  1  0  0  0
 13 14  1  0  0  0
 13 31  1  0  0  0
 14 15  2  0  0  0
 14 94  1  0  0  0
 15 95  1  0  0  0
 16 17  2  0  0  0
 16 21  1  0  0  0
 16 31  1  0  0  0
 17 18  1  0  0  0
 17 96  1  0  0  0
 18 19  2  0  0  0
 18 97  1  0  0  0
 19 20  1  0  0  0
 19 24  1  0  0  0
 20 21  2  0  0  0
 20 98  1  0  0  0
 21 23  1  0  0  0
 22 28  1  0  0  0
 22 32  2  0  0  0
 26 27  1  0  0  0
 28 99  1  0  0  0
 28100  1  0  0  0
 29101  1  0  0  0
 29102  1  0  0  0
 33 34  1  0  0  0
 33 66  1  0  0  0
 33 70  2  0  0  0
 34 36  1  0  0  0
 34 59  1  0  0  0
 34103  1  0  0  0
 35 44  2  0  0  0
 35 45  1  0  0  0
 35 68  1  0  0  0
 36 56  1  0  0  0
 36104  1  0  0  0
 37 39  1  0  0  0
 37 47  1  0  0  0
 37 66  1  0  0  0
 37105  1  0  0  0
 38 43  2  0  0  0
 38 46  1  0  0  0
 38 47  1  0  0  0
 39 64  1  0  0  0
 39 67  2  0  0  0
 40 52  1  0  0  0
 40 53  2  0  0  0
 40 58  1  0  0  0
 41106  1  0  0  0
 41107  1  0  0  0
 41108  1  0  0  0
 41 48  1  0  0  0
 42 43  1  0  0  0
 42 66  1  0  0  0
 42109  1  0  0  0
 42110  1  0  0  0
 43 44  1  0  0  0
 44111  1  0  0  0
 45 46  2  0  0  0
 45112  1  0  0  0
 46113  1  0  0  0
 47114  1  0  0  0
 47115  1  0  0  0
 48 56  1  0  0  0
 48 65  1  0  0  0
 48116  1  0  0  0
 49 50  1  0  0  0
 49 53  1  0  0  0
 49 64  1  0  0  0
 49117  1  0  0  0
 50 51  1  0  0  0
 50118  1  0  0  0
 50119  1  0  0  0
 51 52  1  0  0  0
 51120  1  0  0  0
 51121  1  0  0  0
 52122  1  0  0  0
 52123  1  0  0  0
 53 54  1  0  0  0
 54 55  2  0  0  0
 54124  1  0  0  0
 55 57  1  0  0  0
 55125  1  0  0  0
 56 69  2  0  0  0
 57 58  2  0  0  0
 57126  1  0  0  0
 58127  1  0  0  0
 59 60  1  0  0  0
 59 61  1  0  0  0
 59 62  1  0  0  0
 60128  1  0  0  0
 60129  1  0  0  0
 60130  1  0  0  0
 61131  1  0  0  0
 61132  1  0  0  0
 61133  1  0  0  0
 62134  1  0  0  0
 62135  1  0  0  0
 62136  1  0  0  0
 63 65  1  0  0  0
 63137  1  0  0  0
 63138  1  0  0  0
 63139  1  0  0  0
 64140  1  0  0  0
 65141  1  0  0  0
 68 80  1  0  0  0
 71 72  2  0  0  0
 71 75  1  0  0  0
 71142  1  0  0  0
 72 73  1  0  0  0
 72 79  1  0  0  0
 73 74  2  0  0  0
 73 80  1  0  0  0
 74 81  1  0  0  0
 74 78  1  0  0  0
 75 81  2  0  0  0
 75 82  1  0  0  0
 76 77  1  0  0  0
 76 78  1  0  0  0
 76143  1  0  0  0
 76144  1  0  0  0
 77 78  1  0  0  0
 77145  1  0  0  0
 77146  1  0  0  0
 78147  1  0  0  0
 79148  1  0  0  0
 79149  1  0  0  0
 79150  1  0  0  0
 80151  1  0  0  0
 80152  1  0  0  0
 82153  1  0  0  0
M  ISO  4   1 100  68 101  80 101  82 100
M  END
> <chiral flag>
0

> <version>
0

> <s_m_source_file>
/data/baiqing/PycharmProjects/Reinvent-master-3.2/result/LINK_invent/BTK/process_docking_weight1_custom_sum_contain_oxygen_bond_distance_aromatic_linkinvent_7_9_3/rearranged_h_0184.sdf

> <i_m_source_file_index>
75

> <r_mmod_Potential_Energy-OPLS-2005>
2193.54223632812

> <r_mmod_Stretch_Energy-OPLS-2005>
943.669494628906

> <r_mmod_Bend_Energy-OPLS-2005>
683.977233886719

> <r_mmod_Torsional_Energy-OPLS-2005>
251.118270874023

> <r_mmod_Improper_Torsional_Energy-OPLS-2005>
6.44168663024902

> <r_mmod_Van_der_Waal_Energy-OPLS-2005>
130.670486450195

> <r_mmod_Electrostatic_Energy-OPLS-2005>
-479.159484863281

> <r_mmod_Solvation_Energy-OPLS-2005>
-236.848907470703

> <b_mmod_Minimization_Converged-OPLS-2005>
0

> <r_mmod_RMS_Derivative-OPLS-2005>
3.70579051971436

$$$$
75
                    3D
 Structure written by MMmdl.
165173  0  0  1  0            999 V2000
  -30.5472  -14.9829   20.5138 C   0  0  0  0  0  0
  -30.4460  -12.6296   19.5123 C   0  0  0  0  0  0
  -29.5394  -12.5738   18.2568 C   0  0  0  0  0  0
  -28.0681  -12.3367   18.6504 C   0  0  0  0  0  0
  -27.6292  -13.2462   19.8232 C   0  0  2  0  0  0
  -28.6554  -13.2236   20.9655 C   0  0  0  0  0  0
  -25.2461  -13.8181   20.5645 C   0  0  0  0  0  0
  -24.1780  -13.0417   20.9160 C   0  0  0  0  0  0
  -24.6377  -11.6905   20.8652 C   0  0  0  0  0  0
  -23.9049  -10.4292   21.0352 C   0  0  0  0  0  0
  -24.3602   -9.4224   21.9152 C   0  0  0  0  0  0
  -23.6265   -8.2271   22.0759 C   0  0  0  0  0  0
  -22.4248   -8.0298   21.3565 C   0  0  0  0  0  0
  -21.9862   -9.0261   20.4662 C   0  0  0  0  0  0
  -22.7202  -10.2131   20.3028 C   0  0  0  0  0  0
  -21.6845   -6.0724   22.5285 C   0  0  0  0  0  0
  -21.4044   -6.5624   23.8213 C   0  0  0  0  0  0
  -21.3670   -5.6775   24.9180 C   0  0  0  0  0  0
  -21.6021   -4.3041   24.7228 C   0  0  0  0  0  0
  -21.8810   -3.8133   23.4347 C   0  0  0  0  0  0
  -21.9203   -4.6948   22.3406 C   0  0  0  0  0  0
  -22.7811  -13.5236   21.1832 C   0  0  0  0  0  0
  -22.1659   -4.2142   21.0987 F   0  0  0  0  0  0
  -21.5622   -3.4527   25.7741 F   0  0  0  0  0  0
  -29.9401  -13.7117   20.4194 N   0  0  0  0  0  0
  -26.2851  -12.9408   20.3035 N   0  0  0  0  0  0
  -25.9291  -11.6535   20.5503 N   0  0  0  0  0  0
  -22.0458  -12.8277   22.0418 N   0  0  0  0  0  0
  -25.4127  -15.1926   20.4213 N   0  0  0  0  0  0
  -31.7023  -15.0589   20.0803 O   0  0  0  0  0  0
  -21.6631   -6.8871   21.4248 O   0  0  0  0  0  0
  -22.3503  -14.5546   20.6685 O   0  0  0  0  0  0
  -24.6399  -31.8449   23.1843 C   0  0  0  0  0  0
  -25.9169  -32.4701   23.8220 C   0  0  1  0  0  0
  -27.2278  -27.1324   20.1719 C   0  0  0  0  0  0
  -25.5914  -33.8502   24.2145 N   0  0  0  0  0  0
  -23.4437  -30.4598   21.5320 C   0  0  2  0  0  0
  -24.8952  -28.8717   20.1220 C   0  0  0  0  0  0
  -22.7532  -29.4548   22.4877 C   0  0  0  0  0  0
  -18.0304  -28.1390   22.8488 C   0  0  0  0  0  0
  -24.1488  -36.7272   23.2637 C   0  0  0  0  0  0
  -25.9981  -30.7201   21.3788 C   0  0  0  0  0  0
  -26.0727  -29.3248   20.7311 C   0  0  0  0  0  0
  -27.2413  -28.4746   20.7289 C   0  0  0  0  0  0
  -26.0220  -26.7682   19.5403 C   0  0  0  0  0  0
  -24.8813  -27.6055   19.5129 C   0  0  0  0  0  0
  -23.6714  -29.7769   20.1567 C   0  0  0  0  0  0
  -25.4117  -36.3033   24.0307 C   0  0  1  0  0  0
  -20.5909  -28.3708   23.1259 C   0  0  2  0  0  0
  -20.6782  -26.9415   22.5416 C   0  0  0  0  0  0
  -19.5755  -26.6380   21.5223 C   0  0  0  0  0  0
  -18.1935  -26.7927   22.1637 C   0  0  0  0  0  0
  -19.1560  -28.8874   23.2867 C   0  0  0  0  0  0
  -18.9472  -30.1472   23.8882 C   0  0  0  0  0  0
  -17.6462  -30.6589   24.0561 C   0  0  0  0  0  0
  -25.9073  -34.9423   23.5050 C   0  0  0  0  0  0
  -16.5358  -29.9073   23.6339 C   0  0  0  0  0  0
  -16.7284  -28.6501   23.0350 C   0  0  0  0  0  0
  -26.4466  -31.6570   25.0674 C   0  0  0  0  0  0
  -25.3644  -31.3809   26.1378 C   0  0  0  0  0  0
  -27.0297  -30.2941   24.6279 C   0  0  0  0  0  0
  -27.5973  -32.4349   25.7488 C   0  0  0  0  0  0
  -27.5584  -37.1775   24.8442 C   0  0  0  0  0  0
  -21.4232  -29.3035   22.3629 N   0  0  0  0  0  0
  -26.4269  -37.3756   23.9421 N   0  0  0  0  0  0
  -24.7144  -31.0278   22.0884 N   0  0  0  0  0  0
  -23.4176  -28.8126   23.3034 O   0  0  0  0  0  0
  -28.3285  -26.2050   20.1158 O   0  0  0  0  0  0
  -26.5688  -34.8916   22.4640 O   0  0  0  0  0  0
  -23.5531  -32.1331   23.7075 O   0  0  0  0  0  0
  -30.2597  -18.1948   22.4101 C   0  0  0  0  0  0
  -29.3751  -16.0129   22.3445 C   0  0  0  0  0  0
  -30.2383  -16.9183   23.2171 C   0  0  2  0  0  0
  -30.1849  -17.7604   20.9297 C   0  0  2  0  0  0
  -29.6715  -24.7387   21.5130 C   0  0  0  0  0  0
  -29.6672  -15.8369   25.4022 C   0  0  0  0  0  0
  -29.4267  -19.0592   20.1146 C   0  0  0  0  0  0
  -29.0243  -20.6128   20.7319 C   0  0  0  0  0  0
  -28.2159  -23.2632   19.9121 C   0  0  0  0  0  0
  -28.3751  -24.7534   20.6953 C   0  0  2  0  0  0
  -29.8470  -16.1727   20.9572 N   0  0  0  0  0  0
  -29.7410  -17.0806   24.6055 N   0  3  0  0  0  0
  -29.1928  -21.9948   19.9616 N   0  3  0  0  0  0
  -31.4813  -12.7970   19.2086 H   0  0  0  0  0  0
  -30.4544  -11.6662   20.0255 H   0  0  0  0  0  0
  -29.8807  -11.7926   17.5764 H   0  0  0  0  0  0
  -29.6254  -13.5135   17.7086 H   0  0  0  0  0  0
  -27.9655  -11.2898   18.9369 H   0  0  0  0  0  0
  -27.4200  -12.4877   17.7859 H   0  0  0  0  0  0
  -27.6065  -14.2630   19.4280 H   0  0  0  0  0  0
  -28.7616  -12.2164   21.3744 H   0  0  0  0  0  0
  -28.2377  -13.8090   21.7758 H   0  0  0  0  0  0
  -25.2757   -9.5720   22.4695 H   0  0  0  0  0  0
  -23.9986   -7.4674   22.7482 H   0  0  0  0  0  0
  -21.0782   -8.8769   19.8987 H   0  0  0  0  0  0
  -22.3643  -10.9655   19.6122 H   0  0  0  0  0  0
  -21.2052   -7.6132   23.9719 H   0  0  0  0  0  0
  -21.1486   -6.0506   25.9073 H   0  0  0  0  0  0
  -22.0571   -2.7596   23.2832 H   0  0  0  0  0  0
  -22.4052  -11.9974   22.4885 H   0  0  0  0  0  0
  -21.1083  -13.1363   22.2589 H   0  0  0  0  0  0
  -24.6376  -15.8356   20.5423 H   0  0  0  0  0  0
  -26.2544  -15.6456   20.0898 H   0  0  0  0  0  0
  -26.7248  -32.5305   23.0963 H   0  0  0  0  0  0
  -24.9948  -33.9606   25.0216 H   0  0  0  0  0  0
  -22.7457  -31.2849   21.3732 H   0  0  0  0  0  0
  -23.3762  -35.9587   23.3238 H   0  0  0  0  0  0
  -24.3594  -36.8982   22.2069 H   0  0  0  0  0  0
  -23.7227  -37.6436   23.6730 H   0  0  0  0  0  0
  -26.1444  -31.4725   20.6022 H   0  0  0  0  0  0
  -26.8707  -30.7790   22.0179 H   0  0  0  0  0  0
  -28.1482  -28.8341   21.1939 H   0  0  0  0  0  0
  -25.9541  -25.7993   19.0665 H   0  0  0  0  0  0
  -23.9795  -27.2493   19.0332 H   0  0  0  0  0  0
  -23.8051  -30.5453   19.3941 H   0  0  0  0  0  0
  -22.7847  -29.2164   19.8526 H   0  0  0  0  0  0
  -25.1301  -36.1839   25.0795 H   0  0  0  0  0  0
  -21.0008  -28.3301   24.1377 H   0  0  0  0  0  0
  -20.5697  -26.2312   23.3630 H   0  0  0  0  0  0
  -21.6649  -26.7432   22.1212 H   0  0  0  0  0  0
  -19.6913  -25.6290   21.1258 H   0  0  0  0  0  0
  -19.6687  -27.3192   20.6752 H   0  0  0  0  0  0
  -17.4205  -26.6690   21.4031 H   0  0  0  0  0  0
  -18.0319  -26.0073   22.9041 H   0  0  0  0  0  0
  -19.7947  -30.7304   24.2226 H   0  0  0  0  0  0
  -17.5016  -31.6266   24.5167 H   0  0  0  0  0  0
  -15.5356  -30.2964   23.7678 H   0  0  0  0  0  0
  -15.8688  -28.0819   22.7046 H   0  0  0  0  0  0
  -24.5728  -30.7287   25.7678 H   0  0  0  0  0  0
  -24.8950  -32.3035   26.4805 H   0  0  0  0  0  0
  -25.7880  -30.8915   27.0160 H   0  0  0  0  0  0
  -26.2897  -29.6703   24.1258 H   0  0  0  0  0  0
  -27.3831  -29.7217   25.4864 H   0  0  0  0  0  0
  -27.8842  -30.4122   23.9620 H   0  0  0  0  0  0
  -27.2491  -33.3621   26.2061 H   0  0  0  0  0  0
  -28.3781  -32.6987   25.0344 H   0  0  0  0  0  0
  -28.0646  -31.8503   26.5428 H   0  0  0  0  0  0
  -28.2532  -38.0136   24.7565 H   0  0  0  0  0  0
  -28.1143  -36.2673   24.6146 H   0  0  0  0  0  0
  -27.2331  -37.1286   25.8847 H   0  0  0  0  0  0
  -20.9439  -29.8699   21.6784 H   0  0  0  0  0  0
  -26.0130  -38.2811   24.1457 H   0  0  0  0  0  0
  -31.1407  -18.8040   22.6205 H   0  0  0  0  0  0
  -29.3827  -18.7826   22.6788 H   0  0  0  0  0  0
  -28.3138  -16.2672   22.4012 H   0  0  0  0  0  0
  -29.5131  -15.0172   22.7580 H   0  0  0  0  0  0
  -31.2511  -16.5154   23.2567 H   0  0  0  0  0  0
  -31.2125  -17.7787   20.5595 H   0  0  0  0  0  0
  -29.7423  -23.8421   22.1292 H   0  0  0  0  0  0
  -29.7201  -25.5946   22.1876 H   0  0  0  0  0  0
  -30.5467  -24.7775   20.8664 H   0  0  0  0  0  0
  -29.3661  -16.0611   26.4238 H   0  0  0  0  0  0
  -30.6353  -15.3398   25.4432 H   0  0  0  0  0  0
  -28.9392  -15.1310   25.0001 H   0  0  0  0  0  0
  -28.5162  -18.6631   19.6632 H   0  0  0  0  0  0
  -30.0667  -19.2602   19.2553 H   0  0  0  0  0  0
  -29.5845  -20.7711   21.6546 H   0  0  0  0  0  0
  -27.9873  -20.5621   21.0593 H   0  0  0  0  0  0
  -28.2346  -23.5378   18.8577 H   0  0  0  0  0  0
  -27.1974  -22.9077   20.0617 H   0  0  0  0  0  0
  -27.5721  -24.7503   21.4352 H   0  0  0  0  0  0
  -28.8293  -17.5089   24.6018 H   0  0  0  0  0  0
  -30.3577  -17.7101   25.0965 H   0  0  0  0  0  0
  -29.1934  -21.7014   18.9989 H   0  0  0  0  0  0
  -30.1318  -22.3242   20.1175 H   0  0  0  0  0  0
  1 25  1  0  0  0
  1 30  2  0  0  0
  1 81  1  0  0  0
  2  3  1  0  0  0
  2 25  1  0  0  0
  2 84  1  0  0  0
  2 85  1  0  0  0
  3  4  1  0  0  0
  3 86  1  0  0  0
  3 87  1  0  0  0
  4  5  1  0  0  0
  4 88  1  0  0  0
  4 89  1  0  0  0
  5  6  1  0  0  0
  5 26  1  0  0  0
  5 90  1  0  0  0
  6 25  1  0  0  0
  6 91  1  0  0  0
  6 92  1  0  0  0
  7  8  2  0  0  0
  7 26  1  0  0  0
  7 29  1  0  0  0
  8  9  1  0  0  0
  8 22  1  0  0  0
  9 10  1  0  0  0
  9 27  2  0  0  0
 10 11  2  0  0  0
 10 15  1  0  0  0
 11 12  1  0  0  0
 11 93  1  0  0  0
 12 13  2  0  0  0
 12 94  1  0  0  0
 13 14  1  0  0  0
 13 31  1  0  0  0
 14 15  2  0  0  0
 14 95  1  0  0  0
 15 96  1  0  0  0
 16 17  2  0  0  0
 16 21  1  0  0  0
 16 31  1  0  0  0
 17 18  1  0  0  0
 17 97  1  0  0  0
 18 19  2  0  0  0
 18 98  1  0  0  0
 19 20  1  0  0  0
 19 24  1  0  0  0
 20 21  2  0  0  0
 20 99  1  0  0  0
 21 23  1  0  0  0
 22 28  1  0  0  0
 22 32  2  0  0  0
 26 27  1  0  0  0
 28100  1  0  0  0
 28101  1  0  0  0
 29102  1  0  0  0
 29103  1  0  0  0
 33 34  1  0  0  0
 33 66  1  0  0  0
 33 70  2  0  0  0
 34 36  1  0  0  0
 34 59  1  0  0  0
 34104  1  0  0  0
 35 44  2  0  0  0
 35 45  1  0  0  0
 35 68  1  0  0  0
 36 56  1  0  0  0
 36105  1  0  0  0
 37 39  1  0  0  0
 37 47  1  0  0  0
 37 66  1  0  0  0
 37106  1  0  0  0
 38 43  2  0  0  0
 38 46  1  0  0  0
 38 47  1  0  0  0
 39 64  1  0  0  0
 39 67  2  0  0  0
 40 52  1  0  0  0
 40 53  2  0  0  0
 40 58  1  0  0  0
 41107  1  0  0  0
 41108  1  0  0  0
 41109  1  0  0  0
 41 48  1  0  0  0
 42 43  1  0  0  0
 42 66  1  0  0  0
 42110  1  0  0  0
 42111  1  0  0  0
 43 44  1  0  0  0
 44112  1  0  0  0
 45 46  2  0  0  0
 45113  1  0  0  0
 46114  1  0  0  0
 47115  1  0  0  0
 47116  1  0  0  0
 48 56  1  0  0  0
 48 65  1  0  0  0
 48117  1  0  0  0
 49 50  1  0  0  0
 49 53  1  0  0  0
 49 64  1  0  0  0
 49118  1  0  0  0
 50 51  1  0  0  0
 50119  1  0  0  0
 50120  1  0  0  0
 51 52  1  0  0  0
 51121  1  0  0  0
 51122  1  0  0  0
 52123  1  0  0  0
 52124  1  0  0  0
 53 54  1  0  0  0
 54 55  2  0  0  0
 54125  1  0  0  0
 55 57  1  0  0  0
 55126  1  0  0  0
 56 69  2  0  0  0
 57 58  2  0  0  0
 57127  1  0  0  0
 58128  1  0  0  0
 59 60  1  0  0  0
 59 61  1  0  0  0
 59 62  1  0  0  0
 60129  1  0  0  0
 60130  1  0  0  0
 60131  1  0  0  0
 61132  1  0  0  0
 61133  1  0  0  0
 61134  1  0  0  0
 62135  1  0  0  0
 62136  1  0  0  0
 62137  1  0  0  0
 63 65  1  0  0  0
 63138  1  0  0  0
 63139  1  0  0  0
 63140  1  0  0  0
 64141  1  0  0  0
 65142  1  0  0  0
 68 80  1  0  0  0
 71 73  1  0  0  0
 71 74  1  0  0  0
 71143  1  0  0  0
 71144  1  0  0  0
 72 73  1  0  0  0
 72 81  1  0  0  0
 72145  1  0  0  0
 72146  1  0  0  0
 73 82  1  0  0  0
 73147  1  0  0  0
 74 77  1  0  0  0
 74 81  1  0  0  0
 74148  1  0  0  0
 75149  1  0  0  0
 75150  1  0  0  0
 75151  1  0  0  0
 75 80  1  0  0  0
 76 82  1  0  0  0
 76152  1  0  0  0
 76153  1  0  0  0
 76154  1  0  0  0
 77 78  1  0  0  0
 77155  1  0  0  0
 77156  1  0  0  0
 78 83  1  0  0  0
 78157  1  0  0  0
 78158  1  0  0  0
 79 80  1  0  0  0
 79 83  1  0  0  0
 79159  1  0  0  0
 79160  1  0  0  0
 80161  1  0  0  0
 82162  1  0  0  0
 82163  1  0  0  0
 83164  1  0  0  0
 83165  1  0  0  0
M  CHG  2  82   1  83   1
M  ISO  4   1 100  68 101  80 101  81 100
M  END
> <chiral flag>
0

> <version>
0

> <s_m_source_file>
/data/baiqing/PycharmProjects/Reinvent-master-3.2/result/LINK_invent/BTK/process_docking_weight1_custom_sum_contain_oxygen_bond_distance_aromatic_linkinvent_7_9_3/rearranged_h_0184.sdf

> <i_m_source_file_index>
76

> <r_mmod_Potential_Energy-OPLS-2005>
628.406066894531

> <r_mmod_Stretch_Energy-OPLS-2005>
326.964599609375

> <r_mmod_Bend_Energy-OPLS-2005>
406.217956542969

> <r_mmod_Torsional_Energy-OPLS-2005>
393.626586914062

> <r_mmod_Improper_Torsional_Energy-OPLS-2005>
7.76417875289917

> <r_mmod_Van_der_Waal_Energy-OPLS-2005>
118.719970703125

> <r_mmod_Electrostatic_Energy-OPLS-2005>
99.3375778198242

> <r_mmod_Solvation_Energy-OPLS-2005>
-914.273986816406

> <b_mmod_Minimization_Converged-OPLS-2005>
0

> <r_mmod_RMS_Derivative-OPLS-2005>
3.83544230461121

$$$$
76
                    3D
 Structure written by MMmdl.
154163  0  0  1  0            999 V2000
  -30.4923  -14.9930   20.4141 C   0  0  0  0  0  0
  -30.4506  -12.6138   19.5045 C   0  0  0  0  0  0
  -29.5301  -12.5458   18.2618 C   0  0  0  0  0  0
  -28.0630  -12.3204   18.6758 C   0  0  0  0  0  0
  -27.6326  -13.2462   19.8425 C   0  0  2  0  0  0
  -28.6745  -13.2670   20.9825 C   0  0  0  0  0  0
  -25.2479  -13.8209   20.5729 C   0  0  0  0  0  0
  -24.1789  -13.0437   20.9242 C   0  0  0  0  0  0
  -24.6398  -11.6918   20.8741 C   0  0  0  0  0  0
  -23.9077  -10.4287   21.0393 C   0  0  0  0  0  0
  -24.3621   -9.4204   21.9179 C   0  0  0  0  0  0
  -23.6295   -8.2243   22.0752 C   0  0  0  0  0  0
  -22.4277   -8.0278   21.3543 C   0  0  0  0  0  0
  -21.9913   -9.0250   20.4643 C   0  0  0  0  0  0
  -22.7241  -10.2131   20.3048 C   0  0  0  0  0  0
  -21.6856   -6.0730   22.5275 C   0  0  0  0  0  0
  -21.4019   -6.5633   23.8210 C   0  0  0  0  0  0
  -21.3667   -5.6781   24.9171 C   0  0  0  0  0  0
  -21.6046   -4.3045   24.7216 C   0  0  0  0  0  0
  -21.8820   -3.8142   23.4338 C   0  0  0  0  0  0
  -21.9199   -4.6960   22.3397 C   0  0  0  0  0  0
  -22.7809  -13.5220   21.1881 C   0  0  0  0  0  0
  -22.1661   -4.2150   21.0973 F   0  0  0  0  0  0
  -21.5637   -3.4526   25.7732 F   0  0  0  0  0  0
  -29.9492  -13.7031   20.3935 N   0  0  0  0  0  0
  -26.2898  -12.9429   20.3245 N   0  0  0  0  0  0
  -25.9330  -11.6557   20.5719 N   0  0  0  0  0  0
  -22.0440  -12.8220   22.0427 N   0  0  0  0  0  0
  -25.4142  -15.1946   20.4170 N   0  0  0  0  0  0
  -31.6872  -15.0939   20.1051 O   0  0  0  0  0  0
  -21.6641   -6.8876   21.4240 O   0  0  0  0  0  0
  -22.3497  -14.5522   20.6717 O   0  0  0  0  0  0
  -24.6463  -31.8401   23.1847 C   0  0  0  0  0  0
  -25.9223  -32.4675   23.8249 C   0  0  1  0  0  0
  -27.2234  -27.1035   20.1541 C   0  0  0  0  0  0
  -25.5964  -33.8481   24.2176 N   0  0  0  0  0  0
  -23.4517  -30.4567   21.5306 C   0  0  2  0  0  0
  -24.9023  -28.8746   20.1098 C   0  0  0  0  0  0
  -22.7581  -29.4526   22.4853 C   0  0  0  0  0  0
  -18.0301  -28.1410   22.8484 C   0  0  0  0  0  0
  -24.1487  -36.7242   23.2644 C   0  0  0  0  0  0
  -26.0085  -30.7027   21.3875 C   0  0  0  0  0  0
  -26.0791  -29.3100   20.7305 C   0  0  0  0  0  0
  -27.2368  -28.4401   20.7352 C   0  0  0  0  0  0
  -26.0164  -26.7711   19.5002 C   0  0  0  0  0  0
  -24.8856  -27.6203   19.4791 C   0  0  0  0  0  0
  -23.6797  -29.7806   20.1517 C   0  0  0  0  0  0
  -25.4123  -36.3020   24.0315 C   0  0  1  0  0  0
  -20.5914  -28.3740   23.1236 C   0  0  2  0  0  0
  -20.6787  -26.9442   22.5407 C   0  0  0  0  0  0
  -19.5756  -26.6391   21.5221 C   0  0  0  0  0  0
  -18.1936  -26.7949   22.1630 C   0  0  0  0  0  0
  -19.1559  -28.8893   23.2850 C   0  0  0  0  0  0
  -18.9471  -30.1487   23.8879 C   0  0  0  0  0  0
  -17.6466  -30.6607   24.0561 C   0  0  0  0  0  0
  -25.9076  -34.9399   23.5058 C   0  0  0  0  0  0
  -16.5359  -29.9094   23.6344 C   0  0  0  0  0  0
  -16.7286  -28.6512   23.0371 C   0  0  0  0  0  0
  -26.4535  -31.6559   25.0705 C   0  0  0  0  0  0
  -25.3711  -31.3761   26.1400 C   0  0  0  0  0  0
  -27.0408  -30.2952   24.6311 C   0  0  0  0  0  0
  -27.6060  -32.4334   25.7492 C   0  0  0  0  0  0
  -27.5577  -37.1778   24.8468 C   0  0  0  0  0  0
  -21.4267  -29.3058   22.3607 N   0  0  0  0  0  0
  -26.4288  -37.3735   23.9408 N   0  0  0  0  0  0
  -24.7220  -31.0223   22.0896 N   0  0  0  0  0  0
  -23.4206  -28.8083   23.3024 O   0  0  0  0  0  0
  -28.2867  -26.1215   20.2422 O   0  0  0  0  0  0
  -26.5658  -34.8905   22.4634 O   0  0  0  0  0  0
  -23.5577  -32.1291   23.7051 O   0  0  0  0  0  0
  -28.3790  -18.3147   20.9954 C   0  0  0  0  0  0
  -30.1533  -19.9500   19.8198 C   0  0  0  0  0  0
  -28.9738  -20.6802   20.2422 C   0  0  0  0  0  0
  -28.0875  -19.7375   20.8728 C   0  0  0  0  0  0
  -29.5581  -17.6535   20.5099 C   0  0  0  0  0  0
  -27.6774  -23.3397   20.6417 C   0  0  0  0  0  0
  -29.4510  -23.5926   19.7459 C   0  0  0  0  0  0
  -28.2024  -24.6100   19.8117 C   0  0  2  0  0  0
  -28.5535  -22.2548   19.8144 C   0  0  1  0  0  0
  -26.7448  -20.2272   21.3848 C   0  0  0  0  0  0
  -30.4265  -18.5692   19.9418 N   0  0  0  0  0  0
  -29.6311  -16.1109   20.6452 N   0  0  0  0  0  0
  -27.9540  -22.0222   18.5540 O   0  0  0  0  0  0
  -31.4813  -12.7897   19.1924 H   0  0  0  0  0  0
  -30.4582  -11.6593   20.0334 H   0  0  0  0  0  0
  -29.8584  -11.7523   17.5890 H   0  0  0  0  0  0
  -29.6117  -13.4767   17.6984 H   0  0  0  0  0  0
  -27.9652  -11.2776   18.9791 H   0  0  0  0  0  0
  -27.4009  -12.4516   17.8192 H   0  0  0  0  0  0
  -27.5953  -14.2504   19.4190 H   0  0  0  0  0  0
  -28.7701  -12.2834   21.4446 H   0  0  0  0  0  0
  -28.3628  -13.9493   21.7747 H   0  0  0  0  0  0
  -25.2761   -9.5692   22.4759 H   0  0  0  0  0  0
  -24.0005   -7.4637   22.7475 H   0  0  0  0  0  0
  -21.0848   -8.8758   19.8949 H   0  0  0  0  0  0
  -22.3689  -10.9666   19.6158 H   0  0  0  0  0  0
  -21.2001   -7.6134   23.9718 H   0  0  0  0  0  0
  -21.1497   -6.0507   25.9077 H   0  0  0  0  0  0
  -22.0596   -2.7605   23.2838 H   0  0  0  0  0  0
  -22.4027  -11.9881   22.4835 H   0  0  0  0  0  0
  -21.1059  -13.1261   22.2598 H   0  0  0  0  0  0
  -24.6398  -15.8397   20.5298 H   0  0  0  0  0  0
  -26.2401  -15.6364   20.0366 H   0  0  0  0  0  0
  -26.7286  -32.5268   23.0970 H   0  0  0  0  0  0
  -25.0106  -33.9584   25.0323 H   0  0  0  0  0  0
  -22.7563  -31.2833   21.3718 H   0  0  0  0  0  0
  -23.3763  -35.9561   23.3286 H   0  0  0  0  0  0
  -24.3571  -36.8895   22.2063 H   0  0  0  0  0  0
  -23.7233  -37.6427   23.6694 H   0  0  0  0  0  0
  -26.1660  -31.4542   20.6128 H   0  0  0  0  0  0
  -26.8785  -30.7555   22.0307 H   0  0  0  0  0  0
  -28.1326  -28.7695   21.2423 H   0  0  0  0  0  0
  -25.9076  -25.8079   19.0264 H   0  0  0  0  0  0
  -23.9855  -27.2801   18.9866 H   0  0  0  0  0  0
  -23.8183  -30.5522   19.3933 H   0  0  0  0  0  0
  -22.7940  -29.2227   19.8425 H   0  0  0  0  0  0
  -25.1315  -36.1838   25.0808 H   0  0  0  0  0  0
  -21.0002  -28.3329   24.1357 H   0  0  0  0  0  0
  -20.5688  -26.2351   23.3627 H   0  0  0  0  0  0
  -21.6649  -26.7444   22.1194 H   0  0  0  0  0  0
  -19.6911  -25.6290   21.1277 H   0  0  0  0  0  0
  -19.6697  -27.3180   20.6734 H   0  0  0  0  0  0
  -17.4206  -26.6709   21.4028 H   0  0  0  0  0  0
  -18.0323  -26.0093   22.9027 H   0  0  0  0  0  0
  -19.7943  -30.7317   24.2240 H   0  0  0  0  0  0
  -17.5014  -31.6288   24.5161 H   0  0  0  0  0  0
  -15.5357  -30.2991   23.7680 H   0  0  0  0  0  0
  -15.8683  -28.0818   22.7114 H   0  0  0  0  0  0
  -24.5871  -30.7138   25.7709 H   0  0  0  0  0  0
  -24.8927  -32.2954   26.4790 H   0  0  0  0  0  0
  -25.7978  -30.8938   27.0203 H   0  0  0  0  0  0
  -26.3035  -29.6664   24.1308 H   0  0  0  0  0  0
  -27.4004  -29.7264   25.4897 H   0  0  0  0  0  0
  -27.8947  -30.4188   23.9646 H   0  0  0  0  0  0
  -27.2649  -33.3658   26.2006 H   0  0  0  0  0  0
  -28.3900  -32.6863   25.0341 H   0  0  0  0  0  0
  -28.0696  -31.8505   26.5462 H   0  0  0  0  0  0
  -28.2582  -38.0087   24.7516 H   0  0  0  0  0  0
  -28.1088  -36.2616   24.6293 H   0  0  0  0  0  0
  -27.2293  -37.1415   25.8870 H   0  0  0  0  0  0
  -20.9487  -29.8757   21.6767 H   0  0  0  0  0  0
  -26.0153  -38.2801   24.1413 H   0  0  0  0  0  0
  -27.6261  -17.6945   21.4634 H   0  0  0  0  0  0
  -30.9148  -20.4972   19.2844 H   0  0  0  0  0  0
  -26.5996  -23.1893   20.5714 H   0  0  0  0  0  0
  -27.9604  -23.3910   21.6963 H   0  0  0  0  0  0
  -30.1140  -23.6939   20.6089 H   0  0  0  0  0  0
  -30.0431  -23.6827   18.8350 H   0  0  0  0  0  0
  -27.7380  -24.6112   18.8257 H   0  0  0  0  0  0
  -26.1810  -19.4328   21.8730 H   0  0  0  0  0  0
  -26.1393  -20.6048   20.5602 H   0  0  0  0  0  0
  -26.8811  -21.0281   22.1112 H   0  0  0  0  0  0
  -28.7472  -15.7473   20.9598 H   0  0  0  0  0  0
  -27.8561  -22.8631   18.1218 H   0  0  0  0  0  0
  1 25  1  0  0  0
  1 30  2  0  0  0
  1 82  1  0  0  0
  2  3  1  0  0  0
  2 25  1  0  0  0
  2 84  1  0  0  0
  2 85  1  0  0  0
  3  4  1  0  0  0
  3 86  1  0  0  0
  3 87  1  0  0  0
  4  5  1  0  0  0
  4 88  1  0  0  0
  4 89  1  0  0  0
  5  6  1  0  0  0
  5 26  1  0  0  0
  5 90  1  0  0  0
  6 25  1  0  0  0
  6 91  1  0  0  0
  6 92  1  0  0  0
  7  8  2  0  0  0
  7 26  1  0  0  0
  7 29  1  0  0  0
  8  9  1  0  0  0
  8 22  1  0  0  0
  9 10  1  0  0  0
  9 27  2  0  0  0
 10 11  2  0  0  0
 10 15  1  0  0  0
 11 12  1  0  0  0
 11 93  1  0  0  0
 12 13  2  0  0  0
 12 94  1  0  0  0
 13 14  1  0  0  0
 13 31  1  0  0  0
 14 15  2  0  0  0
 14 95  1  0  0  0
 15 96  1  0  0  0
 16 17  2  0  0  0
 16 21  1  0  0  0
 16 31  1  0  0  0
 17 18  1  0  0  0
 17 97  1  0  0  0
 18 19  2  0  0  0
 18 98  1  0  0  0
 19 20  1  0  0  0
 19 24  1  0  0  0
 20 21  2  0  0  0
 20 99  1  0  0  0
 21 23  1  0  0  0
 22 28  1  0  0  0
 22 32  2  0  0  0
 26 27  1  0  0  0
 28100  1  0  0  0
 28101  1  0  0  0
 29102  1  0  0  0
 29103  1  0  0  0
 33 34  1  0  0  0
 33 66  1  0  0  0
 33 70  2  0  0  0
 34 36  1  0  0  0
 34 59  1  0  0  0
 34104  1  0  0  0
 35 44  2  0  0  0
 35 45  1  0  0  0
 35 68  1  0  0  0
 36 56  1  0  0  0
 36105  1  0  0  0
 37 39  1  0  0  0
 37 47  1  0  0  0
 37 66  1  0  0  0
 37106  1  0  0  0
 38 43  2  0  0  0
 38 46  1  0  0  0
 38 47  1  0  0  0
 39 64  1  0  0  0
 39 67  2  0  0  0
 40 52  1  0  0  0
 40 53  2  0  0  0
 40 58  1  0  0  0
 41107  1  0  0  0
 41108  1  0  0  0
 41109  1  0  0  0
 41 48  1  0  0  0
 42 43  1  0  0  0
 42 66  1  0  0  0
 42110  1  0  0  0
 42111  1  0  0  0
 43 44  1  0  0  0
 44112  1  0  0  0
 45 46  2  0  0  0
 45113  1  0  0  0
 46114  1  0  0  0
 47115  1  0  0  0
 47116  1  0  0  0
 48 56  1  0  0  0
 48 65  1  0  0  0
 48117  1  0  0  0
 49 50  1  0  0  0
 49 53  1  0  0  0
 49 64  1  0  0  0
 49118  1  0  0  0
 50 51  1  0  0  0
 50119  1  0  0  0
 50120  1  0  0  0
 51 52  1  0  0  0
 51121  1  0  0  0
 51122  1  0  0  0
 52123  1  0  0  0
 52124  1  0  0  0
 53 54  1  0  0  0
 54 55  2  0  0  0
 54125  1  0  0  0
 55 57  1  0  0  0
 55126  1  0  0  0
 56 69  2  0  0  0
 57 58  2  0  0  0
 57127  1  0  0  0
 58128  1  0  0  0
 59 60  1  0  0  0
 59 61  1  0  0  0
 59 62  1  0  0  0
 60129  1  0  0  0
 60130  1  0  0  0
 60131  1  0  0  0
 61132  1  0  0  0
 61133  1  0  0  0
 61134  1  0  0  0
 62135  1  0  0  0
 62136  1  0  0  0
 62137  1  0  0  0
 63 65  1  0  0  0
 63138  1  0  0  0
 63139  1  0  0  0
 63140  1  0  0  0
 64141  1  0  0  0
 65142  1  0  0  0
 68 78  1  0  0  0
 71 74  2  0  0  0
 71 75  1  0  0  0
 71143  1  0  0  0
 72 73  2  0  0  0
 72 81  1  0  0  0
 72144  1  0  0  0
 73 74  1  0  0  0
 73 79  1  0  0  0
 74 80  1  0  0  0
 75 81  2  0  0  0
 75 82  1  0  0  0
 76 78  1  0  0  0
 76 79  1  0  0  0
 76145  1  0  0  0
 76146  1  0  0  0
 77 78  1  0  0  0
 77 79  1  0  0  0
 77147  1  0  0  0
 77148  1  0  0  0
 78149  1  0  0  0
 79 83  1  0  0  0
 80150  1  0  0  0
 80151  1  0  0  0
 80152  1  0  0  0
 82153  1  0  0  0
 83154  1  0  0  0
M  ISO  4   1 100  68 101  78 101  82 100
M  END
> <chiral flag>
0

> <version>
0

> <s_m_source_file>
/data/baiqing/PycharmProjects/Reinvent-master-3.2/result/LINK_invent/BTK/process_docking_weight1_custom_sum_contain_oxygen_bond_distance_aromatic_linkinvent_7_9_3/rearranged_h_0184.sdf

> <i_m_source_file_index>
77

> <r_mmod_Potential_Energy-OPLS-2005>
474.023345947266

> <r_mmod_Stretch_Energy-OPLS-2005>
259.289703369141

> <r_mmod_Bend_Energy-OPLS-2005>
347.391418457031

> <r_mmod_Torsional_Energy-OPLS-2005>
207.033477783203

> <r_mmod_Improper_Torsional_Energy-OPLS-2005>
5.31990766525269

> <r_mmod_Van_der_Waal_Energy-OPLS-2005>
133.687973022461

> <r_mmod_Electrostatic_Energy-OPLS-2005>
-446.61669921875

> <r_mmod_Solvation_Energy-OPLS-2005>
-253.91096496582

> <b_mmod_Minimization_Converged-OPLS-2005>
0

> <r_mmod_RMS_Derivative-OPLS-2005>
1.10487771034241

$$$$
77
                    3D
 Structure written by MMmdl.
151160  0  0  1  0            999 V2000
  -30.3885  -15.4023   20.3632 C   0  0  0  0  0  0
  -30.4395  -12.9178   19.5064 C   0  0  0  0  0  0
  -29.5382  -12.5967   18.2852 C   0  0  0  0  0  0
  -28.0964  -12.2907   18.7265 C   0  0  0  0  0  0
  -27.6034  -13.2822   19.8075 C   0  0  2  0  0  0
  -28.6382  -13.5216   20.9270 C   0  0  0  0  0  0
  -25.2368  -13.8239   20.5755 C   0  0  0  0  0  0
  -24.1733  -13.0421   20.9269 C   0  0  0  0  0  0
  -24.6402  -11.6923   20.8753 C   0  0  0  0  0  0
  -23.9095  -10.4285   21.0391 C   0  0  0  0  0  0
  -24.3637   -9.4199   21.9173 C   0  0  0  0  0  0
  -23.6299   -8.2240   22.0752 C   0  0  0  0  0  0
  -22.4280   -8.0282   21.3542 C   0  0  0  0  0  0
  -21.9920   -9.0257   20.4641 C   0  0  0  0  0  0
  -22.7262  -10.2128   20.3043 C   0  0  0  0  0  0
  -21.6856   -6.0735   22.5277 C   0  0  0  0  0  0
  -21.4022   -6.5636   23.8212 C   0  0  0  0  0  0
  -21.3658   -5.6785   24.9170 C   0  0  0  0  0  0
  -21.6047   -4.3049   24.7219 C   0  0  0  0  0  0
  -21.8821   -3.8142   23.4338 C   0  0  0  0  0  0
  -21.9192   -4.6960   22.3396 C   0  0  0  0  0  0
  -22.7752  -13.5171   21.1899 C   0  0  0  0  0  0
  -22.1661   -4.2142   21.0976 F   0  0  0  0  0  0
  -21.5624   -3.4537   25.7733 F   0  0  0  0  0  0
  -29.8383  -14.0787   20.2725 N   0  0  0  0  0  0
  -26.2794  -12.9526   20.3187 N   0  0  0  0  0  0
  -25.9337  -11.6623   20.5686 N   0  0  0  0  0  0
  -22.0411  -12.8163   22.0459 N   0  0  0  0  0  0
  -25.3974  -15.1979   20.4200 N   0  0  0  0  0  0
  -31.6260  -15.3770   20.2735 O   0  0  0  0  0  0
  -21.6641   -6.8880   21.4240 O   0  0  0  0  0  0
  -22.3435  -14.5471   20.6726 O   0  0  0  0  0  0
  -24.6716  -31.8159   23.1630 C   0  0  0  0  0  0
  -25.9358  -32.4553   23.8128 C   0  0  1  0  0  0
  -27.2237  -26.8412   20.2009 C   0  0  0  0  0  0
  -25.5991  -33.8371   24.2033 N   0  0  0  0  0  0
  -23.4907  -30.4235   21.5149 C   0  0  2  0  0  0
  -24.9455  -28.7908   20.1207 C   0  0  0  0  0  0
  -22.7713  -29.4399   22.4761 C   0  0  0  0  0  0
  -18.0333  -28.1413   22.8470 C   0  0  0  0  0  0
  -24.1491  -36.7191   23.2648 C   0  0  0  0  0  0
  -26.0654  -30.5948   21.4063 C   0  0  0  0  0  0
  -26.1337  -29.1736   20.7562 C   0  0  0  0  0  0
  -27.2664  -28.2246   20.7634 C   0  0  0  0  0  0
  -26.0023  -26.6328   19.5179 C   0  0  0  0  0  0
  -24.9104  -27.5428   19.4789 C   0  0  0  0  0  0
  -23.7371  -29.7315   20.1458 C   0  0  0  0  0  0
  -25.4137  -36.2950   24.0294 C   0  0  1  0  0  0
  -20.5966  -28.3766   23.1172 C   0  0  2  0  0  0
  -20.6807  -26.9439   22.5402 C   0  0  0  0  0  0
  -19.5776  -26.6373   21.5221 C   0  0  0  0  0  0
  -18.1958  -26.7944   22.1629 C   0  0  0  0  0  0
  -19.1598  -28.8913   23.2804 C   0  0  0  0  0  0
  -18.9503  -30.1500   23.8841 C   0  0  0  0  0  0
  -17.6494  -30.6597   24.0557 C   0  0  0  0  0  0
  -25.9107  -34.9336   23.4985 C   0  0  0  0  0  0
  -16.5385  -29.9083   23.6346 C   0  0  0  0  0  0
  -16.7315  -28.6506   23.0364 C   0  0  0  0  0  0
  -26.4571  -31.6531   25.0692 C   0  0  0  0  0  0
  -25.3669  -31.3816   26.1328 C   0  0  0  0  0  0
  -27.0489  -30.2890   24.6490 C   0  0  0  0  0  0
  -27.6036  -32.4363   25.7510 C   0  0  0  0  0  0
  -27.5564  -37.1756   24.8467 C   0  0  0  0  0  0
  -21.4375  -29.3039   22.3510 N   0  0  0  0  0  0
  -26.4276  -37.3694   23.9408 N   0  0  0  0  0  0
  -24.7648  -30.9737   22.0810 N   0  0  0  0  0  0
  -23.4226  -28.7980   23.3040 O   0  0  0  0  0  0
  -28.2202  -25.6974   20.2146 O   0  0  0  0  0  0
  -26.5726  -34.8886   22.4589 O   0  0  0  0  0  0
  -23.5759  -32.1167   23.6665 O   0  0  0  0  0  0
  -30.0426  -21.4204   18.4683 C   0  0  0  0  0  0
  -29.3688  -19.9684   20.1016 C   0  0  0  0  0  0
  -28.7958  -22.5038   20.0521 C   0  0  0  0  0  0
  -30.3092  -22.0450   15.9328 C   0  0  0  0  0  0
  -30.8065  -20.6326   16.0722 C   0  0  0  0  0  0
  -30.9038  -21.5848   17.2487 C   0  0  0  0  0  0
  -29.7120  -18.3487   20.7779 C   0  0  0  0  0  0
  -27.9446  -24.0394   20.4387 C   0  0  0  0  0  0
  -30.0099  -20.1692   18.9565 N   0  0  0  0  0  0
  -29.5055  -22.5631   18.9273 N   0  0  0  0  0  0
  -28.7419  -21.1677   20.6685 N   0  0  0  0  0  0
  -29.6132  -16.6963   20.3518 N   0  0  0  0  0  0
  -31.4421  -13.1617   19.1527 H   0  0  0  0  0  0
  -30.5599  -12.0435   20.1477 H   0  0  0  0  0  0
  -29.9466  -11.7584   17.7193 H   0  0  0  0  0  0
  -29.5347  -13.4503   17.6064 H   0  0  0  0  0  0
  -28.0825  -11.2776   19.1298 H   0  0  0  0  0  0
  -27.4241  -12.2881   17.8674 H   0  0  0  0  0  0
  -27.4937  -14.2298   19.2782 H   0  0  0  0  0  0
  -28.8510  -12.6060   21.4806 H   0  0  0  0  0  0
  -28.2524  -14.2416   21.6504 H   0  0  0  0  0  0
  -25.2788   -9.5670   22.4745 H   0  0  0  0  0  0
  -24.0002   -7.4632   22.7478 H   0  0  0  0  0  0
  -21.0849   -8.8787   19.8950 H   0  0  0  0  0  0
  -22.3725  -10.9670   19.6150 H   0  0  0  0  0  0
  -21.2025   -7.6148   23.9712 H   0  0  0  0  0  0
  -21.1478   -6.0516   25.9072 H   0  0  0  0  0  0
  -22.0598   -2.7605   23.2840 H   0  0  0  0  0  0
  -22.4048  -11.9858   22.4888 H   0  0  0  0  0  0
  -21.1016  -13.1160   22.2641 H   0  0  0  0  0  0
  -24.6223  -15.8432   20.5311 H   0  0  0  0  0  0
  -26.2323  -15.6425   20.0639 H   0  0  0  0  0  0
  -26.7435  -32.5074   23.0845 H   0  0  0  0  0  0
  -25.0102  -33.9437   25.0158 H   0  0  0  0  0  0
  -22.8082  -31.2571   21.3365 H   0  0  0  0  0  0
  -23.3768  -35.9504   23.3281 H   0  0  0  0  0  0
  -24.3557  -36.8870   22.2067 H   0  0  0  0  0  0
  -23.7233  -37.6361   23.6729 H   0  0  0  0  0  0
  -26.2545  -31.3285   20.6218 H   0  0  0  0  0  0
  -26.9211  -30.6576   22.0662 H   0  0  0  0  0  0
  -28.1693  -28.5252   21.2767 H   0  0  0  0  0  0
  -25.8618  -25.6881   19.0135 H   0  0  0  0  0  0
  -24.0118  -27.2451   18.9559 H   0  0  0  0  0  0
  -23.9054  -30.4962   19.3866 H   0  0  0  0  0  0
  -22.8444  -29.1930   19.8230 H   0  0  0  0  0  0
  -25.1337  -36.1733   25.0783 H   0  0  0  0  0  0
  -21.0054  -28.3379   24.1298 H   0  0  0  0  0  0
  -20.5686  -26.2388   23.3655 H   0  0  0  0  0  0
  -21.6665  -26.7402   22.1209 H   0  0  0  0  0  0
  -19.6926  -25.6268   21.1288 H   0  0  0  0  0  0
  -19.6704  -27.3155   20.6731 H   0  0  0  0  0  0
  -17.4227  -26.6697   21.4032 H   0  0  0  0  0  0
  -18.0341  -26.0097   22.9035 H   0  0  0  0  0  0
  -19.7976  -30.7334   24.2180 H   0  0  0  0  0  0
  -17.5042  -31.6269   24.5172 H   0  0  0  0  0  0
  -15.5382  -30.2964   23.7692 H   0  0  0  0  0  0
  -15.8722  -28.0800   22.7107 H   0  0  0  0  0  0
  -24.5861  -30.7159   25.7629 H   0  0  0  0  0  0
  -24.8852  -32.3038   26.4593 H   0  0  0  0  0  0
  -25.7870  -30.9081   27.0213 H   0  0  0  0  0  0
  -26.3186  -29.6536   24.1475 H   0  0  0  0  0  0
  -27.3971  -29.7286   25.5176 H   0  0  0  0  0  0
  -27.9139  -30.4052   23.9961 H   0  0  0  0  0  0
  -27.2581  -33.3713   26.1936 H   0  0  0  0  0  0
  -28.3932  -32.6852   25.0407 H   0  0  0  0  0  0
  -28.0617  -31.8601   26.5558 H   0  0  0  0  0  0
  -28.2565  -38.0065   24.7510 H   0  0  0  0  0  0
  -28.1076  -36.2592   24.6304 H   0  0  0  0  0  0
  -27.2281  -37.1410   25.8869 H   0  0  0  0  0  0
  -20.9651  -29.8726   21.6622 H   0  0  0  0  0  0
  -26.0117  -38.2746   24.1417 H   0  0  0  0  0  0
  -29.2329  -22.1992   15.8982 H   0  0  0  0  0  0
  -30.9017  -22.7315   15.3320 H   0  0  0  0  0  0
  -31.7386  -20.3676   15.5779 H   0  0  0  0  0  0
  -30.0646  -19.8389   16.1261 H   0  0  0  0  0  0
  -31.8905  -21.9591   17.5140 H   0  0  0  0  0  0
  -29.1664  -18.3794   21.7206 H   0  0  0  0  0  0
  -30.7527  -18.4440   21.0888 H   0  0  0  0  0  0
  -26.9603  -23.8789   20.0012 H   0  0  0  0  0  0
  -27.7619  -23.9604   21.5102 H   0  0  0  0  0  0
  -28.6438  -16.4858   20.1752 H   0  0  0  0  0  0
  1 25  1  0  0  0
  1 30  2  0  0  0
  1 82  1  0  0  0
  2  3  1  0  0  0
  2 25  1  0  0  0
  2 83  1  0  0  0
  2 84  1  0  0  0
  3  4  1  0  0  0
  3 85  1  0  0  0
  3 86  1  0  0  0
  4  5  1  0  0  0
  4 87  1  0  0  0
  4 88  1  0  0  0
  5  6  1  0  0  0
  5 26  1  0  0  0
  5 89  1  0  0  0
  6 25  1  0  0  0
  6 90  1  0  0  0
  6 91  1  0  0  0
  7  8  2  0  0  0
  7 26  1  0  0  0
  7 29  1  0  0  0
  8  9  1  0  0  0
  8 22  1  0  0  0
  9 10  1  0  0  0
  9 27  2  0  0  0
 10 11  2  0  0  0
 10 15  1  0  0  0
 11 12  1  0  0  0
 11 92  1  0  0  0
 12 13  2  0  0  0
 12 93  1  0  0  0
 13 14  1  0  0  0
 13 31  1  0  0  0
 14 15  2  0  0  0
 14 94  1  0  0  0
 15 95  1  0  0  0
 16 17  2  0  0  0
 16 21  1  0  0  0
 16 31  1  0  0  0
 17 18  1  0  0  0
 17 96  1  0  0  0
 18 19  2  0  0  0
 18 97  1  0  0  0
 19 20  1  0  0  0
 19 24  1  0  0  0
 20 21  2  0  0  0
 20 98  1  0  0  0
 21 23  1  0  0  0
 22 28  1  0  0  0
 22 32  2  0  0  0
 26 27  1  0  0  0
 28 99  1  0  0  0
 28100  1  0  0  0
 29101  1  0  0  0
 29102  1  0  0  0
 33 34  1  0  0  0
 33 66  1  0  0  0
 33 70  2  0  0  0
 34 36  1  0  0  0
 34 59  1  0  0  0
 34103  1  0  0  0
 35 44  2  0  0  0
 35 45  1  0  0  0
 35 68  1  0  0  0
 36 56  1  0  0  0
 36104  1  0  0  0
 37 39  1  0  0  0
 37 47  1  0  0  0
 37 66  1  0  0  0
 37105  1  0  0  0
 38 43  2  0  0  0
 38 46  1  0  0  0
 38 47  1  0  0  0
 39 64  1  0  0  0
 39 67  2  0  0  0
 40 52  1  0  0  0
 40 53  2  0  0  0
 40 58  1  0  0  0
 41106  1  0  0  0
 41107  1  0  0  0
 41108  1  0  0  0
 41 48  1  0  0  0
 42 43  1  0  0  0
 42 66  1  0  0  0
 42109  1  0  0  0
 42110  1  0  0  0
 43 44  1  0  0  0
 44111  1  0  0  0
 45 46  2  0  0  0
 45112  1  0  0  0
 46113  1  0  0  0
 47114  1  0  0  0
 47115  1  0  0  0
 48 56  1  0  0  0
 48 65  1  0  0  0
 48116  1  0  0  0
 49 50  1  0  0  0
 49 53  1  0  0  0
 49 64  1  0  0  0
 49117  1  0  0  0
 50 51  1  0  0  0
 50118  1  0  0  0
 50119  1  0  0  0
 51 52  1  0  0  0
 51120  1  0  0  0
 51121  1  0  0  0
 52122  1  0  0  0
 52123  1  0  0  0
 53 54  1  0  0  0
 54 55  2  0  0  0
 54124  1  0  0  0
 55 57  1  0  0  0
 55125  1  0  0  0
 56 69  2  0  0  0
 57 58  2  0  0  0
 57126  1  0  0  0
 58127  1  0  0  0
 59 60  1  0  0  0
 59 61  1  0  0  0
 59 62  1  0  0  0
 60128  1  0  0  0
 60129  1  0  0  0
 60130  1  0  0  0
 61131  1  0  0  0
 61132  1  0  0  0
 61133  1  0  0  0
 62134  1  0  0  0
 62135  1  0  0  0
 62136  1  0  0  0
 63 65  1  0  0  0
 63137  1  0  0  0
 63138  1  0  0  0
 63139  1  0  0  0
 64140  1  0  0  0
 65141  1  0  0  0
 68 78  1  0  0  0
 71 79  2  0  0  0
 71 80  1  0  0  0
 71 76  1  0  0  0
 72 77  1  0  0  0
 72 79  1  0  0  0
 72 81  2  0  0  0
 73 78  1  0  0  0
 73 80  2  0  0  0
 73 81  1  0  0  0
 74 75  1  0  0  0
 74 76  1  0  0  0
 74142  1  0  0  0
 74143  1  0  0  0
 75 76  1  0  0  0
 75144  1  0  0  0
 75145  1  0  0  0
 76146  1  0  0  0
 77 82  1  0  0  0
 77147  1  0  0  0
 77148  1  0  0  0
 78149  1  0  0  0
 78150  1  0  0  0
 82151  1  0  0  0
M  ISO  4   1 100  68 101  78 101  82 100
M  END
> <chiral flag>
0

> <version>
0

> <s_m_source_file>
/data/baiqing/PycharmProjects/Reinvent-master-3.2/result/LINK_invent/BTK/process_docking_weight1_custom_sum_contain_oxygen_bond_distance_aromatic_linkinvent_7_9_3/rearranged_h_0184.sdf

> <i_m_source_file_index>
78

> <r_mmod_Potential_Energy-OPLS-2005>
849.440673828125

> <r_mmod_Stretch_Energy-OPLS-2005>
710.806945800781

> <r_mmod_Bend_Energy-OPLS-2005>
507.934844970703

> <r_mmod_Torsional_Energy-OPLS-2005>
238.042907714844

> <r_mmod_Improper_Torsional_Energy-OPLS-2005>
7.13659286499023

> <r_mmod_Van_der_Waal_Energy-OPLS-2005>
136.485824584961

> <r_mmod_Electrostatic_Energy-OPLS-2005>
-1094.77014160156

> <r_mmod_Solvation_Energy-OPLS-2005>
-263.823028564453

> <b_mmod_Minimization_Converged-OPLS-2005>
0

> <r_mmod_RMS_Derivative-OPLS-2005>
1.0570375919342

$$$$
78
                    3D
 Structure written by MMmdl.
158167  0  0  1  0            999 V2000
  -30.4872  -15.1349   20.4498 C   0  0  0  0  0  0
  -30.4066  -12.7506   19.5095 C   0  0  0  0  0  0
  -29.5085  -12.5769   18.2641 C   0  0  0  0  0  0
  -28.0516  -12.3104   18.6790 C   0  0  0  0  0  0
  -27.5926  -13.2560   19.8150 C   0  0  2  0  0  0
  -28.6155  -13.4020   20.9581 C   0  0  0  0  0  0
  -25.2269  -13.8149   20.5765 C   0  0  0  0  0  0
  -24.1643  -13.0404   20.9278 C   0  0  0  0  0  0
  -24.6274  -11.6872   20.8772 C   0  0  0  0  0  0
  -23.9029  -10.4248   21.0413 C   0  0  0  0  0  0
  -24.3618   -9.4184   21.9188 C   0  0  0  0  0  0
  -23.6304   -8.2227   22.0715 C   0  0  0  0  0  0
  -22.4279   -8.0234   21.3507 C   0  0  0  0  0  0
  -21.9913   -9.0217   20.4612 C   0  0  0  0  0  0
  -22.7227  -10.2091   20.3053 C   0  0  0  0  0  0
  -21.6858   -6.0729   22.5302 C   0  0  0  0  0  0
  -21.4019   -6.5636   23.8226 C   0  0  0  0  0  0
  -21.3668   -5.6775   24.9190 C   0  0  0  0  0  0
  -21.6062   -4.3050   24.7228 C   0  0  0  0  0  0
  -21.8814   -3.8137   23.4351 C   0  0  0  0  0  0
  -21.9191   -4.6972   22.3401 C   0  0  0  0  0  0
  -22.7696  -13.5157   21.1940 C   0  0  0  0  0  0
  -22.1655   -4.2160   21.0994 F   0  0  0  0  0  0
  -21.5628   -3.4515   25.7741 F   0  0  0  0  0  0
  -29.8607  -13.8758   20.3429 N   0  0  0  0  0  0
  -26.2667  -12.9410   20.3172 N   0  0  0  0  0  0
  -25.9197  -11.6527   20.5730 N   0  0  0  0  0  0
  -22.0335  -12.8154   22.0483 N   0  0  0  0  0  0
  -25.3892  -15.1902   20.4293 N   0  0  0  0  0  0
  -31.7125  -15.0787   20.2760 O   0  0  0  0  0  0
  -21.6623   -6.8865   21.4244 O   0  0  0  0  0  0
  -22.3433  -14.5509   20.6772 O   0  0  0  0  0  0
  -24.6534  -31.8319   23.1830 C   0  0  0  0  0  0
  -25.9313  -32.4635   23.8254 C   0  0  1  0  0  0
  -27.1951  -26.9965   20.2048 C   0  0  0  0  0  0
  -25.6140  -33.8462   24.2147 N   0  0  0  0  0  0
  -23.4592  -30.4530   21.5251 C   0  0  2  0  0  0
  -24.9186  -28.8640   20.1102 C   0  0  0  0  0  0
  -22.7591  -29.4424   22.4719 C   0  0  0  0  0  0
  -18.0343  -28.1341   22.8468 C   0  0  0  0  0  0
  -24.1460  -36.7056   23.2634 C   0  0  0  0  0  0
  -26.0235  -30.6699   21.4028 C   0  0  0  0  0  0
  -26.0981  -29.2691   20.7455 C   0  0  0  0  0  0
  -27.2339  -28.3496   20.7822 C   0  0  0  0  0  0
  -25.9968  -26.7366   19.5115 C   0  0  0  0  0  0
  -24.8893  -27.6132   19.4772 C   0  0  0  0  0  0
  -23.7011  -29.7895   20.1425 C   0  0  0  0  0  0
  -25.4086  -36.2902   24.0292 C   0  0  1  0  0  0
  -20.5958  -28.3630   23.1173 C   0  0  2  0  0  0
  -20.6764  -26.9320   22.5381 C   0  0  0  0  0  0
  -19.5752  -26.6297   21.5175 C   0  0  0  0  0  0
  -18.1936  -26.7891   22.1597 C   0  0  0  0  0  0
  -19.1611  -28.8821   23.2830 C   0  0  0  0  0  0
  -18.9538  -30.1434   23.8837 C   0  0  0  0  0  0
  -17.6530  -30.6566   24.0522 C   0  0  0  0  0  0
  -25.9090  -34.9339   23.4939 C   0  0  0  0  0  0
  -16.5401  -29.9032   23.6408 C   0  0  0  0  0  0
  -16.7338  -28.6485   23.0369 C   0  0  0  0  0  0
  -26.4585  -31.6601   25.0807 C   0  0  0  0  0  0
  -25.3705  -31.3890   26.1453 C   0  0  0  0  0  0
  -27.0497  -30.2982   24.6586 C   0  0  0  0  0  0
  -27.6110  -32.4398   25.7652 C   0  0  0  0  0  0
  -27.5457  -37.1622   24.8476 C   0  0  0  0  0  0
  -21.4297  -29.2929   22.3481 N   0  0  0  0  0  0
  -26.4162  -37.3663   23.9498 N   0  0  0  0  0  0
  -24.7325  -31.0037   22.0929 N   0  0  0  0  0  0
  -23.4199  -28.7967   23.2909 O   0  0  0  0  0  0
  -28.1933  -25.9246   20.3331 O   0  0  0  0  0  0
  -26.5549  -34.8872   22.4452 O   0  0  0  0  0  0
  -23.5622  -32.1271   23.6918 O   0  0  0  0  0  0
  -26.8117  -21.3738   20.4089 C   0  0  0  0  0  0
  -26.2877  -22.2048   21.5777 C   0  0  0  0  0  0
  -27.5569  -22.8738   22.1056 C   0  0  0  0  0  0
  -30.1810  -19.2346   20.4448 C   0  0  0  0  0  0
  -27.8888  -18.4720   20.4766 C   0  0  0  0  0  0
  -30.5936  -17.7428   21.0406 C   0  0  0  0  0  0
  -28.5461  -17.0059   20.0553 C   0  0  0  0  0  0
  -28.7343  -19.8437   20.7937 C   0  0  0  0  0  0
  -28.4590  -22.8678   20.8557 C   0  0  2  0  0  0
  -28.0095  -24.3482   20.0082 C   0  0  0  0  0  0
  -28.1652  -21.3429   20.3596 N   0  0  0  0  0  0
  -29.8455  -16.4513   20.6359 N   0  0  0  0  0  0
  -26.0293  -20.7719   19.6714 O   0  0  0  0  0  0
  -31.4315  -12.9415   19.1953 H   0  0  0  0  0  0
  -30.4473  -11.8290   20.0843 H   0  0  0  0  0  0
  -29.8780  -11.7700   17.6303 H   0  0  0  0  0  0
  -29.5452  -13.4903   17.6668 H   0  0  0  0  0  0
  -27.9744  -11.2701   18.9920 H   0  0  0  0  0  0
  -27.3942  -12.4164   17.8171 H   0  0  0  0  0  0
  -27.5082  -14.2205   19.3112 H   0  0  0  0  0  0
  -28.7537  -12.4626   21.4882 H   0  0  0  0  0  0
  -28.2603  -14.1235   21.6936 H   0  0  0  0  0  0
  -25.2754   -9.5713   22.4786 H   0  0  0  0  0  0
  -24.0013   -7.4639   22.7442 H   0  0  0  0  0  0
  -21.0826   -8.8749   19.8915 H   0  0  0  0  0  0
  -22.3679  -10.9651   19.6171 H   0  0  0  0  0  0
  -21.2002   -7.6144   23.9758 H   0  0  0  0  0  0
  -21.1497   -6.0488   25.9098 H   0  0  0  0  0  0
  -22.0576   -2.7600   23.2841 H   0  0  0  0  0  0
  -22.3927  -11.9851   22.4951 H   0  0  0  0  0  0
  -21.0927  -13.1182   22.2624 H   0  0  0  0  0  0
  -24.6204  -15.8385   20.5501 H   0  0  0  0  0  0
  -26.2486  -15.6351   20.1491 H   0  0  0  0  0  0
  -26.7389  -32.5188   23.0966 H   0  0  0  0  0  0
  -25.0717  -33.9721   25.0566 H   0  0  0  0  0  0
  -22.7673  -31.2853   21.3656 H   0  0  0  0  0  0
  -23.3795  -35.9310   23.3315 H   0  0  0  0  0  0
  -24.3498  -36.8661   22.2049 H   0  0  0  0  0  0
  -23.7216  -37.6226   23.6687 H   0  0  0  0  0  0
  -26.1839  -31.4268   20.6340 H   0  0  0  0  0  0
  -26.8888  -30.7275   22.0541 H   0  0  0  0  0  0
  -28.1250  -28.6335   21.3233 H   0  0  0  0  0  0
  -25.8437  -25.7856   19.0236 H   0  0  0  0  0  0
  -23.9985  -27.2909   18.9591 H   0  0  0  0  0  0
  -23.8461  -30.5778   19.4003 H   0  0  0  0  0  0
  -22.8112  -29.2511   19.8128 H   0  0  0  0  0  0
  -25.1271  -36.1565   25.0764 H   0  0  0  0  0  0
  -21.0160  -28.3236   24.1240 H   0  0  0  0  0  0
  -20.5561  -26.2247   23.3581 H   0  0  0  0  0  0
  -21.6602  -26.7161   22.1188 H   0  0  0  0  0  0
  -19.6867  -25.6194   21.1236 H   0  0  0  0  0  0
  -19.6743  -27.3083   20.6686 H   0  0  0  0  0  0
  -17.4158  -26.6700   21.4030 H   0  0  0  0  0  0
  -18.0304  -26.0014   22.8989 H   0  0  0  0  0  0
  -19.8031  -30.7279   24.2098 H   0  0  0  0  0  0
  -17.5109  -31.6285   24.5043 H   0  0  0  0  0  0
  -15.5405  -30.2863   23.7824 H   0  0  0  0  0  0
  -15.8747  -28.0807   22.7013 H   0  0  0  0  0  0
  -24.5962  -30.7188   25.7712 H   0  0  0  0  0  0
  -24.8800  -32.3109   26.4630 H   0  0  0  0  0  0
  -25.7867  -30.9212   27.0393 H   0  0  0  0  0  0
  -26.3076  -29.6603   24.1793 H   0  0  0  0  0  0
  -27.4182  -29.7486   25.5242 H   0  0  0  0  0  0
  -27.8947  -30.4143   23.9800 H   0  0  0  0  0  0
  -27.2721  -33.3759   26.2103 H   0  0  0  0  0  0
  -28.4001  -32.6858   25.0557 H   0  0  0  0  0  0
  -28.0703  -31.8643   26.5710 H   0  0  0  0  0  0
  -28.2395  -37.9968   24.7462 H   0  0  0  0  0  0
  -28.0998  -36.2468   24.6296 H   0  0  0  0  0  0
  -27.2182  -37.1195   25.8876 H   0  0  0  0  0  0
  -20.9414  -29.8871   21.6917 H   0  0  0  0  0  0
  -25.9939  -38.2643   24.1746 H   0  0  0  0  0  0
  -25.7900  -21.5783   22.3239 H   0  0  0  0  0  0
  -25.5613  -22.9354   21.2196 H   0  0  0  0  0  0
  -27.9652  -22.2633   22.9167 H   0  0  0  0  0  0
  -27.3810  -23.8688   22.5159 H   0  0  0  0  0  0
  -30.3025  -19.2231   19.3603 H   0  0  0  0  0  0
  -30.9453  -19.9379   20.7950 H   0  0  0  0  0  0
  -27.2096  -18.3080   21.3248 H   0  0  0  0  0  0
  -27.1924  -18.6674   19.6602 H   0  0  0  0  0  0
  -31.6646  -17.6026   20.8490 H   0  0  0  0  0  0
  -30.5384  -17.8106   22.1347 H   0  0  0  0  0  0
  -28.7042  -17.0297   18.9711 H   0  0  0  0  0  0
  -27.7696  -16.2587   20.2174 H   0  0  0  0  0  0
  -28.7347  -19.9132   21.8866 H   0  0  0  0  0  0
  -29.5159  -22.9293   21.1223 H   0  0  0  0  0  0
  -26.9580  -24.2074   19.7927 H   0  0  0  0  0  0
  -28.4590  -24.2375   19.0208 H   0  0  0  0  0  0
  1 25  1  0  0  0
  1 30  2  0  0  0
  1 82  1  0  0  0
  2  3  1  0  0  0
  2 25  1  0  0  0
  2 84  1  0  0  0
  2 85  1  0  0  0
  3  4  1  0  0  0
  3 86  1  0  0  0
  3 87  1  0  0  0
  4  5  1  0  0  0
  4 88  1  0  0  0
  4 89  1  0  0  0
  5  6  1  0  0  0
  5 26  1  0  0  0
  5 90  1  0  0  0
  6 25  1  0  0  0
  6 91  1  0  0  0
  6 92  1  0  0  0
  7  8  2  0  0  0
  7 26  1  0  0  0
  7 29  1  0  0  0
  8  9  1  0  0  0
  8 22  1  0  0  0
  9 10  1  0  0  0
  9 27  2  0  0  0
 10 11  2  0  0  0
 10 15  1  0  0  0
 11 12  1  0  0  0
 11 93  1  0  0  0
 12 13  2  0  0  0
 12 94  1  0  0  0
 13 14  1  0  0  0
 13 31  1  0  0  0
 14 15  2  0  0  0
 14 95  1  0  0  0
 15 96  1  0  0  0
 16 17  2  0  0  0
 16 21  1  0  0  0
 16 31  1  0  0  0
 17 18  1  0  0  0
 17 97  1  0  0  0
 18 19  2  0  0  0
 18 98  1  0  0  0
 19 20  1  0  0  0
 19 24  1  0  0  0
 20 21  2  0  0  0
 20 99  1  0  0  0
 21 23  1  0  0  0
 22 28  1  0  0  0
 22 32  2  0  0  0
 26 27  1  0  0  0
 28100  1  0  0  0
 28101  1  0  0  0
 29102  1  0  0  0
 29103  1  0  0  0
 33 34  1  0  0  0
 33 66  1  0  0  0
 33 70  2  0  0  0
 34 36  1  0  0  0
 34 59  1  0  0  0
 34104  1  0  0  0
 35 44  2  0  0  0
 35 45  1  0  0  0
 35 68  1  0  0  0
 36 56  1  0  0  0
 36105  1  0  0  0
 37 39  1  0  0  0
 37 47  1  0  0  0
 37 66  1  0  0  0
 37106  1  0  0  0
 38 43  2  0  0  0
 38 46  1  0  0  0
 38 47  1  0  0  0
 39 64  1  0  0  0
 39 67  2  0  0  0
 40 52  1  0  0  0
 40 53  2  0  0  0
 40 58  1  0  0  0
 41107  1  0  0  0
 41108  1  0  0  0
 41109  1  0  0  0
 41 48  1  0  0  0
 42 43  1  0  0  0
 42 66  1  0  0  0
 42110  1  0  0  0
 42111  1  0  0  0
 43 44  1  0  0  0
 44112  1  0  0  0
 45 46  2  0  0  0
 45113  1  0  0  0
 46114  1  0  0  0
 47115  1  0  0  0
 47116  1  0  0  0
 48 56  1  0  0  0
 48 65  1  0  0  0
 48117  1  0  0  0
 49 50  1  0  0  0
 49 53  1  0  0  0
 49 64  1  0  0  0
 49118  1  0  0  0
 50 51  1  0  0  0
 50119  1  0  0  0
 50120  1  0  0  0
 51 52  1  0  0  0
 51121  1  0  0  0
 51122  1  0  0  0
 52123  1  0  0  0
 52124  1  0  0  0
 53 54  1  0  0  0
 54 55  2  0  0  0
 54125  1  0  0  0
 55 57  1  0  0  0
 55126  1  0  0  0
 56 69  2  0  0  0
 57 58  2  0  0  0
 57127  1  0  0  0
 58128  1  0  0  0
 59 60  1  0  0  0
 59 61  1  0  0  0
 59 62  1  0  0  0
 60129  1  0  0  0
 60130  1  0  0  0
 60131  1  0  0  0
 61132  1  0  0  0
 61133  1  0  0  0
 61134  1  0  0  0
 62135  1  0  0  0
 62136  1  0  0  0
 62137  1  0  0  0
 63 65  1  0  0  0
 63138  1  0  0  0
 63139  1  0  0  0
 63140  1  0  0  0
 64141  1  0  0  0
 65142  1  0  0  0
 68 80  1  0  0  0
 71 72  1  0  0  0
 71 81  1  0  0  0
 71 83  2  0  0  0
 72 73  1  0  0  0
 72143  1  0  0  0
 72144  1  0  0  0
 73 79  1  0  0  0
 73145  1  0  0  0
 73146  1  0  0  0
 74 76  1  0  0  0
 74 78  1  0  0  0
 74147  1  0  0  0
 74148  1  0  0  0
 75 77  1  0  0  0
 75 78  1  0  0  0
 75149  1  0  0  0
 75150  1  0  0  0
 76 82  1  0  0  0
 76151  1  0  0  0
 76152  1  0  0  0
 77 82  1  0  0  0
 77153  1  0  0  0
 77154  1  0  0  0
 78 81  1  0  0  0
 78155  1  0  0  0
 79 80  1  0  0  0
 79 81  1  0  0  0
 79156  1  0  0  0
 80157  1  0  0  0
 80158  1  0  0  0
M  ISO  4   1 100  68 101  80 101  82 100
M  END
> <chiral flag>
0

> <version>
0

> <s_m_source_file>
/data/baiqing/PycharmProjects/Reinvent-master-3.2/result/LINK_invent/BTK/process_docking_weight1_custom_sum_contain_oxygen_bond_distance_aromatic_linkinvent_7_9_3/rearranged_h_0184.sdf

> <i_m_source_file_index>
79

> <r_mmod_Potential_Energy-OPLS-2005>
1298.87280273438

> <r_mmod_Stretch_Energy-OPLS-2005>
442.287872314453

> <r_mmod_Bend_Energy-OPLS-2005>
476.971893310547

> <r_mmod_Torsional_Energy-OPLS-2005>
401.068756103516

> <r_mmod_Improper_Torsional_Energy-OPLS-2005>
6.63629865646362

> <r_mmod_Van_der_Waal_Energy-OPLS-2005>
120.722114562988

> <r_mmod_Electrostatic_Energy-OPLS-2005>
-277.461212158203

> <r_mmod_Solvation_Energy-OPLS-2005>
-225.494812011719

> <b_mmod_Minimization_Converged-OPLS-2005>
0

> <r_mmod_RMS_Derivative-OPLS-2005>
10.2597808837891

$$$$
79
                    3D
 Structure written by MMmdl.
161170  0  0  1  0            999 V2000
  -30.5438  -15.1666   20.4042 C   0  0  0  0  0  0
  -30.4297  -12.7442   19.5355 C   0  0  0  0  0  0
  -29.5372  -12.5864   18.2832 C   0  0  0  0  0  0
  -28.0731  -12.3400   18.6917 C   0  0  0  0  0  0
  -27.6143  -13.2895   19.8308 C   0  0  2  0  0  0
  -28.6516  -13.4180   20.9634 C   0  0  0  0  0  0
  -25.2282  -13.8215   20.5579 C   0  0  0  0  0  0
  -24.1683  -13.0390   20.9105 C   0  0  0  0  0  0
  -24.6414  -11.6915   20.8707 C   0  0  0  0  0  0
  -23.9131  -10.4277   21.0374 C   0  0  0  0  0  0
  -24.3670   -9.4217   21.9165 C   0  0  0  0  0  0
  -23.6325   -8.2267   22.0748 C   0  0  0  0  0  0
  -22.4304   -8.0303   21.3545 C   0  0  0  0  0  0
  -21.9946   -9.0278   20.4645 C   0  0  0  0  0  0
  -22.7290  -10.2141   20.3045 C   0  0  0  0  0  0
  -21.6865   -6.0753   22.5282 C   0  0  0  0  0  0
  -21.4016   -6.5654   23.8215 C   0  0  0  0  0  0
  -21.3658   -5.6805   24.9168 C   0  0  0  0  0  0
  -21.6043   -4.3065   24.7222 C   0  0  0  0  0  0
  -21.8820   -3.8161   23.4345 C   0  0  0  0  0  0
  -21.9198   -4.6979   22.3402 C   0  0  0  0  0  0
  -22.7704  -13.5119   21.1798 C   0  0  0  0  0  0
  -22.1667   -4.2175   21.0973 F   0  0  0  0  0  0
  -21.5628   -3.4542   25.7726 F   0  0  0  0  0  0
  -29.9045  -13.8979   20.3577 N   0  0  0  0  0  0
  -26.2822  -12.9586   20.3256 N   0  0  0  0  0  0
  -25.9386  -11.6656   20.5775 N   0  0  0  0  0  0
  -22.0400  -12.8128   22.0411 N   0  0  0  0  0  0
  -25.3649  -15.1932   20.3906 N   0  0  0  0  0  0
  -31.7641  -15.0539   20.1911 O   0  0  0  0  0  0
  -21.6655   -6.8913   21.4252 O   0  0  0  0  0  0
  -22.3359  -14.5432   20.6680 O   0  0  0  0  0  0
  -24.6569  -31.8344   23.1748 C   0  0  0  0  0  0
  -25.9297  -32.4636   23.8169 C   0  0  1  0  0  0
  -27.2079  -26.9858   20.1976 C   0  0  0  0  0  0
  -25.5995  -33.8444   24.2071 N   0  0  0  0  0  0
  -23.4643  -30.4470   21.5262 C   0  0  2  0  0  0
  -24.9118  -28.8388   20.1261 C   0  0  0  0  0  0
  -22.7614  -29.4501   22.4850 C   0  0  0  0  0  0
  -18.0322  -28.1410   22.8480 C   0  0  0  0  0  0
  -24.1486  -36.7204   23.2636 C   0  0  0  0  0  0
  -26.0295  -30.6604   21.3942 C   0  0  0  0  0  0
  -26.0975  -29.2518   20.7492 C   0  0  0  0  0  0
  -27.2459  -28.3481   20.7554 C   0  0  0  0  0  0
  -25.9907  -26.7005   19.5439 C   0  0  0  0  0  0
  -24.8777  -27.5791   19.5068 C   0  0  0  0  0  0
  -23.6964  -29.7621   20.1542 C   0  0  0  0  0  0
  -25.4137  -36.2981   24.0283 C   0  0  1  0  0  0
  -20.5932  -28.3745   23.1231 C   0  0  2  0  0  0
  -20.6800  -26.9446   22.5418 C   0  0  0  0  0  0
  -19.5766  -26.6385   21.5231 C   0  0  0  0  0  0
  -18.1947  -26.7948   22.1632 C   0  0  0  0  0  0
  -19.1574  -28.8904   23.2832 C   0  0  0  0  0  0
  -18.9490  -30.1498   23.8862 C   0  0  0  0  0  0
  -17.6481  -30.6611   24.0565 C   0  0  0  0  0  0
  -25.9111  -34.9379   23.4991 C   0  0  0  0  0  0
  -16.5379  -29.9102   23.6348 C   0  0  0  0  0  0
  -16.7298  -28.6518   23.0375 C   0  0  0  0  0  0
  -26.4560  -31.6557   25.0671 C   0  0  0  0  0  0
  -25.3674  -31.3838   26.1309 C   0  0  0  0  0  0
  -27.0425  -30.2929   24.6346 C   0  0  0  0  0  0
  -27.6047  -32.4349   25.7487 C   0  0  0  0  0  0
  -27.5560  -37.1755   24.8462 C   0  0  0  0  0  0
  -21.4302  -29.3046   22.3588 N   0  0  0  0  0  0
  -26.4269  -37.3724   23.9407 N   0  0  0  0  0  0
  -24.7379  -31.0050   22.0859 N   0  0  0  0  0  0
  -23.4210  -28.8069   23.3059 O   0  0  0  0  0  0
  -28.2445  -25.9383   20.1178 O   0  0  0  0  0  0
  -26.5710  -34.8920   22.4578 O   0  0  0  0  0  0
  -23.5658  -32.1286   23.6914 O   0  0  0  0  0  0
  -30.0057  -16.7609   20.4293 C   0  0  0  0  0  0
  -29.3732  -19.8142   20.2835 C   0  0  0  0  0  0
  -30.6463  -19.1450   20.0205 C   0  0  0  0  0  0
  -28.7565  -17.4267   20.8340 C   0  0  0  0  0  0
  -29.4715  -21.9753   18.5250 C   0  0  0  0  0  0
  -28.0868  -21.4381   18.5793 C   0  0  0  0  0  0
  -28.9241  -21.4476   19.8481 C   0  0  0  0  0  0
  -32.2914  -21.0127   20.6455 C   0  0  0  0  0  0
  -26.7945  -17.3363   22.3439 C   0  0  0  0  0  0
  -31.8930  -19.9299   19.6344 C   0  0  0  0  0  0
  -28.4112  -22.7310   20.8631 C   0  0  0  0  0  0
  -28.3021  -24.5256   20.8925 C   0  0  0  0  0  0
  -30.9044  -17.7595   20.0712 N   0  0  0  0  0  0
  -28.4673  -18.8256   20.6964 N   0  0  0  0  0  0
  -27.7447  -16.6766   21.4470 N   0  0  0  0  0  0
  -31.4585  -12.9028   19.2111 H   0  0  0  0  0  0
  -30.4540  -11.8216   20.1129 H   0  0  0  0  0  0
  -29.8955  -11.7716   17.6531 H   0  0  0  0  0  0
  -29.6073  -13.4926   17.6809 H   0  0  0  0  0  0
  -27.9892  -11.3030   19.0186 H   0  0  0  0  0  0
  -27.4193  -12.4419   17.8241 H   0  0  0  0  0  0
  -27.5435  -14.2748   19.3731 H   0  0  0  0  0  0
  -28.7921  -12.4654   21.4764 H   0  0  0  0  0  0
  -28.3140  -14.1124   21.7310 H   0  0  0  0  0  0
  -25.2818   -9.5705   22.4726 H   0  0  0  0  0  0
  -24.0038   -7.4664   22.7478 H   0  0  0  0  0  0
  -21.0871   -8.8816   19.8956 H   0  0  0  0  0  0
  -22.3748  -10.9688   19.6163 H   0  0  0  0  0  0
  -21.2006   -7.6160   23.9727 H   0  0  0  0  0  0
  -21.1469   -6.0523   25.9077 H   0  0  0  0  0  0
  -22.0596   -2.7629   23.2824 H   0  0  0  0  0  0
  -22.4056  -11.9830   22.4848 H   0  0  0  0  0  0
  -21.1012  -13.1147   22.2622 H   0  0  0  0  0  0
  -24.5801  -15.8043   20.5804 H   0  0  0  0  0  0
  -26.2529  -15.6921   20.4103 H   0  0  0  0  0  0
  -26.7352  -32.5199   23.0868 H   0  0  0  0  0  0
  -25.0097  -33.9519   25.0192 H   0  0  0  0  0  0
  -22.7731  -31.2770   21.3643 H   0  0  0  0  0  0
  -23.3767  -35.9510   23.3284 H   0  0  0  0  0  0
  -24.3548  -36.8873   22.2049 H   0  0  0  0  0  0
  -23.7224  -37.6382   23.6707 H   0  0  0  0  0  0
  -26.1983  -31.4013   20.6134 H   0  0  0  0  0  0
  -26.8933  -30.7173   22.0415 H   0  0  0  0  0  0
  -28.1542  -28.6743   21.2413 H   0  0  0  0  0  0
  -25.8815  -25.7368   19.0685 H   0  0  0  0  0  0
  -23.9697  -27.2519   19.0159 H   0  0  0  0  0  0
  -23.8467  -30.5292   19.3964 H   0  0  0  0  0  0
  -22.8055  -29.2159   19.8426 H   0  0  0  0  0  0
  -25.1333  -36.1757   25.0768 H   0  0  0  0  0  0
  -21.0013  -28.3346   24.1351 H   0  0  0  0  0  0
  -20.5713  -26.2362   23.3644 H   0  0  0  0  0  0
  -21.6665  -26.7450   22.1206 H   0  0  0  0  0  0
  -19.6933  -25.6281   21.1292 H   0  0  0  0  0  0
  -19.6713  -27.3173   20.6742 H   0  0  0  0  0  0
  -17.4226  -26.6705   21.4031 H   0  0  0  0  0  0
  -18.0336  -26.0102   22.9036 H   0  0  0  0  0  0
  -19.7968  -30.7322   24.2218 H   0  0  0  0  0  0
  -17.5045  -31.6293   24.5159 H   0  0  0  0  0  0
  -15.5381  -30.2994   23.7702 H   0  0  0  0  0  0
  -15.8693  -28.0822   22.7123 H   0  0  0  0  0  0
  -24.5844  -30.7210   25.7609 H   0  0  0  0  0  0
  -24.8882  -32.3076   26.4576 H   0  0  0  0  0  0
  -25.7874  -30.9093   27.0185 H   0  0  0  0  0  0
  -26.3081  -29.6638   24.1308 H   0  0  0  0  0  0
  -27.3943  -29.7252   25.4969 H   0  0  0  0  0  0
  -27.9026  -30.4119   23.9749 H   0  0  0  0  0  0
  -27.2605  -33.3682   26.1958 H   0  0  0  0  0  0
  -28.3936  -32.6862   25.0384 H   0  0  0  0  0  0
  -28.0625  -31.8543   26.5504 H   0  0  0  0  0  0
  -28.2568  -38.0061   24.7523 H   0  0  0  0  0  0
  -28.1065  -36.2593   24.6277 H   0  0  0  0  0  0
  -27.2274  -37.1388   25.8863 H   0  0  0  0  0  0
  -20.9551  -29.8712   21.6696 H   0  0  0  0  0  0
  -26.0111  -38.2768   24.1466 H   0  0  0  0  0  0
  -29.5840  -23.0546   18.4234 H   0  0  0  0  0  0
  -30.1334  -21.3888   17.8965 H   0  0  0  0  0  0
  -27.9180  -20.4773   18.0958 H   0  0  0  0  0  0
  -27.2709  -22.1505   18.4863 H   0  0  0  0  0  0
  -31.5228  -21.7776   20.7451 H   0  0  0  0  0  0
  -33.2033  -21.5117   20.3195 H   0  0  0  0  0  0
  -32.4738  -20.5849   21.6314 H   0  0  0  0  0  0
  -26.2823  -16.5935   22.9542 H   0  0  0  0  0  0
  -26.0345  -17.8765   21.7813 H   0  0  0  0  0  0
  -27.2803  -18.0386   23.0230 H   0  0  0  0  0  0
  -32.7357  -19.2418   19.5612 H   0  0  0  0  0  0
  -31.7879  -20.3362   18.6321 H   0  0  0  0  0  0
  -27.3801  -22.4468   21.0726 H   0  0  0  0  0  0
  -28.9159  -22.5063   21.8042 H   0  0  0  0  0  0
  -29.2359  -24.7307   21.4173 H   0  0  0  0  0  0
  -27.5454  -24.6890   21.6623 H   0  0  0  0  0  0
  -28.0076  -15.7400   21.7333 H   0  0  0  0  0  0
  1 25  1  0  0  0
  1 30  2  0  0  0
  1 71  1  0  0  0
  2  3  1  0  0  0
  2 25  1  0  0  0
  2 86  1  0  0  0
  2 87  1  0  0  0
  3  4  1  0  0  0
  3 88  1  0  0  0
  3 89  1  0  0  0
  4  5  1  0  0  0
  4 90  1  0  0  0
  4 91  1  0  0  0
  5  6  1  0  0  0
  5 26  1  0  0  0
  5 92  1  0  0  0
  6 25  1  0  0  0
  6 93  1  0  0  0
  6 94  1  0  0  0
  7  8  2  0  0  0
  7 26  1  0  0  0
  7 29  1  0  0  0
  8  9  1  0  0  0
  8 22  1  0  0  0
  9 10  1  0  0  0
  9 27  2  0  0  0
 10 11  2  0  0  0
 10 15  1  0  0  0
 11 12  1  0  0  0
 11 95  1  0  0  0
 12 13  2  0  0  0
 12 96  1  0  0  0
 13 14  1  0  0  0
 13 31  1  0  0  0
 14 15  2  0  0  0
 14 97  1  0  0  0
 15 98  1  0  0  0
 16 17  2  0  0  0
 16 21  1  0  0  0
 16 31  1  0  0  0
 17 18  1  0  0  0
 17 99  1  0  0  0
 18 19  2  0  0  0
 18100  1  0  0  0
 19 20  1  0  0  0
 19 24  1  0  0  0
 20 21  2  0  0  0
 20101  1  0  0  0
 21 23  1  0  0  0
 22 28  1  0  0  0
 22 32  2  0  0  0
 26 27  1  0  0  0
 28102  1  0  0  0
 28103  1  0  0  0
 29104  1  0  0  0
 29105  1  0  0  0
 33 34  1  0  0  0
 33 66  1  0  0  0
 33 70  2  0  0  0
 34 36  1  0  0  0
 34 59  1  0  0  0
 34106  1  0  0  0
 35 44  2  0  0  0
 35 45  1  0  0  0
 35 68  1  0  0  0
 36 56  1  0  0  0
 36107  1  0  0  0
 37 39  1  0  0  0
 37 47  1  0  0  0
 37 66  1  0  0  0
 37108  1  0  0  0
 38 43  2  0  0  0
 38 46  1  0  0  0
 38 47  1  0  0  0
 39 64  1  0  0  0
 39 67  2  0  0  0
 40 52  1  0  0  0
 40 53  2  0  0  0
 40 58  1  0  0  0
 41109  1  0  0  0
 41110  1  0  0  0
 41111  1  0  0  0
 41 48  1  0  0  0
 42 43  1  0  0  0
 42 66  1  0  0  0
 42112  1  0  0  0
 42113  1  0  0  0
 43 44  1  0  0  0
 44114  1  0  0  0
 45 46  2  0  0  0
 45115  1  0  0  0
 46116  1  0  0  0
 47117  1  0  0  0
 47118  1  0  0  0
 48 56  1  0  0  0
 48 65  1  0  0  0
 48119  1  0  0  0
 49 50  1  0  0  0
 49 53  1  0  0  0
 49 64  1  0  0  0
 49120  1  0  0  0
 50 51  1  0  0  0
 50121  1  0  0  0
 50122  1  0  0  0
 51 52  1  0  0  0
 51123  1  0  0  0
 51124  1  0  0  0
 52125  1  0  0  0
 52126  1  0  0  0
 53 54  1  0  0  0
 54 55  2  0  0  0
 54127  1  0  0  0
 55 57  1  0  0  0
 55128  1  0  0  0
 56 69  2  0  0  0
 57 58  2  0  0  0
 57129  1  0  0  0
 58130  1  0  0  0
 59 60  1  0  0  0
 59 61  1  0  0  0
 59 62  1  0  0  0
 60131  1  0  0  0
 60132  1  0  0  0
 60133  1  0  0  0
 61134  1  0  0  0
 61135  1  0  0  0
 61136  1  0  0  0
 62137  1  0  0  0
 62138  1  0  0  0
 62139  1  0  0  0
 63 65  1  0  0  0
 63140  1  0  0  0
 63141  1  0  0  0
 63142  1  0  0  0
 64143  1  0  0  0
 65144  1  0  0  0
 68 82  1  0  0  0
 71 74  1  0  0  0
 71 83  2  0  0  0
 72 73  2  0  0  0
 72 77  1  0  0  0
 72 84  1  0  0  0
 73 80  1  0  0  0
 73 83  1  0  0  0
 74 84  2  0  0  0
 74 85  1  0  0  0
 75 76  1  0  0  0
 75 77  1  0  0  0
 75145  1  0  0  0
 75146  1  0  0  0
 76 77  1  0  0  0
 76147  1  0  0  0
 76148  1  0  0  0
 77 81  1  0  0  0
 78 80  1  0  0  0
 78149  1  0  0  0
 78150  1  0  0  0
 78151  1  0  0  0
 79 85  1  0  0  0
 79152  1  0  0  0
 79153  1  0  0  0
 79154  1  0  0  0
 80155  1  0  0  0
 80156  1  0  0  0
 81 82  1  0  0  0
 81157  1  0  0  0
 81158  1  0  0  0
 82159  1  0  0  0
 82160  1  0  0  0
 85161  1  0  0  0
M  ISO  4   1 100  68 101  71 100  82 101
M  END
> <chiral flag>
0

> <version>
0

> <s_m_source_file>
/data/baiqing/PycharmProjects/Reinvent-master-3.2/result/LINK_invent/BTK/process_docking_weight1_custom_sum_contain_oxygen_bond_distance_aromatic_linkinvent_7_9_3/rearranged_h_0184.sdf

> <i_m_source_file_index>
80

> <r_mmod_Potential_Energy-OPLS-2005>
1434.8154296875

> <r_mmod_Stretch_Energy-OPLS-2005>
484.524627685547

> <r_mmod_Bend_Energy-OPLS-2005>
582.867553710938

> <r_mmod_Torsional_Energy-OPLS-2005>
255.805572509766

> <r_mmod_Improper_Torsional_Energy-OPLS-2005>
11.3123741149902

> <r_mmod_Van_der_Waal_Energy-OPLS-2005>
134.457656860352

> <r_mmod_Electrostatic_Energy-OPLS-2005>
-173.225082397461

> <r_mmod_Solvation_Energy-OPLS-2005>
-208.160522460938

> <b_mmod_Minimization_Converged-OPLS-2005>
0

> <r_mmod_RMS_Derivative-OPLS-2005>
5.24071645736694

$$$$
80
                    3D
 Structure written by MMmdl.
160169  0  0  1  0            999 V2000
  -30.7073  -14.5904   20.4925 C   0  0  0  0  0  0
  -30.4158  -12.3651   19.4517 C   0  0  0  0  0  0
  -29.4983  -12.4927   18.2194 C   0  0  0  0  0  0
  -28.0224  -12.3448   18.6353 C   0  0  0  0  0  0
  -27.6482  -13.2283   19.8565 C   0  0  2  0  0  0
  -28.6959  -13.1252   20.9874 C   0  0  0  0  0  0
  -25.2544  -13.8202   20.5710 C   0  0  0  0  0  0
  -24.1817  -13.0449   20.9190 C   0  0  0  0  0  0
  -24.6399  -11.6925   20.8735 C   0  0  0  0  0  0
  -23.9070  -10.4299   21.0397 C   0  0  0  0  0  0
  -24.3618   -9.4213   21.9174 C   0  0  0  0  0  0
  -23.6296   -8.2248   22.0750 C   0  0  0  0  0  0
  -22.4277   -8.0281   21.3544 C   0  0  0  0  0  0
  -21.9911   -9.0256   20.4647 C   0  0  0  0  0  0
  -22.7240  -10.2135   20.3051 C   0  0  0  0  0  0
  -21.6855   -6.0732   22.5276 C   0  0  0  0  0  0
  -21.4016   -6.5635   23.8210 C   0  0  0  0  0  0
  -21.3662   -5.6788   24.9172 C   0  0  0  0  0  0
  -21.6046   -4.3050   24.7222 C   0  0  0  0  0  0
  -21.8819   -3.8144   23.4341 C   0  0  0  0  0  0
  -21.9194   -4.6961   22.3398 C   0  0  0  0  0  0
  -22.7836  -13.5232   21.1848 C   0  0  0  0  0  0
  -22.1664   -4.2148   21.0976 F   0  0  0  0  0  0
  -21.5630   -3.4534   25.7734 F   0  0  0  0  0  0
  -30.0104  -13.4168   20.4038 N   0  0  0  0  0  0
  -26.2979  -12.9407   20.3329 N   0  0  0  0  0  0
  -25.9334  -11.6548   20.5764 N   0  0  0  0  0  0
  -22.0480  -12.8227   22.0405 N   0  0  0  0  0  0
  -25.4260  -15.1923   20.4158 N   0  0  0  0  0  0
  -31.8974  -14.6471   20.1695 O   0  0  0  0  0  0
  -21.6642   -6.8877   21.4240 O   0  0  0  0  0  0
  -22.3519  -14.5534   20.6689 O   0  0  0  0  0  0
  -24.6250  -31.8636   23.2086 C   0  0  0  0  0  0
  -25.9111  -32.4796   23.8392 C   0  0  1  0  0  0
  -27.2080  -27.3350   20.1020 C   0  0  0  0  0  0
  -25.5936  -33.8597   24.2307 N   0  0  0  0  0  0
  -23.4159  -30.4939   21.5519 C   0  0  2  0  0  0
  -24.8581  -28.9652   20.1081 C   0  0  0  0  0  0
  -22.7468  -29.4649   22.4945 C   0  0  0  0  0  0
  -18.0284  -28.1383   22.8483 C   0  0  0  0  0  0
  -24.1490  -36.7302   23.2635 C   0  0  0  0  0  0
  -25.9598  -30.7985   21.3808 C   0  0  0  0  0  0
  -26.0306  -29.4316   20.7163 C   0  0  0  0  0  0
  -27.2097  -28.6278   20.7086 C   0  0  0  0  0  0
  -26.0097  -26.9376   19.4542 C   0  0  0  0  0  0
  -24.8491  -27.7223   19.4688 C   0  0  0  0  0  0
  -23.6275  -29.8424   20.1630 C   0  0  0  0  0  0
  -25.4110  -36.3094   24.0333 C   0  0  1  0  0  0
  -20.5885  -28.3686   23.1282 C   0  0  2  0  0  0
  -20.6773  -26.9412   22.5406 C   0  0  0  0  0  0
  -19.5750  -26.6386   21.5207 C   0  0  0  0  0  0
  -18.1931  -26.7927   22.1621 C   0  0  0  0  0  0
  -19.1538  -28.8851   23.2879 C   0  0  0  0  0  0
  -18.9462  -30.1453   23.8892 C   0  0  0  0  0  0
  -17.6463  -30.6585   24.0564 C   0  0  0  0  0  0
  -25.9051  -34.9462   23.5116 C   0  0  0  0  0  0
  -16.5353  -29.9086   23.6331 C   0  0  0  0  0  0
  -16.7273  -28.6503   23.0346 C   0  0  0  0  0  0
  -26.4496  -31.6592   25.0750 C   0  0  0  0  0  0
  -25.3734  -31.3735   26.1481 C   0  0  0  0  0  0
  -27.0328  -30.3010   24.6204 C   0  0  0  0  0  0
  -27.6064  -32.4319   25.7514 C   0  0  0  0  0  0
  -27.5587  -37.1797   24.8455 C   0  0  0  0  0  0
  -21.4184  -29.3047   22.3682 N   0  0  0  0  0  0
  -26.4287  -37.3790   23.9422 N   0  0  0  0  0  0
  -24.6859  -31.0672   22.1033 N   0  0  0  0  0  0
  -23.4204  -28.8167   23.2999 O   0  0  0  0  0  0
  -28.2998  -26.4520   20.1712 O   0  0  0  0  0  0
  -26.5612  -34.8922   22.4678 O   0  0  0  0  0  0
  -23.5419  -32.1429   23.7422 O   0  0  0  0  0  0
  -28.4026  -22.5300   20.4809 C   0  0  0  0  0  0
  -28.9069  -23.8487   20.3095 C   0  0  0  0  0  0
  -29.3050  -21.4528   20.5957 C   0  0  0  0  0  0
  -31.0202  -22.9680   20.4013 C   0  0  0  0  0  0
  -29.0094  -17.8892   19.5843 C   0  0  0  0  0  0
  -29.7325  -18.0293   21.9081 C   0  0  0  0  0  0
  -29.7976  -16.5517   19.4284 C   0  0  0  0  0  0
  -30.5050  -16.6775   21.7389 C   0  0  0  0  0  0
  -29.6387  -18.8633   20.6069 C   0  0  0  0  0  0
  -32.5142  -23.2010   20.3413 C   0  0  0  0  0  0
  -27.9377  -25.0276   20.0075 C   0  0  0  0  0  0
  -30.2402  -24.0460   20.2758 N   0  0  0  0  0  0
  -30.6232  -21.6991   20.5519 N   0  0  0  0  0  0
  -30.0116  -15.7655   20.6728 N   0  0  0  0  0  0
  -28.8469  -20.1164   20.7576 N   0  0  0  0  0  0
  -31.4622  -12.4468   19.1514 H   0  0  0  0  0  0
  -30.3137  -11.3804   19.9109 H   0  0  0  0  0  0
  -29.7556  -11.7358   17.4774 H   0  0  0  0  0  0
  -29.6525  -13.4594   17.7370 H   0  0  0  0  0  0
  -27.8555  -11.2940   18.8747 H   0  0  0  0  0  0
  -27.3681  -12.5704   17.7925 H   0  0  0  0  0  0
  -27.6549  -14.2581   19.5001 H   0  0  0  0  0  0
  -28.6941  -12.1299   21.4333 H   0  0  0  0  0  0
  -28.4611  -13.8248   21.7913 H   0  0  0  0  0  0
  -25.2765   -9.5692   22.4744 H   0  0  0  0  0  0
  -24.0010   -7.4639   22.7466 H   0  0  0  0  0  0
  -21.0844   -8.8773   19.8955 H   0  0  0  0  0  0
  -22.3696  -10.9669   19.6159 H   0  0  0  0  0  0
  -21.2011   -7.6142   23.9713 H   0  0  0  0  0  0
  -21.1486   -6.0516   25.9076 H   0  0  0  0  0  0
  -22.0596   -2.7607   23.2836 H   0  0  0  0  0  0
  -22.4104  -11.9901   22.4814 H   0  0  0  0  0  0
  -21.1095  -13.1252   22.2598 H   0  0  0  0  0  0
  -24.6654  -15.8520   20.5378 H   0  0  0  0  0  0
  -26.2931  -15.6324   20.1347 H   0  0  0  0  0  0
  -26.7178  -32.5468   23.1141 H   0  0  0  0  0  0
  -25.0079  -33.9750   25.0447 H   0  0  0  0  0  0
  -22.7083  -31.3148   21.4168 H   0  0  0  0  0  0
  -23.3759  -35.9626   23.3273 H   0  0  0  0  0  0
  -24.3592  -36.8947   22.2055 H   0  0  0  0  0  0
  -23.7228  -37.6493   23.6668 H   0  0  0  0  0  0
  -26.0950  -31.5664   20.6177 H   0  0  0  0  0  0
  -26.8395  -30.8386   22.0118 H   0  0  0  0  0  0
  -28.1040  -28.9770   21.2055 H   0  0  0  0  0  0
  -25.9109  -25.9996   18.9316 H   0  0  0  0  0  0
  -23.9534  -27.3628   18.9810 H   0  0  0  0  0  0
  -23.7454  -30.6247   19.4123 H   0  0  0  0  0  0
  -22.7469  -29.2741   19.8578 H   0  0  0  0  0  0
  -25.1284  -36.1947   25.0823 H   0  0  0  0  0  0
  -20.9976  -28.3258   24.1404 H   0  0  0  0  0  0
  -20.5674  -26.2299   23.3604 H   0  0  0  0  0  0
  -21.6642  -26.7443   22.1201 H   0  0  0  0  0  0
  -19.6913  -25.6298   21.1238 H   0  0  0  0  0  0
  -19.6690  -27.3196   20.6737 H   0  0  0  0  0  0
  -17.4201  -26.6668   21.4024 H   0  0  0  0  0  0
  -18.0337  -26.0070   22.9019 H   0  0  0  0  0  0
  -19.7940  -30.7268   24.2258 H   0  0  0  0  0  0
  -17.5021  -31.6264   24.5170 H   0  0  0  0  0  0
  -15.5354  -30.2986   23.7661 H   0  0  0  0  0  0
  -15.8672  -28.0829   22.7055 H   0  0  0  0  0  0
  -24.5912  -30.7073   25.7821 H   0  0  0  0  0  0
  -24.8920  -32.2900   26.4898 H   0  0  0  0  0  0
  -25.8065  -30.8926   27.0260 H   0  0  0  0  0  0
  -26.2897  -29.6769   24.1222 H   0  0  0  0  0  0
  -27.4008  -29.7260   25.4714 H   0  0  0  0  0  0
  -27.8785  -30.4284   23.9439 H   0  0  0  0  0  0
  -27.2682  -33.3619   26.2096 H   0  0  0  0  0  0
  -28.3871  -32.6875   25.0336 H   0  0  0  0  0  0
  -28.0734  -31.8437   26.5425 H   0  0  0  0  0  0
  -28.2573  -38.0126   24.7551 H   0  0  0  0  0  0
  -28.1114  -36.2660   24.6208 H   0  0  0  0  0  0
  -27.2319  -37.1362   25.8859 H   0  0  0  0  0  0
  -20.9352  -29.8792   21.6918 H   0  0  0  0  0  0
  -26.0167  -38.2860   24.1450 H   0  0  0  0  0  0
  -27.3341  -22.3618   20.4866 H   0  0  0  0  0  0
  -27.9819  -17.6600   19.8718 H   0  0  0  0  0  0
  -28.9459  -18.3756   18.6099 H   0  0  0  0  0  0
  -30.2206  -18.6219   22.6829 H   0  0  0  0  0  0
  -28.7302  -17.8150   22.2824 H   0  0  0  0  0  0
  -30.7688  -16.7800   18.9835 H   0  0  0  0  0  0
  -29.2792  -15.9262   18.6999 H   0  0  0  0  0  0
  -30.4864  -16.1420   22.6898 H   0  0  0  0  0  0
  -31.5554  -16.9070   21.5469 H   0  0  0  0  0  0
  -30.6467  -19.1179   20.2745 H   0  0  0  0  0  0
  -32.7539  -24.2646   20.3208 H   0  0  0  0  0  0
  -32.9313  -22.7438   19.4442 H   0  0  0  0  0  0
  -33.0059  -22.7625   21.2095 H   0  0  0  0  0  0
  -27.0485  -24.8232   20.6072 H   0  0  0  0  0  0
  -27.6721  -24.8696   18.9622 H   0  0  0  0  0  0
  -27.8406  -20.0030   20.8037 H   0  0  0  0  0  0
  1 25  1  0  0  0
  1 30  2  0  0  0
  1 84  1  0  0  0
  2  3  1  0  0  0
  2 25  1  0  0  0
  2 86  1  0  0  0
  2 87  1  0  0  0
  3  4  1  0  0  0
  3 88  1  0  0  0
  3 89  1  0  0  0
  4  5  1  0  0  0
  4 90  1  0  0  0
  4 91  1  0  0  0
  5  6  1  0  0  0
  5 26  1  0  0  0
  5 92  1  0  0  0
  6 25  1  0  0  0
  6 93  1  0  0  0
  6 94  1  0  0  0
  7  8  2  0  0  0
  7 26  1  0  0  0
  7 29  1  0  0  0
  8  9  1  0  0  0
  8 22  1  0  0  0
  9 10  1  0  0  0
  9 27  2  0  0  0
 10 11  2  0  0  0
 10 15  1  0  0  0
 11 12  1  0  0  0
 11 95  1  0  0  0
 12 13  2  0  0  0
 12 96  1  0  0  0
 13 14  1  0  0  0
 13 31  1  0  0  0
 14 15  2  0  0  0
 14 97  1  0  0  0
 15 98  1  0  0  0
 16 17  2  0  0  0
 16 21  1  0  0  0
 16 31  1  0  0  0
 17 18  1  0  0  0
 17 99  1  0  0  0
 18 19  2  0  0  0
 18100  1  0  0  0
 19 20  1  0  0  0
 19 24  1  0  0  0
 20 21  2  0  0  0
 20101  1  0  0  0
 21 23  1  0  0  0
 22 28  1  0  0  0
 22 32  2  0  0  0
 26 27  1  0  0  0
 28102  1  0  0  0
 28103  1  0  0  0
 29104  1  0  0  0
 29105  1  0  0  0
 33 34  1  0  0  0
 33 66  1  0  0  0
 33 70  2  0  0  0
 34 36  1  0  0  0
 34 59  1  0  0  0
 34106  1  0  0  0
 35 44  2  0  0  0
 35 45  1  0  0  0
 35 68  1  0  0  0
 36 56  1  0  0  0
 36107  1  0  0  0
 37 39  1  0  0  0
 37 47  1  0  0  0
 37 66  1  0  0  0
 37108  1  0  0  0
 38 43  2  0  0  0
 38 46  1  0  0  0
 38 47  1  0  0  0
 39 64  1  0  0  0
 39 67  2  0  0  0
 40 52  1  0  0  0
 40 53  2  0  0  0
 40 58  1  0  0  0
 41109  1  0  0  0
 41110  1  0  0  0
 41111  1  0  0  0
 41 48  1  0  0  0
 42 43  1  0  0  0
 42 66  1  0  0  0
 42112  1  0  0  0
 42113  1  0  0  0
 43 44  1  0  0  0
 44114  1  0  0  0
 45 46  2  0  0  0
 45115  1  0  0  0
 46116  1  0  0  0
 47117  1  0  0  0
 47118  1  0  0  0
 48 56  1  0  0  0
 48 65  1  0  0  0
 48119  1  0  0  0
 49 50  1  0  0  0
 49 53  1  0  0  0
 49 64  1  0  0  0
 49120  1  0  0  0
 50 51  1  0  0  0
 50121  1  0  0  0
 50122  1  0  0  0
 51 52  1  0  0  0
 51123  1  0  0  0
 51124  1  0  0  0
 52125  1  0  0  0
 52126  1  0  0  0
 53 54  1  0  0  0
 54 55  2  0  0  0
 54127  1  0  0  0
 55 57  1  0  0  0
 55128  1  0  0  0
 56 69  2  0  0  0
 57 58  2  0  0  0
 57129  1  0  0  0
 58130  1  0  0  0
 59 60  1  0  0  0
 59 61  1  0  0  0
 59 62  1  0  0  0
 60131  1  0  0  0
 60132  1  0  0  0
 60133  1  0  0  0
 61134  1  0  0  0
 61135  1  0  0  0
 61136  1  0  0  0
 62137  1  0  0  0
 62138  1  0  0  0
 62139  1  0  0  0
 63 65  1  0  0  0
 63140  1  0  0  0
 63141  1  0  0  0
 63142  1  0  0  0
 64143  1  0  0  0
 65144  1  0  0  0
 68 81  1  0  0  0
 71 72  2  0  0  0
 71 73  1  0  0  0
 71145  1  0  0  0
 72 81  1  0  0  0
 72 82  1  0  0  0
 73 83  2  0  0  0
 73 85  1  0  0  0
 74 80  1  0  0  0
 74 82  2  0  0  0
 74 83  1  0  0  0
 75 77  1  0  0  0
 75 79  1  0  0  0
 75146  1  0  0  0
 75147  1  0  0  0
 76 78  1  0  0  0
 76 79  1  0  0  0
 76148  1  0  0  0
 76149  1  0  0  0
 77 84  1  0  0  0
 77150  1  0  0  0
 77151  1  0  0  0
 78 84  1  0  0  0
 78152  1  0  0  0
 78153  1  0  0  0
 79 85  1  0  0  0
 79154  1  0  0  0
 80155  1  0  0  0
 80156  1  0  0  0
 80157  1  0  0  0
 81158  1  0  0  0
 81159  1  0  0  0
 85160  1  0  0  0
M  ISO  4   1 100  68 101  81 101  84 100
M  END
> <chiral flag>
0

> <version>
0

> <s_m_source_file>
/data/baiqing/PycharmProjects/Reinvent-master-3.2/result/LINK_invent/BTK/process_docking_weight1_custom_sum_contain_oxygen_bond_distance_aromatic_linkinvent_7_9_3/rearranged_h_0184.sdf

> <i_m_source_file_index>
81

> <r_mmod_Potential_Energy-OPLS-2005>
-256.155792236328

> <r_mmod_Stretch_Energy-OPLS-2005>
63.375415802002

> <r_mmod_Bend_Energy-OPLS-2005>
159.10676574707

> <r_mmod_Torsional_Energy-OPLS-2005>
313.891723632812

> <r_mmod_Improper_Torsional_Energy-OPLS-2005>
12.20325756073

> <r_mmod_Van_der_Waal_Energy-OPLS-2005>
166.311233520508

> <r_mmod_Electrostatic_Energy-OPLS-2005>
-783.007019042969

> <r_mmod_Solvation_Energy-OPLS-2005>
-235.70149230957

> <b_mmod_Minimization_Converged-OPLS-2005>
0

> <r_mmod_RMS_Derivative-OPLS-2005>
0.668723821640015

$$$$
81
                    3D
 Structure written by MMmdl.
167176  0  0  1  0            999 V2000
  -30.7083  -14.5193   20.5224 C   0  0  0  0  0  0
  -30.4186  -12.3271   19.4340 C   0  0  0  0  0  0
  -29.4966  -12.4967   18.2104 C   0  0  0  0  0  0
  -28.0185  -12.3552   18.6230 C   0  0  0  0  0  0
  -27.6566  -13.2159   19.8644 C   0  0  2  0  0  0
  -28.7026  -13.0516   20.9915 C   0  0  0  0  0  0
  -25.2582  -13.8183   20.5693 C   0  0  0  0  0  0
  -24.1847  -13.0449   20.9196 C   0  0  0  0  0  0
  -24.6410  -11.6920   20.8739 C   0  0  0  0  0  0
  -23.9071  -10.4303   21.0406 C   0  0  0  0  0  0
  -24.3622   -9.4216   21.9183 C   0  0  0  0  0  0
  -23.6298   -8.2255   22.0752 C   0  0  0  0  0  0
  -22.4282   -8.0288   21.3541 C   0  0  0  0  0  0
  -21.9916   -9.0263   20.4645 C   0  0  0  0  0  0
  -22.7245  -10.2144   20.3054 C   0  0  0  0  0  0
  -21.6858   -6.0739   22.5282 C   0  0  0  0  0  0
  -21.4017   -6.5642   23.8215 C   0  0  0  0  0  0
  -21.3659   -5.6794   24.9178 C   0  0  0  0  0  0
  -21.6047   -4.3056   24.7229 C   0  0  0  0  0  0
  -21.8821   -3.8149   23.4350 C   0  0  0  0  0  0
  -21.9197   -4.6967   22.3405 C   0  0  0  0  0  0
  -22.7868  -13.5242   21.1850 C   0  0  0  0  0  0
  -22.1664   -4.2154   21.0980 F   0  0  0  0  0  0
  -21.5623   -3.4535   25.7739 F   0  0  0  0  0  0
  -30.0269  -13.3442   20.4243 N   0  0  0  0  0  0
  -26.3013  -12.9367   20.3336 N   0  0  0  0  0  0
  -25.9339  -11.6522   20.5765 N   0  0  0  0  0  0
  -22.0502  -12.8234   22.0401 N   0  0  0  0  0  0
  -25.4284  -15.1907   20.4085 N   0  0  0  0  0  0
  -31.8637  -14.6470   20.1126 O   0  0  0  0  0  0
  -21.6647   -6.8883   21.4244 O   0  0  0  0  0  0
  -22.3554  -14.5546   20.6692 O   0  0  0  0  0  0
  -24.6187  -31.8655   23.2083 C   0  0  0  0  0  0
  -25.9064  -32.4817   23.8387 C   0  0  1  0  0  0
  -27.2310  -27.4082   20.1035 C   0  0  0  0  0  0
  -25.5914  -33.8614   24.2317 N   0  0  0  0  0  0
  -23.4096  -30.4897   21.5475 C   0  0  2  0  0  0
  -24.8603  -28.9608   20.1049 C   0  0  0  0  0  0
  -22.7444  -29.4648   22.4951 C   0  0  0  0  0  0
  -18.0278  -28.1386   22.8493 C   0  0  0  0  0  0
  -24.1491  -36.7313   23.2638 C   0  0  0  0  0  0
  -25.9427  -30.8246   21.3670 C   0  0  0  0  0  0
  -26.0223  -29.4600   20.7089 C   0  0  0  0  0  0
  -27.2146  -28.6915   20.7052 C   0  0  0  0  0  0
  -26.0588  -26.9428   19.4710 C   0  0  0  0  0  0
  -24.8767  -27.7039   19.4778 C   0  0  0  0  0  0
  -23.6206  -29.8258   20.1603 C   0  0  0  0  0  0
  -25.4114  -36.3111   24.0334 C   0  0  1  0  0  0
  -20.5877  -28.3681   23.1304 C   0  0  2  0  0  0
  -20.6772  -26.9411   22.5416 C   0  0  0  0  0  0
  -19.5747  -26.6389   21.5219 C   0  0  0  0  0  0
  -18.1924  -26.7931   22.1626 C   0  0  0  0  0  0
  -19.1532  -28.8847   23.2896 C   0  0  0  0  0  0
  -18.9458  -30.1449   23.8911 C   0  0  0  0  0  0
  -17.6461  -30.6587   24.0571 C   0  0  0  0  0  0
  -25.9040  -34.9475   23.5121 C   0  0  0  0  0  0
  -16.5351  -29.9088   23.6335 C   0  0  0  0  0  0
  -16.7265  -28.6506   23.0352 C   0  0  0  0  0  0
  -26.4478  -31.6604   25.0723 C   0  0  0  0  0  0
  -25.3730  -31.3712   26.1460 C   0  0  0  0  0  0
  -27.0314  -30.3045   24.6116 C   0  0  0  0  0  0
  -27.6062  -32.4317   25.7481 C   0  0  0  0  0  0
  -27.5584  -37.1810   24.8465 C   0  0  0  0  0  0
  -21.4162  -29.3042   22.3703 N   0  0  0  0  0  0
  -26.4299  -37.3798   23.9406 N   0  0  0  0  0  0
  -24.6755  -31.0743   22.0989 N   0  0  0  0  0  0
  -23.4209  -28.8183   23.2990 O   0  0  0  0  0  0
  -28.3193  -26.5562   20.1811 O   0  0  0  0  0  0
  -26.5603  -34.8932   22.4685 O   0  0  0  0  0  0
  -23.5373  -32.1407   23.7464 O   0  0  0  0  0  0
  -28.8412  -23.1595   20.2863 C   0  0  0  0  0  0
  -29.4758  -21.9352   20.6627 C   0  0  0  0  0  0
  -28.9706  -24.2565   21.1863 C   0  0  0  0  0  0
  -30.3632  -22.9896   22.5073 C   0  0  0  0  0  0
  -30.5300  -19.9752   19.2257 C   0  0  0  0  0  0
  -29.3459  -20.6052   19.9186 C   0  0  1  0  0  0
  -31.2261  -22.9000   23.7470 C   0  0  0  0  0  0
  -27.8877  -24.1626   16.6979 C   0  0  0  0  0  0
  -27.9919  -23.2813   19.0127 C   0  0  0  0  0  0
  -28.0754  -25.5208   21.1681 C   0  0  0  0  0  0
  -30.5311  -17.0045   20.8766 C   0  0  0  0  0  0
  -29.4834  -18.1395   20.6197 C   0  0  0  0  0  0
  -30.2362  -21.8831   21.7796 N   0  0  0  0  0  0
  -29.7649  -24.1476   22.2702 N   0  0  0  0  0  0
  -30.0043  -15.6098   20.9061 N   0  0  0  0  0  0
  -30.0987  -19.5075   20.5346 N   0  3  1  0  0  0
  -28.6976  -23.9911   17.9192 N   0  3  0  0  0  0
  -31.4634  -12.4150   19.1307 H   0  0  0  0  0  0
  -30.3148  -11.3283   19.8594 H   0  0  0  0  0  0
  -29.7450  -11.7579   17.4472 H   0  0  0  0  0  0
  -29.6607  -13.4748   17.7557 H   0  0  0  0  0  0
  -27.8361  -11.3009   18.8349 H   0  0  0  0  0  0
  -27.3693  -12.6111   17.7848 H   0  0  0  0  0  0
  -27.6834  -14.2562   19.5388 H   0  0  0  0  0  0
  -28.6905  -12.0340   21.3840 H   0  0  0  0  0  0
  -28.4693  -13.7016   21.8363 H   0  0  0  0  0  0
  -25.2768   -9.5695   22.4755 H   0  0  0  0  0  0
  -24.0010   -7.4652   22.7473 H   0  0  0  0  0  0
  -21.0846   -8.8782   19.8951 H   0  0  0  0  0  0
  -22.3700  -10.9683   19.6161 H   0  0  0  0  0  0
  -21.2002   -7.6149   23.9719 H   0  0  0  0  0  0
  -21.1475   -6.0520   25.9080 H   0  0  0  0  0  0
  -22.0596   -2.7613   23.2850 H   0  0  0  0  0  0
  -22.4107  -11.9883   22.4771 H   0  0  0  0  0  0
  -21.1120  -13.1257   22.2595 H   0  0  0  0  0  0
  -24.6557  -15.8398   20.5070 H   0  0  0  0  0  0
  -26.2695  -15.6279   20.0549 H   0  0  0  0  0  0
  -26.7141  -32.5521   23.1157 H   0  0  0  0  0  0
  -25.0068  -33.9774   25.0465 H   0  0  0  0  0  0
  -22.6995  -31.3071   21.4079 H   0  0  0  0  0  0
  -23.3753  -35.9646   23.3311 H   0  0  0  0  0  0
  -24.3580  -36.8918   22.2050 H   0  0  0  0  0  0
  -23.7247  -37.6522   23.6647 H   0  0  0  0  0  0
  -26.0621  -31.5923   20.6012 H   0  0  0  0  0  0
  -26.8287  -30.8754   21.9886 H   0  0  0  0  0  0
  -28.1044  -29.0621   21.1956 H   0  0  0  0  0  0
  -26.0449  -25.9721   18.9983 H   0  0  0  0  0  0
  -23.9857  -27.3166   19.0037 H   0  0  0  0  0  0
  -23.7275  -30.6029   19.4024 H   0  0  0  0  0  0
  -22.7452  -29.2448   19.8624 H   0  0  0  0  0  0
  -25.1295  -36.1975   25.0829 H   0  0  0  0  0  0
  -20.9973  -28.3255   24.1425 H   0  0  0  0  0  0
  -20.5693  -26.2287   23.3609 H   0  0  0  0  0  0
  -21.6636  -26.7453   22.1199 H   0  0  0  0  0  0
  -19.6912  -25.6305   21.1238 H   0  0  0  0  0  0
  -19.6692  -27.3209   20.6760 H   0  0  0  0  0  0
  -17.4199  -26.6689   21.4022 H   0  0  0  0  0  0
  -18.0316  -26.0067   22.9019 H   0  0  0  0  0  0
  -19.7932  -30.7259   24.2295 H   0  0  0  0  0  0
  -17.5014  -31.6271   24.5159 H   0  0  0  0  0  0
  -15.5354  -30.2998   23.7645 H   0  0  0  0  0  0
  -15.8663  -28.0827   22.7070 H   0  0  0  0  0  0
  -24.5912  -30.7056   25.7780 H   0  0  0  0  0  0
  -24.8910  -32.2865   26.4902 H   0  0  0  0  0  0
  -25.8066  -30.8875   27.0222 H   0  0  0  0  0  0
  -26.2858  -29.6802   24.1175 H   0  0  0  0  0  0
  -27.4083  -29.7293   25.4584 H   0  0  0  0  0  0
  -27.8701  -30.4366   23.9276 H   0  0  0  0  0  0
  -27.2694  -33.3616   26.2072 H   0  0  0  0  0  0
  -28.3858  -32.6867   25.0291 H   0  0  0  0  0  0
  -28.0742  -31.8424   26.5378 H   0  0  0  0  0  0
  -28.2606  -38.0104   24.7513 H   0  0  0  0  0  0
  -28.1073  -36.2635   24.6287 H   0  0  0  0  0  0
  -27.2295  -37.1452   25.8866 H   0  0  0  0  0  0
  -20.9331  -29.8768   21.6923 H   0  0  0  0  0  0
  -26.0190  -38.2879   24.1403 H   0  0  0  0  0  0
  -31.5199  -20.4167   19.3129 H   0  0  0  0  0  0
  -30.3814  -19.2138   18.4636 H   0  0  0  0  0  0
  -28.3256  -20.2982   19.7019 H   0  0  0  0  0  0
  -32.1374  -22.3383   23.5452 H   0  0  0  0  0  0
  -30.6822  -22.3981   24.5465 H   0  0  0  0  0  0
  -31.5154  -23.8885   24.1023 H   0  0  0  0  0  0
  -28.4586  -24.6973   15.9379 H   0  0  0  0  0  0
  -26.9836  -24.7361   16.9036 H   0  0  0  0  0  0
  -27.5952  -23.1979   16.2812 H   0  0  0  0  0  0
  -27.0587  -23.7959   19.2401 H   0  0  0  0  0  0
  -27.6910  -22.2974   18.6534 H   0  0  0  0  0  0
  -28.1442  -25.9993   22.1476 H   0  0  0  0  0  0
  -27.0487  -25.1571   21.1166 H   0  0  0  0  0  0
  -31.0406  -17.1881   21.8236 H   0  0  0  0  0  0
  -31.2998  -17.0877   20.1055 H   0  0  0  0  0  0
  -28.7526  -18.1520   21.4281 H   0  0  0  0  0  0
  -28.9242  -17.9205   19.7094 H   0  0  0  0  0  0
  -29.0528  -15.4603   21.2074 H   0  0  0  0  0  0
  -30.5444  -19.9182   21.3472 H   0  0  0  0  0  0
  -28.9799  -24.9100   18.2202 H   0  0  0  0  0  0
  -29.5330  -23.4899   17.6604 H   0  0  0  0  0  0
  1 25  1  0  0  0
  1 30  2  0  0  0
  1 85  1  0  0  0
  2  3  1  0  0  0
  2 25  1  0  0  0
  2 88  1  0  0  0
  2 89  1  0  0  0
  3  4  1  0  0  0
  3 90  1  0  0  0
  3 91  1  0  0  0
  4  5  1  0  0  0
  4 92  1  0  0  0
  4 93  1  0  0  0
  5  6  1  0  0  0
  5 26  1  0  0  0
  5 94  1  0  0  0
  6 25  1  0  0  0
  6 95  1  0  0  0
  6 96  1  0  0  0
  7  8  2  0  0  0
  7 26  1  0  0  0
  7 29  1  0  0  0
  8  9  1  0  0  0
  8 22  1  0  0  0
  9 10  1  0  0  0
  9 27  2  0  0  0
 10 11  2  0  0  0
 10 15  1  0  0  0
 11 12  1  0  0  0
 11 97  1  0  0  0
 12 13  2  0  0  0
 12 98  1  0  0  0
 13 14  1  0  0  0
 13 31  1  0  0  0
 14 15  2  0  0  0
 14 99  1  0  0  0
 15100  1  0  0  0
 16 17  2  0  0  0
 16 21  1  0  0  0
 16 31  1  0  0  0
 17 18  1  0  0  0
 17101  1  0  0  0
 18 19  2  0  0  0
 18102  1  0  0  0
 19 20  1  0  0  0
 19 24  1  0  0  0
 20 21  2  0  0  0
 20103  1  0  0  0
 21 23  1  0  0  0
 22 28  1  0  0  0
 22 32  2  0  0  0
 26 27  1  0  0  0
 28104  1  0  0  0
 28105  1  0  0  0
 29106  1  0  0  0
 29107  1  0  0  0
 33 34  1  0  0  0
 33 66  1  0  0  0
 33 70  2  0  0  0
 34 36  1  0  0  0
 34 59  1  0  0  0
 34108  1  0  0  0
 35 44  2  0  0  0
 35 45  1  0  0  0
 35 68  1  0  0  0
 36 56  1  0  0  0
 36109  1  0  0  0
 37 39  1  0  0  0
 37 47  1  0  0  0
 37 66  1  0  0  0
 37110  1  0  0  0
 38 43  2  0  0  0
 38 46  1  0  0  0
 38 47  1  0  0  0
 39 64  1  0  0  0
 39 67  2  0  0  0
 40 52  1  0  0  0
 40 53  2  0  0  0
 40 58  1  0  0  0
 41111  1  0  0  0
 41112  1  0  0  0
 41113  1  0  0  0
 41 48  1  0  0  0
 42 43  1  0  0  0
 42 66  1  0  0  0
 42114  1  0  0  0
 42115  1  0  0  0
 43 44  1  0  0  0
 44116  1  0  0  0
 45 46  2  0  0  0
 45117  1  0  0  0
 46118  1  0  0  0
 47119  1  0  0  0
 47120  1  0  0  0
 48 56  1  0  0  0
 48 65  1  0  0  0
 48121  1  0  0  0
 49 50  1  0  0  0
 49 53  1  0  0  0
 49 64  1  0  0  0
 49122  1  0  0  0
 50 51  1  0  0  0
 50123  1  0  0  0
 50124  1  0  0  0
 51 52  1  0  0  0
 51125  1  0  0  0
 51126  1  0  0  0
 52127  1  0  0  0
 52128  1  0  0  0
 53 54  1  0  0  0
 54 55  2  0  0  0
 54129  1  0  0  0
 55 57  1  0  0  0
 55130  1  0  0  0
 56 69  2  0  0  0
 57 58  2  0  0  0
 57131  1  0  0  0
 58132  1  0  0  0
 59 60  1  0  0  0
 59 61  1  0  0  0
 59 62  1  0  0  0
 60133  1  0  0  0
 60134  1  0  0  0
 60135  1  0  0  0
 61136  1  0  0  0
 61137  1  0  0  0
 61138  1  0  0  0
 62139  1  0  0  0
 62140  1  0  0  0
 62141  1  0  0  0
 63 65  1  0  0  0
 63142  1  0  0  0
 63143  1  0  0  0
 63144  1  0  0  0
 64145  1  0  0  0
 65146  1  0  0  0
 68 80  1  0  0  0
 71 72  2  0  0  0
 71 73  1  0  0  0
 71 79  1  0  0  0
 72 83  1  0  0  0
 72 76  1  0  0  0
 73 80  1  0  0  0
 73 84  2  0  0  0
 74 77  1  0  0  0
 74 83  2  0  0  0
 74 84  1  0  0  0
 75 76  1  0  0  0
 75 86  1  0  0  0
 75147  1  0  0  0
 75148  1  0  0  0
 76 86  1  0  0  0
 76149  1  0  0  0
 77150  1  0  0  0
 77151  1  0  0  0
 77152  1  0  0  0
 78 87  1  0  0  0
 78153  1  0  0  0
 78154  1  0  0  0
 78155  1  0  0  0
 79 87  1  0  0  0
 79156  1  0  0  0
 79157  1  0  0  0
 80158  1  0  0  0
 80159  1  0  0  0
 81 82  1  0  0  0
 81 85  1  0  0  0
 81160  1  0  0  0
 81161  1  0  0  0
 82162  1  0  0  0
 82163  1  0  0  0
 82 86  1  0  0  0
 85164  1  0  0  0
 86165  1  0  0  0
 87166  1  0  0  0
 87167  1  0  0  0
M  CHG  2  86   1  87   1
M  ISO  4   1 100  68 101  80 101  85 100
M  END
> <chiral flag>
0

> <version>
0

> <s_m_source_file>
/data/baiqing/PycharmProjects/Reinvent-master-3.2/result/LINK_invent/BTK/process_docking_weight1_custom_sum_contain_oxygen_bond_distance_aromatic_linkinvent_7_9_3/rearranged_h_0184.sdf

> <i_m_source_file_index>
82

> <r_mmod_Potential_Energy-OPLS-2005>
-823.176391601562

> <r_mmod_Stretch_Energy-OPLS-2005>
48.2727470397949

> <r_mmod_Bend_Energy-OPLS-2005>
123.970626831055

> <r_mmod_Torsional_Energy-OPLS-2005>
264.072082519531

> <r_mmod_Improper_Torsional_Energy-OPLS-2005>
5.73812866210938

> <r_mmod_Van_der_Waal_Energy-OPLS-2005>
156.080856323242

> <r_mmod_Electrostatic_Energy-OPLS-2005>
-471.253723144531

> <r_mmod_Solvation_Energy-OPLS-2005>
-975.351135253906

> <b_mmod_Minimization_Converged-OPLS-2005>
0

> <r_mmod_RMS_Derivative-OPLS-2005>
1.44606590270996

$$$$
82
                    3D
 Structure written by MMmdl.
162171  0  0  1  0            999 V2000
  -28.9356  -16.3768   20.7166 C   0  0  0  0  0  0
  -30.0415  -13.8427   19.7252 C   0  0  0  0  0  0
  -29.4884  -12.9661   18.5196 C   0  0  0  0  0  0
  -28.1524  -12.3135   18.8788 C   0  0  0  0  0  0
  -27.4271  -13.2886   19.8130 C   0  0  2  0  0  0
  -28.2091  -13.7634   21.0359 C   0  0  0  0  0  0
  -25.1443  -13.8065   20.5600 C   0  0  0  0  0  0
  -24.1034  -13.0228   20.9319 C   0  0  0  0  0  0
  -24.5819  -11.6754   20.8792 C   0  0  0  0  0  0
  -23.8738  -10.4143   21.0491 C   0  0  0  0  0  0
  -24.3441   -9.4107   21.9220 C   0  0  0  0  0  0
  -23.6194   -8.2114   22.0752 C   0  0  0  0  0  0
  -22.4175   -8.0149   21.3539 C   0  0  0  0  0  0
  -21.9746   -9.0083   20.4635 C   0  0  0  0  0  0
  -22.6990  -10.1982   20.3078 C   0  0  0  0  0  0
  -21.6802   -6.0654   22.5292 C   0  0  0  0  0  0
  -21.3977   -6.5586   23.8216 C   0  0  0  0  0  0
  -21.3654   -5.6754   24.9186 C   0  0  0  0  0  0
  -21.6044   -4.3018   24.7244 C   0  0  0  0  0  0
  -21.8831   -3.8099   23.4373 C   0  0  0  0  0  0
  -21.9185   -4.6898   22.3422 C   0  0  0  0  0  0
  -22.7185  -13.5052   21.2084 C   0  0  0  0  0  0
  -22.1658   -4.2091   21.0996 F   0  0  0  0  0  0
  -21.5642   -3.4516   25.7767 F   0  0  0  0  0  0
  -28.9952  -14.8404   20.4639 N   0  0  0  0  0  0
  -26.1504  -12.9171   20.2680 N   0  0  0  0  0  0
  -25.8589  -11.6330   20.5406 N   0  0  0  0  0  0
  -21.9934  -12.8053   22.0687 N   0  0  0  0  0  0
  -25.3182  -15.1850   20.4180 N   0  0  0  0  0  0
  -30.2237  -16.4313   20.5762 O   0  0  0  0  0  0
  -21.6567   -6.8750   21.4237 O   0  0  0  0  0  0
  -22.2946  -14.5407   20.6963 O   0  0  0  0  0  0
  -24.6860  -31.9466   23.1961 C   0  0  0  0  0  0
  -25.9635  -32.5165   23.8557 C   0  0  1  0  0  0
  -26.9867  -27.3282   20.2219 C   0  0  0  0  0  0
  -25.6397  -33.8875   24.2591 N   0  0  0  0  0  0
  -23.5190  -30.6221   21.5257 C   0  0  2  0  0  0
  -24.8695  -29.0860   20.0162 C   0  0  0  0  0  0
  -23.0999  -29.5552   22.5086 C   0  0  0  0  0  0
  -18.4599  -27.1239   23.1352 C   0  0  0  0  0  0
  -24.1505  -36.7387   23.2607 C   0  0  0  0  0  0
  -26.0256  -30.8694   21.3592 C   0  0  0  0  0  0
  -26.0321  -29.5045   20.6854 C   0  0  0  0  0  0
  -27.1244  -28.6159   20.7950 C   0  0  0  0  0  0
  -25.9398  -27.0216   19.3584 C   0  0  0  0  0  0
  -24.8366  -27.8724   19.3108 C   0  0  0  0  0  0
  -23.6679  -29.9872   20.1154 C   0  0  0  0  0  0
  -25.4128  -36.3267   24.0348 C   0  0  1  0  0  0
  -21.5304  -28.0075   22.8591 C   0  0  2  0  0  0
  -22.0133  -26.6520   20.9826 C   0  0  0  0  0  0
  -20.3683  -24.8465   20.6825 C   0  0  0  0  0  0
  -18.5168  -25.4522   22.0313 C   0  0  0  0  0  0
  -19.7071  -28.1025   23.5690 C   0  0  0  0  0  0
  -19.3084  -29.4665   23.9793 C   0  0  0  0  0  0
  -17.9995  -30.0389   23.9888 C   0  0  0  0  0  0
  -25.9145  -34.9664   23.5183 C   0  0  0  0  0  0
  -16.9269  -29.2326   23.5901 C   0  0  0  0  0  0
  -17.1676  -27.8639   23.2046 C   0  0  0  0  0  0
  -26.4646  -31.6692   25.0858 C   0  0  0  0  0  0
  -25.3682  -31.3807   26.1381 C   0  0  0  0  0  0
  -27.0416  -30.3125   24.6185 C   0  0  0  0  0  0
  -27.6216  -32.4225   25.7832 C   0  0  0  0  0  0
  -27.5610  -37.1915   24.8463 C   0  0  0  0  0  0
  -21.8344  -29.3541   22.5708 N   0  0  0  0  0  0
  -26.4305  -37.3954   23.9439 N   0  0  0  0  0  0
  -24.7644  -31.2023   22.0570 N   0  0  0  0  0  0
  -23.8930  -28.9035   23.1895 O   0  0  0  0  0  0
  -27.4594  -26.2183   20.8397 O   0  0  0  0  0  0
  -26.5505  -34.9072   22.4624 O   0  0  0  0  0  0
  -23.5976  -32.2014   23.7383 O   0  0  0  0  0  0
  -23.8490  -25.1278   22.6111 C   0  0  0  0  0  0
  -23.8968  -23.3939   20.5490 C   0  0  0  0  0  0
  -22.5671  -24.4206   22.3583 C   0  0  0  0  0  0
  -23.4500  -22.8311   21.7574 C   0  0  0  0  0  0
  -25.0496  -25.0120   21.7460 C   0  0  0  0  0  0
  -19.6159  -26.9232   20.5567 C   0  0  0  0  0  0
  -19.9596  -27.8122   21.1952 C   0  0  0  0  0  0
  -20.6887  -25.9357   22.5291 C   0  0  2  0  0  0
  -18.2753  -28.7679   19.6319 C   0  0  0  0  0  0
  -25.0788  -21.2440   21.8172 C   0  0  0  0  0  0
  -26.4649  -25.7992   21.9424 C   0  0  0  0  0  0
  -26.1731  -19.1764   21.1832 C   0  0  0  0  0  0
  -24.9867  -24.1898   20.6652 N   0  0  0  0  0  0
  -27.8288  -17.7988   21.0258 N   0  0  0  0  0  0
  -18.6234  -27.8437   20.7403 N   0  3  1  0  0  0
  -30.8468  -14.4453   19.3054 H   0  0  0  0  0  0
  -30.5486  -13.2063   20.4534 H   0  0  0  0  0  0
  -30.2168  -12.2197   18.1978 H   0  0  0  0  0  0
  -29.3346  -13.6315   17.6686 H   0  0  0  0  0  0
  -28.3278  -11.3686   19.3923 H   0  0  0  0  0  0
  -27.5679  -12.0899   17.9861 H   0  0  0  0  0  0
  -27.2255  -14.1361   19.1507 H   0  0  0  0  0  0
  -28.7451  -12.9688   21.5585 H   0  0  0  0  0  0
  -27.5615  -14.2204   21.7861 H   0  0  0  0  0  0
  -25.2599   -9.5630   22.4752 H   0  0  0  0  0  0
  -23.9942   -7.4499   22.7447 H   0  0  0  0  0  0
  -21.0684   -8.8542   19.8941 H   0  0  0  0  0  0
  -22.3441  -10.9508   19.6180 H   0  0  0  0  0  0
  -21.1942   -7.6092   23.9697 H   0  0  0  0  0  0
  -21.1471   -6.0489   25.9083 H   0  0  0  0  0  0
  -22.0627   -2.7564   23.2886 H   0  0  0  0  0  0
  -22.3607  -11.9730   22.5043 H   0  0  0  0  0  0
  -21.0578  -13.1068   22.2995 H   0  0  0  0  0  0
  -24.5542  -15.8355   20.5622 H   0  0  0  0  0  0
  -26.1473  -15.6305   20.0508 H   0  0  0  0  0  0
  -26.7859  -32.5813   23.1476 H   0  0  0  0  0  0
  -25.0799  -33.9997   25.0916 H   0  0  0  0  0  0
  -22.7486  -31.3957   21.4700 H   0  0  0  0  0  0
  -23.3828  -35.9660   23.3263 H   0  0  0  0  0  0
  -24.3622  -36.9000   22.2024 H   0  0  0  0  0  0
  -23.7169  -37.6571   23.6586 H   0  0  0  0  0  0
  -26.1995  -31.6285   20.5983 H   0  0  0  0  0  0
  -26.9033  -30.8906   21.9945 H   0  0  0  0  0  0
  -27.9406  -28.8335   21.4713 H   0  0  0  0  0  0
  -25.8565  -26.0350   18.9231 H   0  0  0  0  0  0
  -23.9610  -27.5714   18.7555 H   0  0  0  0  0  0
  -23.7944  -30.7847   19.3817 H   0  0  0  0  0  0
  -22.7663  -29.4486   19.8215 H   0  0  0  0  0  0
  -25.1274  -36.2170   25.0836 H   0  0  0  0  0  0
  -22.0742  -27.6271   23.7307 H   0  0  0  0  0  0
  -23.0511  -26.3925   20.8430 H   0  0  0  0  0  0
  -22.0610  -27.2354   20.0602 H   0  0  0  0  0  0
  -20.6938  -23.8489   20.9806 H   0  0  0  0  0  0
  -20.1230  -24.6522   19.6322 H   0  0  0  0  0  0
  -17.5863  -25.3757   21.4649 H   0  0  0  0  0  0
  -18.3842  -24.6354   22.7428 H   0  0  0  0  0  0
  -20.1071  -30.1464   24.2369 H   0  0  0  0  0  0
  -17.8467  -31.0721   24.2749 H   0  0  0  0  0  0
  -15.9222  -29.6350   23.5707 H   0  0  0  0  0  0
  -16.2890  -27.3142   22.8922 H   0  0  0  0  0  0
  -24.5835  -30.7328   25.7455 H   0  0  0  0  0  0
  -24.8930  -32.2987   26.4851 H   0  0  0  0  0  0
  -25.7783  -30.8791   27.0151 H   0  0  0  0  0  0
  -26.3026  -29.7063   24.0958 H   0  0  0  0  0  0
  -27.3898  -29.7192   25.4649 H   0  0  0  0  0  0
  -27.8986  -30.4449   23.9579 H   0  0  0  0  0  0
  -27.2902  -33.3504   26.2512 H   0  0  0  0  0  0
  -28.4142  -32.6791   25.0786 H   0  0  0  0  0  0
  -28.0744  -31.8190   26.5713 H   0  0  0  0  0  0
  -28.2610  -38.0239   24.7611 H   0  0  0  0  0  0
  -28.1139  -36.2794   24.6176 H   0  0  0  0  0  0
  -27.2343  -37.1430   25.8864 H   0  0  0  0  0  0
  -21.1934  -29.9517   22.0723 H   0  0  0  0  0  0
  -26.0218  -38.3030   24.1514 H   0  0  0  0  0  0
  -23.8409  -25.9909   23.2652 H   0  0  0  0  0  0
  -23.1752  -23.9837   19.9968 H   0  0  0  0  0  0
  -18.8370  -26.3374   19.9961 H   0  0  0  0  0  0
  -20.0787  -26.8281   19.4773 H   0  0  0  0  0  0
  -20.6892  -28.5758   20.6765 H   0  0  0  0  0  0
  -19.7139  -28.8455   21.5477 H   0  0  0  0  0  0
  -20.2723  -25.7669   23.5325 H   0  0  0  0  0  0
  -17.2490  -28.5835   19.3127 H   0  0  0  0  0  0
  -18.9237  -28.6524   18.7644 H   0  0  0  0  0  0
  -18.3310  -29.8037   19.9631 H   0  0  0  0  0  0
  -25.1798  -21.1671   22.9006 H   0  0  0  0  0  0
  -25.9030  -21.9075   21.5513 H   0  0  0  0  0  0
  -27.0499  -25.1896   22.6275 H   0  0  0  0  0  0
  -26.2177  -26.6853   22.5287 H   0  0  0  0  0  0
  -25.9372  -19.1921   20.1184 H   0  0  0  0  0  0
  -25.4535  -18.4724   21.6024 H   0  0  0  0  0  0
  -28.5801  -18.4668   21.1445 H   0  0  0  0  0  0
  -17.9954  -27.7476   21.5321 H   0  0  0  0  0  0
  1 25  1  0  0  0
  1 30  2  0  0  0
  1 84  1  0  0  0
  2  3  1  0  0  0
  2 25  1  0  0  0
  2 86  1  0  0  0
  2 87  1  0  0  0
  3  4  1  0  0  0
  3 88  1  0  0  0
  3 89  1  0  0  0
  4  5  1  0  0  0
  4 90  1  0  0  0
  4 91  1  0  0  0
  5  6  1  0  0  0
  5 26  1  0  0  0
  5 92  1  0  0  0
  6 25  1  0  0  0
  6 93  1  0  0  0
  6 94  1  0  0  0
  7  8  2  0  0  0
  7 26  1  0  0  0
  7 29  1  0  0  0
  8  9  1  0  0  0
  8 22  1  0  0  0
  9 10  1  0  0  0
  9 27  2  0  0  0
 10 11  2  0  0  0
 10 15  1  0  0  0
 11 12  1  0  0  0
 11 95  1  0  0  0
 12 13  2  0  0  0
 12 96  1  0  0  0
 13 14  1  0  0  0
 13 31  1  0  0  0
 14 15  2  0  0  0
 14 97  1  0  0  0
 15 98  1  0  0  0
 16 17  2  0  0  0
 16 21  1  0  0  0
 16 31  1  0  0  0
 17 18  1  0  0  0
 17 99  1  0  0  0
 18 19  2  0  0  0
 18100  1  0  0  0
 19 20  1  0  0  0
 19 24  1  0  0  0
 20 21  2  0  0  0
 20101  1  0  0  0
 21 23  1  0  0  0
 22 28  1  0  0  0
 22 32  2  0  0  0
 26 27  1  0  0  0
 28102  1  0  0  0
 28103  1  0  0  0
 29104  1  0  0  0
 29105  1  0  0  0
 33 34  1  0  0  0
 33 66  1  0  0  0
 33 70  2  0  0  0
 34 36  1  0  0  0
 34 59  1  0  0  0
 34106  1  0  0  0
 35 44  2  0  0  0
 35 45  1  0  0  0
 35 68  1  0  0  0
 36 56  1  0  0  0
 36107  1  0  0  0
 37 39  1  0  0  0
 37 47  1  0  0  0
 37 66  1  0  0  0
 37108  1  0  0  0
 38 43  2  0  0  0
 38 46  1  0  0  0
 38 47  1  0  0  0
 39 64  1  0  0  0
 39 67  2  0  0  0
 40 52  1  0  0  0
 40 53  2  0  0  0
 40 58  1  0  0  0
 41109  1  0  0  0
 41110  1  0  0  0
 41111  1  0  0  0
 41 48  1  0  0  0
 42 43  1  0  0  0
 42 66  1  0  0  0
 42112  1  0  0  0
 42113  1  0  0  0
 43 44  1  0  0  0
 44114  1  0  0  0
 45 46  2  0  0  0
 45115  1  0  0  0
 46116  1  0  0  0
 47117  1  0  0  0
 47118  1  0  0  0
 48 56  1  0  0  0
 48 65  1  0  0  0
 48119  1  0  0  0
 49 50  1  0  0  0
 49 53  1  0  0  0
 49 64  1  0  0  0
 49120  1  0  0  0
 50 51  1  0  0  0
 50121  1  0  0  0
 50122  1  0  0  0
 51 52  1  0  0  0
 51123  1  0  0  0
 51124  1  0  0  0
 52125  1  0  0  0
 52126  1  0  0  0
 53 54  1  0  0  0
 54 55  2  0  0  0
 54127  1  0  0  0
 55 57  1  0  0  0
 55128  1  0  0  0
 56 69  2  0  0  0
 57 58  2  0  0  0
 57129  1  0  0  0
 58130  1  0  0  0
 59 60  1  0  0  0
 59 61  1  0  0  0
 59 62  1  0  0  0
 60131  1  0  0  0
 60132  1  0  0  0
 60133  1  0  0  0
 61134  1  0  0  0
 61135  1  0  0  0
 61136  1  0  0  0
 62137  1  0  0  0
 62138  1  0  0  0
 62139  1  0  0  0
 63 65  1  0  0  0
 63140  1  0  0  0
 63141  1  0  0  0
 63142  1  0  0  0
 64143  1  0  0  0
 65144  1  0  0  0
 68 81  1  0  0  0
 71 73  2  0  0  0
 71 75  1  0  0  0
 71145  1  0  0  0
 72 74  2  0  0  0
 72 83  1  0  0  0
 72146  1  0  0  0
 73 74  1  0  0  0
 73 78  1  0  0  0
 74 80  1  0  0  0
 75 81  1  0  0  0
 75 83  2  0  0  0
 76 78  1  0  0  0
 76 85  1  0  0  0
 76147  1  0  0  0
 76148  1  0  0  0
 77 78  1  0  0  0
 77 85  1  0  0  0
 77149  1  0  0  0
 77150  1  0  0  0
 78151  1  0  0  0
 79152  1  0  0  0
 79153  1  0  0  0
 79154  1  0  0  0
 79 85  1  0  0  0
 80 82  1  0  0  0
 80155  1  0  0  0
 80156  1  0  0  0
 81157  1  0  0  0
 81158  1  0  0  0
 82 84  1  0  0  0
 82159  1  0  0  0
 82160  1  0  0  0
 84161  1  0  0  0
 85162  1  0  0  0
M  CHG  1  85   1
M  ISO  4   1 100  68 101  81 101  84 100
M  END
> <chiral flag>
0

> <version>
0

> <s_m_source_file>
/data/baiqing/PycharmProjects/Reinvent-master-3.2/result/LINK_invent/BTK/process_docking_weight1_custom_sum_contain_oxygen_bond_distance_aromatic_linkinvent_7_9_3/rearranged_h_0184.sdf

> <i_m_source_file_index>
83

> <r_mmod_Potential_Energy-OPLS-2005>
18799.2109375

> <r_mmod_Stretch_Energy-OPLS-2005>
9923.75390625

> <r_mmod_Bend_Energy-OPLS-2005>
2403.32592773438

> <r_mmod_Torsional_Energy-OPLS-2005>
663.006469726562

> <r_mmod_Improper_Torsional_Energy-OPLS-2005>
62.8383483886719

> <r_mmod_Van_der_Waal_Energy-OPLS-2005>
2621.40209960938

> <r_mmod_Electrostatic_Energy-OPLS-2005>
-490.210876464844

> <r_mmod_Solvation_Energy-OPLS-2005>
-477.346557617188

> <b_mmod_Minimization_Converged-OPLS-2005>
0

> <r_mmod_RMS_Derivative-OPLS-2005>
5.92769432067871

$$$$
83
                    3D
 Structure written by MMmdl.
150158  0  0  1  0            999 V2000
  -30.3858  -15.3182   20.4176 C   0  0  0  0  0  0
  -30.4304  -12.8474   19.5580 C   0  0  0  0  0  0
  -29.5414  -12.5983   18.3106 C   0  0  0  0  0  0
  -28.0902  -12.3107   18.7306 C   0  0  0  0  0  0
  -27.6118  -13.2760   19.8460 C   0  0  2  0  0  0
  -28.6354  -13.4386   20.9897 C   0  0  0  0  0  0
  -25.2368  -13.8226   20.5761 C   0  0  0  0  0  0
  -24.1732  -13.0420   20.9262 C   0  0  0  0  0  0
  -24.6403  -11.6921   20.8781 C   0  0  0  0  0  0
  -23.9116  -10.4286   21.0426 C   0  0  0  0  0  0
  -24.3660   -9.4201   21.9208 C   0  0  0  0  0  0
  -23.6322   -8.2248   22.0773 C   0  0  0  0  0  0
  -22.4295   -8.0290   21.3548 C   0  0  0  0  0  0
  -21.9942   -9.0288   20.4678 C   0  0  0  0  0  0
  -22.7272  -10.2150   20.3085 C   0  0  0  0  0  0
  -21.6868   -6.0773   22.5301 C   0  0  0  0  0  0
  -21.4043   -6.5669   23.8239 C   0  0  0  0  0  0
  -21.3649   -5.6816   24.9181 C   0  0  0  0  0  0
  -21.6021   -4.3074   24.7204 C   0  0  0  0  0  0
  -21.8808   -3.8176   23.4325 C   0  0  0  0  0  0
  -21.9198   -4.6995   22.3394 C   0  0  0  0  0  0
  -22.7755  -13.5191   21.1848 C   0  0  0  0  0  0
  -22.1653   -4.2197   21.0960 F   0  0  0  0  0  0
  -21.5598   -3.4566   25.7721 F   0  0  0  0  0  0
  -29.8510  -13.9921   20.3724 N   0  0  0  0  0  0
  -26.2816  -12.9519   20.3315 N   0  0  0  0  0  0
  -25.9343  -11.6616   20.5759 N   0  0  0  0  0  0
  -22.0386  -12.8197   22.0391 N   0  0  0  0  0  0
  -25.3891  -15.1937   20.4082 N   0  0  0  0  0  0
  -31.5876  -15.3197   20.0946 O   0  0  0  0  0  0
  -21.6641   -6.8912   21.4264 O   0  0  0  0  0  0
  -22.3474  -14.5524   20.6705 O   0  0  0  0  0  0
  -24.6599  -31.8198   23.1743 C   0  0  0  0  0  0
  -25.9285  -32.4565   23.8183 C   0  0  1  0  0  0
  -27.1983  -26.8906   20.2253 C   0  0  0  0  0  0
  -25.5973  -33.8387   24.2060 N   0  0  0  0  0  0
  -23.4766  -30.4330   21.5164 C   0  0  2  0  0  0
  -24.9338  -28.8204   20.1105 C   0  0  0  0  0  0
  -22.7637  -29.4403   22.4719 C   0  0  0  0  0  0
  -18.0322  -28.1397   22.8452 C   0  0  0  0  0  0
  -24.1509  -36.7227   23.2641 C   0  0  0  0  0  0
  -26.0450  -30.6219   21.4112 C   0  0  0  0  0  0
  -26.1125  -29.2058   20.7609 C   0  0  0  0  0  0
  -27.2393  -28.2620   20.7930 C   0  0  0  0  0  0
  -25.9989  -26.6680   19.5135 C   0  0  0  0  0  0
  -24.9066  -27.5746   19.4630 C   0  0  0  0  0  0
  -23.7228  -29.7559   20.1393 C   0  0  0  0  0  0
  -25.4150  -36.2941   24.0269 C   0  0  1  0  0  0
  -20.5940  -28.3749   23.1175 C   0  0  2  0  0  0
  -20.6798  -26.9432   22.5384 C   0  0  0  0  0  0
  -19.5771  -26.6366   21.5195 C   0  0  0  0  0  0
  -18.1964  -26.7926   22.1614 C   0  0  0  0  0  0
  -19.1584  -28.8903   23.2806 C   0  0  0  0  0  0
  -18.9486  -30.1489   23.8855 C   0  0  0  0  0  0
  -17.6475  -30.6582   24.0562 C   0  0  0  0  0  0
  -25.9097  -34.9322   23.4979 C   0  0  0  0  0  0
  -16.5371  -29.9067   23.6341 C   0  0  0  0  0  0
  -16.7306  -28.6490   23.0362 C   0  0  0  0  0  0
  -26.4565  -31.6541   25.0722 C   0  0  0  0  0  0
  -25.3701  -31.3831   26.1393 C   0  0  0  0  0  0
  -27.0445  -30.2879   24.6503 C   0  0  0  0  0  0
  -27.6020  -32.4391   25.7566 C   0  0  0  0  0  0
  -27.5559  -37.1782   24.8453 C   0  0  0  0  0  0
  -21.4306  -29.3025   22.3495 N   0  0  0  0  0  0
  -26.4288  -37.3672   23.9368 N   0  0  0  0  0  0
  -24.7468  -30.9870   22.0877 N   0  0  0  0  0  0
  -23.4202  -28.7939   23.2932 O   0  0  0  0  0  0
  -28.1754  -25.7597   20.3517 O   0  0  0  0  0  0
  -26.5694  -34.8842   22.4563 O   0  0  0  0  0  0
  -23.5674  -32.1163   23.6850 O   0  0  0  0  0  0
  -28.0709  -18.5253   21.4004 C   0  0  0  0  0  0
  -28.6298  -17.0180   21.5568 C   0  0  0  0  0  0
  -29.7888  -18.1270   19.9324 C   0  0  0  0  0  0
  -29.1242  -19.4895   20.7656 C   0  0  1  0  0  0
  -28.7698  -22.5721   20.6840 C   0  0  0  0  0  0
  -27.9382  -24.1151   20.1619 C   0  0  0  0  0  0
  -29.6331  -16.6237   20.5231 N   0  0  0  0  0  0
  -28.5838  -20.9773   20.1739 N   0  3  0  0  0  0
  -31.4511  -13.0548   19.2335 H   0  0  0  0  0  0
  -30.5158  -11.9460   20.1665 H   0  0  0  0  0  0
  -29.9354  -11.7710   17.7177 H   0  0  0  0  0  0
  -29.5748  -13.4757   17.6640 H   0  0  0  0  0  0
  -28.0527  -11.2839   19.0963 H   0  0  0  0  0  0
  -27.4267  -12.3507   17.8650 H   0  0  0  0  0  0
  -27.5263  -14.2489   19.3637 H   0  0  0  0  0  0
  -28.8202  -12.4916   21.5007 H   0  0  0  0  0  0
  -28.2647  -14.1284   21.7478 H   0  0  0  0  0  0
  -25.2803   -9.5687   22.4815 H   0  0  0  0  0  0
  -24.0026   -7.4635   22.7495 H   0  0  0  0  0  0
  -21.0858   -8.8855   19.8976 H   0  0  0  0  0  0
  -22.3754  -10.9734   19.6236 H   0  0  0  0  0  0
  -21.2082   -7.6192   23.9757 H   0  0  0  0  0  0
  -21.1464   -6.0530   25.9083 H   0  0  0  0  0  0
  -22.0592   -2.7630   23.2804 H   0  0  0  0  0  0
  -22.4028  -11.9930   22.4898 H   0  0  0  0  0  0
  -21.1031  -13.1291   22.2606 H   0  0  0  0  0  0
  -24.5929  -15.8144   20.4878 H   0  0  0  0  0  0
  -26.1964  -15.6382   19.9892 H   0  0  0  0  0  0
  -26.7336  -32.5109   23.0881 H   0  0  0  0  0  0
  -25.0088  -33.9476   25.0186 H   0  0  0  0  0  0
  -22.7902  -31.2666   21.3490 H   0  0  0  0  0  0
  -23.3728  -35.9604   23.3310 H   0  0  0  0  0  0
  -24.3568  -36.8879   22.2054 H   0  0  0  0  0  0
  -23.7353  -37.6442   23.6725 H   0  0  0  0  0  0
  -26.2224  -31.3664   20.6337 H   0  0  0  0  0  0
  -26.9054  -30.6840   22.0665 H   0  0  0  0  0  0
  -28.1210  -28.5506   21.3474 H   0  0  0  0  0  0
  -25.8662  -25.7167   19.0215 H   0  0  0  0  0  0
  -24.0154  -27.2774   18.9283 H   0  0  0  0  0  0
  -23.8865  -30.5303   19.3883 H   0  0  0  0  0  0
  -22.8336  -29.2140   19.8128 H   0  0  0  0  0  0
  -25.1364  -36.1714   25.0761 H   0  0  0  0  0  0
  -21.0054  -28.3369   24.1288 H   0  0  0  0  0  0
  -20.5691  -26.2346   23.3612 H   0  0  0  0  0  0
  -21.6663  -26.7395   22.1191 H   0  0  0  0  0  0
  -19.6928  -25.6261   21.1272 H   0  0  0  0  0  0
  -19.6726  -27.3133   20.6698 H   0  0  0  0  0  0
  -17.4218  -26.6647   21.4046 H   0  0  0  0  0  0
  -18.0391  -26.0088   22.9038 H   0  0  0  0  0  0
  -19.7977  -30.7321   24.2197 H   0  0  0  0  0  0
  -17.5038  -31.6265   24.5148 H   0  0  0  0  0  0
  -15.5384  -30.2960   23.7699 H   0  0  0  0  0  0
  -15.8698  -28.0801   22.7102 H   0  0  0  0  0  0
  -24.5796  -30.7286   25.7720 H   0  0  0  0  0  0
  -24.9013  -32.3065   26.4806 H   0  0  0  0  0  0
  -25.7917  -30.8975   27.0199 H   0  0  0  0  0  0
  -26.3076  -29.6562   24.1518 H   0  0  0  0  0  0
  -27.3914  -29.7273   25.5206 H   0  0  0  0  0  0
  -27.9085  -30.4021   23.9945 H   0  0  0  0  0  0
  -27.2485  -33.3667   26.2105 H   0  0  0  0  0  0
  -28.3882  -32.7013   25.0467 H   0  0  0  0  0  0
  -28.0643  -31.8567   26.5552 H   0  0  0  0  0  0
  -28.2570  -38.0072   24.7403 H   0  0  0  0  0  0
  -28.1048  -36.2577   24.6402 H   0  0  0  0  0  0
  -27.2236  -37.1574   25.8844 H   0  0  0  0  0  0
  -20.9517  -29.8759   21.6680 H   0  0  0  0  0  0
  -26.0113  -38.2721   24.1347 H   0  0  0  0  0  0
  -27.7122  -18.9116   22.3552 H   0  0  0  0  0  0
  -27.1950  -18.4918   20.7528 H   0  0  0  0  0  0
  -27.7981  -16.3142   21.5633 H   0  0  0  0  0  0
  -29.1147  -16.9246   22.5301 H   0  0  0  0  0  0
  -30.8401  -18.3149   19.7189 H   0  0  0  0  0  0
  -29.2974  -18.0840   18.9584 H   0  0  0  0  0  0
  -29.8372  -19.7368   21.5511 H   0  0  0  0  0  0
  -28.6163  -22.5282   21.7627 H   0  0  0  0  0  0
  -29.8366  -22.7582   20.5773 H   0  0  0  0  0  0
  -26.9206  -23.9794   20.5248 H   0  0  0  0  0  0
  -27.8371  -24.0097   19.0826 H   0  0  0  0  0  0
  -27.5814  -20.8646   20.1591 H   0  0  0  0  0  0
  -28.8487  -20.9855   19.2017 H   0  0  0  0  0  0
  1 25  1  0  0  0
  1 30  2  0  0  0
  1 77  1  0  0  0
  2  3  1  0  0  0
  2 25  1  0  0  0
  2 79  1  0  0  0
  2 80  1  0  0  0
  3  4  1  0  0  0
  3 81  1  0  0  0
  3 82  1  0  0  0
  4  5  1  0  0  0
  4 83  1  0  0  0
  4 84  1  0  0  0
  5  6  1  0  0  0
  5 26  1  0  0  0
  5 85  1  0  0  0
  6 25  1  0  0  0
  6 86  1  0  0  0
  6 87  1  0  0  0
  7  8  2  0  0  0
  7 26  1  0  0  0
  7 29  1  0  0  0
  8  9  1  0  0  0
  8 22  1  0  0  0
  9 10  1  0  0  0
  9 27  2  0  0  0
 10 11  2  0  0  0
 10 15  1  0  0  0
 11 12  1  0  0  0
 11 88  1  0  0  0
 12 13  2  0  0  0
 12 89  1  0  0  0
 13 14  1  0  0  0
 13 31  1  0  0  0
 14 15  2  0  0  0
 14 90  1  0  0  0
 15 91  1  0  0  0
 16 17  2  0  0  0
 16 21  1  0  0  0
 16 31  1  0  0  0
 17 18  1  0  0  0
 17 92  1  0  0  0
 18 19  2  0  0  0
 18 93  1  0  0  0
 19 20  1  0  0  0
 19 24  1  0  0  0
 20 21  2  0  0  0
 20 94  1  0  0  0
 21 23  1  0  0  0
 22 28  1  0  0  0
 22 32  2  0  0  0
 26 27  1  0  0  0
 28 95  1  0  0  0
 28 96  1  0  0  0
 29 97  1  0  0  0
 29 98  1  0  0  0
 33 34  1  0  0  0
 33 66  1  0  0  0
 33 70  2  0  0  0
 34 36  1  0  0  0
 34 59  1  0  0  0
 34 99  1  0  0  0
 35 44  2  0  0  0
 35 45  1  0  0  0
 35 68  1  0  0  0
 36 56  1  0  0  0
 36100  1  0  0  0
 37 39  1  0  0  0
 37 47  1  0  0  0
 37 66  1  0  0  0
 37101  1  0  0  0
 38 43  2  0  0  0
 38 46  1  0  0  0
 38 47  1  0  0  0
 39 64  1  0  0  0
 39 67  2  0  0  0
 40 52  1  0  0  0
 40 53  2  0  0  0
 40 58  1  0  0  0
 41102  1  0  0  0
 41103  1  0  0  0
 41104  1  0  0  0
 41 48  1  0  0  0
 42 43  1  0  0  0
 42 66  1  0  0  0
 42105  1  0  0  0
 42106  1  0  0  0
 43 44  1  0  0  0
 44107  1  0  0  0
 45 46  2  0  0  0
 45108  1  0  0  0
 46109  1  0  0  0
 47110  1  0  0  0
 47111  1  0  0  0
 48 56  1  0  0  0
 48 65  1  0  0  0
 48112  1  0  0  0
 49 50  1  0  0  0
 49 53  1  0  0  0
 49 64  1  0  0  0
 49113  1  0  0  0
 50 51  1  0  0  0
 50114  1  0  0  0
 50115  1  0  0  0
 51 52  1  0  0  0
 51116  1  0  0  0
 51117  1  0  0  0
 52118  1  0  0  0
 52119  1  0  0  0
 53 54  1  0  0  0
 54 55  2  0  0  0
 54120  1  0  0  0
 55 57  1  0  0  0
 55121  1  0  0  0
 56 69  2  0  0  0
 57 58  2  0  0  0
 57122  1  0  0  0
 58123  1  0  0  0
 59 60  1  0  0  0
 59 61  1  0  0  0
 59 62  1  0  0  0
 60124  1  0  0  0
 60125  1  0  0  0
 60126  1  0  0  0
 61127  1  0  0  0
 61128  1  0  0  0
 61129  1  0  0  0
 62130  1  0  0  0
 62131  1  0  0  0
 62132  1  0  0  0
 63 65  1  0  0  0
 63133  1  0  0  0
 63134  1  0  0  0
 63135  1  0  0  0
 64136  1  0  0  0
 65137  1  0  0  0
 68 76  1  0  0  0
 71 72  1  0  0  0
 71 74  1  0  0  0
 71138  1  0  0  0
 71139  1  0  0  0
 72 77  1  0  0  0
 72140  1  0  0  0
 72141  1  0  0  0
 73 74  1  0  0  0
 73 77  1  0  0  0
 73142  1  0  0  0
 73143  1  0  0  0
 74 78  1  0  0  0
 74144  1  0  0  0
 75 76  1  0  0  0
 75 78  1  0  0  0
 75145  1  0  0  0
 75146  1  0  0  0
 76147  1  0  0  0
 76148  1  0  0  0
 78149  1  0  0  0
 78150  1  0  0  0
M  CHG  1  78   1
M  ISO  4   1 100  68 101  76 101  77 100
M  END
> <chiral flag>
0

> <version>
0

> <s_m_source_file>
/data/baiqing/PycharmProjects/Reinvent-master-3.2/result/LINK_invent/BTK/process_docking_weight1_custom_sum_contain_oxygen_bond_distance_aromatic_linkinvent_7_9_3/rearranged_h_0184.sdf

> <i_m_source_file_index>
84

> <r_mmod_Potential_Energy-OPLS-2005>
1430.38159179688

> <r_mmod_Stretch_Energy-OPLS-2005>
621.534057617188

> <r_mmod_Bend_Energy-OPLS-2005>
506.723510742188

> <r_mmod_Torsional_Energy-OPLS-2005>
330.140411376953

> <r_mmod_Improper_Torsional_Energy-OPLS-2005>
8.20745849609375

> <r_mmod_Van_der_Waal_Energy-OPLS-2005>
104.631088256836

> <r_mmod_Electrostatic_Energy-OPLS-2005>
-195.851898193359

> <r_mmod_Solvation_Energy-OPLS-2005>
-462.917297363281

> <b_mmod_Minimization_Converged-OPLS-2005>
0

> <r_mmod_RMS_Derivative-OPLS-2005>
5.36358022689819

$$$$
84
                    3D
 Structure written by MMmdl.
160169  0  0  1  0            999 V2000
  -30.5893  -14.9375   20.4228 C   0  0  0  0  0  0
  -30.4241  -12.5835   19.5025 C   0  0  0  0  0  0
  -29.5138  -12.5209   18.2569 C   0  0  0  0  0  0
  -28.0484  -12.3131   18.6779 C   0  0  0  0  0  0
  -27.6245  -13.2541   19.8369 C   0  0  2  0  0  0
  -28.6670  -13.3044   20.9739 C   0  0  0  0  0  0
  -25.2435  -13.8230   20.5728 C   0  0  0  0  0  0
  -24.1758  -13.0445   20.9239 C   0  0  0  0  0  0
  -24.6384  -11.6933   20.8768 C   0  0  0  0  0  0
  -23.9077  -10.4294   21.0411 C   0  0  0  0  0  0
  -24.3628   -9.4206   21.9186 C   0  0  0  0  0  0
  -23.6298   -8.2241   22.0755 C   0  0  0  0  0  0
  -22.4283   -8.0279   21.3542 C   0  0  0  0  0  0
  -21.9919   -9.0257   20.4649 C   0  0  0  0  0  0
  -22.7250  -10.2134   20.3059 C   0  0  0  0  0  0
  -21.6854   -6.0735   22.5277 C   0  0  0  0  0  0
  -21.4018   -6.5639   23.8211 C   0  0  0  0  0  0
  -21.3662   -5.6793   24.9173 C   0  0  0  0  0  0
  -21.6044   -4.3056   24.7224 C   0  0  0  0  0  0
  -21.8819   -3.8146   23.4346 C   0  0  0  0  0  0
  -21.9193   -4.6963   22.3402 C   0  0  0  0  0  0
  -22.7777  -13.5212   21.1883 C   0  0  0  0  0  0
  -22.1659   -4.2146   21.0979 F   0  0  0  0  0  0
  -21.5627   -3.4542   25.7738 F   0  0  0  0  0  0
  -29.9380  -13.7056   20.3607 N   0  0  0  0  0  0
  -26.2862  -12.9476   20.3266 N   0  0  0  0  0  0
  -25.9318  -11.6599   20.5762 N   0  0  0  0  0  0
  -22.0426  -12.8205   22.0441 N   0  0  0  0  0  0
  -25.4099  -15.1954   20.4144 N   0  0  0  0  0  0
  -31.7963  -14.9168   20.1515 O   0  0  0  0  0  0
  -21.6641   -6.8880   21.4239 O   0  0  0  0  0  0
  -22.3462  -14.5511   20.6717 O   0  0  0  0  0  0
  -24.6423  -31.8436   23.1873 C   0  0  0  0  0  0
  -25.9200  -32.4690   23.8259 C   0  0  1  0  0  0
  -27.2166  -27.1380   20.1445 C   0  0  0  0  0  0
  -25.5950  -33.8497   24.2179 N   0  0  0  0  0  0
  -23.4453  -30.4625   21.5326 C   0  0  2  0  0  0
  -24.8936  -28.8886   20.1051 C   0  0  0  0  0  0
  -22.7560  -29.4544   22.4856 C   0  0  0  0  0  0
  -18.0305  -28.1394   22.8477 C   0  0  0  0  0  0
  -24.1494  -36.7254   23.2642 C   0  0  0  0  0  0
  -26.0000  -30.7169   21.3858 C   0  0  0  0  0  0
  -26.0685  -29.3288   20.7256 C   0  0  0  0  0  0
  -27.2263  -28.4667   20.7319 C   0  0  0  0  0  0
  -26.0132  -26.7931   19.4905 C   0  0  0  0  0  0
  -24.8786  -27.6347   19.4743 C   0  0  0  0  0  0
  -23.6702  -29.7908   20.1511 C   0  0  0  0  0  0
  -25.4127  -36.3030   24.0313 C   0  0  1  0  0  0
  -20.5916  -28.3719   23.1239 C   0  0  2  0  0  0
  -20.6790  -26.9423   22.5407 C   0  0  0  0  0  0
  -19.5766  -26.6380   21.5213 C   0  0  0  0  0  0
  -18.1945  -26.7933   22.1622 C   0  0  0  0  0  0
  -19.1560  -28.8875   23.2851 C   0  0  0  0  0  0
  -18.9478  -30.1471   23.8876 C   0  0  0  0  0  0
  -17.6473  -30.6592   24.0559 C   0  0  0  0  0  0
  -25.9075  -34.9405   23.5056 C   0  0  0  0  0  0
  -16.5365  -29.9083   23.6335 C   0  0  0  0  0  0
  -16.7289  -28.6502   23.0356 C   0  0  0  0  0  0
  -26.4526  -31.6564   25.0704 C   0  0  0  0  0  0
  -25.3709  -31.3753   26.1398 C   0  0  0  0  0  0
  -27.0398  -30.2963   24.6288 C   0  0  0  0  0  0
  -27.6050  -32.4337   25.7492 C   0  0  0  0  0  0
  -27.5578  -37.1782   24.8466 C   0  0  0  0  0  0
  -21.4254  -29.3042   22.3607 N   0  0  0  0  0  0
  -26.4289  -37.3743   23.9407 N   0  0  0  0  0  0
  -24.7156  -31.0294   22.0903 N   0  0  0  0  0  0
  -23.4207  -28.8098   23.3008 O   0  0  0  0  0  0
  -28.2844  -26.1775   20.2658 O   0  0  0  0  0  0
  -26.5663  -34.8906   22.4637 O   0  0  0  0  0  0
  -23.5546  -32.1314   23.7097 O   0  0  0  0  0  0
  -31.5606  -21.5649   22.4266 C   0  0  0  0  0  0
  -31.1479  -22.8949   22.3263 C   0  0  0  0  0  0
  -29.4164  -22.2995   20.8627 C   0  0  0  0  0  0
  -29.8288  -20.8279   20.9827 C   0  0  0  0  0  0
  -30.4543  -18.7557   19.7137 C   0  0  0  0  0  0
  -29.0570  -18.4653   21.5429 C   0  0  0  0  0  0
  -30.2005  -17.2347   19.2713 C   0  0  0  0  0  0
  -28.9029  -16.8774   21.2004 C   0  0  0  0  0  0
  -31.8554  -24.0065   23.0723 C   0  0  0  0  0  0
  -28.2230  -23.1662   20.1988 C   0  0  0  0  0  0
  -28.3674  -24.7603   19.6275 C   0  0  0  0  0  0
  -30.9135  -20.5843   21.7730 N   0  0  0  0  0  0
  -30.1005  -23.2420   21.5627 N   0  0  0  0  0  0
  -29.3885  -19.4909   20.4770 N   0  0  0  0  0  0
  -29.9043  -16.1931   20.3146 N   0  0  0  0  0  0
  -31.4616  -12.7123   19.1902 H   0  0  0  0  0  0
  -30.3982  -11.6406   20.0509 H   0  0  0  0  0  0
  -29.8326  -11.7159   17.5934 H   0  0  0  0  0  0
  -29.6053  -13.4462   17.6859 H   0  0  0  0  0  0
  -27.9463  -11.2747   18.9944 H   0  0  0  0  0  0
  -27.3841  -12.4352   17.8218 H   0  0  0  0  0  0
  -27.5829  -14.2524   19.4001 H   0  0  0  0  0  0
  -28.7550  -12.3398   21.4756 H   0  0  0  0  0  0
  -28.3670  -14.0245   21.7354 H   0  0  0  0  0  0
  -25.2766   -9.5685   22.4771 H   0  0  0  0  0  0
  -24.0003   -7.4635   22.7480 H   0  0  0  0  0  0
  -21.0844   -8.8785   19.8959 H   0  0  0  0  0  0
  -22.3704  -10.9679   19.6176 H   0  0  0  0  0  0
  -21.2013   -7.6148   23.9717 H   0  0  0  0  0  0
  -21.1483   -6.0520   25.9078 H   0  0  0  0  0  0
  -22.0595   -2.7608   23.2845 H   0  0  0  0  0  0
  -22.4046  -11.9877   22.4846 H   0  0  0  0  0  0
  -21.1039  -13.1229   22.2641 H   0  0  0  0  0  0
  -24.6426  -15.8489   20.5259 H   0  0  0  0  0  0
  -26.2568  -15.6327   20.0757 H   0  0  0  0  0  0
  -26.7259  -32.5294   23.0981 H   0  0  0  0  0  0
  -25.0073  -33.9613   25.0310 H   0  0  0  0  0  0
  -22.7475  -31.2883   21.3789 H   0  0  0  0  0  0
  -23.3762  -35.9581   23.3291 H   0  0  0  0  0  0
  -24.3577  -36.8901   22.2060 H   0  0  0  0  0  0
  -23.7244  -37.6444   23.6690 H   0  0  0  0  0  0
  -26.1572  -31.4720   20.6146 H   0  0  0  0  0  0
  -26.8699  -30.7645   22.0290 H   0  0  0  0  0  0
  -28.1196  -28.7955   21.2443 H   0  0  0  0  0  0
  -25.8972  -25.8270   19.0256 H   0  0  0  0  0  0
  -23.9771  -27.2898   18.9866 H   0  0  0  0  0  0
  -23.8049  -30.5655   19.3952 H   0  0  0  0  0  0
  -22.7845  -29.2326   19.8422 H   0  0  0  0  0  0
  -25.1316  -36.1855   25.0804 H   0  0  0  0  0  0
  -21.0009  -28.3310   24.1360 H   0  0  0  0  0  0
  -20.5687  -26.2330   23.3623 H   0  0  0  0  0  0
  -21.6656  -26.7432   22.1203 H   0  0  0  0  0  0
  -19.6927  -25.6285   21.1258 H   0  0  0  0  0  0
  -19.6705  -27.3177   20.6733 H   0  0  0  0  0  0
  -17.4216  -26.6681   21.4023 H   0  0  0  0  0  0
  -18.0342  -26.0080   22.9021 H   0  0  0  0  0  0
  -19.7953  -30.7294   24.2233 H   0  0  0  0  0  0
  -17.5027  -31.6269   24.5164 H   0  0  0  0  0  0
  -15.5364  -30.2977   23.7673 H   0  0  0  0  0  0
  -15.8690  -28.0812   22.7083 H   0  0  0  0  0  0
  -24.5893  -30.7098   25.7717 H   0  0  0  0  0  0
  -24.8893  -32.2936   26.4768 H   0  0  0  0  0  0
  -25.7989  -30.8962   27.0211 H   0  0  0  0  0  0
  -26.3016  -29.6676   24.1298 H   0  0  0  0  0  0
  -27.4019  -29.7273   25.4861 H   0  0  0  0  0  0
  -27.8918  -30.4206   23.9601 H   0  0  0  0  0  0
  -27.2636  -33.3653   26.2016 H   0  0  0  0  0  0
  -28.3888  -32.6874   25.0343 H   0  0  0  0  0  0
  -28.0689  -31.8501   26.5454 H   0  0  0  0  0  0
  -28.2586  -38.0087   24.7511 H   0  0  0  0  0  0
  -28.1082  -36.2615   24.6294 H   0  0  0  0  0  0
  -27.2293  -37.1431   25.8868 H   0  0  0  0  0  0
  -20.9462  -29.8743   21.6777 H   0  0  0  0  0  0
  -26.0156  -38.2811   24.1406 H   0  0  0  0  0  0
  -32.4041  -21.2802   23.0385 H   0  0  0  0  0  0
  -30.6613  -19.3382   18.8144 H   0  0  0  0  0  0
  -31.3934  -18.7557   20.2689 H   0  0  0  0  0  0
  -29.8012  -18.5168   22.3383 H   0  0  0  0  0  0
  -28.1320  -18.7945   22.0188 H   0  0  0  0  0  0
  -31.0641  -16.9118   18.6878 H   0  0  0  0  0  0
  -29.3708  -17.2171   18.5632 H   0  0  0  0  0  0
  -27.9306  -16.7291   20.7308 H   0  0  0  0  0  0
  -28.8501  -16.3300   22.1424 H   0  0  0  0  0  0
  -32.3087  -23.6301   23.9896 H   0  0  0  0  0  0
  -31.1599  -24.8012   23.3436 H   0  0  0  0  0  0
  -32.6430  -24.4352   22.4531 H   0  0  0  0  0  0
  -27.3744  -23.1247   20.8815 H   0  0  0  0  0  0
  -27.9145  -22.5624   19.3451 H   0  0  0  0  0  0
  -27.6958  -24.7948   18.7732 H   0  0  0  0  0  0
  -29.3414  -24.7758   19.1384 H   0  0  0  0  0  0
  1 25  1  0  0  0
  1 30  2  0  0  0
  1 85  1  0  0  0
  2  3  1  0  0  0
  2 25  1  0  0  0
  2 86  1  0  0  0
  2 87  1  0  0  0
  3  4  1  0  0  0
  3 88  1  0  0  0
  3 89  1  0  0  0
  4  5  1  0  0  0
  4 90  1  0  0  0
  4 91  1  0  0  0
  5  6  1  0  0  0
  5 26  1  0  0  0
  5 92  1  0  0  0
  6 25  1  0  0  0
  6 93  1  0  0  0
  6 94  1  0  0  0
  7  8  2  0  0  0
  7 26  1  0  0  0
  7 29  1  0  0  0
  8  9  1  0  0  0
  8 22  1  0  0  0
  9 10  1  0  0  0
  9 27  2  0  0  0
 10 11  2  0  0  0
 10 15  1  0  0  0
 11 12  1  0  0  0
 11 95  1  0  0  0
 12 13  2  0  0  0
 12 96  1  0  0  0
 13 14  1  0  0  0
 13 31  1  0  0  0
 14 15  2  0  0  0
 14 97  1  0  0  0
 15 98  1  0  0  0
 16 17  2  0  0  0
 16 21  1  0  0  0
 16 31  1  0  0  0
 17 18  1  0  0  0
 17 99  1  0  0  0
 18 19  2  0  0  0
 18100  1  0  0  0
 19 20  1  0  0  0
 19 24  1  0  0  0
 20 21  2  0  0  0
 20101  1  0  0  0
 21 23  1  0  0  0
 22 28  1  0  0  0
 22 32  2  0  0  0
 26 27  1  0  0  0
 28102  1  0  0  0
 28103  1  0  0  0
 29104  1  0  0  0
 29105  1  0  0  0
 33 34  1  0  0  0
 33 66  1  0  0  0
 33 70  2  0  0  0
 34 36  1  0  0  0
 34 59  1  0  0  0
 34106  1  0  0  0
 35 44  2  0  0  0
 35 45  1  0  0  0
 35 68  1  0  0  0
 36 56  1  0  0  0
 36107  1  0  0  0
 37 39  1  0  0  0
 37 47  1  0  0  0
 37 66  1  0  0  0
 37108  1  0  0  0
 38 43  2  0  0  0
 38 46  1  0  0  0
 38 47  1  0  0  0
 39 64  1  0  0  0
 39 67  2  0  0  0
 40 52  1  0  0  0
 40 53  2  0  0  0
 40 58  1  0  0  0
 41109  1  0  0  0
 41110  1  0  0  0
 41111  1  0  0  0
 41 48  1  0  0  0
 42 43  1  0  0  0
 42 66  1  0  0  0
 42112  1  0  0  0
 42113  1  0  0  0
 43 44  1  0  0  0
 44114  1  0  0  0
 45 46  2  0  0  0
 45115  1  0  0  0
 46116  1  0  0  0
 47117  1  0  0  0
 47118  1  0  0  0
 48 56  1  0  0  0
 48 65  1  0  0  0
 48119  1  0  0  0
 49 50  1  0  0  0
 49 53  1  0  0  0
 49 64  1  0  0  0
 49120  1  0  0  0
 50 51  1  0  0  0
 50121  1  0  0  0
 50122  1  0  0  0
 51 52  1  0  0  0
 51123  1  0  0  0
 51124  1  0  0  0
 52125  1  0  0  0
 52126  1  0  0  0
 53 54  1  0  0  0
 54 55  2  0  0  0
 54127  1  0  0  0
 55 57  1  0  0  0
 55128  1  0  0  0
 56 69  2  0  0  0
 57 58  2  0  0  0
 57129  1  0  0  0
 58130  1  0  0  0
 59 60  1  0  0  0
 59 61  1  0  0  0
 59 62  1  0  0  0
 60131  1  0  0  0
 60132  1  0  0  0
 60133  1  0  0  0
 61134  1  0  0  0
 61135  1  0  0  0
 61136  1  0  0  0
 62137  1  0  0  0
 62138  1  0  0  0
 62139  1  0  0  0
 63 65  1  0  0  0
 63140  1  0  0  0
 63141  1  0  0  0
 63142  1  0  0  0
 64143  1  0  0  0
 65144  1  0  0  0
 68 81  1  0  0  0
 71 72  2  0  0  0
 71 82  1  0  0  0
 71145  1  0  0  0
 72 79  1  0  0  0
 72 83  1  0  0  0
 73 74  1  0  0  0
 73 80  1  0  0  0
 73 83  2  0  0  0
 74 82  2  0  0  0
 74 84  1  0  0  0
 75 77  1  0  0  0
 75 84  1  0  0  0
 75146  1  0  0  0
 75147  1  0  0  0
 76 78  1  0  0  0
 76 84  1  0  0  0
 76148  1  0  0  0
 76149  1  0  0  0
 77 85  1  0  0  0
 77150  1  0  0  0
 77151  1  0  0  0
 78 85  1  0  0  0
 78152  1  0  0  0
 78153  1  0  0  0
 79154  1  0  0  0
 79155  1  0  0  0
 79156  1  0  0  0
 80 81  1  0  0  0
 80157  1  0  0  0
 80158  1  0  0  0
 81159  1  0  0  0
 81160  1  0  0  0
M  ISO  4   1 100  68 101  81 101  85 100
M  END
> <chiral flag>
0

> <version>
0

> <s_m_source_file>
/data/baiqing/PycharmProjects/Reinvent-master-3.2/result/LINK_invent/BTK/process_docking_weight1_custom_sum_contain_oxygen_bond_distance_aromatic_linkinvent_7_9_3/rearranged_h_0184.sdf

> <i_m_source_file_index>
85

> <r_mmod_Potential_Energy-OPLS-2005>
812.779479980469

> <r_mmod_Stretch_Energy-OPLS-2005>
254.512069702148

> <r_mmod_Bend_Energy-OPLS-2005>
393.865356445312

> <r_mmod_Torsional_Energy-OPLS-2005>
352.600372314453

> <r_mmod_Improper_Torsional_Energy-OPLS-2005>
21.8821582794189

> <r_mmod_Van_der_Waal_Energy-OPLS-2005>
153.43635559082

> <r_mmod_Electrostatic_Energy-OPLS-2005>
-311.81396484375

> <r_mmod_Solvation_Energy-OPLS-2005>
-238.120315551758

> <b_mmod_Minimization_Converged-OPLS-2005>
0

> <r_mmod_RMS_Derivative-OPLS-2005>
0.611607849597931

$$$$
85
                    3D
 Structure written by MMmdl.
159168  0  0  1  0            999 V2000
  -30.7134  -14.4432   20.6638 C   0  0  0  0  0  0
  -30.4279  -12.3308   19.3952 C   0  0  0  0  0  0
  -29.4876  -12.5200   18.1874 C   0  0  0  0  0  0
  -28.0129  -12.3643   18.6099 C   0  0  0  0  0  0
  -27.6616  -13.2010   19.8687 C   0  0  2  0  0  0
  -28.6999  -12.9566   20.9826 C   0  0  0  0  0  0
  -25.2603  -13.8157   20.5660 C   0  0  0  0  0  0
  -24.1843  -13.0447   20.9147 C   0  0  0  0  0  0
  -24.6402  -11.6910   20.8736 C   0  0  0  0  0  0
  -23.9072  -10.4294   21.0410 C   0  0  0  0  0  0
  -24.3637   -9.4200   21.9172 C   0  0  0  0  0  0
  -23.6311   -8.2239   22.0755 C   0  0  0  0  0  0
  -22.4295   -8.0279   21.3541 C   0  0  0  0  0  0
  -21.9914   -9.0268   20.4658 C   0  0  0  0  0  0
  -22.7248  -10.2142   20.3065 C   0  0  0  0  0  0
  -21.6852   -6.0736   22.5285 C   0  0  0  0  0  0
  -21.4001   -6.5642   23.8206 C   0  0  0  0  0  0
  -21.3663   -5.6784   24.9168 C   0  0  0  0  0  0
  -21.6053   -4.3052   24.7207 C   0  0  0  0  0  0
  -21.8812   -3.8143   23.4332 C   0  0  0  0  0  0
  -21.9180   -4.6972   22.3394 C   0  0  0  0  0  0
  -22.7865  -13.5249   21.1792 C   0  0  0  0  0  0
  -22.1647   -4.2159   21.0973 F   0  0  0  0  0  0
  -21.5649   -3.4534   25.7716 F   0  0  0  0  0  0
  -30.0271  -13.2905   20.4360 N   0  0  0  0  0  0
  -26.3017  -12.9311   20.3312 N   0  0  0  0  0  0
  -25.9309  -11.6476   20.5728 N   0  0  0  0  0  0
  -22.0502  -12.8299   22.0394 N   0  0  0  0  0  0
  -25.4358  -15.1868   20.4087 N   0  0  0  0  0  0
  -31.8110  -14.6819   20.1495 O   0  0  0  0  0  0
  -21.6648   -6.8893   21.4242 O   0  0  0  0  0  0
  -22.3560  -14.5540   20.6595 O   0  0  0  0  0  0
  -24.6184  -31.8636   23.2086 C   0  0  0  0  0  0
  -25.9061  -32.4798   23.8400 C   0  0  1  0  0  0
  -27.2430  -27.3879   20.1147 C   0  0  0  0  0  0
  -25.5903  -33.8603   24.2311 N   0  0  0  0  0  0
  -23.4120  -30.4870   21.5459 C   0  0  2  0  0  0
  -24.8627  -28.9475   20.1209 C   0  0  0  0  0  0
  -22.7446  -29.4623   22.4931 C   0  0  0  0  0  0
  -18.0288  -28.1364   22.8478 C   0  0  0  0  0  0
  -24.1481  -36.7304   23.2639 C   0  0  0  0  0  0
  -25.9482  -30.8169   21.3723 C   0  0  0  0  0  0
  -26.0283  -29.4502   20.7125 C   0  0  0  0  0  0
  -27.2239  -28.6857   20.6923 C   0  0  0  0  0  0
  -26.0527  -26.9145   19.5121 C   0  0  0  0  0  0
  -24.8725  -27.6819   19.5155 C   0  0  0  0  0  0
  -23.6287  -29.8219   20.1615 C   0  0  0  0  0  0
  -25.4103  -36.3087   24.0330 C   0  0  1  0  0  0
  -20.5881  -28.3662   23.1279 C   0  0  2  0  0  0
  -20.6749  -26.9389   22.5398 C   0  0  0  0  0  0
  -19.5738  -26.6364   21.5186 C   0  0  0  0  0  0
  -18.1926  -26.7917   22.1599 C   0  0  0  0  0  0
  -19.1542  -28.8830   23.2878 C   0  0  0  0  0  0
  -18.9464  -30.1426   23.8896 C   0  0  0  0  0  0
  -17.6468  -30.6576   24.0549 C   0  0  0  0  0  0
  -25.9042  -34.9458   23.5124 C   0  0  0  0  0  0
  -16.5355  -29.9075   23.6311 C   0  0  0  0  0  0
  -16.7276  -28.6485   23.0349 C   0  0  0  0  0  0
  -26.4475  -31.6617   25.0763 C   0  0  0  0  0  0
  -25.3745  -31.3766   26.1526 C   0  0  0  0  0  0
  -27.0308  -30.3036   24.6216 C   0  0  0  0  0  0
  -27.6038  -32.4379   25.7522 C   0  0  0  0  0  0
  -27.5584  -37.1801   24.8460 C   0  0  0  0  0  0
  -21.4168  -29.3029   22.3684 N   0  0  0  0  0  0
  -26.4279  -37.3780   23.9427 N   0  0  0  0  0  0
  -24.6771  -31.0714   22.0987 N   0  0  0  0  0  0
  -23.4199  -28.8156   23.2982 O   0  0  0  0  0  0
  -28.3938  -26.6042   20.1385 O   0  0  0  0  0  0
  -26.5611  -34.8916   22.4687 O   0  0  0  0  0  0
  -23.5366  -32.1386   23.7457 O   0  0  0  0  0  0
  -29.8269  -20.0737   22.6131 C   0  0  0  0  0  0
  -29.9638  -18.6966   22.9149 C   0  0  0  0  0  0
  -30.2040  -20.4948   21.3227 C   0  0  0  0  0  0
  -30.6857  -19.5340   20.4369 C   0  0  0  0  0  0
  -30.4603  -17.7959   21.9388 C   0  0  0  0  0  0
  -31.2070  -20.1604   19.1773 C   0  0  0  0  0  0
  -30.7279  -21.6300   19.2753 C   0  0  0  0  0  0
  -30.3628  -21.9156   20.7606 C   0  0  1  0  0  0
  -30.7693  -16.3394   22.3043 C   0  0  0  0  0  0
  -29.4764  -24.2873   20.4743 C   0  0  0  0  0  0
  -28.2112  -25.2065   20.5168 C   0  0  0  0  0  0
  -30.8082  -18.2106   20.6959 N   0  0  0  0  0  0
  -30.1132  -15.3004   21.5042 N   0  0  0  0  0  0
  -29.2129  -22.8661   20.9045 N   0  3  0  0  0  0
  -31.4676  -12.4587   19.0888 H   0  0  0  0  0  0
  -30.3588  -11.3119   19.7802 H   0  0  0  0  0  0
  -29.7327  -11.8003   17.4038 H   0  0  0  0  0  0
  -29.6408  -13.5097   17.7519 H   0  0  0  0  0  0
  -27.8399  -11.3076   18.8137 H   0  0  0  0  0  0
  -27.3524  -12.6268   17.7828 H   0  0  0  0  0  0
  -27.7151  -14.2527   19.5850 H   0  0  0  0  0  0
  -28.6884  -11.9089   21.2871 H   0  0  0  0  0  0
  -28.4393  -13.5142   21.8817 H   0  0  0  0  0  0
  -25.2794   -9.5667   22.4734 H   0  0  0  0  0  0
  -24.0016   -7.4632   22.7487 H   0  0  0  0  0  0
  -21.0826   -8.8805   19.9004 H   0  0  0  0  0  0
  -22.3708  -10.9682   19.6185 H   0  0  0  0  0  0
  -21.1995   -7.6148   23.9711 H   0  0  0  0  0  0
  -21.1499   -6.0519   25.9071 H   0  0  0  0  0  0
  -22.0595   -2.7613   23.2817 H   0  0  0  0  0  0
  -22.4083  -11.9976   22.4829 H   0  0  0  0  0  0
  -21.1127  -13.1371   22.2584 H   0  0  0  0  0  0
  -24.6776  -15.8494   20.5326 H   0  0  0  0  0  0
  -26.2983  -15.6225   20.1080 H   0  0  0  0  0  0
  -26.7129  -32.5491   23.1161 H   0  0  0  0  0  0
  -25.0029  -33.9762   25.0435 H   0  0  0  0  0  0
  -22.7018  -31.3040   21.4026 H   0  0  0  0  0  0
  -23.3736  -35.9647   23.3303 H   0  0  0  0  0  0
  -24.3559  -36.8921   22.2052 H   0  0  0  0  0  0
  -23.7244  -37.6511   23.6660 H   0  0  0  0  0  0
  -26.0827  -31.5883   20.6129 H   0  0  0  0  0  0
  -26.8252  -30.8530   22.0069 H   0  0  0  0  0  0
  -28.1262  -29.0775   21.1428 H   0  0  0  0  0  0
  -26.0080  -25.9515   19.0265 H   0  0  0  0  0  0
  -23.9780  -27.2864   19.0540 H   0  0  0  0  0  0
  -23.7557  -30.5979   19.4054 H   0  0  0  0  0  0
  -22.7515  -29.2510   19.8517 H   0  0  0  0  0  0
  -25.1272  -36.1933   25.0818 H   0  0  0  0  0  0
  -20.9982  -28.3231   24.1394 H   0  0  0  0  0  0
  -20.5582  -26.2293   23.3599 H   0  0  0  0  0  0
  -21.6625  -26.7371   22.1240 H   0  0  0  0  0  0
  -19.6892  -25.6267   21.1229 H   0  0  0  0  0  0
  -19.6686  -27.3149   20.6697 H   0  0  0  0  0  0
  -17.4191  -26.6668   21.4006 H   0  0  0  0  0  0
  -18.0340  -26.0048   22.8985 H   0  0  0  0  0  0
  -19.7941  -30.7230   24.2288 H   0  0  0  0  0  0
  -17.5024  -31.6254   24.5158 H   0  0  0  0  0  0
  -15.5354  -30.2976   23.7626 H   0  0  0  0  0  0
  -15.8677  -28.0790   22.7072 H   0  0  0  0  0  0
  -24.5878  -30.7145   25.7891 H   0  0  0  0  0  0
  -24.8987  -32.2940   26.5003 H   0  0  0  0  0  0
  -25.8095  -30.8919   27.0273 H   0  0  0  0  0  0
  -26.2864  -29.6819   24.1218 H   0  0  0  0  0  0
  -27.3959  -29.7273   25.4729 H   0  0  0  0  0  0
  -27.8766  -30.4315   23.9457 H   0  0  0  0  0  0
  -27.2605  -33.3632   26.2164 H   0  0  0  0  0  0
  -28.3796  -32.7036   25.0331 H   0  0  0  0  0  0
  -28.0775  -31.8499   26.5388 H   0  0  0  0  0  0
  -28.2589  -38.0108   24.7502 H   0  0  0  0  0  0
  -28.1079  -36.2637   24.6256 H   0  0  0  0  0  0
  -27.2322  -37.1427   25.8868 H   0  0  0  0  0  0
  -20.9344  -29.8779   21.6916 H   0  0  0  0  0  0
  -26.0157  -38.2853   24.1437 H   0  0  0  0  0  0
  -29.4949  -20.7742   23.3666 H   0  0  0  0  0  0
  -29.7364  -18.3476   23.9146 H   0  0  0  0  0  0
  -30.8473  -19.6495   18.2840 H   0  0  0  0  0  0
  -32.2962  -20.1024   19.1926 H   0  0  0  0  0  0
  -29.8239  -21.7038   18.6706 H   0  0  0  0  0  0
  -31.4462  -22.3382   18.8634 H   0  0  0  0  0  0
  -31.2282  -22.3459   21.2676 H   0  0  0  0  0  0
  -30.4618  -16.1669   23.3372 H   0  0  0  0  0  0
  -31.8512  -16.1955   22.3015 H   0  0  0  0  0  0
  -30.2533  -24.7055   21.1144 H   0  0  0  0  0  0
  -29.8792  -24.2859   19.4611 H   0  0  0  0  0  0
  -27.8020  -25.1927   21.5274 H   0  0  0  0  0  0
  -27.4743  -24.7278   19.8769 H   0  0  0  0  0  0
  -29.1697  -15.0704   21.7735 H   0  0  0  0  0  0
  -28.9545  -22.8887   21.8785 H   0  0  0  0  0  0
  -28.4226  -22.4955   20.4008 H   0  0  0  0  0  0
  1 25  1  0  0  0
  1 30  2  0  0  0
  1 83  1  0  0  0
  2  3  1  0  0  0
  2 25  1  0  0  0
  2 85  1  0  0  0
  2 86  1  0  0  0
  3  4  1  0  0  0
  3 87  1  0  0  0
  3 88  1  0  0  0
  4  5  1  0  0  0
  4 89  1  0  0  0
  4 90  1  0  0  0
  5  6  1  0  0  0
  5 26  1  0  0  0
  5 91  1  0  0  0
  6 25  1  0  0  0
  6 92  1  0  0  0
  6 93  1  0  0  0
  7  8  2  0  0  0
  7 26  1  0  0  0
  7 29  1  0  0  0
  8  9  1  0  0  0
  8 22  1  0  0  0
  9 10  1  0  0  0
  9 27  2  0  0  0
 10 11  2  0  0  0
 10 15  1  0  0  0
 11 12  1  0  0  0
 11 94  1  0  0  0
 12 13  2  0  0  0
 12 95  1  0  0  0
 13 14  1  0  0  0
 13 31  1  0  0  0
 14 15  2  0  0  0
 14 96  1  0  0  0
 15 97  1  0  0  0
 16 17  2  0  0  0
 16 21  1  0  0  0
 16 31  1  0  0  0
 17 18  1  0  0  0
 17 98  1  0  0  0
 18 19  2  0  0  0
 18 99  1  0  0  0
 19 20  1  0  0  0
 19 24  1  0  0  0
 20 21  2  0  0  0
 20100  1  0  0  0
 21 23  1  0  0  0
 22 28  1  0  0  0
 22 32  2  0  0  0
 26 27  1  0  0  0
 28101  1  0  0  0
 28102  1  0  0  0
 29103  1  0  0  0
 29104  1  0  0  0
 33 34  1  0  0  0
 33 66  1  0  0  0
 33 70  2  0  0  0
 34 36  1  0  0  0
 34 59  1  0  0  0
 34105  1  0  0  0
 35 44  2  0  0  0
 35 45  1  0  0  0
 35 68  1  0  0  0
 36 56  1  0  0  0
 36106  1  0  0  0
 37 39  1  0  0  0
 37 47  1  0  0  0
 37 66  1  0  0  0
 37107  1  0  0  0
 38 43  2  0  0  0
 38 46  1  0  0  0
 38 47  1  0  0  0
 39 64  1  0  0  0
 39 67  2  0  0  0
 40 52  1  0  0  0
 40 53  2  0  0  0
 40 58  1  0  0  0
 41108  1  0  0  0
 41109  1  0  0  0
 41110  1  0  0  0
 41 48  1  0  0  0
 42 43  1  0  0  0
 42 66  1  0  0  0
 42111  1  0  0  0
 42112  1  0  0  0
 43 44  1  0  0  0
 44113  1  0  0  0
 45 46  2  0  0  0
 45114  1  0  0  0
 46115  1  0  0  0
 47116  1  0  0  0
 47117  1  0  0  0
 48 56  1  0  0  0
 48 65  1  0  0  0
 48118  1  0  0  0
 49 50  1  0  0  0
 49 53  1  0  0  0
 49 64  1  0  0  0
 49119  1  0  0  0
 50 51  1  0  0  0
 50120  1  0  0  0
 50121  1  0  0  0
 51 52  1  0  0  0
 51122  1  0  0  0
 51123  1  0  0  0
 52124  1  0  0  0
 52125  1  0  0  0
 53 54  1  0  0  0
 54 55  2  0  0  0
 54126  1  0  0  0
 55 57  1  0  0  0
 55127  1  0  0  0
 56 69  2  0  0  0
 57 58  2  0  0  0
 57128  1  0  0  0
 58129  1  0  0  0
 59 60  1  0  0  0
 59 61  1  0  0  0
 59 62  1  0  0  0
 60130  1  0  0  0
 60131  1  0  0  0
 60132  1  0  0  0
 61133  1  0  0  0
 61134  1  0  0  0
 61135  1  0  0  0
 62136  1  0  0  0
 62137  1  0  0  0
 62138  1  0  0  0
 63 65  1  0  0  0
 63139  1  0  0  0
 63140  1  0  0  0
 63141  1  0  0  0
 64142  1  0  0  0
 65143  1  0  0  0
 68 81  1  0  0  0
 71 72  2  0  0  0
 71 73  1  0  0  0
 71144  1  0  0  0
 72 75  1  0  0  0
 72145  1  0  0  0
 73 74  2  0  0  0
 73 78  1  0  0  0
 74 76  1  0  0  0
 74 82  1  0  0  0
 75 79  1  0  0  0
 75 82  2  0  0  0
 76 77  1  0  0  0
 76146  1  0  0  0
 76147  1  0  0  0
 77 78  1  0  0  0
 77148  1  0  0  0
 77149  1  0  0  0
 78 84  1  0  0  0
 78150  1  0  0  0
 79 83  1  0  0  0
 79151  1  0  0  0
 79152  1  0  0  0
 80 81  1  0  0  0
 80 84  1  0  0  0
 80153  1  0  0  0
 80154  1  0  0  0
 81155  1  0  0  0
 81156  1  0  0  0
 83157  1  0  0  0
 84158  1  0  0  0
 84159  1  0  0  0
M  CHG  1  84   1
M  ISO  4   1 100  68 101  81 101  83 100
M  END
> <chiral flag>
0

> <version>
0

> <s_m_source_file>
/data/baiqing/PycharmProjects/Reinvent-master-3.2/result/LINK_invent/BTK/process_docking_weight1_custom_sum_contain_oxygen_bond_distance_aromatic_linkinvent_7_9_3/rearranged_h_0184.sdf

> <i_m_source_file_index>
86

> <r_mmod_Potential_Energy-OPLS-2005>
-412.527130126953

> <r_mmod_Stretch_Energy-OPLS-2005>
46.2117462158203

> <r_mmod_Bend_Energy-OPLS-2005>
146.908462524414

> <r_mmod_Torsional_Energy-OPLS-2005>
221.447906494141

> <r_mmod_Improper_Torsional_Energy-OPLS-2005>
3.93571519851685

> <r_mmod_Van_der_Waal_Energy-OPLS-2005>
150.001403808594

> <r_mmod_Electrostatic_Energy-OPLS-2005>
-516.107360839844

> <r_mmod_Solvation_Energy-OPLS-2005>
-481.340423583984

> <b_mmod_Minimization_Converged-OPLS-2005>
0

> <r_mmod_RMS_Derivative-OPLS-2005>
3.0167281627655

$$$$
86
                    3D
 Structure written by MMmdl.
155164  0  0  1  0            999 V2000
  -30.5589  -15.0340   20.3950 C   0  0  0  0  0  0
  -30.4235  -12.6554   19.4871 C   0  0  0  0  0  0
  -29.5120  -12.5256   18.2481 C   0  0  0  0  0  0
  -28.0529  -12.2989   18.6810 C   0  0  0  0  0  0
  -27.6135  -13.2573   19.8193 C   0  0  2  0  0  0
  -28.6580  -13.3710   20.9475 C   0  0  0  0  0  0
  -25.2425  -13.8271   20.5752 C   0  0  0  0  0  0
  -24.1765  -13.0455   20.9273 C   0  0  0  0  0  0
  -24.6378  -11.6937   20.8789 C   0  0  0  0  0  0
  -23.9076  -10.4303   21.0419 C   0  0  0  0  0  0
  -24.3641   -9.4204   21.9171 C   0  0  0  0  0  0
  -23.6292   -8.2246   22.0740 C   0  0  0  0  0  0
  -22.4269   -8.0288   21.3531 C   0  0  0  0  0  0
  -21.9903   -9.0263   20.4615 C   0  0  0  0  0  0
  -22.7244  -10.2141   20.3038 C   0  0  0  0  0  0
  -21.6874   -6.0709   22.5271 C   0  0  0  0  0  0
  -21.4033   -6.5613   23.8209 C   0  0  0  0  0  0
  -21.3667   -5.6760   24.9169 C   0  0  0  0  0  0
  -21.6066   -4.3023   24.7212 C   0  0  0  0  0  0
  -21.8842   -3.8102   23.4347 C   0  0  0  0  0  0
  -21.9214   -4.6921   22.3403 C   0  0  0  0  0  0
  -22.7759  -13.5217   21.1898 C   0  0  0  0  0  0
  -22.1681   -4.2097   21.0970 F   0  0  0  0  0  0
  -21.5620   -3.4513   25.7741 F   0  0  0  0  0  0
  -29.9036  -13.7985   20.3039 N   0  0  0  0  0  0
  -26.2812  -12.9479   20.3213 N   0  0  0  0  0  0
  -25.9300  -11.6609   20.5763 N   0  0  0  0  0  0
  -22.0393  -12.8189   22.0431 N   0  0  0  0  0  0
  -25.4145  -15.1984   20.4214 N   0  0  0  0  0  0
  -31.7886  -14.9515   20.2834 O   0  0  0  0  0  0
  -21.6649   -6.8856   21.4232 O   0  0  0  0  0  0
  -22.3451  -14.5531   20.6772 O   0  0  0  0  0  0
  -24.6504  -31.8384   23.1794 C   0  0  0  0  0  0
  -25.9262  -32.4667   23.8222 C   0  0  1  0  0  0
  -27.2029  -27.0581   20.1746 C   0  0  0  0  0  0
  -25.5980  -33.8466   24.2135 N   0  0  0  0  0  0
  -23.4576  -30.4541   21.5268 C   0  0  2  0  0  0
  -24.9038  -28.8582   20.1227 C   0  0  0  0  0  0
  -22.7608  -29.4516   22.4815 C   0  0  0  0  0  0
  -18.0328  -28.1404   22.8483 C   0  0  0  0  0  0
  -24.1494  -36.7230   23.2635 C   0  0  0  0  0  0
  -26.0158  -30.6887   21.3881 C   0  0  0  0  0  0
  -26.0851  -29.2875   20.7401 C   0  0  0  0  0  0
  -27.2404  -28.4066   20.7383 C   0  0  0  0  0  0
  -25.9928  -26.7368   19.5334 C   0  0  0  0  0  0
  -24.8723  -27.5976   19.5052 C   0  0  0  0  0  0
  -23.6897  -29.7758   20.1511 C   0  0  0  0  0  0
  -25.4124  -36.2990   24.0300 C   0  0  1  0  0  0
  -20.5944  -28.3734   23.1223 C   0  0  2  0  0  0
  -20.6787  -26.9429   22.5411 C   0  0  0  0  0  0
  -19.5745  -26.6384   21.5225 C   0  0  0  0  0  0
  -18.1933  -26.7941   22.1642 C   0  0  0  0  0  0
  -19.1584  -28.8887   23.2853 C   0  0  0  0  0  0
  -18.9484  -30.1487   23.8879 C   0  0  0  0  0  0
  -17.6475  -30.6598   24.0566 C   0  0  0  0  0  0
  -25.9083  -34.9382   23.5020 C   0  0  0  0  0  0
  -16.5376  -29.9082   23.6346 C   0  0  0  0  0  0
  -16.7314  -28.6508   23.0357 C   0  0  0  0  0  0
  -26.4534  -31.6565   25.0711 C   0  0  0  0  0  0
  -25.3696  -31.3793   26.1397 C   0  0  0  0  0  0
  -27.0391  -30.2931   24.6371 C   0  0  0  0  0  0
  -27.6051  -32.4332   25.7515 C   0  0  0  0  0  0
  -27.5565  -37.1779   24.8460 C   0  0  0  0  0  0
  -21.4291  -29.3051   22.3570 N   0  0  0  0  0  0
  -26.4279  -37.3717   23.9398 N   0  0  0  0  0  0
  -24.7276  -31.0156   22.0874 N   0  0  0  0  0  0
  -23.4207  -28.8080   23.3011 O   0  0  0  0  0  0
  -28.2501  -26.0549   20.1077 O   0  0  0  0  0  0
  -26.5657  -34.8889   22.4596 O   0  0  0  0  0  0
  -23.5617  -32.1302   23.6980 O   0  0  0  0  0  0
  -29.0750  -21.8881   20.4673 C   0  0  0  0  0  0
  -28.7042  -20.4728   20.1742 C   0  0  0  0  0  0
  -28.1707  -23.0582   20.2409 C   0  0  0  0  0  0
  -26.6700  -21.4184   19.5167 C   0  0  0  0  0  0
  -29.9942  -18.5198   18.7889 C   0  0  0  0  0  0
  -30.5719  -17.0687   18.9313 C   0  0  0  0  0  0
  -29.2417  -17.5168   20.7732 C   0  0  0  0  0  0
  -29.6037  -19.0438   20.1770 C   0  0  2  0  0  0
  -25.2566  -21.1235   19.0527 C   0  0  0  0  0  0
  -28.2487  -24.6399   20.8182 C   0  0  0  0  0  0
  -27.4526  -20.3422   19.6911 N   0  0  0  0  0  0
  -26.9616  -22.7055   19.7488 N   0  0  0  0  0  0
  -29.9418  -16.3062   20.0425 N   0  0  0  0  0  0
  -31.4558  -12.8065   19.1718 H   0  0  0  0  0  0
  -30.4283  -11.7299   20.0651 H   0  0  0  0  0  0
  -29.8464  -11.7059   17.6120 H   0  0  0  0  0  0
  -29.5837  -13.4338   17.6450 H   0  0  0  0  0  0
  -27.9765  -11.2672   19.0216 H   0  0  0  0  0  0
  -27.3777  -12.3943   17.8285 H   0  0  0  0  0  0
  -27.5471  -14.2403   19.3517 H   0  0  0  0  0  0
  -28.7836  -12.4285   21.4814 H   0  0  0  0  0  0
  -28.3453  -14.1156   21.6810 H   0  0  0  0  0  0
  -25.2786   -9.5660   22.4745 H   0  0  0  0  0  0
  -23.9972   -7.4621   22.7460 H   0  0  0  0  0  0
  -21.0843   -8.8812   19.8889 H   0  0  0  0  0  0
  -22.3728  -10.9700   19.6146 H   0  0  0  0  0  0
  -21.2048   -7.6115   23.9717 H   0  0  0  0  0  0
  -21.1444   -6.0468   25.9087 H   0  0  0  0  0  0
  -22.0615   -2.7566   23.2855 H   0  0  0  0  0  0
  -22.4060  -11.9894   22.4842 H   0  0  0  0  0  0
  -21.1019  -13.1219   22.2634 H   0  0  0  0  0  0
  -24.6587  -15.8562   20.5720 H   0  0  0  0  0  0
  -26.2814  -15.6378   20.1393 H   0  0  0  0  0  0
  -26.7334  -32.5252   23.0958 H   0  0  0  0  0  0
  -25.0121  -33.9555   25.0271 H   0  0  0  0  0  0
  -22.7650  -31.2815   21.3641 H   0  0  0  0  0  0
  -23.3756  -35.9570   23.3293 H   0  0  0  0  0  0
  -24.3571  -36.8878   22.2053 H   0  0  0  0  0  0
  -23.7262  -37.6425   23.6685 H   0  0  0  0  0  0
  -26.1742  -31.4358   20.6096 H   0  0  0  0  0  0
  -26.8836  -30.7469   22.0336 H   0  0  0  0  0  0
  -28.1534  -28.7409   21.2125 H   0  0  0  0  0  0
  -25.9020  -25.7676   19.0621 H   0  0  0  0  0  0
  -23.9685  -27.2631   19.0131 H   0  0  0  0  0  0
  -23.8447  -30.5448   19.3937 H   0  0  0  0  0  0
  -22.8006  -29.2278   19.8328 H   0  0  0  0  0  0
  -25.1318  -36.1801   25.0795 H   0  0  0  0  0  0
  -21.0056  -28.3338   24.1329 H   0  0  0  0  0  0
  -20.5652  -26.2352   23.3636 H   0  0  0  0  0  0
  -21.6652  -26.7397   22.1214 H   0  0  0  0  0  0
  -19.6898  -25.6280   21.1270 H   0  0  0  0  0  0
  -19.6686  -27.3171   20.6728 H   0  0  0  0  0  0
  -17.4209  -26.6720   21.4047 H   0  0  0  0  0  0
  -18.0347  -26.0078   22.9030 H   0  0  0  0  0  0
  -19.7952  -30.7329   24.2221 H   0  0  0  0  0  0
  -17.5017  -31.6275   24.5169 H   0  0  0  0  0  0
  -15.5366  -30.2972   23.7653 H   0  0  0  0  0  0
  -15.8723  -28.0816   22.7060 H   0  0  0  0  0  0
  -24.5900  -30.7107   25.7719 H   0  0  0  0  0  0
  -24.8865  -32.2994   26.4700 H   0  0  0  0  0  0
  -25.7977  -30.9063   27.0251 H   0  0  0  0  0  0
  -26.3038  -29.6656   24.1324 H   0  0  0  0  0  0
  -27.3860  -29.7242   25.5005 H   0  0  0  0  0  0
  -27.9004  -30.4080   23.9789 H   0  0  0  0  0  0
  -27.2637  -33.3649   26.2031 H   0  0  0  0  0  0
  -28.3922  -32.6865   25.0403 H   0  0  0  0  0  0
  -28.0666  -31.8512   26.5505 H   0  0  0  0  0  0
  -28.2568  -38.0077   24.7463 H   0  0  0  0  0  0
  -28.1070  -36.2601   24.6344 H   0  0  0  0  0  0
  -27.2277  -37.1495   25.8860 H   0  0  0  0  0  0
  -20.9499  -29.8777   21.6752 H   0  0  0  0  0  0
  -26.0134  -38.2783   24.1406 H   0  0  0  0  0  0
  -30.0522  -22.0833   20.8879 H   0  0  0  0  0  0
  -29.0975  -18.4806   18.1672 H   0  0  0  0  0  0
  -30.6918  -19.1883   18.2856 H   0  0  0  0  0  0
  -31.6459  -17.1546   19.1186 H   0  0  0  0  0  0
  -30.4681  -16.5253   17.9897 H   0  0  0  0  0  0
  -28.1688  -17.3542   20.6519 H   0  0  0  0  0  0
  -29.4295  -17.4774   21.8454 H   0  0  0  0  0  0
  -30.5344  -19.3303   20.6682 H   0  0  0  0  0  0
  -25.2690  -20.4532   18.1917 H   0  0  0  0  0  0
  -24.7240  -22.0309   18.7653 H   0  0  0  0  0  0
  -24.6884  -20.6426   19.8513 H   0  0  0  0  0  0
  -29.1599  -24.6503   21.4150 H   0  0  0  0  0  0
  -27.4524  -24.6965   21.5619 H   0  0  0  0  0  0
  1 25  1  0  0  0
  1 30  2  0  0  0
  1 83  1  0  0  0
  2  3  1  0  0  0
  2 25  1  0  0  0
  2 84  1  0  0  0
  2 85  1  0  0  0
  3  4  1  0  0  0
  3 86  1  0  0  0
  3 87  1  0  0  0
  4  5  1  0  0  0
  4 88  1  0  0  0
  4 89  1  0  0  0
  5  6  1  0  0  0
  5 26  1  0  0  0
  5 90  1  0  0  0
  6 25  1  0  0  0
  6 91  1  0  0  0
  6 92  1  0  0  0
  7  8  2  0  0  0
  7 26  1  0  0  0
  7 29  1  0  0  0
  8  9  1  0  0  0
  8 22  1  0  0  0
  9 10  1  0  0  0
  9 27  2  0  0  0
 10 11  2  0  0  0
 10 15  1  0  0  0
 11 12  1  0  0  0
 11 93  1  0  0  0
 12 13  2  0  0  0
 12 94  1  0  0  0
 13 14  1  0  0  0
 13 31  1  0  0  0
 14 15  2  0  0  0
 14 95  1  0  0  0
 15 96  1  0  0  0
 16 17  2  0  0  0
 16 21  1  0  0  0
 16 31  1  0  0  0
 17 18  1  0  0  0
 17 97  1  0  0  0
 18 19  2  0  0  0
 18 98  1  0  0  0
 19 20  1  0  0  0
 19 24  1  0  0  0
 20 21  2  0  0  0
 20 99  1  0  0  0
 21 23  1  0  0  0
 22 28  1  0  0  0
 22 32  2  0  0  0
 26 27  1  0  0  0
 28100  1  0  0  0
 28101  1  0  0  0
 29102  1  0  0  0
 29103  1  0  0  0
 33 34  1  0  0  0
 33 66  1  0  0  0
 33 70  2  0  0  0
 34 36  1  0  0  0
 34 59  1  0  0  0
 34104  1  0  0  0
 35 44  2  0  0  0
 35 45  1  0  0  0
 35 68  1  0  0  0
 36 56  1  0  0  0
 36105  1  0  0  0
 37 39  1  0  0  0
 37 47  1  0  0  0
 37 66  1  0  0  0
 37106  1  0  0  0
 38 43  2  0  0  0
 38 46  1  0  0  0
 38 47  1  0  0  0
 39 64  1  0  0  0
 39 67  2  0  0  0
 40 52  1  0  0  0
 40 53  2  0  0  0
 40 58  1  0  0  0
 41107  1  0  0  0
 41108  1  0  0  0
 41109  1  0  0  0
 41 48  1  0  0  0
 42 43  1  0  0  0
 42 66  1  0  0  0
 42110  1  0  0  0
 42111  1  0  0  0
 43 44  1  0  0  0
 44112  1  0  0  0
 45 46  2  0  0  0
 45113  1  0  0  0
 46114  1  0  0  0
 47115  1  0  0  0
 47116  1  0  0  0
 48 56  1  0  0  0
 48 65  1  0  0  0
 48117  1  0  0  0
 49 50  1  0  0  0
 49 53  1  0  0  0
 49 64  1  0  0  0
 49118  1  0  0  0
 50 51  1  0  0  0
 50119  1  0  0  0
 50120  1  0  0  0
 51 52  1  0  0  0
 51121  1  0  0  0
 51122  1  0  0  0
 52123  1  0  0  0
 52124  1  0  0  0
 53 54  1  0  0  0
 54 55  2  0  0  0
 54125  1  0  0  0
 55 57  1  0  0  0
 55126  1  0  0  0
 56 69  2  0  0  0
 57 58  2  0  0  0
 57127  1  0  0  0
 58128  1  0  0  0
 59 60  1  0  0  0
 59 61  1  0  0  0
 59 62  1  0  0  0
 60129  1  0  0  0
 60130  1  0  0  0
 60131  1  0  0  0
 61132  1  0  0  0
 61133  1  0  0  0
 61134  1  0  0  0
 62135  1  0  0  0
 62136  1  0  0  0
 62137  1  0  0  0
 63 65  1  0  0  0
 63138  1  0  0  0
 63139  1  0  0  0
 63140  1  0  0  0
 64141  1  0  0  0
 65142  1  0  0  0
 68 80  1  0  0  0
 71 72  2  0  0  0
 71 73  1  0  0  0
 71143  1  0  0  0
 72 81  1  0  0  0
 72 78  1  0  0  0
 73 80  1  0  0  0
 73 82  2  0  0  0
 74 79  1  0  0  0
 74 81  2  0  0  0
 74 82  1  0  0  0
 75 76  1  0  0  0
 75 78  1  0  0  0
 75144  1  0  0  0
 75145  1  0  0  0
 76 83  1  0  0  0
 76146  1  0  0  0
 76147  1  0  0  0
 77 78  1  0  0  0
 77 83  1  0  0  0
 77148  1  0  0  0
 77149  1  0  0  0
 78150  1  0  0  0
 79151  1  0  0  0
 79152  1  0  0  0
 79153  1  0  0  0
 80154  1  0  0  0
 80155  1  0  0  0
M  ISO  4   1 100  68 101  80 101  83 100
M  END
> <chiral flag>
0

> <version>
0

> <s_m_source_file>
/data/baiqing/PycharmProjects/Reinvent-master-3.2/result/LINK_invent/BTK/process_docking_weight1_custom_sum_contain_oxygen_bond_distance_aromatic_linkinvent_7_9_3/rearranged_h_0184.sdf

> <i_m_source_file_index>
87

> <r_mmod_Potential_Energy-OPLS-2005>
545.379577636719

> <r_mmod_Stretch_Energy-OPLS-2005>
314.719177246094

> <r_mmod_Bend_Energy-OPLS-2005>
368.094573974609

> <r_mmod_Torsional_Energy-OPLS-2005>
354.697967529297

> <r_mmod_Improper_Torsional_Energy-OPLS-2005>
26.0776882171631

> <r_mmod_Van_der_Waal_Energy-OPLS-2005>
128.790344238281

> <r_mmod_Electrostatic_Energy-OPLS-2005>
-684.157287597656

> <r_mmod_Solvation_Energy-OPLS-2005>
-223.667999267578

> <b_mmod_Minimization_Converged-OPLS-2005>
0

> <r_mmod_RMS_Derivative-OPLS-2005>
4.52059888839722

$$$$
87
                    3D
 Structure written by MMmdl.
158167  0  0  1  0            999 V2000
  -30.7537  -14.3809   20.6327 C   0  0  0  0  0  0
  -30.4128  -12.2772   19.4002 C   0  0  0  0  0  0
  -29.4847  -12.5176   18.1946 C   0  0  0  0  0  0
  -28.0082  -12.3787   18.6108 C   0  0  0  0  0  0
  -27.6659  -13.2028   19.8804 C   0  0  2  0  0  0
  -28.7058  -12.9536   20.9960 C   0  0  0  0  0  0
  -25.2609  -13.8158   20.5684 C   0  0  0  0  0  0
  -24.1849  -13.0441   20.9171 C   0  0  0  0  0  0
  -24.6394  -11.6906   20.8734 C   0  0  0  0  0  0
  -23.9061  -10.4293   21.0409 C   0  0  0  0  0  0
  -24.3614   -9.4210   21.9188 C   0  0  0  0  0  0
  -23.6294   -8.2242   22.0757 C   0  0  0  0  0  0
  -22.4277   -8.0281   21.3545 C   0  0  0  0  0  0
  -21.9913   -9.0252   20.4646 C   0  0  0  0  0  0
  -22.7237  -10.2135   20.3058 C   0  0  0  0  0  0
  -21.6848   -6.0738   22.5283 C   0  0  0  0  0  0
  -21.4012   -6.5645   23.8217 C   0  0  0  0  0  0
  -21.3655   -5.6794   24.9176 C   0  0  0  0  0  0
  -21.6045   -4.3059   24.7226 C   0  0  0  0  0  0
  -21.8816   -3.8150   23.4347 C   0  0  0  0  0  0
  -21.9192   -4.6969   22.3405 C   0  0  0  0  0  0
  -22.7872  -13.5243   21.1836 C   0  0  0  0  0  0
  -22.1658   -4.2155   21.0979 F   0  0  0  0  0  0
  -21.5631   -3.4541   25.7734 F   0  0  0  0  0  0
  -30.0457  -13.2366   20.4509 N   0  0  0  0  0  0
  -26.3048  -12.9322   20.3395 N   0  0  0  0  0  0
  -25.9320  -11.6482   20.5773 N   0  0  0  0  0  0
  -22.0507  -12.8233   22.0386 N   0  0  0  0  0  0
  -25.4351  -15.1874   20.4082 N   0  0  0  0  0  0
  -31.8293  -14.6085   20.0699 O   0  0  0  0  0  0
  -21.6639   -6.8880   21.4242 O   0  0  0  0  0  0
  -22.3562  -14.5557   20.6693 O   0  0  0  0  0  0
  -24.6106  -31.8703   23.2120 C   0  0  0  0  0  0
  -25.9013  -32.4836   23.8408 C   0  0  1  0  0  0
  -27.2392  -27.4737   20.0908 C   0  0  0  0  0  0
  -25.5886  -33.8635   24.2344 N   0  0  0  0  0  0
  -23.3973  -30.4922   21.5524 C   0  0  2  0  0  0
  -24.8454  -28.9599   20.1177 C   0  0  0  0  0  0
  -22.7387  -29.4667   22.5017 C   0  0  0  0  0  0
  -18.0267  -28.1375   22.8497 C   0  0  0  0  0  0
  -24.1487  -36.7320   23.2638 C   0  0  0  0  0  0
  -25.9212  -30.8479   21.3587 C   0  0  0  0  0  0
  -26.0023  -29.4840   20.7089 C   0  0  0  0  0  0
  -27.2054  -28.7481   20.6920 C   0  0  0  0  0  0
  -26.0700  -26.9524   19.4975 C   0  0  0  0  0  0
  -24.8717  -27.6912   19.5105 C   0  0  0  0  0  0
  -23.6040  -29.8208   20.1680 C   0  0  0  0  0  0
  -25.4106  -36.3121   24.0341 C   0  0  1  0  0  0
  -20.5850  -28.3654   23.1334 C   0  0  2  0  0  0
  -20.6756  -26.9396   22.5422 C   0  0  0  0  0  0
  -19.5739  -26.6387   21.5214 C   0  0  0  0  0  0
  -18.1913  -26.7926   22.1620 C   0  0  0  0  0  0
  -19.1515  -28.8833   23.2912 C   0  0  0  0  0  0
  -18.9445  -30.1440   23.8918 C   0  0  0  0  0  0
  -17.6448  -30.6583   24.0568 C   0  0  0  0  0  0
  -25.9026  -34.9485   23.5137 C   0  0  0  0  0  0
  -16.5338  -29.9085   23.6325 C   0  0  0  0  0  0
  -16.7256  -28.6501   23.0350 C   0  0  0  0  0  0
  -26.4460  -31.6598   25.0716 C   0  0  0  0  0  0
  -25.3743  -31.3675   26.1470 C   0  0  0  0  0  0
  -27.0289  -30.3054   24.6049 C   0  0  0  0  0  0
  -27.6041  -32.4309   25.7481 C   0  0  0  0  0  0
  -27.5583  -37.1813   24.8462 C   0  0  0  0  0  0
  -21.4120  -29.3028   22.3749 N   0  0  0  0  0  0
  -26.4294  -37.3801   23.9410 N   0  0  0  0  0  0
  -24.6612  -31.0830   22.1005 N   0  0  0  0  0  0
  -23.4175  -28.8207   23.3045 O   0  0  0  0  0  0
  -28.4067  -26.7558   20.0653 O   0  0  0  0  0  0
  -26.5592  -34.8929   22.4700 O   0  0  0  0  0  0
  -23.5309  -32.1439   23.7538 O   0  0  0  0  0  0
  -31.2092  -21.8128   21.0453 C   0  0  0  0  0  0
  -31.0105  -16.2309   22.2566 C   0  0  0  0  0  0
  -29.4639  -16.4383   20.9077 C   0  0  0  0  0  0
  -30.0329  -20.8913   21.3176 C   0  0  1  0  0  0
  -29.8716  -22.0896   20.4036 C   0  0  1  0  0  0
  -30.6966  -17.2853   21.2038 C   0  0  0  0  0  0
  -30.0197  -19.4907   20.7428 C   0  0  0  0  0  0
  -29.1669  -24.4587   20.2107 C   0  0  0  0  0  0
  -28.3951  -25.5952   20.8954 C   0  0  0  0  0  0
  -30.2002  -15.2882   21.4619 N   0  0  0  0  0  0
  -29.1318  -23.2153   21.0139 N   0  3  0  0  0  0
  -30.4344  -18.5717   21.7438 O   0  0  0  0  0  0
  -31.4580  -12.3635   19.0969 H   0  0  0  0  0  0
  -30.2969  -11.2579   19.7726 H   0  0  0  0  0  0
  -29.7151  -11.8135   17.3941 H   0  0  0  0  0  0
  -29.6605  -13.5137   17.7857 H   0  0  0  0  0  0
  -27.8120  -11.3212   18.7916 H   0  0  0  0  0  0
  -27.3557  -12.6703   17.7868 H   0  0  0  0  0  0
  -27.7206  -14.2552   19.6023 H   0  0  0  0  0  0
  -28.6663  -11.9150   21.3275 H   0  0  0  0  0  0
  -28.4684  -13.5475   21.8795 H   0  0  0  0  0  0
  -25.2754   -9.5689   22.4765 H   0  0  0  0  0  0
  -24.0003   -7.4640   22.7479 H   0  0  0  0  0  0
  -21.0842   -8.8766   19.8954 H   0  0  0  0  0  0
  -22.3688  -10.9673   19.6169 H   0  0  0  0  0  0
  -21.2004   -7.6152   23.9719 H   0  0  0  0  0  0
  -21.1480   -6.0526   25.9078 H   0  0  0  0  0  0
  -22.0600   -2.7616   23.2843 H   0  0  0  0  0  0
  -22.4109  -11.9882   22.4761 H   0  0  0  0  0  0
  -21.1129  -13.1265   22.2592 H   0  0  0  0  0  0
  -24.6742  -15.8484   20.5197 H   0  0  0  0  0  0
  -26.2964  -15.6226   20.1037 H   0  0  0  0  0  0
  -26.7091  -32.5569   23.1187 H   0  0  0  0  0  0
  -25.0049  -33.9808   25.0496 H   0  0  0  0  0  0
  -22.6836  -31.3069   21.4131 H   0  0  0  0  0  0
  -23.3751  -35.9650   23.3300 H   0  0  0  0  0  0
  -24.3584  -36.8935   22.2052 H   0  0  0  0  0  0
  -23.7234  -37.6523   23.6654 H   0  0  0  0  0  0
  -26.0239  -31.6134   20.5883 H   0  0  0  0  0  0
  -26.8127  -30.9065   21.9715 H   0  0  0  0  0  0
  -28.1023  -29.1511   21.1420 H   0  0  0  0  0  0
  -26.0874  -25.9823   19.0212 H   0  0  0  0  0  0
  -23.9821  -27.2828   19.0511 H   0  0  0  0  0  0
  -23.7053  -30.5932   19.4045 H   0  0  0  0  0  0
  -22.7304  -29.2344   19.8778 H   0  0  0  0  0  0
  -25.1282  -36.1993   25.0835 H   0  0  0  0  0  0
  -20.9943  -28.3217   24.1456 H   0  0  0  0  0  0
  -20.5661  -26.2259   23.3603 H   0  0  0  0  0  0
  -21.6628  -26.7447   22.1214 H   0  0  0  0  0  0
  -19.6898  -25.6305   21.1226 H   0  0  0  0  0  0
  -19.6680  -27.3209   20.6754 H   0  0  0  0  0  0
  -17.4190  -26.6691   21.4013 H   0  0  0  0  0  0
  -18.0301  -26.0055   22.9001 H   0  0  0  0  0  0
  -19.7919  -30.7254   24.2291 H   0  0  0  0  0  0
  -17.5002  -31.6267   24.5166 H   0  0  0  0  0  0
  -15.5338  -30.2997   23.7634 H   0  0  0  0  0  0
  -15.8655  -28.0826   22.7057 H   0  0  0  0  0  0
  -24.5920  -30.7020   25.7801 H   0  0  0  0  0  0
  -24.8929  -32.2820   26.4947 H   0  0  0  0  0  0
  -25.8112  -30.8824   27.0208 H   0  0  0  0  0  0
  -26.2816  -29.6816   24.1129 H   0  0  0  0  0  0
  -27.4114  -29.7280   25.4477 H   0  0  0  0  0  0
  -27.8625  -30.4396   23.9150 H   0  0  0  0  0  0
  -27.2665  -33.3599   26.2089 H   0  0  0  0  0  0
  -28.3836  -32.6882   25.0298 H   0  0  0  0  0  0
  -28.0722  -31.8412   26.5373 H   0  0  0  0  0  0
  -28.2597  -38.0117   24.7530 H   0  0  0  0  0  0
  -28.1090  -36.2652   24.6271 H   0  0  0  0  0  0
  -27.2306  -37.1436   25.8866 H   0  0  0  0  0  0
  -20.9272  -29.8756   21.6980 H   0  0  0  0  0  0
  -26.0189  -38.2880   24.1419 H   0  0  0  0  0  0
  -32.0034  -21.4401   20.4004 H   0  0  0  0  0  0
  -31.5450  -22.4517   21.8602 H   0  0  0  0  0  0
  -30.5884  -16.4467   23.2396 H   0  0  0  0  0  0
  -32.0746  -15.9973   22.3335 H   0  0  0  0  0  0
  -29.2264  -16.3816   19.8435 H   0  0  0  0  0  0
  -28.5826  -16.7121   21.4910 H   0  0  0  0  0  0
  -29.5654  -20.9643   22.2986 H   0  0  0  0  0  0
  -29.7130  -21.9305   19.3378 H   0  0  0  0  0  0
  -31.4293  -17.2891   20.3919 H   0  0  0  0  0  0
  -30.6757  -19.4524   19.8711 H   0  0  0  0  0  0
  -29.0105  -19.2474   20.4077 H   0  0  0  0  0  0
  -30.2020  -24.7599   20.0466 H   0  0  0  0  0  0
  -28.7307  -24.2621   19.2305 H   0  0  0  0  0  0
  -28.8627  -25.8523   21.8466 H   0  0  0  0  0  0
  -27.3811  -25.2634   21.1272 H   0  0  0  0  0  0
  -29.5017  -23.3983   21.9336 H   0  0  0  0  0  0
  -28.1690  -22.9368   21.1295 H   0  0  0  0  0  0
  1 25  1  0  0  0
  1 30  2  0  0  0
  1 80  1  0  0  0
  2  3  1  0  0  0
  2 25  1  0  0  0
  2 83  1  0  0  0
  2 84  1  0  0  0
  3  4  1  0  0  0
  3 85  1  0  0  0
  3 86  1  0  0  0
  4  5  1  0  0  0
  4 87  1  0  0  0
  4 88  1  0  0  0
  5  6  1  0  0  0
  5 26  1  0  0  0
  5 89  1  0  0  0
  6 25  1  0  0  0
  6 90  1  0  0  0
  6 91  1  0  0  0
  7  8  2  0  0  0
  7 26  1  0  0  0
  7 29  1  0  0  0
  8  9  1  0  0  0
  8 22  1  0  0  0
  9 10  1  0  0  0
  9 27  2  0  0  0
 10 11  2  0  0  0
 10 15  1  0  0  0
 11 12  1  0  0  0
 11 92  1  0  0  0
 12 13  2  0  0  0
 12 93  1  0  0  0
 13 14  1  0  0  0
 13 31  1  0  0  0
 14 15  2  0  0  0
 14 94  1  0  0  0
 15 95  1  0  0  0
 16 17  2  0  0  0
 16 21  1  0  0  0
 16 31  1  0  0  0
 17 18  1  0  0  0
 17 96  1  0  0  0
 18 19  2  0  0  0
 18 97  1  0  0  0
 19 20  1  0  0  0
 19 24  1  0  0  0
 20 21  2  0  0  0
 20 98  1  0  0  0
 21 23  1  0  0  0
 22 28  1  0  0  0
 22 32  2  0  0  0
 26 27  1  0  0  0
 28 99  1  0  0  0
 28100  1  0  0  0
 29101  1  0  0  0
 29102  1  0  0  0
 33 34  1  0  0  0
 33 66  1  0  0  0
 33 70  2  0  0  0
 34 36  1  0  0  0
 34 59  1  0  0  0
 34103  1  0  0  0
 35 44  2  0  0  0
 35 45  1  0  0  0
 35 68  1  0  0  0
 36 56  1  0  0  0
 36104  1  0  0  0
 37 39  1  0  0  0
 37 47  1  0  0  0
 37 66  1  0  0  0
 37105  1  0  0  0
 38 43  2  0  0  0
 38 46  1  0  0  0
 38 47  1  0  0  0
 39 64  1  0  0  0
 39 67  2  0  0  0
 40 52  1  0  0  0
 40 53  2  0  0  0
 40 58  1  0  0  0
 41106  1  0  0  0
 41107  1  0  0  0
 41108  1  0  0  0
 41 48  1  0  0  0
 42 43  1  0  0  0
 42 66  1  0  0  0
 42109  1  0  0  0
 42110  1  0  0  0
 43 44  1  0  0  0
 44111  1  0  0  0
 45 46  2  0  0  0
 45112  1  0  0  0
 46113  1  0  0  0
 47114  1  0  0  0
 47115  1  0  0  0
 48 56  1  0  0  0
 48 65  1  0  0  0
 48116  1  0  0  0
 49 50  1  0  0  0
 49 53  1  0  0  0
 49 64  1  0  0  0
 49117  1  0  0  0
 50 51  1  0  0  0
 50118  1  0  0  0
 50119  1  0  0  0
 51 52  1  0  0  0
 51120  1  0  0  0
 51121  1  0  0  0
 52122  1  0  0  0
 52123  1  0  0  0
 53 54  1  0  0  0
 54 55  2  0  0  0
 54124  1  0  0  0
 55 57  1  0  0  0
 55125  1  0  0  0
 56 69  2  0  0  0
 57 58  2  0  0  0
 57126  1  0  0  0
 58127  1  0  0  0
 59 60  1  0  0  0
 59 61  1  0  0  0
 59 62  1  0  0  0
 60128  1  0  0  0
 60129  1  0  0  0
 60130  1  0  0  0
 61131  1  0  0  0
 61132  1  0  0  0
 61133  1  0  0  0
 62134  1  0  0  0
 62135  1  0  0  0
 62136  1  0  0  0
 63 65  1  0  0  0
 63137  1  0  0  0
 63138  1  0  0  0
 63139  1  0  0  0
 64140  1  0  0  0
 65141  1  0  0  0
 68 79  1  0  0  0
 71 74  1  0  0  0
 71 75  1  0  0  0
 71142  1  0  0  0
 71143  1  0  0  0
 72 76  1  0  0  0
 72 80  1  0  0  0
 72144  1  0  0  0
 72145  1  0  0  0
 73 76  1  0  0  0
 73 80  1  0  0  0
 73146  1  0  0  0
 73147  1  0  0  0
 74 75  1  0  0  0
 74 77  1  0  0  0
 74148  1  0  0  0
 75 81  1  0  0  0
 75149  1  0  0  0
 76 82  1  0  0  0
 76150  1  0  0  0
 77 82  1  0  0  0
 77151  1  0  0  0
 77152  1  0  0  0
 78 79  1  0  0  0
 78 81  1  0  0  0
 78153  1  0  0  0
 78154  1  0  0  0
 79155  1  0  0  0
 79156  1  0  0  0
 81157  1  0  0  0
 81158  1  0  0  0
M  CHG  1  81   1
M  ISO  4   1 100  68 101  79 101  80 100
M  END
> <chiral flag>
0

> <version>
0

> <s_m_source_file>
/data/baiqing/PycharmProjects/Reinvent-master-3.2/result/LINK_invent/BTK/process_docking_weight1_custom_sum_contain_oxygen_bond_distance_aromatic_linkinvent_7_9_3/rearranged_h_0184.sdf

> <i_m_source_file_index>
88

> <r_mmod_Potential_Energy-OPLS-2005>
-113.311866760254

> <r_mmod_Stretch_Energy-OPLS-2005>
31.4778060913086

> <r_mmod_Bend_Energy-OPLS-2005>
97.0915222167969

> <r_mmod_Torsional_Energy-OPLS-2005>
325.838623046875

> <r_mmod_Improper_Torsional_Energy-OPLS-2005>
9.1999979019165

> <r_mmod_Van_der_Waal_Energy-OPLS-2005>
136.595245361328

> <r_mmod_Electrostatic_Energy-OPLS-2005>
-258.535980224609

> <r_mmod_Solvation_Energy-OPLS-2005>
-461.970520019531

> <b_mmod_Minimization_Converged-OPLS-2005>
0

> <r_mmod_RMS_Derivative-OPLS-2005>
0.712709188461304

$$$$
88
                    3D
 Structure written by MMmdl.
148157  0  0  1  0            999 V2000
  -30.5152  -15.1697   20.3810 C   0  0  0  0  0  0
  -30.4407  -12.7320   19.5410 C   0  0  0  0  0  0
  -29.5501  -12.5606   18.2881 C   0  0  0  0  0  0
  -28.0829  -12.3250   18.6885 C   0  0  0  0  0  0
  -27.6155  -13.2851   19.8137 C   0  0  2  0  0  0
  -28.6469  -13.4385   20.9503 C   0  0  0  0  0  0
  -25.2412  -13.8320   20.5725 C   0  0  0  0  0  0
  -24.1752  -13.0481   20.9226 C   0  0  0  0  0  0
  -24.6421  -11.6985   20.8707 C   0  0  0  0  0  0
  -23.9131  -10.4329   21.0373 C   0  0  0  0  0  0
  -24.3683   -9.4242   21.9138 C   0  0  0  0  0  0
  -23.6331   -8.2290   22.0727 C   0  0  0  0  0  0
  -22.4302   -8.0317   21.3540 C   0  0  0  0  0  0
  -21.9948   -9.0305   20.4651 C   0  0  0  0  0  0
  -22.7305  -10.2169   20.3029 C   0  0  0  0  0  0
  -21.6869   -6.0752   22.5265 C   0  0  0  0  0  0
  -21.4055   -6.5645   23.8206 C   0  0  0  0  0  0
  -21.3670   -5.6773   24.9154 C   0  0  0  0  0  0
  -21.6023   -4.3031   24.7189 C   0  0  0  0  0  0
  -21.8835   -3.8147   23.4311 C   0  0  0  0  0  0
  -21.9212   -4.6980   22.3373 C   0  0  0  0  0  0
  -22.7763  -13.5223   21.1884 C   0  0  0  0  0  0
  -22.1669   -4.2174   21.0935 F   0  0  0  0  0  0
  -21.5624   -3.4509   25.7697 F   0  0  0  0  0  0
  -29.9047  -13.8921   20.3341 N   0  0  0  0  0  0
  -26.2826  -12.9600   20.3126 N   0  0  0  0  0  0
  -25.9362  -11.6701   20.5644 N   0  0  0  0  0  0
  -22.0421  -12.8207   22.0460 N   0  0  0  0  0  0
  -25.4057  -15.2051   20.4263 N   0  0  0  0  0  0
  -31.7343  -15.1424   20.1719 O   0  0  0  0  0  0
  -21.6654   -6.8910   21.4242 O   0  0  0  0  0  0
  -22.3400  -14.5453   20.6646 O   0  0  0  0  0  0
  -24.6598  -31.8259   23.1759 C   0  0  0  0  0  0
  -25.9309  -32.4595   23.8198 C   0  0  1  0  0  0
  -27.2292  -26.9854   20.1790 C   0  0  0  0  0  0
  -25.5996  -33.8403   24.2117 N   0  0  0  0  0  0
  -23.4726  -30.4412   21.5236 C   0  0  2  0  0  0
  -24.9271  -28.8361   20.1154 C   0  0  0  0  0  0
  -22.7646  -29.4451   22.4807 C   0  0  0  0  0  0
  -18.0315  -28.1385   22.8470 C   0  0  0  0  0  0
  -24.1488  -36.7202   23.2657 C   0  0  0  0  0  0
  -26.0394  -30.6545   21.3985 C   0  0  0  0  0  0
  -26.1087  -29.2476   20.7442 C   0  0  0  0  0  0
  -27.2559  -28.3434   20.7514 C   0  0  0  0  0  0
  -26.0136  -26.7091   19.5134 C   0  0  0  0  0  0
  -24.9028  -27.5857   19.4795 C   0  0  0  0  0  0
  -23.7096  -29.7553   20.1484 C   0  0  0  0  0  0
  -25.4122  -36.2968   24.0325 C   0  0  1  0  0  0
  -20.5935  -28.3728   23.1195 C   0  0  2  0  0  0
  -20.6788  -26.9412   22.5402 C   0  0  0  0  0  0
  -19.5765  -26.6352   21.5213 C   0  0  0  0  0  0
  -18.1944  -26.7920   22.1625 C   0  0  0  0  0  0
  -19.1582  -28.8876   23.2813 C   0  0  0  0  0  0
  -18.9509  -30.1483   23.8817 C   0  0  0  0  0  0
  -17.6491  -30.6574   24.0546 C   0  0  0  0  0  0
  -25.9082  -34.9350   23.5025 C   0  0  0  0  0  0
  -16.5374  -29.9066   23.6331 C   0  0  0  0  0  0
  -16.7292  -28.6491   23.0339 C   0  0  0  0  0  0
  -26.4576  -31.6523   25.0700 C   0  0  0  0  0  0
  -25.3735  -31.3773   26.1390 C   0  0  0  0  0  0
  -27.0486  -30.2901   24.6408 C   0  0  0  0  0  0
  -27.6052  -32.4360   25.7504 C   0  0  0  0  0  0
  -27.5567  -37.1768   24.8465 C   0  0  0  0  0  0
  -21.4321  -29.3035   22.3563 N   0  0  0  0  0  0
  -26.4267  -37.3715   23.9433 N   0  0  0  0  0  0
  -24.7449  -30.9992   22.0858 N   0  0  0  0  0  0
  -23.4230  -28.8015   23.3022 O   0  0  0  0  0  0
  -28.2512  -25.9164   20.2328 O   0  0  0  0  0  0
  -26.5657  -34.8870   22.4602 O   0  0  0  0  0  0
  -23.5686  -32.1174   23.6902 O   0  0  0  0  0  0
  -31.0986  -22.1930   20.0709 C   0  0  0  0  0  0
  -29.5801  -20.5167   20.2641 C   0  0  0  0  0  0
  -28.9774  -22.9462   20.2146 C   0  0  0  0  0  0
  -30.0183  -17.6345   19.3855 C   0  0  0  0  0  0
  -29.8880  -17.6554   21.3586 C   0  0  0  0  0  0
  -29.3925  -18.7957   20.3203 C   0  0  0  0  0  0
  -27.9396  -24.3197   20.1977 C   0  0  0  0  0  0
  -30.8532  -20.8799   20.1525 N   0  0  0  0  0  0
  -30.2641  -23.2380   20.0935 N   0  0  0  0  0  0
  -28.6065  -21.5617   20.2992 N   0  0  0  0  0  0
  -29.8030  -16.4608   20.3728 N   0  0  0  0  0  0
  -31.4764  -12.8852   19.2346 H   0  0  0  0  0  0
  -30.4475  -11.8193   20.1382 H   0  0  0  0  0  0
  -29.9134  -11.7363   17.6716 H   0  0  0  0  0  0
  -29.6256  -13.4577   17.6724 H   0  0  0  0  0  0
  -27.9953  -11.2922   19.0251 H   0  0  0  0  0  0
  -27.4368  -12.4155   17.8163 H   0  0  0  0  0  0
  -27.5423  -14.2649   19.3385 H   0  0  0  0  0  0
  -28.7712  -12.5062   21.5028 H   0  0  0  0  0  0
  -28.3052  -14.1869   21.6645 H   0  0  0  0  0  0
  -25.2862   -9.5698   22.4665 H   0  0  0  0  0  0
  -24.0054   -7.4674   22.7419 H   0  0  0  0  0  0
  -21.0878   -8.8856   19.8947 H   0  0  0  0  0  0
  -22.3800  -10.9697   19.6105 H   0  0  0  0  0  0
  -21.2079   -7.6167   23.9744 H   0  0  0  0  0  0
  -21.1454   -6.0479   25.9067 H   0  0  0  0  0  0
  -22.0608   -2.7611   23.2775 H   0  0  0  0  0  0
  -22.4095  -11.9955   22.4930 H   0  0  0  0  0  0
  -21.1005  -13.1174   22.2590 H   0  0  0  0  0  0
  -24.6494  -15.8636   20.5812 H   0  0  0  0  0  0
  -26.2660  -15.6515   20.1315 H   0  0  0  0  0  0
  -26.7378  -32.5161   23.0916 H   0  0  0  0  0  0
  -25.0152  -33.9482   25.0288 H   0  0  0  0  0  0
  -22.7834  -31.2702   21.3515 H   0  0  0  0  0  0
  -23.3744  -35.9539   23.3279 H   0  0  0  0  0  0
  -24.3558  -36.8868   22.2068 H   0  0  0  0  0  0
  -23.7238  -37.6395   23.6707 H   0  0  0  0  0  0
  -26.2068  -31.4009   20.6205 H   0  0  0  0  0  0
  -26.9056  -30.7126   22.0455 H   0  0  0  0  0  0
  -28.1459  -28.6596   21.2741 H   0  0  0  0  0  0
  -25.8826  -25.7542   19.0269 H   0  0  0  0  0  0
  -24.0070  -27.2653   18.9670 H   0  0  0  0  0  0
  -23.8563  -30.5189   19.3847 H   0  0  0  0  0  0
  -22.8268  -29.1977   19.8336 H   0  0  0  0  0  0
  -25.1330  -36.1756   25.0823 H   0  0  0  0  0  0
  -21.0021  -28.3301   24.1327 H   0  0  0  0  0  0
  -20.5645  -26.2347   23.3642 H   0  0  0  0  0  0
  -21.6660  -26.7359   22.1242 H   0  0  0  0  0  0
  -19.6926  -25.6256   21.1260 H   0  0  0  0  0  0
  -19.6699  -27.3147   20.6722 H   0  0  0  0  0  0
  -17.4228  -26.6650   21.4009 H   0  0  0  0  0  0
  -18.0330  -26.0074   22.9026 H   0  0  0  0  0  0
  -19.7998  -30.7322   24.2126 H   0  0  0  0  0  0
  -17.5052  -31.6246   24.5180 H   0  0  0  0  0  0
  -15.5385  -30.2936   23.7710 H   0  0  0  0  0  0
  -15.8696  -28.0788   22.7064 H   0  0  0  0  0  0
  -24.5886  -30.7148   25.7726 H   0  0  0  0  0  0
  -24.8966  -32.2982   26.4752 H   0  0  0  0  0  0
  -25.8011  -30.8976   27.0200 H   0  0  0  0  0  0
  -26.3164  -29.6574   24.1374 H   0  0  0  0  0  0
  -27.3993  -29.7256   25.5055 H   0  0  0  0  0  0
  -27.9098  -30.4087   23.9829 H   0  0  0  0  0  0
  -27.2569  -33.3680   26.1964 H   0  0  0  0  0  0
  -28.3912  -32.6907   25.0385 H   0  0  0  0  0  0
  -28.0650  -31.8570   26.5519 H   0  0  0  0  0  0
  -28.2588  -38.0067   24.7522 H   0  0  0  0  0  0
  -28.1065  -36.2598   24.6275 H   0  0  0  0  0  0
  -27.2279  -37.1394   25.8869 H   0  0  0  0  0  0
  -20.9562  -29.8748   21.6724 H   0  0  0  0  0  0
  -26.0088  -38.2780   24.1442 H   0  0  0  0  0  0
  -32.1424  -22.4518   19.9653 H   0  0  0  0  0  0
  -31.0732  -17.8220   19.1672 H   0  0  0  0  0  0
  -29.4855  -17.5324   18.4419 H   0  0  0  0  0  0
  -30.9063  -17.8428   21.7105 H   0  0  0  0  0  0
  -29.2269  -17.5685   22.2195 H   0  0  0  0  0  0
  -28.3105  -18.6885   20.2511 H   0  0  0  0  0  0
  -27.2516  -24.1576   21.0300 H   0  0  0  0  0  0
  -27.3469  -24.1538   19.3008 H   0  0  0  0  0  0
  1 25  1  0  0  0
  1 30  2  0  0  0
  1 81  1  0  0  0
  2  3  1  0  0  0
  2 25  1  0  0  0
  2 82  1  0  0  0
  2 83  1  0  0  0
  3  4  1  0  0  0
  3 84  1  0  0  0
  3 85  1  0  0  0
  4  5  1  0  0  0
  4 86  1  0  0  0
  4 87  1  0  0  0
  5  6  1  0  0  0
  5 26  1  0  0  0
  5 88  1  0  0  0
  6 25  1  0  0  0
  6 89  1  0  0  0
  6 90  1  0  0  0
  7  8  2  0  0  0
  7 26  1  0  0  0
  7 29  1  0  0  0
  8  9  1  0  0  0
  8 22  1  0  0  0
  9 10  1  0  0  0
  9 27  2  0  0  0
 10 11  2  0  0  0
 10 15  1  0  0  0
 11 12  1  0  0  0
 11 91  1  0  0  0
 12 13  2  0  0  0
 12 92  1  0  0  0
 13 14  1  0  0  0
 13 31  1  0  0  0
 14 15  2  0  0  0
 14 93  1  0  0  0
 15 94  1  0  0  0
 16 17  2  0  0  0
 16 21  1  0  0  0
 16 31  1  0  0  0
 17 18  1  0  0  0
 17 95  1  0  0  0
 18 19  2  0  0  0
 18 96  1  0  0  0
 19 20  1  0  0  0
 19 24  1  0  0  0
 20 21  2  0  0  0
 20 97  1  0  0  0
 21 23  1  0  0  0
 22 28  1  0  0  0
 22 32  2  0  0  0
 26 27  1  0  0  0
 28 98  1  0  0  0
 28 99  1  0  0  0
 29100  1  0  0  0
 29101  1  0  0  0
 33 34  1  0  0  0
 33 66  1  0  0  0
 33 70  2  0  0  0
 34 36  1  0  0  0
 34 59  1  0  0  0
 34102  1  0  0  0
 35 44  2  0  0  0
 35 45  1  0  0  0
 35 68  1  0  0  0
 36 56  1  0  0  0
 36103  1  0  0  0
 37 39  1  0  0  0
 37 47  1  0  0  0
 37 66  1  0  0  0
 37104  1  0  0  0
 38 43  2  0  0  0
 38 46  1  0  0  0
 38 47  1  0  0  0
 39 64  1  0  0  0
 39 67  2  0  0  0
 40 52  1  0  0  0
 40 53  2  0  0  0
 40 58  1  0  0  0
 41105  1  0  0  0
 41106  1  0  0  0
 41107  1  0  0  0
 41 48  1  0  0  0
 42 43  1  0  0  0
 42 66  1  0  0  0
 42108  1  0  0  0
 42109  1  0  0  0
 43 44  1  0  0  0
 44110  1  0  0  0
 45 46  2  0  0  0
 45111  1  0  0  0
 46112  1  0  0  0
 47113  1  0  0  0
 47114  1  0  0  0
 48 56  1  0  0  0
 48 65  1  0  0  0
 48115  1  0  0  0
 49 50  1  0  0  0
 49 53  1  0  0  0
 49 64  1  0  0  0
 49116  1  0  0  0
 50 51  1  0  0  0
 50117  1  0  0  0
 50118  1  0  0  0
 51 52  1  0  0  0
 51119  1  0  0  0
 51120  1  0  0  0
 52121  1  0  0  0
 52122  1  0  0  0
 53 54  1  0  0  0
 54 55  2  0  0  0
 54123  1  0  0  0
 55 57  1  0  0  0
 55124  1  0  0  0
 56 69  2  0  0  0
 57 58  2  0  0  0
 57125  1  0  0  0
 58126  1  0  0  0
 59 60  1  0  0  0
 59 61  1  0  0  0
 59 62  1  0  0  0
 60127  1  0  0  0
 60128  1  0  0  0
 60129  1  0  0  0
 61130  1  0  0  0
 61131  1  0  0  0
 61132  1  0  0  0
 62133  1  0  0  0
 62134  1  0  0  0
 62135  1  0  0  0
 63 65  1  0  0  0
 63136  1  0  0  0
 63137  1  0  0  0
 63138  1  0  0  0
 64139  1  0  0  0
 65140  1  0  0  0
 68 77  1  0  0  0
 71 78  2  0  0  0
 71 79  1  0  0  0
 71141  1  0  0  0
 72 78  1  0  0  0
 72 80  2  0  0  0
 72 76  1  0  0  0
 73 77  1  0  0  0
 73 79  2  0  0  0
 73 80  1  0  0  0
 74 76  1  0  0  0
 74 81  1  0  0  0
 74142  1  0  0  0
 74143  1  0  0  0
 75 76  1  0  0  0
 75 81  1  0  0  0
 75144  1  0  0  0
 75145  1  0  0  0
 76146  1  0  0  0
 77147  1  0  0  0
 77148  1  0  0  0
M  ISO  4   1 100  68 101  77 101  81 100
M  END
> <chiral flag>
0

> <version>
0

> <s_m_source_file>
/data/baiqing/PycharmProjects/Reinvent-master-3.2/result/LINK_invent/BTK/process_docking_weight1_custom_sum_contain_oxygen_bond_distance_aromatic_linkinvent_7_9_3/rearranged_h_0184.sdf

> <i_m_source_file_index>
89

> <r_mmod_Potential_Energy-OPLS-2005>
415.752075195312

> <r_mmod_Stretch_Energy-OPLS-2005>
420.946624755859

> <r_mmod_Bend_Energy-OPLS-2005>
365.202453613281

> <r_mmod_Torsional_Energy-OPLS-2005>
249.875518798828

> <r_mmod_Improper_Torsional_Energy-OPLS-2005>
13.7780809402466

> <r_mmod_Van_der_Waal_Energy-OPLS-2005>
141.09001159668

> <r_mmod_Electrostatic_Energy-OPLS-2005>
-900.054626464844

> <r_mmod_Solvation_Energy-OPLS-2005>
-242.312149047852

> <b_mmod_Minimization_Converged-OPLS-2005>
0

> <r_mmod_RMS_Derivative-OPLS-2005>
4.79163503646851

$$$$
89
                    3D
 Structure written by MMmdl.
158166  0  0  1  0            999 V2000
  -30.6313  -14.6279   20.5120 C   0  0  0  0  0  0
  -30.4372  -12.3848   19.4533 C   0  0  0  0  0  0
  -29.5081  -12.5090   18.2250 C   0  0  0  0  0  0
  -28.0303  -12.3502   18.6355 C   0  0  0  0  0  0
  -27.6559  -13.2162   19.8677 C   0  0  2  0  0  0
  -28.6994  -13.0614   20.9975 C   0  0  0  0  0  0
  -25.2569  -13.8170   20.5686 C   0  0  0  0  0  0
  -24.1833  -13.0438   20.9190 C   0  0  0  0  0  0
  -24.6399  -11.6908   20.8739 C   0  0  0  0  0  0
  -23.9068  -10.4293   21.0407 C   0  0  0  0  0  0
  -24.3618   -9.4209   21.9183 C   0  0  0  0  0  0
  -23.6295   -8.2245   22.0751 C   0  0  0  0  0  0
  -22.4276   -8.0282   21.3544 C   0  0  0  0  0  0
  -21.9913   -9.0255   20.4644 C   0  0  0  0  0  0
  -22.7241  -10.2137   20.3054 C   0  0  0  0  0  0
  -21.6853   -6.0739   22.5280 C   0  0  0  0  0  0
  -21.4015   -6.5641   23.8214 C   0  0  0  0  0  0
  -21.3658   -5.6792   24.9175 C   0  0  0  0  0  0
  -21.6043   -4.3054   24.7224 C   0  0  0  0  0  0
  -21.8819   -3.8149   23.4344 C   0  0  0  0  0  0
  -21.9196   -4.6968   22.3401 C   0  0  0  0  0  0
  -22.7855  -13.5234   21.1857 C   0  0  0  0  0  0
  -22.1663   -4.2152   21.0979 F   0  0  0  0  0  0
  -21.5628   -3.4537   25.7738 F   0  0  0  0  0  0
  -30.0186  -13.4024   20.4394 N   0  0  0  0  0  0
  -26.3001  -12.9352   20.3335 N   0  0  0  0  0  0
  -25.9328  -11.6506   20.5760 N   0  0  0  0  0  0
  -22.0496  -12.8222   22.0408 N   0  0  0  0  0  0
  -25.4285  -15.1891   20.4102 N   0  0  0  0  0  0
  -31.7824  -14.7864   20.0898 O   0  0  0  0  0  0
  -21.6638   -6.8881   21.4241 O   0  0  0  0  0  0
  -22.3548  -14.5548   20.6713 O   0  0  0  0  0  0
  -24.6251  -31.8597   23.2030 C   0  0  0  0  0  0
  -25.9104  -32.4778   23.8351 C   0  0  1  0  0  0
  -27.2252  -27.3265   20.1149 C   0  0  0  0  0  0
  -25.5923  -33.8577   24.2278 N   0  0  0  0  0  0
  -23.4184  -30.4846   21.5437 C   0  0  2  0  0  0
  -24.8647  -28.9414   20.1095 C   0  0  0  0  0  0
  -22.7470  -29.4629   22.4916 C   0  0  0  0  0  0
  -18.0291  -28.1390   22.8477 C   0  0  0  0  0  0
  -24.1490  -36.7296   23.2640 C   0  0  0  0  0  0
  -25.9591  -30.7931   21.3728 C   0  0  0  0  0  0
  -26.0329  -29.4214   20.7146 C   0  0  0  0  0  0
  -27.2155  -28.6259   20.7081 C   0  0  0  0  0  0
  -26.0337  -26.8994   19.4827 C   0  0  0  0  0  0
  -24.8668  -27.6851   19.4857 C   0  0  0  0  0  0
  -23.6324  -29.8203   20.1588 C   0  0  0  0  0  0
  -25.4109  -36.3079   24.0332 C   0  0  1  0  0  0
  -20.5890  -28.3687   23.1271 C   0  0  2  0  0  0
  -20.6775  -26.9404   22.5402 C   0  0  0  0  0  0
  -19.5759  -26.6381   21.5200 C   0  0  0  0  0  0
  -18.1939  -26.7933   22.1615 C   0  0  0  0  0  0
  -19.1541  -28.8850   23.2877 C   0  0  0  0  0  0
  -18.9474  -30.1454   23.8889 C   0  0  0  0  0  0
  -17.6475  -30.6585   24.0562 C   0  0  0  0  0  0
  -25.9042  -34.9450   23.5102 C   0  0  0  0  0  0
  -16.5363  -29.9085   23.6334 C   0  0  0  0  0  0
  -16.7278  -28.6511   23.0336 C   0  0  0  0  0  0
  -26.4486  -31.6586   25.0719 C   0  0  0  0  0  0
  -25.3730  -31.3733   26.1457 C   0  0  0  0  0  0
  -27.0332  -30.3016   24.6165 C   0  0  0  0  0  0
  -27.6044  -32.4309   25.7500 C   0  0  0  0  0  0
  -27.5578  -37.1800   24.8462 C   0  0  0  0  0  0
  -21.4182  -29.3052   22.3674 N   0  0  0  0  0  0
  -26.4285  -37.3774   23.9412 N   0  0  0  0  0  0
  -24.6863  -31.0625   22.0969 N   0  0  0  0  0  0
  -23.4206  -28.8158   23.2979 O   0  0  0  0  0  0
  -28.3479  -26.4867   20.1730 O   0  0  0  0  0  0
  -26.5610  -34.8923   22.4670 O   0  0  0  0  0  0
  -23.5422  -32.1381   23.7368 O   0  0  0  0  0  0
  -29.1233  -17.8753   21.7116 C   0  0  0  0  0  0
  -30.6217  -19.1500   19.8391 C   0  0  0  0  0  0
  -29.1006  -19.3004   21.6723 C   0  0  0  0  0  0
  -29.8710  -19.9942   20.7014 C   0  0  0  0  0  0
  -29.9280  -17.1071   20.8318 C   0  0  0  0  0  0
  -28.2820  -20.0544   22.7050 C   0  0  0  0  0  0
  -29.6108  -24.3831   22.0325 C   0  0  0  0  0  0
  -30.0950  -21.5604   20.7009 C   0  0  0  0  0  0
  -28.1354  -25.0249   20.0516 C   0  0  0  0  0  0
  -29.2760  -24.0387   20.5637 C   0  0  2  0  0  0
  -30.6534  -17.7817   19.9000 N   0  0  0  0  0  0
  -29.8576  -15.6574   20.9766 N   0  0  0  0  0  0
  -28.9765  -22.5432   20.3944 N   0  3  0  0  0  0
  -31.4790  -12.5047   19.1509 H   0  0  0  0  0  0
  -30.3682  -11.3865   19.8880 H   0  0  0  0  0  0
  -29.7697  -11.7586   17.4779 H   0  0  0  0  0  0
  -29.6550  -13.4791   17.7474 H   0  0  0  0  0  0
  -27.8638  -11.2964   18.8617 H   0  0  0  0  0  0
  -27.3771  -12.5864   17.7946 H   0  0  0  0  0  0
  -27.6779  -14.2541   19.5343 H   0  0  0  0  0  0
  -28.7059  -12.0372   21.3733 H   0  0  0  0  0  0
  -28.4410  -13.6855   21.8542 H   0  0  0  0  0  0
  -25.2762   -9.5688   22.4757 H   0  0  0  0  0  0
  -24.0005   -7.4636   22.7467 H   0  0  0  0  0  0
  -21.0844   -8.8773   19.8947 H   0  0  0  0  0  0
  -22.3697  -10.9676   19.6163 H   0  0  0  0  0  0
  -21.2003   -7.6148   23.9720 H   0  0  0  0  0  0
  -21.1480   -6.0520   25.9079 H   0  0  0  0  0  0
  -22.0599   -2.7610   23.2843 H   0  0  0  0  0  0
  -22.4102  -11.9876   22.4787 H   0  0  0  0  0  0
  -21.1113  -13.1248   22.2612 H   0  0  0  0  0  0
  -24.6589  -15.8414   20.5126 H   0  0  0  0  0  0
  -26.2748  -15.6280   20.0709 H   0  0  0  0  0  0
  -26.7169  -32.5435   23.1097 H   0  0  0  0  0  0
  -25.0075  -33.9719   25.0427 H   0  0  0  0  0  0
  -22.7129  -31.3053   21.4007 H   0  0  0  0  0  0
  -23.3748  -35.9633   23.3296 H   0  0  0  0  0  0
  -24.3587  -36.8917   22.2055 H   0  0  0  0  0  0
  -23.7252  -37.6502   23.6658 H   0  0  0  0  0  0
  -26.0885  -31.5566   20.6045 H   0  0  0  0  0  0
  -26.8415  -30.8407   21.9995 H   0  0  0  0  0  0
  -28.1103  -28.9887   21.1935 H   0  0  0  0  0  0
  -25.9723  -25.9428   18.9851 H   0  0  0  0  0  0
  -23.9720  -27.3113   19.0063 H   0  0  0  0  0  0
  -23.7519  -30.5967   19.4026 H   0  0  0  0  0  0
  -22.7528  -29.2492   19.8550 H   0  0  0  0  0  0
  -25.1290  -36.1923   25.0823 H   0  0  0  0  0  0
  -20.9983  -28.3254   24.1390 H   0  0  0  0  0  0
  -20.5656  -26.2293   23.3604 H   0  0  0  0  0  0
  -21.6647  -26.7420   22.1206 H   0  0  0  0  0  0
  -19.6921  -25.6289   21.1232 H   0  0  0  0  0  0
  -19.6703  -27.3183   20.6728 H   0  0  0  0  0  0
  -17.4203  -26.6662   21.4026 H   0  0  0  0  0  0
  -18.0350  -26.0081   22.9018 H   0  0  0  0  0  0
  -19.7951  -30.7270   24.2245 H   0  0  0  0  0  0
  -17.5035  -31.6264   24.5164 H   0  0  0  0  0  0
  -15.5366  -30.2988   23.7671 H   0  0  0  0  0  0
  -15.8679  -28.0840   22.7040 H   0  0  0  0  0  0
  -24.5907  -30.7069   25.7810 H   0  0  0  0  0  0
  -24.8922  -32.2907   26.4865 H   0  0  0  0  0  0
  -25.8068  -30.8939   27.0245 H   0  0  0  0  0  0
  -26.2911  -29.6767   24.1186 H   0  0  0  0  0  0
  -27.4043  -29.7261   25.4658 H   0  0  0  0  0  0
  -27.8768  -30.4318   23.9384 H   0  0  0  0  0  0
  -27.2654  -33.3608   26.2080 H   0  0  0  0  0  0
  -28.3867  -32.6864   25.0340 H   0  0  0  0  0  0
  -28.0696  -31.8428   26.5424 H   0  0  0  0  0  0
  -28.2579  -38.0114   24.7514 H   0  0  0  0  0  0
  -28.1090  -36.2641   24.6268 H   0  0  0  0  0  0
  -27.2302  -37.1420   25.8868 H   0  0  0  0  0  0
  -20.9341  -29.8798   21.6915 H   0  0  0  0  0  0
  -26.0165  -38.2845   24.1424 H   0  0  0  0  0  0
  -28.5317  -17.3658   22.4609 H   0  0  0  0  0  0
  -31.2735  -19.5864   19.0963 H   0  0  0  0  0  0
  -27.8563  -19.3777   23.4462 H   0  0  0  0  0  0
  -27.4565  -20.5844   22.2307 H   0  0  0  0  0  0
  -28.9003  -20.7749   23.2407 H   0  0  0  0  0  0
  -29.7966  -25.4520   22.1467 H   0  0  0  0  0  0
  -30.5090  -23.8793   22.3879 H   0  0  0  0  0  0
  -28.7917  -24.1257   22.7055 H   0  0  0  0  0  0
  -30.9083  -21.7815   20.0079 H   0  0  0  0  0  0
  -30.5001  -21.7921   21.6846 H   0  0  0  0  0  0
  -27.2246  -24.7639   20.5936 H   0  0  0  0  0  0
  -27.9449  -24.8039   19.0005 H   0  0  0  0  0  0
  -30.1613  -24.2516   19.9623 H   0  0  0  0  0  0
  -29.0187  -15.3328   21.4287 H   0  0  0  0  0  0
  -28.1766  -22.3110   20.9601 H   0  0  0  0  0  0
  -28.7037  -22.3850   19.4357 H   0  0  0  0  0  0
  1 25  1  0  0  0
  1 30  2  0  0  0
  1 82  1  0  0  0
  2  3  1  0  0  0
  2 25  1  0  0  0
  2 84  1  0  0  0
  2 85  1  0  0  0
  3  4  1  0  0  0
  3 86  1  0  0  0
  3 87  1  0  0  0
  4  5  1  0  0  0
  4 88  1  0  0  0
  4 89  1  0  0  0
  5  6  1  0  0  0
  5 26  1  0  0  0
  5 90  1  0  0  0
  6 25  1  0  0  0
  6 91  1  0  0  0
  6 92  1  0  0  0
  7  8  2  0  0  0
  7 26  1  0  0  0
  7 29  1  0  0  0
  8  9  1  0  0  0
  8 22  1  0  0  0
  9 10  1  0  0  0
  9 27  2  0  0  0
 10 11  2  0  0  0
 10 15  1  0  0  0
 11 12  1  0  0  0
 11 93  1  0  0  0
 12 13  2  0  0  0
 12 94  1  0  0  0
 13 14  1  0  0  0
 13 31  1  0  0  0
 14 15  2  0  0  0
 14 95  1  0  0  0
 15 96  1  0  0  0
 16 17  2  0  0  0
 16 21  1  0  0  0
 16 31  1  0  0  0
 17 18  1  0  0  0
 17 97  1  0  0  0
 18 19  2  0  0  0
 18 98  1  0  0  0
 19 20  1  0  0  0
 19 24  1  0  0  0
 20 21  2  0  0  0
 20 99  1  0  0  0
 21 23  1  0  0  0
 22 28  1  0  0  0
 22 32  2  0  0  0
 26 27  1  0  0  0
 28100  1  0  0  0
 28101  1  0  0  0
 29102  1  0  0  0
 29103  1  0  0  0
 33 34  1  0  0  0
 33 66  1  0  0  0
 33 70  2  0  0  0
 34 36  1  0  0  0
 34 59  1  0  0  0
 34104  1  0  0  0
 35 44  2  0  0  0
 35 45  1  0  0  0
 35 68  1  0  0  0
 36 56  1  0  0  0
 36105  1  0  0  0
 37 39  1  0  0  0
 37 47  1  0  0  0
 37 66  1  0  0  0
 37106  1  0  0  0
 38 43  2  0  0  0
 38 46  1  0  0  0
 38 47  1  0  0  0
 39 64  1  0  0  0
 39 67  2  0  0  0
 40 52  1  0  0  0
 40 53  2  0  0  0
 40 58  1  0  0  0
 41107  1  0  0  0
 41108  1  0  0  0
 41109  1  0  0  0
 41 48  1  0  0  0
 42 43  1  0  0  0
 42 66  1  0  0  0
 42110  1  0  0  0
 42111  1  0  0  0
 43 44  1  0  0  0
 44112  1  0  0  0
 45 46  2  0  0  0
 45113  1  0  0  0
 46114  1  0  0  0
 47115  1  0  0  0
 47116  1  0  0  0
 48 56  1  0  0  0
 48 65  1  0  0  0
 48117  1  0  0  0
 49 50  1  0  0  0
 49 53  1  0  0  0
 49 64  1  0  0  0
 49118  1  0  0  0
 50 51  1  0  0  0
 50119  1  0  0  0
 50120  1  0  0  0
 51 52  1  0  0  0
 51121  1  0  0  0
 51122  1  0  0  0
 52123  1  0  0  0
 52124  1  0  0  0
 53 54  1  0  0  0
 54 55  2  0  0  0
 54125  1  0  0  0
 55 57  1  0  0  0
 55126  1  0  0  0
 56 69  2  0  0  0
 57 58  2  0  0  0
 57127  1  0  0  0
 58128  1  0  0  0
 59 60  1  0  0  0
 59 61  1  0  0  0
 59 62  1  0  0  0
 60129  1  0  0  0
 60130  1  0  0  0
 60131  1  0  0  0
 61132  1  0  0  0
 61133  1  0  0  0
 61134  1  0  0  0
 62135  1  0  0  0
 62136  1  0  0  0
 62137  1  0  0  0
 63 65  1  0  0  0
 63138  1  0  0  0
 63139  1  0  0  0
 63140  1  0  0  0
 64141  1  0  0  0
 65142  1  0  0  0
 68 79  1  0  0  0
 71 73  2  0  0  0
 71 75  1  0  0  0
 71143  1  0  0  0
 72 74  2  0  0  0
 72 81  1  0  0  0
 72144  1  0  0  0
 73 74  1  0  0  0
 73 76  1  0  0  0
 74 78  1  0  0  0
 75 81  2  0  0  0
 75 82  1  0  0  0
 76145  1  0  0  0
 76146  1  0  0  0
 76147  1  0  0  0
 77148  1  0  0  0
 77149  1  0  0  0
 77150  1  0  0  0
 77 80  1  0  0  0
 78 83  1  0  0  0
 78151  1  0  0  0
 78152  1  0  0  0
 79 80  1  0  0  0
 79153  1  0  0  0
 79154  1  0  0  0
 80 83  1  0  0  0
 80155  1  0  0  0
 82156  1  0  0  0
 83157  1  0  0  0
 83158  1  0  0  0
M  CHG  1  83   1
M  ISO  4   1 100  68 101  79 101  82 100
M  END
> <chiral flag>
0

> <version>
0

> <s_m_source_file>
/data/baiqing/PycharmProjects/Reinvent-master-3.2/result/LINK_invent/BTK/process_docking_weight1_custom_sum_contain_oxygen_bond_distance_aromatic_linkinvent_7_9_3/rearranged_h_0184.sdf

> <i_m_source_file_index>
90

> <r_mmod_Potential_Energy-OPLS-2005>
-192.486465454102

> <r_mmod_Stretch_Energy-OPLS-2005>
79.3576965332031

> <r_mmod_Bend_Energy-OPLS-2005>
139.850631713867

> <r_mmod_Torsional_Energy-OPLS-2005>
204.592254638672

> <r_mmod_Improper_Torsional_Energy-OPLS-2005>
4.18392848968506

> <r_mmod_Van_der_Waal_Energy-OPLS-2005>
145.185729980469

> <r_mmod_Electrostatic_Energy-OPLS-2005>
-324.936004638672

> <r_mmod_Solvation_Energy-OPLS-2005>
-484.956451416016

> <b_mmod_Minimization_Converged-OPLS-2005>
0

> <r_mmod_RMS_Derivative-OPLS-2005>
0.949036777019501

$$$$
90
                    3D
 Structure written by MMmdl.
160169  0  0  1  0            999 V2000
  -30.6470  -14.5957   20.5200 C   0  0  0  0  0  0
  -30.4330  -12.3707   19.4437 C   0  0  0  0  0  0
  -29.5039  -12.5045   18.2177 C   0  0  0  0  0  0
  -28.0267  -12.3447   18.6306 C   0  0  0  0  0  0
  -27.6529  -13.2131   19.8621 C   0  0  2  0  0  0
  -28.6972  -13.0596   20.9909 C   0  0  0  0  0  0
  -25.2563  -13.8162   20.5681 C   0  0  0  0  0  0
  -24.1830  -13.0431   20.9190 C   0  0  0  0  0  0
  -24.6389  -11.6902   20.8735 C   0  0  0  0  0  0
  -23.9054  -10.4288   21.0401 C   0  0  0  0  0  0
  -24.3614   -9.4209   21.9177 C   0  0  0  0  0  0
  -23.6293   -8.2240   22.0749 C   0  0  0  0  0  0
  -22.4271   -8.0274   21.3546 C   0  0  0  0  0  0
  -21.9905   -9.0245   20.4644 C   0  0  0  0  0  0
  -22.7228  -10.2127   20.3051 C   0  0  0  0  0  0
  -21.6851   -6.0729   22.5279 C   0  0  0  0  0  0
  -21.4006   -6.5636   23.8212 C   0  0  0  0  0  0
  -21.3662   -5.6790   24.9175 C   0  0  0  0  0  0
  -21.6046   -4.3050   24.7226 C   0  0  0  0  0  0
  -21.8820   -3.8142   23.4345 C   0  0  0  0  0  0
  -21.9196   -4.6958   22.3403 C   0  0  0  0  0  0
  -22.7857  -13.5230   21.1857 C   0  0  0  0  0  0
  -22.1664   -4.2145   21.0980 F   0  0  0  0  0  0
  -21.5638   -3.4534   25.7737 F   0  0  0  0  0  0
  -30.0146  -13.3876   20.4262 N   0  0  0  0  0  0
  -26.2985  -12.9339   20.3306 N   0  0  0  0  0  0
  -25.9315  -11.6497   20.5742 N   0  0  0  0  0  0
  -22.0498  -12.8225   22.0412 N   0  0  0  0  0  0
  -25.4275  -15.1882   20.4098 N   0  0  0  0  0  0
  -31.8087  -14.7566   20.1373 O   0  0  0  0  0  0
  -21.6640   -6.8869   21.4239 O   0  0  0  0  0  0
  -22.3550  -14.5543   20.6706 O   0  0  0  0  0  0
  -24.6216  -31.8614   23.2028 C   0  0  0  0  0  0
  -25.9080  -32.4787   23.8350 C   0  0  1  0  0  0
  -27.2311  -27.3559   20.1229 C   0  0  0  0  0  0
  -25.5914  -33.8586   24.2282 N   0  0  0  0  0  0
  -23.4143  -30.4826   21.5441 C   0  0  2  0  0  0
  -24.8618  -28.9339   20.1158 C   0  0  0  0  0  0
  -22.7451  -29.4629   22.4948 C   0  0  0  0  0  0
  -18.0281  -28.1383   22.8491 C   0  0  0  0  0  0
  -24.1486  -36.7290   23.2640 C   0  0  0  0  0  0
  -25.9496  -30.8049   21.3658 C   0  0  0  0  0  0
  -26.0267  -29.4329   20.7127 C   0  0  0  0  0  0
  -27.2171  -28.6564   20.7013 C   0  0  0  0  0  0
  -26.0474  -26.8877   19.5168 C   0  0  0  0  0  0
  -24.8714  -27.6654   19.5095 C   0  0  0  0  0  0
  -23.6269  -29.8104   20.1612 C   0  0  0  0  0  0
  -25.4111  -36.3085   24.0334 C   0  0  1  0  0  0
  -20.5880  -28.3676   23.1303 C   0  0  2  0  0  0
  -20.6770  -26.9402   22.5427 C   0  0  0  0  0  0
  -19.5752  -26.6382   21.5222 C   0  0  0  0  0  0
  -18.1923  -26.7934   22.1614 C   0  0  0  0  0  0
  -19.1535  -28.8845   23.2895 C   0  0  0  0  0  0
  -18.9456  -30.1450   23.8903 C   0  0  0  0  0  0
  -17.6456  -30.6585   24.0566 C   0  0  0  0  0  0
  -25.9047  -34.9457   23.5106 C   0  0  0  0  0  0
  -16.5351  -29.9084   23.6333 C   0  0  0  0  0  0
  -16.7271  -28.6505   23.0348 C   0  0  0  0  0  0
  -26.4481  -31.6592   25.0711 C   0  0  0  0  0  0
  -25.3724  -31.3734   26.1448 C   0  0  0  0  0  0
  -27.0308  -30.3017   24.6142 C   0  0  0  0  0  0
  -27.6051  -32.4318   25.7472 C   0  0  0  0  0  0
  -27.5587  -37.1789   24.8456 C   0  0  0  0  0  0
  -21.4169  -29.3030   22.3693 N   0  0  0  0  0  0
  -26.4284  -37.3785   23.9420 N   0  0  0  0  0  0
  -24.6804  -31.0660   22.0954 N   0  0  0  0  0  0
  -23.4194  -28.8174   23.3016 O   0  0  0  0  0  0
  -28.3773  -26.5665   20.1158 O   0  0  0  0  0  0
  -26.5615  -34.8924   22.4671 O   0  0  0  0  0  0
  -23.5392  -32.1390   23.7384 O   0  0  0  0  0  0
  -30.1734  -21.0206   18.7977 C   0  0  0  0  0  0
  -28.7325  -21.4639   20.5828 C   0  0  0  0  0  0
  -29.1495  -18.1495   21.2537 C   0  0  0  0  0  0
  -30.3890  -17.9237   19.6807 C   0  0  0  0  0  0
  -29.2549  -20.2535   19.7329 C   0  0  2  0  0  0
  -30.2622  -17.1058   20.9765 C   0  0  2  0  0  0
  -29.4880  -22.7544   20.0902 C   0  0  2  0  0  0
  -30.8281  -20.3055   17.6350 C   0  0  0  0  0  0
  -28.6960  -24.0470   19.5912 C   0  0  0  0  0  0
  -28.2921  -25.1843   20.6067 C   0  0  0  0  0  0
  -30.3115  -22.2706   18.9933 N   0  0  0  0  0  0
  -29.8729  -15.6600   20.8787 N   0  0  0  0  0  0
  -29.9563  -19.1174   20.4662 N   0  3  1  0  0  0
  -31.4761  -12.4873   19.1437 H   0  0  0  0  0  0
  -30.3573  -11.3720   19.8772 H   0  0  0  0  0  0
  -29.7658  -11.7615   17.4632 H   0  0  0  0  0  0
  -29.6496  -13.4792   17.7493 H   0  0  0  0  0  0
  -27.8614  -11.2908   18.8580 H   0  0  0  0  0  0
  -27.3715  -12.5783   17.7906 H   0  0  0  0  0  0
  -27.6737  -14.2493   19.5247 H   0  0  0  0  0  0
  -28.7003  -12.0380   21.3741 H   0  0  0  0  0  0
  -28.4485  -13.6953   21.8425 H   0  0  0  0  0  0
  -25.2760   -9.5689   22.4745 H   0  0  0  0  0  0
  -24.0010   -7.4629   22.7462 H   0  0  0  0  0  0
  -21.0836   -8.8749   19.8950 H   0  0  0  0  0  0
  -22.3678  -10.9659   19.6157 H   0  0  0  0  0  0
  -21.1982   -7.6141   23.9712 H   0  0  0  0  0  0
  -21.1492   -6.0518   25.9080 H   0  0  0  0  0  0
  -22.0598   -2.7601   23.2843 H   0  0  0  0  0  0
  -22.4108  -11.9881   22.4795 H   0  0  0  0  0  0
  -21.1115  -13.1253   22.2613 H   0  0  0  0  0  0
  -24.6541  -15.8371   20.5065 H   0  0  0  0  0  0
  -26.2669  -15.6253   20.0528 H   0  0  0  0  0  0
  -26.7148  -32.5467   23.1104 H   0  0  0  0  0  0
  -25.0070  -33.9740   25.0431 H   0  0  0  0  0  0
  -22.7070  -31.3018   21.3996 H   0  0  0  0  0  0
  -23.3763  -35.9607   23.3282 H   0  0  0  0  0  0
  -24.3580  -36.8926   22.2058 H   0  0  0  0  0  0
  -23.7218  -37.6478   23.6670 H   0  0  0  0  0  0
  -26.0748  -31.5689   20.5973 H   0  0  0  0  0  0
  -26.8325  -30.8556   21.9916 H   0  0  0  0  0  0
  -28.1181  -29.0393   21.1607 H   0  0  0  0  0  0
  -26.0331  -25.9139   19.0477 H   0  0  0  0  0  0
  -23.9775  -27.2769   19.0407 H   0  0  0  0  0  0
  -23.7418  -30.5832   19.4003 H   0  0  0  0  0  0
  -22.7492  -29.2338   19.8634 H   0  0  0  0  0  0
  -25.1289  -36.1931   25.0826 H   0  0  0  0  0  0
  -20.9979  -28.3245   24.1423 H   0  0  0  0  0  0
  -20.5663  -26.2282   23.3622 H   0  0  0  0  0  0
  -21.6639  -26.7426   22.1223 H   0  0  0  0  0  0
  -19.6909  -25.6292   21.1248 H   0  0  0  0  0  0
  -19.6707  -27.3198   20.6759 H   0  0  0  0  0  0
  -17.4208  -26.6711   21.3998 H   0  0  0  0  0  0
  -18.0294  -26.0068   22.8995 H   0  0  0  0  0  0
  -19.7929  -30.7270   24.2270 H   0  0  0  0  0  0
  -17.5009  -31.6267   24.5162 H   0  0  0  0  0  0
  -15.5349  -30.2985   23.7660 H   0  0  0  0  0  0
  -15.8673  -28.0834   22.7048 H   0  0  0  0  0  0
  -24.5925  -30.7043   25.7795 H   0  0  0  0  0  0
  -24.8885  -32.2898   26.4837 H   0  0  0  0  0  0
  -25.8064  -30.8960   27.0243 H   0  0  0  0  0  0
  -26.2866  -29.6778   24.1183 H   0  0  0  0  0  0
  -27.4027  -29.7264   25.4629 H   0  0  0  0  0  0
  -27.8725  -30.4300   23.9334 H   0  0  0  0  0  0
  -27.2672  -33.3616   26.2060 H   0  0  0  0  0  0
  -28.3861  -32.6879   25.0299 H   0  0  0  0  0  0
  -28.0726  -31.8438   26.5380 H   0  0  0  0  0  0
  -28.2585  -38.0107   24.7539 H   0  0  0  0  0  0
  -28.1101  -36.2644   24.6225 H   0  0  0  0  0  0
  -27.2316  -37.1362   25.8860 H   0  0  0  0  0  0
  -20.9332  -29.8744   21.6903 H   0  0  0  0  0  0
  -26.0167  -38.2850   24.1457 H   0  0  0  0  0  0
  -28.8895  -21.3051   21.6503 H   0  0  0  0  0  0
  -27.6576  -21.5795   20.4408 H   0  0  0  0  0  0
  -29.0351  -18.4297   22.3015 H   0  0  0  0  0  0
  -28.1845  -17.9147   20.7972 H   0  0  0  0  0  0
  -29.6838  -17.6297   18.8985 H   0  0  0  0  0  0
  -31.4081  -17.9826   19.2968 H   0  0  0  0  0  0
  -28.4341  -19.8394   19.1465 H   0  0  0  0  0  0
  -31.1253  -17.2555   21.6317 H   0  0  0  0  0  0
  -30.1608  -23.0763   20.8885 H   0  0  0  0  0  0
  -30.2079  -19.4803   17.2857 H   0  0  0  0  0  0
  -31.8063  -19.9217   17.9223 H   0  0  0  0  0  0
  -30.9661  -20.9908   16.7990 H   0  0  0  0  0  0
  -27.8236  -23.7502   19.0083 H   0  0  0  0  0  0
  -29.3450  -24.5490   18.8718 H   0  0  0  0  0  0
  -28.9740  -25.1368   21.4555 H   0  0  0  0  0  0
  -27.3086  -24.9676   21.0268 H   0  0  0  0  0  0
  -28.9279  -15.4269   21.1463 H   0  0  0  0  0  0
  -30.7304  -19.4634   21.0135 H   0  0  0  0  0  0
  1 25  1  0  0  0
  1 30  2  0  0  0
  1 82  1  0  0  0
  2  3  1  0  0  0
  2 25  1  0  0  0
  2 84  1  0  0  0
  2 85  1  0  0  0
  3  4  1  0  0  0
  3 86  1  0  0  0
  3 87  1  0  0  0
  4  5  1  0  0  0
  4 88  1  0  0  0
  4 89  1  0  0  0
  5  6  1  0  0  0
  5 26  1  0  0  0
  5 90  1  0  0  0
  6 25  1  0  0  0
  6 91  1  0  0  0
  6 92  1  0  0  0
  7  8  2  0  0  0
  7 26  1  0  0  0
  7 29  1  0  0  0
  8  9  1  0  0  0
  8 22  1  0  0  0
  9 10  1  0  0  0
  9 27  2  0  0  0
 10 11  2  0  0  0
 10 15  1  0  0  0
 11 12  1  0  0  0
 11 93  1  0  0  0
 12 13  2  0  0  0
 12 94  1  0  0  0
 13 14  1  0  0  0
 13 31  1  0  0  0
 14 15  2  0  0  0
 14 95  1  0  0  0
 15 96  1  0  0  0
 16 17  2  0  0  0
 16 21  1  0  0  0
 16 31  1  0  0  0
 17 18  1  0  0  0
 17 97  1  0  0  0
 18 19  2  0  0  0
 18 98  1  0  0  0
 19 20  1  0  0  0
 19 24  1  0  0  0
 20 21  2  0  0  0
 20 99  1  0  0  0
 21 23  1  0  0  0
 22 28  1  0  0  0
 22 32  2  0  0  0
 26 27  1  0  0  0
 28100  1  0  0  0
 28101  1  0  0  0
 29102  1  0  0  0
 29103  1  0  0  0
 33 34  1  0  0  0
 33 66  1  0  0  0
 33 70  2  0  0  0
 34 36  1  0  0  0
 34 59  1  0  0  0
 34104  1  0  0  0
 35 44  2  0  0  0
 35 45  1  0  0  0
 35 68  1  0  0  0
 36 56  1  0  0  0
 36105  1  0  0  0
 37 39  1  0  0  0
 37 47  1  0  0  0
 37 66  1  0  0  0
 37106  1  0  0  0
 38 43  2  0  0  0
 38 46  1  0  0  0
 38 47  1  0  0  0
 39 64  1  0  0  0
 39 67  2  0  0  0
 40 52  1  0  0  0
 40 53  2  0  0  0
 40 58  1  0  0  0
 41107  1  0  0  0
 41108  1  0  0  0
 41109  1  0  0  0
 41 48  1  0  0  0
 42 43  1  0  0  0
 42 66  1  0  0  0
 42110  1  0  0  0
 42111  1  0  0  0
 43 44  1  0  0  0
 44112  1  0  0  0
 45 46  2  0  0  0
 45113  1  0  0  0
 46114  1  0  0  0
 47115  1  0  0  0
 47116  1  0  0  0
 48 56  1  0  0  0
 48 65  1  0  0  0
 48117  1  0  0  0
 49 50  1  0  0  0
 49 53  1  0  0  0
 49 64  1  0  0  0
 49118  1  0  0  0
 50 51  1  0  0  0
 50119  1  0  0  0
 50120  1  0  0  0
 51 52  1  0  0  0
 51121  1  0  0  0
 51122  1  0  0  0
 52123  1  0  0  0
 52124  1  0  0  0
 53 54  1  0  0  0
 54 55  2  0  0  0
 54125  1  0  0  0
 55 57  1  0  0  0
 55126  1  0  0  0
 56 69  2  0  0  0
 57 58  2  0  0  0
 57127  1  0  0  0
 58128  1  0  0  0
 59 60  1  0  0  0
 59 61  1  0  0  0
 59 62  1  0  0  0
 60129  1  0  0  0
 60130  1  0  0  0
 60131  1  0  0  0
 61132  1  0  0  0
 61133  1  0  0  0
 61134  1  0  0  0
 62135  1  0  0  0
 62136  1  0  0  0
 62137  1  0  0  0
 63 65  1  0  0  0
 63138  1  0  0  0
 63139  1  0  0  0
 63140  1  0  0  0
 64141  1  0  0  0
 65142  1  0  0  0
 68 80  1  0  0  0
 71 75  1  0  0  0
 71 78  1  0  0  0
 71 81  2  0  0  0
 72 77  1  0  0  0
 72143  1  0  0  0
 72144  1  0  0  0
 72 75  1  0  0  0
 73 76  1  0  0  0
 73145  1  0  0  0
 73146  1  0  0  0
 73 83  1  0  0  0
 74 76  1  0  0  0
 74 83  1  0  0  0
 74147  1  0  0  0
 74148  1  0  0  0
 75 83  1  0  0  0
 75149  1  0  0  0
 76 82  1  0  0  0
 76150  1  0  0  0
 77 79  1  0  0  0
 77 81  1  0  0  0
 77151  1  0  0  0
 78152  1  0  0  0
 78153  1  0  0  0
 78154  1  0  0  0
 79 80  1  0  0  0
 79155  1  0  0  0
 79156  1  0  0  0
 80157  1  0  0  0
 80158  1  0  0  0
 82159  1  0  0  0
 83160  1  0  0  0
M  CHG  1  83   1
M  ISO  4   1 100  68 101  80 101  82 100
M  END
> <chiral flag>
0

> <version>
0

> <s_m_source_file>
/data/baiqing/PycharmProjects/Reinvent-master-3.2/result/LINK_invent/BTK/process_docking_weight1_custom_sum_contain_oxygen_bond_distance_aromatic_linkinvent_7_9_3/rearranged_h_0184.sdf

> <i_m_source_file_index>
91

> <r_mmod_Potential_Energy-OPLS-2005>
-97.7207336425781

> <r_mmod_Stretch_Energy-OPLS-2005>
65.7624664306641

> <r_mmod_Bend_Energy-OPLS-2005>
180.955062866211

> <r_mmod_Torsional_Energy-OPLS-2005>
293.688537597656

> <r_mmod_Improper_Torsional_Energy-OPLS-2005>
4.50637626647949

> <r_mmod_Van_der_Waal_Energy-OPLS-2005>
119.539680480957

> <r_mmod_Electrostatic_Energy-OPLS-2005>
-303.475799560547

> <r_mmod_Solvation_Energy-OPLS-2005>
-492.045043945312

> <b_mmod_Minimization_Converged-OPLS-2005>
0

> <r_mmod_RMS_Derivative-OPLS-2005>
0.837165236473083

$$$$
91
                    3D
 Structure written by MMmdl.
163172  0  0  1  0            999 V2000
  -30.4985  -15.0764   20.3328 C   0  0  0  0  0  0
  -30.4301  -12.6656   19.4855 C   0  0  0  0  0  0
  -29.5216  -12.5145   18.2471 C   0  0  0  0  0  0
  -28.0585  -12.2911   18.6819 C   0  0  0  0  0  0
  -27.6155  -13.2606   19.8115 C   0  0  2  0  0  0
  -28.6589  -13.3717   20.9395 C   0  0  0  0  0  0
  -25.2425  -13.8244   20.5743 C   0  0  0  0  0  0
  -24.1742  -13.0453   20.9212 C   0  0  0  0  0  0
  -24.6357  -11.6940   20.8720 C   0  0  0  0  0  0
  -23.9059  -10.4300   21.0407 C   0  0  0  0  0  0
  -24.3618   -9.4201   21.9178 C   0  0  0  0  0  0
  -23.6284   -8.2239   22.0767 C   0  0  0  0  0  0
  -22.4266   -8.0278   21.3554 C   0  0  0  0  0  0
  -21.9899   -9.0254   20.4667 C   0  0  0  0  0  0
  -22.7232  -10.2122   20.3053 C   0  0  0  0  0  0
  -21.6862   -6.0708   22.5266 C   0  0  0  0  0  0
  -21.4044   -6.5609   23.8201 C   0  0  0  0  0  0
  -21.3677   -5.6749   24.9153 C   0  0  0  0  0  0
  -21.6035   -4.3010   24.7216 C   0  0  0  0  0  0
  -21.8817   -3.8126   23.4326 C   0  0  0  0  0  0
  -21.9196   -4.6942   22.3384 C   0  0  0  0  0  0
  -22.7750  -13.5213   21.1841 C   0  0  0  0  0  0
  -22.1653   -4.2108   21.0975 F   0  0  0  0  0  0
  -21.5635   -3.4514   25.7747 F   0  0  0  0  0  0
  -29.9079  -13.8049   20.3026 N   0  0  0  0  0  0
  -26.2824  -12.9495   20.3169 N   0  0  0  0  0  0
  -25.9291  -11.6615   20.5664 N   0  0  0  0  0  0
  -22.0368  -12.8258   22.0410 N   0  0  0  0  0  0
  -25.4083  -15.1980   20.4282 N   0  0  0  0  0  0
  -31.7229  -15.0863   20.1428 O   0  0  0  0  0  0
  -21.6643   -6.8862   21.4230 O   0  0  0  0  0  0
  -22.3454  -14.5504   20.6653 O   0  0  0  0  0  0
  -24.6516  -31.8367   23.1813 C   0  0  0  0  0  0
  -25.9228  -32.4682   23.8267 C   0  0  1  0  0  0
  -27.2194  -27.0617   20.1639 C   0  0  0  0  0  0
  -25.5965  -33.8498   24.2187 N   0  0  0  0  0  0
  -23.4615  -30.4543   21.5239 C   0  0  2  0  0  0
  -24.9148  -28.8662   20.1058 C   0  0  0  0  0  0
  -22.7628  -29.4500   22.4758 C   0  0  0  0  0  0
  -18.0321  -28.1399   22.8427 C   0  0  0  0  0  0
  -24.1491  -36.7252   23.2638 C   0  0  0  0  0  0
  -26.0212  -30.6871   21.3918 C   0  0  0  0  0  0
  -26.0909  -29.2894   20.7390 C   0  0  0  0  0  0
  -27.2396  -28.4010   20.7486 C   0  0  0  0  0  0
  -26.0207  -26.7634   19.4771 C   0  0  0  0  0  0
  -24.8978  -27.6237   19.4562 C   0  0  0  0  0  0
  -23.6993  -29.7836   20.1431 C   0  0  0  0  0  0
  -25.4117  -36.3036   24.0318 C   0  0  1  0  0  0
  -20.5937  -28.3742   23.1184 C   0  0  2  0  0  0
  -20.6793  -26.9426   22.5389 C   0  0  0  0  0  0
  -19.5782  -26.6367   21.5185 C   0  0  0  0  0  0
  -18.1963  -26.7925   22.1591 C   0  0  0  0  0  0
  -19.1575  -28.8882   23.2806 C   0  0  0  0  0  0
  -18.9485  -30.1458   23.8871 C   0  0  0  0  0  0
  -17.6479  -30.6586   24.0549 C   0  0  0  0  0  0
  -25.9078  -34.9403   23.5069 C   0  0  0  0  0  0
  -16.5371  -29.9081   23.6319 C   0  0  0  0  0  0
  -16.7303  -28.6506   23.0324 C   0  0  0  0  0  0
  -26.4522  -31.6567   25.0730 C   0  0  0  0  0  0
  -25.3701  -31.3730   26.1425 C   0  0  0  0  0  0
  -27.0388  -30.2973   24.6327 C   0  0  0  0  0  0
  -27.6088  -32.4281   25.7511 C   0  0  0  0  0  0
  -27.5587  -37.1765   24.8441 C   0  0  0  0  0  0
  -21.4302  -29.3065   22.3563 N   0  0  0  0  0  0
  -26.4272  -37.3760   23.9431 N   0  0  0  0  0  0
  -24.7310  -31.0158   22.0890 N   0  0  0  0  0  0
  -23.4209  -28.8041   23.2930 O   0  0  0  0  0  0
  -28.2521  -26.0355   20.2584 O   0  0  0  0  0  0
  -26.5651  -34.8895   22.4633 O   0  0  0  0  0  0
  -23.5598  -32.1267   23.6995 O   0  0  0  0  0  0
  -30.6323  -22.1896   16.5184 C   0  0  0  0  0  0
  -30.2434  -23.4984   17.1551 C   0  0  0  0  0  0
  -29.6594  -17.4516   21.2759 C   0  0  0  0  0  0
  -29.9848  -17.5024   19.3070 C   0  0  0  0  0  0
  -30.1941  -22.2177   17.9637 C   0  0  0  0  0  0
  -29.2593  -18.6012   20.2253 C   0  0  0  0  0  0
  -28.8223  -23.0548   22.0571 C   0  0  0  0  0  0
  -28.8473  -21.6576   18.4365 C   0  0  0  0  0  0
  -29.6081  -20.2928   20.4279 C   0  0  0  0  0  0
  -28.0273  -24.4823   19.9882 C   0  0  0  0  0  0
  -28.9264  -23.0995   20.5210 C   0  0  2  0  0  0
  -29.7381  -16.3179   20.2576 N   0  0  0  0  0  0
  -28.7659  -21.5878   19.9221 N   0  3  1  0  0  0
  -31.4591  -12.8249   19.1656 H   0  0  0  0  0  0
  -30.4421  -11.7444   20.0694 H   0  0  0  0  0  0
  -29.8623  -11.6775   17.6332 H   0  0  0  0  0  0
  -29.5967  -13.4040   17.6166 H   0  0  0  0  0  0
  -27.9815  -11.2650   19.0450 H   0  0  0  0  0  0
  -27.3921  -12.3610   17.8243 H   0  0  0  0  0  0
  -27.5504  -14.2434   19.3394 H   0  0  0  0  0  0
  -28.7754  -12.4252   21.4722 H   0  0  0  0  0  0
  -28.3438  -14.1138   21.6732 H   0  0  0  0  0  0
  -25.2762   -9.5683   22.4735 H   0  0  0  0  0  0
  -23.9986   -7.4632   22.7512 H   0  0  0  0  0  0
  -21.0804   -8.8790   19.8995 H   0  0  0  0  0  0
  -22.3704  -10.9653   19.6151 H   0  0  0  0  0  0
  -21.2049   -7.6119   23.9690 H   0  0  0  0  0  0
  -21.1506   -6.0481   25.9037 H   0  0  0  0  0  0
  -22.0589   -2.7584   23.2829 H   0  0  0  0  0  0
  -22.4014  -12.0003   22.4927 H   0  0  0  0  0  0
  -21.0976  -13.1341   22.2562 H   0  0  0  0  0  0
  -24.6493  -15.8537   20.5767 H   0  0  0  0  0  0
  -26.2697  -15.6470   20.1451 H   0  0  0  0  0  0
  -26.7302  -32.5265   23.1001 H   0  0  0  0  0  0
  -25.0118  -33.9603   25.0345 H   0  0  0  0  0  0
  -22.7695  -31.2833   21.3651 H   0  0  0  0  0  0
  -23.3782  -35.9553   23.3239 H   0  0  0  0  0  0
  -24.3610  -36.8946   22.2071 H   0  0  0  0  0  0
  -23.7206  -37.6412   23.6710 H   0  0  0  0  0  0
  -26.1789  -31.4358   20.6126 H   0  0  0  0  0  0
  -26.8920  -30.7496   22.0341 H   0  0  0  0  0  0
  -28.1301  -28.7177   21.2732 H   0  0  0  0  0  0
  -25.9222  -25.8173   18.9676 H   0  0  0  0  0  0
  -24.0061  -27.3086   18.9302 H   0  0  0  0  0  0
  -23.8523  -30.5610   19.3933 H   0  0  0  0  0  0
  -22.8129  -29.2359   19.8185 H   0  0  0  0  0  0
  -25.1295  -36.1856   25.0813 H   0  0  0  0  0  0
  -21.0031  -28.3337   24.1292 H   0  0  0  0  0  0
  -20.5640  -26.2357   23.3612 H   0  0  0  0  0  0
  -21.6667  -26.7372   22.1230 H   0  0  0  0  0  0
  -19.6943  -25.6261   21.1253 H   0  0  0  0  0  0
  -19.6743  -27.3133   20.6677 H   0  0  0  0  0  0
  -17.4222  -26.6618   21.4009 H   0  0  0  0  0  0
  -18.0395  -26.0099   22.9028 H   0  0  0  0  0  0
  -19.7970  -30.7267   24.2245 H   0  0  0  0  0  0
  -17.5046  -31.6262   24.5169 H   0  0  0  0  0  0
  -15.5373  -30.2977   23.7681 H   0  0  0  0  0  0
  -15.8697  -28.0844   22.7020 H   0  0  0  0  0  0
  -24.5907  -30.7054   25.7731 H   0  0  0  0  0  0
  -24.8846  -32.2881   26.4824 H   0  0  0  0  0  0
  -25.7992  -30.8923   27.0232 H   0  0  0  0  0  0
  -26.2993  -29.6680   24.1369 H   0  0  0  0  0  0
  -27.4040  -29.7304   25.4904 H   0  0  0  0  0  0
  -27.8892  -30.4236   23.9627 H   0  0  0  0  0  0
  -27.2759  -33.3614   26.2063 H   0  0  0  0  0  0
  -28.3927  -32.6766   25.0340 H   0  0  0  0  0  0
  -28.0725  -31.8395   26.5441 H   0  0  0  0  0  0
  -28.2518  -38.0147   24.7609 H   0  0  0  0  0  0
  -28.1163  -36.2683   24.6099 H   0  0  0  0  0  0
  -27.2328  -37.1212   25.8844 H   0  0  0  0  0  0
  -20.9522  -29.8826   21.6792 H   0  0  0  0  0  0
  -26.0127  -38.2807   24.1521 H   0  0  0  0  0  0
  -31.6923  -22.0285   16.3237 H   0  0  0  0  0  0
  -29.9525  -21.7510   15.7903 H   0  0  0  0  0  0
  -29.3096  -23.9425   16.8236 H   0  0  0  0  0  0
  -31.0296  -24.2091   17.4120 H   0  0  0  0  0  0
  -28.8854  -17.3090   22.0333 H   0  0  0  0  0  0
  -30.6122  -17.6473   21.7681 H   0  0  0  0  0  0
  -31.0408  -17.7086   19.1270 H   0  0  0  0  0  0
  -29.4826  -17.3947   18.3424 H   0  0  0  0  0  0
  -31.0168  -22.0599   18.6571 H   0  0  0  0  0  0
  -28.1882  -18.4993   20.0402 H   0  0  0  0  0  0
  -28.8973  -24.0576   22.4838 H   0  0  0  0  0  0
  -29.6233  -22.4667   22.5059 H   0  0  0  0  0  0
  -27.8682  -22.6347   22.3778 H   0  0  0  0  0  0
  -28.6868  -20.6716   18.0016 H   0  0  0  0  0  0
  -28.0425  -22.2856   18.0537 H   0  0  0  0  0  0
  -30.6192  -20.4411   20.0557 H   0  0  0  0  0  0
  -29.7286  -20.4475   21.4980 H   0  0  0  0  0  0
  -27.0033  -24.2741   20.2953 H   0  0  0  0  0  0
  -28.0079  -24.4258   18.9017 H   0  0  0  0  0  0
  -29.9627  -23.3677   20.3197 H   0  0  0  0  0  0
  -27.8091  -21.3329   20.1267 H   0  0  0  0  0  0
  1 25  1  0  0  0
  1 30  2  0  0  0
  1 82  1  0  0  0
  2  3  1  0  0  0
  2 25  1  0  0  0
  2 84  1  0  0  0
  2 85  1  0  0  0
  3  4  1  0  0  0
  3 86  1  0  0  0
  3 87  1  0  0  0
  4  5  1  0  0  0
  4 88  1  0  0  0
  4 89  1  0  0  0
  5  6  1  0  0  0
  5 26  1  0  0  0
  5 90  1  0  0  0
  6 25  1  0  0  0
  6 91  1  0  0  0
  6 92  1  0  0  0
  7  8  2  0  0  0
  7 26  1  0  0  0
  7 29  1  0  0  0
  8  9  1  0  0  0
  8 22  1  0  0  0
  9 10  1  0  0  0
  9 27  2  0  0  0
 10 11  2  0  0  0
 10 15  1  0  0  0
 11 12  1  0  0  0
 11 93  1  0  0  0
 12 13  2  0  0  0
 12 94  1  0  0  0
 13 14  1  0  0  0
 13 31  1  0  0  0
 14 15  2  0  0  0
 14 95  1  0  0  0
 15 96  1  0  0  0
 16 17  2  0  0  0
 16 21  1  0  0  0
 16 31  1  0  0  0
 17 18  1  0  0  0
 17 97  1  0  0  0
 18 19  2  0  0  0
 18 98  1  0  0  0
 19 20  1  0  0  0
 19 24  1  0  0  0
 20 21  2  0  0  0
 20 99  1  0  0  0
 21 23  1  0  0  0
 22 28  1  0  0  0
 22 32  2  0  0  0
 26 27  1  0  0  0
 28100  1  0  0  0
 28101  1  0  0  0
 29102  1  0  0  0
 29103  1  0  0  0
 33 34  1  0  0  0
 33 66  1  0  0  0
 33 70  2  0  0  0
 34 36  1  0  0  0
 34 59  1  0  0  0
 34104  1  0  0  0
 35 44  2  0  0  0
 35 45  1  0  0  0
 35 68  1  0  0  0
 36 56  1  0  0  0
 36105  1  0  0  0
 37 39  1  0  0  0
 37 47  1  0  0  0
 37 66  1  0  0  0
 37106  1  0  0  0
 38 43  2  0  0  0
 38 46  1  0  0  0
 38 47  1  0  0  0
 39 64  1  0  0  0
 39 67  2  0  0  0
 40 52  1  0  0  0
 40 53  2  0  0  0
 40 58  1  0  0  0
 41107  1  0  0  0
 41108  1  0  0  0
 41109  1  0  0  0
 41 48  1  0  0  0
 42 43  1  0  0  0
 42 66  1  0  0  0
 42110  1  0  0  0
 42111  1  0  0  0
 43 44  1  0  0  0
 44112  1  0  0  0
 45 46  2  0  0  0
 45113  1  0  0  0
 46114  1  0  0  0
 47115  1  0  0  0
 47116  1  0  0  0
 48 56  1  0  0  0
 48 65  1  0  0  0
 48117  1  0  0  0
 49 50  1  0  0  0
 49 53  1  0  0  0
 49 64  1  0  0  0
 49118  1  0  0  0
 50 51  1  0  0  0
 50119  1  0  0  0
 50120  1  0  0  0
 51 52  1  0  0  0
 51121  1  0  0  0
 51122  1  0  0  0
 52123  1  0  0  0
 52124  1  0  0  0
 53 54  1  0  0  0
 54 55  2  0  0  0
 54125  1  0  0  0
 55 57  1  0  0  0
 55126  1  0  0  0
 56 69  2  0  0  0
 57 58  2  0  0  0
 57127  1  0  0  0
 58128  1  0  0  0
 59 60  1  0  0  0
 59 61  1  0  0  0
 59 62  1  0  0  0
 60129  1  0  0  0
 60130  1  0  0  0
 60131  1  0  0  0
 61132  1  0  0  0
 61133  1  0  0  0
 61134  1  0  0  0
 62135  1  0  0  0
 62136  1  0  0  0
 62137  1  0  0  0
 63 65  1  0  0  0
 63138  1  0  0  0
 63139  1  0  0  0
 63140  1  0  0  0
 64141  1  0  0  0
 65142  1  0  0  0
 68 80  1  0  0  0
 71 72  1  0  0  0
 71 75  1  0  0  0
 71143  1  0  0  0
 71144  1  0  0  0
 72 75  1  0  0  0
 72145  1  0  0  0
 72146  1  0  0  0
 73 76  1  0  0  0
 73 82  1  0  0  0
 73147  1  0  0  0
 73148  1  0  0  0
 74 76  1  0  0  0
 74 82  1  0  0  0
 74149  1  0  0  0
 74150  1  0  0  0
 75 78  1  0  0  0
 75151  1  0  0  0
 76 79  1  0  0  0
 76152  1  0  0  0
 77153  1  0  0  0
 77154  1  0  0  0
 77155  1  0  0  0
 77 81  1  0  0  0
 78156  1  0  0  0
 78157  1  0  0  0
 78 83  1  0  0  0
 79 83  1  0  0  0
 79158  1  0  0  0
 79159  1  0  0  0
 80 81  1  0  0  0
 80160  1  0  0  0
 80161  1  0  0  0
 81 83  1  0  0  0
 81162  1  0  0  0
 83163  1  0  0  0
M  CHG  1  83   1
M  ISO  4   1 100  68 101  80 101  82 100
M  END
> <chiral flag>
0

> <version>
0

> <s_m_source_file>
/data/baiqing/PycharmProjects/Reinvent-master-3.2/result/LINK_invent/BTK/process_docking_weight1_custom_sum_contain_oxygen_bond_distance_aromatic_linkinvent_7_9_3/rearranged_h_0184.sdf

> <i_m_source_file_index>
92

> <r_mmod_Potential_Energy-OPLS-2005>
860.014404296875

> <r_mmod_Stretch_Energy-OPLS-2005>
361.720794677734

> <r_mmod_Bend_Energy-OPLS-2005>
327.255920410156

> <r_mmod_Torsional_Energy-OPLS-2005>
339.143524169922

> <r_mmod_Improper_Torsional_Energy-OPLS-2005>
14.7435350418091

> <r_mmod_Van_der_Waal_Energy-OPLS-2005>
108.163993835449

> <r_mmod_Electrostatic_Energy-OPLS-2005>
-152.673843383789

> <r_mmod_Solvation_Energy-OPLS-2005>
-425.54248046875

> <b_mmod_Minimization_Converged-OPLS-2005>
0

> <r_mmod_RMS_Derivative-OPLS-2005>
5.3645191192627

$$$$
92
                    3D
 Structure written by MMmdl.
157166  0  0  1  0            999 V2000
  -30.5447  -14.9113   20.4165 C   0  0  0  0  0  0
  -30.4421  -12.5600   19.4939 C   0  0  0  0  0  0
  -29.5220  -12.5224   18.2522 C   0  0  0  0  0  0
  -28.0527  -12.3176   18.6678 C   0  0  0  0  0  0
  -27.6329  -13.2432   19.8399 C   0  0  2  0  0  0
  -28.6765  -13.2510   20.9771 C   0  0  0  0  0  0
  -25.2479  -13.8212   20.5707 C   0  0  0  0  0  0
  -24.1791  -13.0440   20.9225 C   0  0  0  0  0  0
  -24.6398  -11.6925   20.8753 C   0  0  0  0  0  0
  -23.9080  -10.4295   21.0406 C   0  0  0  0  0  0
  -24.3628   -9.4212   21.9185 C   0  0  0  0  0  0
  -23.6299   -8.2249   22.0754 C   0  0  0  0  0  0
  -22.4281   -8.0284   21.3544 C   0  0  0  0  0  0
  -21.9918   -9.0261   20.4650 C   0  0  0  0  0  0
  -22.7250  -10.2139   20.3059 C   0  0  0  0  0  0
  -21.6858   -6.0738   22.5276 C   0  0  0  0  0  0
  -21.4018   -6.5640   23.8211 C   0  0  0  0  0  0
  -21.3662   -5.6789   24.9173 C   0  0  0  0  0  0
  -21.6045   -4.3051   24.7221 C   0  0  0  0  0  0
  -21.8819   -3.8147   23.4340 C   0  0  0  0  0  0
  -21.9194   -4.6966   22.3398 C   0  0  0  0  0  0
  -22.7810  -13.5217   21.1875 C   0  0  0  0  0  0
  -22.1661   -4.2153   21.0974 F   0  0  0  0  0  0
  -21.5632   -3.4535   25.7734 F   0  0  0  0  0  0
  -29.9572  -13.6518   20.3814 N   0  0  0  0  0  0
  -26.2899  -12.9434   20.3243 N   0  0  0  0  0  0
  -25.9329  -11.6569   20.5741 N   0  0  0  0  0  0
  -22.0451  -12.8219   22.0432 N   0  0  0  0  0  0
  -25.4142  -15.1941   20.4121 N   0  0  0  0  0  0
  -31.7458  -14.9945   20.1409 O   0  0  0  0  0  0
  -21.6643   -6.8882   21.4240 O   0  0  0  0  0  0
  -22.3491  -14.5513   20.6704 O   0  0  0  0  0  0
  -24.6415  -31.8449   23.1872 C   0  0  0  0  0  0
  -25.9192  -32.4698   23.8264 C   0  0  1  0  0  0
  -27.2237  -27.1542   20.1500 C   0  0  0  0  0  0
  -25.5942  -33.8502   24.2187 N   0  0  0  0  0  0
  -23.4443  -30.4622   21.5334 C   0  0  2  0  0  0
  -24.8930  -28.8851   20.1132 C   0  0  0  0  0  0
  -22.7555  -29.4550   22.4877 C   0  0  0  0  0  0
  -18.0303  -28.1389   22.8477 C   0  0  0  0  0  0
  -24.1490  -36.7258   23.2645 C   0  0  0  0  0  0
  -25.9974  -30.7241   21.3814 C   0  0  0  0  0  0
  -26.0691  -29.3354   20.7256 C   0  0  0  0  0  0
  -27.2355  -28.4871   20.7222 C   0  0  0  0  0  0
  -26.0190  -26.7903   19.5117 C   0  0  0  0  0  0
  -24.8797  -27.6257   19.4917 C   0  0  0  0  0  0
  -23.6691  -29.7860   20.1543 C   0  0  0  0  0  0
  -25.4122  -36.3036   24.0319 C   0  0  1  0  0  0
  -20.5911  -28.3712   23.1244 C   0  0  2  0  0  0
  -20.6784  -26.9416   22.5406 C   0  0  0  0  0  0
  -19.5761  -26.6377   21.5212 C   0  0  0  0  0  0
  -18.1943  -26.7927   22.1623 C   0  0  0  0  0  0
  -19.1557  -28.8871   23.2852 C   0  0  0  0  0  0
  -18.9477  -30.1469   23.8876 C   0  0  0  0  0  0
  -17.6473  -30.6588   24.0558 C   0  0  0  0  0  0
  -25.9071  -34.9410   23.5065 C   0  0  0  0  0  0
  -16.5364  -29.9082   23.6332 C   0  0  0  0  0  0
  -16.7287  -28.6499   23.0354 C   0  0  0  0  0  0
  -26.4518  -31.6562   25.0704 C   0  0  0  0  0  0
  -25.3704  -31.3752   26.1405 C   0  0  0  0  0  0
  -27.0385  -30.2963   24.6271 C   0  0  0  0  0  0
  -27.6047  -32.4330   25.7493 C   0  0  0  0  0  0
  -27.5575  -37.1786   24.8467 C   0  0  0  0  0  0
  -21.4250  -29.3043   22.3623 N   0  0  0  0  0  0
  -26.4286  -37.3748   23.9410 N   0  0  0  0  0  0
  -24.7143  -31.0314   22.0898 N   0  0  0  0  0  0
  -23.4205  -28.8104   23.3026 O   0  0  0  0  0  0
  -28.3141  -26.2202   20.1911 O   0  0  0  0  0  0
  -26.5661  -34.8910   22.4646 O   0  0  0  0  0  0
  -23.5540  -32.1321   23.7104 O   0  0  0  0  0  0
  -31.7821  -24.3485   19.8457 C   0  0  0  0  0  0
  -32.1651  -23.0088   19.8719 C   0  0  0  0  0  0
  -29.5188  -23.7578   20.1097 C   0  0  0  0  0  0
  -29.9222  -22.2803   20.1447 C   0  0  0  0  0  0
  -29.2617  -18.4174   19.2572 C   0  0  0  0  0  0
  -29.4907  -18.5628   21.5930 C   0  0  0  0  0  0
  -29.5431  -20.0041   19.1204 C   0  0  0  0  0  0
  -29.7741  -20.1497   21.4789 C   0  0  0  0  0  0
  -29.9892  -17.6274   20.4197 C   0  0  0  0  0  0
  -28.1691  -24.6631   20.1655 C   0  0  0  0  0  0
  -30.4919  -24.6997   19.9630 N   0  0  0  0  0  0
  -31.2580  -22.0282   20.0193 N   0  0  0  0  0  0
  -29.2826  -20.9382   20.2837 N   0  0  0  0  0  0
  -29.7405  -16.0711   20.5504 N   0  0  0  0  0  0
  -31.4771  -12.7141   19.1853 H   0  0  0  0  0  0
  -30.4268  -11.6033   20.0189 H   0  0  0  0  0  0
  -29.8343  -11.7272   17.5737 H   0  0  0  0  0  0
  -29.6195  -13.4563   17.6965 H   0  0  0  0  0  0
  -27.9400  -11.2743   18.9653 H   0  0  0  0  0  0
  -27.3920  -12.4633   17.8118 H   0  0  0  0  0  0
  -27.6029  -14.2499   19.4219 H   0  0  0  0  0  0
  -28.7541  -12.2702   21.4476 H   0  0  0  0  0  0
  -28.3833  -13.9484   21.7635 H   0  0  0  0  0  0
  -25.2774   -9.5689   22.4759 H   0  0  0  0  0  0
  -24.0011   -7.4640   22.7472 H   0  0  0  0  0  0
  -21.0850   -8.8778   19.8953 H   0  0  0  0  0  0
  -22.3706  -10.9677   19.6167 H   0  0  0  0  0  0
  -21.2007   -7.6148   23.9716 H   0  0  0  0  0  0
  -21.1487   -6.0519   25.9076 H   0  0  0  0  0  0
  -22.0595   -2.7612   23.2837 H   0  0  0  0  0  0
  -22.4069  -11.9899   22.4851 H   0  0  0  0  0  0
  -21.1060  -13.1241   22.2610 H   0  0  0  0  0  0
  -24.6424  -15.8426   20.5230 H   0  0  0  0  0  0
  -26.2509  -15.6361   20.0543 H   0  0  0  0  0  0
  -26.7259  -32.5308   23.0995 H   0  0  0  0  0  0
  -25.0055  -33.9616   25.0311 H   0  0  0  0  0  0
  -22.7462  -31.2872   21.3770 H   0  0  0  0  0  0
  -23.3757  -35.9585   23.3298 H   0  0  0  0  0  0
  -24.3573  -36.8899   22.2061 H   0  0  0  0  0  0
  -23.7238  -37.6451   23.6684 H   0  0  0  0  0  0
  -26.1484  -31.4782   20.6081 H   0  0  0  0  0  0
  -26.8696  -30.7759   22.0213 H   0  0  0  0  0  0
  -28.1367  -28.8310   21.2099 H   0  0  0  0  0  0
  -25.9336  -25.8273   19.0311 H   0  0  0  0  0  0
  -23.9806  -27.2746   19.0042 H   0  0  0  0  0  0
  -23.8037  -30.5578   19.3954 H   0  0  0  0  0  0
  -22.7845  -29.2256   19.8465 H   0  0  0  0  0  0
  -25.1309  -36.1867   25.0811 H   0  0  0  0  0  0
  -21.0000  -28.3296   24.1366 H   0  0  0  0  0  0
  -20.5674  -26.2324   23.3623 H   0  0  0  0  0  0
  -21.6651  -26.7420   22.1207 H   0  0  0  0  0  0
  -19.6921  -25.6284   21.1255 H   0  0  0  0  0  0
  -19.6698  -27.3176   20.6734 H   0  0  0  0  0  0
  -17.4210  -26.6672   21.4028 H   0  0  0  0  0  0
  -18.0341  -26.0074   22.9024 H   0  0  0  0  0  0
  -19.7956  -30.7291   24.2230 H   0  0  0  0  0  0
  -17.5029  -31.6266   24.5163 H   0  0  0  0  0  0
  -15.5364  -30.2978   23.7671 H   0  0  0  0  0  0
  -15.8687  -28.0815   22.7076 H   0  0  0  0  0  0
  -24.5878  -30.7107   25.7724 H   0  0  0  0  0  0
  -24.8900  -32.2937   26.4787 H   0  0  0  0  0  0
  -25.7989  -30.8948   27.0211 H   0  0  0  0  0  0
  -26.2999  -29.6688   24.1270 H   0  0  0  0  0  0
  -27.4003  -29.7259   25.4837 H   0  0  0  0  0  0
  -27.8901  -30.4215   23.9581 H   0  0  0  0  0  0
  -27.2633  -33.3640   26.2029 H   0  0  0  0  0  0
  -28.3878  -32.6874   25.0337 H   0  0  0  0  0  0
  -28.0692  -31.8483   26.5446 H   0  0  0  0  0  0
  -28.2589  -38.0084   24.7506 H   0  0  0  0  0  0
  -28.1073  -36.2614   24.6301 H   0  0  0  0  0  0
  -27.2293  -37.1443   25.8870 H   0  0  0  0  0  0
  -20.9461  -29.8750   21.6801 H   0  0  0  0  0  0
  -26.0157  -38.2820   24.1404 H   0  0  0  0  0  0
  -32.5089  -25.1385   19.7259 H   0  0  0  0  0  0
  -33.2010  -22.7200   19.7736 H   0  0  0  0  0  0
  -29.5341  -17.9487   18.3106 H   0  0  0  0  0  0
  -28.1840  -18.2680   19.3427 H   0  0  0  0  0  0
  -28.4189  -18.4152   21.7351 H   0  0  0  0  0  0
  -29.9463  -18.2110   22.5195 H   0  0  0  0  0  0
  -28.9513  -20.3744   18.2820 H   0  0  0  0  0  0
  -30.5767  -20.0912   18.7839 H   0  0  0  0  0  0
  -30.8519  -20.2655   21.5960 H   0  0  0  0  0  0
  -29.3486  -20.6256   22.3635 H   0  0  0  0  0  0
  -31.0659  -17.7635   20.3048 H   0  0  0  0  0  0
  -27.6000  -24.3576   21.0436 H   0  0  0  0  0  0
  -27.5749  -24.3757   19.2989 H   0  0  0  0  0  0
  -28.7762  -15.8364   20.7338 H   0  0  0  0  0  0
  1 25  1  0  0  0
  1 30  2  0  0  0
  1 84  1  0  0  0
  2  3  1  0  0  0
  2 25  1  0  0  0
  2 85  1  0  0  0
  2 86  1  0  0  0
  3  4  1  0  0  0
  3 87  1  0  0  0
  3 88  1  0  0  0
  4  5  1  0  0  0
  4 89  1  0  0  0
  4 90  1  0  0  0
  5  6  1  0  0  0
  5 26  1  0  0  0
  5 91  1  0  0  0
  6 25  1  0  0  0
  6 92  1  0  0  0
  6 93  1  0  0  0
  7  8  2  0  0  0
  7 26  1  0  0  0
  7 29  1  0  0  0
  8  9  1  0  0  0
  8 22  1  0  0  0
  9 10  1  0  0  0
  9 27  2  0  0  0
 10 11  2  0  0  0
 10 15  1  0  0  0
 11 12  1  0  0  0
 11 94  1  0  0  0
 12 13  2  0  0  0
 12 95  1  0  0  0
 13 14  1  0  0  0
 13 31  1  0  0  0
 14 15  2  0  0  0
 14 96  1  0  0  0
 15 97  1  0  0  0
 16 17  2  0  0  0
 16 21  1  0  0  0
 16 31  1  0  0  0
 17 18  1  0  0  0
 17 98  1  0  0  0
 18 19  2  0  0  0
 18 99  1  0  0  0
 19 20  1  0  0  0
 19 24  1  0  0  0
 20 21  2  0  0  0
 20100  1  0  0  0
 21 23  1  0  0  0
 22 28  1  0  0  0
 22 32  2  0  0  0
 26 27  1  0  0  0
 28101  1  0  0  0
 28102  1  0  0  0
 29103  1  0  0  0
 29104  1  0  0  0
 33 34  1  0  0  0
 33 66  1  0  0  0
 33 70  2  0  0  0
 34 36  1  0  0  0
 34 59  1  0  0  0
 34105  1  0  0  0
 35 44  2  0  0  0
 35 45  1  0  0  0
 35 68  1  0  0  0
 36 56  1  0  0  0
 36106  1  0  0  0
 37 39  1  0  0  0
 37 47  1  0  0  0
 37 66  1  0  0  0
 37107  1  0  0  0
 38 43  2  0  0  0
 38 46  1  0  0  0
 38 47  1  0  0  0
 39 64  1  0  0  0
 39 67  2  0  0  0
 40 52  1  0  0  0
 40 53  2  0  0  0
 40 58  1  0  0  0
 41108  1  0  0  0
 41109  1  0  0  0
 41110  1  0  0  0
 41 48  1  0  0  0
 42 43  1  0  0  0
 42 66  1  0  0  0
 42111  1  0  0  0
 42112  1  0  0  0
 43 44  1  0  0  0
 44113  1  0  0  0
 45 46  2  0  0  0
 45114  1  0  0  0
 46115  1  0  0  0
 47116  1  0  0  0
 47117  1  0  0  0
 48 56  1  0  0  0
 48 65  1  0  0  0
 48118  1  0  0  0
 49 50  1  0  0  0
 49 53  1  0  0  0
 49 64  1  0  0  0
 49119  1  0  0  0
 50 51  1  0  0  0
 50120  1  0  0  0
 50121  1  0  0  0
 51 52  1  0  0  0
 51122  1  0  0  0
 51123  1  0  0  0
 52124  1  0  0  0
 52125  1  0  0  0
 53 54  1  0  0  0
 54 55  2  0  0  0
 54126  1  0  0  0
 55 57  1  0  0  0
 55127  1  0  0  0
 56 69  2  0  0  0
 57 58  2  0  0  0
 57128  1  0  0  0
 58129  1  0  0  0
 59 60  1  0  0  0
 59 61  1  0  0  0
 59 62  1  0  0  0
 60130  1  0  0  0
 60131  1  0  0  0
 60132  1  0  0  0
 61133  1  0  0  0
 61134  1  0  0  0
 61135  1  0  0  0
 62136  1  0  0  0
 62137  1  0  0  0
 62138  1  0  0  0
 63 65  1  0  0  0
 63139  1  0  0  0
 63140  1  0  0  0
 63141  1  0  0  0
 64142  1  0  0  0
 65143  1  0  0  0
 68 80  1  0  0  0
 71 72  2  0  0  0
 71 81  1  0  0  0
 71144  1  0  0  0
 72 82  1  0  0  0
 72145  1  0  0  0
 73 74  1  0  0  0
 73 80  1  0  0  0
 73 81  2  0  0  0
 74 82  2  0  0  0
 74 83  1  0  0  0
 75 77  1  0  0  0
 75 79  1  0  0  0
 75146  1  0  0  0
 75147  1  0  0  0
 76 78  1  0  0  0
 76 79  1  0  0  0
 76148  1  0  0  0
 76149  1  0  0  0
 77 83  1  0  0  0
 77150  1  0  0  0
 77151  1  0  0  0
 78 83  1  0  0  0
 78152  1  0  0  0
 78153  1  0  0  0
 79 84  1  0  0  0
 79154  1  0  0  0
 80155  1  0  0  0
 80156  1  0  0  0
 84157  1  0  0  0
M  ISO  4   1 100  68 101  80 101  84 100
M  END
> <chiral flag>
0

> <version>
0

> <s_m_source_file>
/data/baiqing/PycharmProjects/Reinvent-master-3.2/result/LINK_invent/BTK/process_docking_weight1_custom_sum_contain_oxygen_bond_distance_aromatic_linkinvent_7_9_3/rearranged_h_0184.sdf

> <i_m_source_file_index>
93

> <r_mmod_Potential_Energy-OPLS-2005>
619.928161621094

> <r_mmod_Stretch_Energy-OPLS-2005>
239.926254272461

> <r_mmod_Bend_Energy-OPLS-2005>
320.941619873047

> <r_mmod_Torsional_Energy-OPLS-2005>
248.202621459961

> <r_mmod_Improper_Torsional_Energy-OPLS-2005>
11.0668973922729

> <r_mmod_Van_der_Waal_Energy-OPLS-2005>
155.690643310547

> <r_mmod_Electrostatic_Energy-OPLS-2005>
-272.691802978516

> <r_mmod_Solvation_Energy-OPLS-2005>
-250.24641418457

> <b_mmod_Minimization_Converged-OPLS-2005>
0

> <r_mmod_RMS_Derivative-OPLS-2005>
0.896380603313446

$$$$
93
                    3D
 Structure written by MMmdl.
151160  0  0  1  0            999 V2000
  -30.1212  -16.1450   20.2919 C   0  0  0  0  0  0
  -30.3735  -13.4650   19.5513 C   0  0  0  0  0  0
  -29.5639  -12.8012   18.3829 C   0  0  0  0  0  0
  -28.1832  -12.3327   18.8501 C   0  0  0  0  0  0
  -27.5811  -13.3684   19.8174 C   0  0  2  0  0  0
  -28.5579  -13.9111   20.9057 C   0  0  0  0  0  0
  -25.2237  -13.8389   20.5897 C   0  0  0  0  0  0
  -24.1679  -13.0456   20.9319 C   0  0  0  0  0  0
  -24.6459  -11.6992   20.8759 C   0  0  0  0  0  0
  -23.9173  -10.4310   21.0372 C   0  0  0  0  0  0
  -24.3686   -9.4223   21.9165 C   0  0  0  0  0  0
  -23.6335   -8.2267   22.0749 C   0  0  0  0  0  0
  -22.4313   -8.0303   21.3544 C   0  0  0  0  0  0
  -21.9971   -9.0280   20.4640 C   0  0  0  0  0  0
  -22.7326  -10.2147   20.3038 C   0  0  0  0  0  0
  -21.6866   -6.0751   22.5276 C   0  0  0  0  0  0
  -21.4022   -6.5649   23.8211 C   0  0  0  0  0  0
  -21.3662   -5.6797   24.9169 C   0  0  0  0  0  0
  -21.6045   -4.3061   24.7217 C   0  0  0  0  0  0
  -21.8818   -3.8156   23.4337 C   0  0  0  0  0  0
  -21.9197   -4.6977   22.3397 C   0  0  0  0  0  0
  -22.7675  -13.5137   21.1935 C   0  0  0  0  0  0
  -22.1665   -4.2160   21.0976 F   0  0  0  0  0  0
  -21.5626   -3.4543   25.7729 F   0  0  0  0  0  0
  -29.6483  -14.6908   20.2232 N   0  0  0  0  0  0
  -26.2760  -12.9837   20.3366 N   0  0  0  0  0  0
  -25.9437  -11.6835   20.5700 N   0  0  0  0  0  0
  -22.0358  -12.8094   22.0483 N   0  0  0  0  0  0
  -25.3761  -15.2143   20.4369 N   0  0  0  0  0  0
  -31.3558  -15.9796   20.1028 O   0  0  0  0  0  0
  -21.6664   -6.8904   21.4242 O   0  0  0  0  0  0
  -22.3332  -14.5426   20.6769 O   0  0  0  0  0  0
  -24.7161  -31.7573   23.1208 C   0  0  0  0  0  0
  -25.9574  -32.4251   23.7890 C   0  0  1  0  0  0
  -27.2468  -26.3499   20.2383 C   0  0  0  0  0  0
  -25.6010  -33.8098   24.1738 N   0  0  0  0  0  0
  -23.5598  -30.3416   21.4811 C   0  0  2  0  0  0
  -25.0233  -28.6086   20.1187 C   0  0  0  0  0  0
  -22.7915  -29.4077   22.4591 C   0  0  0  0  0  0
  -18.0361  -28.1443   22.8431 C   0  0  0  0  0  0
  -24.1491  -36.7055   23.2663 C   0  0  0  0  0  0
  -26.1515  -30.3696   21.4425 C   0  0  0  0  0  0
  -26.2120  -28.8963   20.7968 C   0  0  0  0  0  0
  -27.2834  -27.8028   20.8223 C   0  0  0  0  0  0
  -26.0295  -26.3662   19.4813 C   0  0  0  0  0  0
  -24.9924  -27.3741   19.4365 C   0  0  0  0  0  0
  -23.8344  -29.6049   20.1308 C   0  0  0  0  0  0
  -25.4153  -36.2763   24.0257 C   0  0  1  0  0  0
  -20.6012  -28.3815   23.1073 C   0  0  2  0  0  0
  -20.6807  -26.9441   22.5410 C   0  0  0  0  0  0
  -19.5793  -26.6358   21.5219 C   0  0  0  0  0  0
  -18.1970  -26.7964   22.1606 C   0  0  0  0  0  0
  -19.1638  -28.8960   23.2723 C   0  0  0  0  0  0
  -18.9542  -30.1532   23.8785 C   0  0  0  0  0  0
  -17.6530  -30.6616   24.0540 C   0  0  0  0  0  0
  -25.9159  -34.9168   23.4859 C   0  0  0  0  0  0
  -16.5413  -29.9093   23.6360 C   0  0  0  0  0  0
  -16.7340  -28.6518   23.0370 C   0  0  0  0  0  0
  -26.4648  -31.6451   25.0666 C   0  0  0  0  0  0
  -25.3618  -31.3876   26.1211 C   0  0  0  0  0  0
  -27.0645  -30.2751   24.6837 C   0  0  0  0  0  0
  -27.6026  -32.4407   25.7498 C   0  0  0  0  0  0
  -27.5545  -37.1672   24.8462 C   0  0  0  0  0  0
  -21.4530  -29.2988   22.3344 N   0  0  0  0  0  0
  -26.4240  -37.3571   23.9419 N   0  0  0  0  0  0
  -24.8365  -30.8658   22.0661 N   0  0  0  0  0  0
  -23.4190  -28.7735   23.3102 O   0  0  0  0  0  0
  -28.1634  -24.9779   20.3911 O   0  0  0  0  0  0
  -26.5849  -34.8817   22.4512 O   0  0  0  0  0  0
  -23.6106  -32.0812   23.5940 O   0  0  0  0  0  0
  -29.3096  -19.2538   18.1317 C   0  0  0  0  0  0
  -30.5952  -19.5960   18.8215 C   0  0  0  0  0  0
  -29.0556  -20.1791   21.6608 C   0  0  0  0  0  0
  -29.0749  -18.4799   21.6324 C   0  0  0  0  0  0
  -29.3527  -19.3180   19.6457 C   0  0  0  0  0  0
  -28.5638  -20.9518   20.3462 C   0  0  1  0  0  0
  -27.0550  -20.6768   20.2473 C   0  0  0  0  0  0
  -28.4533  -23.0927   19.9779 C   0  0  0  0  0  0
  -29.4157  -17.6778   20.3632 N   0  0  0  0  0  0
  -31.3258  -13.7860   19.1286 H   0  0  0  0  0  0
  -30.6551  -12.7177   20.2953 H   0  0  0  0  0  0
  -30.1213  -11.9673   17.9547 H   0  0  0  0  0  0
  -29.4416  -13.5315   17.5819 H   0  0  0  0  0  0
  -28.3019  -11.3801   19.3687 H   0  0  0  0  0  0
  -27.5228  -12.1493   18.0015 H   0  0  0  0  0  0
  -27.3782  -14.2204   19.1663 H   0  0  0  0  0  0
  -28.9291  -13.1172   21.5557 H   0  0  0  0  0  0
  -28.0279  -14.6024   21.5622 H   0  0  0  0  0  0
  -25.2818   -9.5693   22.4759 H   0  0  0  0  0  0
  -24.0027   -7.4665   22.7485 H   0  0  0  0  0  0
  -21.0895   -8.8817   19.8951 H   0  0  0  0  0  0
  -22.3779  -10.9688   19.6154 H   0  0  0  0  0  0
  -21.2018   -7.6157   23.9714 H   0  0  0  0  0  0
  -21.1483   -6.0529   25.9071 H   0  0  0  0  0  0
  -22.0593   -2.7618   23.2835 H   0  0  0  0  0  0
  -22.4020  -11.9777   22.4874 H   0  0  0  0  0  0
  -21.0959  -13.1068   22.2686 H   0  0  0  0  0  0
  -24.6050  -15.8615   20.5599 H   0  0  0  0  0  0
  -26.2289  -15.6665   20.1330 H   0  0  0  0  0  0
  -26.7687  -32.4636   23.0617 H   0  0  0  0  0  0
  -25.0036  -33.9079   24.9813 H   0  0  0  0  0  0
  -22.9054  -31.1872   21.2597 H   0  0  0  0  0  0
  -23.3783  -35.9350   23.3230 H   0  0  0  0  0  0
  -24.3545  -36.8833   22.2095 H   0  0  0  0  0  0
  -23.7223  -37.6180   23.6833 H   0  0  0  0  0  0
  -26.3936  -31.0695   20.6415 H   0  0  0  0  0  0
  -26.9893  -30.4479   22.1220 H   0  0  0  0  0  0
  -28.1600  -28.0371   21.4096 H   0  0  0  0  0  0
  -25.8084  -25.4559   18.9420 H   0  0  0  0  0  0
  -24.1067  -27.1404   18.8608 H   0  0  0  0  0  0
  -24.0373  -30.3505   19.3614 H   0  0  0  0  0  0
  -22.9333  -29.0874   19.7979 H   0  0  0  0  0  0
  -25.1377  -36.1461   25.0743 H   0  0  0  0  0  0
  -21.0084  -28.3470   24.1207 H   0  0  0  0  0  0
  -20.5633  -26.2449   23.3706 H   0  0  0  0  0  0
  -21.6666  -26.7322   22.1251 H   0  0  0  0  0  0
  -19.6945  -25.6240   21.1321 H   0  0  0  0  0  0
  -19.6756  -27.3104   20.6701 H   0  0  0  0  0  0
  -17.4245  -26.6712   21.4003 H   0  0  0  0  0  0
  -18.0340  -26.0135   22.9028 H   0  0  0  0  0  0
  -19.8023  -30.7368   24.2108 H   0  0  0  0  0  0
  -17.5087  -31.6286   24.5166 H   0  0  0  0  0  0
  -15.5413  -30.2964   23.7755 H   0  0  0  0  0  0
  -15.8736  -28.0803   22.7151 H   0  0  0  0  0  0
  -24.5850  -30.7187   25.7489 H   0  0  0  0  0  0
  -24.8769  -32.3133   26.4316 H   0  0  0  0  0  0
  -25.7708  -30.9238   27.0197 H   0  0  0  0  0  0
  -26.3426  -29.6237   24.1901 H   0  0  0  0  0  0
  -27.3997  -29.7363   25.5710 H   0  0  0  0  0  0
  -27.9431  -30.3796   24.0473 H   0  0  0  0  0  0
  -27.2520  -33.3824   26.1731 H   0  0  0  0  0  0
  -28.4001  -32.6784   25.0448 H   0  0  0  0  0  0
  -28.0513  -31.8781   26.5694 H   0  0  0  0  0  0
  -28.2487  -38.0033   24.7535 H   0  0  0  0  0  0
  -28.1115  -36.2552   24.6255 H   0  0  0  0  0  0
  -27.2266  -37.1253   25.8862 H   0  0  0  0  0  0
  -20.9916  -29.8598   21.6319 H   0  0  0  0  0  0
  -26.0028  -38.2590   24.1479 H   0  0  0  0  0  0
  -29.2306  -18.2725   17.6681 H   0  0  0  0  0  0
  -28.7885  -20.0553   17.6112 H   0  0  0  0  0  0
  -30.9387  -20.6270   18.7617 H   0  0  0  0  0  0
  -31.3830  -18.8454   18.8197 H   0  0  0  0  0  0
  -30.0750  -20.5138   21.8612 H   0  0  0  0  0  0
  -28.4797  -20.5164   22.5235 H   0  0  0  0  0  0
  -28.0803  -18.1398   21.9243 H   0  0  0  0  0  0
  -29.7320  -18.1297   22.4296 H   0  0  0  0  0  0
  -26.8079  -19.6264   20.4012 H   0  0  0  0  0  0
  -26.6795  -20.9507   19.2615 H   0  0  0  0  0  0
  -26.5006  -21.2602   20.9828 H   0  0  0  0  0  0
  -27.9638  -23.0851   19.0039 H   0  0  0  0  0  0
  -29.5064  -23.2245   19.7283 H   0  0  0  0  0  0
  1 25  1  0  0  0
  1 30  2  0  0  0
  1 79  1  0  0  0
  2  3  1  0  0  0
  2 25  1  0  0  0
  2 80  1  0  0  0
  2 81  1  0  0  0
  3  4  1  0  0  0
  3 82  1  0  0  0
  3 83  1  0  0  0
  4  5  1  0  0  0
  4 84  1  0  0  0
  4 85  1  0  0  0
  5  6  1  0  0  0
  5 26  1  0  0  0
  5 86  1  0  0  0
  6 25  1  0  0  0
  6 87  1  0  0  0
  6 88  1  0  0  0
  7  8  2  0  0  0
  7 26  1  0  0  0
  7 29  1  0  0  0
  8  9  1  0  0  0
  8 22  1  0  0  0
  9 10  1  0  0  0
  9 27  2  0  0  0
 10 11  2  0  0  0
 10 15  1  0  0  0
 11 12  1  0  0  0
 11 89  1  0  0  0
 12 13  2  0  0  0
 12 90  1  0  0  0
 13 14  1  0  0  0
 13 31  1  0  0  0
 14 15  2  0  0  0
 14 91  1  0  0  0
 15 92  1  0  0  0
 16 17  2  0  0  0
 16 21  1  0  0  0
 16 31  1  0  0  0
 17 18  1  0  0  0
 17 93  1  0  0  0
 18 19  2  0  0  0
 18 94  1  0  0  0
 19 20  1  0  0  0
 19 24  1  0  0  0
 20 21  2  0  0  0
 20 95  1  0  0  0
 21 23  1  0  0  0
 22 28  1  0  0  0
 22 32  2  0  0  0
 26 27  1  0  0  0
 28 96  1  0  0  0
 28 97  1  0  0  0
 29 98  1  0  0  0
 29 99  1  0  0  0
 33 34  1  0  0  0
 33 66  1  0  0  0
 33 70  2  0  0  0
 34 36  1  0  0  0
 34 59  1  0  0  0
 34100  1  0  0  0
 35 44  2  0  0  0
 35 45  1  0  0  0
 35 68  1  0  0  0
 36 56  1  0  0  0
 36101  1  0  0  0
 37 39  1  0  0  0
 37 47  1  0  0  0
 37 66  1  0  0  0
 37102  1  0  0  0
 38 43  2  0  0  0
 38 46  1  0  0  0
 38 47  1  0  0  0
 39 64  1  0  0  0
 39 67  2  0  0  0
 40 52  1  0  0  0
 40 53  2  0  0  0
 40 58  1  0  0  0
 41103  1  0  0  0
 41104  1  0  0  0
 41105  1  0  0  0
 41 48  1  0  0  0
 42 43  1  0  0  0
 42 66  1  0  0  0
 42106  1  0  0  0
 42107  1  0  0  0
 43 44  1  0  0  0
 44108  1  0  0  0
 45 46  2  0  0  0
 45109  1  0  0  0
 46110  1  0  0  0
 47111  1  0  0  0
 47112  1  0  0  0
 48 56  1  0  0  0
 48 65  1  0  0  0
 48113  1  0  0  0
 49 50  1  0  0  0
 49 53  1  0  0  0
 49 64  1  0  0  0
 49114  1  0  0  0
 50 51  1  0  0  0
 50115  1  0  0  0
 50116  1  0  0  0
 51 52  1  0  0  0
 51117  1  0  0  0
 51118  1  0  0  0
 52119  1  0  0  0
 52120  1  0  0  0
 53 54  1  0  0  0
 54 55  2  0  0  0
 54121  1  0  0  0
 55 57  1  0  0  0
 55122  1  0  0  0
 56 69  2  0  0  0
 57 58  2  0  0  0
 57123  1  0  0  0
 58124  1  0  0  0
 59 60  1  0  0  0
 59 61  1  0  0  0
 59 62  1  0  0  0
 60125  1  0  0  0
 60126  1  0  0  0
 60127  1  0  0  0
 61128  1  0  0  0
 61129  1  0  0  0
 61130  1  0  0  0
 62131  1  0  0  0
 62132  1  0  0  0
 62133  1  0  0  0
 63 65  1  0  0  0
 63134  1  0  0  0
 63135  1  0  0  0
 63136  1  0  0  0
 64137  1  0  0  0
 65138  1  0  0  0
 68 78  1  0  0  0
 71 72  1  0  0  0
 71139  1  0  0  0
 71140  1  0  0  0
 71 75  1  0  0  0
 72 75  1  0  0  0
 72141  1  0  0  0
 72142  1  0  0  0
 73 74  1  0  0  0
 73 76  1  0  0  0
 73143  1  0  0  0
 73144  1  0  0  0
 74 79  1  0  0  0
 74145  1  0  0  0
 74146  1  0  0  0
 75 76  1  0  0  0
 75 79  1  0  0  0
 76 77  1  0  0  0
 76 78  1  0  0  0
 77147  1  0  0  0
 77148  1  0  0  0
 77149  1  0  0  0
 78150  1  0  0  0
 78151  1  0  0  0
M  ISO  4   1 100  68 101  78 101  79 100
M  END
> <chiral flag>
0

> <version>
0

> <s_m_source_file>
/data/baiqing/PycharmProjects/Reinvent-master-3.2/result/LINK_invent/BTK/process_docking_weight1_custom_sum_contain_oxygen_bond_distance_aromatic_linkinvent_7_9_3/rearranged_h_0184.sdf

> <i_m_source_file_index>
94

> <r_mmod_Potential_Energy-OPLS-2005>
5014.96923828125

> <r_mmod_Stretch_Energy-OPLS-2005>
2000.90966796875

> <r_mmod_Bend_Energy-OPLS-2005>
1119.67370605469

> <r_mmod_Torsional_Energy-OPLS-2005>
443.140441894531

> <r_mmod_Improper_Torsional_Energy-OPLS-2005>
8.06255722045898

> <r_mmod_Van_der_Waal_Energy-OPLS-2005>
106.066841125488

> <r_mmod_Electrostatic_Energy-OPLS-2005>
-282.037292480469

> <r_mmod_Solvation_Energy-OPLS-2005>
-197.220581054688

> <b_mmod_Minimization_Converged-OPLS-2005>
0

> <r_mmod_RMS_Derivative-OPLS-2005>
0.753182291984558

$$$$
94
                    3D
 Structure written by MMmdl.
151159  0  0  1  0            999 V2000
  -30.5754  -14.8842   20.4262 C   0  0  0  0  0  0
  -30.4305  -12.5455   19.4965 C   0  0  0  0  0  0
  -29.5159  -12.5214   18.2516 C   0  0  0  0  0  0
  -28.0460  -12.3227   18.6657 C   0  0  0  0  0  0
  -27.6302  -13.2463   19.8419 C   0  0  2  0  0  0
  -28.6718  -13.2588   20.9808 C   0  0  0  0  0  0
  -25.2456  -13.8220   20.5709 C   0  0  0  0  0  0
  -24.1773  -13.0444   20.9224 C   0  0  0  0  0  0
  -24.6387  -11.6928   20.8753 C   0  0  0  0  0  0
  -23.9073  -10.4298   21.0410 C   0  0  0  0  0  0
  -24.3624   -9.4215   21.9188 C   0  0  0  0  0  0
  -23.6302   -8.2249   22.0758 C   0  0  0  0  0  0
  -22.4285   -8.0283   21.3546 C   0  0  0  0  0  0
  -21.9917   -9.0257   20.4649 C   0  0  0  0  0  0
  -22.7245  -10.2138   20.3059 C   0  0  0  0  0  0
  -21.6857   -6.0737   22.5281 C   0  0  0  0  0  0
  -21.4019   -6.5639   23.8214 C   0  0  0  0  0  0
  -21.3660   -5.6793   24.9176 C   0  0  0  0  0  0
  -21.6042   -4.3056   24.7225 C   0  0  0  0  0  0
  -21.8819   -3.8145   23.4348 C   0  0  0  0  0  0
  -21.9195   -4.6964   22.3405 C   0  0  0  0  0  0
  -22.7794  -13.5216   21.1878 C   0  0  0  0  0  0
  -22.1664   -4.2149   21.0984 F   0  0  0  0  0  0
  -21.5625   -3.4540   25.7738 F   0  0  0  0  0  0
  -29.9540  -13.6437   20.3816 N   0  0  0  0  0  0
  -26.2882  -12.9449   20.3262 N   0  0  0  0  0  0
  -25.9320  -11.6580   20.5748 N   0  0  0  0  0  0
  -22.0448  -12.8203   22.0435 N   0  0  0  0  0  0
  -25.4109  -15.1949   20.4127 N   0  0  0  0  0  0
  -31.7794  -14.9298   20.1548 O   0  0  0  0  0  0
  -21.6647   -6.8880   21.4244 O   0  0  0  0  0  0
  -22.3477  -14.5521   20.6724 O   0  0  0  0  0  0
  -24.6397  -31.8474   23.1906 C   0  0  0  0  0  0
  -25.9184  -32.4712   23.8290 C   0  0  1  0  0  0
  -27.2171  -27.1712   20.1445 C   0  0  0  0  0  0
  -25.5941  -33.8514   24.2207 N   0  0  0  0  0  0
  -23.4420  -30.4679   21.5345 C   0  0  2  0  0  0
  -24.8911  -28.8997   20.1078 C   0  0  0  0  0  0
  -22.7554  -29.4565   22.4859 C   0  0  0  0  0  0
  -18.0307  -28.1397   22.8483 C   0  0  0  0  0  0
  -24.1491  -36.7264   23.2644 C   0  0  0  0  0  0
  -25.9952  -30.7319   21.3840 C   0  0  0  0  0  0
  -26.0667  -29.3459   20.7256 C   0  0  0  0  0  0
  -27.2309  -28.4969   20.7274 C   0  0  0  0  0  0
  -26.0191  -26.8179   19.4861 C   0  0  0  0  0  0
  -24.8788  -27.6480   19.4732 C   0  0  0  0  0  0
  -23.6666  -29.7978   20.1527 C   0  0  0  0  0  0
  -25.4121  -36.3044   24.0322 C   0  0  1  0  0  0
  -20.5918  -28.3724   23.1240 C   0  0  2  0  0  0
  -20.6784  -26.9428   22.5405 C   0  0  0  0  0  0
  -19.5757  -26.6386   21.5214 C   0  0  0  0  0  0
  -18.1939  -26.7936   22.1628 C   0  0  0  0  0  0
  -19.1562  -28.8879   23.2856 C   0  0  0  0  0  0
  -18.9474  -30.1474   23.8884 C   0  0  0  0  0  0
  -17.6468  -30.6592   24.0567 C   0  0  0  0  0  0
  -25.9066  -34.9416   23.5075 C   0  0  0  0  0  0
  -16.5362  -29.9087   23.6333 C   0  0  0  0  0  0
  -16.7290  -28.6506   23.0356 C   0  0  0  0  0  0
  -26.4510  -31.6570   25.0721 C   0  0  0  0  0  0
  -25.3700  -31.3747   26.1425 C   0  0  0  0  0  0
  -27.0367  -30.2969   24.6276 C   0  0  0  0  0  0
  -27.6049  -32.4334   25.7500 C   0  0  0  0  0  0
  -27.5578  -37.1791   24.8468 C   0  0  0  0  0  0
  -21.4251  -29.3054   22.3608 N   0  0  0  0  0  0
  -26.4287  -37.3755   23.9409 N   0  0  0  0  0  0
  -24.7122  -31.0364   22.0915 N   0  0  0  0  0  0
  -23.4222  -28.8111   23.2993 O   0  0  0  0  0  0
  -28.2812  -26.2134   20.2246 O   0  0  0  0  0  0
  -26.5654  -34.8909   22.4655 O   0  0  0  0  0  0
  -23.5523  -32.1329   23.7146 O   0  0  0  0  0  0
  -29.9206  -19.9415   19.2832 C   0  0  0  0  0  0
  -29.6357  -19.0041   20.3380 C   0  0  0  0  0  0
  -28.6985  -20.9385   21.4375 C   0  0  0  0  0  0
  -29.0371  -21.8842   20.3961 C   0  0  0  0  0  0
  -28.0510  -21.4241   22.7187 C   0  0  0  0  0  0
  -29.0892  -23.5218   20.5775 C   0  0  0  0  0  0
  -30.3877  -17.5438   20.4285 C   0  0  0  0  0  0
  -28.0492  -24.6960   20.0284 C   0  0  0  0  0  0
  -29.6391  -21.3054   19.3054 N   0  0  0  0  0  0
  -28.9874  -19.5692   21.4122 N   0  0  0  0  0  0
  -29.8411  -16.0846   20.5564 N   0  0  0  0  0  0
  -31.4691  -12.6821   19.1915 H   0  0  0  0  0  0
  -30.3994  -11.5892   20.0214 H   0  0  0  0  0  0
  -29.8225  -11.7281   17.5691 H   0  0  0  0  0  0
  -29.6214  -13.4577   17.7010 H   0  0  0  0  0  0
  -27.9260  -11.2788   18.9583 H   0  0  0  0  0  0
  -27.3859  -12.4765   17.8111 H   0  0  0  0  0  0
  -27.6004  -14.2534   19.4256 H   0  0  0  0  0  0
  -28.7425  -12.2836   21.4654 H   0  0  0  0  0  0
  -28.3826  -13.9704   21.7563 H   0  0  0  0  0  0
  -25.2767   -9.5693   22.4768 H   0  0  0  0  0  0
  -24.0009   -7.4640   22.7479 H   0  0  0  0  0  0
  -21.0847   -8.8777   19.8954 H   0  0  0  0  0  0
  -22.3702  -10.9679   19.6168 H   0  0  0  0  0  0
  -21.2017   -7.6147   23.9716 H   0  0  0  0  0  0
  -21.1479   -6.0524   25.9077 H   0  0  0  0  0  0
  -22.0596   -2.7608   23.2849 H   0  0  0  0  0  0
  -22.4074  -11.9868   22.4818 H   0  0  0  0  0  0
  -21.1066  -13.1223   22.2649 H   0  0  0  0  0  0
  -24.6372  -15.8420   20.5195 H   0  0  0  0  0  0
  -26.2506  -15.6392   20.0650 H   0  0  0  0  0  0
  -26.7255  -32.5332   23.1028 H   0  0  0  0  0  0
  -25.0062  -33.9632   25.0337 H   0  0  0  0  0  0
  -22.7426  -31.2922   21.3815 H   0  0  0  0  0  0
  -23.3752  -35.9597   23.3295 H   0  0  0  0  0  0
  -24.3575  -36.8903   22.2060 H   0  0  0  0  0  0
  -23.7238  -37.6457   23.6679 H   0  0  0  0  0  0
  -26.1479  -31.4873   20.6118 H   0  0  0  0  0  0
  -26.8671  -30.7816   22.0245 H   0  0  0  0  0  0
  -28.1272  -28.8316   21.2307 H   0  0  0  0  0  0
  -25.9355  -25.8614   18.9921 H   0  0  0  0  0  0
  -23.9829  -27.3021   18.9762 H   0  0  0  0  0  0
  -23.7999  -30.5718   19.3959 H   0  0  0  0  0  0
  -22.7823  -29.2375   19.8438 H   0  0  0  0  0  0
  -25.1303  -36.1885   25.0813 H   0  0  0  0  0  0
  -21.0019  -28.3315   24.1358 H   0  0  0  0  0  0
  -20.5672  -26.2337   23.3623 H   0  0  0  0  0  0
  -21.6650  -26.7426   22.1206 H   0  0  0  0  0  0
  -19.6907  -25.6291   21.1256 H   0  0  0  0  0  0
  -19.6688  -27.3185   20.6735 H   0  0  0  0  0  0
  -17.4206  -26.6692   21.4033 H   0  0  0  0  0  0
  -18.0338  -26.0076   22.9025 H   0  0  0  0  0  0
  -19.7946  -30.7301   24.2243 H   0  0  0  0  0  0
  -17.5018  -31.6267   24.5178 H   0  0  0  0  0  0
  -15.5359  -30.2987   23.7656 H   0  0  0  0  0  0
  -15.8692  -28.0820   22.7076 H   0  0  0  0  0  0
  -24.5894  -30.7076   25.7749 H   0  0  0  0  0  0
  -24.8868  -32.2922   26.4797 H   0  0  0  0  0  0
  -25.7998  -30.8963   27.0238 H   0  0  0  0  0  0
  -26.2971  -29.6702   24.1279 H   0  0  0  0  0  0
  -27.3980  -29.7262   25.4840 H   0  0  0  0  0  0
  -27.8883  -30.4208   23.9583 H   0  0  0  0  0  0
  -27.2647  -33.3656   26.2026 H   0  0  0  0  0  0
  -28.3884  -32.6864   25.0343 H   0  0  0  0  0  0
  -28.0688  -31.8493   26.5460 H   0  0  0  0  0  0
  -28.2594  -38.0090   24.7510 H   0  0  0  0  0  0
  -28.1075  -36.2619   24.6296 H   0  0  0  0  0  0
  -27.2298  -37.1447   25.8873 H   0  0  0  0  0  0
  -20.9447  -29.8775   21.6800 H   0  0  0  0  0  0
  -26.0157  -38.2827   24.1401 H   0  0  0  0  0  0
  -30.4875  -19.6097   18.4252 H   0  0  0  0  0  0
  -27.2876  -22.1724   22.5032 H   0  0  0  0  0  0
  -28.7980  -21.8738   23.3729 H   0  0  0  0  0  0
  -27.5717  -20.6063   23.2579 H   0  0  0  0  0  0
  -30.0694  -23.8017   20.1927 H   0  0  0  0  0  0
  -29.1813  -23.6912   21.6494 H   0  0  0  0  0  0
  -31.0874  -17.6536   21.2574 H   0  0  0  0  0  0
  -31.0289  -17.5153   19.5465 H   0  0  0  0  0  0
  -27.0767  -24.4615   20.4612 H   0  0  0  0  0  0
  -27.9363  -24.5441   18.9545 H   0  0  0  0  0  0
  -28.8518  -15.9958   20.7332 H   0  0  0  0  0  0
  1 25  1  0  0  0
  1 30  2  0  0  0
  1 81  1  0  0  0
  2  3  1  0  0  0
  2 25  1  0  0  0
  2 82  1  0  0  0
  2 83  1  0  0  0
  3  4  1  0  0  0
  3 84  1  0  0  0
  3 85  1  0  0  0
  4  5  1  0  0  0
  4 86  1  0  0  0
  4 87  1  0  0  0
  5  6  1  0  0  0
  5 26  1  0  0  0
  5 88  1  0  0  0
  6 25  1  0  0  0
  6 89  1  0  0  0
  6 90  1  0  0  0
  7  8  2  0  0  0
  7 26  1  0  0  0
  7 29  1  0  0  0
  8  9  1  0  0  0
  8 22  1  0  0  0
  9 10  1  0  0  0
  9 27  2  0  0  0
 10 11  2  0  0  0
 10 15  1  0  0  0
 11 12  1  0  0  0
 11 91  1  0  0  0
 12 13  2  0  0  0
 12 92  1  0  0  0
 13 14  1  0  0  0
 13 31  1  0  0  0
 14 15  2  0  0  0
 14 93  1  0  0  0
 15 94  1  0  0  0
 16 17  2  0  0  0
 16 21  1  0  0  0
 16 31  1  0  0  0
 17 18  1  0  0  0
 17 95  1  0  0  0
 18 19  2  0  0  0
 18 96  1  0  0  0
 19 20  1  0  0  0
 19 24  1  0  0  0
 20 21  2  0  0  0
 20 97  1  0  0  0
 21 23  1  0  0  0
 22 28  1  0  0  0
 22 32  2  0  0  0
 26 27  1  0  0  0
 28 98  1  0  0  0
 28 99  1  0  0  0
 29100  1  0  0  0
 29101  1  0  0  0
 33 34  1  0  0  0
 33 66  1  0  0  0
 33 70  2  0  0  0
 34 36  1  0  0  0
 34 59  1  0  0  0
 34102  1  0  0  0
 35 44  2  0  0  0
 35 45  1  0  0  0
 35 68  1  0  0  0
 36 56  1  0  0  0
 36103  1  0  0  0
 37 39  1  0  0  0
 37 47  1  0  0  0
 37 66  1  0  0  0
 37104  1  0  0  0
 38 43  2  0  0  0
 38 46  1  0  0  0
 38 47  1  0  0  0
 39 64  1  0  0  0
 39 67  2  0  0  0
 40 52  1  0  0  0
 40 53  2  0  0  0
 40 58  1  0  0  0
 41105  1  0  0  0
 41106  1  0  0  0
 41107  1  0  0  0
 41 48  1  0  0  0
 42 43  1  0  0  0
 42 66  1  0  0  0
 42108  1  0  0  0
 42109  1  0  0  0
 43 44  1  0  0  0
 44110  1  0  0  0
 45 46  2  0  0  0
 45111  1  0  0  0
 46112  1  0  0  0
 47113  1  0  0  0
 47114  1  0  0  0
 48 56  1  0  0  0
 48 65  1  0  0  0
 48115  1  0  0  0
 49 50  1  0  0  0
 49 53  1  0  0  0
 49 64  1  0  0  0
 49116  1  0  0  0
 50 51  1  0  0  0
 50117  1  0  0  0
 50118  1  0  0  0
 51 52  1  0  0  0
 51119  1  0  0  0
 51120  1  0  0  0
 52121  1  0  0  0
 52122  1  0  0  0
 53 54  1  0  0  0
 54 55  2  0  0  0
 54123  1  0  0  0
 55 57  1  0  0  0
 55124  1  0  0  0
 56 69  2  0  0  0
 57 58  2  0  0  0
 57125  1  0  0  0
 58126  1  0  0  0
 59 60  1  0  0  0
 59 61  1  0  0  0
 59 62  1  0  0  0
 60127  1  0  0  0
 60128  1  0  0  0
 60129  1  0  0  0
 61130  1  0  0  0
 61131  1  0  0  0
 61132  1  0  0  0
 62133  1  0  0  0
 62134  1  0  0  0
 62135  1  0  0  0
 63 65  1  0  0  0
 63136  1  0  0  0
 63137  1  0  0  0
 63138  1  0  0  0
 64139  1  0  0  0
 65140  1  0  0  0
 68 78  1  0  0  0
 71 72  2  0  0  0
 71 79  1  0  0  0
 71141  1  0  0  0
 72 77  1  0  0  0
 72 80  1  0  0  0
 73 74  1  0  0  0
 73 75  1  0  0  0
 73 80  2  0  0  0
 74 76  1  0  0  0
 74 79  2  0  0  0
 75142  1  0  0  0
 75143  1  0  0  0
 75144  1  0  0  0
 76 78  1  0  0  0
 76145  1  0  0  0
 76146  1  0  0  0
 77 81  1  0  0  0
 77147  1  0  0  0
 77148  1  0  0  0
 78149  1  0  0  0
 78150  1  0  0  0
 81151  1  0  0  0
M  ISO  4   1 100  68 101  78 101  81 100
M  END
> <chiral flag>
0

> <version>
0

> <s_m_source_file>
/data/baiqing/PycharmProjects/Reinvent-master-3.2/result/LINK_invent/BTK/process_docking_weight1_custom_sum_contain_oxygen_bond_distance_aromatic_linkinvent_7_9_3/rearranged_h_0184.sdf

> <i_m_source_file_index>
95

> <r_mmod_Potential_Energy-OPLS-2005>
357.853973388672

> <r_mmod_Stretch_Energy-OPLS-2005>
206.406265258789

> <r_mmod_Bend_Energy-OPLS-2005>
243.741744995117

> <r_mmod_Torsional_Energy-OPLS-2005>
211.445068359375

> <r_mmod_Improper_Torsional_Energy-OPLS-2005>
9.5782585144043

> <r_mmod_Van_der_Waal_Energy-OPLS-2005>
137.748184204102

> <r_mmod_Electrostatic_Energy-OPLS-2005>
-379.201599121094

> <r_mmod_Solvation_Energy-OPLS-2005>
-228.192337036133

> <b_mmod_Minimization_Converged-OPLS-2005>
0

> <r_mmod_RMS_Derivative-OPLS-2005>
1.03196740150452

$$$$
95
                    3D
 Structure written by MMmdl.
152161  0  0  1  0            999 V2000
  -30.5391  -15.0912   20.3702 C   0  0  0  0  0  0
  -30.4284  -12.6909   19.4905 C   0  0  0  0  0  0
  -29.5176  -12.5518   18.2474 C   0  0  0  0  0  0
  -28.0624  -12.3020   18.6792 C   0  0  0  0  0  0
  -27.6170  -13.2589   19.8149 C   0  0  2  0  0  0
  -28.6635  -13.3919   20.9407 C   0  0  0  0  0  0
  -25.2443  -13.8214   20.5717 C   0  0  0  0  0  0
  -24.1791  -13.0436   20.9251 C   0  0  0  0  0  0
  -24.6400  -11.6920   20.8730 C   0  0  0  0  0  0
  -23.9060  -10.4276   21.0357 C   0  0  0  0  0  0
  -24.3629   -9.4204   21.9142 C   0  0  0  0  0  0
  -23.6311   -8.2238   22.0710 C   0  0  0  0  0  0
  -22.4272   -8.0261   21.3538 C   0  0  0  0  0  0
  -21.9896   -9.0214   20.4621 C   0  0  0  0  0  0
  -22.7205  -10.2118   20.3014 C   0  0  0  0  0  0
  -21.6848   -6.0727   22.5283 C   0  0  0  0  0  0
  -21.4019   -6.5630   23.8218 C   0  0  0  0  0  0
  -21.3669   -5.6780   24.9177 C   0  0  0  0  0  0
  -21.6060   -4.3040   24.7220 C   0  0  0  0  0  0
  -21.8819   -3.8134   23.4332 C   0  0  0  0  0  0
  -21.9199   -4.6960   22.3390 C   0  0  0  0  0  0
  -22.7795  -13.5196   21.1911 C   0  0  0  0  0  0
  -22.1662   -4.2155   21.0959 F   0  0  0  0  0  0
  -21.5648   -3.4517   25.7722 F   0  0  0  0  0  0
  -29.9128  -13.8352   20.3071 N   0  0  0  0  0  0
  -26.2858  -12.9464   20.3161 N   0  0  0  0  0  0
  -25.9340  -11.6586   20.5711 N   0  0  0  0  0  0
  -22.0442  -12.8165   22.0451 N   0  0  0  0  0  0
  -25.4115  -15.1954   20.4184 N   0  0  0  0  0  0
  -31.7699  -15.0573   20.2340 O   0  0  0  0  0  0
  -21.6652   -6.8852   21.4231 O   0  0  0  0  0  0
  -22.3475  -14.5491   20.6715 O   0  0  0  0  0  0
  -24.6574  -31.8357   23.1795 C   0  0  0  0  0  0
  -25.9319  -32.4648   23.8220 C   0  0  1  0  0  0
  -27.2141  -27.0345   20.1177 C   0  0  0  0  0  0
  -25.6046  -33.8445   24.2179 N   0  0  0  0  0  0
  -23.4625  -30.4500   21.5326 C   0  0  2  0  0  0
  -24.9051  -28.8542   20.1116 C   0  0  0  0  0  0
  -22.7627  -29.4498   22.4871 C   0  0  0  0  0  0
  -18.0333  -28.1365   22.8475 C   0  0  0  0  0  0
  -24.1501  -36.7215   23.2628 C   0  0  0  0  0  0
  -26.0288  -30.6635   21.3969 C   0  0  0  0  0  0
  -26.0923  -29.2682   20.7302 C   0  0  0  0  0  0
  -27.2430  -28.3758   20.7124 C   0  0  0  0  0  0
  -25.9966  -26.7466   19.4646 C   0  0  0  0  0  0
  -24.8742  -27.6080   19.4683 C   0  0  0  0  0  0
  -23.6898  -29.7731   20.1572 C   0  0  0  0  0  0
  -25.4148  -36.3008   24.0304 C   0  0  1  0  0  0
  -20.5946  -28.3717   23.1213 C   0  0  2  0  0  0
  -20.6829  -26.9412   22.5405 C   0  0  0  0  0  0
  -19.5807  -26.6361   21.5219 C   0  0  0  0  0  0
  -18.1975  -26.7918   22.1605 C   0  0  0  0  0  0
  -19.1582  -28.8863   23.2833 C   0  0  0  0  0  0
  -18.9483  -30.1461   23.8862 C   0  0  0  0  0  0
  -17.6463  -30.6564   24.0536 C   0  0  0  0  0  0
  -25.9108  -34.9378   23.5058 C   0  0  0  0  0  0
  -16.5363  -29.9032   23.6327 C   0  0  0  0  0  0
  -16.7305  -28.6443   23.0367 C   0  0  0  0  0  0
  -26.4609  -31.6518   25.0688 C   0  0  0  0  0  0
  -25.3762  -31.3739   26.1355 C   0  0  0  0  0  0
  -27.0485  -30.2894   24.6337 C   0  0  0  0  0  0
  -27.6136  -32.4282   25.7496 C   0  0  0  0  0  0
  -27.5601  -37.1766   24.8458 C   0  0  0  0  0  0
  -21.4313  -29.3030   22.3563 N   0  0  0  0  0  0
  -26.4322  -37.3725   23.9387 N   0  0  0  0  0  0
  -24.7375  -31.0090   22.0896 N   0  0  0  0  0  0
  -23.4207  -28.8084   23.3098 O   0  0  0  0  0  0
  -28.2465  -25.9918   20.1438 O   0  0  0  0  0  0
  -26.5643  -34.8861   22.4612 O   0  0  0  0  0  0
  -23.5667  -32.1301   23.6931 O   0  0  0  0  0  0
  -28.8978  -18.5134   19.3837 C   0  0  0  0  0  0
  -29.6177  -19.0169   20.4323 C   0  0  0  0  0  0
  -28.2649  -20.7330   18.7797 C   0  0  0  0  0  0
  -28.9308  -21.3696   19.8975 C   0  0  0  0  0  0
  -28.9914  -16.9400   19.3146 C   0  0  0  0  0  0
  -30.3007  -17.7212   21.0896 C   0  0  0  0  0  0
  -27.6127  -21.5518   17.6771 C   0  0  0  0  0  0
  -29.0895  -23.0669   20.0731 C   0  0  0  0  0  0
  -27.9983  -24.4193   19.9129 C   0  0  0  0  0  0
  -28.2163  -19.3570   18.5544 N   0  0  0  0  0  0
  -29.6355  -20.4216   20.7125 N   0  0  0  0  0  0
  -29.8446  -16.3700   20.4358 N   0  0  0  0  0  0
  -31.4604  -12.8509   19.1766 H   0  0  0  0  0  0
  -30.4377  -11.7689   20.0741 H   0  0  0  0  0  0
  -29.8639  -11.7405   17.6060 H   0  0  0  0  0  0
  -29.5645  -13.4613   17.6489 H   0  0  0  0  0  0
  -28.0019  -11.2706   19.0206 H   0  0  0  0  0  0
  -27.3868  -12.3794   17.8277 H   0  0  0  0  0  0
  -27.5411  -14.2283   19.3296 H   0  0  0  0  0  0
  -28.7981  -12.4545   21.4777 H   0  0  0  0  0  0
  -28.3413  -14.1335   21.6731 H   0  0  0  0  0  0
  -25.2759   -9.5718   22.4737 H   0  0  0  0  0  0
  -24.0046   -7.4613   22.7405 H   0  0  0  0  0  0
  -21.0852   -8.8674   19.8914 H   0  0  0  0  0  0
  -22.3587  -10.9653   19.6148 H   0  0  0  0  0  0
  -21.1988   -7.6136   23.9713 H   0  0  0  0  0  0
  -21.1520   -6.0523   25.9098 H   0  0  0  0  0  0
  -22.0594   -2.7602   23.2824 H   0  0  0  0  0  0
  -22.4072  -11.9895   22.4977 H   0  0  0  0  0  0
  -21.1024  -13.1168   22.2574 H   0  0  0  0  0  0
  -24.6453  -15.8467   20.5452 H   0  0  0  0  0  0
  -26.2714  -15.6376   20.1248 H   0  0  0  0  0  0
  -26.7374  -32.5195   23.0911 H   0  0  0  0  0  0
  -25.0301  -33.9552   25.0398 H   0  0  0  0  0  0
  -22.7741  -31.2823   21.3752 H   0  0  0  0  0  0
  -23.3802  -35.9510   23.3286 H   0  0  0  0  0  0
  -24.3594  -36.8848   22.2046 H   0  0  0  0  0  0
  -23.7208  -37.6381   23.6678 H   0  0  0  0  0  0
  -26.2115  -31.4129   20.6243 H   0  0  0  0  0  0
  -26.8908  -30.7052   22.0494 H   0  0  0  0  0  0
  -28.1445  -28.6917   21.2158 H   0  0  0  0  0  0
  -25.8845  -25.8026   18.9511 H   0  0  0  0  0  0
  -23.9688  -27.2892   18.9679 H   0  0  0  0  0  0
  -23.8224  -30.5465   19.4009 H   0  0  0  0  0  0
  -22.8024  -29.2206   19.8501 H   0  0  0  0  0  0
  -25.1345  -36.1859   25.0806 H   0  0  0  0  0  0
  -21.0033  -28.3322   24.1329 H   0  0  0  0  0  0
  -20.5764  -26.2330   23.3631 H   0  0  0  0  0  0
  -21.6692  -26.7416   22.1184 H   0  0  0  0  0  0
  -19.6973  -25.6271   21.1262 H   0  0  0  0  0  0
  -19.6763  -27.3162   20.6748 H   0  0  0  0  0  0
  -17.4281  -26.6684   21.3970 H   0  0  0  0  0  0
  -18.0310  -26.0050   22.8977 H   0  0  0  0  0  0
  -19.7946  -30.7294   24.2218 H   0  0  0  0  0  0
  -17.4997  -31.6242   24.5133 H   0  0  0  0  0  0
  -15.5358  -30.2903   23.7670 H   0  0  0  0  0  0
  -15.8708  -28.0721   22.7127 H   0  0  0  0  0  0
  -24.5956  -30.7084   25.7661 H   0  0  0  0  0  0
  -24.8933  -32.2925   26.4693 H   0  0  0  0  0  0
  -25.7990  -30.8958   27.0193 H   0  0  0  0  0  0
  -26.3103  -29.6578   24.1369 H   0  0  0  0  0  0
  -27.4105  -29.7238   25.4937 H   0  0  0  0  0  0
  -27.9031  -30.4124   23.9672 H   0  0  0  0  0  0
  -27.2751  -33.3613   26.2005 H   0  0  0  0  0  0
  -28.3988  -32.6774   25.0349 H   0  0  0  0  0  0
  -28.0761  -31.8441   26.5456 H   0  0  0  0  0  0
  -28.2608  -38.0068   24.7543 H   0  0  0  0  0  0
  -28.1117  -36.2613   24.6289 H   0  0  0  0  0  0
  -27.2308  -37.1389   25.8848 H   0  0  0  0  0  0
  -20.9547  -29.8675   21.6651 H   0  0  0  0  0  0
  -26.0204  -38.2802   24.1371 H   0  0  0  0  0  0
  -29.4145  -16.6419   18.3547 H   0  0  0  0  0  0
  -27.9877  -16.5217   19.3651 H   0  0  0  0  0  0
  -30.0853  -17.7075   22.1588 H   0  0  0  0  0  0
  -31.3855  -17.8131   20.9995 H   0  0  0  0  0  0
  -26.6384  -21.9187   17.9957 H   0  0  0  0  0  0
  -27.4693  -20.9579   16.7711 H   0  0  0  0  0  0
  -28.2370  -22.4048   17.3986 H   0  0  0  0  0  0
  -29.8709  -23.2944   19.3471 H   0  0  0  0  0  0
  -29.5752  -23.2052   21.0388 H   0  0  0  0  0  0
  -27.1366  -24.1794   20.5364 H   0  0  0  0  0  0
  -27.6268  -24.3497   18.8900 H   0  0  0  0  0  0
  1 25  1  0  0  0
  1 30  2  0  0  0
  1 82  1  0  0  0
  2  3  1  0  0  0
  2 25  1  0  0  0
  2 83  1  0  0  0
  2 84  1  0  0  0
  3  4  1  0  0  0
  3 85  1  0  0  0
  3 86  1  0  0  0
  4  5  1  0  0  0
  4 87  1  0  0  0
  4 88  1  0  0  0
  5  6  1  0  0  0
  5 26  1  0  0  0
  5 89  1  0  0  0
  6 25  1  0  0  0
  6 90  1  0  0  0
  6 91  1  0  0  0
  7  8  2  0  0  0
  7 26  1  0  0  0
  7 29  1  0  0  0
  8  9  1  0  0  0
  8 22  1  0  0  0
  9 10  1  0  0  0
  9 27  2  0  0  0
 10 11  2  0  0  0
 10 15  1  0  0  0
 11 12  1  0  0  0
 11 92  1  0  0  0
 12 13  2  0  0  0
 12 93  1  0  0  0
 13 14  1  0  0  0
 13 31  1  0  0  0
 14 15  2  0  0  0
 14 94  1  0  0  0
 15 95  1  0  0  0
 16 17  2  0  0  0
 16 21  1  0  0  0
 16 31  1  0  0  0
 17 18  1  0  0  0
 17 96  1  0  0  0
 18 19  2  0  0  0
 18 97  1  0  0  0
 19 20  1  0  0  0
 19 24  1  0  0  0
 20 21  2  0  0  0
 20 98  1  0  0  0
 21 23  1  0  0  0
 22 28  1  0  0  0
 22 32  2  0  0  0
 26 27  1  0  0  0
 28 99  1  0  0  0
 28100  1  0  0  0
 29101  1  0  0  0
 29102  1  0  0  0
 33 34  1  0  0  0
 33 66  1  0  0  0
 33 70  2  0  0  0
 34 36  1  0  0  0
 34 59  1  0  0  0
 34103  1  0  0  0
 35 44  2  0  0  0
 35 45  1  0  0  0
 35 68  1  0  0  0
 36 56  1  0  0  0
 36104  1  0  0  0
 37 39  1  0  0  0
 37 47  1  0  0  0
 37 66  1  0  0  0
 37105  1  0  0  0
 38 43  2  0  0  0
 38 46  1  0  0  0
 38 47  1  0  0  0
 39 64  1  0  0  0
 39 67  2  0  0  0
 40 52  1  0  0  0
 40 53  2  0  0  0
 40 58  1  0  0  0
 41106  1  0  0  0
 41107  1  0  0  0
 41108  1  0  0  0
 41 48  1  0  0  0
 42 43  1  0  0  0
 42 66  1  0  0  0
 42109  1  0  0  0
 42110  1  0  0  0
 43 44  1  0  0  0
 44111  1  0  0  0
 45 46  2  0  0  0
 45112  1  0  0  0
 46113  1  0  0  0
 47114  1  0  0  0
 47115  1  0  0  0
 48 56  1  0  0  0
 48 65  1  0  0  0
 48116  1  0  0  0
 49 50  1  0  0  0
 49 53  1  0  0  0
 49 64  1  0  0  0
 49117  1  0  0  0
 50 51  1  0  0  0
 50118  1  0  0  0
 50119  1  0  0  0
 51 52  1  0  0  0
 51120  1  0  0  0
 51121  1  0  0  0
 52122  1  0  0  0
 52123  1  0  0  0
 53 54  1  0  0  0
 54 55  2  0  0  0
 54124  1  0  0  0
 55 57  1  0  0  0
 55125  1  0  0  0
 56 69  2  0  0  0
 57 58  2  0  0  0
 57126  1  0  0  0
 58127  1  0  0  0
 59 60  1  0  0  0
 59 61  1  0  0  0
 59 62  1  0  0  0
 60128  1  0  0  0
 60129  1  0  0  0
 60130  1  0  0  0
 61131  1  0  0  0
 61132  1  0  0  0
 61133  1  0  0  0
 62134  1  0  0  0
 62135  1  0  0  0
 62136  1  0  0  0
 63 65  1  0  0  0
 63137  1  0  0  0
 63138  1  0  0  0
 63139  1  0  0  0
 64140  1  0  0  0
 65141  1  0  0  0
 68 79  1  0  0  0
 71 72  1  0  0  0
 71 75  1  0  0  0
 71 80  2  0  0  0
 72 76  1  0  0  0
 72 81  2  0  0  0
 73 74  2  0  0  0
 73 77  1  0  0  0
 73 80  1  0  0  0
 74 78  1  0  0  0
 74 81  1  0  0  0
 75 82  1  0  0  0
 75142  1  0  0  0
 75143  1  0  0  0
 76 82  1  0  0  0
 76144  1  0  0  0
 76145  1  0  0  0
 77146  1  0  0  0
 77147  1  0  0  0
 77148  1  0  0  0
 78 79  1  0  0  0
 78149  1  0  0  0
 78150  1  0  0  0
 79151  1  0  0  0
 79152  1  0  0  0
M  ISO  4   1 100  68 101  79 101  82 100
M  END
> <chiral flag>
0

> <version>
0

> <s_m_source_file>
/data/baiqing/PycharmProjects/Reinvent-master-3.2/result/LINK_invent/BTK/process_docking_weight1_custom_sum_contain_oxygen_bond_distance_aromatic_linkinvent_7_9_3/rearranged_h_0184.sdf

> <i_m_source_file_index>
96

> <r_mmod_Potential_Energy-OPLS-2005>
848.744079589844

> <r_mmod_Stretch_Energy-OPLS-2005>
369.419219970703

> <r_mmod_Bend_Energy-OPLS-2005>
370.654479980469

> <r_mmod_Torsional_Energy-OPLS-2005>
265.018585205078

> <r_mmod_Improper_Torsional_Energy-OPLS-2005>
6.75033235549927

> <r_mmod_Van_der_Waal_Energy-OPLS-2005>
119.439971923828

> <r_mmod_Electrostatic_Energy-OPLS-2005>
-353.868072509766

> <r_mmod_Solvation_Energy-OPLS-2005>
-230.891418457031

> <b_mmod_Minimization_Converged-OPLS-2005>
0

> <r_mmod_RMS_Derivative-OPLS-2005>
5.00984668731689

$$$$
96
                    3D
 Structure written by MMmdl.
153161  0  0  1  0            999 V2000
  -30.4363  -15.2649   20.3644 C   0  0  0  0  0  0
  -30.4369  -12.8035   19.5380 C   0  0  0  0  0  0
  -29.5380  -12.5804   18.2951 C   0  0  0  0  0  0
  -28.0854  -12.3043   18.7181 C   0  0  0  0  0  0
  -27.6131  -13.2764   19.8277 C   0  0  2  0  0  0
  -28.6436  -13.4484   20.9656 C   0  0  0  0  0  0
  -25.2387  -13.8250   20.5746 C   0  0  0  0  0  0
  -24.1741  -13.0438   20.9260 C   0  0  0  0  0  0
  -24.6398  -11.6935   20.8763 C   0  0  0  0  0  0
  -23.9094  -10.4293   21.0406 C   0  0  0  0  0  0
  -24.3637   -9.4206   21.9184 C   0  0  0  0  0  0
  -23.6304   -8.2244   22.0754 C   0  0  0  0  0  0
  -22.4286   -8.0284   21.3544 C   0  0  0  0  0  0
  -21.9928   -9.0258   20.4645 C   0  0  0  0  0  0
  -22.7264  -10.2134   20.3054 C   0  0  0  0  0  0
  -21.6856   -6.0738   22.5279 C   0  0  0  0  0  0
  -21.4017   -6.5641   23.8212 C   0  0  0  0  0  0
  -21.3660   -5.6793   24.9174 C   0  0  0  0  0  0
  -21.6044   -4.3056   24.7224 C   0  0  0  0  0  0
  -21.8819   -3.8148   23.4345 C   0  0  0  0  0  0
  -21.9194   -4.6965   22.3402 C   0  0  0  0  0  0
  -22.7758  -13.5189   21.1904 C   0  0  0  0  0  0
  -22.1662   -4.2151   21.0980 F   0  0  0  0  0  0
  -21.5628   -3.4539   25.7737 F   0  0  0  0  0  0
  -29.8807  -13.9523   20.3475 N   0  0  0  0  0  0
  -26.2818  -12.9527   20.3229 N   0  0  0  0  0  0
  -25.9336  -11.6631   20.5726 N   0  0  0  0  0  0
  -22.0415  -12.8169   22.0455 N   0  0  0  0  0  0
  -25.4020  -15.1984   20.4168 N   0  0  0  0  0  0
  -31.6464  -15.2716   20.0977 O   0  0  0  0  0  0
  -21.6645   -6.8883   21.4242 O   0  0  0  0  0  0
  -22.3441  -14.5492   20.6745 O   0  0  0  0  0  0
  -24.6626  -31.8229   23.1702 C   0  0  0  0  0  0
  -25.9308  -32.4583   23.8167 C   0  0  1  0  0  0
  -27.2193  -26.9236   20.1835 C   0  0  0  0  0  0
  -25.5975  -33.8399   24.2069 N   0  0  0  0  0  0
  -23.4779  -30.4339   21.5189 C   0  0  2  0  0  0
  -24.9326  -28.8213   20.1087 C   0  0  0  0  0  0
  -22.7666  -29.4434   22.4776 C   0  0  0  0  0  0
  -18.0322  -28.1409   22.8466 C   0  0  0  0  0  0
  -24.1494  -36.7205   23.2647 C   0  0  0  0  0  0
  -26.0467  -30.6268   21.4030 C   0  0  0  0  0  0
  -26.1140  -29.2164   20.7475 C   0  0  0  0  0  0
  -27.2489  -28.2869   20.7642 C   0  0  0  0  0  0
  -26.0144  -26.6886   19.4819 C   0  0  0  0  0  0
  -24.9088  -27.5785   19.4554 C   0  0  0  0  0  0
  -23.7181  -29.7488   20.1448 C   0  0  0  0  0  0
  -25.4135  -36.2965   24.0298 C   0  0  1  0  0  0
  -20.5946  -28.3754   23.1187 C   0  0  2  0  0  0
  -20.6797  -26.9434   22.5403 C   0  0  0  0  0  0
  -19.5772  -26.6377   21.5214 C   0  0  0  0  0  0
  -18.1954  -26.7942   22.1622 C   0  0  0  0  0  0
  -19.1584  -28.8903   23.2813 C   0  0  0  0  0  0
  -18.9494  -30.1492   23.8849 C   0  0  0  0  0  0
  -17.6487  -30.6598   24.0555 C   0  0  0  0  0  0
  -25.9100  -34.9347   23.5006 C   0  0  0  0  0  0
  -16.5377  -29.9085   23.6344 C   0  0  0  0  0  0
  -16.7304  -28.6506   23.0362 C   0  0  0  0  0  0
  -26.4560  -31.6534   25.0699 C   0  0  0  0  0  0
  -25.3684  -31.3787   26.1354 C   0  0  0  0  0  0
  -27.0463  -30.2900   24.6445 C   0  0  0  0  0  0
  -27.6046  -32.4350   25.7503 C   0  0  0  0  0  0
  -27.5570  -37.1759   24.8466 C   0  0  0  0  0  0
  -21.4335  -29.3041   22.3531 N   0  0  0  0  0  0
  -26.4280  -37.3702   23.9407 N   0  0  0  0  0  0
  -24.7502  -30.9886   22.0842 N   0  0  0  0  0  0
  -23.4213  -28.8005   23.3021 O   0  0  0  0  0  0
  -28.2167  -25.8155   20.3001 O   0  0  0  0  0  0
  -26.5714  -34.8884   22.4605 O   0  0  0  0  0  0
  -23.5696  -32.1204   23.6792 O   0  0  0  0  0  0
  -29.5625  -21.3400   19.9805 C   0  0  0  0  0  0
  -27.3971  -21.5082   20.6798 C   0  0  0  0  0  0
  -29.2693  -19.7690   20.5807 C   0  0  2  0  0  0
  -28.5737  -22.5902   20.5905 C   0  0  1  0  0  0
  -29.0696  -22.9128   22.0106 C   0  0  0  0  0  0
  -29.8868  -18.1434   20.0486 C   0  0  0  0  0  0
  -28.0608  -24.2086   19.9334 C   0  0  0  0  0  0
  -29.6735  -16.5364   20.4748 N   0  0  0  0  0  0
  -27.8089  -20.0189   20.7507 N   0  3  0  0  0  0
  -31.4591  -12.9985   19.2111 H   0  0  0  0  0  0
  -30.4952  -11.8959   20.1410 H   0  0  0  0  0  0
  -29.9180  -11.7548   17.6918 H   0  0  0  0  0  0
  -29.5713  -13.4668   17.6597 H   0  0  0  0  0  0
  -28.0393  -11.2789   19.0868 H   0  0  0  0  0  0
  -27.4190  -12.3502   17.8559 H   0  0  0  0  0  0
  -27.5304  -14.2445   19.3324 H   0  0  0  0  0  0
  -28.8064  -12.5133   21.5035 H   0  0  0  0  0  0
  -28.2812  -14.1699   21.6995 H   0  0  0  0  0  0
  -25.2778   -9.5681   22.4765 H   0  0  0  0  0  0
  -24.0009   -7.4636   22.7476 H   0  0  0  0  0  0
  -21.0858   -8.8782   19.8950 H   0  0  0  0  0  0
  -22.3721  -10.9674   19.6166 H   0  0  0  0  0  0
  -21.2010   -7.6149   23.9716 H   0  0  0  0  0  0
  -21.1482   -6.0523   25.9077 H   0  0  0  0  0  0
  -22.0597   -2.7610   23.2845 H   0  0  0  0  0  0
  -22.4047  -11.9837   22.4844 H   0  0  0  0  0  0
  -21.1025  -13.1172   22.2655 H   0  0  0  0  0  0
  -24.6255  -15.8434   20.5157 H   0  0  0  0  0  0
  -26.2332  -15.6334   20.0396 H   0  0  0  0  0  0
  -26.7376  -32.5119   23.0879 H   0  0  0  0  0  0
  -25.0067  -33.9477   25.0183 H   0  0  0  0  0  0
  -22.7912  -31.2656   21.3477 H   0  0  0  0  0  0
  -23.3768  -35.9522   23.3276 H   0  0  0  0  0  0
  -24.3570  -36.8887   22.2068 H   0  0  0  0  0  0
  -23.7238  -37.6378   23.6727 H   0  0  0  0  0  0
  -26.2284  -31.3675   20.6232 H   0  0  0  0  0  0
  -26.9063  -30.6835   22.0589 H   0  0  0  0  0  0
  -28.1386  -28.5837   21.3016 H   0  0  0  0  0  0
  -25.8853  -25.7454   18.9729 H   0  0  0  0  0  0
  -24.0134  -27.2729   18.9317 H   0  0  0  0  0  0
  -23.8724  -30.5174   19.3865 H   0  0  0  0  0  0
  -22.8281  -29.2025   19.8277 H   0  0  0  0  0  0
  -25.1334  -36.1759   25.0789 H   0  0  0  0  0  0
  -21.0035  -28.3363   24.1310 H   0  0  0  0  0  0
  -20.5676  -26.2373   23.3645 H   0  0  0  0  0  0
  -21.6661  -26.7408   22.1211 H   0  0  0  0  0  0
  -19.6930  -25.6275   21.1276 H   0  0  0  0  0  0
  -19.6711  -27.3160   20.6723 H   0  0  0  0  0  0
  -17.4223  -26.6685   21.4026 H   0  0  0  0  0  0
  -18.0348  -26.0096   22.9029 H   0  0  0  0  0  0
  -19.7969  -30.7322   24.2197 H   0  0  0  0  0  0
  -17.5038  -31.6273   24.5166 H   0  0  0  0  0  0
  -15.5375  -30.2972   23.7696 H   0  0  0  0  0  0
  -15.8705  -28.0808   22.7105 H   0  0  0  0  0  0
  -24.5883  -30.7118   25.7663 H   0  0  0  0  0  0
  -24.8854  -32.2989   26.4651 H   0  0  0  0  0  0
  -25.7913  -30.9039   27.0216 H   0  0  0  0  0  0
  -26.3135  -29.6567   24.1432 H   0  0  0  0  0  0
  -27.3970  -29.7274   25.5107 H   0  0  0  0  0  0
  -27.9085  -30.4079   23.9879 H   0  0  0  0  0  0
  -27.2609  -33.3696   26.1949 H   0  0  0  0  0  0
  -28.3926  -32.6841   25.0383 H   0  0  0  0  0  0
  -28.0639  -31.8567   26.5530 H   0  0  0  0  0  0
  -28.2565  -38.0075   24.7516 H   0  0  0  0  0  0
  -28.1088  -36.2601   24.6291 H   0  0  0  0  0  0
  -27.2285  -37.1397   25.8867 H   0  0  0  0  0  0
  -20.9590  -29.8728   21.6657 H   0  0  0  0  0  0
  -26.0126  -38.2759   24.1417 H   0  0  0  0  0  0
  -29.4194  -21.3059   18.8994 H   0  0  0  0  0  0
  -30.6138  -21.5952   20.1163 H   0  0  0  0  0  0
  -26.7888  -21.6049   19.7796 H   0  0  0  0  0  0
  -26.7207  -21.7388   21.5037 H   0  0  0  0  0  0
  -29.6471  -19.8244   21.6020 H   0  0  0  0  0  0
  -29.2932  -22.0167   22.5894 H   0  0  0  0  0  0
  -28.3242  -23.4831   22.5662 H   0  0  0  0  0  0
  -29.9778  -23.5149   21.9732 H   0  0  0  0  0  0
  -30.9712  -18.2551   20.0802 H   0  0  0  0  0  0
  -29.6693  -18.1246   18.9805 H   0  0  0  0  0  0
  -26.9777  -24.0997   19.9342 H   0  0  0  0  0  0
  -28.3106  -24.1668   18.8732 H   0  0  0  0  0  0
  -28.7184  -16.3471   20.7421 H   0  0  0  0  0  0
  -27.3078  -19.5289   20.0280 H   0  0  0  0  0  0
  -27.5130  -19.6290   21.6308 H   0  0  0  0  0  0
  1 25  1  0  0  0
  1 30  2  0  0  0
  1 78  1  0  0  0
  2  3  1  0  0  0
  2 25  1  0  0  0
  2 80  1  0  0  0
  2 81  1  0  0  0
  3  4  1  0  0  0
  3 82  1  0  0  0
  3 83  1  0  0  0
  4  5  1  0  0  0
  4 84  1  0  0  0
  4 85  1  0  0  0
  5  6  1  0  0  0
  5 26  1  0  0  0
  5 86  1  0  0  0
  6 25  1  0  0  0
  6 87  1  0  0  0
  6 88  1  0  0  0
  7  8  2  0  0  0
  7 26  1  0  0  0
  7 29  1  0  0  0
  8  9  1  0  0  0
  8 22  1  0  0  0
  9 10  1  0  0  0
  9 27  2  0  0  0
 10 11  2  0  0  0
 10 15  1  0  0  0
 11 12  1  0  0  0
 11 89  1  0  0  0
 12 13  2  0  0  0
 12 90  1  0  0  0
 13 14  1  0  0  0
 13 31  1  0  0  0
 14 15  2  0  0  0
 14 91  1  0  0  0
 15 92  1  0  0  0
 16 17  2  0  0  0
 16 21  1  0  0  0
 16 31  1  0  0  0
 17 18  1  0  0  0
 17 93  1  0  0  0
 18 19  2  0  0  0
 18 94  1  0  0  0
 19 20  1  0  0  0
 19 24  1  0  0  0
 20 21  2  0  0  0
 20 95  1  0  0  0
 21 23  1  0  0  0
 22 28  1  0  0  0
 22 32  2  0  0  0
 26 27  1  0  0  0
 28 96  1  0  0  0
 28 97  1  0  0  0
 29 98  1  0  0  0
 29 99  1  0  0  0
 33 34  1  0  0  0
 33 66  1  0  0  0
 33 70  2  0  0  0
 34 36  1  0  0  0
 34 59  1  0  0  0
 34100  1  0  0  0
 35 44  2  0  0  0
 35 45  1  0  0  0
 35 68  1  0  0  0
 36 56  1  0  0  0
 36101  1  0  0  0
 37 39  1  0  0  0
 37 47  1  0  0  0
 37 66  1  0  0  0
 37102  1  0  0  0
 38 43  2  0  0  0
 38 46  1  0  0  0
 38 47  1  0  0  0
 39 64  1  0  0  0
 39 67  2  0  0  0
 40 52  1  0  0  0
 40 53  2  0  0  0
 40 58  1  0  0  0
 41103  1  0  0  0
 41104  1  0  0  0
 41105  1  0  0  0
 41 48  1  0  0  0
 42 43  1  0  0  0
 42 66  1  0  0  0
 42106  1  0  0  0
 42107  1  0  0  0
 43 44  1  0  0  0
 44108  1  0  0  0
 45 46  2  0  0  0
 45109  1  0  0  0
 46110  1  0  0  0
 47111  1  0  0  0
 47112  1  0  0  0
 48 56  1  0  0  0
 48 65  1  0  0  0
 48113  1  0  0  0
 49 50  1  0  0  0
 49 53  1  0  0  0
 49 64  1  0  0  0
 49114  1  0  0  0
 50 51  1  0  0  0
 50115  1  0  0  0
 50116  1  0  0  0
 51 52  1  0  0  0
 51117  1  0  0  0
 51118  1  0  0  0
 52119  1  0  0  0
 52120  1  0  0  0
 53 54  1  0  0  0
 54 55  2  0  0  0
 54121  1  0  0  0
 55 57  1  0  0  0
 55122  1  0  0  0
 56 69  2  0  0  0
 57 58  2  0  0  0
 57123  1  0  0  0
 58124  1  0  0  0
 59 60  1  0  0  0
 59 61  1  0  0  0
 59 62  1  0  0  0
 60125  1  0  0  0
 60126  1  0  0  0
 60127  1  0  0  0
 61128  1  0  0  0
 61129  1  0  0  0
 61130  1  0  0  0
 62131  1  0  0  0
 62132  1  0  0  0
 62133  1  0  0  0
 63 65  1  0  0  0
 63134  1  0  0  0
 63135  1  0  0  0
 63136  1  0  0  0
 64137  1  0  0  0
 65138  1  0  0  0
 68 77  1  0  0  0
 71 73  1  0  0  0
 71 74  1  0  0  0
 71139  1  0  0  0
 71140  1  0  0  0
 72 74  1  0  0  0
 72 79  1  0  0  0
 72141  1  0  0  0
 72142  1  0  0  0
 73 76  1  0  0  0
 73 79  1  0  0  0
 73143  1  0  0  0
 74 75  1  0  0  0
 74 77  1  0  0  0
 75144  1  0  0  0
 75145  1  0  0  0
 75146  1  0  0  0
 76 78  1  0  0  0
 76147  1  0  0  0
 76148  1  0  0  0
 77149  1  0  0  0
 77150  1  0  0  0
 78151  1  0  0  0
 79152  1  0  0  0
 79153  1  0  0  0
M  CHG  1  79   1
M  ISO  4   1 100  68 101  77 101  78 100
M  END
> <chiral flag>
0

> <version>
0

> <s_m_source_file>
/data/baiqing/PycharmProjects/Reinvent-master-3.2/result/LINK_invent/BTK/process_docking_weight1_custom_sum_contain_oxygen_bond_distance_aromatic_linkinvent_7_9_3/rearranged_h_0184.sdf

> <i_m_source_file_index>
97

> <r_mmod_Potential_Energy-OPLS-2005>
1197.30895996094

> <r_mmod_Stretch_Energy-OPLS-2005>
589.67578125

> <r_mmod_Bend_Energy-OPLS-2005>
519.455993652344

> <r_mmod_Torsional_Energy-OPLS-2005>
320.919067382812

> <r_mmod_Improper_Torsional_Energy-OPLS-2005>
4.61978483200073

> <r_mmod_Van_der_Waal_Energy-OPLS-2005>
107.485397338867

> <r_mmod_Electrostatic_Energy-OPLS-2005>
-296.800506591797

> <r_mmod_Solvation_Energy-OPLS-2005>
-510.137542724609

> <b_mmod_Minimization_Converged-OPLS-2005>
1

> <r_mmod_RMS_Derivative-OPLS-2005>
0.0436950549483299

$$$$
97
                    3D
 Structure written by MMmdl.
154163  0  0  1  0            999 V2000
  -30.6142  -14.6581   20.5252 C   0  0  0  0  0  0
  -30.4412  -12.4175   19.4378 C   0  0  0  0  0  0
  -29.5004  -12.5114   18.2176 C   0  0  0  0  0  0
  -28.0184  -12.3656   18.6278 C   0  0  0  0  0  0
  -27.6490  -13.2236   19.8656 C   0  0  2  0  0  0
  -28.6996  -13.0707   20.9858 C   0  0  0  0  0  0
  -25.2531  -13.8204   20.5723 C   0  0  0  0  0  0
  -24.1807  -13.0441   20.9231 C   0  0  0  0  0  0
  -24.6389  -11.6919   20.8761 C   0  0  0  0  0  0
  -23.9068  -10.4290   21.0391 C   0  0  0  0  0  0
  -24.3638   -9.4196   21.9155 C   0  0  0  0  0  0
  -23.6314   -8.2228   22.0714 C   0  0  0  0  0  0
  -22.4286   -8.0275   21.3512 C   0  0  0  0  0  0
  -21.9929   -9.0245   20.4603 C   0  0  0  0  0  0
  -22.7250  -10.2130   20.3012 C   0  0  0  0  0  0
  -21.6849   -6.0734   22.5253 C   0  0  0  0  0  0
  -21.4019   -6.5620   23.8199 C   0  0  0  0  0  0
  -21.3683   -5.6763   24.9154 C   0  0  0  0  0  0
  -21.6060   -4.3027   24.7180 C   0  0  0  0  0  0
  -21.8823   -3.8123   23.4289 C   0  0  0  0  0  0
  -21.9200   -4.6962   22.3361 C   0  0  0  0  0  0
  -22.7819  -13.5216   21.1882 C   0  0  0  0  0  0
  -22.1661   -4.2160   21.0935 F   0  0  0  0  0  0
  -21.5658   -3.4502   25.7690 F   0  0  0  0  0  0
  -30.0036  -13.4352   20.4128 N   0  0  0  0  0  0
  -26.2965  -12.9397   20.3368 N   0  0  0  0  0  0
  -25.9316  -11.6539   20.5786 N   0  0  0  0  0  0
  -22.0498  -12.8162   22.0443 N   0  0  0  0  0  0
  -25.4241  -15.1928   20.4117 N   0  0  0  0  0  0
  -31.7931  -14.8192   20.1976 O   0  0  0  0  0  0
  -21.6631   -6.8883   21.4219 O   0  0  0  0  0  0
  -22.3470  -14.5502   20.6719 O   0  0  0  0  0  0
  -24.6259  -31.8543   23.2010 C   0  0  0  0  0  0
  -25.9095  -32.4749   23.8331 C   0  0  1  0  0  0
  -27.2366  -27.2939   20.1208 C   0  0  0  0  0  0
  -25.5909  -33.8554   24.2263 N   0  0  0  0  0  0
  -23.4220  -30.4769   21.5413 C   0  0  2  0  0  0
  -24.8741  -28.9300   20.1034 C   0  0  0  0  0  0
  -22.7477  -29.4566   22.4910 C   0  0  0  0  0  0
  -18.0288  -28.1362   22.8476 C   0  0  0  0  0  0
  -24.1493  -36.7310   23.2642 C   0  0  0  0  0  0
  -25.9643  -30.7812   21.3728 C   0  0  0  0  0  0
  -26.0394  -29.4048   20.7162 C   0  0  0  0  0  0
  -27.2179  -28.5967   20.7176 C   0  0  0  0  0  0
  -26.0407  -26.8720   19.4933 C   0  0  0  0  0  0
  -24.8801  -27.6721   19.4792 C   0  0  0  0  0  0
  -23.6392  -29.8098   20.1558 C   0  0  0  0  0  0
  -25.4108  -36.3070   24.0328 C   0  0  1  0  0  0
  -20.5882  -28.3659   23.1277 C   0  0  2  0  0  0
  -20.6763  -26.9373   22.5406 C   0  0  0  0  0  0
  -19.5741  -26.6353   21.5206 C   0  0  0  0  0  0
  -18.1923  -26.7899   22.1623 C   0  0  0  0  0  0
  -19.1539  -28.8832   23.2871 C   0  0  0  0  0  0
  -18.9465  -30.1448   23.8866 C   0  0  0  0  0  0
  -17.6457  -30.6558   24.0563 C   0  0  0  0  0  0
  -25.9029  -34.9435   23.5089 C   0  0  0  0  0  0
  -16.5352  -29.9054   23.6327 C   0  0  0  0  0  0
  -16.7272  -28.6483   23.0327 C   0  0  0  0  0  0
  -26.4479  -31.6564   25.0705 C   0  0  0  0  0  0
  -25.3745  -31.3695   26.1472 C   0  0  0  0  0  0
  -27.0309  -30.2988   24.6144 C   0  0  0  0  0  0
  -27.6011  -32.4312   25.7482 C   0  0  0  0  0  0
  -27.5576  -37.1810   24.8458 C   0  0  0  0  0  0
  -21.4185  -29.3030   22.3687 N   0  0  0  0  0  0
  -26.4293  -37.3763   23.9395 N   0  0  0  0  0  0
  -24.6901  -31.0536   22.0967 N   0  0  0  0  0  0
  -23.4207  -28.8100   23.2977 O   0  0  0  0  0  0
  -28.3594  -26.4455   20.2288 O   0  0  0  0  0  0
  -26.5609  -34.8889   22.4661 O   0  0  0  0  0  0
  -23.5420  -32.1349   23.7333 O   0  0  0  0  0  0
  -28.6333  -22.6228   19.1967 C   0  0  0  0  0  0
  -28.7461  -23.7542   20.0466 C   0  0  0  0  0  0
  -29.1777  -23.4021   21.3486 C   0  0  0  0  0  0
  -29.3915  -21.1339   20.7865 C   0  0  0  0  0  0
  -28.9013  -17.6989   21.9578 C   0  0  0  0  0  0
  -29.4141  -18.4776   20.7902 C   0  0  1  0  0  0
  -30.1036  -17.1069   21.2454 C   0  0  1  0  0  0
  -29.3155  -24.4338   22.4518 C   0  0  0  0  0  0
  -28.5270  -25.2041   19.4322 C   0  0  0  0  0  0
  -28.9346  -21.3406   19.5602 N   0  0  0  0  0  0
  -29.5127  -22.1146   21.6860 N   0  0  0  0  0  0
  -29.8858  -19.8549   21.1503 N   0  0  0  0  0  0
  -29.7971  -15.7117   20.8481 N   0  0  0  0  0  0
  -31.4755  -12.5718   19.1222 H   0  0  0  0  0  0
  -30.4057  -11.4206   19.8813 H   0  0  0  0  0  0
  -29.7586  -11.7486   17.4818 H   0  0  0  0  0  0
  -29.6464  -13.4723   17.7239 H   0  0  0  0  0  0
  -27.8312  -11.3135   18.8387 H   0  0  0  0  0  0
  -27.3732  -12.6321   17.7871 H   0  0  0  0  0  0
  -27.6658  -14.2627   19.5379 H   0  0  0  0  0  0
  -28.7184  -12.0454   21.3586 H   0  0  0  0  0  0
  -28.4503  -13.6950   21.8451 H   0  0  0  0  0  0
  -25.2795   -9.5676   22.4705 H   0  0  0  0  0  0
  -24.0047   -7.4603   22.7380 H   0  0  0  0  0  0
  -21.0895   -8.8742   19.8861 H   0  0  0  0  0  0
  -22.3721  -10.9672   19.6106 H   0  0  0  0  0  0
  -21.1989   -7.6122   23.9709 H   0  0  0  0  0  0
  -21.1540   -6.0472   25.9072 H   0  0  0  0  0  0
  -22.0594   -2.7582   23.2758 H   0  0  0  0  0  0
  -22.4183  -11.9874   22.4893 H   0  0  0  0  0  0
  -21.1072  -13.1082   22.2611 H   0  0  0  0  0  0
  -24.6588  -15.8504   20.5165 H   0  0  0  0  0  0
  -26.2597  -15.6237   20.0386 H   0  0  0  0  0  0
  -26.7160  -32.5408   23.1077 H   0  0  0  0  0  0
  -25.0095  -33.9706   25.0435 H   0  0  0  0  0  0
  -22.7173  -31.2988   21.3955 H   0  0  0  0  0  0
  -23.3728  -35.9672   23.3298 H   0  0  0  0  0  0
  -24.3600  -36.8936   22.2059 H   0  0  0  0  0  0
  -23.7268  -37.6520   23.6669 H   0  0  0  0  0  0
  -26.0890  -31.5434   20.6024 H   0  0  0  0  0  0
  -26.8485  -30.8400   21.9965 H   0  0  0  0  0  0
  -28.1098  -28.9531   21.2147 H   0  0  0  0  0  0
  -25.9482  -25.8972   19.0419 H   0  0  0  0  0  0
  -23.9850  -27.3021   18.9993 H   0  0  0  0  0  0
  -23.7535  -30.5868   19.3998 H   0  0  0  0  0  0
  -22.7618  -29.2367   19.8512 H   0  0  0  0  0  0
  -25.1281  -36.1933   25.0821 H   0  0  0  0  0  0
  -20.9991  -28.3224   24.1392 H   0  0  0  0  0  0
  -20.5640  -26.2256   23.3601 H   0  0  0  0  0  0
  -21.6626  -26.7369   22.1211 H   0  0  0  0  0  0
  -19.6898  -25.6266   21.1224 H   0  0  0  0  0  0
  -19.6685  -27.3175   20.6742 H   0  0  0  0  0  0
  -17.4185  -26.6645   21.4034 H   0  0  0  0  0  0
  -18.0343  -26.0040   22.9018 H   0  0  0  0  0  0
  -19.7947  -30.7289   24.2188 H   0  0  0  0  0  0
  -17.5006  -31.6227   24.5187 H   0  0  0  0  0  0
  -15.5352  -30.2945   23.7649 H   0  0  0  0  0  0
  -15.8678  -28.0809   22.7015 H   0  0  0  0  0  0
  -24.5928  -30.7009   25.7842 H   0  0  0  0  0  0
  -24.8946  -32.2860   26.4900 H   0  0  0  0  0  0
  -25.8135  -30.8897   27.0235 H   0  0  0  0  0  0
  -26.2866  -29.6750   24.1187 H   0  0  0  0  0  0
  -27.4028  -29.7207   25.4610 H   0  0  0  0  0  0
  -27.8714  -30.4242   23.9317 H   0  0  0  0  0  0
  -27.2585  -33.3601   26.2036 H   0  0  0  0  0  0
  -28.3841  -32.6899   25.0345 H   0  0  0  0  0  0
  -28.0662  -31.8474   26.5439 H   0  0  0  0  0  0
  -28.2574  -38.0124   24.7492 H   0  0  0  0  0  0
  -28.1086  -36.2649   24.6285 H   0  0  0  0  0  0
  -27.2301  -37.1452   25.8866 H   0  0  0  0  0  0
  -20.9350  -29.8798   21.6945 H   0  0  0  0  0  0
  -26.0168  -38.2829   24.1409 H   0  0  0  0  0  0
  -28.3418  -22.7494   18.1655 H   0  0  0  0  0  0
  -27.9271  -17.2314   21.8231 H   0  0  0  0  0  0
  -29.0722  -18.0809   22.9632 H   0  0  0  0  0  0
  -28.8219  -18.4787   19.8786 H   0  0  0  0  0  0
  -31.0597  -17.2257   21.7540 H   0  0  0  0  0  0
  -28.5000  -25.1565   22.4145 H   0  0  0  0  0  0
  -30.2555  -24.9742   22.3514 H   0  0  0  0  0  0
  -29.2823  -23.9703   23.4378 H   0  0  0  0  0  0
  -27.8081  -25.1252   18.6214 H   0  0  0  0  0  0
  -29.4621  -25.3818   18.8982 H   0  0  0  0  0  0
  -30.3659  -19.8841   22.0405 H   0  0  0  0  0  0
  -28.8398  -15.4306   20.9940 H   0  0  0  0  0  0
  1 25  1  0  0  0
  1 30  2  0  0  0
  1 83  1  0  0  0
  2  3  1  0  0  0
  2 25  1  0  0  0
  2 84  1  0  0  0
  2 85  1  0  0  0
  3  4  1  0  0  0
  3 86  1  0  0  0
  3 87  1  0  0  0
  4  5  1  0  0  0
  4 88  1  0  0  0
  4 89  1  0  0  0
  5  6  1  0  0  0
  5 26  1  0  0  0
  5 90  1  0  0  0
  6 25  1  0  0  0
  6 91  1  0  0  0
  6 92  1  0  0  0
  7  8  2  0  0  0
  7 26  1  0  0  0
  7 29  1  0  0  0
  8  9  1  0  0  0
  8 22  1  0  0  0
  9 10  1  0  0  0
  9 27  2  0  0  0
 10 11  2  0  0  0
 10 15  1  0  0  0
 11 12  1  0  0  0
 11 93  1  0  0  0
 12 13  2  0  0  0
 12 94  1  0  0  0
 13 14  1  0  0  0
 13 31  1  0  0  0
 14 15  2  0  0  0
 14 95  1  0  0  0
 15 96  1  0  0  0
 16 17  2  0  0  0
 16 21  1  0  0  0
 16 31  1  0  0  0
 17 18  1  0  0  0
 17 97  1  0  0  0
 18 19  2  0  0  0
 18 98  1  0  0  0
 19 20  1  0  0  0
 19 24  1  0  0  0
 20 21  2  0  0  0
 20 99  1  0  0  0
 21 23  1  0  0  0
 22 28  1  0  0  0
 22 32  2  0  0  0
 26 27  1  0  0  0
 28100  1  0  0  0
 28101  1  0  0  0
 29102  1  0  0  0
 29103  1  0  0  0
 33 34  1  0  0  0
 33 66  1  0  0  0
 33 70  2  0  0  0
 34 36  1  0  0  0
 34 59  1  0  0  0
 34104  1  0  0  0
 35 44  2  0  0  0
 35 45  1  0  0  0
 35 68  1  0  0  0
 36 56  1  0  0  0
 36105  1  0  0  0
 37 39  1  0  0  0
 37 47  1  0  0  0
 37 66  1  0  0  0
 37106  1  0  0  0
 38 43  2  0  0  0
 38 46  1  0  0  0
 38 47  1  0  0  0
 39 64  1  0  0  0
 39 67  2  0  0  0
 40 52  1  0  0  0
 40 53  2  0  0  0
 40 58  1  0  0  0
 41107  1  0  0  0
 41108  1  0  0  0
 41109  1  0  0  0
 41 48  1  0  0  0
 42 43  1  0  0  0
 42 66  1  0  0  0
 42110  1  0  0  0
 42111  1  0  0  0
 43 44  1  0  0  0
 44112  1  0  0  0
 45 46  2  0  0  0
 45113  1  0  0  0
 46114  1  0  0  0
 47115  1  0  0  0
 47116  1  0  0  0
 48 56  1  0  0  0
 48 65  1  0  0  0
 48117  1  0  0  0
 49 50  1  0  0  0
 49 53  1  0  0  0
 49 64  1  0  0  0
 49118  1  0  0  0
 50 51  1  0  0  0
 50119  1  0  0  0
 50120  1  0  0  0
 51 52  1  0  0  0
 51121  1  0  0  0
 51122  1  0  0  0
 52123  1  0  0  0
 52124  1  0  0  0
 53 54  1  0  0  0
 54 55  2  0  0  0
 54125  1  0  0  0
 55 57  1  0  0  0
 55126  1  0  0  0
 56 69  2  0  0  0
 57 58  2  0  0  0
 57127  1  0  0  0
 58128  1  0  0  0
 59 60  1  0  0  0
 59 61  1  0  0  0
 59 62  1  0  0  0
 60129  1  0  0  0
 60130  1  0  0  0
 60131  1  0  0  0
 61132  1  0  0  0
 61133  1  0  0  0
 61134  1  0  0  0
 62135  1  0  0  0
 62136  1  0  0  0
 62137  1  0  0  0
 63 65  1  0  0  0
 63138  1  0  0  0
 63139  1  0  0  0
 63140  1  0  0  0
 64141  1  0  0  0
 65142  1  0  0  0
 68 79  1  0  0  0
 71 72  2  0  0  0
 71 80  1  0  0  0
 71143  1  0  0  0
 72 73  1  0  0  0
 72 79  1  0  0  0
 73 78  1  0  0  0
 73 81  2  0  0  0
 74 80  2  0  0  0
 74 81  1  0  0  0
 74 82  1  0  0  0
 75 76  1  0  0  0
 75 77  1  0  0  0
 75144  1  0  0  0
 75145  1  0  0  0
 76 77  1  0  0  0
 76 82  1  0  0  0
 76146  1  0  0  0
 77 83  1  0  0  0
 77147  1  0  0  0
 78148  1  0  0  0
 78149  1  0  0  0
 78150  1  0  0  0
 79151  1  0  0  0
 79152  1  0  0  0
 82153  1  0  0  0
 83154  1  0  0  0
M  ISO  4   1 100  68 101  79 101  83 100
M  END
> <chiral flag>
0

> <version>
0

> <s_m_source_file>
/data/baiqing/PycharmProjects/Reinvent-master-3.2/result/LINK_invent/BTK/process_docking_weight1_custom_sum_contain_oxygen_bond_distance_aromatic_linkinvent_7_9_3/rearranged_h_0184.sdf

> <i_m_source_file_index>
98

> <r_mmod_Potential_Energy-OPLS-2005>
-377.987457275391

> <r_mmod_Stretch_Energy-OPLS-2005>
86.8971405029297

> <r_mmod_Bend_Energy-OPLS-2005>
191.028533935547

> <r_mmod_Torsional_Energy-OPLS-2005>
272.396270751953

> <r_mmod_Improper_Torsional_Energy-OPLS-2005>
6.81737995147705

> <r_mmod_Van_der_Waal_Energy-OPLS-2005>
143.913589477539

> <r_mmod_Electrostatic_Energy-OPLS-2005>
-894.695007324219

> <r_mmod_Solvation_Energy-OPLS-2005>
-243.228729248047

> <b_mmod_Minimization_Converged-OPLS-2005>
0

> <r_mmod_RMS_Derivative-OPLS-2005>
3.6724681854248

$$$$
98
                    3D
 Structure written by MMmdl.
156165  0  0  1  0            999 V2000
  -30.5585  -14.9100   20.4319 C   0  0  0  0  0  0
  -30.4402  -12.5647   19.4903 C   0  0  0  0  0  0
  -29.5181  -12.5185   18.2502 C   0  0  0  0  0  0
  -28.0519  -12.3083   18.6739 C   0  0  0  0  0  0
  -27.6321  -13.2424   19.8393 C   0  0  2  0  0  0
  -28.6766  -13.2593   20.9756 C   0  0  0  0  0  0
  -25.2484  -13.8202   20.5714 C   0  0  0  0  0  0
  -24.1794  -13.0433   20.9227 C   0  0  0  0  0  0
  -24.6402  -11.6915   20.8766 C   0  0  0  0  0  0
  -23.9082  -10.4292   21.0417 C   0  0  0  0  0  0
  -24.3629   -9.4207   21.9194 C   0  0  0  0  0  0
  -23.6303   -8.2244   22.0755 C   0  0  0  0  0  0
  -22.4285   -8.0289   21.3546 C   0  0  0  0  0  0
  -21.9928   -9.0261   20.4642 C   0  0  0  0  0  0
  -22.7258  -10.2134   20.3057 C   0  0  0  0  0  0
  -21.6851   -6.0745   22.5281 C   0  0  0  0  0  0
  -21.4004   -6.5646   23.8220 C   0  0  0  0  0  0
  -21.3654   -5.6789   24.9181 C   0  0  0  0  0  0
  -21.6042   -4.3055   24.7219 C   0  0  0  0  0  0
  -21.8823   -3.8151   23.4342 C   0  0  0  0  0  0
  -21.9194   -4.6972   22.3401 C   0  0  0  0  0  0
  -22.7817  -13.5213   21.1883 C   0  0  0  0  0  0
  -22.1667   -4.2160   21.0978 F   0  0  0  0  0  0
  -21.5626   -3.4537   25.7735 F   0  0  0  0  0  0
  -29.9550  -13.6590   20.3751 N   0  0  0  0  0  0
  -26.2906  -12.9422   20.3261 N   0  0  0  0  0  0
  -25.9334  -11.6560   20.5762 N   0  0  0  0  0  0
  -22.0468  -12.8198   22.0435 N   0  0  0  0  0  0
  -25.4142  -15.1928   20.4124 N   0  0  0  0  0  0
  -31.7641  -14.9790   20.1709 O   0  0  0  0  0  0
  -21.6643   -6.8885   21.4245 O   0  0  0  0  0  0
  -22.3510  -14.5531   20.6740 O   0  0  0  0  0  0
  -24.6422  -31.8458   23.1904 C   0  0  0  0  0  0
  -25.9202  -32.4713   23.8276 C   0  0  1  0  0  0
  -27.2159  -27.1634   20.1566 C   0  0  0  0  0  0
  -25.5967  -33.8516   24.2205 N   0  0  0  0  0  0
  -23.4438  -30.4659   21.5350 C   0  0  2  0  0  0
  -24.8947  -28.8953   20.1110 C   0  0  0  0  0  0
  -22.7553  -29.4565   22.4878 C   0  0  0  0  0  0
  -18.0297  -28.1416   22.8499 C   0  0  0  0  0  0
  -24.1462  -36.7216   23.2652 C   0  0  0  0  0  0
  -25.9974  -30.7296   21.3833 C   0  0  0  0  0  0
  -26.0707  -29.3417   20.7292 C   0  0  0  0  0  0
  -27.2372  -28.4919   20.7331 C   0  0  0  0  0  0
  -26.0197  -26.8109   19.4995 C   0  0  0  0  0  0
  -24.8801  -27.6420   19.4802 C   0  0  0  0  0  0
  -23.6686  -29.7936   20.1545 C   0  0  0  0  0  0
  -25.4099  -36.3027   24.0329 C   0  0  1  0  0  0
  -20.5911  -28.3718   23.1253 C   0  0  2  0  0  0
  -20.6782  -26.9426   22.5408 C   0  0  0  0  0  0
  -19.5753  -26.6389   21.5230 C   0  0  0  0  0  0
  -18.1928  -26.7964   22.1621 C   0  0  0  0  0  0
  -19.1558  -28.8887   23.2871 C   0  0  0  0  0  0
  -18.9480  -30.1488   23.8888 C   0  0  0  0  0  0
  -17.6481  -30.6619   24.0566 C   0  0  0  0  0  0
  -25.9058  -34.9416   23.5059 C   0  0  0  0  0  0
  -16.5365  -29.9109   23.6367 C   0  0  0  0  0  0
  -16.7280  -28.6521   23.0395 C   0  0  0  0  0  0
  -26.4545  -31.6585   25.0705 C   0  0  0  0  0  0
  -25.3742  -31.3768   26.1406 C   0  0  0  0  0  0
  -27.0424  -30.2999   24.6249 C   0  0  0  0  0  0
  -27.6070  -32.4363   25.7491 C   0  0  0  0  0  0
  -27.5551  -37.1761   24.8479 C   0  0  0  0  0  0
  -21.4247  -29.3051   22.3623 N   0  0  0  0  0  0
  -26.4249  -37.3755   23.9441 N   0  0  0  0  0  0
  -24.7140  -31.0340   22.0920 N   0  0  0  0  0  0
  -23.4208  -28.8114   23.3016 O   0  0  0  0  0  0
  -28.2595  -26.1786   20.1696 O   0  0  0  0  0  0
  -26.5625  -34.8924   22.4628 O   0  0  0  0  0  0
  -23.5545  -32.1311   23.7152 O   0  0  0  0  0  0
  -28.7925  -22.9548   18.9188 C   0  0  0  0  0  0
  -28.5614  -23.3891   20.2152 C   0  0  0  0  0  0
  -29.1855  -21.1173   20.1104 C   0  0  0  0  0  0
  -29.1941  -18.6773   21.3651 C   0  0  0  0  0  0
  -29.8899  -18.6066   19.4433 C   0  0  0  0  0  0
  -30.1527  -17.6113   20.6506 C   0  0  0  0  0  0
  -28.6408  -23.7387   17.6507 C   0  0  0  0  0  0
  -28.7152  -22.0276   22.4073 C   0  0  0  0  0  0
  -27.9680  -24.7973   20.7889 C   0  0  0  0  0  0
  -29.1818  -21.5898   18.8653 N   0  0  0  0  0  0
  -28.8197  -22.1577   20.9649 N   0  0  0  0  0  0
  -29.7099  -19.7176   20.4288 N   0  0  0  0  0  0
  -29.7807  -16.0833   20.5823 N   0  0  0  0  0  0
  -31.4747  -12.7197   19.1794 H   0  0  0  0  0  0
  -30.4274  -11.6104   20.0195 H   0  0  0  0  0  0
  -29.8327  -11.7206   17.5758 H   0  0  0  0  0  0
  -29.6068  -13.4491   17.6876 H   0  0  0  0  0  0
  -27.9514  -11.2669   18.9843 H   0  0  0  0  0  0
  -27.3839  -12.4373   17.8218 H   0  0  0  0  0  0
  -27.5986  -14.2460   19.4137 H   0  0  0  0  0  0
  -28.7598  -12.2811   21.4523 H   0  0  0  0  0  0
  -28.3833  -13.9617   21.7579 H   0  0  0  0  0  0
  -25.2772   -9.5682   22.4774 H   0  0  0  0  0  0
  -24.0007   -7.4630   22.7474 H   0  0  0  0  0  0
  -21.0859   -8.8781   19.8944 H   0  0  0  0  0  0
  -22.3728  -10.9675   19.6163 H   0  0  0  0  0  0
  -21.1990   -7.6154   23.9725 H   0  0  0  0  0  0
  -21.1466   -6.0521   25.9083 H   0  0  0  0  0  0
  -22.0604   -2.7615   23.2836 H   0  0  0  0  0  0
  -22.4080  -11.9837   22.4781 H   0  0  0  0  0  0
  -21.1095  -13.1229   22.2667 H   0  0  0  0  0  0
  -24.6361  -15.8361   20.5119 H   0  0  0  0  0  0
  -26.2498  -15.6375   20.0555 H   0  0  0  0  0  0
  -26.7263  -32.5344   23.1002 H   0  0  0  0  0  0
  -25.0185  -33.9642   25.0399 H   0  0  0  0  0  0
  -22.7451  -31.2904   21.3809 H   0  0  0  0  0  0
  -23.3768  -35.9503   23.3290 H   0  0  0  0  0  0
  -24.3544  -36.8863   22.2071 H   0  0  0  0  0  0
  -23.7162  -37.6379   23.6695 H   0  0  0  0  0  0
  -26.1453  -31.4830   20.6081 H   0  0  0  0  0  0
  -26.8709  -30.7827   22.0211 H   0  0  0  0  0  0
  -28.1351  -28.8311   21.2294 H   0  0  0  0  0  0
  -25.9519  -25.8487   19.0124 H   0  0  0  0  0  0
  -23.9835  -27.2952   18.9852 H   0  0  0  0  0  0
  -23.7990  -30.5650   19.3948 H   0  0  0  0  0  0
  -22.7847  -29.2295   19.8508 H   0  0  0  0  0  0
  -25.1295  -36.1830   25.0820 H   0  0  0  0  0  0
  -21.0006  -28.3295   24.1374 H   0  0  0  0  0  0
  -20.5699  -26.2328   23.3621 H   0  0  0  0  0  0
  -21.6639  -26.7463   22.1177 H   0  0  0  0  0  0
  -19.6901  -25.6298   21.1263 H   0  0  0  0  0  0
  -19.6698  -27.3200   20.6761 H   0  0  0  0  0  0
  -17.4213  -26.6762   21.4005 H   0  0  0  0  0  0
  -18.0269  -26.0104   22.8997 H   0  0  0  0  0  0
  -19.7960  -30.7307   24.2234 H   0  0  0  0  0  0
  -17.5045  -31.6307   24.5155 H   0  0  0  0  0  0
  -15.5365  -30.3014   23.7731 H   0  0  0  0  0  0
  -15.8665  -28.0838   22.7151 H   0  0  0  0  0  0
  -24.5940  -30.7089   25.7738 H   0  0  0  0  0  0
  -24.8917  -32.2956   26.4757 H   0  0  0  0  0  0
  -25.8041  -30.9005   27.0226 H   0  0  0  0  0  0
  -26.3040  -29.6707   24.1268 H   0  0  0  0  0  0
  -27.4101  -29.7308   25.4795 H   0  0  0  0  0  0
  -27.8910  -30.4284   23.9524 H   0  0  0  0  0  0
  -27.2675  -33.3740   26.1911 H   0  0  0  0  0  0
  -28.3966  -32.6797   25.0366 H   0  0  0  0  0  0
  -28.0624  -31.8577   26.5538 H   0  0  0  0  0  0
  -28.2568  -38.0061   24.7552 H   0  0  0  0  0  0
  -28.1042  -36.2598   24.6266 H   0  0  0  0  0  0
  -27.2276  -37.1356   25.8883 H   0  0  0  0  0  0
  -20.9438  -29.8744   21.6797 H   0  0  0  0  0  0
  -26.0103  -38.2802   24.1512 H   0  0  0  0  0  0
  -29.4373  -18.8650   22.4119 H   0  0  0  0  0  0
  -28.1269  -18.4866   21.2299 H   0  0  0  0  0  0
  -28.9786  -18.3958   18.8792 H   0  0  0  0  0  0
  -30.7459  -18.7387   18.7816 H   0  0  0  0  0  0
  -31.1752  -17.7393   21.0149 H   0  0  0  0  0  0
  -28.7241  -24.8118   17.8249 H   0  0  0  0  0  0
  -27.6690  -23.5593   17.1906 H   0  0  0  0  0  0
  -29.4043  -23.4697   16.9199 H   0  0  0  0  0  0
  -28.0903  -22.8159   22.8248 H   0  0  0  0  0  0
  -29.7075  -22.0829   22.8549 H   0  0  0  0  0  0
  -28.2644  -21.0688   22.6640 H   0  0  0  0  0  0
  -28.3037  -24.8950   21.8209 H   0  0  0  0  0  0
  -26.8883  -24.6787   20.8746 H   0  0  0  0  0  0
  -28.7995  -15.8952   20.7160 H   0  0  0  0  0  0
  1 25  1  0  0  0
  1 30  2  0  0  0
  1 83  1  0  0  0
  2  3  1  0  0  0
  2 25  1  0  0  0
  2 84  1  0  0  0
  2 85  1  0  0  0
  3  4  1  0  0  0
  3 86  1  0  0  0
  3 87  1  0  0  0
  4  5  1  0  0  0
  4 88  1  0  0  0
  4 89  1  0  0  0
  5  6  1  0  0  0
  5 26  1  0  0  0
  5 90  1  0  0  0
  6 25  1  0  0  0
  6 91  1  0  0  0
  6 92  1  0  0  0
  7  8  2  0  0  0
  7 26  1  0  0  0
  7 29  1  0  0  0
  8  9  1  0  0  0
  8 22  1  0  0  0
  9 10  1  0  0  0
  9 27  2  0  0  0
 10 11  2  0  0  0
 10 15  1  0  0  0
 11 12  1  0  0  0
 11 93  1  0  0  0
 12 13  2  0  0  0
 12 94  1  0  0  0
 13 14  1  0  0  0
 13 31  1  0  0  0
 14 15  2  0  0  0
 14 95  1  0  0  0
 15 96  1  0  0  0
 16 17  2  0  0  0
 16 21  1  0  0  0
 16 31  1  0  0  0
 17 18  1  0  0  0
 17 97  1  0  0  0
 18 19  2  0  0  0
 18 98  1  0  0  0
 19 20  1  0  0  0
 19 24  1  0  0  0
 20 21  2  0  0  0
 20 99  1  0  0  0
 21 23  1  0  0  0
 22 28  1  0  0  0
 22 32  2  0  0  0
 26 27  1  0  0  0
 28100  1  0  0  0
 28101  1  0  0  0
 29102  1  0  0  0
 29103  1  0  0  0
 33 34  1  0  0  0
 33 66  1  0  0  0
 33 70  2  0  0  0
 34 36  1  0  0  0
 34 59  1  0  0  0
 34104  1  0  0  0
 35 44  2  0  0  0
 35 45  1  0  0  0
 35 68  1  0  0  0
 36 56  1  0  0  0
 36105  1  0  0  0
 37 39  1  0  0  0
 37 47  1  0  0  0
 37 66  1  0  0  0
 37106  1  0  0  0
 38 43  2  0  0  0
 38 46  1  0  0  0
 38 47  1  0  0  0
 39 64  1  0  0  0
 39 67  2  0  0  0
 40 52  1  0  0  0
 40 53  2  0  0  0
 40 58  1  0  0  0
 41107  1  0  0  0
 41108  1  0  0  0
 41109  1  0  0  0
 41 48  1  0  0  0
 42 43  1  0  0  0
 42 66  1  0  0  0
 42110  1  0  0  0
 42111  1  0  0  0
 43 44  1  0  0  0
 44112  1  0  0  0
 45 46  2  0  0  0
 45113  1  0  0  0
 46114  1  0  0  0
 47115  1  0  0  0
 47116  1  0  0  0
 48 56  1  0  0  0
 48 65  1  0  0  0
 48117  1  0  0  0
 49 50  1  0  0  0
 49 53  1  0  0  0
 49 64  1  0  0  0
 49118  1  0  0  0
 50 51  1  0  0  0
 50119  1  0  0  0
 50120  1  0  0  0
 51 52  1  0  0  0
 51121  1  0  0  0
 51122  1  0  0  0
 52123  1  0  0  0
 52124  1  0  0  0
 53 54  1  0  0  0
 54 55  2  0  0  0
 54125  1  0  0  0
 55 57  1  0  0  0
 55126  1  0  0  0
 56 69  2  0  0  0
 57 58  2  0  0  0
 57127  1  0  0  0
 58128  1  0  0  0
 59 60  1  0  0  0
 59 61  1  0  0  0
 59 62  1  0  0  0
 60129  1  0  0  0
 60130  1  0  0  0
 60131  1  0  0  0
 61132  1  0  0  0
 61133  1  0  0  0
 61134  1  0  0  0
 62135  1  0  0  0
 62136  1  0  0  0
 62137  1  0  0  0
 63 65  1  0  0  0
 63138  1  0  0  0
 63139  1  0  0  0
 63140  1  0  0  0
 64141  1  0  0  0
 65142  1  0  0  0
 68 79  1  0  0  0
 71 72  2  0  0  0
 71 77  1  0  0  0
 71 80  1  0  0  0
 72 79  1  0  0  0
 72 81  1  0  0  0
 73 80  2  0  0  0
 73 81  1  0  0  0
 73 82  1  0  0  0
 74 76  1  0  0  0
 74 82  1  0  0  0
 74143  1  0  0  0
 74144  1  0  0  0
 75 76  1  0  0  0
 75 82  1  0  0  0
 75145  1  0  0  0
 75146  1  0  0  0
 76 83  1  0  0  0
 76147  1  0  0  0
 77148  1  0  0  0
 77149  1  0  0  0
 77150  1  0  0  0
 78 81  1  0  0  0
 78151  1  0  0  0
 78152  1  0  0  0
 78153  1  0  0  0
 79154  1  0  0  0
 79155  1  0  0  0
 83156  1  0  0  0
M  ISO  4   1 100  68 101  79 101  83 100
M  END
> <chiral flag>
0

> <version>
0

> <s_m_source_file>
/data/baiqing/PycharmProjects/Reinvent-master-3.2/result/LINK_invent/BTK/process_docking_weight1_custom_sum_contain_oxygen_bond_distance_aromatic_linkinvent_7_9_3/rearranged_h_0184.sdf

> <i_m_source_file_index>
99

> <r_mmod_Potential_Energy-OPLS-2005>
334.670715332031

> <r_mmod_Stretch_Energy-OPLS-2005>
198.655532836914

> <r_mmod_Bend_Energy-OPLS-2005>
298.881683349609

> <r_mmod_Torsional_Energy-OPLS-2005>
257.261505126953

> <r_mmod_Improper_Torsional_Energy-OPLS-2005>
11.7483615875244

> <r_mmod_Van_der_Waal_Energy-OPLS-2005>
107.111679077148

> <r_mmod_Electrostatic_Energy-OPLS-2005>
-457.501708984375

> <r_mmod_Solvation_Energy-OPLS-2005>
-250.937698364258

> <b_mmod_Minimization_Converged-OPLS-2005>
0

> <r_mmod_RMS_Derivative-OPLS-2005>
1.66100001335144

$$$$
