0
                    3D
 Structure written by MMmdl.
143150  0  0  1  0            999 V2000
  -30.1640  -16.0036   20.2898 C   0  0  0  0  0  0
  -30.3923  -13.3526   19.5628 C   0  0  0  0  0  0
  -29.5651  -12.7616   18.3725 C   0  0  0  0  0  0
  -28.1687  -12.3226   18.8265 C   0  0  0  0  0  0
  -27.5855  -13.3502   19.8161 C   0  0  2  0  0  0
  -28.5706  -13.8335   20.9191 C   0  0  0  0  0  0
  -25.2257  -13.8350   20.5849 C   0  0  0  0  0  0
  -24.1687  -13.0444   20.9308 C   0  0  0  0  0  0
  -24.6446  -11.6972   20.8758 C   0  0  0  0  0  0
  -23.9156  -10.4301   21.0381 C   0  0  0  0  0  0
  -24.3678   -9.4213   21.9170 C   0  0  0  0  0  0
  -23.6330   -8.2258   22.0750 C   0  0  0  0  0  0
  -22.4308   -8.0298   21.3544 C   0  0  0  0  0  0
  -21.9962   -9.0273   20.4640 C   0  0  0  0  0  0
  -22.7314  -10.2141   20.3040 C   0  0  0  0  0  0
  -21.6865   -6.0748   22.5278 C   0  0  0  0  0  0
  -21.4024   -6.5647   23.8212 C   0  0  0  0  0  0
  -21.3663   -5.6797   24.9172 C   0  0  0  0  0  0
  -21.6045   -4.3059   24.7221 C   0  0  0  0  0  0
  -21.8818   -3.8153   23.4341 C   0  0  0  0  0  0
  -21.9197   -4.6973   22.3399 C   0  0  0  0  0  0
  -22.7689  -13.5140   21.1931 C   0  0  0  0  0  0
  -22.1664   -4.2158   21.0976 F   0  0  0  0  0  0
  -21.5626   -3.4541   25.7733 F   0  0  0  0  0  0
  -29.6928  -14.5675   20.2542 N   0  0  0  0  0  0
  -26.2757  -12.9763   20.3305 N   0  0  0  0  0  0
  -25.9411  -11.6785   20.5688 N   0  0  0  0  0  0
  -22.0368  -12.8104   22.0483 N   0  0  0  0  0  0
  -25.3797  -15.2099   20.4295 N   0  0  0  0  0  0
  -31.3979  -15.8838   20.0962 O   0  0  0  0  0  0
  -21.6659   -6.8900   21.4244 O   0  0  0  0  0  0
  -22.3351  -14.5434   20.6768 O   0  0  0  0  0  0
  -24.7075  -31.7691   23.1293 C   0  0  0  0  0  0
  -25.9534  -32.4313   23.7937 C   0  0  1  0  0  0
  -27.2414  -26.4435   20.2360 C   0  0  0  0  0  0
  -25.6008  -33.8155   24.1796 N   0  0  0  0  0  0
  -23.5463  -30.3579   21.4882 C   0  0  2  0  0  0
  -25.0090  -28.6452   20.1193 C   0  0  0  0  0  0
  -22.7877  -29.4145   22.4631 C   0  0  0  0  0  0
  -18.0355  -28.1433   22.8442 C   0  0  0  0  0  0
  -24.1497  -36.7087   23.2658 C   0  0  0  0  0  0
  -26.1359  -30.4146   21.4352 C   0  0  0  0  0  0
  -26.1982  -28.9510   20.7891 C   0  0  0  0  0  0
  -27.2813  -27.8840   20.8131 C   0  0  0  0  0  0
  -26.0223  -26.4167   19.4915 C   0  0  0  0  0  0
  -24.9761  -27.4078   19.4456 C   0  0  0  0  0  0
  -23.8151  -29.6302   20.1340 C   0  0  0  0  0  0
  -25.4157  -36.2807   24.0261 C   0  0  1  0  0  0
  -20.6001  -28.3805   23.1093 C   0  0  2  0  0  0
  -20.6805  -26.9439   22.5409 C   0  0  0  0  0  0
  -19.5786  -26.6360   21.5219 C   0  0  0  0  0  0
  -18.1969  -26.7955   22.1615 C   0  0  0  0  0  0
  -19.1627  -28.8950   23.2740 C   0  0  0  0  0  0
  -18.9528  -30.1527   23.8796 C   0  0  0  0  0  0
  -17.6515  -30.6609   24.0544 C   0  0  0  0  0  0
  -25.9154  -34.9203   23.4887 C   0  0  0  0  0  0
  -16.5403  -29.9085   23.6357 C   0  0  0  0  0  0
  -16.7333  -28.6509   23.0373 C   0  0  0  0  0  0
  -26.4633  -31.6463   25.0670 C   0  0  0  0  0  0
  -25.3629  -31.3854   26.1235 C   0  0  0  0  0  0
  -27.0611  -30.2773   24.6766 C   0  0  0  0  0  0
  -27.6030  -32.4392   25.7501 C   0  0  0  0  0  0
  -27.5558  -37.1696   24.8464 C   0  0  0  0  0  0
  -21.4500  -29.2997   22.3381 N   0  0  0  0  0  0
  -26.4259  -37.3599   23.9410 N   0  0  0  0  0  0
  -24.8228  -30.8874   22.0691 N   0  0  0  0  0  0
  -23.4199  -28.7794   23.3101 O   0  0  0  0  0  0
  -28.1673  -25.1091   20.3722 O   0  0  0  0  0  0
  -26.5834  -34.8833   22.4532 O   0  0  0  0  0  0
  -23.6039  -32.0891   23.6080 O   0  0  0  0  0  0
  -29.0485  -19.3496   18.4949 C   0  0  0  0  0  0
  -28.7144  -21.2637   20.5492 C   0  0  0  0  0  0
  -28.2754  -23.2522   19.9855 C   0  0  0  0  0  0
  -29.3848  -19.3459   19.9902 C   0  0  1  0  0  0
  -29.4135  -17.4701   20.3667 N   0  0  0  0  0  0
  -31.3613  -13.6551   19.1652 H   0  0  0  0  0  0
  -30.6322  -12.5718   20.2869 H   0  0  0  0  0  0
  -30.0942  -11.9250   17.9141 H   0  0  0  0  0  0
  -29.4679  -13.5245   17.5987 H   0  0  0  0  0  0
  -28.2600  -11.3545   19.3204 H   0  0  0  0  0  0
  -27.5075  -12.1774   17.9712 H   0  0  0  0  0  0
  -27.4025  -14.2239   19.1885 H   0  0  0  0  0  0
  -28.9056  -13.0128   21.5554 H   0  0  0  0  0  0
  -28.0636  -14.5352   21.5828 H   0  0  0  0  0  0
  -25.2815   -9.5685   22.4759 H   0  0  0  0  0  0
  -24.0026   -7.4653   22.7481 H   0  0  0  0  0  0
  -21.0889   -8.8806   19.8948 H   0  0  0  0  0  0
  -22.3772  -10.9681   19.6152 H   0  0  0  0  0  0
  -21.2021   -7.6156   23.9718 H   0  0  0  0  0  0
  -21.1485   -6.0527   25.9076 H   0  0  0  0  0  0
  -22.0592   -2.7615   23.2839 H   0  0  0  0  0  0
  -22.4027  -11.9788   22.4878 H   0  0  0  0  0  0
  -21.0969  -13.1079   22.2681 H   0  0  0  0  0  0
  -24.6054  -15.8559   20.5387 H   0  0  0  0  0  0
  -26.2214  -15.6540   20.0868 H   0  0  0  0  0  0
  -26.7642  -32.4721   23.0662 H   0  0  0  0  0  0
  -25.0021  -33.9149   24.9861 H   0  0  0  0  0  0
  -22.8864  -31.2015   21.2755 H   0  0  0  0  0  0
  -23.3786  -35.9386   23.3243 H   0  0  0  0  0  0
  -24.3556  -36.8845   22.2089 H   0  0  0  0  0  0
  -23.7231  -37.6223   23.6809 H   0  0  0  0  0  0
  -26.3667  -31.1217   20.6374 H   0  0  0  0  0  0
  -26.9765  -30.4913   22.1116 H   0  0  0  0  0  0
  -28.1632  -28.1298   21.3876 H   0  0  0  0  0  0
  -25.8156  -25.4961   18.9641 H   0  0  0  0  0  0
  -24.0872  -27.1612   18.8812 H   0  0  0  0  0  0
  -24.0083  -30.3792   19.3653 H   0  0  0  0  0  0
  -22.9153  -29.1072   19.8056 H   0  0  0  0  0  0
  -25.1378  -36.1529   25.0749 H   0  0  0  0  0  0
  -21.0075  -28.3451   24.1223 H   0  0  0  0  0  0
  -20.5643  -26.2437   23.3696 H   0  0  0  0  0  0
  -21.6665  -26.7339   22.1244 H   0  0  0  0  0  0
  -19.6938  -25.6245   21.1314 H   0  0  0  0  0  0
  -19.6737  -27.3116   20.6706 H   0  0  0  0  0  0
  -17.4241  -26.6700   21.4017 H   0  0  0  0  0  0
  -18.0348  -26.0120   22.9032 H   0  0  0  0  0  0
  -19.8004  -30.7367   24.2123 H   0  0  0  0  0  0
  -17.5064  -31.6279   24.5166 H   0  0  0  0  0  0
  -15.5399  -30.2957   23.7737 H   0  0  0  0  0  0
  -15.8734  -28.0793   22.7148 H   0  0  0  0  0  0
  -24.5856  -30.7165   25.7522 H   0  0  0  0  0  0
  -24.8776  -32.3097   26.4376 H   0  0  0  0  0  0
  -25.7743  -30.9198   27.0200 H   0  0  0  0  0  0
  -26.3380  -29.6302   24.1794 H   0  0  0  0  0  0
  -27.3967  -29.7331   25.5604 H   0  0  0  0  0  0
  -27.9385  -30.3839   24.0386 H   0  0  0  0  0  0
  -27.2533  -33.3792   26.1781 H   0  0  0  0  0  0
  -28.3985  -32.6798   25.0436 H   0  0  0  0  0  0
  -28.0541  -31.8730   26.5659 H   0  0  0  0  0  0
  -28.2517  -38.0044   24.7530 H   0  0  0  0  0  0
  -28.1112  -36.2564   24.6268 H   0  0  0  0  0  0
  -27.2275  -37.1296   25.8864 H   0  0  0  0  0  0
  -20.9868  -29.8610   21.6369 H   0  0  0  0  0  0
  -26.0061  -38.2631   24.1440 H   0  0  0  0  0  0
  -29.3023  -20.3074   18.0395 H   0  0  0  0  0  0
  -27.9836  -19.1799   18.3338 H   0  0  0  0  0  0
  -29.5980  -18.5769   17.9561 H   0  0  0  0  0  0
  -27.7852  -21.0066   21.0577 H   0  0  0  0  0  0
  -29.3931  -21.4550   21.3804 H   0  0  0  0  0  0
  -27.3066  -23.1182   19.5040 H   0  0  0  0  0  0
  -28.9576  -23.3382   19.1399 H   0  0  0  0  0  0
  -30.4613  -19.5173   20.0331 H   0  0  0  0  0  0
  -28.4680  -17.2311   20.6352 H   0  0  0  0  0  0
  1 25  1  0  0  0
  1 30  2  0  0  0
  1 75  1  0  0  0
  2  3  1  0  0  0
  2 25  1  0  0  0
  2 76  1  0  0  0
  2 77  1  0  0  0
  3  4  1  0  0  0
  3 78  1  0  0  0
  3 79  1  0  0  0
  4  5  1  0  0  0
  4 80  1  0  0  0
  4 81  1  0  0  0
  5  6  1  0  0  0
  5 26  1  0  0  0
  5 82  1  0  0  0
  6 25  1  0  0  0
  6 83  1  0  0  0
  6 84  1  0  0  0
  7  8  2  0  0  0
  7 26  1  0  0  0
  7 29  1  0  0  0
  8  9  1  0  0  0
  8 22  1  0  0  0
  9 10  1  0  0  0
  9 27  2  0  0  0
 10 11  2  0  0  0
 10 15  1  0  0  0
 11 12  1  0  0  0
 11 85  1  0  0  0
 12 13  2  0  0  0
 12 86  1  0  0  0
 13 14  1  0  0  0
 13 31  1  0  0  0
 14 15  2  0  0  0
 14 87  1  0  0  0
 15 88  1  0  0  0
 16 17  2  0  0  0
 16 21  1  0  0  0
 16 31  1  0  0  0
 17 18  1  0  0  0
 17 89  1  0  0  0
 18 19  2  0  0  0
 18 90  1  0  0  0
 19 20  1  0  0  0
 19 24  1  0  0  0
 20 21  2  0  0  0
 20 91  1  0  0  0
 21 23  1  0  0  0
 22 28  1  0  0  0
 22 32  2  0  0  0
 26 27  1  0  0  0
 28 92  1  0  0  0
 28 93  1  0  0  0
 29 94  1  0  0  0
 29 95  1  0  0  0
 33 34  1  0  0  0
 33 66  1  0  0  0
 33 70  2  0  0  0
 34 36  1  0  0  0
 34 59  1  0  0  0
 34 96  1  0  0  0
 35 44  2  0  0  0
 35 45  1  0  0  0
 35 68  1  0  0  0
 36 56  1  0  0  0
 36 97  1  0  0  0
 37 39  1  0  0  0
 37 47  1  0  0  0
 37 66  1  0  0  0
 37 98  1  0  0  0
 38 43  2  0  0  0
 38 46  1  0  0  0
 38 47  1  0  0  0
 39 64  1  0  0  0
 39 67  2  0  0  0
 40 52  1  0  0  0
 40 53  2  0  0  0
 40 58  1  0  0  0
 41 99  1  0  0  0
 41100  1  0  0  0
 41101  1  0  0  0
 41 48  1  0  0  0
 42 43  1  0  0  0
 42 66  1  0  0  0
 42102  1  0  0  0
 42103  1  0  0  0
 43 44  1  0  0  0
 44104  1  0  0  0
 45 46  2  0  0  0
 45105  1  0  0  0
 46106  1  0  0  0
 47107  1  0  0  0
 47108  1  0  0  0
 48 56  1  0  0  0
 48 65  1  0  0  0
 48109  1  0  0  0
 49 50  1  0  0  0
 49 53  1  0  0  0
 49 64  1  0  0  0
 49110  1  0  0  0
 50 51  1  0  0  0
 50111  1  0  0  0
 50112  1  0  0  0
 51 52  1  0  0  0
 51113  1  0  0  0
 51114  1  0  0  0
 52115  1  0  0  0
 52116  1  0  0  0
 53 54  1  0  0  0
 54 55  2  0  0  0
 54117  1  0  0  0
 55 57  1  0  0  0
 55118  1  0  0  0
 56 69  2  0  0  0
 57 58  2  0  0  0
 57119  1  0  0  0
 58120  1  0  0  0
 59 60  1  0  0  0
 59 61  1  0  0  0
 59 62  1  0  0  0
 60121  1  0  0  0
 60122  1  0  0  0
 60123  1  0  0  0
 61124  1  0  0  0
 61125  1  0  0  0
 61126  1  0  0  0
 62127  1  0  0  0
 62128  1  0  0  0
 62129  1  0  0  0
 63 65  1  0  0  0
 63130  1  0  0  0
 63131  1  0  0  0
 63132  1  0  0  0
 64133  1  0  0  0
 65134  1  0  0  0
 68 73  1  0  0  0
 71135  1  0  0  0
 71136  1  0  0  0
 71137  1  0  0  0
 71 74  1  0  0  0
 72 73  1  0  0  0
 72 74  1  0  0  0
 72138  1  0  0  0
 72139  1  0  0  0
 73140  1  0  0  0
 73141  1  0  0  0
 74 75  1  0  0  0
 74142  1  0  0  0
 75143  1  0  0  0
M  ISO  4   1 100  68 101  73 101  75 100
M  END
> <chiral flag>
0

> <version>
0

> <s_m_source_file>
/data/baiqing/PycharmProjects/Reinvent-master-3.2/result/LINK_invent/BTK/process_docking_weight1_custom_sum_contain_oxygen_bond_distance_aromatic_linkinvent_7_9_3/rearranged_h_0102.sdf

> <i_m_source_file_index>
1

> <r_mmod_Potential_Energy-OPLS-2005>
4160.39990234375

> <r_mmod_Stretch_Energy-OPLS-2005>
1938.98266601562

> <r_mmod_Bend_Energy-OPLS-2005>
891.2353515625

> <r_mmod_Torsional_Energy-OPLS-2005>
225.909072875977

> <r_mmod_Improper_Torsional_Energy-OPLS-2005>
4.00446653366089

> <r_mmod_Van_der_Waal_Energy-OPLS-2005>
112.343627929688

> <r_mmod_Electrostatic_Energy-OPLS-2005>
-332.167144775391

> <r_mmod_Solvation_Energy-OPLS-2005>
-217.999374389648

> <b_mmod_Minimization_Converged-OPLS-2005>
0

> <r_mmod_RMS_Derivative-OPLS-2005>
0.210489928722382

$$$$
1
                    3D
 Structure written by MMmdl.
147154  0  0  1  0            999 V2000
  -30.3333  -15.5567   20.3364 C   0  0  0  0  0  0
  -30.4275  -13.0238   19.5344 C   0  0  0  0  0  0
  -29.5462  -12.6352   18.3147 C   0  0  0  0  0  0
  -28.1141  -12.2966   18.7564 C   0  0  0  0  0  0
  -27.5978  -13.3003   19.8131 C   0  0  2  0  0  0
  -28.6184  -13.6035   20.9338 C   0  0  0  0  0  0
  -25.2333  -13.8274   20.5785 C   0  0  0  0  0  0
  -24.1715  -13.0432   20.9282 C   0  0  0  0  0  0
  -24.6408  -11.6940   20.8765 C   0  0  0  0  0  0
  -23.9111  -10.4291   21.0401 C   0  0  0  0  0  0
  -24.3649   -9.4203   21.9182 C   0  0  0  0  0  0
  -23.6310   -8.2245   22.0754 C   0  0  0  0  0  0
  -22.4290   -8.0286   21.3546 C   0  0  0  0  0  0
  -21.9936   -9.0261   20.4645 C   0  0  0  0  0  0
  -22.7278  -10.2132   20.3051 C   0  0  0  0  0  0
  -21.6857   -6.0740   22.5279 C   0  0  0  0  0  0
  -21.4018   -6.5642   23.8213 C   0  0  0  0  0  0
  -21.3660   -5.6794   24.9174 C   0  0  0  0  0  0
  -21.6044   -4.3057   24.7224 C   0  0  0  0  0  0
  -21.8819   -3.8149   23.4345 C   0  0  0  0  0  0
  -21.9194   -4.6966   22.3402 C   0  0  0  0  0  0
  -22.7728  -13.5166   21.1920 C   0  0  0  0  0  0
  -22.1661   -4.2152   21.0979 F   0  0  0  0  0  0
  -21.5627   -3.4540   25.7737 F   0  0  0  0  0  0
  -29.8029  -14.2025   20.2807 N   0  0  0  0  0  0
  -26.2774  -12.9592   20.3226 N   0  0  0  0  0  0
  -25.9351  -11.6672   20.5705 N   0  0  0  0  0  0
  -22.0393  -12.8143   22.0473 N   0  0  0  0  0  0
  -25.3930  -15.2015   20.4230 N   0  0  0  0  0  0
  -31.5660  -15.5077   20.1774 O   0  0  0  0  0  0
  -21.6647   -6.8886   21.4243 O   0  0  0  0  0  0
  -22.3403  -14.5465   20.6757 O   0  0  0  0  0  0
  -24.6805  -31.8032   23.1540 C   0  0  0  0  0  0
  -25.9401  -32.4483   23.8076 C   0  0  1  0  0  0
  -27.2249  -26.7377   20.2116 C   0  0  0  0  0  0
  -25.5992  -33.8307   24.1965 N   0  0  0  0  0  0
  -23.5048  -30.4063   21.5073 C   0  0  2  0  0  0
  -24.9611  -28.7529   20.1181 C   0  0  0  0  0  0
  -22.7749  -29.4334   22.4722 C   0  0  0  0  0  0
  -18.0336  -28.1419   22.8457 C   0  0  0  0  0  0
  -24.1496  -36.7162   23.2653 C   0  0  0  0  0  0
  -26.0836  -30.5481   21.4125 C   0  0  0  0  0  0
  -26.1497  -29.1165   20.7622 C   0  0  0  0  0  0
  -27.2687  -28.1363   20.7752 C   0  0  0  0  0  0
  -26.0030  -26.5723   19.5137 C   0  0  0  0  0  0
  -24.9245  -27.5058   19.4706 C   0  0  0  0  0  0
  -23.7565  -29.7047   20.1417 C   0  0  0  0  0  0
  -25.4145  -36.2905   24.0284 C   0  0  1  0  0  0
  -20.5970  -28.3776   23.1149 C   0  0  2  0  0  0
  -20.6803  -26.9438   22.5403 C   0  0  0  0  0  0
  -19.5779  -26.6371   21.5215 C   0  0  0  0  0  0
  -18.1962  -26.7947   22.1619 C   0  0  0  0  0  0
  -19.1602  -28.8922   23.2784 C   0  0  0  0  0  0
  -18.9508  -30.1506   23.8829 C   0  0  0  0  0  0
  -17.6498  -30.6602   24.0551 C   0  0  0  0  0  0
  -25.9122  -34.9293   23.4960 C   0  0  0  0  0  0
  -16.5388  -29.9085   23.6348 C   0  0  0  0  0  0
  -16.7316  -28.6506   23.0366 C   0  0  0  0  0  0
  -26.4590  -31.6507   25.0685 C   0  0  0  0  0  0
  -25.3664  -31.3815   26.1306 C   0  0  0  0  0  0
  -27.0519  -30.2850   24.6561 C   0  0  0  0  0  0
  -27.6042  -32.4362   25.7503 C   0  0  0  0  0  0
  -27.5564  -37.1739   24.8466 C   0  0  0  0  0  0
  -21.4401  -29.3029   22.3472 N   0  0  0  0  0  0
  -26.4273  -37.3661   23.9405 N   0  0  0  0  0  0
  -24.7795  -30.9513   22.0773 N   0  0  0  0  0  0
  -23.4208  -28.7932   23.3054 O   0  0  0  0  0  0
  -28.2035  -25.5451   20.2799 O   0  0  0  0  0  0
  -26.5759  -34.8865   22.4575 O   0  0  0  0  0  0
  -23.5832  -32.1090   23.6516 O   0  0  0  0  0  0
  -30.1215  -22.3915   19.2333 C   0  0  0  0  0  0
  -29.8114  -18.6527   20.3395 C   0  0  0  0  0  0
  -28.0064  -23.8119   20.1949 C   0  0  0  0  0  0
  -29.0193  -22.1740   20.2771 C   0  0  1  0  0  0
  -28.7672  -20.2620   20.2763 C   0  0  1  0  0  0
  -29.5787  -16.9061   20.3793 N   0  0  0  0  0  0
  -28.0288  -20.0411   19.0899 O   0  0  0  0  0  0
  -31.4255  -13.2758   19.1743 H   0  0  0  0  0  0
  -30.5713  -12.1692   20.1976 H   0  0  0  0  0  0
  -29.9845  -11.7931   17.7774 H   0  0  0  0  0  0
  -29.5207  -13.4689   17.6115 H   0  0  0  0  0  0
  -28.1270  -11.2935   19.1841 H   0  0  0  0  0  0
  -27.4438  -12.2572   17.8968 H   0  0  0  0  0  0
  -27.4698  -14.2302   19.2573 H   0  0  0  0  0  0
  -28.8614  -12.7122   21.5142 H   0  0  0  0  0  0
  -28.2008  -14.3258   21.6369 H   0  0  0  0  0  0
  -25.2789   -9.5676   22.4765 H   0  0  0  0  0  0
  -24.0011   -7.4636   22.7478 H   0  0  0  0  0  0
  -21.0866   -8.8788   19.8951 H   0  0  0  0  0  0
  -22.3738  -10.9674   19.6164 H   0  0  0  0  0  0
  -21.2014   -7.6150   23.9717 H   0  0  0  0  0  0
  -21.1482   -6.0524   25.9077 H   0  0  0  0  0  0
  -22.0596   -2.7611   23.2845 H   0  0  0  0  0  0
  -22.4036  -11.9819   22.4868 H   0  0  0  0  0  0
  -21.1000  -13.1138   22.2673 H   0  0  0  0  0  0
  -24.6204  -15.8488   20.5364 H   0  0  0  0  0  0
  -26.2324  -15.6451   20.0744 H   0  0  0  0  0  0
  -26.7481  -32.4966   23.0788 H   0  0  0  0  0  0
  -25.0052  -33.9351   25.0060 H   0  0  0  0  0  0
  -22.8284  -31.2428   21.3196 H   0  0  0  0  0  0
  -23.3773  -35.9476   23.3269 H   0  0  0  0  0  0
  -24.3564  -36.8868   22.2076 H   0  0  0  0  0  0
  -23.7242  -37.6324   23.6757 H   0  0  0  0  0  0
  -26.2827  -31.2755   20.6244 H   0  0  0  0  0  0
  -26.9359  -30.6144   22.0763 H   0  0  0  0  0  0
  -28.1656  -28.4205   21.3073 H   0  0  0  0  0  0
  -25.8436  -25.6263   19.0161 H   0  0  0  0  0  0
  -24.0261  -27.2191   18.9413 H   0  0  0  0  0  0
  -23.9296  -30.4652   19.3795 H   0  0  0  0  0  0
  -22.8618  -29.1697   19.8186 H   0  0  0  0  0  0
  -25.1354  -36.1672   25.0775 H   0  0  0  0  0  0
  -21.0053  -28.3399   24.1275 H   0  0  0  0  0  0
  -20.5666  -26.2400   23.3662 H   0  0  0  0  0  0
  -21.6665  -26.7384   22.1222 H   0  0  0  0  0  0
  -19.6935  -25.6263   21.1290 H   0  0  0  0  0  0
  -19.6722  -27.3142   20.6714 H   0  0  0  0  0  0
  -17.4231  -26.6688   21.4024 H   0  0  0  0  0  0
  -18.0353  -26.0106   22.9032 H   0  0  0  0  0  0
  -19.7984  -30.7340   24.2168 H   0  0  0  0  0  0
  -17.5048  -31.6274   24.5167 H   0  0  0  0  0  0
  -15.5385  -30.2964   23.7711 H   0  0  0  0  0  0
  -15.8717  -28.0801   22.7120 H   0  0  0  0  0  0
  -24.5872  -30.7141   25.7607 H   0  0  0  0  0  0
  -24.8829  -32.3034   26.4545 H   0  0  0  0  0  0
  -25.7848  -30.9100   27.0207 H   0  0  0  0  0  0
  -26.3229  -29.6470   24.1554 H   0  0  0  0  0  0
  -27.3961  -29.7288   25.5291 H   0  0  0  0  0  0
  -27.9203  -30.3985   24.0070 H   0  0  0  0  0  0
  -27.2584  -33.3728   26.1888 H   0  0  0  0  0  0
  -28.3953  -32.6819   25.0406 H   0  0  0  0  0  0
  -28.0601  -31.8621   26.5580 H   0  0  0  0  0  0
  -28.2554  -38.0058   24.7507 H   0  0  0  0  0  0
  -28.1086  -36.2580   24.6304 H   0  0  0  0  0  0
  -27.2276  -37.1388   25.8868 H   0  0  0  0  0  0
  -20.9698  -29.8688   21.6546 H   0  0  0  0  0  0
  -26.0103  -38.2711   24.1413 H   0  0  0  0  0  0
  -30.5606  -23.3855   19.3241 H   0  0  0  0  0  0
  -29.7252  -22.2929   18.2225 H   0  0  0  0  0  0
  -30.9248  -21.6632   19.3490 H   0  0  0  0  0  0
  -30.4418  -18.8065   21.2160 H   0  0  0  0  0  0
  -30.5097  -18.7684   19.5100 H   0  0  0  0  0  0
  -27.2369  -23.6537   20.9506 H   0  0  0  0  0  0
  -27.4619  -23.7076   19.2564 H   0  0  0  0  0  0
  -29.5111  -22.3001   21.2426 H   0  0  0  0  0  0
  -28.0643  -20.1194   21.0986 H   0  0  0  0  0  0
  -28.5901  -16.7075   20.4467 H   0  0  0  0  0  0
  -27.2498  -20.5888   19.1274 H   0  0  0  0  0  0
  1 25  1  0  0  0
  1 30  2  0  0  0
  1 76  1  0  0  0
  2  3  1  0  0  0
  2 25  1  0  0  0
  2 78  1  0  0  0
  2 79  1  0  0  0
  3  4  1  0  0  0
  3 80  1  0  0  0
  3 81  1  0  0  0
  4  5  1  0  0  0
  4 82  1  0  0  0
  4 83  1  0  0  0
  5  6  1  0  0  0
  5 26  1  0  0  0
  5 84  1  0  0  0
  6 25  1  0  0  0
  6 85  1  0  0  0
  6 86  1  0  0  0
  7  8  2  0  0  0
  7 26  1  0  0  0
  7 29  1  0  0  0
  8  9  1  0  0  0
  8 22  1  0  0  0
  9 10  1  0  0  0
  9 27  2  0  0  0
 10 11  2  0  0  0
 10 15  1  0  0  0
 11 12  1  0  0  0
 11 87  1  0  0  0
 12 13  2  0  0  0
 12 88  1  0  0  0
 13 14  1  0  0  0
 13 31  1  0  0  0
 14 15  2  0  0  0
 14 89  1  0  0  0
 15 90  1  0  0  0
 16 17  2  0  0  0
 16 21  1  0  0  0
 16 31  1  0  0  0
 17 18  1  0  0  0
 17 91  1  0  0  0
 18 19  2  0  0  0
 18 92  1  0  0  0
 19 20  1  0  0  0
 19 24  1  0  0  0
 20 21  2  0  0  0
 20 93  1  0  0  0
 21 23  1  0  0  0
 22 28  1  0  0  0
 22 32  2  0  0  0
 26 27  1  0  0  0
 28 94  1  0  0  0
 28 95  1  0  0  0
 29 96  1  0  0  0
 29 97  1  0  0  0
 33 34  1  0  0  0
 33 66  1  0  0  0
 33 70  2  0  0  0
 34 36  1  0  0  0
 34 59  1  0  0  0
 34 98  1  0  0  0
 35 44  2  0  0  0
 35 45  1  0  0  0
 35 68  1  0  0  0
 36 56  1  0  0  0
 36 99  1  0  0  0
 37 39  1  0  0  0
 37 47  1  0  0  0
 37 66  1  0  0  0
 37100  1  0  0  0
 38 43  2  0  0  0
 38 46  1  0  0  0
 38 47  1  0  0  0
 39 64  1  0  0  0
 39 67  2  0  0  0
 40 52  1  0  0  0
 40 53  2  0  0  0
 40 58  1  0  0  0
 41101  1  0  0  0
 41102  1  0  0  0
 41103  1  0  0  0
 41 48  1  0  0  0
 42 43  1  0  0  0
 42 66  1  0  0  0
 42104  1  0  0  0
 42105  1  0  0  0
 43 44  1  0  0  0
 44106  1  0  0  0
 45 46  2  0  0  0
 45107  1  0  0  0
 46108  1  0  0  0
 47109  1  0  0  0
 47110  1  0  0  0
 48 56  1  0  0  0
 48 65  1  0  0  0
 48111  1  0  0  0
 49 50  1  0  0  0
 49 53  1  0  0  0
 49 64  1  0  0  0
 49112  1  0  0  0
 50 51  1  0  0  0
 50113  1  0  0  0
 50114  1  0  0  0
 51 52  1  0  0  0
 51115  1  0  0  0
 51116  1  0  0  0
 52117  1  0  0  0
 52118  1  0  0  0
 53 54  1  0  0  0
 54 55  2  0  0  0
 54119  1  0  0  0
 55 57  1  0  0  0
 55120  1  0  0  0
 56 69  2  0  0  0
 57 58  2  0  0  0
 57121  1  0  0  0
 58122  1  0  0  0
 59 60  1  0  0  0
 59 61  1  0  0  0
 59 62  1  0  0  0
 60123  1  0  0  0
 60124  1  0  0  0
 60125  1  0  0  0
 61126  1  0  0  0
 61127  1  0  0  0
 61128  1  0  0  0
 62129  1  0  0  0
 62130  1  0  0  0
 62131  1  0  0  0
 63 65  1  0  0  0
 63132  1  0  0  0
 63133  1  0  0  0
 63134  1  0  0  0
 64135  1  0  0  0
 65136  1  0  0  0
 68 73  1  0  0  0
 71137  1  0  0  0
 71138  1  0  0  0
 71139  1  0  0  0
 71 74  1  0  0  0
 72 75  1  0  0  0
 72 76  1  0  0  0
 72140  1  0  0  0
 72141  1  0  0  0
 73 74  1  0  0  0
 73142  1  0  0  0
 73143  1  0  0  0
 74 75  1  0  0  0
 74144  1  0  0  0
 75 77  1  0  0  0
 75145  1  0  0  0
 76146  1  0  0  0
 77147  1  0  0  0
M  ISO  4   1 100  68 101  73 101  76 100
M  END
> <chiral flag>
0

> <version>
0

> <s_m_source_file>
/data/baiqing/PycharmProjects/Reinvent-master-3.2/result/LINK_invent/BTK/process_docking_weight1_custom_sum_contain_oxygen_bond_distance_aromatic_linkinvent_7_9_3/rearranged_h_0102.sdf

> <i_m_source_file_index>
2

> <r_mmod_Potential_Energy-OPLS-2005>
2191.59765625

> <r_mmod_Stretch_Energy-OPLS-2005>
1092.51062011719

> <r_mmod_Bend_Energy-OPLS-2005>
600.846313476562

> <r_mmod_Torsional_Energy-OPLS-2005>
236.974472045898

> <r_mmod_Improper_Torsional_Energy-OPLS-2005>
3.68543076515198

> <r_mmod_Van_der_Waal_Energy-OPLS-2005>
106.924156188965

> <r_mmod_Electrostatic_Energy-OPLS-2005>
-418.595855712891

> <r_mmod_Solvation_Energy-OPLS-2005>
-234.588989257812

> <b_mmod_Minimization_Converged-OPLS-2005>
0

> <r_mmod_RMS_Derivative-OPLS-2005>
0.157679587602615

$$$$
2
                    3D
 Structure written by MMmdl.
165173  0  0  1  0            999 V2000
  -30.3880  -15.3578   20.3928 C   0  0  0  0  0  0
  -30.4592  -12.8722   19.5321 C   0  0  0  0  0  0
  -29.5493  -12.5924   18.3034 C   0  0  0  0  0  0
  -28.1047  -12.2698   18.7350 C   0  0  0  0  0  0
  -27.6103  -13.2476   19.8167 C   0  0  2  0  0  0
  -28.6475  -13.4394   20.9468 C   0  0  0  0  0  0
  -25.2274  -13.8066   20.5733 C   0  0  0  0  0  0
  -24.1690  -13.0283   20.9308 C   0  0  0  0  0  0
  -24.6387  -11.6816   20.8827 C   0  0  0  0  0  0
  -23.9095  -10.4208   21.0463 C   0  0  0  0  0  0
  -24.3654   -9.4132   21.9237 C   0  0  0  0  0  0
  -23.6320   -8.2177   22.0768 C   0  0  0  0  0  0
  -22.4295   -8.0239   21.3552 C   0  0  0  0  0  0
  -21.9929   -9.0219   20.4662 C   0  0  0  0  0  0
  -22.7271  -10.2079   20.3084 C   0  0  0  0  0  0
  -21.6836   -6.0725   22.5304 C   0  0  0  0  0  0
  -21.4005   -6.5634   23.8248 C   0  0  0  0  0  0
  -21.3664   -5.6782   24.9202 C   0  0  0  0  0  0
  -21.6064   -4.3061   24.7260 C   0  0  0  0  0  0
  -21.8828   -3.8139   23.4378 C   0  0  0  0  0  0
  -21.9170   -4.6955   22.3431 C   0  0  0  0  0  0
  -22.7701  -13.5056   21.1926 C   0  0  0  0  0  0
  -22.1622   -4.2122   21.1003 F   0  0  0  0  0  0
  -21.5672   -3.4564   25.7790 F   0  0  0  0  0  0
  -29.8807  -14.0067   20.3544 N   0  0  0  0  0  0
  -26.2794  -12.9389   20.3212 N   0  0  0  0  0  0
  -25.9331  -11.6524   20.5797 N   0  0  0  0  0  0
  -22.0387  -12.8076   22.0522 N   0  0  0  0  0  0
  -25.3465  -15.1781   20.4074 N   0  0  0  0  0  0
  -31.6040  -15.3625   20.1414 O   0  0  0  0  0  0
  -21.6634   -6.8862   21.4263 O   0  0  0  0  0  0
  -22.3377  -14.5350   20.6725 O   0  0  0  0  0  0
  -24.6590  -31.8233   23.1713 C   0  0  0  0  0  0
  -25.9287  -32.4585   23.8153 C   0  0  1  0  0  0
  -27.2221  -26.9397   20.2128 C   0  0  0  0  0  0
  -25.5970  -33.8399   24.2061 N   0  0  0  0  0  0
  -23.4708  -30.4334   21.5232 C   0  0  2  0  0  0
  -24.9209  -28.8105   20.1309 C   0  0  0  0  0  0
  -22.7646  -29.4428   22.4832 C   0  0  0  0  0  0
  -18.0307  -28.1388   22.8462 C   0  0  0  0  0  0
  -24.1496  -36.7215   23.2643 C   0  0  0  0  0  0
  -26.0371  -30.6364   21.3964 C   0  0  0  0  0  0
  -26.1044  -29.2216   20.7557 C   0  0  0  0  0  0
  -27.2510  -28.3115   20.7628 C   0  0  0  0  0  0
  -26.0023  -26.6631   19.5554 C   0  0  0  0  0  0
  -24.8922  -27.5494   19.5127 C   0  0  0  0  0  0
  -23.7087  -29.7403   20.1534 C   0  0  0  0  0  0
  -25.4135  -36.2966   24.0287 C   0  0  1  0  0  0
  -20.5934  -28.3724   23.1214 C   0  0  2  0  0  0
  -20.6814  -26.9413   22.5418 C   0  0  0  0  0  0
  -19.5799  -26.6355   21.5225 C   0  0  0  0  0  0
  -18.1964  -26.7911   22.1614 C   0  0  0  0  0  0
  -19.1570  -28.8869   23.2823 C   0  0  0  0  0  0
  -18.9483  -30.1469   23.8844 C   0  0  0  0  0  0
  -17.6483  -30.6587   24.0538 C   0  0  0  0  0  0
  -25.9085  -34.9342   23.4995 C   0  0  0  0  0  0
  -16.5368  -29.9071   23.6353 C   0  0  0  0  0  0
  -16.7292  -28.6490   23.0364 C   0  0  0  0  0  0
  -26.4543  -31.6532   25.0679 C   0  0  0  0  0  0
  -25.3673  -31.3812   26.1350 C   0  0  0  0  0  0
  -27.0430  -30.2902   24.6398 C   0  0  0  0  0  0
  -27.6023  -32.4342   25.7491 C   0  0  0  0  0  0
  -27.5570  -37.1767   24.8461 C   0  0  0  0  0  0
  -21.4318  -29.3010   22.3575 N   0  0  0  0  0  0
  -26.4282  -37.3708   23.9400 N   0  0  0  0  0  0
  -24.7440  -30.9917   22.0834 N   0  0  0  0  0  0
  -23.4206  -28.7990   23.3053 O   0  0  0  0  0  0
  -28.3000  -25.9210   20.1322 O   0  0  0  0  0  0
  -26.5708  -34.8880   22.4599 O   0  0  0  0  0  0
  -23.5674  -32.1171   23.6841 O   0  0  0  0  0  0
  -31.6298  -20.3782   20.3791 C   0  0  0  0  0  0
  -31.2329  -19.0133   20.3707 C   0  0  0  0  0  0
  -30.7149  -21.4641   20.3797 C   0  0  0  0  0  0
  -29.8783  -18.6297   20.3767 C   0  0  0  0  0  0
  -29.3245  -21.2580   20.3614 C   0  0  0  0  0  0
  -27.9690  -17.7085   22.6655 C   0  0  0  0  0  0
  -27.3031  -17.7111   19.1747 C   0  0  0  0  0  0
  -26.9448  -22.2734   20.7039 C   0  0  0  0  0  0
  -28.1432  -22.7729   18.5840 C   0  0  0  0  0  0
  -29.1630  -16.8804   22.1376 C   0  0  0  0  0  0
  -28.2406  -16.6176   19.7233 C   0  0  0  0  0  0
  -28.4934  -24.3692   20.6614 C   0  0  0  0  0  0
  -29.4858  -16.9185   20.6049 C   0  0  0  0  0  0
  -28.3106  -22.6649   20.1063 C   0  0  0  0  0  0
  -28.9866  -19.8212   20.3642 N   0  0  0  0  0  0
  -31.4567  -13.1222   19.1702 H   0  0  0  0  0  0
  -30.5922  -11.9687   20.1307 H   0  0  0  0  0  0
  -29.9552  -11.7626   17.7215 H   0  0  0  0  0  0
  -29.5522  -13.4647   17.6476 H   0  0  0  0  0  0
  -28.0940  -11.2577   19.1408 H   0  0  0  0  0  0
  -27.4310  -12.2744   17.8764 H   0  0  0  0  0  0
  -27.4975  -14.1712   19.2634 H   0  0  0  0  0  0
  -28.8475  -12.4934   21.4506 H   0  0  0  0  0  0
  -28.2391  -14.0936   21.7131 H   0  0  0  0  0  0
  -25.2795   -9.5602   22.4841 H   0  0  0  0  0  0
  -24.0022   -7.4541   22.7455 H   0  0  0  0  0  0
  -21.0854   -8.8740   19.8964 H   0  0  0  0  0  0
  -22.3735  -10.9639   19.6200 H   0  0  0  0  0  0
  -21.1992   -7.6138   23.9787 H   0  0  0  0  0  0
  -21.1457   -6.0477   25.9114 H   0  0  0  0  0  0
  -22.0589   -2.7602   23.2874 H   0  0  0  0  0  0
  -22.4038  -11.9797   22.5005 H   0  0  0  0  0  0
  -21.0988  -13.1056   22.2731 H   0  0  0  0  0  0
  -24.5451  -15.7914   20.5049 H   0  0  0  0  0  0
  -26.1618  -15.6462   20.0394 H   0  0  0  0  0  0
  -26.7337  -32.5123   23.0848 H   0  0  0  0  0  0
  -25.0072  -33.9495   25.0186 H   0  0  0  0  0  0
  -22.7819  -31.2633   21.3524 H   0  0  0  0  0  0
  -23.3756  -35.9553   23.3276 H   0  0  0  0  0  0
  -24.3568  -36.8894   22.2062 H   0  0  0  0  0  0
  -23.7260  -37.6399   23.6718 H   0  0  0  0  0  0
  -26.2090  -31.3676   20.6043 H   0  0  0  0  0  0
  -26.9018  -30.6989   22.0458 H   0  0  0  0  0  0
  -28.1598  -28.6421   21.2452 H   0  0  0  0  0  0
  -25.8928  -25.7028   19.0705 H   0  0  0  0  0  0
  -23.9917  -27.2282   19.0080 H   0  0  0  0  0  0
  -23.8655  -30.5020   19.3878 H   0  0  0  0  0  0
  -22.8176  -29.1931   19.8416 H   0  0  0  0  0  0
  -25.1341  -36.1747   25.0778 H   0  0  0  0  0  0
  -20.9997  -28.3311   24.1351 H   0  0  0  0  0  0
  -20.5716  -26.2327   23.3645 H   0  0  0  0  0  0
  -21.6672  -26.7427   22.1209 H   0  0  0  0  0  0
  -19.6968  -25.6257   21.1279 H   0  0  0  0  0  0
  -19.6738  -27.3145   20.6735 H   0  0  0  0  0  0
  -17.4248  -26.6645   21.4004 H   0  0  0  0  0  0
  -18.0351  -26.0071   22.9019 H   0  0  0  0  0  0
  -19.7961  -30.7299   24.2191 H   0  0  0  0  0  0
  -17.5034  -31.6265   24.5138 H   0  0  0  0  0  0
  -15.5370  -30.2952   23.7712 H   0  0  0  0  0  0
  -15.8691  -28.0791   22.7123 H   0  0  0  0  0  0
  -24.5848  -30.7164   25.7682 H   0  0  0  0  0  0
  -24.8877  -32.3037   26.4624 H   0  0  0  0  0  0
  -25.7894  -30.9081   27.0222 H   0  0  0  0  0  0
  -26.3096  -29.6585   24.1380 H   0  0  0  0  0  0
  -27.3944  -29.7251   25.5036 H   0  0  0  0  0  0
  -27.9031  -30.4081   23.9811 H   0  0  0  0  0  0
  -27.2574  -33.3681   26.1937 H   0  0  0  0  0  0
  -28.3910  -32.6839   25.0385 H   0  0  0  0  0  0
  -28.0600  -31.8557   26.5524 H   0  0  0  0  0  0
  -28.2573  -38.0078   24.7504 H   0  0  0  0  0  0
  -28.1077  -36.2599   24.6286 H   0  0  0  0  0  0
  -27.2284  -37.1415   25.8867 H   0  0  0  0  0  0
  -20.9573  -29.8692   21.6698 H   0  0  0  0  0  0
  -26.0111  -38.2761   24.1420 H   0  0  0  0  0  0
  -32.6863  -20.6034   20.3831 H   0  0  0  0  0  0
  -31.9966  -18.2487   20.3947 H   0  0  0  0  0  0
  -31.1005  -22.4735   20.3484 H   0  0  0  0  0  0
  -27.8018  -17.5121   23.7257 H   0  0  0  0  0  0
  -27.0408  -17.4730   22.1503 H   0  0  0  0  0  0
  -28.1372  -18.7802   22.5781 H   0  0  0  0  0  0
  -26.8354  -18.2909   19.9698 H   0  0  0  0  0  0
  -26.4955  -17.2702   18.5907 H   0  0  0  0  0  0
  -27.8240  -18.3918   18.5006 H   0  0  0  0  0  0
  -26.5790  -21.3323   20.2906 H   0  0  0  0  0  0
  -26.1883  -23.0350   20.5144 H   0  0  0  0  0  0
  -27.0147  -22.1476   21.7844 H   0  0  0  0  0  0
  -29.1015  -22.9682   18.1047 H   0  0  0  0  0  0
  -27.4661  -23.5833   18.3097 H   0  0  0  0  0  0
  -27.7451  -21.8496   18.1625 H   0  0  0  0  0  0
  -29.0237  -15.8647   22.4936 H   0  0  0  0  0  0
  -30.0546  -17.2237   22.6660 H   0  0  0  0  0  0
  -27.6474  -15.9534   20.3281 H   0  0  0  0  0  0
  -28.5640  -16.0661   18.8404 H   0  0  0  0  0  0
  -29.5660  -24.4045   20.8474 H   0  0  0  0  0  0
  -28.0875  -24.3967   21.6735 H   0  0  0  0  0  0
  1 25  1  0  0  0
  1 30  2  0  0  0
  1 83  1  0  0  0
  2  3  1  0  0  0
  2 25  1  0  0  0
  2 86  1  0  0  0
  2 87  1  0  0  0
  3  4  1  0  0  0
  3 88  1  0  0  0
  3 89  1  0  0  0
  4  5  1  0  0  0
  4 90  1  0  0  0
  4 91  1  0  0  0
  5  6  1  0  0  0
  5 26  1  0  0  0
  5 92  1  0  0  0
  6 25  1  0  0  0
  6 93  1  0  0  0
  6 94  1  0  0  0
  7  8  2  0  0  0
  7 26  1  0  0  0
  7 29  1  0  0  0
  8  9  1  0  0  0
  8 22  1  0  0  0
  9 10  1  0  0  0
  9 27  2  0  0  0
 10 11  2  0  0  0
 10 15  1  0  0  0
 11 12  1  0  0  0
 11 95  1  0  0  0
 12 13  2  0  0  0
 12 96  1  0  0  0
 13 14  1  0  0  0
 13 31  1  0  0  0
 14 15  2  0  0  0
 14 97  1  0  0  0
 15 98  1  0  0  0
 16 17  2  0  0  0
 16 21  1  0  0  0
 16 31  1  0  0  0
 17 18  1  0  0  0
 17 99  1  0  0  0
 18 19  2  0  0  0
 18100  1  0  0  0
 19 20  1  0  0  0
 19 24  1  0  0  0
 20 21  2  0  0  0
 20101  1  0  0  0
 21 23  1  0  0  0
 22 28  1  0  0  0
 22 32  2  0  0  0
 26 27  1  0  0  0
 28102  1  0  0  0
 28103  1  0  0  0
 29104  1  0  0  0
 29105  1  0  0  0
 33 34  1  0  0  0
 33 66  1  0  0  0
 33 70  2  0  0  0
 34 36  1  0  0  0
 34 59  1  0  0  0
 34106  1  0  0  0
 35 44  2  0  0  0
 35 45  1  0  0  0
 35 68  1  0  0  0
 36 56  1  0  0  0
 36107  1  0  0  0
 37 39  1  0  0  0
 37 47  1  0  0  0
 37 66  1  0  0  0
 37108  1  0  0  0
 38 43  2  0  0  0
 38 46  1  0  0  0
 38 47  1  0  0  0
 39 64  1  0  0  0
 39 67  2  0  0  0
 40 52  1  0  0  0
 40 53  2  0  0  0
 40 58  1  0  0  0
 41109  1  0  0  0
 41110  1  0  0  0
 41111  1  0  0  0
 41 48  1  0  0  0
 42 43  1  0  0  0
 42 66  1  0  0  0
 42112  1  0  0  0
 42113  1  0  0  0
 43 44  1  0  0  0
 44114  1  0  0  0
 45 46  2  0  0  0
 45115  1  0  0  0
 46116  1  0  0  0
 47117  1  0  0  0
 47118  1  0  0  0
 48 56  1  0  0  0
 48 65  1  0  0  0
 48119  1  0  0  0
 49 50  1  0  0  0
 49 53  1  0  0  0
 49 64  1  0  0  0
 49120  1  0  0  0
 50 51  1  0  0  0
 50121  1  0  0  0
 50122  1  0  0  0
 51 52  1  0  0  0
 51123  1  0  0  0
 51124  1  0  0  0
 52125  1  0  0  0
 52126  1  0  0  0
 53 54  1  0  0  0
 54 55  2  0  0  0
 54127  1  0  0  0
 55 57  1  0  0  0
 55128  1  0  0  0
 56 69  2  0  0  0
 57 58  2  0  0  0
 57129  1  0  0  0
 58130  1  0  0  0
 59 60  1  0  0  0
 59 61  1  0  0  0
 59 62  1  0  0  0
 60131  1  0  0  0
 60132  1  0  0  0
 60133  1  0  0  0
 61134  1  0  0  0
 61135  1  0  0  0
 61136  1  0  0  0
 62137  1  0  0  0
 62138  1  0  0  0
 62139  1  0  0  0
 63 65  1  0  0  0
 63140  1  0  0  0
 63141  1  0  0  0
 63142  1  0  0  0
 64143  1  0  0  0
 65144  1  0  0  0
 68 82  1  0  0  0
 71 72  2  0  0  0
 71 73  1  0  0  0
 71145  1  0  0  0
 72 74  1  0  0  0
 72146  1  0  0  0
 73 75  2  0  0  0
 73147  1  0  0  0
 74 83  1  0  0  0
 74 85  2  0  0  0
 75 84  1  0  0  0
 75 85  1  0  0  0
 76 80  1  0  0  0
 76148  1  0  0  0
 76149  1  0  0  0
 76150  1  0  0  0
 77 81  1  0  0  0
 77151  1  0  0  0
 77152  1  0  0  0
 77153  1  0  0  0
 78154  1  0  0  0
 78155  1  0  0  0
 78156  1  0  0  0
 78 84  1  0  0  0
 79 84  1  0  0  0
 79157  1  0  0  0
 79158  1  0  0  0
 79159  1  0  0  0
 80160  1  0  0  0
 80161  1  0  0  0
 80 83  1  0  0  0
 81 83  1  0  0  0
 81162  1  0  0  0
 81163  1  0  0  0
 82 84  1  0  0  0
 82164  1  0  0  0
 82165  1  0  0  0
M  ISO  4   1 100  68 101  82 101  83 100
M  END
> <chiral flag>
0

> <version>
0

> <s_m_source_file>
/data/baiqing/PycharmProjects/Reinvent-master-3.2/result/LINK_invent/BTK/process_docking_weight1_custom_sum_contain_oxygen_bond_distance_aromatic_linkinvent_7_9_3/rearranged_h_0102.sdf

> <i_m_source_file_index>
3

> <r_mmod_Potential_Energy-OPLS-2005>
1505.06579589844

> <r_mmod_Stretch_Energy-OPLS-2005>
646.1123046875

> <r_mmod_Bend_Energy-OPLS-2005>
532.29296875

> <r_mmod_Torsional_Energy-OPLS-2005>
234.987228393555

> <r_mmod_Improper_Torsional_Energy-OPLS-2005>
5.10599517822266

> <r_mmod_Van_der_Waal_Energy-OPLS-2005>
135.766571044922

> <r_mmod_Electrostatic_Energy-OPLS-2005>
-345.042236328125

> <r_mmod_Solvation_Energy-OPLS-2005>
-186.658096313477

> <b_mmod_Minimization_Converged-OPLS-2005>
0

> <r_mmod_RMS_Derivative-OPLS-2005>
3.6632342338562

$$$$
3
                    3D
 Structure written by MMmdl.
179188  0  0  1  0            999 V2000
  -30.5287  -15.0110   20.4230 C   0  0  0  0  0  0
  -30.4351  -12.6378   19.4956 C   0  0  0  0  0  0
  -29.5186  -12.5428   18.2518 C   0  0  0  0  0  0
  -28.0526  -12.3173   18.6693 C   0  0  0  0  0  0
  -27.6206  -13.2543   19.8276 C   0  0  2  0  0  0
  -28.6649  -13.3141   20.9624 C   0  0  0  0  0  0
  -25.2437  -13.8224   20.5723 C   0  0  0  0  0  0
  -24.1759  -13.0436   20.9239 C   0  0  0  0  0  0
  -24.6381  -11.6929   20.8748 C   0  0  0  0  0  0
  -23.9077  -10.4286   21.0396 C   0  0  0  0  0  0
  -24.3635   -9.4199   21.9172 C   0  0  0  0  0  0
  -23.6307   -8.2240   22.0744 C   0  0  0  0  0  0
  -22.4285   -8.0283   21.3538 C   0  0  0  0  0  0
  -21.9921   -9.0252   20.4633 C   0  0  0  0  0  0
  -22.7252  -10.2127   20.3036 C   0  0  0  0  0  0
  -21.6866   -6.0726   22.5270 C   0  0  0  0  0  0
  -21.4020   -6.5625   23.8203 C   0  0  0  0  0  0
  -21.3662   -5.6782   24.9167 C   0  0  0  0  0  0
  -21.6048   -4.3042   24.7221 C   0  0  0  0  0  0
  -21.8827   -3.8134   23.4342 C   0  0  0  0  0  0
  -21.9202   -4.6950   22.3399 C   0  0  0  0  0  0
  -22.7788  -13.5204   21.1899 C   0  0  0  0  0  0
  -22.1668   -4.2134   21.0978 F   0  0  0  0  0  0
  -21.5628   -3.4527   25.7734 F   0  0  0  0  0  0
  -29.9274  -13.7499   20.3518 N   0  0  0  0  0  0
  -26.2843  -12.9452   20.3209 N   0  0  0  0  0  0
  -25.9303  -11.6578   20.5721 N   0  0  0  0  0  0
  -22.0445  -12.8174   22.0449 N   0  0  0  0  0  0
  -25.4103  -15.1958   20.4167 N   0  0  0  0  0  0
  -31.7484  -15.0463   20.2192 O   0  0  0  0  0  0
  -21.6651   -6.8871   21.4237 O   0  0  0  0  0  0
  -22.3461  -14.5498   20.6732 O   0  0  0  0  0  0
  -24.6477  -31.8382   23.1845 C   0  0  0  0  0  0
  -25.9228  -32.4676   23.8252 C   0  0  1  0  0  0
  -27.2259  -27.0866   20.1641 C   0  0  0  0  0  0
  -25.5920  -33.8487   24.2141 N   0  0  0  0  0  0
  -23.4549  -30.4530   21.5320 C   0  0  2  0  0  0
  -24.9075  -28.8620   20.1183 C   0  0  0  0  0  0
  -22.7583  -29.4523   22.4881 C   0  0  0  0  0  0
  -18.0312  -28.1369   22.8527 C   0  0  0  0  0  0
  -24.1480  -36.7254   23.2650 C   0  0  0  0  0  0
  -26.0151  -30.6914   21.3939 C   0  0  0  0  0  0
  -26.0873  -29.2975   20.7377 C   0  0  0  0  0  0
  -27.2453  -28.4269   20.7395 C   0  0  0  0  0  0
  -26.0215  -26.7614   19.5030 C   0  0  0  0  0  0
  -24.8902  -27.6095   19.4869 C   0  0  0  0  0  0
  -23.6846  -29.7683   20.1574 C   0  0  0  0  0  0
  -25.4124  -36.3043   24.0321 C   0  0  1  0  0  0
  -20.5922  -28.3702   23.1235 C   0  0  2  0  0  0
  -20.6769  -26.9388   22.5415 C   0  0  0  0  0  0
  -19.5734  -26.6358   21.5224 C   0  0  0  0  0  0
  -18.1930  -26.7924   22.1645 C   0  0  0  0  0  0
  -19.1577  -28.8854   23.2872 C   0  0  0  0  0  0
  -18.9484  -30.1452   23.8887 C   0  0  0  0  0  0
  -17.6478  -30.6579   24.0546 C   0  0  0  0  0  0
  -25.9072  -34.9410   23.5058 C   0  0  0  0  0  0
  -16.5369  -29.9065   23.6335 C   0  0  0  0  0  0
  -16.7298  -28.6472   23.0394 C   0  0  0  0  0  0
  -26.4515  -31.6600   25.0743 C   0  0  0  0  0  0
  -25.3649  -31.3841   26.1401 C   0  0  0  0  0  0
  -27.0364  -30.2964   24.6420 C   0  0  0  0  0  0
  -27.5997  -32.4405   25.7555 C   0  0  0  0  0  0
  -27.5589  -37.1797   24.8468 C   0  0  0  0  0  0
  -21.4269  -29.3047   22.3624 N   0  0  0  0  0  0
  -26.4288  -37.3762   23.9424 N   0  0  0  0  0  0
  -24.7260  -31.0177   22.0917 N   0  0  0  0  0  0
  -23.4217  -28.8058   23.3033 O   0  0  0  0  0  0
  -28.2721  -26.0832   20.2562 O   0  0  0  0  0  0
  -26.5677  -34.8918   22.4648 O   0  0  0  0  0  0
  -23.5583  -32.1272   23.7053 O   0  0  0  0  0  0
  -28.9986  -19.6254   19.0314 C   0  0  0  0  0  0
  -29.4388  -20.4984   20.9591 C   0  0  0  0  0  0
  -29.5076  -19.2255   20.3112 C   0  0  0  0  0  0
  -28.8325  -21.0083   18.9150 C   0  0  0  0  0  0
  -27.8346  -21.8757   15.2596 C   0  0  0  0  0  0
  -27.9619  -21.0037   16.5192 C   0  0  0  0  0  0
  -29.2046  -22.4229   14.8117 C   0  0  0  0  0  0
  -29.9963  -22.3565   17.1516 C   0  0  0  0  0  0
  -28.6348  -21.8038   17.6496 C   0  0  2  0  0  0
  -30.8756  -27.5550   16.3288 C   0  0  0  0  0  0
  -32.5249  -25.6694   14.5466 C   0  0  0  0  0  0
  -30.1793  -17.7445   20.7758 C   0  0  0  0  0  0
  -30.9555  -26.0329   16.5219 C   0  0  0  0  0  0
  -29.0414  -23.2260   20.5233 C   0  0  0  0  0  0
  -31.2178  -23.7082   15.4713 C   0  0  0  0  0  0
  -28.0528  -24.5360   20.0183 C   0  0  0  0  0  0
  -31.2039  -25.2373   15.2188 C   0  0  2  0  0  0
  -29.0173  -21.6465   20.1551 N   0  0  0  0  0  0
  -29.7690  -16.2248   20.5187 N   0  0  0  0  0  0
  -29.8969  -23.1617   15.9017 N   0  3  1  0  0  0
  -31.4665  -12.8064   19.1841 H   0  0  0  0  0  0
  -30.4395  -11.6970   20.0485 H   0  0  0  0  0  0
  -29.8483  -11.7390   17.5925 H   0  0  0  0  0  0
  -29.5912  -13.4666   17.6751 H   0  0  0  0  0  0
  -27.9559  -11.2769   18.9831 H   0  0  0  0  0  0
  -27.3907  -12.4426   17.8109 H   0  0  0  0  0  0
  -27.5671  -14.2505   19.3869 H   0  0  0  0  0  0
  -28.7778  -12.3418   21.4450 H   0  0  0  0  0  0
  -28.3561  -14.0171   21.7377 H   0  0  0  0  0  0
  -25.2774   -9.5673   22.4757 H   0  0  0  0  0  0
  -24.0011   -7.4629   22.7457 H   0  0  0  0  0  0
  -21.0849   -8.8769   19.8935 H   0  0  0  0  0  0
  -22.3711  -10.9673   19.6149 H   0  0  0  0  0  0
  -21.2006   -7.6129   23.9703 H   0  0  0  0  0  0
  -21.1485   -6.0506   25.9070 H   0  0  0  0  0  0
  -22.0608   -2.7593   23.2850 H   0  0  0  0  0  0
  -22.4094  -11.9862   22.4848 H   0  0  0  0  0  0
  -21.1045  -13.1168   22.2619 H   0  0  0  0  0  0
  -24.6422  -15.8491   20.5324 H   0  0  0  0  0  0
  -26.2484  -15.6364   20.0621 H   0  0  0  0  0  0
  -26.7296  -32.5249   23.0971 H   0  0  0  0  0  0
  -25.0003  -33.9587   25.0251 H   0  0  0  0  0  0
  -22.7622  -31.2810   21.3696 H   0  0  0  0  0  0
  -23.3773  -35.9555   23.3292 H   0  0  0  0  0  0
  -24.3537  -36.8909   22.2063 H   0  0  0  0  0  0
  -23.7192  -37.6432   23.6684 H   0  0  0  0  0  0
  -26.1814  -31.4382   20.6170 H   0  0  0  0  0  0
  -26.8835  -30.7392   22.0411 H   0  0  0  0  0  0
  -28.1415  -28.7493   21.2517 H   0  0  0  0  0  0
  -25.9194  -25.7996   19.0215 H   0  0  0  0  0  0
  -23.9887  -27.2683   18.9975 H   0  0  0  0  0  0
  -23.8220  -30.5339   19.3933 H   0  0  0  0  0  0
  -22.7999  -29.2059   19.8512 H   0  0  0  0  0  0
  -25.1319  -36.1873   25.0816 H   0  0  0  0  0  0
  -21.0018  -28.3274   24.1353 H   0  0  0  0  0  0
  -20.5611  -26.2313   23.3646 H   0  0  0  0  0  0
  -21.6628  -26.7344   22.1214 H   0  0  0  0  0  0
  -19.6849  -25.6262   21.1258 H   0  0  0  0  0  0
  -19.6643  -27.3161   20.6745 H   0  0  0  0  0  0
  -17.4183  -26.6705   21.4054 H   0  0  0  0  0  0
  -18.0305  -26.0045   22.9011 H   0  0  0  0  0  0
  -19.7948  -30.7278   24.2259 H   0  0  0  0  0  0
  -17.5020  -31.6267   24.5120 H   0  0  0  0  0  0
  -15.5366  -30.2942   23.7669 H   0  0  0  0  0  0
  -15.8696  -28.0745   22.7154 H   0  0  0  0  0  0
  -24.5797  -30.7235   25.7717 H   0  0  0  0  0  0
  -24.8858  -32.3036   26.4775 H   0  0  0  0  0  0
  -25.7855  -30.9024   27.0230 H   0  0  0  0  0  0
  -26.2991  -29.6722   24.1341 H   0  0  0  0  0  0
  -27.3811  -29.7271   25.5076 H   0  0  0  0  0  0
  -27.8987  -30.4178   23.9849 H   0  0  0  0  0  0
  -27.2519  -33.3696   26.2097 H   0  0  0  0  0  0
  -28.3820  -32.7007   25.0411 H   0  0  0  0  0  0
  -28.0642  -31.8569   26.5521 H   0  0  0  0  0  0
  -28.2612  -38.0099   24.7527 H   0  0  0  0  0  0
  -28.1068  -36.2625   24.6259 H   0  0  0  0  0  0
  -27.2285  -37.1419   25.8863 H   0  0  0  0  0  0
  -20.9496  -29.8759   21.6787 H   0  0  0  0  0  0
  -26.0164  -38.2842   24.1399 H   0  0  0  0  0  0
  -28.8987  -18.9471   18.1947 H   0  0  0  0  0  0
  -29.7474  -20.7219   21.9721 H   0  0  0  0  0  0
  -27.1480  -22.7040   15.4455 H   0  0  0  0  0  0
  -27.3960  -21.2846   14.4532 H   0  0  0  0  0  0
  -28.5426  -20.1124   16.2751 H   0  0  0  0  0  0
  -26.9763  -20.6601   16.8392 H   0  0  0  0  0  0
  -29.0760  -23.0824   13.9524 H   0  0  0  0  0  0
  -29.8321  -21.5961   14.4750 H   0  0  0  0  0  0
  -30.6789  -21.5219   16.9843 H   0  0  0  0  0  0
  -30.4463  -22.9685   17.9346 H   0  0  0  0  0  0
  -27.9691  -22.6346   17.8638 H   0  0  0  0  0  0
  -30.5681  -28.0443   17.2547 H   0  0  0  0  0  0
  -30.1519  -27.8242   15.5579 H   0  0  0  0  0  0
  -31.8400  -27.9802   16.0481 H   0  0  0  0  0  0
  -32.5207  -26.7224   14.2647 H   0  0  0  0  0  0
  -32.7093  -25.1097   13.6288 H   0  0  0  0  0  0
  -33.3805  -25.5087   15.2037 H   0  0  0  0  0  0
  -30.2994  -17.8148   21.8579 H   0  0  0  0  0  0
  -31.2033  -17.8112   20.4041 H   0  0  0  0  0  0
  -30.0186  -25.7111   16.9764 H   0  0  0  0  0  0
  -31.7344  -25.8044   17.2513 H   0  0  0  0  0  0
  -29.0067  -23.2602   21.6116 H   0  0  0  0  0  0
  -30.0577  -23.5371   20.2854 H   0  0  0  0  0  0
  -31.9927  -23.4820   16.2067 H   0  0  0  0  0  0
  -31.5406  -23.1942   14.5645 H   0  0  0  0  0  0
  -27.0654  -24.3107   20.4209 H   0  0  0  0  0  0
  -27.9371  -24.4689   18.9397 H   0  0  0  0  0  0
  -30.3988  -25.4656   14.5180 H   0  0  0  0  0  0
  -28.7736  -16.0696   20.5518 H   0  0  0  0  0  0
  -29.3219  -23.9592   16.1248 H   0  0  0  0  0  0
  1 25  1  0  0  0
  1 30  2  0  0  0
  1 89  1  0  0  0
  2  3  1  0  0  0
  2 25  1  0  0  0
  2 91  1  0  0  0
  2 92  1  0  0  0
  3  4  1  0  0  0
  3 93  1  0  0  0
  3 94  1  0  0  0
  4  5  1  0  0  0
  4 95  1  0  0  0
  4 96  1  0  0  0
  5  6  1  0  0  0
  5 26  1  0  0  0
  5 97  1  0  0  0
  6 25  1  0  0  0
  6 98  1  0  0  0
  6 99  1  0  0  0
  7  8  2  0  0  0
  7 26  1  0  0  0
  7 29  1  0  0  0
  8  9  1  0  0  0
  8 22  1  0  0  0
  9 10  1  0  0  0
  9 27  2  0  0  0
 10 11  2  0  0  0
 10 15  1  0  0  0
 11 12  1  0  0  0
 11100  1  0  0  0
 12 13  2  0  0  0
 12101  1  0  0  0
 13 14  1  0  0  0
 13 31  1  0  0  0
 14 15  2  0  0  0
 14102  1  0  0  0
 15103  1  0  0  0
 16 17  2  0  0  0
 16 21  1  0  0  0
 16 31  1  0  0  0
 17 18  1  0  0  0
 17104  1  0  0  0
 18 19  2  0  0  0
 18105  1  0  0  0
 19 20  1  0  0  0
 19 24  1  0  0  0
 20 21  2  0  0  0
 20106  1  0  0  0
 21 23  1  0  0  0
 22 28  1  0  0  0
 22 32  2  0  0  0
 26 27  1  0  0  0
 28107  1  0  0  0
 28108  1  0  0  0
 29109  1  0  0  0
 29110  1  0  0  0
 33 34  1  0  0  0
 33 66  1  0  0  0
 33 70  2  0  0  0
 34 36  1  0  0  0
 34 59  1  0  0  0
 34111  1  0  0  0
 35 44  2  0  0  0
 35 45  1  0  0  0
 35 68  1  0  0  0
 36 56  1  0  0  0
 36112  1  0  0  0
 37 39  1  0  0  0
 37 47  1  0  0  0
 37 66  1  0  0  0
 37113  1  0  0  0
 38 43  2  0  0  0
 38 46  1  0  0  0
 38 47  1  0  0  0
 39 64  1  0  0  0
 39 67  2  0  0  0
 40 52  1  0  0  0
 40 53  2  0  0  0
 40 58  1  0  0  0
 41114  1  0  0  0
 41115  1  0  0  0
 41116  1  0  0  0
 41 48  1  0  0  0
 42 43  1  0  0  0
 42 66  1  0  0  0
 42117  1  0  0  0
 42118  1  0  0  0
 43 44  1  0  0  0
 44119  1  0  0  0
 45 46  2  0  0  0
 45120  1  0  0  0
 46121  1  0  0  0
 47122  1  0  0  0
 47123  1  0  0  0
 48 56  1  0  0  0
 48 65  1  0  0  0
 48124  1  0  0  0
 49 50  1  0  0  0
 49 53  1  0  0  0
 49 64  1  0  0  0
 49125  1  0  0  0
 50 51  1  0  0  0
 50126  1  0  0  0
 50127  1  0  0  0
 51 52  1  0  0  0
 51128  1  0  0  0
 51129  1  0  0  0
 52130  1  0  0  0
 52131  1  0  0  0
 53 54  1  0  0  0
 54 55  2  0  0  0
 54132  1  0  0  0
 55 57  1  0  0  0
 55133  1  0  0  0
 56 69  2  0  0  0
 57 58  2  0  0  0
 57134  1  0  0  0
 58135  1  0  0  0
 59 60  1  0  0  0
 59 61  1  0  0  0
 59 62  1  0  0  0
 60136  1  0  0  0
 60137  1  0  0  0
 60138  1  0  0  0
 61139  1  0  0  0
 61140  1  0  0  0
 61141  1  0  0  0
 62142  1  0  0  0
 62143  1  0  0  0
 62144  1  0  0  0
 63 65  1  0  0  0
 63145  1  0  0  0
 63146  1  0  0  0
 63147  1  0  0  0
 64148  1  0  0  0
 65149  1  0  0  0
 68 86  1  0  0  0
 71 73  1  0  0  0
 71 74  2  0  0  0
 71150  1  0  0  0
 72 73  2  0  0  0
 72 88  1  0  0  0
 72151  1  0  0  0
 73 82  1  0  0  0
 74 88  1  0  0  0
 74 79  1  0  0  0
 75 76  1  0  0  0
 75 77  1  0  0  0
 75152  1  0  0  0
 75153  1  0  0  0
 76 79  1  0  0  0
 76154  1  0  0  0
 76155  1  0  0  0
 77 90  1  0  0  0
 77156  1  0  0  0
 77157  1  0  0  0
 78 79  1  0  0  0
 78 90  1  0  0  0
 78158  1  0  0  0
 78159  1  0  0  0
 79160  1  0  0  0
 80 83  1  0  0  0
 80161  1  0  0  0
 80162  1  0  0  0
 80163  1  0  0  0
 81164  1  0  0  0
 81165  1  0  0  0
 81166  1  0  0  0
 81 87  1  0  0  0
 82 89  1  0  0  0
 82167  1  0  0  0
 82168  1  0  0  0
 83 87  1  0  0  0
 83169  1  0  0  0
 83170  1  0  0  0
 84 86  1  0  0  0
 84 88  1  0  0  0
 84171  1  0  0  0
 84172  1  0  0  0
 85 87  1  0  0  0
 85173  1  0  0  0
 85174  1  0  0  0
 85 90  1  0  0  0
 86175  1  0  0  0
 86176  1  0  0  0
 87177  1  0  0  0
 89178  1  0  0  0
 90179  1  0  0  0
M  CHG  1  90   1
M  ISO  4   1 100  68 101  86 101  89 100
M  END
> <chiral flag>
0

> <version>
0

> <s_m_source_file>
/data/baiqing/PycharmProjects/Reinvent-master-3.2/result/LINK_invent/BTK/process_docking_weight1_custom_sum_contain_oxygen_bond_distance_aromatic_linkinvent_7_9_3/rearranged_h_0102.sdf

> <i_m_source_file_index>
4

> <r_mmod_Potential_Energy-OPLS-2005>
551.588317871094

> <r_mmod_Stretch_Energy-OPLS-2005>
313.178344726562

> <r_mmod_Bend_Energy-OPLS-2005>
314.157653808594

> <r_mmod_Torsional_Energy-OPLS-2005>
282.550170898438

> <r_mmod_Improper_Torsional_Energy-OPLS-2005>
8.1141242980957

> <r_mmod_Van_der_Waal_Energy-OPLS-2005>
110.178001403809

> <r_mmod_Electrostatic_Energy-OPLS-2005>
-277.086517333984

> <r_mmod_Solvation_Energy-OPLS-2005>
-440.878509521484

> <b_mmod_Minimization_Converged-OPLS-2005>
0

> <r_mmod_RMS_Derivative-OPLS-2005>
3.23369956016541

$$$$
4
                    3D
 Structure written by MMmdl.
163171  0  0  1  0            999 V2000
  -30.6117  -14.7592   20.4653 C   0  0  0  0  0  0
  -30.4399  -12.4681   19.4610 C   0  0  0  0  0  0
  -29.5081  -12.5076   18.2294 C   0  0  0  0  0  0
  -28.0365  -12.3247   18.6489 C   0  0  0  0  0  0
  -27.6410  -13.2311   19.8432 C   0  0  2  0  0  0
  -28.6892  -13.1688   20.9760 C   0  0  0  0  0  0
  -25.2481  -13.8167   20.5671 C   0  0  0  0  0  0
  -24.1799  -13.0429   20.9207 C   0  0  0  0  0  0
  -24.6388  -11.6897   20.8741 C   0  0  0  0  0  0
  -23.9069  -10.4282   21.0398 C   0  0  0  0  0  0
  -24.3615   -9.4197   21.9178 C   0  0  0  0  0  0
  -23.6289   -8.2236   22.0756 C   0  0  0  0  0  0
  -22.4273   -8.0271   21.3545 C   0  0  0  0  0  0
  -21.9905   -9.0242   20.4644 C   0  0  0  0  0  0
  -22.7239  -10.2125   20.3046 C   0  0  0  0  0  0
  -21.6850   -6.0725   22.5271 C   0  0  0  0  0  0
  -21.4015   -6.5631   23.8209 C   0  0  0  0  0  0
  -21.3663   -5.6791   24.9172 C   0  0  0  0  0  0
  -21.6045   -4.3057   24.7232 C   0  0  0  0  0  0
  -21.8811   -3.8142   23.4351 C   0  0  0  0  0  0
  -21.9191   -4.6945   22.3404 C   0  0  0  0  0  0
  -22.7806  -13.5179   21.1883 C   0  0  0  0  0  0
  -22.1656   -4.2135   21.0981 F   0  0  0  0  0  0
  -21.5635   -3.4538   25.7743 F   0  0  0  0  0  0
  -29.9911  -13.5286   20.3923 N   0  0  0  0  0  0
  -26.2937  -12.9401   20.3239 N   0  0  0  0  0  0
  -25.9324  -11.6549   20.5728 N   0  0  0  0  0  0
  -22.0474  -12.8174   22.0443 N   0  0  0  0  0  0
  -25.4099  -15.1910   20.4054 N   0  0  0  0  0  0
  -31.8033  -14.8689   20.1675 O   0  0  0  0  0  0
  -21.6645   -6.8867   21.4235 O   0  0  0  0  0  0
  -22.3495  -14.5498   20.6728 O   0  0  0  0  0  0
  -24.6244  -31.8657   23.1986 C   0  0  0  0  0  0
  -25.9100  -32.4803   23.8318 C   0  0  1  0  0  0
  -27.2431  -27.3046   20.1071 C   0  0  0  0  0  0
  -25.5888  -33.8592   24.2258 N   0  0  0  0  0  0
  -23.4203  -30.4843   21.5458 C   0  0  2  0  0  0
  -24.8777  -28.9481   20.0985 C   0  0  0  0  0  0
  -22.7460  -29.4637   22.4928 C   0  0  0  0  0  0
  -18.0301  -28.1341   22.8521 C   0  0  0  0  0  0
  -24.1519  -36.7261   23.2645 C   0  0  0  0  0  0
  -25.9625  -30.7898   21.3794 C   0  0  0  0  0  0
  -26.0455  -29.4185   20.7115 C   0  0  0  0  0  0
  -27.2279  -28.6096   20.7068 C   0  0  0  0  0  0
  -26.0524  -26.9089   19.4505 C   0  0  0  0  0  0
  -24.8875  -27.7021   19.4519 C   0  0  0  0  0  0
  -23.6351  -29.8177   20.1608 C   0  0  0  0  0  0
  -25.4147  -36.3076   24.0327 C   0  0  1  0  0  0
  -20.5902  -28.3672   23.1279 C   0  0  2  0  0  0
  -20.6791  -26.9385   22.5410 C   0  0  0  0  0  0
  -19.5758  -26.6361   21.5214 C   0  0  0  0  0  0
  -18.1947  -26.7897   22.1643 C   0  0  0  0  0  0
  -19.1555  -28.8818   23.2913 C   0  0  0  0  0  0
  -18.9481  -30.1435   23.8914 C   0  0  0  0  0  0
  -17.6467  -30.6565   24.0548 C   0  0  0  0  0  0
  -25.9078  -34.9465   23.5105 C   0  0  0  0  0  0
  -16.5369  -29.9046   23.6326 C   0  0  0  0  0  0
  -16.7293  -28.6457   23.0367 C   0  0  0  0  0  0
  -26.4497  -31.6558   25.0654 C   0  0  0  0  0  0
  -25.3666  -31.3649   26.1311 C   0  0  0  0  0  0
  -27.0354  -30.2981   24.6094 C   0  0  0  0  0  0
  -27.6098  -32.4245   25.7374 C   0  0  0  0  0  0
  -27.5612  -37.1763   24.8453 C   0  0  0  0  0  0
  -21.4171  -29.3028   22.3638 N   0  0  0  0  0  0
  -26.4334  -37.3753   23.9389 N   0  0  0  0  0  0
  -24.6882  -31.0594   22.1001 N   0  0  0  0  0  0
  -23.4180  -28.8195   23.3030 O   0  0  0  0  0  0
  -28.3527  -26.4240   20.1791 O   0  0  0  0  0  0
  -26.5674  -34.8934   22.4687 O   0  0  0  0  0  0
  -23.5394  -32.1526   23.7261 O   0  0  0  0  0  0
  -29.6547  -21.1460   20.3870 C   0  0  0  0  0  0
  -29.1260  -19.9367   19.9193 C   0  0  0  0  0  0
  -27.8448  -20.3446   19.4047 C   0  0  0  0  0  0
  -27.7679  -21.7269   19.3605 C   0  0  0  0  0  0
  -26.7263  -22.5635   18.6679 C   0  0  0  0  0  0
  -26.7893  -19.2329   17.3818 C   0  0  0  0  0  0
  -25.3764  -19.7142   19.4648 C   0  0  0  0  0  0
  -29.7132  -18.4381   19.7420 C   0  0  0  0  0  0
  -29.1634  -23.7689   20.3297 C   0  0  0  0  0  0
  -30.0840  -17.3746   20.8986 C   0  0  0  0  0  0
  -28.1500  -24.9649   19.8936 C   0  0  0  0  0  0
  -26.7728  -19.3828   18.9109 C   0  0  0  0  0  0
  -28.8541  -22.2803   20.0446 N   0  0  0  0  0  0
  -29.8145  -15.8728   20.6867 N   0  0  0  0  0  0
  -31.4759  -12.6077   19.1505 H   0  0  0  0  0  0
  -30.4037  -11.4923   19.9485 H   0  0  0  0  0  0
  -29.7933  -11.7314   17.5175 H   0  0  0  0  0  0
  -29.6278  -13.4593   17.7106 H   0  0  0  0  0  0
  -27.9021  -11.2763   18.9200 H   0  0  0  0  0  0
  -27.3773  -12.5049   17.7992 H   0  0  0  0  0  0
  -27.6315  -14.2501   19.4560 H   0  0  0  0  0  0
  -28.7252  -12.1714   21.4178 H   0  0  0  0  0  0
  -28.4177  -13.8505   21.7845 H   0  0  0  0  0  0
  -25.2747   -9.5680   22.4762 H   0  0  0  0  0  0
  -23.9990   -7.4630   22.7473 H   0  0  0  0  0  0
  -21.0836   -8.8751   19.8948 H   0  0  0  0  0  0
  -22.3675  -10.9661   19.6164 H   0  0  0  0  0  0
  -21.2008   -7.6144   23.9698 H   0  0  0  0  0  0
  -21.1497   -6.0532   25.9074 H   0  0  0  0  0  0
  -22.0590   -2.7599   23.2859 H   0  0  0  0  0  0
  -22.4119  -11.9852   22.4848 H   0  0  0  0  0  0
  -21.1071  -13.1163   22.2633 H   0  0  0  0  0  0
  -24.6234  -15.8243   20.4965 H   0  0  0  0  0  0
  -26.2370  -15.6395   20.0380 H   0  0  0  0  0  0
  -26.7171  -32.5547   23.1072 H   0  0  0  0  0  0
  -24.9809  -33.9708   25.0243 H   0  0  0  0  0  0
  -22.7162  -31.3081   21.4047 H   0  0  0  0  0  0
  -23.3814  -35.9563   23.3290 H   0  0  0  0  0  0
  -24.3607  -36.8913   22.2062 H   0  0  0  0  0  0
  -23.7261  -37.6443   23.6702 H   0  0  0  0  0  0
  -26.0914  -31.5676   20.6252 H   0  0  0  0  0  0
  -26.8391  -30.8354   22.0125 H   0  0  0  0  0  0
  -28.1189  -28.9703   21.2051 H   0  0  0  0  0  0
  -25.9968  -25.9678   18.9277 H   0  0  0  0  0  0
  -23.9949  -27.3492   18.9532 H   0  0  0  0  0  0
  -23.7084  -30.5962   19.3995 H   0  0  0  0  0  0
  -22.7646  -29.2222   19.8840 H   0  0  0  0  0  0
  -25.1340  -36.1912   25.0824 H   0  0  0  0  0  0
  -21.0061  -28.3267   24.1372 H   0  0  0  0  0  0
  -20.5679  -26.2264   23.3617 H   0  0  0  0  0  0
  -21.6659  -26.7384   22.1213 H   0  0  0  0  0  0
  -19.6907  -25.6271   21.1232 H   0  0  0  0  0  0
  -19.6690  -27.3194   20.6765 H   0  0  0  0  0  0
  -17.4212  -26.6679   21.4043 H   0  0  0  0  0  0
  -18.0326  -26.0009   22.9005 H   0  0  0  0  0  0
  -19.7951  -30.7243   24.2285 H   0  0  0  0  0  0
  -17.5024  -31.6253   24.5118 H   0  0  0  0  0  0
  -15.5366  -30.2935   23.7633 H   0  0  0  0  0  0
  -15.8707  -28.0768   22.7059 H   0  0  0  0  0  0
  -24.5884  -30.7018   25.7497 H   0  0  0  0  0  0
  -24.8787  -32.2788   26.4706 H   0  0  0  0  0  0
  -25.7906  -30.8756   27.0082 H   0  0  0  0  0  0
  -26.2938  -29.6651   24.1213 H   0  0  0  0  0  0
  -27.4164  -29.7302   25.4584 H   0  0  0  0  0  0
  -27.8751  -30.4245   23.9262 H   0  0  0  0  0  0
  -27.2838  -33.3621   26.1876 H   0  0  0  0  0  0
  -28.3918  -32.6656   25.0154 H   0  0  0  0  0  0
  -28.0745  -31.8369   26.5293 H   0  0  0  0  0  0
  -28.2589  -38.0103   24.7584 H   0  0  0  0  0  0
  -28.1171  -36.2632   24.6229 H   0  0  0  0  0  0
  -27.2297  -37.1315   25.8845 H   0  0  0  0  0  0
  -20.9312  -29.8720   21.6851 H   0  0  0  0  0  0
  -26.0230  -38.2826   24.1406 H   0  0  0  0  0  0
  -30.5954  -21.3157   20.8981 H   0  0  0  0  0  0
  -27.1765  -23.2355   17.9398 H   0  0  0  0  0  0
  -26.1003  -23.1167   19.3675 H   0  0  0  0  0  0
  -26.0660  -21.9655   18.0480 H   0  0  0  0  0  0
  -27.7529  -18.8643   17.0308 H   0  0  0  0  0  0
  -26.6052  -20.1743   16.8660 H   0  0  0  0  0  0
  -26.0264  -18.5255   17.0574 H   0  0  0  0  0  0
  -25.4315  -19.9977   20.5184 H   0  0  0  0  0  0
  -24.7228  -18.8470   19.3871 H   0  0  0  0  0  0
  -24.8754  -20.5187   18.9340 H   0  0  0  0  0  0
  -30.6004  -18.5418   19.1147 H   0  0  0  0  0  0
  -29.0303  -17.9185   19.0757 H   0  0  0  0  0  0
  -29.2991  -23.8533   21.4084 H   0  0  0  0  0  0
  -30.1526  -23.9711   19.9120 H   0  0  0  0  0  0
  -29.5187  -17.6501   21.7882 H   0  0  0  0  0  0
  -31.1299  -17.5123   21.1760 H   0  0  0  0  0  0
  -27.2019  -24.7042   20.3584 H   0  0  0  0  0  0
  -28.0328  -24.9322   18.8128 H   0  0  0  0  0  0
  -26.9985  -18.4081   19.3370 H   0  0  0  0  0  0
  -28.8545  -15.6182   20.8581 H   0  0  0  0  0  0
  1 25  1  0  0  0
  1 30  2  0  0  0
  1 84  1  0  0  0
  2  3  1  0  0  0
  2 25  1  0  0  0
  2 85  1  0  0  0
  2 86  1  0  0  0
  3  4  1  0  0  0
  3 87  1  0  0  0
  3 88  1  0  0  0
  4  5  1  0  0  0
  4 89  1  0  0  0
  4 90  1  0  0  0
  5  6  1  0  0  0
  5 26  1  0  0  0
  5 91  1  0  0  0
  6 25  1  0  0  0
  6 92  1  0  0  0
  6 93  1  0  0  0
  7  8  2  0  0  0
  7 26  1  0  0  0
  7 29  1  0  0  0
  8  9  1  0  0  0
  8 22  1  0  0  0
  9 10  1  0  0  0
  9 27  2  0  0  0
 10 11  2  0  0  0
 10 15  1  0  0  0
 11 12  1  0  0  0
 11 94  1  0  0  0
 12 13  2  0  0  0
 12 95  1  0  0  0
 13 14  1  0  0  0
 13 31  1  0  0  0
 14 15  2  0  0  0
 14 96  1  0  0  0
 15 97  1  0  0  0
 16 17  2  0  0  0
 16 21  1  0  0  0
 16 31  1  0  0  0
 17 18  1  0  0  0
 17 98  1  0  0  0
 18 19  2  0  0  0
 18 99  1  0  0  0
 19 20  1  0  0  0
 19 24  1  0  0  0
 20 21  2  0  0  0
 20100  1  0  0  0
 21 23  1  0  0  0
 22 28  1  0  0  0
 22 32  2  0  0  0
 26 27  1  0  0  0
 28101  1  0  0  0
 28102  1  0  0  0
 29103  1  0  0  0
 29104  1  0  0  0
 33 34  1  0  0  0
 33 66  1  0  0  0
 33 70  2  0  0  0
 34 36  1  0  0  0
 34 59  1  0  0  0
 34105  1  0  0  0
 35 44  2  0  0  0
 35 45  1  0  0  0
 35 68  1  0  0  0
 36 56  1  0  0  0
 36106  1  0  0  0
 37 39  1  0  0  0
 37 47  1  0  0  0
 37 66  1  0  0  0
 37107  1  0  0  0
 38 43  2  0  0  0
 38 46  1  0  0  0
 38 47  1  0  0  0
 39 64  1  0  0  0
 39 67  2  0  0  0
 40 52  1  0  0  0
 40 53  2  0  0  0
 40 58  1  0  0  0
 41108  1  0  0  0
 41109  1  0  0  0
 41110  1  0  0  0
 41 48  1  0  0  0
 42 43  1  0  0  0
 42 66  1  0  0  0
 42111  1  0  0  0
 42112  1  0  0  0
 43 44  1  0  0  0
 44113  1  0  0  0
 45 46  2  0  0  0
 45114  1  0  0  0
 46115  1  0  0  0
 47116  1  0  0  0
 47117  1  0  0  0
 48 56  1  0  0  0
 48 65  1  0  0  0
 48118  1  0  0  0
 49 50  1  0  0  0
 49 53  1  0  0  0
 49 64  1  0  0  0
 49119  1  0  0  0
 50 51  1  0  0  0
 50120  1  0  0  0
 50121  1  0  0  0
 51 52  1  0  0  0
 51122  1  0  0  0
 51123  1  0  0  0
 52124  1  0  0  0
 52125  1  0  0  0
 53 54  1  0  0  0
 54 55  2  0  0  0
 54126  1  0  0  0
 55 57  1  0  0  0
 55127  1  0  0  0
 56 69  2  0  0  0
 57 58  2  0  0  0
 57128  1  0  0  0
 58129  1  0  0  0
 59 60  1  0  0  0
 59 61  1  0  0  0
 59 62  1  0  0  0
 60130  1  0  0  0
 60131  1  0  0  0
 60132  1  0  0  0
 61133  1  0  0  0
 61134  1  0  0  0
 61135  1  0  0  0
 62136  1  0  0  0
 62137  1  0  0  0
 62138  1  0  0  0
 63 65  1  0  0  0
 63139  1  0  0  0
 63140  1  0  0  0
 63141  1  0  0  0
 64142  1  0  0  0
 65143  1  0  0  0
 68 81  1  0  0  0
 71 72  2  0  0  0
 71 83  1  0  0  0
 71144  1  0  0  0
 72 73  1  0  0  0
 72 78  1  0  0  0
 73 74  2  0  0  0
 73 82  1  0  0  0
 74 75  1  0  0  0
 74 83  1  0  0  0
 75145  1  0  0  0
 75146  1  0  0  0
 75147  1  0  0  0
 76148  1  0  0  0
 76149  1  0  0  0
 76150  1  0  0  0
 76 82  1  0  0  0
 77 82  1  0  0  0
 77151  1  0  0  0
 77152  1  0  0  0
 77153  1  0  0  0
 78 80  1  0  0  0
 78154  1  0  0  0
 78155  1  0  0  0
 79 81  1  0  0  0
 79 83  1  0  0  0
 79156  1  0  0  0
 79157  1  0  0  0
 80 84  1  0  0  0
 80158  1  0  0  0
 80159  1  0  0  0
 81160  1  0  0  0
 81161  1  0  0  0
 82162  1  0  0  0
 84163  1  0  0  0
M  ISO  4   1 100  68 101  81 101  84 100
M  END
> <chiral flag>
0

> <version>
0

> <s_m_source_file>
/data/baiqing/PycharmProjects/Reinvent-master-3.2/result/LINK_invent/BTK/process_docking_weight1_custom_sum_contain_oxygen_bond_distance_aromatic_linkinvent_7_9_3/rearranged_h_0102.sdf

> <i_m_source_file_index>
5

> <r_mmod_Potential_Energy-OPLS-2005>
166.069412231445

> <r_mmod_Stretch_Energy-OPLS-2005>
131.535736083984

> <r_mmod_Bend_Energy-OPLS-2005>
204.176696777344

> <r_mmod_Torsional_Energy-OPLS-2005>
239.73664855957

> <r_mmod_Improper_Torsional_Energy-OPLS-2005>
5.64231634140015

> <r_mmod_Van_der_Waal_Energy-OPLS-2005>
129.511642456055

> <r_mmod_Electrostatic_Energy-OPLS-2005>
-411.123474121094

> <r_mmod_Solvation_Energy-OPLS-2005>
-212.746276855469

> <b_mmod_Minimization_Converged-OPLS-2005>
0

> <r_mmod_RMS_Derivative-OPLS-2005>
5.16145420074463

$$$$
5
                    3D
 Structure written by MMmdl.
182190  0  0  1  0            999 V2000
  -30.7257  -14.4698   20.5744 C   0  0  0  0  0  0
  -30.4233  -12.3128   19.4226 C   0  0  0  0  0  0
  -29.4964  -12.5178   18.2077 C   0  0  0  0  0  0
  -28.0209  -12.3664   18.6198 C   0  0  0  0  0  0
  -27.6633  -13.2085   19.8718 C   0  0  2  0  0  0
  -28.7068  -13.0058   20.9955 C   0  0  0  0  0  0
  -25.2639  -13.8143   20.5716 C   0  0  0  0  0  0
  -24.1873  -13.0448   20.9184 C   0  0  0  0  0  0
  -24.6415  -11.6903   20.8707 C   0  0  0  0  0  0
  -23.9065  -10.4295   21.0376 C   0  0  0  0  0  0
  -24.3621   -9.4216   21.9172 C   0  0  0  0  0  0
  -23.6317   -8.2235   22.0741 C   0  0  0  0  0  0
  -22.4296   -8.0277   21.3527 C   0  0  0  0  0  0
  -21.9931   -9.0247   20.4612 C   0  0  0  0  0  0
  -22.7236  -10.2138   20.3031 C   0  0  0  0  0  0
  -21.6865   -6.0744   22.5266 C   0  0  0  0  0  0
  -21.4001   -6.5641   23.8200 C   0  0  0  0  0  0
  -21.3663   -5.6801   24.9171 C   0  0  0  0  0  0
  -21.6038   -4.3059   24.7215 C   0  0  0  0  0  0
  -21.8819   -3.8157   23.4329 C   0  0  0  0  0  0
  -21.9185   -4.6969   22.3387 C   0  0  0  0  0  0
  -22.7889  -13.5228   21.1834 C   0  0  0  0  0  0
  -22.1656   -4.2157   21.0964 F   0  0  0  0  0  0
  -21.5651   -3.4542   25.7725 F   0  0  0  0  0  0
  -30.0407  -13.3013   20.4429 N   0  0  0  0  0  0
  -26.3049  -12.9327   20.3339 N   0  0  0  0  0  0
  -25.9339  -11.6484   20.5705 N   0  0  0  0  0  0
  -22.0537  -12.8244   22.0368 N   0  0  0  0  0  0
  -25.4417  -15.1847   20.4189 N   0  0  0  0  0  0
  -31.8436  -14.6563   20.0906 O   0  0  0  0  0  0
  -21.6647   -6.8885   21.4222 O   0  0  0  0  0  0
  -22.3587  -14.5531   20.6639 O   0  0  0  0  0  0
  -24.6156  -31.8663   23.2103 C   0  0  0  0  0  0
  -25.9047  -32.4804   23.8398 C   0  0  1  0  0  0
  -27.2193  -27.4340   20.1069 C   0  0  0  0  0  0
  -25.5902  -33.8600   24.2326 N   0  0  0  0  0  0
  -23.4041  -30.4927   21.5473 C   0  0  2  0  0  0
  -24.8512  -28.9648   20.1043 C   0  0  0  0  0  0
  -22.7424  -29.4646   22.4944 C   0  0  0  0  0  0
  -18.0282  -28.1384   22.8494 C   0  0  0  0  0  0
  -24.1488  -36.7307   23.2634 C   0  0  0  0  0  0
  -25.9325  -30.8384   21.3617 C   0  0  0  0  0  0
  -26.0116  -29.4743   20.7042 C   0  0  0  0  0  0
  -27.2053  -28.7181   20.6976 C   0  0  0  0  0  0
  -26.0527  -26.9425   19.4875 C   0  0  0  0  0  0
  -24.8684  -27.7020   19.4865 C   0  0  0  0  0  0
  -23.6131  -29.8295   20.1584 C   0  0  0  0  0  0
  -25.4111  -36.3091   24.0339 C   0  0  1  0  0  0
  -20.5870  -28.3658   23.1313 C   0  0  2  0  0  0
  -20.6763  -26.9399   22.5415 C   0  0  0  0  0  0
  -19.5745  -26.6387   21.5207 C   0  0  0  0  0  0
  -18.1917  -26.7932   22.1618 C   0  0  0  0  0  0
  -19.1530  -28.8852   23.2885 C   0  0  0  0  0  0
  -18.9456  -30.1452   23.8896 C   0  0  0  0  0  0
  -17.6456  -30.6572   24.0583 C   0  0  0  0  0  0
  -25.9043  -34.9451   23.5131 C   0  0  0  0  0  0
  -16.5352  -29.9083   23.6333 C   0  0  0  0  0  0
  -16.7269  -28.6510   23.0347 C   0  0  0  0  0  0
  -26.4489  -31.6580   25.0723 C   0  0  0  0  0  0
  -25.3763  -31.3703   26.1477 C   0  0  0  0  0  0
  -27.0308  -30.3018   24.6087 C   0  0  0  0  0  0
  -27.6068  -32.4310   25.7481 C   0  0  0  0  0  0
  -27.5575  -37.1794   24.8461 C   0  0  0  0  0  0
  -21.4152  -29.3024   22.3710 N   0  0  0  0  0  0
  -26.4287  -37.3771   23.9406 N   0  0  0  0  0  0
  -24.6683  -31.0800   22.0986 N   0  0  0  0  0  0
  -23.4205  -28.8195   23.2974 O   0  0  0  0  0  0
  -28.3322  -26.6298   20.1793 O   0  0  0  0  0  0
  -26.5583  -34.8919   22.4675 O   0  0  0  0  0  0
  -23.5347  -32.1395   23.7504 O   0  0  0  0  0  0
  -30.2691  -20.0654   20.8757 C   0  0  0  0  0  0
  -29.4947  -19.0577   20.2679 C   0  0  0  0  0  0
  -28.1309  -19.3505   19.9923 C   0  0  0  0  0  0
  -27.6322  -20.6434   20.3312 C   0  0  0  0  0  0
  -28.5142  -21.5832   20.9312 C   0  0  0  0  0  0
  -27.3807  -18.2320   17.8259 C   0  0  0  0  0  0
  -31.3917  -17.8962   19.0529 C   0  0  0  0  0  0
  -23.0233  -20.6129   22.3988 C   0  0  0  0  0  0
  -27.2249  -18.2902   19.3530 C   0  0  0  0  0  0
  -26.1634  -20.9979   20.0980 C   0  0  0  0  0  0
  -28.0857  -22.9748   21.4166 C   0  0  0  0  0  0
  -25.2871  -20.5523   21.2904 C   0  0  0  0  0  0
  -28.4667  -24.1404   20.4707 C   0  0  0  0  0  0
  -30.4553  -16.8864   21.2369 C   0  0  0  0  0  0
  -23.2826  -19.5090   20.0961 C   0  0  0  0  0  0
  -28.1516  -25.5240   21.0884 C   0  0  0  0  0  0
  -30.1519  -17.7012   19.9472 C   0  0  1  0  0  0
  -23.7636  -20.6401   21.0439 C   0  0  1  0  0  0
  -29.8032  -21.2881   21.1903 N   0  0  0  0  0  0
  -30.0477  -15.4746   21.1525 N   0  0  0  0  0  0
  -21.8332  -19.5526   19.8309 N   0  3  0  0  0  0
  -31.4675  -12.4063   19.1209 H   0  0  0  0  0  0
  -30.3213  -11.3023   19.8215 H   0  0  0  0  0  0
  -29.7484  -11.8104   17.4182 H   0  0  0  0  0  0
  -29.6545  -13.5138   17.7905 H   0  0  0  0  0  0
  -27.8390  -11.3085   18.8193 H   0  0  0  0  0  0
  -27.3661  -12.6333   17.7877 H   0  0  0  0  0  0
  -27.7022  -14.2537   19.5677 H   0  0  0  0  0  0
  -28.6821  -11.9775   21.3563 H   0  0  0  0  0  0
  -28.4648  -13.6236   21.8623 H   0  0  0  0  0  0
  -25.2754   -9.5717   22.4768 H   0  0  0  0  0  0
  -24.0035   -7.4617   22.7459 H   0  0  0  0  0  0
  -21.0877   -8.8728   19.8911 H   0  0  0  0  0  0
  -22.3665  -10.9683   19.6153 H   0  0  0  0  0  0
  -21.1979   -7.6152   23.9716 H   0  0  0  0  0  0
  -21.1503   -6.0528   25.9086 H   0  0  0  0  0  0
  -22.0605   -2.7622   23.2814 H   0  0  0  0  0  0
  -22.4159  -11.9880   22.4706 H   0  0  0  0  0  0
  -21.1157  -13.1249   22.2580 H   0  0  0  0  0  0
  -24.6936  -15.8525   20.5571 H   0  0  0  0  0  0
  -26.3051  -15.6032   20.1039 H   0  0  0  0  0  0
  -26.7128  -32.5523   23.1176 H   0  0  0  0  0  0
  -25.0115  -33.9782   25.0510 H   0  0  0  0  0  0
  -22.6906  -31.3086   21.4110 H   0  0  0  0  0  0
  -23.3741  -35.9642   23.3298 H   0  0  0  0  0  0
  -24.3586  -36.8917   22.2045 H   0  0  0  0  0  0
  -23.7256  -37.6530   23.6650 H   0  0  0  0  0  0
  -26.0467  -31.6115   20.6004 H   0  0  0  0  0  0
  -26.8207  -30.8891   21.9820 H   0  0  0  0  0  0
  -28.0996  -29.0974   21.1747 H   0  0  0  0  0  0
  -26.0536  -25.9653   19.0259 H   0  0  0  0  0  0
  -23.9765  -27.3139   19.0100 H   0  0  0  0  0  0
  -23.7181  -30.6066   19.4000 H   0  0  0  0  0  0
  -22.7414  -29.2464   19.8590 H   0  0  0  0  0  0
  -25.1274  -36.1947   25.0834 H   0  0  0  0  0  0
  -20.9976  -28.3214   24.1433 H   0  0  0  0  0  0
  -20.5675  -26.2260   23.3594 H   0  0  0  0  0  0
  -21.6628  -26.7433   22.1207 H   0  0  0  0  0  0
  -19.6892  -25.6297   21.1235 H   0  0  0  0  0  0
  -19.6690  -27.3206   20.6749 H   0  0  0  0  0  0
  -17.4200  -26.6701   21.4013 H   0  0  0  0  0  0
  -18.0312  -26.0063   22.9015 H   0  0  0  0  0  0
  -19.7931  -30.7273   24.2251 H   0  0  0  0  0  0
  -17.5017  -31.6252   24.5182 H   0  0  0  0  0  0
  -15.5352  -30.2997   23.7648 H   0  0  0  0  0  0
  -15.8672  -28.0843   22.7038 H   0  0  0  0  0  0
  -24.5921  -30.7072   25.7818 H   0  0  0  0  0  0
  -24.8986  -32.2882   26.4917 H   0  0  0  0  0  0
  -25.8111  -30.8874   27.0233 H   0  0  0  0  0  0
  -26.2838  -29.6791   24.1163 H   0  0  0  0  0  0
  -27.4113  -29.7240   25.4514 H   0  0  0  0  0  0
  -27.8664  -30.4337   23.9209 H   0  0  0  0  0  0
  -27.2673  -33.3593   26.2091 H   0  0  0  0  0  0
  -28.3856  -32.6893   25.0295 H   0  0  0  0  0  0
  -28.0777  -31.8428   26.5369 H   0  0  0  0  0  0
  -28.2579  -38.0099   24.7507 H   0  0  0  0  0  0
  -28.1073  -36.2628   24.6271 H   0  0  0  0  0  0
  -27.2300  -37.1428   25.8866 H   0  0  0  0  0  0
  -20.9304  -29.8762   21.6949 H   0  0  0  0  0  0
  -26.0171  -38.2844   24.1421 H   0  0  0  0  0  0
  -31.3040  -19.8922   21.1278 H   0  0  0  0  0  0
  -26.7795  -17.4257   17.4017 H   0  0  0  0  0  0
  -28.4152  -18.0562   17.5315 H   0  0  0  0  0  0
  -27.0611  -19.1645   17.3606 H   0  0  0  0  0  0
  -31.1160  -18.3607   18.1050 H   0  0  0  0  0  0
  -31.8657  -16.9452   18.8174 H   0  0  0  0  0  0
  -32.1495  -18.5306   19.5141 H   0  0  0  0  0  0
  -23.3798  -21.4085   23.0554 H   0  0  0  0  0  0
  -23.1759  -19.6683   22.9222 H   0  0  0  0  0  0
  -21.9484  -20.7659   22.2876 H   0  0  0  0  0  0
  -26.1764  -18.4455   19.5974 H   0  0  0  0  0  0
  -27.4292  -17.3154   19.7959 H   0  0  0  0  0  0
  -25.8304  -20.5534   19.1625 H   0  0  0  0  0  0
  -26.0431  -22.0657   19.9212 H   0  0  0  0  0  0
  -28.5614  -23.1402   22.3849 H   0  0  0  0  0  0
  -27.0192  -23.0081   21.6356 H   0  0  0  0  0  0
  -25.5584  -21.1602   22.1552 H   0  0  0  0  0  0
  -25.5338  -19.5296   21.5785 H   0  0  0  0  0  0
  -27.9454  -24.0160   19.5219 H   0  0  0  0  0  0
  -29.5328  -24.0890   20.2508 H   0  0  0  0  0  0
  -29.8948  -17.3097   22.0711 H   0  0  0  0  0  0
  -31.5070  -16.9740   21.5174 H   0  0  0  0  0  0
  -23.5342  -18.5306   20.5106 H   0  0  0  0  0  0
  -23.7921  -19.5797   19.1350 H   0  0  0  0  0  0
  -28.7996  -25.6910   21.9495 H   0  0  0  0  0  0
  -27.1381  -25.4952   21.4970 H   0  0  0  0  0  0
  -29.4836  -17.1025   19.3342 H   0  0  0  0  0  0
  -23.5581  -21.6046   20.5772 H   0  0  0  0  0  0
  -29.1421  -15.2383   21.5317 H   0  0  0  0  0  0
  -21.3132  -19.4341   20.6808 H   0  0  0  0  0  0
  -21.5793  -18.8055   19.2075 H   0  0  0  0  0  0
  -21.5659  -20.4201   19.4024 H   0  0  0  0  0  0
  1 25  1  0  0  0
  1 30  2  0  0  0
  1 90  1  0  0  0
  2  3  1  0  0  0
  2 25  1  0  0  0
  2 92  1  0  0  0
  2 93  1  0  0  0
  3  4  1  0  0  0
  3 94  1  0  0  0
  3 95  1  0  0  0
  4  5  1  0  0  0
  4 96  1  0  0  0
  4 97  1  0  0  0
  5  6  1  0  0  0
  5 26  1  0  0  0
  5 98  1  0  0  0
  6 25  1  0  0  0
  6 99  1  0  0  0
  6100  1  0  0  0
  7  8  2  0  0  0
  7 26  1  0  0  0
  7 29  1  0  0  0
  8  9  1  0  0  0
  8 22  1  0  0  0
  9 10  1  0  0  0
  9 27  2  0  0  0
 10 11  2  0  0  0
 10 15  1  0  0  0
 11 12  1  0  0  0
 11101  1  0  0  0
 12 13  2  0  0  0
 12102  1  0  0  0
 13 14  1  0  0  0
 13 31  1  0  0  0
 14 15  2  0  0  0
 14103  1  0  0  0
 15104  1  0  0  0
 16 17  2  0  0  0
 16 21  1  0  0  0
 16 31  1  0  0  0
 17 18  1  0  0  0
 17105  1  0  0  0
 18 19  2  0  0  0
 18106  1  0  0  0
 19 20  1  0  0  0
 19 24  1  0  0  0
 20 21  2  0  0  0
 20107  1  0  0  0
 21 23  1  0  0  0
 22 28  1  0  0  0
 22 32  2  0  0  0
 26 27  1  0  0  0
 28108  1  0  0  0
 28109  1  0  0  0
 29110  1  0  0  0
 29111  1  0  0  0
 33 34  1  0  0  0
 33 66  1  0  0  0
 33 70  2  0  0  0
 34 36  1  0  0  0
 34 59  1  0  0  0
 34112  1  0  0  0
 35 44  2  0  0  0
 35 45  1  0  0  0
 35 68  1  0  0  0
 36 56  1  0  0  0
 36113  1  0  0  0
 37 39  1  0  0  0
 37 47  1  0  0  0
 37 66  1  0  0  0
 37114  1  0  0  0
 38 43  2  0  0  0
 38 46  1  0  0  0
 38 47  1  0  0  0
 39 64  1  0  0  0
 39 67  2  0  0  0
 40 52  1  0  0  0
 40 53  2  0  0  0
 40 58  1  0  0  0
 41115  1  0  0  0
 41116  1  0  0  0
 41117  1  0  0  0
 41 48  1  0  0  0
 42 43  1  0  0  0
 42 66  1  0  0  0
 42118  1  0  0  0
 42119  1  0  0  0
 43 44  1  0  0  0
 44120  1  0  0  0
 45 46  2  0  0  0
 45121  1  0  0  0
 46122  1  0  0  0
 47123  1  0  0  0
 47124  1  0  0  0
 48 56  1  0  0  0
 48 65  1  0  0  0
 48125  1  0  0  0
 49 50  1  0  0  0
 49 53  1  0  0  0
 49 64  1  0  0  0
 49126  1  0  0  0
 50 51  1  0  0  0
 50127  1  0  0  0
 50128  1  0  0  0
 51 52  1  0  0  0
 51129  1  0  0  0
 51130  1  0  0  0
 52131  1  0  0  0
 52132  1  0  0  0
 53 54  1  0  0  0
 54 55  2  0  0  0
 54133  1  0  0  0
 55 57  1  0  0  0
 55134  1  0  0  0
 56 69  2  0  0  0
 57 58  2  0  0  0
 57135  1  0  0  0
 58136  1  0  0  0
 59 60  1  0  0  0
 59 61  1  0  0  0
 59 62  1  0  0  0
 60137  1  0  0  0
 60138  1  0  0  0
 60139  1  0  0  0
 61140  1  0  0  0
 61141  1  0  0  0
 61142  1  0  0  0
 62143  1  0  0  0
 62144  1  0  0  0
 62145  1  0  0  0
 63 65  1  0  0  0
 63146  1  0  0  0
 63147  1  0  0  0
 63148  1  0  0  0
 64149  1  0  0  0
 65150  1  0  0  0
 68 86  1  0  0  0
 71 72  2  0  0  0
 71 89  1  0  0  0
 71151  1  0  0  0
 72 73  1  0  0  0
 72 87  1  0  0  0
 73 74  2  0  0  0
 73 79  1  0  0  0
 74 75  1  0  0  0
 74 80  1  0  0  0
 75 81  1  0  0  0
 75 89  2  0  0  0
 76 79  1  0  0  0
 76152  1  0  0  0
 76153  1  0  0  0
 76154  1  0  0  0
 77155  1  0  0  0
 77156  1  0  0  0
 77157  1  0  0  0
 77 87  1  0  0  0
 78158  1  0  0  0
 78159  1  0  0  0
 78160  1  0  0  0
 78 88  1  0  0  0
 79161  1  0  0  0
 79162  1  0  0  0
 80 82  1  0  0  0
 80163  1  0  0  0
 80164  1  0  0  0
 81 83  1  0  0  0
 81165  1  0  0  0
 81166  1  0  0  0
 82 88  1  0  0  0
 82167  1  0  0  0
 82168  1  0  0  0
 83 86  1  0  0  0
 83169  1  0  0  0
 83170  1  0  0  0
 84 87  1  0  0  0
 84 90  1  0  0  0
 84171  1  0  0  0
 84172  1  0  0  0
 85 88  1  0  0  0
 85 91  1  0  0  0
 85173  1  0  0  0
 85174  1  0  0  0
 86175  1  0  0  0
 86176  1  0  0  0
 87177  1  0  0  0
 88178  1  0  0  0
 90179  1  0  0  0
 91180  1  0  0  0
 91181  1  0  0  0
 91182  1  0  0  0
M  CHG  1  91   1
M  ISO  4   1 100  68 101  86 101  90 100
M  END
> <chiral flag>
0

> <version>
0

> <s_m_source_file>
/data/baiqing/PycharmProjects/Reinvent-master-3.2/result/LINK_invent/BTK/process_docking_weight1_custom_sum_contain_oxygen_bond_distance_aromatic_linkinvent_7_9_3/rearranged_h_0102.sdf

> <i_m_source_file_index>
6

> <r_mmod_Potential_Energy-OPLS-2005>
-506.244506835938

> <r_mmod_Stretch_Energy-OPLS-2005>
42.154239654541

> <r_mmod_Bend_Energy-OPLS-2005>
100.892066955566

> <r_mmod_Torsional_Energy-OPLS-2005>
246.42951965332

> <r_mmod_Improper_Torsional_Energy-OPLS-2005>
3.22218084335327

> <r_mmod_Van_der_Waal_Energy-OPLS-2005>
147.859008789062

> <r_mmod_Electrostatic_Energy-OPLS-2005>
-541.470031738281

> <r_mmod_Solvation_Energy-OPLS-2005>
-521.516967773438

> <b_mmod_Minimization_Converged-OPLS-2005>
0

> <r_mmod_RMS_Derivative-OPLS-2005>
3.95305848121643

$$$$
6
                    3D
 Structure written by MMmdl.
165173  0  0  1  0            999 V2000
  -30.5745  -14.7902   20.4641 C   0  0  0  0  0  0
  -30.4420  -12.4882   19.4666 C   0  0  0  0  0  0
  -29.5117  -12.5115   18.2330 C   0  0  0  0  0  0
  -28.0391  -12.3239   18.6512 C   0  0  0  0  0  0
  -27.6398  -13.2289   19.8466 C   0  0  2  0  0  0
  -28.6859  -13.1726   20.9796 C   0  0  0  0  0  0
  -25.2516  -13.8183   20.5685 C   0  0  0  0  0  0
  -24.1807  -13.0436   20.9210 C   0  0  0  0  0  0
  -24.6393  -11.6911   20.8753 C   0  0  0  0  0  0
  -23.9068  -10.4289   21.0414 C   0  0  0  0  0  0
  -24.3620   -9.4205   21.9194 C   0  0  0  0  0  0
  -23.6292   -8.2243   22.0763 C   0  0  0  0  0  0
  -22.4277   -8.0282   21.3551 C   0  0  0  0  0  0
  -21.9912   -9.0254   20.4654 C   0  0  0  0  0  0
  -22.7241  -10.2132   20.3062 C   0  0  0  0  0  0
  -21.6853   -6.0732   22.5280 C   0  0  0  0  0  0
  -21.4012   -6.5640   23.8211 C   0  0  0  0  0  0
  -21.3656   -5.6795   24.9177 C   0  0  0  0  0  0
  -21.6045   -4.3058   24.7229 C   0  0  0  0  0  0
  -21.8820   -3.8146   23.4351 C   0  0  0  0  0  0
  -21.9193   -4.6959   22.3406 C   0  0  0  0  0  0
  -22.7831  -13.5226   21.1865 C   0  0  0  0  0  0
  -22.1664   -4.2147   21.0984 F   0  0  0  0  0  0
  -21.5625   -3.4544   25.7740 F   0  0  0  0  0  0
  -29.9783  -13.5481   20.3920 N   0  0  0  0  0  0
  -26.2930  -12.9382   20.3264 N   0  0  0  0  0  0
  -25.9322  -11.6528   20.5749 N   0  0  0  0  0  0
  -22.0479  -12.8213   22.0419 N   0  0  0  0  0  0
  -25.4199  -15.1907   20.4076 N   0  0  0  0  0  0
  -31.7723  -14.9102   20.1902 O   0  0  0  0  0  0
  -21.6645   -6.8876   21.4241 O   0  0  0  0  0  0
  -22.3518  -14.5534   20.6709 O   0  0  0  0  0  0
  -24.6337  -31.8514   23.1938 C   0  0  0  0  0  0
  -25.9151  -32.4730   23.8290 C   0  0  1  0  0  0
  -27.2228  -27.2338   20.1441 C   0  0  0  0  0  0
  -25.5936  -33.8534   24.2213 N   0  0  0  0  0  0
  -23.4324  -30.4695   21.5380 C   0  0  2  0  0  0
  -24.8809  -28.9053   20.1151 C   0  0  0  0  0  0
  -22.7515  -29.4574   22.4915 C   0  0  0  0  0  0
  -18.0289  -28.1385   22.8475 C   0  0  0  0  0  0
  -24.1492  -36.7276   23.2637 C   0  0  0  0  0  0
  -25.9787  -30.7555   21.3760 C   0  0  0  0  0  0
  -26.0537  -29.3728   20.7235 C   0  0  0  0  0  0
  -27.2300  -28.5521   20.7203 C   0  0  0  0  0  0
  -26.0279  -26.8320   19.5143 C   0  0  0  0  0  0
  -24.8744  -27.6434   19.4977 C   0  0  0  0  0  0
  -23.6527  -29.7958   20.1572 C   0  0  0  0  0  0
  -25.4125  -36.3053   24.0308 C   0  0  1  0  0  0
  -20.5894  -28.3698   23.1266 C   0  0  2  0  0  0
  -20.6781  -26.9413   22.5414 C   0  0  0  0  0  0
  -19.5759  -26.6378   21.5216 C   0  0  0  0  0  0
  -18.1931  -26.7924   22.1617 C   0  0  0  0  0  0
  -19.1544  -28.8860   23.2858 C   0  0  0  0  0  0
  -18.9467  -30.1455   23.8877 C   0  0  0  0  0  0
  -17.6468  -30.6582   24.0560 C   0  0  0  0  0  0
  -25.9072  -34.9424   23.5069 C   0  0  0  0  0  0
  -16.5360  -29.9079   23.6338 C   0  0  0  0  0  0
  -16.7277  -28.6502   23.0348 C   0  0  0  0  0  0
  -26.4509  -31.6574   25.0698 C   0  0  0  0  0  0
  -25.3718  -31.3736   26.1409 C   0  0  0  0  0  0
  -27.0369  -30.2985   24.6208 C   0  0  0  0  0  0
  -27.6046  -32.4338   25.7479 C   0  0  0  0  0  0
  -27.5577  -37.1787   24.8461 C   0  0  0  0  0  0
  -21.4220  -29.3037   22.3655 N   0  0  0  0  0  0
  -26.4296  -37.3758   23.9403 N   0  0  0  0  0  0
  -24.7008  -31.0450   22.0922 N   0  0  0  0  0  0
  -23.4197  -28.8122   23.3035 O   0  0  0  0  0  0
  -28.3173  -26.3343   20.1388 O   0  0  0  0  0  0
  -26.5648  -34.8909   22.4642 O   0  0  0  0  0  0
  -23.5480  -32.1351   23.7220 O   0  0  0  0  0  0
  -31.6127  -22.7179   21.9610 C   0  0  0  0  0  0
  -31.7361  -21.3222   22.0424 C   0  0  0  0  0  0
  -29.6348  -22.5261   20.7181 C   0  0  0  0  0  0
  -29.7927  -21.0355   20.7783 C   0  0  0  0  0  0
  -33.7196  -19.7453   21.9282 C   0  0  0  0  0  0
  -32.3497  -19.9461   24.0714 C   0  0  0  0  0  0
  -27.4791  -22.8113   19.2771 C   0  0  0  0  0  0
  -29.5172  -18.5411   19.8680 C   0  0  0  0  0  0
  -30.0158  -17.3965   20.9159 C   0  0  0  0  0  0
  -28.1550  -24.9245   20.6750 C   0  0  0  0  0  0
  -32.8704  -20.6675   22.8180 C   0  0  0  0  0  0
  -28.6620  -23.5377   19.9341 C   0  0  1  0  0  0
  -30.5903  -23.2969   21.3023 N   0  0  0  0  0  0
  -30.8367  -20.5058   21.4565 N   0  0  0  0  0  0
  -29.0124  -19.9386   20.2684 N   0  0  0  0  0  0
  -29.7535  -15.8993   20.6561 N   0  0  0  0  0  0
  -31.4779  -12.6404   19.1586 H   0  0  0  0  0  0
  -30.4127  -11.5142   19.9571 H   0  0  0  0  0  0
  -29.8023  -11.7329   17.5263 H   0  0  0  0  0  0
  -29.6249  -13.4606   17.7071 H   0  0  0  0  0  0
  -27.9048  -11.2755   18.9209 H   0  0  0  0  0  0
  -27.3792  -12.5065   17.8022 H   0  0  0  0  0  0
  -27.6289  -14.2474   19.4588 H   0  0  0  0  0  0
  -28.7365  -12.1745   21.4169 H   0  0  0  0  0  0
  -28.4134  -13.8470   21.7933 H   0  0  0  0  0  0
  -25.2761   -9.5681   22.4775 H   0  0  0  0  0  0
  -23.9996   -7.4634   22.7486 H   0  0  0  0  0  0
  -21.0842   -8.8769   19.8965 H   0  0  0  0  0  0
  -22.3695  -10.9670   19.6174 H   0  0  0  0  0  0
  -21.2007   -7.6148   23.9711 H   0  0  0  0  0  0
  -21.1477   -6.0531   25.9078 H   0  0  0  0  0  0
  -22.0602   -2.7608   23.2856 H   0  0  0  0  0  0
  -22.4095  -11.9864   22.4780 H   0  0  0  0  0  0
  -21.1109  -13.1249   22.2654 H   0  0  0  0  0  0
  -24.6453  -15.8385   20.5045 H   0  0  0  0  0  0
  -26.2551  -15.6289   20.0421 H   0  0  0  0  0  0
  -26.7204  -32.5373   23.1020 H   0  0  0  0  0  0
  -25.0093  -33.9666   25.0362 H   0  0  0  0  0  0
  -22.7312  -31.2918   21.3855 H   0  0  0  0  0  0
  -23.3751  -35.9613   23.3303 H   0  0  0  0  0  0
  -24.3579  -36.8918   22.2053 H   0  0  0  0  0  0
  -23.7260  -37.6477   23.6681 H   0  0  0  0  0  0
  -26.1214  -31.5128   20.6039 H   0  0  0  0  0  0
  -26.8542  -30.8062   22.0114 H   0  0  0  0  0  0
  -28.1310  -28.9074   21.2008 H   0  0  0  0  0  0
  -25.9802  -25.8623   19.0399 H   0  0  0  0  0  0
  -23.9778  -27.2780   19.0150 H   0  0  0  0  0  0
  -23.7806  -30.5686   19.3979 H   0  0  0  0  0  0
  -22.7704  -29.2290   19.8535 H   0  0  0  0  0  0
  -25.1311  -36.1888   25.0799 H   0  0  0  0  0  0
  -20.9965  -28.3276   24.1396 H   0  0  0  0  0  0
  -20.5701  -26.2295   23.3617 H   0  0  0  0  0  0
  -21.6645  -26.7457   22.1196 H   0  0  0  0  0  0
  -19.6939  -25.6289   21.1250 H   0  0  0  0  0  0
  -19.6705  -27.3178   20.6743 H   0  0  0  0  0  0
  -17.4212  -26.6671   21.4008 H   0  0  0  0  0  0
  -18.0327  -26.0066   22.9015 H   0  0  0  0  0  0
  -19.7948  -30.7267   24.2233 H   0  0  0  0  0  0
  -17.5032  -31.6265   24.5158 H   0  0  0  0  0  0
  -15.5355  -30.2975   23.7682 H   0  0  0  0  0  0
  -15.8677  -28.0821   22.7067 H   0  0  0  0  0  0
  -24.5897  -30.7084   25.7727 H   0  0  0  0  0  0
  -24.8896  -32.2904   26.4805 H   0  0  0  0  0  0
  -25.8009  -30.8928   27.0205 H   0  0  0  0  0  0
  -26.2954  -29.6709   24.1250 H   0  0  0  0  0  0
  -27.4063  -29.7279   25.4741 H   0  0  0  0  0  0
  -27.8825  -30.4253   23.9445 H   0  0  0  0  0  0
  -27.2641  -33.3655   26.2007 H   0  0  0  0  0  0
  -28.3872  -32.6881   25.0316 H   0  0  0  0  0  0
  -28.0693  -31.8501   26.5436 H   0  0  0  0  0  0
  -28.2577  -38.0097   24.7513 H   0  0  0  0  0  0
  -28.1083  -36.2624   24.6283 H   0  0  0  0  0  0
  -27.2288  -37.1440   25.8861 H   0  0  0  0  0  0
  -20.9417  -29.8756   21.6849 H   0  0  0  0  0  0
  -26.0163  -38.2821   24.1423 H   0  0  0  0  0  0
  -32.3312  -23.3767   22.4268 H   0  0  0  0  0  0
  -34.1037  -20.2816   21.0595 H   0  0  0  0  0  0
  -33.1395  -18.8960   21.5651 H   0  0  0  0  0  0
  -34.5746  -19.3499   22.4761 H   0  0  0  0  0  0
  -31.8040  -20.6337   24.7179 H   0  0  0  0  0  0
  -33.1687  -19.5268   24.6547 H   0  0  0  0  0  0
  -31.6733  -19.1318   23.8101 H   0  0  0  0  0  0
  -27.8210  -22.0363   18.5903 H   0  0  0  0  0  0
  -26.8698  -23.5061   18.6991 H   0  0  0  0  0  0
  -26.8368  -22.3454   20.0238 H   0  0  0  0  0  0
  -28.6986  -18.1003   19.2975 H   0  0  0  0  0  0
  -30.3118  -18.6886   19.1348 H   0  0  0  0  0  0
  -29.5407  -17.6055   21.8753 H   0  0  0  0  0  0
  -31.0819  -17.5315   21.1035 H   0  0  0  0  0  0
  -28.6651  -24.9755   21.6361 H   0  0  0  0  0  0
  -27.1177  -24.7799   20.9784 H   0  0  0  0  0  0
  -33.5280  -21.4684   23.1607 H   0  0  0  0  0  0
  -29.2818  -23.8852   19.1072 H   0  0  0  0  0  0
  -28.1671  -20.2293   19.7853 H   0  0  0  0  0  0
  -28.7841  -15.6436   20.7646 H   0  0  0  0  0  0
  1 25  1  0  0  0
  1 30  2  0  0  0
  1 86  1  0  0  0
  2  3  1  0  0  0
  2 25  1  0  0  0
  2 87  1  0  0  0
  2 88  1  0  0  0
  3  4  1  0  0  0
  3 89  1  0  0  0
  3 90  1  0  0  0
  4  5  1  0  0  0
  4 91  1  0  0  0
  4 92  1  0  0  0
  5  6  1  0  0  0
  5 26  1  0  0  0
  5 93  1  0  0  0
  6 25  1  0  0  0
  6 94  1  0  0  0
  6 95  1  0  0  0
  7  8  2  0  0  0
  7 26  1  0  0  0
  7 29  1  0  0  0
  8  9  1  0  0  0
  8 22  1  0  0  0
  9 10  1  0  0  0
  9 27  2  0  0  0
 10 11  2  0  0  0
 10 15  1  0  0  0
 11 12  1  0  0  0
 11 96  1  0  0  0
 12 13  2  0  0  0
 12 97  1  0  0  0
 13 14  1  0  0  0
 13 31  1  0  0  0
 14 15  2  0  0  0
 14 98  1  0  0  0
 15 99  1  0  0  0
 16 17  2  0  0  0
 16 21  1  0  0  0
 16 31  1  0  0  0
 17 18  1  0  0  0
 17100  1  0  0  0
 18 19  2  0  0  0
 18101  1  0  0  0
 19 20  1  0  0  0
 19 24  1  0  0  0
 20 21  2  0  0  0
 20102  1  0  0  0
 21 23  1  0  0  0
 22 28  1  0  0  0
 22 32  2  0  0  0
 26 27  1  0  0  0
 28103  1  0  0  0
 28104  1  0  0  0
 29105  1  0  0  0
 29106  1  0  0  0
 33 34  1  0  0  0
 33 66  1  0  0  0
 33 70  2  0  0  0
 34 36  1  0  0  0
 34 59  1  0  0  0
 34107  1  0  0  0
 35 44  2  0  0  0
 35 45  1  0  0  0
 35 68  1  0  0  0
 36 56  1  0  0  0
 36108  1  0  0  0
 37 39  1  0  0  0
 37 47  1  0  0  0
 37 66  1  0  0  0
 37109  1  0  0  0
 38 43  2  0  0  0
 38 46  1  0  0  0
 38 47  1  0  0  0
 39 64  1  0  0  0
 39 67  2  0  0  0
 40 52  1  0  0  0
 40 53  2  0  0  0
 40 58  1  0  0  0
 41110  1  0  0  0
 41111  1  0  0  0
 41112  1  0  0  0
 41 48  1  0  0  0
 42 43  1  0  0  0
 42 66  1  0  0  0
 42113  1  0  0  0
 42114  1  0  0  0
 43 44  1  0  0  0
 44115  1  0  0  0
 45 46  2  0  0  0
 45116  1  0  0  0
 46117  1  0  0  0
 47118  1  0  0  0
 47119  1  0  0  0
 48 56  1  0  0  0
 48 65  1  0  0  0
 48120  1  0  0  0
 49 50  1  0  0  0
 49 53  1  0  0  0
 49 64  1  0  0  0
 49121  1  0  0  0
 50 51  1  0  0  0
 50122  1  0  0  0
 50123  1  0  0  0
 51 52  1  0  0  0
 51124  1  0  0  0
 51125  1  0  0  0
 52126  1  0  0  0
 52127  1  0  0  0
 53 54  1  0  0  0
 54 55  2  0  0  0
 54128  1  0  0  0
 55 57  1  0  0  0
 55129  1  0  0  0
 56 69  2  0  0  0
 57 58  2  0  0  0
 57130  1  0  0  0
 58131  1  0  0  0
 59 60  1  0  0  0
 59 61  1  0  0  0
 59 62  1  0  0  0
 60132  1  0  0  0
 60133  1  0  0  0
 60134  1  0  0  0
 61135  1  0  0  0
 61136  1  0  0  0
 61137  1  0  0  0
 62138  1  0  0  0
 62139  1  0  0  0
 62140  1  0  0  0
 63 65  1  0  0  0
 63141  1  0  0  0
 63142  1  0  0  0
 63143  1  0  0  0
 64144  1  0  0  0
 65145  1  0  0  0
 68 80  1  0  0  0
 71 72  2  0  0  0
 71 83  1  0  0  0
 71146  1  0  0  0
 72 81  1  0  0  0
 72 84  1  0  0  0
 73 74  1  0  0  0
 73 82  1  0  0  0
 73 83  2  0  0  0
 74 84  2  0  0  0
 74 85  1  0  0  0
 75147  1  0  0  0
 75148  1  0  0  0
 75149  1  0  0  0
 75 81  1  0  0  0
 76 81  1  0  0  0
 76150  1  0  0  0
 76151  1  0  0  0
 76152  1  0  0  0
 77153  1  0  0  0
 77154  1  0  0  0
 77155  1  0  0  0
 77 82  1  0  0  0
 78 79  1  0  0  0
 78 85  1  0  0  0
 78156  1  0  0  0
 78157  1  0  0  0
 79 86  1  0  0  0
 79158  1  0  0  0
 79159  1  0  0  0
 80 82  1  0  0  0
 80160  1  0  0  0
 80161  1  0  0  0
 81162  1  0  0  0
 82163  1  0  0  0
 85164  1  0  0  0
 86165  1  0  0  0
M  ISO  4   1 100  68 101  80 101  86 100
M  END
> <chiral flag>
0

> <version>
0

> <s_m_source_file>
/data/baiqing/PycharmProjects/Reinvent-master-3.2/result/LINK_invent/BTK/process_docking_weight1_custom_sum_contain_oxygen_bond_distance_aromatic_linkinvent_7_9_3/rearranged_h_0102.sdf

> <i_m_source_file_index>
7

> <r_mmod_Potential_Energy-OPLS-2005>
246.673416137695

> <r_mmod_Stretch_Energy-OPLS-2005>
159.47380065918

> <r_mmod_Bend_Energy-OPLS-2005>
258.141021728516

> <r_mmod_Torsional_Energy-OPLS-2005>
218.061920166016

> <r_mmod_Improper_Torsional_Energy-OPLS-2005>
6.64083671569824

> <r_mmod_Van_der_Waal_Energy-OPLS-2005>
133.583190917969

> <r_mmod_Electrostatic_Energy-OPLS-2005>
-398.143829345703

> <r_mmod_Solvation_Energy-OPLS-2005>
-234.81396484375

> <b_mmod_Minimization_Converged-OPLS-2005>
0

> <r_mmod_RMS_Derivative-OPLS-2005>
1.44791948795319

$$$$
7
                    3D
 Structure written by MMmdl.
171179  0  0  1  0            999 V2000
  -30.6009  -14.7379   20.2459 C   0  0  0  0  0  0
  -30.3971  -12.4002   19.4197 C   0  0  0  0  0  0
  -29.4706  -12.4651   18.1838 C   0  0  0  0  0  0
  -28.0119  -12.3001   18.6343 C   0  0  0  0  0  0
  -27.6290  -13.2351   19.8111 C   0  0  2  0  0  0
  -28.6874  -13.2147   20.9345 C   0  0  0  0  0  0
  -25.2547  -13.8158   20.5623 C   0  0  0  0  0  0
  -24.1852  -13.0405   20.9182 C   0  0  0  0  0  0
  -24.6420  -11.6886   20.8683 C   0  0  0  0  0  0
  -23.9134  -10.4250   21.0417 C   0  0  0  0  0  0
  -24.3673   -9.4111   21.9156 C   0  0  0  0  0  0
  -23.6287   -8.2163   22.0745 C   0  0  0  0  0  0
  -22.4245   -8.0244   21.3553 C   0  0  0  0  0  0
  -21.9933   -9.0230   20.4638 C   0  0  0  0  0  0
  -22.7338  -10.2076   20.3039 C   0  0  0  0  0  0
  -21.6830   -6.0745   22.5294 C   0  0  0  0  0  0
  -21.4003   -6.5633   23.8240 C   0  0  0  0  0  0
  -21.3666   -5.6774   24.9194 C   0  0  0  0  0  0
  -21.6036   -4.3041   24.7219 C   0  0  0  0  0  0
  -21.8823   -3.8148   23.4335 C   0  0  0  0  0  0
  -21.9165   -4.6976   22.3399 C   0  0  0  0  0  0
  -22.7882  -13.5175   21.1853 C   0  0  0  0  0  0
  -22.1646   -4.2138   21.0982 F   0  0  0  0  0  0
  -21.5622   -3.4539   25.7742 F   0  0  0  0  0  0
  -29.9888  -13.5072   20.3103 N   0  0  0  0  0  0
  -26.2921  -12.9366   20.3095 N   0  0  0  0  0  0
  -25.9321  -11.6526   20.5628 N   0  0  0  0  0  0
  -22.0562  -12.8091   22.0393 N   0  0  0  0  0  0
  -25.4217  -15.1915   20.4178 N   0  0  0  0  0  0
  -31.8352  -14.8089   20.1043 O   0  0  0  0  0  0
  -21.6606   -6.8851   21.4239 O   0  0  0  0  0  0
  -22.3472  -14.5426   20.6655 O   0  0  0  0  0  0
  -24.6303  -31.8489   23.2187 C   0  0  0  0  0  0
  -25.9079  -32.4776   23.8419 C   0  0  1  0  0  0
  -27.2303  -27.2807   20.0929 C   0  0  0  0  0  0
  -25.5816  -33.8577   24.2303 N   0  0  0  0  0  0
  -23.4354  -30.4794   21.5530 C   0  0  2  0  0  0
  -24.8647  -28.9166   20.1083 C   0  0  0  0  0  0
  -22.7453  -29.4527   22.4822 C   0  0  0  0  0  0
  -18.0251  -28.1148   22.8667 C   0  0  0  0  0  0
  -24.1383  -36.7322   23.2687 C   0  0  0  0  0  0
  -25.9791  -30.7627   21.3937 C   0  0  0  0  0  0
  -26.0362  -29.3757   20.7500 C   0  0  0  0  0  0
  -27.2025  -28.5552   20.7606 C   0  0  0  0  0  0
  -26.0349  -26.8571   19.4771 C   0  0  0  0  0  0
  -24.8754  -27.6663   19.4625 C   0  0  0  0  0  0
  -23.6463  -29.8391   20.1636 C   0  0  0  0  0  0
  -25.4008  -36.3138   24.0394 C   0  0  1  0  0  0
  -20.5880  -28.3574   23.1298 C   0  0  2  0  0  0
  -20.6642  -26.9234   22.5505 C   0  0  0  0  0  0
  -19.5576  -26.6156   21.5322 C   0  0  0  0  0  0
  -18.1778  -26.7735   22.1752 C   0  0  0  0  0  0
  -19.1498  -28.8662   23.3045 C   0  0  0  0  0  0
  -18.9467  -30.1264   23.9061 C   0  0  0  0  0  0
  -17.6453  -30.6468   24.0560 C   0  0  0  0  0  0
  -25.8918  -34.9446   23.5183 C   0  0  0  0  0  0
  -16.5362  -29.8943   23.6319 C   0  0  0  0  0  0
  -16.7245  -28.6281   23.0533 C   0  0  0  0  0  0
  -26.4249  -31.6677   25.0845 C   0  0  0  0  0  0
  -25.3531  -31.4059   26.1754 C   0  0  0  0  0  0
  -27.0180  -30.3154   24.6342 C   0  0  0  0  0  0
  -27.5805  -32.4564   25.7648 C   0  0  0  0  0  0
  -27.5541  -37.1858   24.8463 C   0  0  0  0  0  0
  -21.4083  -29.2898   22.3637 N   0  0  0  0  0  0
  -26.4240  -37.3884   23.9386 N   0  0  0  0  0  0
  -24.7139  -31.0359   22.1213 N   0  0  0  0  0  0
  -23.4217  -28.8088   23.2850 O   0  0  0  0  0  0
  -28.2576  -26.3463   20.2743 O   0  0  0  0  0  0
  -26.5567  -34.9041   22.4791 O   0  0  0  0  0  0
  -23.5516  -32.1233   23.7380 O   0  0  0  0  0  0
  -29.9686  -20.7665   19.5909 C   0  0  0  0  0  0
  -29.9036  -22.1937   19.4459 C   0  0  0  0  0  0
  -28.0860  -20.6369   18.1332 C   0  0  0  0  0  0
  -29.0640  -19.9144   18.9116 C   0  0  0  0  0  0
  -28.9161  -22.9063   18.6792 C   0  0  0  0  0  0
  -27.9103  -22.0710   18.0080 C   0  0  0  0  0  0
  -24.0065  -22.0781   16.7812 C   0  0  0  0  0  0
  -26.9382  -25.0831   15.8766 C   0  0  0  0  0  0
  -30.5577  -24.5549   17.6413 C   0  0  0  0  0  0
  -28.9418  -18.3216   19.1348 C   0  0  0  0  0  0
  -25.3817  -21.7596   17.4523 C   0  0  0  0  0  0
  -26.2082  -23.9822   16.7002 C   0  0  0  0  0  0
  -30.1448  -17.2323   19.3716 C   0  0  0  0  0  0
  -29.1265  -25.7648   19.2445 C   0  0  0  0  0  0
  -29.1657  -24.4265   18.3219 C   0  0  1  0  0  0
  -26.7149  -22.5037   17.0297 C   0  0  0  0  0  0
  -29.8173  -15.8497   20.0008 N   0  0  0  0  0  0
  -31.4515  -12.4548   19.1459 H   0  0  0  0  0  0
  -30.2707  -11.4459   19.9307 H   0  0  0  0  0  0
  -29.7286  -11.6697   17.4879 H   0  0  0  0  0  0
  -29.6102  -13.4029   17.6328 H   0  0  0  0  0  0
  -27.9144  -11.2576   18.9484 H   0  0  0  0  0  0
  -27.3288  -12.4366   17.7943 H   0  0  0  0  0  0
  -27.5903  -14.2451   19.3921 H   0  0  0  0  0  0
  -28.7040  -12.2364   21.4075 H   0  0  0  0  0  0
  -28.4357  -13.9392   21.7092 H   0  0  0  0  0  0
  -25.2837   -9.5517   22.4747 H   0  0  0  0  0  0
  -23.9976   -7.4522   22.7481 H   0  0  0  0  0  0
  -21.0837   -8.8789   19.8927 H   0  0  0  0  0  0
  -22.3833  -10.9624   19.6128 H   0  0  0  0  0  0
  -21.2025   -7.6145   23.9736 H   0  0  0  0  0  0
  -21.1495   -6.0514   25.9089 H   0  0  0  0  0  0
  -22.0601   -2.7599   23.2859 H   0  0  0  0  0  0
  -22.4209  -11.9744   22.4759 H   0  0  0  0  0  0
  -21.1174  -13.1053   22.2719 H   0  0  0  0  0  0
  -24.6539  -15.8418   20.5564 H   0  0  0  0  0  0
  -26.2743  -15.6518   20.1301 H   0  0  0  0  0  0
  -26.7145  -32.5716   23.1202 H   0  0  0  0  0  0
  -24.9962  -33.9683   25.0490 H   0  0  0  0  0  0
  -22.7357  -31.3005   21.4496 H   0  0  0  0  0  0
  -23.3720  -35.9618   23.3353 H   0  0  0  0  0  0
  -24.3584  -36.8879   22.2139 H   0  0  0  0  0  0
  -23.6993  -37.6521   23.6626 H   0  0  0  0  0  0
  -26.1160  -31.5206   20.6186 H   0  0  0  0  0  0
  -26.8812  -30.8323   21.9887 H   0  0  0  0  0  0
  -28.0349  -28.8824   21.3836 H   0  0  0  0  0  0
  -26.0185  -25.8591   19.0461 H   0  0  0  0  0  0
  -23.9842  -27.3663   18.9107 H   0  0  0  0  0  0
  -23.7459  -30.6294   19.4145 H   0  0  0  0  0  0
  -22.7434  -29.2829   19.8913 H   0  0  0  0  0  0
  -25.1124  -36.2096   25.0928 H   0  0  0  0  0  0
  -21.0202  -28.3154   24.1346 H   0  0  0  0  0  0
  -20.5340  -26.2253   23.3781 H   0  0  0  0  0  0
  -21.6475  -26.6878   22.1427 H   0  0  0  0  0  0
  -19.6651  -25.6092   21.1226 H   0  0  0  0  0  0
  -19.6431  -27.3039   20.6933 H   0  0  0  0  0  0
  -17.4058  -26.6760   21.4112 H   0  0  0  0  0  0
  -18.0021  -25.9768   22.9007 H   0  0  0  0  0  0
  -19.8004  -30.6995   24.2450 H   0  0  0  0  0  0
  -17.5083  -31.6243   24.4937 H   0  0  0  0  0  0
  -15.5396  -30.2941   23.7324 H   0  0  0  0  0  0
  -15.8709  -28.0567   22.7185 H   0  0  0  0  0  0
  -24.5609  -30.7233   25.8458 H   0  0  0  0  0  0
  -24.8778  -32.3365   26.5045 H   0  0  0  0  0  0
  -25.7967  -30.9642   27.0690 H   0  0  0  0  0  0
  -26.2820  -29.6914   24.1203 H   0  0  0  0  0  0
  -27.3659  -29.7435   25.4895 H   0  0  0  0  0  0
  -27.8764  -30.4500   23.9794 H   0  0  0  0  0  0
  -27.2160  -33.3896   26.2070 H   0  0  0  0  0  0
  -28.3668  -32.7086   25.0472 H   0  0  0  0  0  0
  -28.0288  -31.8853   26.5787 H   0  0  0  0  0  0
  -28.2539  -38.0185   24.7463 H   0  0  0  0  0  0
  -28.0969  -36.2659   24.6202 H   0  0  0  0  0  0
  -27.2248  -37.1482   25.8890 H   0  0  0  0  0  0
  -20.9015  -29.8970   21.7280 H   0  0  0  0  0  0
  -26.0113  -38.2981   24.1550 H   0  0  0  0  0  0
  -30.7256  -20.3211   20.2371 H   0  0  0  0  0  0
  -30.7115  -22.7821   19.8711 H   0  0  0  0  0  0
  -27.4022  -20.0439   17.5404 H   0  0  0  0  0  0
  -23.2286  -21.3667   17.0868 H   0  0  0  0  0  0
  -24.0206  -21.9749   15.6940 H   0  0  0  0  0  0
  -23.6553  -23.0638   17.0525 H   0  0  0  0  0  0
  -26.2470  -25.5754   15.1903 H   0  0  0  0  0  0
  -27.7327  -24.7073   15.2472 H   0  0  0  0  0  0
  -27.3111  -25.9109   16.5004 H   0  0  0  0  0  0
  -30.6508  -25.5072   17.1172 H   0  0  0  0  0  0
  -30.7887  -23.7337   16.9448 H   0  0  0  0  0  0
  -31.3349  -24.5505   18.4060 H   0  0  0  0  0  0
  -28.3777  -18.0122   18.2499 H   0  0  0  0  0  0
  -28.2167  -18.1873   19.9352 H   0  0  0  0  0  0
  -25.4888  -20.6827   17.3193 H   0  0  0  0  0  0
  -25.1857  -21.9308   18.5042 H   0  0  0  0  0  0
  -25.4279  -23.8183   15.9451 H   0  0  0  0  0  0
  -25.6482  -24.4219   17.5225 H   0  0  0  0  0  0
  -31.0038  -17.6697   19.8963 H   0  0  0  0  0  0
  -30.5209  -16.9880   18.3752 H   0  0  0  0  0  0
  -29.2195  -26.5815   18.5444 H   0  0  0  0  0  0
  -30.0697  -25.7143   19.7801 H   0  0  0  0  0  0
  -28.4508  -24.5547   17.5513 H   0  0  0  0  0  0
  -27.0167  -22.0742   16.0691 H   0  0  0  0  0  0
  -28.8359  -15.6609   20.1121 H   0  0  0  0  0  0
  1 25  1  0  0  0
  1 30  2  0  0  0
  1 87  1  0  0  0
  2  3  1  0  0  0
  2 25  1  0  0  0
  2 88  1  0  0  0
  2 89  1  0  0  0
  3  4  1  0  0  0
  3 90  1  0  0  0
  3 91  1  0  0  0
  4  5  1  0  0  0
  4 92  1  0  0  0
  4 93  1  0  0  0
  5  6  1  0  0  0
  5 26  1  0  0  0
  5 94  1  0  0  0
  6 25  1  0  0  0
  6 95  1  0  0  0
  6 96  1  0  0  0
  7  8  2  0  0  0
  7 26  1  0  0  0
  7 29  1  0  0  0
  8  9  1  0  0  0
  8 22  1  0  0  0
  9 10  1  0  0  0
  9 27  2  0  0  0
 10 11  2  0  0  0
 10 15  1  0  0  0
 11 12  1  0  0  0
 11 97  1  0  0  0
 12 13  2  0  0  0
 12 98  1  0  0  0
 13 14  1  0  0  0
 13 31  1  0  0  0
 14 15  2  0  0  0
 14 99  1  0  0  0
 15100  1  0  0  0
 16 17  2  0  0  0
 16 21  1  0  0  0
 16 31  1  0  0  0
 17 18  1  0  0  0
 17101  1  0  0  0
 18 19  2  0  0  0
 18102  1  0  0  0
 19 20  1  0  0  0
 19 24  1  0  0  0
 20 21  2  0  0  0
 20103  1  0  0  0
 21 23  1  0  0  0
 22 28  1  0  0  0
 22 32  2  0  0  0
 26 27  1  0  0  0
 28104  1  0  0  0
 28105  1  0  0  0
 29106  1  0  0  0
 29107  1  0  0  0
 33 34  1  0  0  0
 33 66  1  0  0  0
 33 70  2  0  0  0
 34 36  1  0  0  0
 34 59  1  0  0  0
 34108  1  0  0  0
 35 44  2  0  0  0
 35 45  1  0  0  0
 35 68  1  0  0  0
 36 56  1  0  0  0
 36109  1  0  0  0
 37 39  1  0  0  0
 37 47  1  0  0  0
 37 66  1  0  0  0
 37110  1  0  0  0
 38 43  2  0  0  0
 38 46  1  0  0  0
 38 47  1  0  0  0
 39 64  1  0  0  0
 39 67  2  0  0  0
 40 52  1  0  0  0
 40 53  2  0  0  0
 40 58  1  0  0  0
 41111  1  0  0  0
 41112  1  0  0  0
 41113  1  0  0  0
 41 48  1  0  0  0
 42 43  1  0  0  0
 42 66  1  0  0  0
 42114  1  0  0  0
 42115  1  0  0  0
 43 44  1  0  0  0
 44116  1  0  0  0
 45 46  2  0  0  0
 45117  1  0  0  0
 46118  1  0  0  0
 47119  1  0  0  0
 47120  1  0  0  0
 48 56  1  0  0  0
 48 65  1  0  0  0
 48121  1  0  0  0
 49 50  1  0  0  0
 49 53  1  0  0  0
 49 64  1  0  0  0
 49122  1  0  0  0
 50 51  1  0  0  0
 50123  1  0  0  0
 50124  1  0  0  0
 51 52  1  0  0  0
 51125  1  0  0  0
 51126  1  0  0  0
 52127  1  0  0  0
 52128  1  0  0  0
 53 54  1  0  0  0
 54 55  2  0  0  0
 54129  1  0  0  0
 55 57  1  0  0  0
 55130  1  0  0  0
 56 69  2  0  0  0
 57 58  2  0  0  0
 57131  1  0  0  0
 58132  1  0  0  0
 59 60  1  0  0  0
 59 61  1  0  0  0
 59 62  1  0  0  0
 60133  1  0  0  0
 60134  1  0  0  0
 60135  1  0  0  0
 61136  1  0  0  0
 61137  1  0  0  0
 61138  1  0  0  0
 62139  1  0  0  0
 62140  1  0  0  0
 62141  1  0  0  0
 63 65  1  0  0  0
 63142  1  0  0  0
 63143  1  0  0  0
 63144  1  0  0  0
 64145  1  0  0  0
 65146  1  0  0  0
 68 84  1  0  0  0
 71 72  2  0  0  0
 71 74  1  0  0  0
 71147  1  0  0  0
 72 75  1  0  0  0
 72148  1  0  0  0
 73 74  2  0  0  0
 73 76  1  0  0  0
 73149  1  0  0  0
 74 80  1  0  0  0
 75 76  2  0  0  0
 75 85  1  0  0  0
 76 86  1  0  0  0
 77 81  1  0  0  0
 77150  1  0  0  0
 77151  1  0  0  0
 77152  1  0  0  0
 78 82  1  0  0  0
 78153  1  0  0  0
 78154  1  0  0  0
 78155  1  0  0  0
 79156  1  0  0  0
 79157  1  0  0  0
 79158  1  0  0  0
 79 85  1  0  0  0
 80 83  1  0  0  0
 80159  1  0  0  0
 80160  1  0  0  0
 81161  1  0  0  0
 81162  1  0  0  0
 81 86  1  0  0  0
 82 86  1  0  0  0
 82163  1  0  0  0
 82164  1  0  0  0
 83 87  1  0  0  0
 83165  1  0  0  0
 83166  1  0  0  0
 84 85  1  0  0  0
 84167  1  0  0  0
 84168  1  0  0  0
 85169  1  0  0  0
 86170  1  0  0  0
 87171  1  0  0  0
M  ISO  4   1 100  68 101  84 101  87 100
M  END
> <chiral flag>
0

> <version>
0

> <s_m_source_file>
/data/baiqing/PycharmProjects/Reinvent-master-3.2/result/LINK_invent/BTK/process_docking_weight1_custom_sum_contain_oxygen_bond_distance_aromatic_linkinvent_7_9_3/rearranged_h_0102.sdf

> <i_m_source_file_index>
8

> <r_mmod_Potential_Energy-OPLS-2005>
537.056579589844

> <r_mmod_Stretch_Energy-OPLS-2005>
163.121871948242

> <r_mmod_Bend_Energy-OPLS-2005>
390.809204101562

> <r_mmod_Torsional_Energy-OPLS-2005>
277.25732421875

> <r_mmod_Improper_Torsional_Energy-OPLS-2005>
15.3833246231079

> <r_mmod_Van_der_Waal_Energy-OPLS-2005>
160.80143737793

> <r_mmod_Electrostatic_Energy-OPLS-2005>
-372.638366699219

> <r_mmod_Solvation_Energy-OPLS-2005>
-206.670761108398

> <b_mmod_Minimization_Converged-OPLS-2005>
0

> <r_mmod_RMS_Derivative-OPLS-2005>
27.1732406616211

$$$$
8
                    3D
 Structure written by MMmdl.
163171  0  0  1  0            999 V2000
  -30.6440  -14.6974   20.4598 C   0  0  0  0  0  0
  -30.4181  -12.4164   19.4809 C   0  0  0  0  0  0
  -29.5068  -12.5079   18.2379 C   0  0  0  0  0  0
  -28.0367  -12.3162   18.6569 C   0  0  0  0  0  0
  -27.6422  -13.2265   19.8513 C   0  0  2  0  0  0
  -28.6852  -13.1646   20.9909 C   0  0  0  0  0  0
  -25.2509  -13.8171   20.5672 C   0  0  0  0  0  0
  -24.1796  -13.0412   20.9190 C   0  0  0  0  0  0
  -24.6383  -11.6901   20.8732 C   0  0  0  0  0  0
  -23.9061  -10.4280   21.0401 C   0  0  0  0  0  0
  -24.3614   -9.4206   21.9180 C   0  0  0  0  0  0
  -23.6284   -8.2242   22.0761 C   0  0  0  0  0  0
  -22.4268   -8.0273   21.3553 C   0  0  0  0  0  0
  -21.9904   -9.0238   20.4647 C   0  0  0  0  0  0
  -22.7231  -10.2119   20.3048 C   0  0  0  0  0  0
  -21.6855   -6.0725   22.5278 C   0  0  0  0  0  0
  -21.4017   -6.5636   23.8207 C   0  0  0  0  0  0
  -21.3676   -5.6798   24.9168 C   0  0  0  0  0  0
  -21.6045   -4.3058   24.7228 C   0  0  0  0  0  0
  -21.8808   -3.8139   23.4355 C   0  0  0  0  0  0
  -21.9178   -4.6952   22.3405 C   0  0  0  0  0  0
  -22.7835  -13.5214   21.1854 C   0  0  0  0  0  0
  -22.1647   -4.2125   21.0986 F   0  0  0  0  0  0
  -21.5629   -3.4551   25.7751 F   0  0  0  0  0  0
  -29.9940  -13.4871   20.4095 N   0  0  0  0  0  0
  -26.2940  -12.9373   20.3294 N   0  0  0  0  0  0
  -25.9322  -11.6519   20.5768 N   0  0  0  0  0  0
  -22.0508  -12.8181   22.0425 N   0  0  0  0  0  0
  -25.4151  -15.1880   20.4031 N   0  0  0  0  0  0
  -31.8260  -14.7827   20.1198 O   0  0  0  0  0  0
  -21.6642   -6.8863   21.4241 O   0  0  0  0  0  0
  -22.3520  -14.5541   20.6746 O   0  0  0  0  0  0
  -24.6331  -31.8569   23.1947 C   0  0  0  0  0  0
  -25.9150  -32.4785   23.8308 C   0  0  1  0  0  0
  -27.2209  -27.2580   20.1212 C   0  0  0  0  0  0
  -25.5937  -33.8586   24.2211 N   0  0  0  0  0  0
  -23.4272  -30.4773   21.5399 C   0  0  2  0  0  0
  -24.8711  -28.9223   20.1041 C   0  0  0  0  0  0
  -22.7503  -29.4620   22.4918 C   0  0  0  0  0  0
  -18.0275  -28.1409   22.8485 C   0  0  0  0  0  0
  -24.1476  -36.7329   23.2641 C   0  0  0  0  0  0
  -25.9689  -30.7701   21.3660 C   0  0  0  0  0  0
  -26.0410  -29.3877   20.7169 C   0  0  0  0  0  0
  -27.2112  -28.5646   20.7213 C   0  0  0  0  0  0
  -26.0245  -26.8596   19.4840 C   0  0  0  0  0  0
  -24.8685  -27.6647   19.4821 C   0  0  0  0  0  0
  -23.6403  -29.8079   20.1565 C   0  0  0  0  0  0
  -25.4102  -36.3098   24.0308 C   0  0  1  0  0  0
  -20.5884  -28.3727   23.1257 C   0  0  2  0  0  0
  -20.6772  -26.9443   22.5394 C   0  0  0  0  0  0
  -19.5730  -26.6370   21.5225 C   0  0  0  0  0  0
  -18.1904  -26.7946   22.1615 C   0  0  0  0  0  0
  -19.1533  -28.8875   23.2865 C   0  0  0  0  0  0
  -18.9485  -30.1480   23.8876 C   0  0  0  0  0  0
  -17.6489  -30.6623   24.0577 C   0  0  0  0  0  0
  -25.9050  -34.9468   23.5056 C   0  0  0  0  0  0
  -16.5373  -29.9130   23.6352 C   0  0  0  0  0  0
  -16.7257  -28.6544   23.0369 C   0  0  0  0  0  0
  -26.4469  -31.6646   25.0732 C   0  0  0  0  0  0
  -25.3643  -31.3866   26.1437 C   0  0  0  0  0  0
  -27.0344  -30.3083   24.6199 C   0  0  0  0  0  0
  -27.5975  -32.4434   25.7544 C   0  0  0  0  0  0
  -27.5558  -37.1830   24.8456 C   0  0  0  0  0  0
  -21.4207  -29.3109   22.3688 N   0  0  0  0  0  0
  -26.4272  -37.3796   23.9395 N   0  0  0  0  0  0
  -24.6965  -31.0520   22.0915 N   0  0  0  0  0  0
  -23.4196  -28.8155   23.3016 O   0  0  0  0  0  0
  -28.3286  -26.3813   20.2191 O   0  0  0  0  0  0
  -26.5638  -34.8950   22.4638 O   0  0  0  0  0  0
  -23.5484  -32.1389   23.7229 O   0  0  0  0  0  0
  -29.4040  -22.5379   19.8909 C   0  0  0  0  0  0
  -28.4917  -23.6363   20.1689 C   0  0  0  0  0  0
  -29.1165  -21.3690   20.5907 C   0  0  0  0  0  0
  -27.6076  -23.0567   21.0497 C   0  0  0  0  0  0
  -26.3610  -23.6726   21.6101 C   0  0  0  0  0  0
  -28.2279  -20.2811   23.4389 C   0  0  0  0  0  0
  -26.3087  -19.9009   21.7367 C   0  0  0  0  0  0
  -28.4526  -25.0825   19.4741 C   0  0  0  0  0  0
  -29.9438  -20.0130   20.6500 C   0  0  0  0  0  0
  -29.3624  -18.5064   20.5379 C   0  0  0  0  0  0
  -30.4056  -17.2809   20.6053 C   0  0  0  0  0  0
  -27.3003  -20.8962   22.3717 C   0  0  0  0  0  0
  -28.0022  -21.7303   21.3739 N   0  0  0  0  0  0
  -29.9103  -15.8444   20.6873 N   0  0  0  0  0  0
  -31.4689  -12.4970   19.2009 H   0  0  0  0  0  0
  -30.3064  -11.4411   19.9583 H   0  0  0  0  0  0
  -29.7885  -11.7543   17.5013 H   0  0  0  0  0  0
  -29.6311  -13.4785   17.7534 H   0  0  0  0  0  0
  -27.9147  -11.2697   18.9394 H   0  0  0  0  0  0
  -27.3685  -12.4822   17.8109 H   0  0  0  0  0  0
  -27.6378  -14.2451   19.4627 H   0  0  0  0  0  0
  -28.7061  -12.1744   21.4497 H   0  0  0  0  0  0
  -28.4261  -13.8650   21.7880 H   0  0  0  0  0  0
  -25.2769   -9.5686   22.4740 H   0  0  0  0  0  0
  -24.0001   -7.4642   22.7493 H   0  0  0  0  0  0
  -21.0837   -8.8746   19.8952 H   0  0  0  0  0  0
  -22.3694  -10.9647   19.6143 H   0  0  0  0  0  0
  -21.2024   -7.6146   23.9704 H   0  0  0  0  0  0
  -21.1516   -6.0535   25.9070 H   0  0  0  0  0  0
  -22.0572   -2.7591   23.2869 H   0  0  0  0  0  0
  -22.4177  -11.9833   22.4767 H   0  0  0  0  0  0
  -21.1135  -13.1183   22.2687 H   0  0  0  0  0  0
  -24.6282  -15.8259   20.4540 H   0  0  0  0  0  0
  -26.2531  -15.6279   20.0467 H   0  0  0  0  0  0
  -26.7225  -32.5418   23.1063 H   0  0  0  0  0  0
  -25.0168  -33.9740   25.0412 H   0  0  0  0  0  0
  -22.7266  -31.3015   21.3940 H   0  0  0  0  0  0
  -23.3739  -35.9670   23.3288 H   0  0  0  0  0  0
  -24.3541  -36.8968   22.2054 H   0  0  0  0  0  0
  -23.7209  -37.6510   23.6697 H   0  0  0  0  0  0
  -26.0864  -31.5202   20.5826 H   0  0  0  0  0  0
  -26.8561  -30.8380   21.9832 H   0  0  0  0  0  0
  -28.0997  -28.9195   21.2231 H   0  0  0  0  0  0
  -25.9344  -25.8929   19.0157 H   0  0  0  0  0  0
  -23.9696  -27.2952   19.0087 H   0  0  0  0  0  0
  -23.7532  -30.5835   19.3978 H   0  0  0  0  0  0
  -22.7582  -29.2382   19.8588 H   0  0  0  0  0  0
  -25.1274  -36.1953   25.0792 H   0  0  0  0  0  0
  -20.9953  -28.3298   24.1392 H   0  0  0  0  0  0
  -20.5707  -26.2346   23.3612 H   0  0  0  0  0  0
  -21.6628  -26.7489   22.1158 H   0  0  0  0  0  0
  -19.6909  -25.6272   21.1291 H   0  0  0  0  0  0
  -19.6659  -27.3161   20.6738 H   0  0  0  0  0  0
  -17.4178  -26.6726   21.4013 H   0  0  0  0  0  0
  -18.0279  -26.0078   22.8990 H   0  0  0  0  0  0
  -19.7974  -30.7314   24.2194 H   0  0  0  0  0  0
  -17.5064  -31.6307   24.5189 H   0  0  0  0  0  0
  -15.5387  -30.3066   23.7678 H   0  0  0  0  0  0
  -15.8634  -28.0887   22.7095 H   0  0  0  0  0  0
  -24.5774  -30.7269   25.7774 H   0  0  0  0  0  0
  -24.8916  -32.3103   26.4818 H   0  0  0  0  0  0
  -25.7892  -30.9061   27.0257 H   0  0  0  0  0  0
  -26.2971  -29.6859   24.1131 H   0  0  0  0  0  0
  -27.3982  -29.7312   25.4709 H   0  0  0  0  0  0
  -27.8828  -30.4424   23.9477 H   0  0  0  0  0  0
  -27.2519  -33.3757   26.2035 H   0  0  0  0  0  0
  -28.3839  -32.6968   25.0422 H   0  0  0  0  0  0
  -28.0580  -31.8635   26.5546 H   0  0  0  0  0  0
  -28.2577  -38.0135   24.7501 H   0  0  0  0  0  0
  -28.1040  -36.2652   24.6277 H   0  0  0  0  0  0
  -27.2279  -37.1461   25.8864 H   0  0  0  0  0  0
  -20.9400  -29.8915   21.6959 H   0  0  0  0  0  0
  -26.0153  -38.2878   24.1384 H   0  0  0  0  0  0
  -30.2404  -22.6120   19.2081 H   0  0  0  0  0  0
  -26.0776  -24.5594   21.0475 H   0  0  0  0  0  0
  -26.4841  -23.9646   22.6522 H   0  0  0  0  0  0
  -25.5209  -22.9822   21.5451 H   0  0  0  0  0  0
  -27.6447  -19.7481   24.1897 H   0  0  0  0  0  0
  -28.7913  -21.0593   23.9539 H   0  0  0  0  0  0
  -28.9487  -19.5685   23.0546 H   0  0  0  0  0  0
  -25.5617  -20.4229   21.1396 H   0  0  0  0  0  0
  -25.7737  -19.3405   22.5038 H   0  0  0  0  0  0
  -26.7793  -19.1754   21.0814 H   0  0  0  0  0  0
  -27.7737  -25.0315   18.6255 H   0  0  0  0  0  0
  -29.4248  -25.1627   18.9878 H   0  0  0  0  0  0
  -30.5481  -20.0480   21.5573 H   0  0  0  0  0  0
  -30.6947  -20.0876   19.8632 H   0  0  0  0  0  0
  -28.7979  -18.4315   19.6090 H   0  0  0  0  0  0
  -28.6566  -18.3129   21.3379 H   0  0  0  0  0  0
  -31.0444  -17.4287   21.4769 H   0  0  0  0  0  0
  -31.0734  -17.3651   19.7460 H   0  0  0  0  0  0
  -26.6756  -21.5616   22.9644 H   0  0  0  0  0  0
  -28.9425  -15.7099   20.9414 H   0  0  0  0  0  0
  1 25  1  0  0  0
  1 30  2  0  0  0
  1 84  1  0  0  0
  2  3  1  0  0  0
  2 25  1  0  0  0
  2 85  1  0  0  0
  2 86  1  0  0  0
  3  4  1  0  0  0
  3 87  1  0  0  0
  3 88  1  0  0  0
  4  5  1  0  0  0
  4 89  1  0  0  0
  4 90  1  0  0  0
  5  6  1  0  0  0
  5 26  1  0  0  0
  5 91  1  0  0  0
  6 25  1  0  0  0
  6 92  1  0  0  0
  6 93  1  0  0  0
  7  8  2  0  0  0
  7 26  1  0  0  0
  7 29  1  0  0  0
  8  9  1  0  0  0
  8 22  1  0  0  0
  9 10  1  0  0  0
  9 27  2  0  0  0
 10 11  2  0  0  0
 10 15  1  0  0  0
 11 12  1  0  0  0
 11 94  1  0  0  0
 12 13  2  0  0  0
 12 95  1  0  0  0
 13 14  1  0  0  0
 13 31  1  0  0  0
 14 15  2  0  0  0
 14 96  1  0  0  0
 15 97  1  0  0  0
 16 17  2  0  0  0
 16 21  1  0  0  0
 16 31  1  0  0  0
 17 18  1  0  0  0
 17 98  1  0  0  0
 18 19  2  0  0  0
 18 99  1  0  0  0
 19 20  1  0  0  0
 19 24  1  0  0  0
 20 21  2  0  0  0
 20100  1  0  0  0
 21 23  1  0  0  0
 22 28  1  0  0  0
 22 32  2  0  0  0
 26 27  1  0  0  0
 28101  1  0  0  0
 28102  1  0  0  0
 29103  1  0  0  0
 29104  1  0  0  0
 33 34  1  0  0  0
 33 66  1  0  0  0
 33 70  2  0  0  0
 34 36  1  0  0  0
 34 59  1  0  0  0
 34105  1  0  0  0
 35 44  2  0  0  0
 35 45  1  0  0  0
 35 68  1  0  0  0
 36 56  1  0  0  0
 36106  1  0  0  0
 37 39  1  0  0  0
 37 47  1  0  0  0
 37 66  1  0  0  0
 37107  1  0  0  0
 38 43  2  0  0  0
 38 46  1  0  0  0
 38 47  1  0  0  0
 39 64  1  0  0  0
 39 67  2  0  0  0
 40 52  1  0  0  0
 40 53  2  0  0  0
 40 58  1  0  0  0
 41108  1  0  0  0
 41109  1  0  0  0
 41110  1  0  0  0
 41 48  1  0  0  0
 42 43  1  0  0  0
 42 66  1  0  0  0
 42111  1  0  0  0
 42112  1  0  0  0
 43 44  1  0  0  0
 44113  1  0  0  0
 45 46  2  0  0  0
 45114  1  0  0  0
 46115  1  0  0  0
 47116  1  0  0  0
 47117  1  0  0  0
 48 56  1  0  0  0
 48 65  1  0  0  0
 48118  1  0  0  0
 49 50  1  0  0  0
 49 53  1  0  0  0
 49 64  1  0  0  0
 49119  1  0  0  0
 50 51  1  0  0  0
 50120  1  0  0  0
 50121  1  0  0  0
 51 52  1  0  0  0
 51122  1  0  0  0
 51123  1  0  0  0
 52124  1  0  0  0
 52125  1  0  0  0
 53 54  1  0  0  0
 54 55  2  0  0  0
 54126  1  0  0  0
 55 57  1  0  0  0
 55127  1  0  0  0
 56 69  2  0  0  0
 57 58  2  0  0  0
 57128  1  0  0  0
 58129  1  0  0  0
 59 60  1  0  0  0
 59 61  1  0  0  0
 59 62  1  0  0  0
 60130  1  0  0  0
 60131  1  0  0  0
 60132  1  0  0  0
 61133  1  0  0  0
 61134  1  0  0  0
 61135  1  0  0  0
 62136  1  0  0  0
 62137  1  0  0  0
 62138  1  0  0  0
 63 65  1  0  0  0
 63139  1  0  0  0
 63140  1  0  0  0
 63141  1  0  0  0
 64142  1  0  0  0
 65143  1  0  0  0
 68 78  1  0  0  0
 71 72  1  0  0  0
 71 73  2  0  0  0
 71144  1  0  0  0
 72 74  2  0  0  0
 72 78  1  0  0  0
 73 79  1  0  0  0
 73 83  1  0  0  0
 74 75  1  0  0  0
 74 83  1  0  0  0
 75145  1  0  0  0
 75146  1  0  0  0
 75147  1  0  0  0
 76148  1  0  0  0
 76149  1  0  0  0
 76150  1  0  0  0
 76 82  1  0  0  0
 77 82  1  0  0  0
 77151  1  0  0  0
 77152  1  0  0  0
 77153  1  0  0  0
 78154  1  0  0  0
 78155  1  0  0  0
 79 80  1  0  0  0
 79156  1  0  0  0
 79157  1  0  0  0
 80 81  1  0  0  0
 80158  1  0  0  0
 80159  1  0  0  0
 81 84  1  0  0  0
 81160  1  0  0  0
 81161  1  0  0  0
 82 83  1  0  0  0
 82162  1  0  0  0
 84163  1  0  0  0
M  ISO  4   1 100  68 101  78 101  84 100
M  END
> <chiral flag>
0

> <version>
0

> <s_m_source_file>
/data/baiqing/PycharmProjects/Reinvent-master-3.2/result/LINK_invent/BTK/process_docking_weight1_custom_sum_contain_oxygen_bond_distance_aromatic_linkinvent_7_9_3/rearranged_h_0102.sdf

> <i_m_source_file_index>
9

> <r_mmod_Potential_Energy-OPLS-2005>
157.123382568359

> <r_mmod_Stretch_Energy-OPLS-2005>
117.176071166992

> <r_mmod_Bend_Energy-OPLS-2005>
194.071350097656

> <r_mmod_Torsional_Energy-OPLS-2005>
237.245101928711

> <r_mmod_Improper_Torsional_Energy-OPLS-2005>
6.16628456115723

> <r_mmod_Van_der_Waal_Energy-OPLS-2005>
119.273139953613

> <r_mmod_Electrostatic_Energy-OPLS-2005>
-383.435852050781

> <r_mmod_Solvation_Energy-OPLS-2005>
-210.175933837891

> <b_mmod_Minimization_Converged-OPLS-2005>
0

> <r_mmod_RMS_Derivative-OPLS-2005>
3.37506008148193

$$$$
9
                    3D
 Structure written by MMmdl.
153161  0  0  1  0            999 V2000
  -30.3294  -15.5270   20.3527 C   0  0  0  0  0  0
  -30.4445  -13.0002   19.5323 C   0  0  0  0  0  0
  -29.5504  -12.5864   18.3290 C   0  0  0  0  0  0
  -28.1394  -12.1901   18.8020 C   0  0  0  0  0  0
  -27.5995  -13.2205   19.8085 C   0  0  2  0  0  0
  -28.6305  -13.5423   20.9306 C   0  0  0  0  0  0
  -25.2274  -13.8001   20.5655 C   0  0  0  0  0  0
  -24.1662  -13.0281   20.9319 C   0  0  0  0  0  0
  -24.6317  -11.6790   20.8843 C   0  0  0  0  0  0
  -23.9026  -10.4206   21.0461 C   0  0  0  0  0  0
  -24.3584   -9.4121   21.9229 C   0  0  0  0  0  0
  -23.6266   -8.2162   22.0769 C   0  0  0  0  0  0
  -22.4248   -8.0221   21.3544 C   0  0  0  0  0  0
  -21.9887   -9.0194   20.4641 C   0  0  0  0  0  0
  -22.7219  -10.2071   20.3077 C   0  0  0  0  0  0
  -21.6825   -6.0714   22.5297 C   0  0  0  0  0  0
  -21.3978   -6.5618   23.8229 C   0  0  0  0  0  0
  -21.3648   -5.6772   24.9186 C   0  0  0  0  0  0
  -21.6060   -4.3043   24.7237 C   0  0  0  0  0  0
  -21.8822   -3.8129   23.4355 C   0  0  0  0  0  0
  -21.9180   -4.6947   22.3412 C   0  0  0  0  0  0
  -22.7683  -13.5060   21.1988 C   0  0  0  0  0  0
  -22.1660   -4.2133   21.0997 F   0  0  0  0  0  0
  -21.5636   -3.4534   25.7753 F   0  0  0  0  0  0
  -29.8102  -14.1667   20.2815 N   0  0  0  0  0  0
  -26.2734  -12.9223   20.3219 N   0  0  0  0  0  0
  -25.9231  -11.6393   20.5798 N   0  0  0  0  0  0
  -22.0347  -12.8072   22.0556 N   0  0  0  0  0  0
  -25.3621  -15.1716   20.3802 N   0  0  0  0  0  0
  -31.5688  -15.4918   20.2112 O   0  0  0  0  0  0
  -21.6606   -6.8831   21.4246 O   0  0  0  0  0  0
  -22.3388  -14.5386   20.6834 O   0  0  0  0  0  0
  -24.6690  -31.8174   23.1617 C   0  0  0  0  0  0
  -25.9341  -32.4557   23.8108 C   0  0  1  0  0  0
  -27.2315  -26.8651   20.1957 C   0  0  0  0  0  0
  -25.5979  -33.8365   24.2021 N   0  0  0  0  0  0
  -23.4865  -30.4238   21.5160 C   0  0  2  0  0  0
  -24.9377  -28.7881   20.1241 C   0  0  0  0  0  0
  -22.7706  -29.4410   22.4813 C   0  0  0  0  0  0
  -18.0325  -28.1435   22.8437 C   0  0  0  0  0  0
  -24.1489  -36.7204   23.2652 C   0  0  0  0  0  0
  -26.0576  -30.6054   21.3959 C   0  0  0  0  0  0
  -26.1280  -29.1834   20.7500 C   0  0  0  0  0  0
  -27.2692  -28.2499   20.7498 C   0  0  0  0  0  0
  -26.0026  -26.6296   19.5339 C   0  0  0  0  0  0
  -24.9036  -27.5318   19.4943 C   0  0  0  0  0  0
  -23.7288  -29.7276   20.1484 C   0  0  0  0  0  0
  -25.4126  -36.2952   24.0303 C   0  0  1  0  0  0
  -20.5946  -28.3764   23.1191 C   0  0  2  0  0  0
  -20.6812  -26.9456   22.5411 C   0  0  0  0  0  0
  -19.5780  -26.6398   21.5220 C   0  0  0  0  0  0
  -18.1962  -26.7965   22.1613 C   0  0  0  0  0  0
  -19.1599  -28.8921   23.2795 C   0  0  0  0  0  0
  -18.9511  -30.1506   23.8825 C   0  0  0  0  0  0
  -17.6505  -30.6613   24.0548 C   0  0  0  0  0  0
  -25.9096  -34.9337   23.4997 C   0  0  0  0  0  0
  -16.5387  -29.9089   23.6362 C   0  0  0  0  0  0
  -16.7312  -28.6531   23.0336 C   0  0  0  0  0  0
  -26.4547  -31.6512   25.0661 C   0  0  0  0  0  0
  -25.3641  -31.3782   26.1304 C   0  0  0  0  0  0
  -27.0449  -30.2880   24.6413 C   0  0  0  0  0  0
  -27.6064  -32.4295   25.7447 C   0  0  0  0  0  0
  -27.5561  -37.1760   24.8467 C   0  0  0  0  0  0
  -21.4380  -29.3026   22.3544 N   0  0  0  0  0  0
  -26.4259  -37.3702   23.9417 N   0  0  0  0  0  0
  -24.7610  -30.9759   22.0790 N   0  0  0  0  0  0
  -23.4229  -28.8004   23.3099 O   0  0  0  0  0  0
  -28.2671  -25.7683   20.1399 O   0  0  0  0  0  0
  -26.5738  -34.8903   22.4609 O   0  0  0  0  0  0
  -23.5755  -32.1179   23.6681 O   0  0  0  0  0  0
  -29.8669  -21.5039   19.6918 C   0  0  0  0  0  0
  -28.2526  -21.1974   21.2815 C   0  0  0  0  0  0
  -29.9606  -19.7928   19.4425 C   0  0  0  0  0  0
  -28.3176  -19.5313   21.0144 C   0  0  0  0  0  0
  -28.5281  -22.3769   20.1661 C   0  0  2  0  0  0
  -29.6368  -18.6004   20.5668 C   0  0  1  0  0  0
  -28.0926  -16.6668   20.4770 C   0  0  0  0  0  0
  -28.2562  -24.1624   20.6413 C   0  0  0  0  0  0
  -29.5343  -16.8609   20.3922 N   0  0  0  0  0  0
  -31.4347  -13.2730   19.1646 H   0  0  0  0  0  0
  -30.6153  -12.1512   20.1985 H   0  0  0  0  0  0
  -30.0094  -11.7570   17.7923 H   0  0  0  0  0  0
  -29.4827  -13.4177   17.6256 H   0  0  0  0  0  0
  -28.2131  -11.2206   19.2994 H   0  0  0  0  0  0
  -27.4605  -12.0523   17.9598 H   0  0  0  0  0  0
  -27.4499  -14.0607   19.1426 H   0  0  0  0  0  0
  -28.8986  -12.6397   21.4861 H   0  0  0  0  0  0
  -28.2173  -14.2266   21.6734 H   0  0  0  0  0  0
  -25.2712   -9.5596   22.4818 H   0  0  0  0  0  0
  -23.9972   -7.4536   22.7471 H   0  0  0  0  0  0
  -21.0831   -8.8706   19.8930 H   0  0  0  0  0  0
  -22.3692  -10.9615   19.6190 H   0  0  0  0  0  0
  -21.1954   -7.6125   23.9721 H   0  0  0  0  0  0
  -21.1477   -6.0508   25.9092 H   0  0  0  0  0  0
  -22.0619   -2.7599   23.2870 H   0  0  0  0  0  0
  -22.3912  -11.9661   22.4856 H   0  0  0  0  0  0
  -21.0998  -13.1112   22.2853 H   0  0  0  0  0  0
  -24.5714  -15.8005   20.4728 H   0  0  0  0  0  0
  -26.1680  -15.6136   19.9628 H   0  0  0  0  0  0
  -26.7424  -32.5100   23.0842 H   0  0  0  0  0  0
  -25.0046  -33.9364   25.0118 H   0  0  0  0  0  0
  -22.8065  -31.2598   21.3389 H   0  0  0  0  0  0
  -23.3752  -35.9527   23.3266 H   0  0  0  0  0  0
  -24.3565  -36.8895   22.2077 H   0  0  0  0  0  0
  -23.7238  -37.6383   23.6728 H   0  0  0  0  0  0
  -26.2342  -31.3375   20.6069 H   0  0  0  0  0  0
  -26.9186  -30.6732   22.0476 H   0  0  0  0  0  0
  -28.1774  -28.5617   21.2451 H   0  0  0  0  0  0
  -25.8716  -25.6716   19.0485 H   0  0  0  0  0  0
  -24.0011  -27.2207   18.9870 H   0  0  0  0  0  0
  -23.8921  -30.4912   19.3836 H   0  0  0  0  0  0
  -22.8370  -29.1846   19.8319 H   0  0  0  0  0  0
  -25.1319  -36.1753   25.0793 H   0  0  0  0  0  0
  -21.0002  -28.3376   24.1324 H   0  0  0  0  0  0
  -20.5705  -26.2382   23.3647 H   0  0  0  0  0  0
  -21.6680  -26.7448   22.1216 H   0  0  0  0  0  0
  -19.6944  -25.6304   21.1267 H   0  0  0  0  0  0
  -19.6727  -27.3197   20.6742 H   0  0  0  0  0  0
  -17.4251  -26.6711   21.4002 H   0  0  0  0  0  0
  -18.0327  -26.0136   22.9037 H   0  0  0  0  0  0
  -19.7999  -30.7342   24.2145 H   0  0  0  0  0  0
  -17.5066  -31.6265   24.5197 H   0  0  0  0  0  0
  -15.5394  -30.2953   23.7724 H   0  0  0  0  0  0
  -15.8727  -28.0832   22.7036 H   0  0  0  0  0  0
  -24.5942  -30.6975   25.7641 H   0  0  0  0  0  0
  -24.8680  -32.2975   26.4470 H   0  0  0  0  0  0
  -25.7866  -30.9185   27.0251 H   0  0  0  0  0  0
  -26.3132  -29.6553   24.1385 H   0  0  0  0  0  0
  -27.3962  -29.7251   25.5064 H   0  0  0  0  0  0
  -27.9063  -30.4055   23.9828 H   0  0  0  0  0  0
  -27.2713  -33.3739   26.1745 H   0  0  0  0  0  0
  -28.4004  -32.6615   25.0330 H   0  0  0  0  0  0
  -28.0562  -31.8574   26.5587 H   0  0  0  0  0  0
  -28.2558  -38.0070   24.7534 H   0  0  0  0  0  0
  -28.1088  -36.2611   24.6275 H   0  0  0  0  0  0
  -27.2290  -37.1375   25.8870 H   0  0  0  0  0  0
  -20.9690  -29.8704   21.6641 H   0  0  0  0  0  0
  -26.0119  -38.2762   24.1442 H   0  0  0  0  0  0
  -30.6631  -21.7616   20.3915 H   0  0  0  0  0  0
  -30.1846  -21.9601   18.7542 H   0  0  0  0  0  0
  -28.9030  -21.4053   22.1292 H   0  0  0  0  0  0
  -27.2526  -21.3993   21.6694 H   0  0  0  0  0  0
  -30.9770  -19.6084   19.0930 H   0  0  0  0  0  0
  -29.3395  -19.5878   18.5712 H   0  0  0  0  0  0
  -27.5476  -19.4076   20.2525 H   0  0  0  0  0  0
  -27.9005  -19.0690   21.9069 H   0  0  0  0  0  0
  -27.8010  -22.2297   19.3670 H   0  0  0  0  0  0
  -30.3857  -18.7270   21.3491 H   0  0  0  0  0  0
  -27.5056  -17.3900   19.9189 H   0  0  0  0  0  0
  -27.7411  -16.6145   21.5103 H   0  0  0  0  0  0
  -27.8036  -15.7804   19.9715 H   0  0  0  0  0  0
  -28.9198  -24.2563   21.4990 H   0  0  0  0  0  0
  -27.2684  -24.1173   21.0964 H   0  0  0  0  0  0
  1 25  1  0  0  0
  1 30  2  0  0  0
  1 79  1  0  0  0
  2  3  1  0  0  0
  2 25  1  0  0  0
  2 80  1  0  0  0
  2 81  1  0  0  0
  3  4  1  0  0  0
  3 82  1  0  0  0
  3 83  1  0  0  0
  4  5  1  0  0  0
  4 84  1  0  0  0
  4 85  1  0  0  0
  5  6  1  0  0  0
  5 26  1  0  0  0
  5 86  1  0  0  0
  6 25  1  0  0  0
  6 87  1  0  0  0
  6 88  1  0  0  0
  7  8  2  0  0  0
  7 26  1  0  0  0
  7 29  1  0  0  0
  8  9  1  0  0  0
  8 22  1  0  0  0
  9 10  1  0  0  0
  9 27  2  0  0  0
 10 11  2  0  0  0
 10 15  1  0  0  0
 11 12  1  0  0  0
 11 89  1  0  0  0
 12 13  2  0  0  0
 12 90  1  0  0  0
 13 14  1  0  0  0
 13 31  1  0  0  0
 14 15  2  0  0  0
 14 91  1  0  0  0
 15 92  1  0  0  0
 16 17  2  0  0  0
 16 21  1  0  0  0
 16 31  1  0  0  0
 17 18  1  0  0  0
 17 93  1  0  0  0
 18 19  2  0  0  0
 18 94  1  0  0  0
 19 20  1  0  0  0
 19 24  1  0  0  0
 20 21  2  0  0  0
 20 95  1  0  0  0
 21 23  1  0  0  0
 22 28  1  0  0  0
 22 32  2  0  0  0
 26 27  1  0  0  0
 28 96  1  0  0  0
 28 97  1  0  0  0
 29 98  1  0  0  0
 29 99  1  0  0  0
 33 34  1  0  0  0
 33 66  1  0  0  0
 33 70  2  0  0  0
 34 36  1  0  0  0
 34 59  1  0  0  0
 34100  1  0  0  0
 35 44  2  0  0  0
 35 45  1  0  0  0
 35 68  1  0  0  0
 36 56  1  0  0  0
 36101  1  0  0  0
 37 39  1  0  0  0
 37 47  1  0  0  0
 37 66  1  0  0  0
 37102  1  0  0  0
 38 43  2  0  0  0
 38 46  1  0  0  0
 38 47  1  0  0  0
 39 64  1  0  0  0
 39 67  2  0  0  0
 40 52  1  0  0  0
 40 53  2  0  0  0
 40 58  1  0  0  0
 41103  1  0  0  0
 41104  1  0  0  0
 41105  1  0  0  0
 41 48  1  0  0  0
 42 43  1  0  0  0
 42 66  1  0  0  0
 42106  1  0  0  0
 42107  1  0  0  0
 43 44  1  0  0  0
 44108  1  0  0  0
 45 46  2  0  0  0
 45109  1  0  0  0
 46110  1  0  0  0
 47111  1  0  0  0
 47112  1  0  0  0
 48 56  1  0  0  0
 48 65  1  0  0  0
 48113  1  0  0  0
 49 50  1  0  0  0
 49 53  1  0  0  0
 49 64  1  0  0  0
 49114  1  0  0  0
 50 51  1  0  0  0
 50115  1  0  0  0
 50116  1  0  0  0
 51 52  1  0  0  0
 51117  1  0  0  0
 51118  1  0  0  0
 52119  1  0  0  0
 52120  1  0  0  0
 53 54  1  0  0  0
 54 55  2  0  0  0
 54121  1  0  0  0
 55 57  1  0  0  0
 55122  1  0  0  0
 56 69  2  0  0  0
 57 58  2  0  0  0
 57123  1  0  0  0
 58124  1  0  0  0
 59 60  1  0  0  0
 59 61  1  0  0  0
 59 62  1  0  0  0
 60125  1  0  0  0
 60126  1  0  0  0
 60127  1  0  0  0
 61128  1  0  0  0
 61129  1  0  0  0
 61130  1  0  0  0
 62131  1  0  0  0
 62132  1  0  0  0
 62133  1  0  0  0
 63 65  1  0  0  0
 63134  1  0  0  0
 63135  1  0  0  0
 63136  1  0  0  0
 64137  1  0  0  0
 65138  1  0  0  0
 68 78  1  0  0  0
 71 73  1  0  0  0
 71 75  1  0  0  0
 71139  1  0  0  0
 71140  1  0  0  0
 72 74  1  0  0  0
 72 75  1  0  0  0
 72141  1  0  0  0
 72142  1  0  0  0
 73 76  1  0  0  0
 73143  1  0  0  0
 73144  1  0  0  0
 74 76  1  0  0  0
 74145  1  0  0  0
 74146  1  0  0  0
 75 78  1  0  0  0
 75147  1  0  0  0
 76 79  1  0  0  0
 76148  1  0  0  0
 77 79  1  0  0  0
 77149  1  0  0  0
 77150  1  0  0  0
 77151  1  0  0  0
 78152  1  0  0  0
 78153  1  0  0  0
M  ISO  4   1 100  68 101  78 101  79 100
M  END
> <chiral flag>
0

> <version>
0

> <s_m_source_file>
/data/baiqing/PycharmProjects/Reinvent-master-3.2/result/LINK_invent/BTK/process_docking_weight1_custom_sum_contain_oxygen_bond_distance_aromatic_linkinvent_7_9_3/rearranged_h_0102.sdf

> <i_m_source_file_index>
10

> <r_mmod_Potential_Energy-OPLS-2005>
2099.97119140625

> <r_mmod_Stretch_Energy-OPLS-2005>
760.698425292969

> <r_mmod_Bend_Energy-OPLS-2005>
677.148803710938

> <r_mmod_Torsional_Energy-OPLS-2005>
310.583709716797

> <r_mmod_Improper_Torsional_Energy-OPLS-2005>
4.66689682006836

> <r_mmod_Van_der_Waal_Energy-OPLS-2005>
143.853713989258

> <r_mmod_Electrostatic_Energy-OPLS-2005>
-268.367919921875

> <r_mmod_Solvation_Energy-OPLS-2005>
-200.562866210938

> <b_mmod_Minimization_Converged-OPLS-2005>
0

> <r_mmod_RMS_Derivative-OPLS-2005>
4.53907871246338

$$$$
10
                    3D
 Structure written by MMmdl.
165173  0  0  1  0            999 V2000
  -30.6590  -14.5480   20.5435 C   0  0  0  0  0  0
  -30.4349  -12.3475   19.4218 C   0  0  0  0  0  0
  -29.4974  -12.4984   18.2040 C   0  0  0  0  0  0
  -28.0212  -12.3439   18.6248 C   0  0  0  0  0  0
  -27.6580  -13.2045   19.8649 C   0  0  2  0  0  0
  -28.7050  -13.0164   20.9859 C   0  0  0  0  0  0
  -25.2596  -13.8144   20.5671 C   0  0  0  0  0  0
  -24.1846  -13.0427   20.9182 C   0  0  0  0  0  0
  -24.6391  -11.6893   20.8733 C   0  0  0  0  0  0
  -23.9046  -10.4283   21.0406 C   0  0  0  0  0  0
  -24.3602   -9.4204   21.9187 C   0  0  0  0  0  0
  -23.6281   -8.2238   22.0761 C   0  0  0  0  0  0
  -22.4265   -8.0272   21.3548 C   0  0  0  0  0  0
  -21.9892   -9.0243   20.4651 C   0  0  0  0  0  0
  -22.7216  -10.2125   20.3060 C   0  0  0  0  0  0
  -21.6847   -6.0724   22.5274 C   0  0  0  0  0  0
  -21.4013   -6.5635   23.8206 C   0  0  0  0  0  0
  -21.3661   -5.6792   24.9170 C   0  0  0  0  0  0
  -21.6041   -4.3053   24.7226 C   0  0  0  0  0  0
  -21.8823   -3.8139   23.4349 C   0  0  0  0  0  0
  -21.9195   -4.6952   22.3401 C   0  0  0  0  0  0
  -22.7873  -13.5241   21.1833 C   0  0  0  0  0  0
  -22.1664   -4.2136   21.0979 F   0  0  0  0  0  0
  -21.5629   -3.4538   25.7743 F   0  0  0  0  0  0
  -30.0238  -13.3467   20.4224 N   0  0  0  0  0  0
  -26.3016  -12.9303   20.3326 N   0  0  0  0  0  0
  -25.9318  -11.6465   20.5754 N   0  0  0  0  0  0
  -22.0501  -12.8248   22.0392 N   0  0  0  0  0  0
  -25.4315  -15.1859   20.4060 N   0  0  0  0  0  0
  -31.8109  -14.7343   20.1424 O   0  0  0  0  0  0
  -21.6640   -6.8865   21.4236 O   0  0  0  0  0  0
  -22.3571  -14.5545   20.6673 O   0  0  0  0  0  0
  -24.6182  -31.8628   23.2088 C   0  0  0  0  0  0
  -25.9065  -32.4782   23.8395 C   0  0  1  0  0  0
  -27.2290  -27.3817   20.1205 C   0  0  0  0  0  0
  -25.5911  -33.8583   24.2319 N   0  0  0  0  0  0
  -23.4099  -30.4832   21.5482 C   0  0  2  0  0  0
  -24.8597  -28.9407   20.1163 C   0  0  0  0  0  0
  -22.7435  -29.4618   22.4979 C   0  0  0  0  0  0
  -18.0265  -28.1356   22.8467 C   0  0  0  0  0  0
  -24.1493  -36.7295   23.2643 C   0  0  0  0  0  0
  -25.9415  -30.8104   21.3734 C   0  0  0  0  0  0
  -26.0182  -29.4372   20.7278 C   0  0  0  0  0  0
  -27.2075  -28.6632   20.7305 C   0  0  0  0  0  0
  -26.0656  -26.9263   19.4712 C   0  0  0  0  0  0
  -24.8783  -27.6845   19.4846 C   0  0  0  0  0  0
  -23.6230  -29.8129   20.1633 C   0  0  0  0  0  0
  -25.4112  -36.3082   24.0337 C   0  0  1  0  0  0
  -20.5852  -28.3654   23.1288 C   0  0  2  0  0  0
  -20.6757  -26.9383   22.5404 C   0  0  0  0  0  0
  -19.5745  -26.6359   21.5190 C   0  0  0  0  0  0
  -18.1920  -26.7898   22.1600 C   0  0  0  0  0  0
  -19.1517  -28.8822   23.2867 C   0  0  0  0  0  0
  -18.9458  -30.1427   23.8884 C   0  0  0  0  0  0
  -17.6463  -30.6574   24.0546 C   0  0  0  0  0  0
  -25.9033  -34.9448   23.5125 C   0  0  0  0  0  0
  -16.5345  -29.9072   23.6325 C   0  0  0  0  0  0
  -16.7253  -28.6482   23.0343 C   0  0  0  0  0  0
  -26.4495  -31.6577   25.0738 C   0  0  0  0  0  0
  -25.3760  -31.3702   26.1495 C   0  0  0  0  0  0
  -27.0357  -30.3014   24.6153 C   0  0  0  0  0  0
  -27.6048  -32.4325   25.7501 C   0  0  0  0  0  0
  -27.5585  -37.1805   24.8471 C   0  0  0  0  0  0
  -21.4158  -29.3025   22.3718 N   0  0  0  0  0  0
  -26.4296  -37.3764   23.9412 N   0  0  0  0  0  0
  -24.6740  -31.0692   22.1002 N   0  0  0  0  0  0
  -23.4188  -28.8160   23.3037 O   0  0  0  0  0  0
  -28.3776  -26.6140   20.0408 O   0  0  0  0  0  0
  -26.5587  -34.8911   22.4684 O   0  0  0  0  0  0
  -23.5363  -32.1405   23.7456 O   0  0  0  0  0  0
  -26.2377  -22.4978   21.1072 C   0  0  0  0  0  0
  -28.8700  -23.0552   20.4233 C   0  0  0  0  0  0
  -27.0587  -21.4448   20.6601 C   0  0  0  0  0  0
  -26.7060  -23.8226   21.2341 C   0  0  0  0  0  0
  -28.4114  -21.7021   20.3292 C   0  0  0  0  0  0
  -28.0435  -24.1453   20.8597 C   0  0  0  0  0  0
  -26.4477  -20.0540   20.5473 C   0  0  0  0  0  0
  -25.7095  -24.8097   21.8207 C   0  0  0  0  0  0
  -28.7545  -26.1054   22.4580 C   0  0  0  0  0  0
  -29.3230  -20.5589   19.7904 C   0  0  0  0  0  0
  -30.2456  -16.9924   21.2484 C   0  0  0  0  0  0
  -29.5564  -18.0580   20.3182 C   0  0  0  0  0  0
  -28.6788  -25.5721   21.0135 C   0  0  2  0  0  0
  -29.8871  -15.5709   20.9867 N   0  0  0  0  0  0
  -29.7121  -19.4877   20.7663 N   0  3  0  0  0  0
  -31.4756  -12.4680   19.1161 H   0  0  0  0  0  0
  -30.3604  -11.3426   19.8402 H   0  0  0  0  0  0
  -29.7460  -11.7561   17.4437 H   0  0  0  0  0  0
  -29.6480  -13.4739   17.7381 H   0  0  0  0  0  0
  -27.8534  -11.2895   18.8486 H   0  0  0  0  0  0
  -27.3619  -12.5841   17.7898 H   0  0  0  0  0  0
  -27.6898  -14.2453   19.5421 H   0  0  0  0  0  0
  -28.7044  -11.9840   21.3388 H   0  0  0  0  0  0
  -28.4629  -13.6248   21.8586 H   0  0  0  0  0  0
  -25.2741   -9.5685   22.4764 H   0  0  0  0  0  0
  -23.9981   -7.4638   22.7495 H   0  0  0  0  0  0
  -21.0813   -8.8754   19.8969 H   0  0  0  0  0  0
  -22.3657  -10.9662   19.6174 H   0  0  0  0  0  0
  -21.2006   -7.6144   23.9700 H   0  0  0  0  0  0
  -21.1481   -6.0527   25.9071 H   0  0  0  0  0  0
  -22.0603   -2.7602   23.2854 H   0  0  0  0  0  0
  -22.4097  -11.9906   22.4785 H   0  0  0  0  0  0
  -21.1126  -13.1303   22.2590 H   0  0  0  0  0  0
  -24.6579  -15.8348   20.4997 H   0  0  0  0  0  0
  -26.2696  -15.6188   20.0404 H   0  0  0  0  0  0
  -26.7132  -32.5486   23.1155 H   0  0  0  0  0  0
  -25.0115  -33.9738   25.0502 H   0  0  0  0  0  0
  -22.6985  -31.2999   21.4052 H   0  0  0  0  0  0
  -23.3742  -35.9642   23.3304 H   0  0  0  0  0  0
  -24.3590  -36.8903   22.2061 H   0  0  0  0  0  0
  -23.7261  -37.6505   23.6657 H   0  0  0  0  0  0
  -26.0578  -31.5708   20.6001 H   0  0  0  0  0  0
  -26.8262  -30.8660   21.9957 H   0  0  0  0  0  0
  -28.1052  -29.0432   21.1979 H   0  0  0  0  0  0
  -26.0780  -25.9694   18.9695 H   0  0  0  0  0  0
  -23.9938  -27.3002   18.9951 H   0  0  0  0  0  0
  -23.7348  -30.5867   19.4021 H   0  0  0  0  0  0
  -22.7479  -29.2315   19.8678 H   0  0  0  0  0  0
  -25.1284  -36.1945   25.0826 H   0  0  0  0  0  0
  -20.9916  -28.3226   24.1414 H   0  0  0  0  0  0
  -20.5636  -26.2267   23.3601 H   0  0  0  0  0  0
  -21.6638  -26.7409   22.1219 H   0  0  0  0  0  0
  -19.6910  -25.6267   21.1228 H   0  0  0  0  0  0
  -19.6689  -27.3170   20.6720 H   0  0  0  0  0  0
  -17.4186  -26.6618   21.4005 H   0  0  0  0  0  0
  -18.0324  -26.0042   22.9003 H   0  0  0  0  0  0
  -19.7950  -30.7217   24.2261 H   0  0  0  0  0  0
  -17.5035  -31.6259   24.5144 H   0  0  0  0  0  0
  -15.5351  -30.2974   23.7672 H   0  0  0  0  0  0
  -15.8645  -28.0812   22.7065 H   0  0  0  0  0  0
  -24.5919  -30.7049   25.7858 H   0  0  0  0  0  0
  -24.8980  -32.2869   26.4959 H   0  0  0  0  0  0
  -25.8125  -30.8879   27.0252 H   0  0  0  0  0  0
  -26.2937  -29.6732   24.1210 H   0  0  0  0  0  0
  -27.4116  -29.7286   25.4642 H   0  0  0  0  0  0
  -27.8766  -30.4310   23.9330 H   0  0  0  0  0  0
  -27.2635  -33.3614   26.2090 H   0  0  0  0  0  0
  -28.3856  -32.6904   25.0328 H   0  0  0  0  0  0
  -28.0723  -31.8451   26.5418 H   0  0  0  0  0  0
  -28.2594  -38.0108   24.7498 H   0  0  0  0  0  0
  -28.1075  -36.2627   24.6301 H   0  0  0  0  0  0
  -27.2296  -37.1462   25.8873 H   0  0  0  0  0  0
  -20.9333  -29.8778   21.6959 H   0  0  0  0  0  0
  -26.0177  -38.2836   24.1408 H   0  0  0  0  0  0
  -25.2130  -22.2849   21.3789 H   0  0  0  0  0  0
  -29.8953  -23.2666   20.1558 H   0  0  0  0  0  0
  -25.3636  -20.0867   20.6609 H   0  0  0  0  0  0
  -26.8326  -19.3972   21.3273 H   0  0  0  0  0  0
  -26.6488  -19.6042   19.5756 H   0  0  0  0  0  0
  -24.7918  -24.8083   21.2318 H   0  0  0  0  0  0
  -26.0518  -25.8341   21.8662 H   0  0  0  0  0  0
  -25.4509  -24.5105   22.8369 H   0  0  0  0  0  0
  -29.2021  -25.3647   23.1192 H   0  0  0  0  0  0
  -27.7938  -26.3799   22.8852 H   0  0  0  0  0  0
  -29.3819  -26.9951   22.4997 H   0  0  0  0  0  0
  -30.2419  -20.9927   19.3948 H   0  0  0  0  0  0
  -28.8333  -20.1125   18.9251 H   0  0  0  0  0  0
  -29.9675  -17.1918   22.2839 H   0  0  0  0  0  0
  -31.3292  -17.1148   21.2062 H   0  0  0  0  0  0
  -28.4918  -17.8371   20.2350 H   0  0  0  0  0  0
  -29.9675  -17.9562   19.3127 H   0  0  0  0  0  0
  -29.7283  -25.3976   20.7769 H   0  0  0  0  0  0
  -28.9470  -15.3007   21.2357 H   0  0  0  0  0  0
  -29.1898  -19.6310   21.6142 H   0  0  0  0  0  0
  -30.6810  -19.6469   20.9880 H   0  0  0  0  0  0
  1 25  1  0  0  0
  1 30  2  0  0  0
  1 84  1  0  0  0
  2  3  1  0  0  0
  2 25  1  0  0  0
  2 86  1  0  0  0
  2 87  1  0  0  0
  3  4  1  0  0  0
  3 88  1  0  0  0
  3 89  1  0  0  0
  4  5  1  0  0  0
  4 90  1  0  0  0
  4 91  1  0  0  0
  5  6  1  0  0  0
  5 26  1  0  0  0
  5 92  1  0  0  0
  6 25  1  0  0  0
  6 93  1  0  0  0
  6 94  1  0  0  0
  7  8  2  0  0  0
  7 26  1  0  0  0
  7 29  1  0  0  0
  8  9  1  0  0  0
  8 22  1  0  0  0
  9 10  1  0  0  0
  9 27  2  0  0  0
 10 11  2  0  0  0
 10 15  1  0  0  0
 11 12  1  0  0  0
 11 95  1  0  0  0
 12 13  2  0  0  0
 12 96  1  0  0  0
 13 14  1  0  0  0
 13 31  1  0  0  0
 14 15  2  0  0  0
 14 97  1  0  0  0
 15 98  1  0  0  0
 16 17  2  0  0  0
 16 21  1  0  0  0
 16 31  1  0  0  0
 17 18  1  0  0  0
 17 99  1  0  0  0
 18 19  2  0  0  0
 18100  1  0  0  0
 19 20  1  0  0  0
 19 24  1  0  0  0
 20 21  2  0  0  0
 20101  1  0  0  0
 21 23  1  0  0  0
 22 28  1  0  0  0
 22 32  2  0  0  0
 26 27  1  0  0  0
 28102  1  0  0  0
 28103  1  0  0  0
 29104  1  0  0  0
 29105  1  0  0  0
 33 34  1  0  0  0
 33 66  1  0  0  0
 33 70  2  0  0  0
 34 36  1  0  0  0
 34 59  1  0  0  0
 34106  1  0  0  0
 35 44  2  0  0  0
 35 45  1  0  0  0
 35 68  1  0  0  0
 36 56  1  0  0  0
 36107  1  0  0  0
 37 39  1  0  0  0
 37 47  1  0  0  0
 37 66  1  0  0  0
 37108  1  0  0  0
 38 43  2  0  0  0
 38 46  1  0  0  0
 38 47  1  0  0  0
 39 64  1  0  0  0
 39 67  2  0  0  0
 40 52  1  0  0  0
 40 53  2  0  0  0
 40 58  1  0  0  0
 41109  1  0  0  0
 41110  1  0  0  0
 41111  1  0  0  0
 41 48  1  0  0  0
 42 43  1  0  0  0
 42 66  1  0  0  0
 42112  1  0  0  0
 42113  1  0  0  0
 43 44  1  0  0  0
 44114  1  0  0  0
 45 46  2  0  0  0
 45115  1  0  0  0
 46116  1  0  0  0
 47117  1  0  0  0
 47118  1  0  0  0
 48 56  1  0  0  0
 48 65  1  0  0  0
 48119  1  0  0  0
 49 50  1  0  0  0
 49 53  1  0  0  0
 49 64  1  0  0  0
 49120  1  0  0  0
 50 51  1  0  0  0
 50121  1  0  0  0
 50122  1  0  0  0
 51 52  1  0  0  0
 51123  1  0  0  0
 51124  1  0  0  0
 52125  1  0  0  0
 52126  1  0  0  0
 53 54  1  0  0  0
 54 55  2  0  0  0
 54127  1  0  0  0
 55 57  1  0  0  0
 55128  1  0  0  0
 56 69  2  0  0  0
 57 58  2  0  0  0
 57129  1  0  0  0
 58130  1  0  0  0
 59 60  1  0  0  0
 59 61  1  0  0  0
 59 62  1  0  0  0
 60131  1  0  0  0
 60132  1  0  0  0
 60133  1  0  0  0
 61134  1  0  0  0
 61135  1  0  0  0
 61136  1  0  0  0
 62137  1  0  0  0
 62138  1  0  0  0
 62139  1  0  0  0
 63 65  1  0  0  0
 63140  1  0  0  0
 63141  1  0  0  0
 63142  1  0  0  0
 64143  1  0  0  0
 65144  1  0  0  0
 68 83  1  0  0  0
 71 73  2  0  0  0
 71 74  1  0  0  0
 71145  1  0  0  0
 72 75  2  0  0  0
 72 76  1  0  0  0
 72146  1  0  0  0
 73 75  1  0  0  0
 73 77  1  0  0  0
 74 76  2  0  0  0
 74 78  1  0  0  0
 75 80  1  0  0  0
 76 83  1  0  0  0
 77147  1  0  0  0
 77148  1  0  0  0
 77149  1  0  0  0
 78150  1  0  0  0
 78151  1  0  0  0
 78152  1  0  0  0
 79153  1  0  0  0
 79154  1  0  0  0
 79155  1  0  0  0
 79 83  1  0  0  0
 80 85  1  0  0  0
 80156  1  0  0  0
 80157  1  0  0  0
 81 82  1  0  0  0
 81 84  1  0  0  0
 81158  1  0  0  0
 81159  1  0  0  0
 82 85  1  0  0  0
 82160  1  0  0  0
 82161  1  0  0  0
 83162  1  0  0  0
 84163  1  0  0  0
 85164  1  0  0  0
 85165  1  0  0  0
M  CHG  1  85   1
M  ISO  4   1 100  68 101  83 101  84 100
M  END
> <chiral flag>
0

> <version>
0

> <s_m_source_file>
/data/baiqing/PycharmProjects/Reinvent-master-3.2/result/LINK_invent/BTK/process_docking_weight1_custom_sum_contain_oxygen_bond_distance_aromatic_linkinvent_7_9_3/rearranged_h_0102.sdf

> <i_m_source_file_index>
11

> <r_mmod_Potential_Energy-OPLS-2005>
-235.550659179688

> <r_mmod_Stretch_Energy-OPLS-2005>
58.1764373779297

> <r_mmod_Bend_Energy-OPLS-2005>
137.062728881836

> <r_mmod_Torsional_Energy-OPLS-2005>
230.712753295898

> <r_mmod_Improper_Torsional_Energy-OPLS-2005>
4.43990135192871

> <r_mmod_Van_der_Waal_Energy-OPLS-2005>
136.774063110352

> <r_mmod_Electrostatic_Energy-OPLS-2005>
-346.524444580078

> <r_mmod_Solvation_Energy-OPLS-2005>
-479.140502929688

> <b_mmod_Minimization_Converged-OPLS-2005>
0

> <r_mmod_RMS_Derivative-OPLS-2005>
1.59695339202881

$$$$
11
                    3D
 Structure written by MMmdl.
167174  0  0  1  0            999 V2000
  -31.3624  -14.3392   21.1952 C   0  0  0  0  0  0
  -30.6673  -14.0872   18.8563 C   0  0  0  0  0  0
  -29.3307  -13.8929   17.6477 C   0  0  0  0  0  0
  -27.5840  -13.9671   18.2232 C   0  0  0  0  0  0
  -27.2691  -14.0909   20.0418 C   0  0  2  0  0  0
  -28.7109  -14.2998   21.2121 C   0  0  0  0  0  0
  -24.9343  -13.9930   20.6609 C   0  0  0  0  0  0
  -23.9954  -13.0804   20.9583 C   0  0  0  0  0  0
  -24.5841  -11.7848   20.8816 C   0  0  0  0  0  0
  -23.9227  -10.4631   21.0167 C   0  0  0  0  0  0
  -24.3788   -9.4562   21.8969 C   0  0  0  0  0  0
  -23.6517   -8.2517   22.0644 C   0  0  0  0  0  0
  -22.4461   -8.0406   21.3523 C   0  0  0  0  0  0
  -22.0077   -9.0300   20.4542 C   0  0  0  0  0  0
  -22.7364  -10.2211   20.2893 C   0  0  0  0  0  0
  -21.6983   -6.0829   22.5309 C   0  0  0  0  0  0
  -21.4144   -6.5707   23.8237 C   0  0  0  0  0  0
  -21.3703   -5.6851   24.9187 C   0  0  0  0  0  0
  -21.6023   -4.3100   24.7227 C   0  0  0  0  0  0
  -21.8796   -3.8194   23.4333 C   0  0  0  0  0  0
  -21.9243   -4.7030   22.3401 C   0  0  0  0  0  0
  -22.5904  -13.4658   21.2160 C   0  0  0  0  0  0
  -22.1671   -4.2217   21.0982 F   0  0  0  0  0  0
  -21.5579   -3.4566   25.7714 F   0  0  0  0  0  0
  -30.2922  -14.2266   20.5265 N   0  0  0  0  0  0
  -26.0875  -13.3176   20.4625 N   0  0  0  0  0  0
  -25.8791  -11.9460   20.6087 N   0  0  0  0  0  0
  -21.9270  -12.7369   22.0943 N   0  0  0  0  0  0
  -24.8495  -15.3807   20.5464 N   0  0  0  0  0  0
  -32.3575  -14.8173   20.6542 O   0  0  0  0  0  0
  -21.6836   -6.8975   21.4271 O   0  0  0  0  0  0
  -22.1171  -14.4829   20.7093 O   0  0  0  0  0  0
  -24.7439  -31.7248   23.1020 C   0  0  0  0  0  0
  -25.9733  -32.4095   23.7773 C   0  0  1  0  0  0
  -27.0951  -26.0596   20.1504 C   0  0  0  0  0  0
  -25.6052  -33.7962   24.1596 N   0  0  0  0  0  0
  -23.5812  -30.3166   21.4776 C   0  0  2  0  0  0
  -24.9986  -28.5330   20.1099 C   0  0  0  0  0  0
  -22.7979  -29.3959   22.4567 C   0  0  0  0  0  0
  -18.0361  -28.1449   22.8419 C   0  0  0  0  0  0
  -24.1489  -36.6997   23.2671 C   0  0  0  0  0  0
  -26.1805  -30.2349   21.4472 C   0  0  0  0  0  0
  -26.2062  -28.7367   20.7826 C   0  0  0  0  0  0
  -27.2229  -27.5473   20.7538 C   0  0  0  0  0  0
  -25.8665  -26.2314   19.4320 C   0  0  0  0  0  0
  -24.9053  -27.3146   19.4129 C   0  0  0  0  0  0
  -23.8477  -29.5805   20.1272 C   0  0  0  0  0  0
  -25.4165  -36.2681   24.0231 C   0  0  1  0  0  0
  -20.6010  -28.3824   23.1055 C   0  0  2  0  0  0
  -20.6789  -26.9443   22.5415 C   0  0  0  0  0  0
  -19.5781  -26.6358   21.5214 C   0  0  0  0  0  0
  -18.1965  -26.7966   22.1600 C   0  0  0  0  0  0
  -19.1635  -28.8976   23.2697 C   0  0  0  0  0  0
  -18.9539  -30.1546   23.8772 C   0  0  0  0  0  0
  -17.6525  -30.6618   24.0545 C   0  0  0  0  0  0
  -25.9191  -34.9091   23.4798 C   0  0  0  0  0  0
  -16.5413  -29.9099   23.6361 C   0  0  0  0  0  0
  -16.7341  -28.6524   23.0374 C   0  0  0  0  0  0
  -26.4707  -31.6413   25.0655 C   0  0  0  0  0  0
  -25.3615  -31.3895   26.1155 C   0  0  0  0  0  0
  -27.0731  -30.2704   24.6969 C   0  0  0  0  0  0
  -27.6028  -32.4426   25.7516 C   0  0  0  0  0  0
  -27.5531  -37.1660   24.8470 C   0  0  0  0  0  0
  -21.4576  -29.2968   22.3320 N   0  0  0  0  0  0
  -26.4234  -37.3517   23.9408 N   0  0  0  0  0  0
  -24.8710  -30.8074   22.0608 N   0  0  0  0  0  0
  -23.4180  -28.7639   23.3143 O   0  0  0  0  0  0
  -27.8975  -24.5319   20.0731 O   0  0  0  0  0  0
  -26.5915  -34.8798   22.4475 O   0  0  0  0  0  0
  -23.6350  -32.0623   23.5638 O   0  0  0  0  0  0
  -29.1476  -18.0319   21.2181 C   0  0  0  0  0  0
  -30.2406  -11.5942   19.2470 C   0  0  0  0  0  0
  -28.1010  -11.4921   18.6604 C   0  0  0  0  0  0
  -31.9470  -14.4271   23.5355 C   0  0  0  0  0  0
  -29.9101  -11.5266   22.1657 C   0  0  0  0  0  0
  -28.8323  -11.7469   21.0256 C   0  0  0  0  0  0
  -28.3183  -20.2554   19.5775 C   0  0  0  0  0  0
  -28.8783  -15.7516   19.2891 C   0  0  0  0  0  0
  -31.2387  -12.2961   22.4719 C   0  0  0  0  0  0
  -27.7336  -22.4564   20.0712 C   0  0  0  0  0  0
  -28.3590  -17.9482   19.8990 C   0  0  1  0  0  0
  -28.9620  -12.5954   19.5808 C   0  0  0  0  0  0
  -31.2821  -13.7718   22.4100 N   0  0  0  0  0  0
  -31.1853  -14.9965   18.5391 H   0  0  0  0  0  0
  -31.5387  -13.4688   18.6379 H   0  0  0  0  0  0
  -29.5022  -13.0552   16.9763 H   0  0  0  0  0  0
  -29.4696  -14.6797   16.9047 H   0  0  0  0  0  0
  -26.9146  -13.3130   17.6676 H   0  0  0  0  0  0
  -27.1277  -14.8608   17.7954 H   0  0  0  0  0  0
  -26.9752  -15.1104   20.1774 H   0  0  0  0  0  0
  -28.6006  -13.8383   22.1899 H   0  0  0  0  0  0
  -28.6484  -15.2959   21.6331 H   0  0  0  0  0  0
  -25.2888   -9.6205   22.4556 H   0  0  0  0  0  0
  -24.0352   -7.4996   22.7378 H   0  0  0  0  0  0
  -21.1059   -8.8690   19.8829 H   0  0  0  0  0  0
  -22.3680  -10.9678   19.6006 H   0  0  0  0  0  0
  -21.2198   -7.6244   23.9754 H   0  0  0  0  0  0
  -21.1518   -6.0575   25.9080 H   0  0  0  0  0  0
  -22.0495   -2.7648   23.2805 H   0  0  0  0  0  0
  -22.3557  -11.9393   22.5374 H   0  0  0  0  0  0
  -20.9800  -12.9830   22.3427 H   0  0  0  0  0  0
  -23.9749  -15.8784   20.6719 H   0  0  0  0  0  0
  -25.6286  -15.9800   20.3102 H   0  0  0  0  0  0
  -26.7888  -32.4413   23.0531 H   0  0  0  0  0  0
  -25.0006  -33.8887   24.9625 H   0  0  0  0  0  0
  -22.9427  -31.1737   21.2562 H   0  0  0  0  0  0
  -23.3783  -35.9288   23.3225 H   0  0  0  0  0  0
  -24.3535  -36.8813   22.2108 H   0  0  0  0  0  0
  -23.7222  -37.6110   23.6878 H   0  0  0  0  0  0
  -26.4535  -30.9262   20.6486 H   0  0  0  0  0  0
  -27.0146  -30.2958   22.1322 H   0  0  0  0  0  0
  -28.1333  -27.7291   21.3094 H   0  0  0  0  0  0
  -25.5628  -25.3662   18.8602 H   0  0  0  0  0  0
  -24.0057  -27.1475   18.8362 H   0  0  0  0  0  0
  -24.0867  -30.3267   19.3686 H   0  0  0  0  0  0
  -22.9269  -29.1080   19.7790 H   0  0  0  0  0  0
  -25.1402  -36.1347   25.0715 H   0  0  0  0  0  0
  -21.0056  -28.3484   24.1193 H   0  0  0  0  0  0
  -20.5597  -26.2466   23.3714 H   0  0  0  0  0  0
  -21.6649  -26.7300   22.1272 H   0  0  0  0  0  0
  -19.6933  -25.6239   21.1320 H   0  0  0  0  0  0
  -19.6746  -27.3096   20.6686 H   0  0  0  0  0  0
  -17.4238  -26.6709   21.4006 H   0  0  0  0  0  0
  -18.0349  -26.0139   22.9020 H   0  0  0  0  0  0
  -19.8027  -30.7380   24.2096 H   0  0  0  0  0  0
  -17.5089  -31.6282   24.5180 H   0  0  0  0  0  0
  -15.5417  -30.2970   23.7763 H   0  0  0  0  0  0
  -15.8731  -28.0810   22.7158 H   0  0  0  0  0  0
  -24.5883  -30.7154   25.7451 H   0  0  0  0  0  0
  -24.8709  -32.3157   26.4161 H   0  0  0  0  0  0
  -25.7651  -30.9347   27.0211 H   0  0  0  0  0  0
  -26.3522  -29.6109   24.2127 H   0  0  0  0  0  0
  -27.4099  -29.7420   25.5901 H   0  0  0  0  0  0
  -27.9518  -30.3720   24.0597 H   0  0  0  0  0  0
  -27.2499  -33.3895   26.1623 H   0  0  0  0  0  0
  -28.4082  -32.6725   25.0527 H   0  0  0  0  0  0
  -28.0429  -31.8884   26.5819 H   0  0  0  0  0  0
  -28.2486  -38.0008   24.7499 H   0  0  0  0  0  0
  -28.1082  -36.2519   24.6311 H   0  0  0  0  0  0
  -27.2244  -37.1299   25.8872 H   0  0  0  0  0  0
  -21.0007  -29.8580   21.6260 H   0  0  0  0  0  0
  -25.9994  -38.2530   24.1443 H   0  0  0  0  0  0
  -29.0635  -19.0199   21.6686 H   0  0  0  0  0  0
  -30.2113  -17.8585   21.0474 H   0  0  0  0  0  0
  -28.8042  -17.3374   21.9793 H   0  0  0  0  0  0
  -30.1195  -10.5244   19.4355 H   0  0  0  0  0  0
  -31.1288  -11.7937   19.8418 H   0  0  0  0  0  0
  -30.5602  -11.5954   18.2036 H   0  0  0  0  0  0
  -27.0263  -11.5772   18.6378 H   0  0  0  0  0  0
  -28.1721  -10.4289   18.8990 H   0  0  0  0  0  0
  -28.3727  -11.4794   17.6072 H   0  0  0  0  0  0
  -32.7644  -13.8248   23.9347 H   0  0  0  0  0  0
  -32.3599  -15.3976   23.2618 H   0  0  0  0  0  0
  -31.2252  -14.5984   24.3327 H   0  0  0  0  0  0
  -30.2117  -10.4796   22.0885 H   0  0  0  0  0  0
  -29.3349  -11.5425   23.0929 H   0  0  0  0  0  0
  -28.5066  -10.7228   20.8540 H   0  0  0  0  0  0
  -27.9698  -12.0300   21.6050 H   0  0  0  0  0  0
  -29.3903  -20.4077   19.4561 H   0  0  0  0  0  0
  -27.9516  -20.2469   18.5504 H   0  0  0  0  0  0
  -29.8685  -16.1795   19.4362 H   0  0  0  0  0  0
  -28.7439  -16.0524   18.2524 H   0  0  0  0  0  0
  -32.0370  -11.8973   21.8472 H   0  0  0  0  0  0
  -31.5273  -11.9924   23.4817 H   0  0  0  0  0  0
  -27.8130  -22.3636   21.1538 H   0  0  0  0  0  0
  -26.6627  -22.4064   19.8752 H   0  0  0  0  0  0
  -27.3072  -17.8159   20.1525 H   0  0  0  0  0  0
  1 25  1  0  0  0
  1 30  2  0  0  0
  1 83  1  0  0  0
  2  3  1  0  0  0
  2 25  1  0  0  0
  2 84  1  0  0  0
  2 85  1  0  0  0
  3  4  1  0  0  0
  3 86  1  0  0  0
  3 87  1  0  0  0
  4  5  1  0  0  0
  4 88  1  0  0  0
  4 89  1  0  0  0
  5  6  1  0  0  0
  5 26  1  0  0  0
  5 90  1  0  0  0
  6 25  1  0  0  0
  6 91  1  0  0  0
  6 92  1  0  0  0
  7  8  2  0  0  0
  7 26  1  0  0  0
  7 29  1  0  0  0
  8  9  1  0  0  0
  8 22  1  0  0  0
  9 10  1  0  0  0
  9 27  2  0  0  0
 10 11  2  0  0  0
 10 15  1  0  0  0
 11 12  1  0  0  0
 11 93  1  0  0  0
 12 13  2  0  0  0
 12 94  1  0  0  0
 13 14  1  0  0  0
 13 31  1  0  0  0
 14 15  2  0  0  0
 14 95  1  0  0  0
 15 96  1  0  0  0
 16 17  2  0  0  0
 16 21  1  0  0  0
 16 31  1  0  0  0
 17 18  1  0  0  0
 17 97  1  0  0  0
 18 19  2  0  0  0
 18 98  1  0  0  0
 19 20  1  0  0  0
 19 24  1  0  0  0
 20 21  2  0  0  0
 20 99  1  0  0  0
 21 23  1  0  0  0
 22 28  1  0  0  0
 22 32  2  0  0  0
 26 27  1  0  0  0
 28100  1  0  0  0
 28101  1  0  0  0
 29102  1  0  0  0
 29103  1  0  0  0
 33 34  1  0  0  0
 33 66  1  0  0  0
 33 70  2  0  0  0
 34 36  1  0  0  0
 34 59  1  0  0  0
 34104  1  0  0  0
 35 44  2  0  0  0
 35 45  1  0  0  0
 35 68  1  0  0  0
 36 56  1  0  0  0
 36105  1  0  0  0
 37 39  1  0  0  0
 37 47  1  0  0  0
 37 66  1  0  0  0
 37106  1  0  0  0
 38 43  2  0  0  0
 38 46  1  0  0  0
 38 47  1  0  0  0
 39 64  1  0  0  0
 39 67  2  0  0  0
 40 52  1  0  0  0
 40 53  2  0  0  0
 40 58  1  0  0  0
 41107  1  0  0  0
 41108  1  0  0  0
 41109  1  0  0  0
 41 48  1  0  0  0
 42 43  1  0  0  0
 42 66  1  0  0  0
 42110  1  0  0  0
 42111  1  0  0  0
 43 44  1  0  0  0
 44112  1  0  0  0
 45 46  2  0  0  0
 45113  1  0  0  0
 46114  1  0  0  0
 47115  1  0  0  0
 47116  1  0  0  0
 48 56  1  0  0  0
 48 65  1  0  0  0
 48117  1  0  0  0
 49 50  1  0  0  0
 49 53  1  0  0  0
 49 64  1  0  0  0
 49118  1  0  0  0
 50 51  1  0  0  0
 50119  1  0  0  0
 50120  1  0  0  0
 51 52  1  0  0  0
 51121  1  0  0  0
 51122  1  0  0  0
 52123  1  0  0  0
 52124  1  0  0  0
 53 54  1  0  0  0
 54 55  2  0  0  0
 54125  1  0  0  0
 55 57  1  0  0  0
 55126  1  0  0  0
 56 69  2  0  0  0
 57 58  2  0  0  0
 57127  1  0  0  0
 58128  1  0  0  0
 59 60  1  0  0  0
 59 61  1  0  0  0
 59 62  1  0  0  0
 60129  1  0  0  0
 60130  1  0  0  0
 60131  1  0  0  0
 61132  1  0  0  0
 61133  1  0  0  0
 61134  1  0  0  0
 62135  1  0  0  0
 62136  1  0  0  0
 62137  1  0  0  0
 63 65  1  0  0  0
 63138  1  0  0  0
 63139  1  0  0  0
 63140  1  0  0  0
 64141  1  0  0  0
 65142  1  0  0  0
 68 80  1  0  0  0
 71143  1  0  0  0
 71144  1  0  0  0
 71145  1  0  0  0
 71 81  1  0  0  0
 72146  1  0  0  0
 72147  1  0  0  0
 72148  1  0  0  0
 72 82  1  0  0  0
 73 82  1  0  0  0
 73149  1  0  0  0
 73150  1  0  0  0
 73151  1  0  0  0
 74 83  1  0  0  0
 74152  1  0  0  0
 74153  1  0  0  0
 74154  1  0  0  0
 75 76  1  0  0  0
 75 79  1  0  0  0
 75155  1  0  0  0
 75156  1  0  0  0
 76 82  1  0  0  0
 76157  1  0  0  0
 76158  1  0  0  0
 77 80  1  0  0  0
 77 81  1  0  0  0
 77159  1  0  0  0
 77160  1  0  0  0
 78 81  1  0  0  0
 78 82  1  0  0  0
 78161  1  0  0  0
 78162  1  0  0  0
 79 83  1  0  0  0
 79163  1  0  0  0
 79164  1  0  0  0
 80165  1  0  0  0
 80166  1  0  0  0
 81167  1  0  0  0
M  ISO  4   1 100  68 101  80 101  83 100
M  END
> <chiral flag>
0

> <version>
0

> <s_m_source_file>
/data/baiqing/PycharmProjects/Reinvent-master-3.2/result/LINK_invent/BTK/process_docking_weight1_custom_sum_contain_oxygen_bond_distance_aromatic_linkinvent_7_9_3/rearranged_h_0102.sdf

> <i_m_source_file_index>
12

> <r_mmod_Potential_Energy-OPLS-2005>
12809.8408203125

> <r_mmod_Stretch_Energy-OPLS-2005>
7016.94189453125

> <r_mmod_Bend_Energy-OPLS-2005>
1540.6728515625

> <r_mmod_Torsional_Energy-OPLS-2005>
398.417572021484

> <r_mmod_Improper_Torsional_Energy-OPLS-2005>
6.14656591415405

> <r_mmod_Van_der_Waal_Energy-OPLS-2005>
1668.91674804688

> <r_mmod_Electrostatic_Energy-OPLS-2005>
-277.910552978516

> <r_mmod_Solvation_Energy-OPLS-2005>
-170.276397705078

> <b_mmod_Minimization_Converged-OPLS-2005>
0

> <r_mmod_RMS_Derivative-OPLS-2005>
6.38945245742798

$$$$
12
                    3D
 Structure written by MMmdl.
149157  0  0  1  0            999 V2000
  -30.4049  -15.3477   20.3425 C   0  0  0  0  0  0
  -30.4331  -12.8589   19.5460 C   0  0  0  0  0  0
  -29.5408  -12.5960   18.3039 C   0  0  0  0  0  0
  -28.0952  -12.2961   18.7306 C   0  0  0  0  0  0
  -27.6083  -13.2809   19.8212 C   0  0  2  0  0  0
  -28.6327  -13.4922   20.9589 C   0  0  0  0  0  0
  -25.2374  -13.8252   20.5727 C   0  0  0  0  0  0
  -24.1731  -13.0441   20.9243 C   0  0  0  0  0  0
  -24.6394  -11.6939   20.8747 C   0  0  0  0  0  0
  -23.9086  -10.4296   21.0392 C   0  0  0  0  0  0
  -24.3637   -9.4210   21.9164 C   0  0  0  0  0  0
  -23.6314   -8.2244   22.0736 C   0  0  0  0  0  0
  -22.4292   -8.0276   21.3531 C   0  0  0  0  0  0
  -21.9927   -9.0247   20.4629 C   0  0  0  0  0  0
  -22.7257  -10.2129   20.3037 C   0  0  0  0  0  0
  -21.6856   -6.0732   22.5276 C   0  0  0  0  0  0
  -21.4020   -6.5637   23.8208 C   0  0  0  0  0  0
  -21.3665   -5.6788   24.9168 C   0  0  0  0  0  0
  -21.6044   -4.3049   24.7218 C   0  0  0  0  0  0
  -21.8820   -3.8139   23.4340 C   0  0  0  0  0  0
  -21.9192   -4.6958   22.3400 C   0  0  0  0  0  0
  -22.7749  -13.5185   21.1897 C   0  0  0  0  0  0
  -22.1652   -4.2143   21.0974 F   0  0  0  0  0  0
  -21.5639   -3.4537   25.7733 F   0  0  0  0  0  0
  -29.8626  -14.0186   20.3404 N   0  0  0  0  0  0
  -26.2797  -12.9532   20.3191 N   0  0  0  0  0  0
  -25.9328  -11.6635   20.5692 N   0  0  0  0  0  0
  -22.0410  -12.8167   22.0456 N   0  0  0  0  0  0
  -25.4039  -15.1981   20.4177 N   0  0  0  0  0  0
  -31.6196  -15.3281   20.0794 O   0  0  0  0  0  0
  -21.6644   -6.8878   21.4238 O   0  0  0  0  0  0
  -22.3424  -14.5478   20.6731 O   0  0  0  0  0  0
  -24.6663  -31.8186   23.1648 C   0  0  0  0  0  0
  -25.9321  -32.4567   23.8141 C   0  0  1  0  0  0
  -27.2244  -26.8732   20.1939 C   0  0  0  0  0  0
  -25.5977  -33.8386   24.2045 N   0  0  0  0  0  0
  -23.4854  -30.4249   21.5154 C   0  0  2  0  0  0
  -24.9419  -28.7998   20.1109 C   0  0  0  0  0  0
  -22.7689  -29.4403   22.4769 C   0  0  0  0  0  0
  -18.0320  -28.1406   22.8475 C   0  0  0  0  0  0
  -24.1498  -36.7188   23.2647 C   0  0  0  0  0  0
  -26.0563  -30.6045   21.4068 C   0  0  0  0  0  0
  -26.1236  -29.1885   20.7524 C   0  0  0  0  0  0
  -27.2530  -28.2451   20.7721 C   0  0  0  0  0  0
  -26.0178  -26.6536   19.4897 C   0  0  0  0  0  0
  -24.9172  -27.5544   19.4590 C   0  0  0  0  0  0
  -23.7292  -29.7329   20.1444 C   0  0  0  0  0  0
  -25.4145  -36.2958   24.0294 C   0  0  1  0  0  0
  -20.5952  -28.3755   23.1187 C   0  0  2  0  0  0
  -20.6801  -26.9432   22.5412 C   0  0  0  0  0  0
  -19.5774  -26.6370   21.5225 C   0  0  0  0  0  0
  -18.1953  -26.7943   22.1625 C   0  0  0  0  0  0
  -19.1587  -28.8903   23.2818 C   0  0  0  0  0  0
  -18.9491  -30.1488   23.8857 C   0  0  0  0  0  0
  -17.6484  -30.6601   24.0548 C   0  0  0  0  0  0
  -25.9108  -34.9340   23.4997 C   0  0  0  0  0  0
  -16.5372  -29.9083   23.6341 C   0  0  0  0  0  0
  -16.7303  -28.6497   23.0379 C   0  0  0  0  0  0
  -26.4562  -31.6531   25.0688 C   0  0  0  0  0  0
  -25.3668  -31.3798   26.1331 C   0  0  0  0  0  0
  -27.0468  -30.2891   24.6462 C   0  0  0  0  0  0
  -27.6049  -32.4358   25.7492 C   0  0  0  0  0  0
  -27.5579  -37.1744   24.8461 C   0  0  0  0  0  0
  -21.4352  -29.3033   22.3525 N   0  0  0  0  0  0
  -26.4284  -37.3699   23.9410 N   0  0  0  0  0  0
  -24.7576  -30.9788   22.0818 N   0  0  0  0  0  0
  -23.4215  -28.7991   23.3045 O   0  0  0  0  0  0
  -28.2182  -25.7472   20.3272 O   0  0  0  0  0  0
  -26.5732  -34.8887   22.4602 O   0  0  0  0  0  0
  -23.5717  -32.1192   23.6695 O   0  0  0  0  0  0
  -30.7076  -19.7257   18.4004 C   0  0  0  0  0  0
  -30.5501  -18.4497   18.9873 C   0  0  0  0  0  0
  -30.0937  -20.9093   18.8868 C   0  0  0  0  0  0
  -29.2383  -20.8997   20.0158 C   0  0  0  0  0  0
  -29.7401  -18.2225   20.1122 C   0  0  0  0  0  0
  -30.4244  -22.2082   18.1709 C   0  0  0  0  0  0
  -28.7135  -22.4952   20.6237 C   0  0  0  0  0  0
  -28.1708  -24.1159   19.9180 C   0  0  0  0  0  0
  -29.1129  -19.5103   20.5719 N   0  0  0  0  0  0
  -29.6444  -16.6356   20.5171 N   0  0  0  0  0  0
  -31.4532  -13.0603   19.2159 H   0  0  0  0  0  0
  -30.5056  -11.9631   20.1655 H   0  0  0  0  0  0
  -29.9415  -11.7698   17.7149 H   0  0  0  0  0  0
  -29.5559  -13.4713   17.6527 H   0  0  0  0  0  0
  -28.0708  -11.2786   19.1215 H   0  0  0  0  0  0
  -27.4277  -12.3078   17.8680 H   0  0  0  0  0  0
  -27.5140  -14.2364   19.3043 H   0  0  0  0  0  0
  -28.8122  -12.5701   21.5138 H   0  0  0  0  0  0
  -28.2508  -14.2167   21.6795 H   0  0  0  0  0  0
  -25.2784   -9.5692   22.4736 H   0  0  0  0  0  0
  -24.0023   -7.4636   22.7461 H   0  0  0  0  0  0
  -21.0849   -8.8769   19.8944 H   0  0  0  0  0  0
  -22.3702  -10.9666   19.6150 H   0  0  0  0  0  0
  -21.2013   -7.6146   23.9713 H   0  0  0  0  0  0
  -21.1488   -6.0513   25.9072 H   0  0  0  0  0  0
  -22.0596   -2.7604   23.2837 H   0  0  0  0  0  0
  -22.4051  -11.9867   22.4898 H   0  0  0  0  0  0
  -21.1009  -13.1157   22.2632 H   0  0  0  0  0  0
  -24.6411  -15.8551   20.5388 H   0  0  0  0  0  0
  -26.2480  -15.6342   20.0708 H   0  0  0  0  0  0
  -26.7394  -32.5087   23.0857 H   0  0  0  0  0  0
  -25.0062  -33.9465   25.0156 H   0  0  0  0  0  0
  -22.8005  -31.2567   21.3379 H   0  0  0  0  0  0
  -23.3785  -35.9489   23.3268 H   0  0  0  0  0  0
  -24.3566  -36.8882   22.2066 H   0  0  0  0  0  0
  -23.7222  -37.6350   23.6735 H   0  0  0  0  0  0
  -26.2466  -31.3404   20.6252 H   0  0  0  0  0  0
  -26.9126  -30.6634   22.0661 H   0  0  0  0  0  0
  -28.1406  -28.5366   21.3159 H   0  0  0  0  0  0
  -25.8832  -25.7057   18.9909 H   0  0  0  0  0  0
  -24.0197  -27.2517   18.9369 H   0  0  0  0  0  0
  -23.8885  -30.4980   19.3841 H   0  0  0  0  0  0
  -22.8388  -29.1886   19.8266 H   0  0  0  0  0  0
  -25.1340  -36.1751   25.0781 H   0  0  0  0  0  0
  -21.0040  -28.3368   24.1311 H   0  0  0  0  0  0
  -20.5687  -26.2372   23.3656 H   0  0  0  0  0  0
  -21.6661  -26.7410   22.1213 H   0  0  0  0  0  0
  -19.6936  -25.6270   21.1281 H   0  0  0  0  0  0
  -19.6714  -27.3157   20.6737 H   0  0  0  0  0  0
  -17.4230  -26.6699   21.4018 H   0  0  0  0  0  0
  -18.0330  -26.0091   22.9022 H   0  0  0  0  0  0
  -19.7966  -30.7312   24.2222 H   0  0  0  0  0  0
  -17.5032  -31.6278   24.5154 H   0  0  0  0  0  0
  -15.5371  -30.2970   23.7687 H   0  0  0  0  0  0
  -15.8702  -28.0784   22.7141 H   0  0  0  0  0  0
  -24.5848  -30.7171   25.7611 H   0  0  0  0  0  0
  -24.8862  -32.3005   26.4642 H   0  0  0  0  0  0
  -25.7864  -30.9010   27.0186 H   0  0  0  0  0  0
  -26.3137  -29.6552   24.1461 H   0  0  0  0  0  0
  -27.3974  -29.7278   25.5134 H   0  0  0  0  0  0
  -27.9096  -30.4063   23.9903 H   0  0  0  0  0  0
  -27.2610  -33.3699   26.1951 H   0  0  0  0  0  0
  -28.3913  -32.6867   25.0358 H   0  0  0  0  0  0
  -28.0671  -31.8572   26.5504 H   0  0  0  0  0  0
  -28.2563  -38.0077   24.7545 H   0  0  0  0  0  0
  -28.1115  -36.2602   24.6251 H   0  0  0  0  0  0
  -27.2296  -37.1335   25.8864 H   0  0  0  0  0  0
  -20.9621  -29.8688   21.6614 H   0  0  0  0  0  0
  -26.0131  -38.2751   24.1443 H   0  0  0  0  0  0
  -31.3494  -19.7922   17.5333 H   0  0  0  0  0  0
  -31.0612  -17.6178   18.5242 H   0  0  0  0  0  0
  -31.2265  -22.0743   17.4446 H   0  0  0  0  0  0
  -30.7578  -22.9717   18.8741 H   0  0  0  0  0  0
  -29.5527  -22.5730   17.6288 H   0  0  0  0  0  0
  -29.5797  -22.7775   21.2221 H   0  0  0  0  0  0
  -27.9610  -22.2517   21.3730 H   0  0  0  0  0  0
  -27.1355  -23.9376   19.6309 H   0  0  0  0  0  0
  -28.6827  -24.1637   18.9608 H   0  0  0  0  0  0
  -28.7525  -16.4326   20.9402 H   0  0  0  0  0  0
  1 25  1  0  0  0
  1 30  2  0  0  0
  1 80  1  0  0  0
  2  3  1  0  0  0
  2 25  1  0  0  0
  2 81  1  0  0  0
  2 82  1  0  0  0
  3  4  1  0  0  0
  3 83  1  0  0  0
  3 84  1  0  0  0
  4  5  1  0  0  0
  4 85  1  0  0  0
  4 86  1  0  0  0
  5  6  1  0  0  0
  5 26  1  0  0  0
  5 87  1  0  0  0
  6 25  1  0  0  0
  6 88  1  0  0  0
  6 89  1  0  0  0
  7  8  2  0  0  0
  7 26  1  0  0  0
  7 29  1  0  0  0
  8  9  1  0  0  0
  8 22  1  0  0  0
  9 10  1  0  0  0
  9 27  2  0  0  0
 10 11  2  0  0  0
 10 15  1  0  0  0
 11 12  1  0  0  0
 11 90  1  0  0  0
 12 13  2  0  0  0
 12 91  1  0  0  0
 13 14  1  0  0  0
 13 31  1  0  0  0
 14 15  2  0  0  0
 14 92  1  0  0  0
 15 93  1  0  0  0
 16 17  2  0  0  0
 16 21  1  0  0  0
 16 31  1  0  0  0
 17 18  1  0  0  0
 17 94  1  0  0  0
 18 19  2  0  0  0
 18 95  1  0  0  0
 19 20  1  0  0  0
 19 24  1  0  0  0
 20 21  2  0  0  0
 20 96  1  0  0  0
 21 23  1  0  0  0
 22 28  1  0  0  0
 22 32  2  0  0  0
 26 27  1  0  0  0
 28 97  1  0  0  0
 28 98  1  0  0  0
 29 99  1  0  0  0
 29100  1  0  0  0
 33 34  1  0  0  0
 33 66  1  0  0  0
 33 70  2  0  0  0
 34 36  1  0  0  0
 34 59  1  0  0  0
 34101  1  0  0  0
 35 44  2  0  0  0
 35 45  1  0  0  0
 35 68  1  0  0  0
 36 56  1  0  0  0
 36102  1  0  0  0
 37 39  1  0  0  0
 37 47  1  0  0  0
 37 66  1  0  0  0
 37103  1  0  0  0
 38 43  2  0  0  0
 38 46  1  0  0  0
 38 47  1  0  0  0
 39 64  1  0  0  0
 39 67  2  0  0  0
 40 52  1  0  0  0
 40 53  2  0  0  0
 40 58  1  0  0  0
 41104  1  0  0  0
 41105  1  0  0  0
 41106  1  0  0  0
 41 48  1  0  0  0
 42 43  1  0  0  0
 42 66  1  0  0  0
 42107  1  0  0  0
 42108  1  0  0  0
 43 44  1  0  0  0
 44109  1  0  0  0
 45 46  2  0  0  0
 45110  1  0  0  0
 46111  1  0  0  0
 47112  1  0  0  0
 47113  1  0  0  0
 48 56  1  0  0  0
 48 65  1  0  0  0
 48114  1  0  0  0
 49 50  1  0  0  0
 49 53  1  0  0  0
 49 64  1  0  0  0
 49115  1  0  0  0
 50 51  1  0  0  0
 50116  1  0  0  0
 50117  1  0  0  0
 51 52  1  0  0  0
 51118  1  0  0  0
 51119  1  0  0  0
 52120  1  0  0  0
 52121  1  0  0  0
 53 54  1  0  0  0
 54 55  2  0  0  0
 54122  1  0  0  0
 55 57  1  0  0  0
 55123  1  0  0  0
 56 69  2  0  0  0
 57 58  2  0  0  0
 57124  1  0  0  0
 58125  1  0  0  0
 59 60  1  0  0  0
 59 61  1  0  0  0
 59 62  1  0  0  0
 60126  1  0  0  0
 60127  1  0  0  0
 60128  1  0  0  0
 61129  1  0  0  0
 61130  1  0  0  0
 61131  1  0  0  0
 62132  1  0  0  0
 62133  1  0  0  0
 62134  1  0  0  0
 63 65  1  0  0  0
 63135  1  0  0  0
 63136  1  0  0  0
 63137  1  0  0  0
 64138  1  0  0  0
 65139  1  0  0  0
 68 78  1  0  0  0
 71 72  2  0  0  0
 71 73  1  0  0  0
 71140  1  0  0  0
 72 75  1  0  0  0
 72141  1  0  0  0
 73 74  2  0  0  0
 73 76  1  0  0  0
 74 77  1  0  0  0
 74 79  1  0  0  0
 75 79  2  0  0  0
 75 80  1  0  0  0
 76142  1  0  0  0
 76143  1  0  0  0
 76144  1  0  0  0
 77 78  1  0  0  0
 77145  1  0  0  0
 77146  1  0  0  0
 78147  1  0  0  0
 78148  1  0  0  0
 80149  1  0  0  0
M  ISO  4   1 100  68 101  78 101  80 100
M  END
> <chiral flag>
0

> <version>
0

> <s_m_source_file>
/data/baiqing/PycharmProjects/Reinvent-master-3.2/result/LINK_invent/BTK/process_docking_weight1_custom_sum_contain_oxygen_bond_distance_aromatic_linkinvent_7_9_3/rearranged_h_0102.sdf

> <i_m_source_file_index>
13

> <r_mmod_Potential_Energy-OPLS-2005>
1352.8701171875

> <r_mmod_Stretch_Energy-OPLS-2005>
700.726135253906

> <r_mmod_Bend_Energy-OPLS-2005>
477.382720947266

> <r_mmod_Torsional_Energy-OPLS-2005>
226.558181762695

> <r_mmod_Improper_Torsional_Energy-OPLS-2005>
3.78092956542969

> <r_mmod_Van_der_Waal_Energy-OPLS-2005>
128.909805297852

> <r_mmod_Electrostatic_Energy-OPLS-2005>
-498.576843261719

> <r_mmod_Solvation_Energy-OPLS-2005>
-232.418334960938

> <b_mmod_Minimization_Converged-OPLS-2005>
0

> <r_mmod_RMS_Derivative-OPLS-2005>
1.32833874225616

$$$$
13
                    3D
 Structure written by MMmdl.
168176  0  0  1  0            999 V2000
  -30.6197  -14.7031   20.4606 C   0  0  0  0  0  0
  -30.4287  -12.4275   19.4667 C   0  0  0  0  0  0
  -29.5037  -12.4994   18.2318 C   0  0  0  0  0  0
  -28.0299  -12.3288   18.6469 C   0  0  0  0  0  0
  -27.6434  -13.2245   19.8540 C   0  0  2  0  0  0
  -28.6879  -13.1421   20.9894 C   0  0  0  0  0  0
  -25.2520  -13.8192   20.5678 C   0  0  0  0  0  0
  -24.1798  -13.0445   20.9199 C   0  0  0  0  0  0
  -24.6379  -11.6919   20.8748 C   0  0  0  0  0  0
  -23.9047  -10.4299   21.0412 C   0  0  0  0  0  0
  -24.3603   -9.4214   21.9187 C   0  0  0  0  0  0
  -23.6288   -8.2242   22.0752 C   0  0  0  0  0  0
  -22.4270   -8.0276   21.3542 C   0  0  0  0  0  0
  -21.9900   -9.0244   20.4641 C   0  0  0  0  0  0
  -22.7220  -10.2132   20.3061 C   0  0  0  0  0  0
  -21.6851   -6.0725   22.5273 C   0  0  0  0  0  0
  -21.4009   -6.5634   23.8202 C   0  0  0  0  0  0
  -21.3665   -5.6796   24.9170 C   0  0  0  0  0  0
  -21.6047   -4.3056   24.7227 C   0  0  0  0  0  0
  -21.8823   -3.8140   23.4350 C   0  0  0  0  0  0
  -21.9190   -4.6952   22.3402 C   0  0  0  0  0  0
  -22.7823  -13.5227   21.1866 C   0  0  0  0  0  0
  -22.1659   -4.2134   21.0981 F   0  0  0  0  0  0
  -21.5638   -3.4548   25.7743 F   0  0  0  0  0  0
  -29.9935  -13.4811   20.4108 N   0  0  0  0  0  0
  -26.2938  -12.9378   20.3292 N   0  0  0  0  0  0
  -25.9310  -11.6529   20.5763 N   0  0  0  0  0  0
  -22.0479  -12.8205   22.0424 N   0  0  0  0  0  0
  -25.4260  -15.1911   20.4067 N   0  0  0  0  0  0
  -31.8002  -14.8106   20.1189 O   0  0  0  0  0  0
  -21.6645   -6.8866   21.4233 O   0  0  0  0  0  0
  -22.3500  -14.5535   20.6722 O   0  0  0  0  0  0
  -24.6286  -31.8557   23.1973 C   0  0  0  0  0  0
  -25.9119  -32.4753   23.8315 C   0  0  1  0  0  0
  -27.2252  -27.2886   20.1342 C   0  0  0  0  0  0
  -25.5930  -33.8555   24.2238 N   0  0  0  0  0  0
  -23.4243  -30.4761   21.5409 C   0  0  2  0  0  0
  -24.8710  -28.9163   20.1173 C   0  0  0  0  0  0
  -22.7477  -29.4609   22.4923 C   0  0  0  0  0  0
  -18.0285  -28.1385   22.8478 C   0  0  0  0  0  0
  -24.1485  -36.7291   23.2641 C   0  0  0  0  0  0
  -25.9652  -30.7785   21.3694 C   0  0  0  0  0  0
  -26.0409  -29.4005   20.7168 C   0  0  0  0  0  0
  -27.2247  -28.6008   20.7064 C   0  0  0  0  0  0
  -26.0343  -26.8509   19.5224 C   0  0  0  0  0  0
  -24.8697  -27.6482   19.5110 C   0  0  0  0  0  0
  -23.6406  -29.8025   20.1596 C   0  0  0  0  0  0
  -25.4115  -36.3064   24.0316 C   0  0  1  0  0  0
  -20.5882  -28.3695   23.1270 C   0  0  2  0  0  0
  -20.6773  -26.9412   22.5411 C   0  0  0  0  0  0
  -19.5754  -26.6376   21.5209 C   0  0  0  0  0  0
  -18.1929  -26.7924   22.1617 C   0  0  0  0  0  0
  -19.1537  -28.8854   23.2868 C   0  0  0  0  0  0
  -18.9471  -30.1451   23.8889 C   0  0  0  0  0  0
  -17.6473  -30.6586   24.0560 C   0  0  0  0  0  0
  -25.9060  -34.9440   23.5081 C   0  0  0  0  0  0
  -16.5359  -29.9089   23.6332 C   0  0  0  0  0  0
  -16.7272  -28.6507   23.0350 C   0  0  0  0  0  0
  -26.4494  -31.6585   25.0705 C   0  0  0  0  0  0
  -25.3722  -31.3741   26.1435 C   0  0  0  0  0  0
  -27.0354  -30.3005   24.6193 C   0  0  0  0  0  0
  -27.6036  -32.4338   25.7492 C   0  0  0  0  0  0
  -27.5572  -37.1793   24.8461 C   0  0  0  0  0  0
  -21.4185  -29.3044   22.3656 N   0  0  0  0  0  0
  -26.4287  -37.3763   23.9405 N   0  0  0  0  0  0
  -24.6919  -31.0547   22.0932 N   0  0  0  0  0  0
  -23.4177  -28.8156   23.3024 O   0  0  0  0  0  0
  -28.3490  -26.4476   20.1127 O   0  0  0  0  0  0
  -26.5639  -34.8915   22.4651 O   0  0  0  0  0  0
  -23.5445  -32.1366   23.7296 O   0  0  0  0  0  0
  -28.9141  -21.0991   20.3801 C   0  0  0  0  0  0
  -30.5893  -22.7741   20.8544 C   0  0  0  0  0  0
  -29.2882  -22.4990   20.4104 C   0  0  0  0  0  0
  -29.7688  -20.0257   20.8628 C   0  0  0  0  0  0
  -31.4746  -21.7781   21.3276 C   0  0  0  0  0  0
  -31.0243  -20.4203   21.4246 C   0  0  0  0  0  0
  -31.8572  -19.3995   22.1972 C   0  0  0  0  0  0
  -32.3428  -22.5683   24.2219 C   0  0  0  0  0  0
  -33.5680  -22.9462   20.4884 C   0  0  0  0  0  0
  -28.4497  -23.7320   19.8547 C   0  0  0  0  0  0
  -29.3007  -18.4938   20.9003 C   0  0  0  0  0  0
  -30.2391  -17.2779   20.3783 C   0  0  0  0  0  0
  -28.2856  -25.0859   20.7218 C   0  0  0  0  0  0
  -32.8702  -23.2146   22.9327 C   0  0  2  0  0  0
  -32.8968  -22.2697   21.7030 C   0  0  1  0  0  0
  -29.8513  -15.8327   20.6690 N   0  0  0  0  0  0
  -34.0945  -23.6903   23.1744 F   0  0  0  0  0  0
  -33.7413  -21.2783   21.9905 F   0  0  0  0  0  0
  -31.4691  -12.5493   19.1602 H   0  0  0  0  0  0
  -30.3677  -11.4451   19.9374 H   0  0  0  0  0  0
  -29.7781  -11.7324   17.5060 H   0  0  0  0  0  0
  -29.6342  -13.4584   17.7279 H   0  0  0  0  0  0
  -27.8803  -11.2791   18.9024 H   0  0  0  0  0  0
  -27.3729  -12.5295   17.7998 H   0  0  0  0  0  0
  -27.6452  -14.2480   19.4796 H   0  0  0  0  0  0
  -28.7149  -12.1426   21.4254 H   0  0  0  0  0  0
  -28.4302  -13.8221   21.8027 H   0  0  0  0  0  0
  -25.2751   -9.5693   22.4757 H   0  0  0  0  0  0
  -23.9998   -7.4637   22.7474 H   0  0  0  0  0  0
  -21.0832   -8.8753   19.8949 H   0  0  0  0  0  0
  -22.3670  -10.9664   19.6168 H   0  0  0  0  0  0
  -21.1997   -7.6143   23.9693 H   0  0  0  0  0  0
  -21.1490   -6.0535   25.9069 H   0  0  0  0  0  0
  -22.0599   -2.7601   23.2860 H   0  0  0  0  0  0
  -22.4099  -11.9861   22.4795 H   0  0  0  0  0  0
  -21.1100  -13.1220   22.2650 H   0  0  0  0  0  0
  -24.6643  -15.8526   20.5119 H   0  0  0  0  0  0
  -26.2746  -15.6198   20.0609 H   0  0  0  0  0  0
  -26.7192  -32.5410   23.1066 H   0  0  0  0  0  0
  -25.0036  -33.9690   25.0354 H   0  0  0  0  0  0
  -22.7203  -31.2976   21.3918 H   0  0  0  0  0  0
  -23.3735  -35.9637   23.3306 H   0  0  0  0  0  0
  -24.3569  -36.8927   22.2057 H   0  0  0  0  0  0
  -23.7260  -37.6498   23.6680 H   0  0  0  0  0  0
  -26.0938  -31.5381   20.5969 H   0  0  0  0  0  0
  -26.8450  -30.8319   21.9991 H   0  0  0  0  0  0
  -28.1288  -28.9726   21.1664 H   0  0  0  0  0  0
  -26.0039  -25.8786   19.0517 H   0  0  0  0  0  0
  -23.9726  -27.2699   19.0402 H   0  0  0  0  0  0
  -23.7650  -30.5743   19.3988 H   0  0  0  0  0  0
  -22.7583  -29.2352   19.8583 H   0  0  0  0  0  0
  -25.1295  -36.1903   25.0807 H   0  0  0  0  0  0
  -20.9979  -28.3284   24.1392 H   0  0  0  0  0  0
  -20.5676  -26.2303   23.3614 H   0  0  0  0  0  0
  -21.6643  -26.7444   22.1207 H   0  0  0  0  0  0
  -19.6927  -25.6286   21.1245 H   0  0  0  0  0  0
  -19.6701  -27.3182   20.6728 H   0  0  0  0  0  0
  -17.4201  -26.6666   21.4015 H   0  0  0  0  0  0
  -18.0336  -26.0064   22.9017 H   0  0  0  0  0  0
  -19.7953  -30.7250   24.2267 H   0  0  0  0  0  0
  -17.5040  -31.6273   24.5152 H   0  0  0  0  0  0
  -15.5362  -30.2992   23.7667 H   0  0  0  0  0  0
  -15.8667  -28.0825   22.7073 H   0  0  0  0  0  0
  -24.5899  -30.7093   25.7760 H   0  0  0  0  0  0
  -24.8911  -32.2912   26.4844 H   0  0  0  0  0  0
  -25.8033  -30.8931   27.0223 H   0  0  0  0  0  0
  -26.2943  -29.6732   24.1227 H   0  0  0  0  0  0
  -27.4054  -29.7290   25.4715 H   0  0  0  0  0  0
  -27.8801  -30.4279   23.9415 H   0  0  0  0  0  0
  -27.2638  -33.3644   26.2051 H   0  0  0  0  0  0
  -28.3861  -32.6898   25.0337 H   0  0  0  0  0  0
  -28.0688  -31.8483   26.5431 H   0  0  0  0  0  0
  -28.2581  -38.0096   24.7499 H   0  0  0  0  0  0
  -28.1070  -36.2619   24.6292 H   0  0  0  0  0  0
  -27.2284  -37.1455   25.8864 H   0  0  0  0  0  0
  -20.9369  -29.8765   21.6863 H   0  0  0  0  0  0
  -26.0156  -38.2836   24.1413 H   0  0  0  0  0  0
  -27.9390  -20.8425   19.9876 H   0  0  0  0  0  0
  -30.9272  -23.7988   20.8145 H   0  0  0  0  0  0
  -31.2633  -18.5809   22.5967 H   0  0  0  0  0  0
  -32.3008  -19.8464   23.0852 H   0  0  0  0  0  0
  -32.6559  -18.9940   21.5743 H   0  0  0  0  0  0
  -31.3181  -22.2178   24.0991 H   0  0  0  0  0  0
  -32.3456  -23.2841   25.0431 H   0  0  0  0  0  0
  -32.9578  -21.7189   24.5192 H   0  0  0  0  0  0
  -33.0463  -23.8454   20.1639 H   0  0  0  0  0  0
  -33.6064  -22.2619   19.6408 H   0  0  0  0  0  0
  -34.5939  -23.2391   20.7131 H   0  0  0  0  0  0
  -27.4605  -23.3798   19.5617 H   0  0  0  0  0  0
  -28.9364  -24.0097   18.9204 H   0  0  0  0  0  0
  -28.3556  -18.4347   20.3590 H   0  0  0  0  0  0
  -29.0355  -18.2856   21.9370 H   0  0  0  0  0  0
  -31.2563  -17.3859   20.7423 H   0  0  0  0  0  0
  -30.3305  -17.3729   19.2961 H   0  0  0  0  0  0
  -29.0993  -25.1006   21.4465 H   0  0  0  0  0  0
  -27.3933  -24.9996   21.3439 H   0  0  0  0  0  0
  -32.2635  -24.0925   22.7086 H   0  0  0  0  0  0
  -28.8886  -15.6686   20.9235 H   0  0  0  0  0  0
  1 25  1  0  0  0
  1 30  2  0  0  0
  1 86  1  0  0  0
  2  3  1  0  0  0
  2 25  1  0  0  0
  2 89  1  0  0  0
  2 90  1  0  0  0
  3  4  1  0  0  0
  3 91  1  0  0  0
  3 92  1  0  0  0
  4  5  1  0  0  0
  4 93  1  0  0  0
  4 94  1  0  0  0
  5  6  1  0  0  0
  5 26  1  0  0  0
  5 95  1  0  0  0
  6 25  1  0  0  0
  6 96  1  0  0  0
  6 97  1  0  0  0
  7  8  2  0  0  0
  7 26  1  0  0  0
  7 29  1  0  0  0
  8  9  1  0  0  0
  8 22  1  0  0  0
  9 10  1  0  0  0
  9 27  2  0  0  0
 10 11  2  0  0  0
 10 15  1  0  0  0
 11 12  1  0  0  0
 11 98  1  0  0  0
 12 13  2  0  0  0
 12 99  1  0  0  0
 13 14  1  0  0  0
 13 31  1  0  0  0
 14 15  2  0  0  0
 14100  1  0  0  0
 15101  1  0  0  0
 16 17  2  0  0  0
 16 21  1  0  0  0
 16 31  1  0  0  0
 17 18  1  0  0  0
 17102  1  0  0  0
 18 19  2  0  0  0
 18103  1  0  0  0
 19 20  1  0  0  0
 19 24  1  0  0  0
 20 21  2  0  0  0
 20104  1  0  0  0
 21 23  1  0  0  0
 22 28  1  0  0  0
 22 32  2  0  0  0
 26 27  1  0  0  0
 28105  1  0  0  0
 28106  1  0  0  0
 29107  1  0  0  0
 29108  1  0  0  0
 33 34  1  0  0  0
 33 66  1  0  0  0
 33 70  2  0  0  0
 34 36  1  0  0  0
 34 59  1  0  0  0
 34109  1  0  0  0
 35 44  2  0  0  0
 35 45  1  0  0  0
 35 68  1  0  0  0
 36 56  1  0  0  0
 36110  1  0  0  0
 37 39  1  0  0  0
 37 47  1  0  0  0
 37 66  1  0  0  0
 37111  1  0  0  0
 38 43  2  0  0  0
 38 46  1  0  0  0
 38 47  1  0  0  0
 39 64  1  0  0  0
 39 67  2  0  0  0
 40 52  1  0  0  0
 40 53  2  0  0  0
 40 58  1  0  0  0
 41112  1  0  0  0
 41113  1  0  0  0
 41114  1  0  0  0
 41 48  1  0  0  0
 42 43  1  0  0  0
 42 66  1  0  0  0
 42115  1  0  0  0
 42116  1  0  0  0
 43 44  1  0  0  0
 44117  1  0  0  0
 45 46  2  0  0  0
 45118  1  0  0  0
 46119  1  0  0  0
 47120  1  0  0  0
 47121  1  0  0  0
 48 56  1  0  0  0
 48 65  1  0  0  0
 48122  1  0  0  0
 49 50  1  0  0  0
 49 53  1  0  0  0
 49 64  1  0  0  0
 49123  1  0  0  0
 50 51  1  0  0  0
 50124  1  0  0  0
 50125  1  0  0  0
 51 52  1  0  0  0
 51126  1  0  0  0
 51127  1  0  0  0
 52128  1  0  0  0
 52129  1  0  0  0
 53 54  1  0  0  0
 54 55  2  0  0  0
 54130  1  0  0  0
 55 57  1  0  0  0
 55131  1  0  0  0
 56 69  2  0  0  0
 57 58  2  0  0  0
 57132  1  0  0  0
 58133  1  0  0  0
 59 60  1  0  0  0
 59 61  1  0  0  0
 59 62  1  0  0  0
 60134  1  0  0  0
 60135  1  0  0  0
 60136  1  0  0  0
 61137  1  0  0  0
 61138  1  0  0  0
 61139  1  0  0  0
 62140  1  0  0  0
 62141  1  0  0  0
 62142  1  0  0  0
 63 65  1  0  0  0
 63143  1  0  0  0
 63144  1  0  0  0
 63145  1  0  0  0
 64146  1  0  0  0
 65147  1  0  0  0
 68 83  1  0  0  0
 71 73  2  0  0  0
 71 74  1  0  0  0
 71148  1  0  0  0
 72 73  1  0  0  0
 72 75  2  0  0  0
 72149  1  0  0  0
 73 80  1  0  0  0
 74 76  2  0  0  0
 74 81  1  0  0  0
 75 76  1  0  0  0
 75 85  1  0  0  0
 76 77  1  0  0  0
 77150  1  0  0  0
 77151  1  0  0  0
 77152  1  0  0  0
 78153  1  0  0  0
 78154  1  0  0  0
 78155  1  0  0  0
 78 84  1  0  0  0
 79156  1  0  0  0
 79157  1  0  0  0
 79158  1  0  0  0
 79 85  1  0  0  0
 80 83  1  0  0  0
 80159  1  0  0  0
 80160  1  0  0  0
 81 82  1  0  0  0
 81161  1  0  0  0
 81162  1  0  0  0
 82 86  1  0  0  0
 82163  1  0  0  0
 82164  1  0  0  0
 83165  1  0  0  0
 83166  1  0  0  0
 84 85  1  0  0  0
 84 87  1  0  0  0
 84167  1  0  0  0
 85 88  1  0  0  0
 86168  1  0  0  0
M  ISO  4   1 100  68 101  83 101  86 100
M  END
> <chiral flag>
0

> <version>
0

> <s_m_source_file>
/data/baiqing/PycharmProjects/Reinvent-master-3.2/result/LINK_invent/BTK/process_docking_weight1_custom_sum_contain_oxygen_bond_distance_aromatic_linkinvent_7_9_3/rearranged_h_0102.sdf

> <i_m_source_file_index>
14

> <r_mmod_Potential_Energy-OPLS-2005>
166.667022705078

> <r_mmod_Stretch_Energy-OPLS-2005>
117.366996765137

> <r_mmod_Bend_Energy-OPLS-2005>
164.48030090332

> <r_mmod_Torsional_Energy-OPLS-2005>
238.110717773438

> <r_mmod_Improper_Torsional_Energy-OPLS-2005>
6.40802049636841

> <r_mmod_Van_der_Waal_Energy-OPLS-2005>
150.722961425781

> <r_mmod_Electrostatic_Energy-OPLS-2005>
-370.458068847656

> <r_mmod_Solvation_Energy-OPLS-2005>
-205.512725830078

> <b_mmod_Minimization_Converged-OPLS-2005>
0

> <r_mmod_RMS_Derivative-OPLS-2005>
1.3714052438736

$$$$
14
                    3D
 Structure written by MMmdl.
183191  0  0  1  0            999 V2000
  -30.6662  -14.7202   20.5709 C   0  0  0  0  0  0
  -30.4285  -12.4624   19.4842 C   0  0  0  0  0  0
  -29.5096  -12.5287   18.2459 C   0  0  0  0  0  0
  -28.0373  -12.3471   18.6576 C   0  0  0  0  0  0
  -27.6496  -13.2356   19.8689 C   0  0  2  0  0  0
  -28.6912  -13.1484   21.0083 C   0  0  0  0  0  0
  -25.2465  -13.8119   20.5531 C   0  0  0  0  0  0
  -24.1790  -13.0396   20.9170 C   0  0  0  0  0  0
  -24.6420  -11.6891   20.8781 C   0  0  0  0  0  0
  -23.9088  -10.4276   21.0427 C   0  0  0  0  0  0
  -24.3625   -9.4186   21.9204 C   0  0  0  0  0  0
  -23.6293   -8.2227   22.0760 C   0  0  0  0  0  0
  -22.4277   -8.0279   21.3543 C   0  0  0  0  0  0
  -21.9925   -9.0256   20.4643 C   0  0  0  0  0  0
  -22.7264  -10.2127   20.3063 C   0  0  0  0  0  0
  -21.6842   -6.0740   22.5281 C   0  0  0  0  0  0
  -21.4004   -6.5638   23.8217 C   0  0  0  0  0  0
  -21.3649   -5.6792   24.9173 C   0  0  0  0  0  0
  -21.6038   -4.3057   24.7227 C   0  0  0  0  0  0
  -21.8821   -3.8149   23.4349 C   0  0  0  0  0  0
  -21.9189   -4.6968   22.3402 C   0  0  0  0  0  0
  -22.7815  -13.5196   21.1851 C   0  0  0  0  0  0
  -22.1661   -4.2161   21.0983 F   0  0  0  0  0  0
  -21.5626   -3.4536   25.7736 F   0  0  0  0  0  0
  -30.0007  -13.5120   20.4478 N   0  0  0  0  0  0
  -26.2987  -12.9388   20.3372 N   0  0  0  0  0  0
  -25.9375  -11.6529   20.5861 N   0  0  0  0  0  0
  -22.0463  -12.8202   22.0420 N   0  0  0  0  0  0
  -25.4009  -15.1759   20.3584 N   0  0  0  0  0  0
  -31.7483  -14.8336   19.9821 O   0  0  0  0  0  0
  -21.6622   -6.8882   21.4241 O   0  0  0  0  0  0
  -22.3509  -14.5516   20.6712 O   0  0  0  0  0  0
  -24.6307  -31.8557   23.2013 C   0  0  0  0  0  0
  -25.9128  -32.4762   23.8368 C   0  0  1  0  0  0
  -27.2224  -27.2651   20.1428 C   0  0  0  0  0  0
  -25.5920  -33.8568   24.2289 N   0  0  0  0  0  0
  -23.4280  -30.4783   21.5451 C   0  0  2  0  0  0
  -24.8778  -28.9269   20.1157 C   0  0  0  0  0  0
  -22.7514  -29.4581   22.4925 C   0  0  0  0  0  0
  -18.0296  -28.1376   22.8475 C   0  0  0  0  0  0
  -24.1458  -36.7252   23.2646 C   0  0  0  0  0  0
  -25.9752  -30.7700   21.3834 C   0  0  0  0  0  0
  -26.0501  -29.3934   20.7257 C   0  0  0  0  0  0
  -27.2271  -28.5777   20.7244 C   0  0  0  0  0  0
  -26.0322  -26.8728   19.4892 C   0  0  0  0  0  0
  -24.8746  -27.6739   19.4853 C   0  0  0  0  0  0
  -23.6494  -29.8155   20.1605 C   0  0  0  0  0  0
  -25.4100  -36.3078   24.0336 C   0  0  1  0  0  0
  -20.5905  -28.3675   23.1251 C   0  0  2  0  0  0
  -20.6773  -26.9383   22.5396 C   0  0  0  0  0  0
  -19.5734  -26.6364   21.5194 C   0  0  0  0  0  0
  -18.1916  -26.7914   22.1613 C   0  0  0  0  0  0
  -19.1559  -28.8848   23.2846 C   0  0  0  0  0  0
  -18.9486  -30.1453   23.8849 C   0  0  0  0  0  0
  -17.6489  -30.6572   24.0565 C   0  0  0  0  0  0
  -25.9046  -34.9447   23.5119 C   0  0  0  0  0  0
  -16.5379  -29.9065   23.6346 C   0  0  0  0  0  0
  -16.7291  -28.6495   23.0341 C   0  0  0  0  0  0
  -26.4494  -31.6600   25.0768 C   0  0  0  0  0  0
  -25.3703  -31.3729   26.1479 C   0  0  0  0  0  0
  -27.0409  -30.3044   24.6273 C   0  0  0  0  0  0
  -27.6053  -32.4372   25.7521 C   0  0  0  0  0  0
  -27.5559  -37.1780   24.8479 C   0  0  0  0  0  0
  -21.4228  -29.3022   22.3654 N   0  0  0  0  0  0
  -26.4268  -37.3794   23.9436 N   0  0  0  0  0  0
  -24.6969  -31.0524   22.1000 N   0  0  0  0  0  0
  -23.4202  -28.8109   23.3024 O   0  0  0  0  0  0
  -28.3121  -26.3675   20.1794 O   0  0  0  0  0  0
  -26.5624  -34.8904   22.4691 O   0  0  0  0  0  0
  -23.5459  -32.1414   23.7289 O   0  0  0  0  0  0
  -27.9542  -17.1096   21.3976 C   0  0  0  0  0  0
  -27.6377  -19.4779   20.9579 C   0  0  0  0  0  0
  -27.1087  -18.2357   21.3522 C   0  0  0  0  0  0
  -29.3248  -17.2108   21.0879 C   0  0  0  0  0  0
  -29.0111  -19.6103   20.6742 C   0  0  0  0  0  0
  -31.1456  -17.1645   23.6502 C   0  0  0  0  0  0
  -31.9351  -20.5392   19.3797 C   0  0  0  0  0  0
  -23.5964  -19.6577   24.7325 C   0  0  0  0  0  0
  -22.7782  -19.3217   22.3709 C   0  0  0  0  0  0
  -28.8528  -22.3009   22.3298 C   0  0  0  0  0  0
  -25.6506  -18.1202   21.7739 C   0  0  0  0  0  0
  -31.4799  -16.4465   22.3291 C   0  0  0  0  0  0
  -31.0778  -21.2219   20.4599 C   0  0  0  0  0  0
  -25.2659  -19.0743   22.9197 C   0  0  0  0  0  0
  -29.0762  -23.7223   20.2683 C   0  0  0  0  0  0
  -28.0497  -24.9391   20.5904 C   0  0  0  0  0  0
  -30.2463  -15.9630   21.5177 C   0  0  2  0  0  0
  -29.5434  -21.0732   20.2558 C   0  0  2  0  0  0
  -23.8174  -18.8919   23.4206 C   0  0  0  0  0  0
  -29.8212  -18.4664   20.7188 N   0  0  0  0  0  0
  -28.7967  -22.3028   20.8445 N   0  3  1  0  0  0
  -31.4708  -12.5685   19.1793 H   0  0  0  0  0  0
  -30.3699  -11.4786   19.9527 H   0  0  0  0  0  0
  -29.7933  -11.7607   17.5246 H   0  0  0  0  0  0
  -29.6395  -13.4873   17.7420 H   0  0  0  0  0  0
  -27.8954  -11.2959   18.9130 H   0  0  0  0  0  0
  -27.3786  -12.5487   17.8113 H   0  0  0  0  0  0
  -27.6529  -14.2644   19.5070 H   0  0  0  0  0  0
  -28.7253  -12.1394   21.4223 H   0  0  0  0  0  0
  -28.3996  -13.7960   21.8328 H   0  0  0  0  0  0
  -25.2765   -9.5652   22.4791 H   0  0  0  0  0  0
  -23.9991   -7.4608   22.7479 H   0  0  0  0  0  0
  -21.0859   -8.8782   19.8941 H   0  0  0  0  0  0
  -22.3740  -10.9670   19.6175 H   0  0  0  0  0  0
  -21.1994   -7.6147   23.9728 H   0  0  0  0  0  0
  -21.1460   -6.0515   25.9083 H   0  0  0  0  0  0
  -22.0607   -2.7617   23.2842 H   0  0  0  0  0  0
  -22.4067  -11.9857   22.4805 H   0  0  0  0  0  0
  -21.1098  -13.1244   22.2638 H   0  0  0  0  0  0
  -24.6132  -15.8094   20.4183 H   0  0  0  0  0  0
  -26.2499  -15.6236   20.0369 H   0  0  0  0  0  0
  -26.7197  -32.5442   23.1119 H   0  0  0  0  0  0
  -25.0094  -33.9726   25.0453 H   0  0  0  0  0  0
  -22.7252  -31.3033   21.4018 H   0  0  0  0  0  0
  -23.3746  -35.9549   23.3319 H   0  0  0  0  0  0
  -24.3538  -36.8886   22.2057 H   0  0  0  0  0  0
  -23.7180  -37.6437   23.6676 H   0  0  0  0  0  0
  -26.1186  -31.5324   20.6157 H   0  0  0  0  0  0
  -26.8494  -30.8194   22.0210 H   0  0  0  0  0  0
  -28.1271  -28.9335   21.2058 H   0  0  0  0  0  0
  -25.9798  -25.9263   18.9722 H   0  0  0  0  0  0
  -23.9816  -27.3180   18.9898 H   0  0  0  0  0  0
  -23.7810  -30.5963   19.4102 H   0  0  0  0  0  0
  -22.7665  -29.2538   19.8494 H   0  0  0  0  0  0
  -25.1274  -36.1927   25.0830 H   0  0  0  0  0  0
  -20.9996  -28.3243   24.1369 H   0  0  0  0  0  0
  -20.5642  -26.2287   23.3611 H   0  0  0  0  0  0
  -21.6633  -26.7375   22.1198 H   0  0  0  0  0  0
  -19.6869  -25.6263   21.1247 H   0  0  0  0  0  0
  -19.6646  -27.3157   20.6701 H   0  0  0  0  0  0
  -17.4179  -26.6668   21.4018 H   0  0  0  0  0  0
  -18.0302  -26.0046   22.9004 H   0  0  0  0  0  0
  -19.7975  -30.7297   24.2149 H   0  0  0  0  0  0
  -17.5055  -31.6246   24.5179 H   0  0  0  0  0  0
  -15.5377  -30.2966   23.7699 H   0  0  0  0  0  0
  -15.8689  -28.0844   22.7021 H   0  0  0  0  0  0
  -24.5855  -30.7118   25.7787 H   0  0  0  0  0  0
  -24.8884  -32.2874   26.4938 H   0  0  0  0  0  0
  -25.7980  -30.8867   27.0256 H   0  0  0  0  0  0
  -26.3043  -29.6734   24.1287 H   0  0  0  0  0  0
  -27.4139  -29.7358   25.4806 H   0  0  0  0  0  0
  -27.8869  -30.4391   23.9534 H   0  0  0  0  0  0
  -27.2683  -33.3712   26.2037 H   0  0  0  0  0  0
  -28.3846  -32.6898   25.0315 H   0  0  0  0  0  0
  -28.0729  -31.8552   26.5473 H   0  0  0  0  0  0
  -28.2586  -38.0067   24.7573 H   0  0  0  0  0  0
  -28.1060  -36.2621   24.6276 H   0  0  0  0  0  0
  -27.2289  -37.1401   25.8882 H   0  0  0  0  0  0
  -20.9423  -29.8803   21.6907 H   0  0  0  0  0  0
  -26.0141  -38.2858   24.1490 H   0  0  0  0  0  0
  -27.5592  -16.1702   21.7594 H   0  0  0  0  0  0
  -26.9746  -20.3272   20.8967 H   0  0  0  0  0  0
  -32.0580  -17.4804   24.1563 H   0  0  0  0  0  0
  -30.6023  -16.5091   24.3320 H   0  0  0  0  0  0
  -30.5380  -18.0550   23.4865 H   0  0  0  0  0  0
  -32.9903  -20.7784   19.5181 H   0  0  0  0  0  0
  -31.6485  -20.8715   18.3808 H   0  0  0  0  0  0
  -31.8441  -19.4540   19.4063 H   0  0  0  0  0  0
  -22.5940  -19.4882   25.1275 H   0  0  0  0  0  0
  -23.7198  -20.7318   24.5911 H   0  0  0  0  0  0
  -24.3033  -19.3414   25.5008 H   0  0  0  0  0  0
  -21.7626  -19.2170   22.7551 H   0  0  0  0  0  0
  -22.8385  -18.7146   21.4680 H   0  0  0  0  0  0
  -22.9147  -20.3644   22.0809 H   0  0  0  0  0  0
  -28.1667  -23.0273   22.7631 H   0  0  0  0  0  0
  -29.8572  -22.5411   22.6808 H   0  0  0  0  0  0
  -28.5815  -21.3322   22.7502 H   0  0  0  0  0  0
  -25.4576  -17.1034   22.1133 H   0  0  0  0  0  0
  -25.0254  -18.2850   20.8969 H   0  0  0  0  0  0
  -32.1225  -15.5976   22.5669 H   0  0  0  0  0  0
  -32.0815  -17.1053   21.7013 H   0  0  0  0  0  0
  -31.3569  -22.2726   20.4334 H   0  0  0  0  0  0
  -31.3611  -20.8680   21.4517 H   0  0  0  0  0  0
  -25.4226  -20.1105   22.6207 H   0  0  0  0  0  0
  -25.9521  -18.8927   23.7484 H   0  0  0  0  0  0
  -30.0625  -24.0391   20.6083 H   0  0  0  0  0  0
  -29.1510  -23.6351   19.1844 H   0  0  0  0  0  0
  -27.9291  -24.9936   21.6721 H   0  0  0  0  0  0
  -27.0783  -24.6102   20.2278 H   0  0  0  0  0  0
  -29.6535  -15.4671   22.2827 H   0  0  0  0  0  0
  -29.3510  -21.1350   19.1829 H   0  0  0  0  0  0
  -23.6588  -17.8336   23.6359 H   0  0  0  0  0  0
  -27.8330  -22.1062   20.6147 H   0  0  0  0  0  0
  1 25  1  0  0  0
  1 30  2  0  0  0
  1 87  1  0  0  0
  2  3  1  0  0  0
  2 25  1  0  0  0
  2 92  1  0  0  0
  2 93  1  0  0  0
  3  4  1  0  0  0
  3 94  1  0  0  0
  3 95  1  0  0  0
  4  5  1  0  0  0
  4 96  1  0  0  0
  4 97  1  0  0  0
  5  6  1  0  0  0
  5 26  1  0  0  0
  5 98  1  0  0  0
  6 25  1  0  0  0
  6 99  1  0  0  0
  6100  1  0  0  0
  7  8  2  0  0  0
  7 26  1  0  0  0
  7 29  1  0  0  0
  8  9  1  0  0  0
  8 22  1  0  0  0
  9 10  1  0  0  0
  9 27  2  0  0  0
 10 11  2  0  0  0
 10 15  1  0  0  0
 11 12  1  0  0  0
 11101  1  0  0  0
 12 13  2  0  0  0
 12102  1  0  0  0
 13 14  1  0  0  0
 13 31  1  0  0  0
 14 15  2  0  0  0
 14103  1  0  0  0
 15104  1  0  0  0
 16 17  2  0  0  0
 16 21  1  0  0  0
 16 31  1  0  0  0
 17 18  1  0  0  0
 17105  1  0  0  0
 18 19  2  0  0  0
 18106  1  0  0  0
 19 20  1  0  0  0
 19 24  1  0  0  0
 20 21  2  0  0  0
 20107  1  0  0  0
 21 23  1  0  0  0
 22 28  1  0  0  0
 22 32  2  0  0  0
 26 27  1  0  0  0
 28108  1  0  0  0
 28109  1  0  0  0
 29110  1  0  0  0
 29111  1  0  0  0
 33 34  1  0  0  0
 33 66  1  0  0  0
 33 70  2  0  0  0
 34 36  1  0  0  0
 34 59  1  0  0  0
 34112  1  0  0  0
 35 44  2  0  0  0
 35 45  1  0  0  0
 35 68  1  0  0  0
 36 56  1  0  0  0
 36113  1  0  0  0
 37 39  1  0  0  0
 37 47  1  0  0  0
 37 66  1  0  0  0
 37114  1  0  0  0
 38 43  2  0  0  0
 38 46  1  0  0  0
 38 47  1  0  0  0
 39 64  1  0  0  0
 39 67  2  0  0  0
 40 52  1  0  0  0
 40 53  2  0  0  0
 40 58  1  0  0  0
 41115  1  0  0  0
 41116  1  0  0  0
 41117  1  0  0  0
 41 48  1  0  0  0
 42 43  1  0  0  0
 42 66  1  0  0  0
 42118  1  0  0  0
 42119  1  0  0  0
 43 44  1  0  0  0
 44120  1  0  0  0
 45 46  2  0  0  0
 45121  1  0  0  0
 46122  1  0  0  0
 47123  1  0  0  0
 47124  1  0  0  0
 48 56  1  0  0  0
 48 65  1  0  0  0
 48125  1  0  0  0
 49 50  1  0  0  0
 49 53  1  0  0  0
 49 64  1  0  0  0
 49126  1  0  0  0
 50 51  1  0  0  0
 50127  1  0  0  0
 50128  1  0  0  0
 51 52  1  0  0  0
 51129  1  0  0  0
 51130  1  0  0  0
 52131  1  0  0  0
 52132  1  0  0  0
 53 54  1  0  0  0
 54 55  2  0  0  0
 54133  1  0  0  0
 55 57  1  0  0  0
 55134  1  0  0  0
 56 69  2  0  0  0
 57 58  2  0  0  0
 57135  1  0  0  0
 58136  1  0  0  0
 59 60  1  0  0  0
 59 61  1  0  0  0
 59 62  1  0  0  0
 60137  1  0  0  0
 60138  1  0  0  0
 60139  1  0  0  0
 61140  1  0  0  0
 61141  1  0  0  0
 61142  1  0  0  0
 62143  1  0  0  0
 62144  1  0  0  0
 62145  1  0  0  0
 63 65  1  0  0  0
 63146  1  0  0  0
 63147  1  0  0  0
 63148  1  0  0  0
 64149  1  0  0  0
 65150  1  0  0  0
 68 86  1  0  0  0
 71 73  2  0  0  0
 71 74  1  0  0  0
 71151  1  0  0  0
 72 73  1  0  0  0
 72 75  2  0  0  0
 72152  1  0  0  0
 73 81  1  0  0  0
 74 87  1  0  0  0
 74 90  2  0  0  0
 75 88  1  0  0  0
 75 90  1  0  0  0
 76 82  1  0  0  0
 76153  1  0  0  0
 76154  1  0  0  0
 76155  1  0  0  0
 77 83  1  0  0  0
 77156  1  0  0  0
 77157  1  0  0  0
 77158  1  0  0  0
 78159  1  0  0  0
 78160  1  0  0  0
 78161  1  0  0  0
 78 89  1  0  0  0
 79 89  1  0  0  0
 79162  1  0  0  0
 79163  1  0  0  0
 79164  1  0  0  0
 80165  1  0  0  0
 80166  1  0  0  0
 80167  1  0  0  0
 80 91  1  0  0  0
 81 84  1  0  0  0
 81168  1  0  0  0
 81169  1  0  0  0
 82170  1  0  0  0
 82171  1  0  0  0
 82 87  1  0  0  0
 83172  1  0  0  0
 83173  1  0  0  0
 83 88  1  0  0  0
 84 89  1  0  0  0
 84174  1  0  0  0
 84175  1  0  0  0
 85 86  1  0  0  0
 85 91  1  0  0  0
 85176  1  0  0  0
 85177  1  0  0  0
 86178  1  0  0  0
 86179  1  0  0  0
 87180  1  0  0  0
 88 91  1  0  0  0
 88181  1  0  0  0
 89182  1  0  0  0
 91183  1  0  0  0
M  CHG  1  91   1
M  ISO  4   1 100  68 101  86 101  87 100
M  END
> <chiral flag>
0

> <version>
0

> <s_m_source_file>
/data/baiqing/PycharmProjects/Reinvent-master-3.2/result/LINK_invent/BTK/process_docking_weight1_custom_sum_contain_oxygen_bond_distance_aromatic_linkinvent_7_9_3/rearranged_h_0102.sdf

> <i_m_source_file_index>
15

> <r_mmod_Potential_Energy-OPLS-2005>
126.047843933105

> <r_mmod_Stretch_Energy-OPLS-2005>
147.879196166992

> <r_mmod_Bend_Energy-OPLS-2005>
205.66291809082

> <r_mmod_Torsional_Energy-OPLS-2005>
214.152786254883

> <r_mmod_Improper_Torsional_Energy-OPLS-2005>
5.11387538909912

> <r_mmod_Van_der_Waal_Energy-OPLS-2005>
136.050277709961

> <r_mmod_Electrostatic_Energy-OPLS-2005>
-256.494293212891

> <r_mmod_Solvation_Energy-OPLS-2005>
-403.237274169922

> <b_mmod_Minimization_Converged-OPLS-2005>
0

> <r_mmod_RMS_Derivative-OPLS-2005>
2.39137196540833

$$$$
15
                    3D
 Structure written by MMmdl.
170178  0  0  1  0            999 V2000
  -30.6469  -14.7308   20.6139 C   0  0  0  0  0  0
  -30.4342  -12.4832   19.4892 C   0  0  0  0  0  0
  -29.5222  -12.5543   18.2437 C   0  0  0  0  0  0
  -28.0467  -12.3657   18.6349 C   0  0  0  0  0  0
  -27.6477  -13.2330   19.8554 C   0  0  2  0  0  0
  -28.6737  -13.1308   21.0000 C   0  0  0  0  0  0
  -25.2532  -13.8208   20.5632 C   0  0  0  0  0  0
  -24.1809  -13.0440   20.9209 C   0  0  0  0  0  0
  -24.6414  -11.6939   20.8762 C   0  0  0  0  0  0
  -23.9078  -10.4297   21.0423 C   0  0  0  0  0  0
  -24.3642   -9.4220   21.9200 C   0  0  0  0  0  0
  -23.6311   -8.2258   22.0765 C   0  0  0  0  0  0
  -22.4295   -8.0309   21.3547 C   0  0  0  0  0  0
  -21.9929   -9.0278   20.4645 C   0  0  0  0  0  0
  -22.7256  -10.2160   20.3050 C   0  0  0  0  0  0
  -21.6885   -6.0759   22.5266 C   0  0  0  0  0  0
  -21.4025   -6.5645   23.8201 C   0  0  0  0  0  0
  -21.3652   -5.6786   24.9159 C   0  0  0  0  0  0
  -21.6051   -4.3051   24.7225 C   0  0  0  0  0  0
  -21.8810   -3.8157   23.4340 C   0  0  0  0  0  0
  -21.9196   -4.6980   22.3399 C   0  0  0  0  0  0
  -22.7838  -13.5262   21.1867 C   0  0  0  0  0  0
  -22.1669   -4.2161   21.0988 F   0  0  0  0  0  0
  -21.5628   -3.4532   25.7742 F   0  0  0  0  0  0
  -29.9926  -13.5147   20.4661 N   0  0  0  0  0  0
  -26.2943  -12.9398   20.3200 N   0  0  0  0  0  0
  -25.9323  -11.6542   20.5667 N   0  0  0  0  0  0
  -22.0480  -12.8223   22.0435 N   0  0  0  0  0  0
  -25.4146  -15.1915   20.4094 N   0  0  0  0  0  0
  -31.7336  -14.8927   20.0469 O   0  0  0  0  0  0
  -21.6652   -6.8910   21.4232 O   0  0  0  0  0  0
  -22.3489  -14.5540   20.6726 O   0  0  0  0  0  0
  -24.6327  -31.8571   23.2053 C   0  0  0  0  0  0
  -25.9160  -32.4761   23.8351 C   0  0  1  0  0  0
  -27.2703  -27.3052   20.0992 C   0  0  0  0  0  0
  -25.5930  -33.8572   24.2277 N   0  0  0  0  0  0
  -23.4321  -30.4756   21.5594 C   0  0  2  0  0  0
  -24.8737  -28.9033   20.1373 C   0  0  0  0  0  0
  -22.7471  -29.4648   22.5059 C   0  0  0  0  0  0
  -18.0293  -28.1377   22.8479 C   0  0  0  0  0  0
  -24.1469  -36.7324   23.2647 C   0  0  0  0  0  0
  -25.9680  -30.7756   21.3702 C   0  0  0  0  0  0
  -26.0449  -29.3989   20.7160 C   0  0  0  0  0  0
  -27.2394  -28.6162   20.6834 C   0  0  0  0  0  0
  -26.0647  -26.8593   19.5077 C   0  0  0  0  0  0
  -24.8846  -27.6320   19.5370 C   0  0  0  0  0  0
  -23.6414  -29.7925   20.1857 C   0  0  0  0  0  0
  -25.4100  -36.3139   24.0353 C   0  0  1  0  0  0
  -20.5880  -28.3764   23.1270 C   0  0  2  0  0  0
  -20.6807  -26.9564   22.5304 C   0  0  0  0  0  0
  -19.5775  -26.6454   21.5109 C   0  0  0  0  0  0
  -18.1964  -26.7960   22.1610 C   0  0  0  0  0  0
  -19.1540  -28.8851   23.2881 C   0  0  0  0  0  0
  -18.9480  -30.1390   23.8997 C   0  0  0  0  0  0
  -17.6515  -30.6562   24.0664 C   0  0  0  0  0  0
  -25.9035  -34.9484   23.5142 C   0  0  0  0  0  0
  -16.5440  -29.9089   23.6359 C   0  0  0  0  0  0
  -16.7292  -28.6495   23.0336 C   0  0  0  0  0  0
  -26.4481  -31.6613   25.0774 C   0  0  0  0  0  0
  -25.3666  -31.3761   26.1471 C   0  0  0  0  0  0
  -27.0289  -30.3036   24.6238 C   0  0  0  0  0  0
  -27.6040  -32.4360   25.7509 C   0  0  0  0  0  0
  -27.5579  -37.1825   24.8466 C   0  0  0  0  0  0
  -21.4160  -29.3204   22.3749 N   0  0  0  0  0  0
  -26.4292  -37.3845   23.9413 N   0  0  0  0  0  0
  -24.6983  -31.0506   22.1057 N   0  0  0  0  0  0
  -23.4125  -28.8087   23.3114 O   0  0  0  0  0  0
  -28.4254  -26.4907   20.1659 O   0  0  0  0  0  0
  -26.5631  -34.8972   22.4733 O   0  0  0  0  0  0
  -23.5487  -32.1403   23.7362 O   0  0  0  0  0  0
  -29.6675  -19.8579   20.2061 C   0  0  0  0  0  0
  -27.6224  -20.9336   20.8560 C   0  0  0  0  0  0
  -28.8639  -21.0660   20.2294 C   0  0  0  0  0  0
  -29.3150  -18.6661   20.9660 C   0  0  0  0  0  0
  -28.1693  -18.8792   21.7992 C   0  0  0  0  0  0
  -28.5952  -22.0037   24.2761 C   0  0  0  0  0  0
  -26.8038  -17.4047   23.3948 C   0  0  0  0  0  0
  -29.9269  -15.5178   22.7558 C   0  0  0  0  0  0
  -29.1432  -22.4625   19.5362 C   0  0  0  0  0  0
  -30.2064  -17.3026   20.9191 C   0  0  0  0  0  0
  -29.1087  -20.5663   24.0959 C   0  0  0  0  0  0
  -28.9399  -23.8280   20.3751 C   0  0  0  0  0  0
  -28.0274  -19.4641   24.2813 C   0  0  0  0  0  0
  -28.5665  -25.1450   19.5322 C   0  0  0  0  0  0
  -28.0261  -18.3256   23.2167 C   0  0  2  0  0  0
  -27.2721  -19.8673   21.5867 N   0  0  0  0  0  0
  -30.0439  -15.7951   21.3019 N   0  0  0  0  0  0
  -31.4776  -12.6180   19.1978 H   0  0  0  0  0  0
  -30.3794  -11.4887   19.9368 H   0  0  0  0  0  0
  -29.8164  -11.7959   17.5191 H   0  0  0  0  0  0
  -29.6489  -13.5176   17.7471 H   0  0  0  0  0  0
  -27.8950  -11.3133   18.8593 H   0  0  0  0  0  0
  -27.3945  -12.5838   17.7887 H   0  0  0  0  0  0
  -27.6554  -14.2655   19.5120 H   0  0  0  0  0  0
  -28.7034  -12.1198   21.4073 H   0  0  0  0  0  0
  -28.3305  -13.7624   21.8166 H   0  0  0  0  0  0
  -25.2808   -9.5709   22.4763 H   0  0  0  0  0  0
  -24.0043   -7.4647   22.7475 H   0  0  0  0  0  0
  -21.0865   -8.8811   19.8940 H   0  0  0  0  0  0
  -22.3734  -10.9722   19.6167 H   0  0  0  0  0  0
  -21.2002   -7.6154   23.9715 H   0  0  0  0  0  0
  -21.1486   -6.0522   25.9067 H   0  0  0  0  0  0
  -22.0594   -2.7628   23.2835 H   0  0  0  0  0  0
  -22.4103  -11.9931   22.4875 H   0  0  0  0  0  0
  -21.1084  -13.1216   22.2590 H   0  0  0  0  0  0
  -24.6385  -15.8355   20.5067 H   0  0  0  0  0  0
  -26.2603  -15.6488   20.0935 H   0  0  0  0  0  0
  -26.7209  -32.5356   23.1067 H   0  0  0  0  0  0
  -25.0039  -33.9656   25.0390 H   0  0  0  0  0  0
  -22.7327  -31.3030   21.4127 H   0  0  0  0  0  0
  -23.3768  -35.9625   23.3328 H   0  0  0  0  0  0
  -24.3532  -36.8932   22.2052 H   0  0  0  0  0  0
  -23.7158  -37.6522   23.6622 H   0  0  0  0  0  0
  -26.0990  -31.5256   20.5887 H   0  0  0  0  0  0
  -26.8550  -30.8308   21.9912 H   0  0  0  0  0  0
  -28.1374  -29.0249   21.1262 H   0  0  0  0  0  0
  -26.0007  -25.8896   19.0437 H   0  0  0  0  0  0
  -23.9770  -27.2220   19.1106 H   0  0  0  0  0  0
  -23.7524  -30.5744   19.4306 H   0  0  0  0  0  0
  -22.7600  -29.2309   19.8807 H   0  0  0  0  0  0
  -25.1258  -36.2040   25.0844 H   0  0  0  0  0  0
  -20.9866  -28.3230   24.1385 H   0  0  0  0  0  0
  -20.5832  -26.2422   23.3456 H   0  0  0  0  0  0
  -21.6737  -26.7711   22.1178 H   0  0  0  0  0  0
  -19.6950  -25.6392   21.1083 H   0  0  0  0  0  0
  -19.6613  -27.3240   20.6637 H   0  0  0  0  0  0
  -17.4177  -26.6667   21.4048 H   0  0  0  0  0  0
  -18.0503  -26.0086   22.9021 H   0  0  0  0  0  0
  -19.8024  -30.7127   24.2415 H   0  0  0  0  0  0
  -17.5194  -31.6257   24.5291 H   0  0  0  0  0  0
  -15.5450  -30.3046   23.7657 H   0  0  0  0  0  0
  -15.8717  -28.0809   22.7030 H   0  0  0  0  0  0
  -24.5873  -30.7076   25.7805 H   0  0  0  0  0  0
  -24.8778  -32.2904   26.4851 H   0  0  0  0  0  0
  -25.7937  -30.8974   27.0290 H   0  0  0  0  0  0
  -26.2852  -29.6844   24.1224 H   0  0  0  0  0  0
  -27.3938  -29.7240   25.4721 H   0  0  0  0  0  0
  -27.8743  -30.4338   23.9490 H   0  0  0  0  0  0
  -27.2682  -33.3708   26.2025 H   0  0  0  0  0  0
  -28.3844  -32.6881   25.0312 H   0  0  0  0  0  0
  -28.0732  -31.8539   26.5452 H   0  0  0  0  0  0
  -28.2639  -38.0095   24.7535 H   0  0  0  0  0  0
  -28.1032  -36.2626   24.6265 H   0  0  0  0  0  0
  -27.2270  -37.1465   25.8868 H   0  0  0  0  0  0
  -20.9288  -29.9245   21.7275 H   0  0  0  0  0  0
  -26.0210  -38.2952   24.1399 H   0  0  0  0  0  0
  -30.5670  -19.8434   19.6108 H   0  0  0  0  0  0
  -26.9013  -21.7317   20.8026 H   0  0  0  0  0  0
  -29.4073  -22.7173   24.1377 H   0  0  0  0  0  0
  -28.1684  -22.1635   25.2667 H   0  0  0  0  0  0
  -27.8263  -22.2436   23.5399 H   0  0  0  0  0  0
  -26.7825  -16.5982   22.6629 H   0  0  0  0  0  0
  -25.8688  -17.9578   23.2976 H   0  0  0  0  0  0
  -26.7948  -16.9483   24.3833 H   0  0  0  0  0  0
  -30.6263  -16.1061   23.3554 H   0  0  0  0  0  0
  -30.1612  -14.4829   23.0159 H   0  0  0  0  0  0
  -28.9158  -15.6863   23.1187 H   0  0  0  0  0  0
  -28.4250  -22.5192   18.7185 H   0  0  0  0  0  0
  -30.1121  -22.4703   19.0310 H   0  0  0  0  0  0
  -30.6089  -17.6150   21.8803 H   0  0  0  0  0  0
  -29.1794  -17.0254   20.6770 H   0  0  0  0  0  0
  -29.9367  -20.3724   24.7724 H   0  0  0  0  0  0
  -29.5645  -20.5352   23.1083 H   0  0  0  0  0  0
  -29.8741  -24.0111   20.9076 H   0  0  0  0  0  0
  -28.1955  -23.7046   21.1687 H   0  0  0  0  0  0
  -27.0362  -19.9298   24.2957 H   0  0  0  0  0  0
  -28.1383  -19.0199   25.2718 H   0  0  0  0  0  0
  -27.7276  -24.8960   18.8877 H   0  0  0  0  0  0
  -29.4070  -25.2774   18.8513 H   0  0  0  0  0  0
  -28.9324  -17.7802   23.4421 H   0  0  0  0  0  0
  1 25  1  0  0  0
  1 30  2  0  0  0
  1 87  1  0  0  0
  2  3  1  0  0  0
  2 25  1  0  0  0
  2 88  1  0  0  0
  2 89  1  0  0  0
  3  4  1  0  0  0
  3 90  1  0  0  0
  3 91  1  0  0  0
  4  5  1  0  0  0
  4 92  1  0  0  0
  4 93  1  0  0  0
  5  6  1  0  0  0
  5 26  1  0  0  0
  5 94  1  0  0  0
  6 25  1  0  0  0
  6 95  1  0  0  0
  6 96  1  0  0  0
  7  8  2  0  0  0
  7 26  1  0  0  0
  7 29  1  0  0  0
  8  9  1  0  0  0
  8 22  1  0  0  0
  9 10  1  0  0  0
  9 27  2  0  0  0
 10 11  2  0  0  0
 10 15  1  0  0  0
 11 12  1  0  0  0
 11 97  1  0  0  0
 12 13  2  0  0  0
 12 98  1  0  0  0
 13 14  1  0  0  0
 13 31  1  0  0  0
 14 15  2  0  0  0
 14 99  1  0  0  0
 15100  1  0  0  0
 16 17  2  0  0  0
 16 21  1  0  0  0
 16 31  1  0  0  0
 17 18  1  0  0  0
 17101  1  0  0  0
 18 19  2  0  0  0
 18102  1  0  0  0
 19 20  1  0  0  0
 19 24  1  0  0  0
 20 21  2  0  0  0
 20103  1  0  0  0
 21 23  1  0  0  0
 22 28  1  0  0  0
 22 32  2  0  0  0
 26 27  1  0  0  0
 28104  1  0  0  0
 28105  1  0  0  0
 29106  1  0  0  0
 29107  1  0  0  0
 33 34  1  0  0  0
 33 66  1  0  0  0
 33 70  2  0  0  0
 34 36  1  0  0  0
 34 59  1  0  0  0
 34108  1  0  0  0
 35 44  2  0  0  0
 35 45  1  0  0  0
 35 68  1  0  0  0
 36 56  1  0  0  0
 36109  1  0  0  0
 37 39  1  0  0  0
 37 47  1  0  0  0
 37 66  1  0  0  0
 37110  1  0  0  0
 38 43  2  0  0  0
 38 46  1  0  0  0
 38 47  1  0  0  0
 39 64  1  0  0  0
 39 67  2  0  0  0
 40 52  1  0  0  0
 40 53  2  0  0  0
 40 58  1  0  0  0
 41111  1  0  0  0
 41112  1  0  0  0
 41113  1  0  0  0
 41 48  1  0  0  0
 42 43  1  0  0  0
 42 66  1  0  0  0
 42114  1  0  0  0
 42115  1  0  0  0
 43 44  1  0  0  0
 44116  1  0  0  0
 45 46  2  0  0  0
 45117  1  0  0  0
 46118  1  0  0  0
 47119  1  0  0  0
 47120  1  0  0  0
 48 56  1  0  0  0
 48 65  1  0  0  0
 48121  1  0  0  0
 49 50  1  0  0  0
 49 53  1  0  0  0
 49 64  1  0  0  0
 49122  1  0  0  0
 50 51  1  0  0  0
 50123  1  0  0  0
 50124  1  0  0  0
 51 52  1  0  0  0
 51125  1  0  0  0
 51126  1  0  0  0
 52127  1  0  0  0
 52128  1  0  0  0
 53 54  1  0  0  0
 54 55  2  0  0  0
 54129  1  0  0  0
 55 57  1  0  0  0
 55130  1  0  0  0
 56 69  2  0  0  0
 57 58  2  0  0  0
 57131  1  0  0  0
 58132  1  0  0  0
 59 60  1  0  0  0
 59 61  1  0  0  0
 59 62  1  0  0  0
 60133  1  0  0  0
 60134  1  0  0  0
 60135  1  0  0  0
 61136  1  0  0  0
 61137  1  0  0  0
 61138  1  0  0  0
 62139  1  0  0  0
 62140  1  0  0  0
 62141  1  0  0  0
 63 65  1  0  0  0
 63142  1  0  0  0
 63143  1  0  0  0
 63144  1  0  0  0
 64145  1  0  0  0
 65146  1  0  0  0
 68 84  1  0  0  0
 71 73  2  0  0  0
 71 74  1  0  0  0
 71147  1  0  0  0
 72 73  1  0  0  0
 72 86  2  0  0  0
 72148  1  0  0  0
 73 79  1  0  0  0
 74 75  2  0  0  0
 74 80  1  0  0  0
 75 85  1  0  0  0
 75 86  1  0  0  0
 76 81  1  0  0  0
 76149  1  0  0  0
 76150  1  0  0  0
 76151  1  0  0  0
 77152  1  0  0  0
 77153  1  0  0  0
 77154  1  0  0  0
 77 85  1  0  0  0
 78 87  1  0  0  0
 78155  1  0  0  0
 78156  1  0  0  0
 78157  1  0  0  0
 79 82  1  0  0  0
 79158  1  0  0  0
 79159  1  0  0  0
 80 87  1  0  0  0
 80160  1  0  0  0
 80161  1  0  0  0
 81 83  1  0  0  0
 81162  1  0  0  0
 81163  1  0  0  0
 82 84  1  0  0  0
 82164  1  0  0  0
 82165  1  0  0  0
 83 85  1  0  0  0
 83166  1  0  0  0
 83167  1  0  0  0
 84168  1  0  0  0
 84169  1  0  0  0
 85170  1  0  0  0
M  ISO  4   1 100  68 101  84 101  87 100
M  END
> <chiral flag>
0

> <version>
0

> <s_m_source_file>
/data/baiqing/PycharmProjects/Reinvent-master-3.2/result/LINK_invent/BTK/process_docking_weight1_custom_sum_contain_oxygen_bond_distance_aromatic_linkinvent_7_9_3/rearranged_h_0102.sdf

> <i_m_source_file_index>
16

> <r_mmod_Potential_Energy-OPLS-2005>
480.889739990234

> <r_mmod_Stretch_Energy-OPLS-2005>
141.932510375977

> <r_mmod_Bend_Energy-OPLS-2005>
415.951110839844

> <r_mmod_Torsional_Energy-OPLS-2005>
301.398132324219

> <r_mmod_Improper_Torsional_Energy-OPLS-2005>
8.34000110626221

> <r_mmod_Van_der_Waal_Energy-OPLS-2005>
157.653564453125

> <r_mmod_Electrostatic_Energy-OPLS-2005>
-412.799591064453

> <r_mmod_Solvation_Energy-OPLS-2005>
-199.55339050293

> <b_mmod_Minimization_Converged-OPLS-2005>
0

> <r_mmod_RMS_Derivative-OPLS-2005>
9.76282501220703

$$$$
16
                    3D
 Structure written by MMmdl.
170178  0  0  1  0            999 V2000
  -30.7297  -14.6722   20.5164 C   0  0  0  0  0  0
  -30.4387  -12.4125   19.4759 C   0  0  0  0  0  0
  -29.5327  -12.4854   18.2292 C   0  0  0  0  0  0
  -28.0620  -12.2714   18.6294 C   0  0  0  0  0  0
  -27.6529  -13.1797   19.8183 C   0  0  2  0  0  0
  -28.6937  -13.1757   20.9662 C   0  0  0  0  0  0
  -25.2627  -13.7982   20.5624 C   0  0  0  0  0  0
  -24.1869  -13.0345   20.9132 C   0  0  0  0  0  0
  -24.6420  -11.6817   20.8686 C   0  0  0  0  0  0
  -23.9087  -10.4249   21.0386 C   0  0  0  0  0  0
  -24.3659   -9.4179   21.9162 C   0  0  0  0  0  0
  -23.6300   -8.2247   22.0800 C   0  0  0  0  0  0
  -22.4278   -8.0304   21.3579 C   0  0  0  0  0  0
  -21.9897   -9.0270   20.4674 C   0  0  0  0  0  0
  -22.7266  -10.2115   20.3028 C   0  0  0  0  0  0
  -21.6844   -6.0767   22.5291 C   0  0  0  0  0  0
  -21.4013   -6.5668   23.8232 C   0  0  0  0  0  0
  -21.3632   -5.6799   24.9166 C   0  0  0  0  0  0
  -21.6044   -4.3062   24.7193 C   0  0  0  0  0  0
  -21.8826   -3.8178   23.4298 C   0  0  0  0  0  0
  -21.9188   -4.7001   22.3375 C   0  0  0  0  0  0
  -22.7900  -13.5227   21.1783 C   0  0  0  0  0  0
  -22.1662   -4.2216   21.0934 F   0  0  0  0  0  0
  -21.5625   -3.4526   25.7684 F   0  0  0  0  0  0
  -30.0224  -13.4891   20.4129 N   0  0  0  0  0  0
  -26.2997  -12.9139   20.3029 N   0  0  0  0  0  0
  -25.9311  -11.6345   20.5601 N   0  0  0  0  0  0
  -22.0495  -12.8293   22.0328 N   0  0  0  0  0  0
  -25.4201  -15.1695   20.4198 N   0  0  0  0  0  0
  -31.8638  -14.7431   20.0437 O   0  0  0  0  0  0
  -21.6656   -6.8904   21.4249 O   0  0  0  0  0  0
  -22.3623  -14.5537   20.6587 O   0  0  0  0  0  0
  -24.6277  -31.8558   23.2050 C   0  0  0  0  0  0
  -25.9065  -32.4808   23.8469 C   0  0  1  0  0  0
  -27.2555  -27.2872   20.1474 C   0  0  0  0  0  0
  -25.5854  -33.8612   24.2368 N   0  0  0  0  0  0
  -23.4367  -30.4740   21.5418 C   0  0  2  0  0  0
  -24.8945  -28.9239   20.1222 C   0  0  0  0  0  0
  -22.7549  -29.4564   22.4901 C   0  0  0  0  0  0
  -18.0282  -28.1373   22.8483 C   0  0  0  0  0  0
  -24.1438  -36.7292   23.2651 C   0  0  0  0  0  0
  -25.9823  -30.7788   21.3852 C   0  0  0  0  0  0
  -26.0633  -29.4017   20.7292 C   0  0  0  0  0  0
  -27.2453  -28.5991   20.7267 C   0  0  0  0  0  0
  -26.0592  -26.8717   19.5141 C   0  0  0  0  0  0
  -24.8969  -27.6630   19.5058 C   0  0  0  0  0  0
  -23.6666  -29.8061   20.1592 C   0  0  0  0  0  0
  -25.4063  -36.3125   24.0371 C   0  0  1  0  0  0
  -20.5899  -28.3664   23.1276 C   0  0  2  0  0  0
  -20.6738  -26.9373   22.5401 C   0  0  0  0  0  0
  -19.5715  -26.6350   21.5197 C   0  0  0  0  0  0
  -18.1906  -26.7918   22.1623 C   0  0  0  0  0  0
  -19.1546  -28.8841   23.2874 C   0  0  0  0  0  0
  -18.9443  -30.1435   23.8902 C   0  0  0  0  0  0
  -17.6433  -30.6566   24.0549 C   0  0  0  0  0  0
  -25.8989  -34.9478   23.5175 C   0  0  0  0  0  0
  -16.5327  -29.9050   23.6324 C   0  0  0  0  0  0
  -16.7264  -28.6467   23.0363 C   0  0  0  0  0  0
  -26.4427  -31.6673   25.0865 C   0  0  0  0  0  0
  -25.3692  -31.3795   26.1637 C   0  0  0  0  0  0
  -27.0275  -30.3105   24.6364 C   0  0  0  0  0  0
  -27.6011  -32.4427   25.7598 C   0  0  0  0  0  0
  -27.5569  -37.1803   24.8476 C   0  0  0  0  0  0
  -21.4246  -29.3025   22.3707 N   0  0  0  0  0  0
  -26.4268  -37.3797   23.9438 N   0  0  0  0  0  0
  -24.7030  -31.0549   22.1008 N   0  0  0  0  0  0
  -23.4241  -28.8071   23.2985 O   0  0  0  0  0  0
  -28.3703  -26.4188   20.2065 O   0  0  0  0  0  0
  -26.5564  -34.8929   22.4740 O   0  0  0  0  0  0
  -23.5410  -32.1368   23.7292 O   0  0  0  0  0  0
  -29.3475  -19.7133   20.6727 C   0  0  0  0  0  0
  -31.1788  -21.2501   20.7480 C   0  0  0  0  0  0
  -29.7874  -21.0827   20.7355 C   0  0  0  0  0  0
  -30.2444  -18.5793   20.5411 C   0  0  0  0  0  0
  -31.6131  -18.9418   20.5437 C   0  0  0  0  0  0
  -32.7192  -17.9270   20.3288 C   0  0  0  0  0  0
  -26.3001  -18.3293   19.0175 C   0  0  0  0  0  0
  -27.5418  -16.6278   17.6324 C   0  0  0  0  0  0
  -30.1906  -16.0593   22.4542 C   0  0  0  0  0  0
  -28.7911  -22.3208   20.7904 C   0  0  0  0  0  0
  -29.2637  -23.8355   20.5031 C   0  0  0  0  0  0
  -28.2326  -17.0427   20.0546 C   0  0  0  0  0  0
  -28.1096  -24.9568   20.3964 C   0  0  0  0  0  0
  -29.7665  -17.0780   20.1999 C   0  0  2  0  0  0
  -27.6659  -17.6683   18.7619 C   0  0  0  0  0  0
  -32.0514  -20.2213   20.6665 N   0  0  0  0  0  0
  -30.1332  -15.8284   21.0117 N   0  0  0  0  0  0
  -31.4860  -12.4935   19.1732 H   0  0  0  0  0  0
  -30.3488  -11.4347   19.9520 H   0  0  0  0  0  0
  -29.8373  -11.7400   17.4909 H   0  0  0  0  0  0
  -29.6513  -13.4562   17.7454 H   0  0  0  0  0  0
  -27.9370  -11.2196   18.8858 H   0  0  0  0  0  0
  -27.4115  -12.4495   17.7711 H   0  0  0  0  0  0
  -27.6313  -14.1593   19.3658 H   0  0  0  0  0  0
  -28.7104  -12.2014   21.4570 H   0  0  0  0  0  0
  -28.4068  -13.9016   21.7257 H   0  0  0  0  0  0
  -25.2845   -9.5712   22.4662 H   0  0  0  0  0  0
  -24.0009   -7.4677   22.7582 H   0  0  0  0  0  0
  -21.0801   -8.8821   19.9014 H   0  0  0  0  0  0
  -22.3750  -10.9643   19.6122 H   0  0  0  0  0  0
  -21.2039   -7.6183   23.9731 H   0  0  0  0  0  0
  -21.1423   -6.0533   25.9066 H   0  0  0  0  0  0
  -22.0629   -2.7647   23.2764 H   0  0  0  0  0  0
  -22.4079  -11.9943   22.4717 H   0  0  0  0  0  0
  -21.1138  -13.1436   22.2553 H   0  0  0  0  0  0
  -24.6376  -15.7998   20.5615 H   0  0  0  0  0  0
  -26.2557  -15.6333   20.0968 H   0  0  0  0  0  0
  -26.7155  -32.5475   23.1263 H   0  0  0  0  0  0
  -25.0072  -33.9783   25.0568 H   0  0  0  0  0  0
  -22.7312  -31.2934   21.3846 H   0  0  0  0  0  0
  -23.3734  -35.9584   23.3317 H   0  0  0  0  0  0
  -24.3543  -36.8890   22.2064 H   0  0  0  0  0  0
  -23.7129  -37.6481   23.6644 H   0  0  0  0  0  0
  -26.1209  -31.5341   20.6109 H   0  0  0  0  0  0
  -26.8612  -30.8369   22.0190 H   0  0  0  0  0  0
  -28.1406  -28.9620   21.2164 H   0  0  0  0  0  0
  -25.9825  -25.9143   19.0218 H   0  0  0  0  0  0
  -24.0038  -27.2850   19.0289 H   0  0  0  0  0  0
  -23.8011  -30.5812   19.4034 H   0  0  0  0  0  0
  -22.7892  -29.2375   19.8494 H   0  0  0  0  0  0
  -25.1217  -36.2048   25.0865 H   0  0  0  0  0  0
  -20.9970  -28.3171   24.1406 H   0  0  0  0  0  0
  -20.5568  -26.2245   23.3587 H   0  0  0  0  0  0
  -21.6603  -26.7322   22.1236 H   0  0  0  0  0  0
  -19.6837  -25.6248   21.1244 H   0  0  0  0  0  0
  -19.6672  -27.3142   20.6721 H   0  0  0  0  0  0
  -17.4162  -26.6668   21.4042 H   0  0  0  0  0  0
  -18.0297  -26.0071   22.9034 H   0  0  0  0  0  0
  -19.7903  -30.7259   24.2295 H   0  0  0  0  0  0
  -17.4962  -31.6262   24.5119 H   0  0  0  0  0  0
  -15.5321  -30.2929   23.7640 H   0  0  0  0  0  0
  -15.8669  -28.0758   22.7098 H   0  0  0  0  0  0
  -24.5839  -30.7139   25.8037 H   0  0  0  0  0  0
  -24.8875  -32.2915   26.5178 H   0  0  0  0  0  0
  -25.8053  -30.8961   27.0395 H   0  0  0  0  0  0
  -26.2884  -29.6913   24.1260 H   0  0  0  0  0  0
  -27.3807  -29.7339   25.4934 H   0  0  0  0  0  0
  -27.8837  -30.4419   23.9738 H   0  0  0  0  0  0
  -27.2661  -33.3752   26.2175 H   0  0  0  0  0  0
  -28.3799  -32.6975   25.0391 H   0  0  0  0  0  0
  -28.0719  -31.8577   26.5521 H   0  0  0  0  0  0
  -28.2601  -38.0087   24.7521 H   0  0  0  0  0  0
  -28.1051  -36.2628   24.6293 H   0  0  0  0  0  0
  -27.2310  -37.1461   25.8884 H   0  0  0  0  0  0
  -20.9410  -29.8867   21.7037 H   0  0  0  0  0  0
  -26.0185  -38.2886   24.1442 H   0  0  0  0  0  0
  -28.2848  -19.5664   20.6837 H   0  0  0  0  0  0
  -31.6109  -22.2387   20.8141 H   0  0  0  0  0  0
  -33.6924  -18.4180   20.2803 H   0  0  0  0  0  0
  -32.5782  -17.3971   19.3901 H   0  0  0  0  0  0
  -32.7544  -17.1956   21.1359 H   0  0  0  0  0  0
  -25.8812  -18.7411   18.0988 H   0  0  0  0  0  0
  -26.3624  -19.1446   19.7353 H   0  0  0  0  0  0
  -25.5832  -17.6199   19.4228 H   0  0  0  0  0  0
  -27.2838  -17.1040   16.6863 H   0  0  0  0  0  0
  -26.7599  -15.9007   17.8475 H   0  0  0  0  0  0
  -28.4675  -16.0795   17.4737 H   0  0  0  0  0  0
  -29.1880  -16.2453   22.8347 H   0  0  0  0  0  0
  -30.8041  -16.9279   22.6900 H   0  0  0  0  0  0
  -30.6068  -15.2070   23.0009 H   0  0  0  0  0  0
  -28.3266  -22.3044   21.7794 H   0  0  0  0  0  0
  -27.9883  -22.0819   20.0916 H   0  0  0  0  0  0
  -29.8179  -23.8381   19.5636 H   0  0  0  0  0  0
  -29.9873  -24.1215   21.2685 H   0  0  0  0  0  0
  -27.7859  -17.4796   20.9485 H   0  0  0  0  0  0
  -27.9013  -16.0188   20.1030 H   0  0  0  0  0  0
  -27.4845  -24.8812   21.2885 H   0  0  0  0  0  0
  -27.4921  -24.6125   19.5711 H   0  0  0  0  0  0
  -30.1824  -16.8914   19.2071 H   0  0  0  0  0  0
  -28.3480  -18.4475   18.4109 H   0  0  0  0  0  0
  1 25  1  0  0  0
  1 30  2  0  0  0
  1 87  1  0  0  0
  2  3  1  0  0  0
  2 25  1  0  0  0
  2 88  1  0  0  0
  2 89  1  0  0  0
  3  4  1  0  0  0
  3 90  1  0  0  0
  3 91  1  0  0  0
  4  5  1  0  0  0
  4 92  1  0  0  0
  4 93  1  0  0  0
  5  6  1  0  0  0
  5 26  1  0  0  0
  5 94  1  0  0  0
  6 25  1  0  0  0
  6 95  1  0  0  0
  6 96  1  0  0  0
  7  8  2  0  0  0
  7 26  1  0  0  0
  7 29  1  0  0  0
  8  9  1  0  0  0
  8 22  1  0  0  0
  9 10  1  0  0  0
  9 27  2  0  0  0
 10 11  2  0  0  0
 10 15  1  0  0  0
 11 12  1  0  0  0
 11 97  1  0  0  0
 12 13  2  0  0  0
 12 98  1  0  0  0
 13 14  1  0  0  0
 13 31  1  0  0  0
 14 15  2  0  0  0
 14 99  1  0  0  0
 15100  1  0  0  0
 16 17  2  0  0  0
 16 21  1  0  0  0
 16 31  1  0  0  0
 17 18  1  0  0  0
 17101  1  0  0  0
 18 19  2  0  0  0
 18102  1  0  0  0
 19 20  1  0  0  0
 19 24  1  0  0  0
 20 21  2  0  0  0
 20103  1  0  0  0
 21 23  1  0  0  0
 22 28  1  0  0  0
 22 32  2  0  0  0
 26 27  1  0  0  0
 28104  1  0  0  0
 28105  1  0  0  0
 29106  1  0  0  0
 29107  1  0  0  0
 33 34  1  0  0  0
 33 66  1  0  0  0
 33 70  2  0  0  0
 34 36  1  0  0  0
 34 59  1  0  0  0
 34108  1  0  0  0
 35 44  2  0  0  0
 35 45  1  0  0  0
 35 68  1  0  0  0
 36 56  1  0  0  0
 36109  1  0  0  0
 37 39  1  0  0  0
 37 47  1  0  0  0
 37 66  1  0  0  0
 37110  1  0  0  0
 38 43  2  0  0  0
 38 46  1  0  0  0
 38 47  1  0  0  0
 39 64  1  0  0  0
 39 67  2  0  0  0
 40 52  1  0  0  0
 40 53  2  0  0  0
 40 58  1  0  0  0
 41111  1  0  0  0
 41112  1  0  0  0
 41113  1  0  0  0
 41 48  1  0  0  0
 42 43  1  0  0  0
 42 66  1  0  0  0
 42114  1  0  0  0
 42115  1  0  0  0
 43 44  1  0  0  0
 44116  1  0  0  0
 45 46  2  0  0  0
 45117  1  0  0  0
 46118  1  0  0  0
 47119  1  0  0  0
 47120  1  0  0  0
 48 56  1  0  0  0
 48 65  1  0  0  0
 48121  1  0  0  0
 49 50  1  0  0  0
 49 53  1  0  0  0
 49 64  1  0  0  0
 49122  1  0  0  0
 50 51  1  0  0  0
 50123  1  0  0  0
 50124  1  0  0  0
 51 52  1  0  0  0
 51125  1  0  0  0
 51126  1  0  0  0
 52127  1  0  0  0
 52128  1  0  0  0
 53 54  1  0  0  0
 54 55  2  0  0  0
 54129  1  0  0  0
 55 57  1  0  0  0
 55130  1  0  0  0
 56 69  2  0  0  0
 57 58  2  0  0  0
 57131  1  0  0  0
 58132  1  0  0  0
 59 60  1  0  0  0
 59 61  1  0  0  0
 59 62  1  0  0  0
 60133  1  0  0  0
 60134  1  0  0  0
 60135  1  0  0  0
 61136  1  0  0  0
 61137  1  0  0  0
 61138  1  0  0  0
 62139  1  0  0  0
 62140  1  0  0  0
 62141  1  0  0  0
 63 65  1  0  0  0
 63142  1  0  0  0
 63143  1  0  0  0
 63144  1  0  0  0
 64145  1  0  0  0
 65146  1  0  0  0
 68 83  1  0  0  0
 71 73  2  0  0  0
 71 74  1  0  0  0
 71147  1  0  0  0
 72 73  1  0  0  0
 72 86  2  0  0  0
 72148  1  0  0  0
 73 80  1  0  0  0
 74 75  2  0  0  0
 74 84  1  0  0  0
 75 76  1  0  0  0
 75 86  1  0  0  0
 76149  1  0  0  0
 76150  1  0  0  0
 76151  1  0  0  0
 77152  1  0  0  0
 77153  1  0  0  0
 77154  1  0  0  0
 77 85  1  0  0  0
 78 85  1  0  0  0
 78155  1  0  0  0
 78156  1  0  0  0
 78157  1  0  0  0
 79 87  1  0  0  0
 79158  1  0  0  0
 79159  1  0  0  0
 79160  1  0  0  0
 80 81  1  0  0  0
 80161  1  0  0  0
 80162  1  0  0  0
 81 83  1  0  0  0
 81163  1  0  0  0
 81164  1  0  0  0
 82 85  1  0  0  0
 82165  1  0  0  0
 82166  1  0  0  0
 82 84  1  0  0  0
 83167  1  0  0  0
 83168  1  0  0  0
 84 87  1  0  0  0
 84169  1  0  0  0
 85170  1  0  0  0
M  ISO  4   1 100  68 101  83 101  87 100
M  END
> <chiral flag>
0

> <version>
0

> <s_m_source_file>
/data/baiqing/PycharmProjects/Reinvent-master-3.2/result/LINK_invent/BTK/process_docking_weight1_custom_sum_contain_oxygen_bond_distance_aromatic_linkinvent_7_9_3/rearranged_h_0102.sdf

> <i_m_source_file_index>
17

> <r_mmod_Potential_Energy-OPLS-2005>
220.283218383789

> <r_mmod_Stretch_Energy-OPLS-2005>
120.98583984375

> <r_mmod_Bend_Energy-OPLS-2005>
179.821441650391

> <r_mmod_Torsional_Energy-OPLS-2005>
311.899780273438

> <r_mmod_Improper_Torsional_Energy-OPLS-2005>
4.76922178268433

> <r_mmod_Van_der_Waal_Energy-OPLS-2005>
132.882293701172

> <r_mmod_Electrostatic_Energy-OPLS-2005>
-402.89794921875

> <r_mmod_Solvation_Energy-OPLS-2005>
-194.535766601562

> <b_mmod_Minimization_Converged-OPLS-2005>
0

> <r_mmod_RMS_Derivative-OPLS-2005>
6.16875553131104

$$$$
17
                    3D
 Structure written by MMmdl.
177185  0  0  1  0            999 V2000
  -30.5530  -14.7387   20.4702 C   0  0  0  0  0  0
  -30.4442  -12.4591   19.4412 C   0  0  0  0  0  0
  -29.5061  -12.5178   18.2138 C   0  0  0  0  0  0
  -28.0307  -12.3390   18.6347 C   0  0  0  0  0  0
  -27.6430  -13.2174   19.8521 C   0  0  2  0  0  0
  -28.6929  -13.1053   20.9767 C   0  0  0  0  0  0
  -25.2553  -13.8160   20.5721 C   0  0  0  0  0  0
  -24.1829  -13.0418   20.9228 C   0  0  0  0  0  0
  -24.6389  -11.6889   20.8757 C   0  0  0  0  0  0
  -23.9057  -10.4269   21.0419 C   0  0  0  0  0  0
  -24.3604   -9.4195   21.9199 C   0  0  0  0  0  0
  -23.6283   -8.2231   22.0769 C   0  0  0  0  0  0
  -22.4278   -8.0267   21.3547 C   0  0  0  0  0  0
  -21.9902   -9.0247   20.4656 C   0  0  0  0  0  0
  -22.7233  -10.2127   20.3067 C   0  0  0  0  0  0
  -21.6839   -6.0730   22.5285 C   0  0  0  0  0  0
  -21.4007   -6.5640   23.8213 C   0  0  0  0  0  0
  -21.3663   -5.6799   24.9177 C   0  0  0  0  0  0
  -21.6039   -4.3054   24.7238 C   0  0  0  0  0  0
  -21.8815   -3.8150   23.4358 C   0  0  0  0  0  0
  -21.9190   -4.6962   22.3410 C   0  0  0  0  0  0
  -22.7858  -13.5230   21.1885 C   0  0  0  0  0  0
  -22.1662   -4.2138   21.0989 F   0  0  0  0  0  0
  -21.5627   -3.4542   25.7755 F   0  0  0  0  0  0
  -29.9849  -13.4908   20.3929 N   0  0  0  0  0  0
  -26.2947  -12.9326   20.3279 N   0  0  0  0  0  0
  -25.9307  -11.6477   20.5735 N   0  0  0  0  0  0
  -22.0480  -12.8209   22.0420 N   0  0  0  0  0  0
  -25.4241  -15.1869   20.4130 N   0  0  0  0  0  0
  -31.7423  -14.9182   20.1983 O   0  0  0  0  0  0
  -21.6635   -6.8869   21.4246 O   0  0  0  0  0  0
  -22.3541  -14.5536   20.6740 O   0  0  0  0  0  0
  -24.6288  -31.8506   23.1941 C   0  0  0  0  0  0
  -25.9097  -32.4734   23.8283 C   0  0  1  0  0  0
  -27.2532  -27.2849   20.1242 C   0  0  0  0  0  0
  -25.5887  -33.8547   24.2216 N   0  0  0  0  0  0
  -23.4263  -30.4669   21.5412 C   0  0  2  0  0  0
  -24.8788  -28.9053   20.1159 C   0  0  0  0  0  0
  -22.7471  -29.4564   22.4979 C   0  0  0  0  0  0
  -18.0248  -28.1339   22.8464 C   0  0  0  0  0  0
  -24.1503  -36.7315   23.2641 C   0  0  0  0  0  0
  -25.9700  -30.7727   21.3717 C   0  0  0  0  0  0
  -26.0466  -29.3959   20.7155 C   0  0  0  0  0  0
  -27.2310  -28.5941   20.7069 C   0  0  0  0  0  0
  -26.0567  -26.8366   19.5340 C   0  0  0  0  0  0
  -24.8852  -27.6305   19.5209 C   0  0  0  0  0  0
  -23.6410  -29.7823   20.1645 C   0  0  0  0  0  0
  -25.4118  -36.3059   24.0300 C   0  0  1  0  0  0
  -20.5866  -28.3641   23.1311 C   0  0  2  0  0  0
  -20.6789  -26.9387   22.5416 C   0  0  0  0  0  0
  -19.5782  -26.6357   21.5212 C   0  0  0  0  0  0
  -18.1926  -26.7878   22.1587 C   0  0  0  0  0  0
  -19.1507  -28.8822   23.2863 C   0  0  0  0  0  0
  -18.9434  -30.1435   23.8865 C   0  0  0  0  0  0
  -17.6448  -30.6577   24.0531 C   0  0  0  0  0  0
  -25.9020  -34.9407   23.5057 C   0  0  0  0  0  0
  -16.5331  -29.9046   23.6366 C   0  0  0  0  0  0
  -16.7237  -28.6465   23.0366 C   0  0  0  0  0  0
  -26.4497  -31.6551   25.0665 C   0  0  0  0  0  0
  -25.3715  -31.3675   26.1385 C   0  0  0  0  0  0
  -27.0421  -30.2953   24.6188 C   0  0  0  0  0  0
  -27.6055  -32.4333   25.7400 C   0  0  0  0  0  0
  -27.5587  -37.1778   24.8432 C   0  0  0  0  0  0
  -21.4176  -29.2981   22.3698 N   0  0  0  0  0  0
  -26.4300  -37.3751   23.9376 N   0  0  0  0  0  0
  -24.6936  -31.0456   22.0935 N   0  0  0  0  0  0
  -23.4175  -28.8139   23.3101 O   0  0  0  0  0  0
  -28.4127  -26.4856   20.1954 O   0  0  0  0  0  0
  -26.5637  -34.8880   22.4647 O   0  0  0  0  0  0
  -23.5426  -32.1382   23.7198 O   0  0  0  0  0  0
  -30.3922  -21.5761   22.2831 C   0  0  0  0  0  0
  -29.6962  -22.6520   21.7052 C   0  0  0  0  0  0
  -30.3110  -20.2793   21.7435 C   0  0  0  0  0  0
  -28.8781  -22.4818   20.5688 C   0  0  0  0  0  0
  -29.5700  -19.9979   20.5721 C   0  0  0  0  0  0
  -28.8519  -21.1385   19.9812 C   0  0  0  0  0  0
  -28.0654  -20.9431   18.6896 C   0  0  0  0  0  0
  -34.4033  -19.6065   18.7959 C   0  0  0  0  0  0
  -33.4289  -18.4745   20.8188 C   0  0  0  0  0  0
  -28.6350  -25.1784   18.0897 C   0  0  0  0  0  0
  -30.2682  -17.9714   17.6356 C   0  0  0  0  0  0
  -27.9941  -23.7614   20.1808 C   0  0  0  0  0  0
  -29.8062  -17.2649   21.0564 C   0  0  0  0  0  0
  -31.8927  -19.3132   18.9290 C   0  0  0  0  0  0
  -29.6885  -18.4907   20.0026 C   0  0  2  0  0  0
  -33.2657  -18.7069   19.3047 C   0  0  0  0  0  0
  -28.6574  -25.1194   19.6264 C   0  0  2  0  0  0
  -29.6770  -15.7975   20.6435 N   0  0  0  0  0  0
  -30.7784  -18.3117   18.9850 N   0  3  1  0  0  0
  -31.4804  -12.6179   19.1363 H   0  0  0  0  0  0
  -30.4097  -11.4692   19.9015 H   0  0  0  0  0  0
  -29.7815  -11.7488   17.4907 H   0  0  0  0  0  0
  -29.6294  -13.4729   17.7026 H   0  0  0  0  0  0
  -27.8839  -11.2878   18.8809 H   0  0  0  0  0  0
  -27.3713  -12.5464   17.7925 H   0  0  0  0  0  0
  -27.6443  -14.2450   19.4934 H   0  0  0  0  0  0
  -28.7369  -12.0844   21.3600 H   0  0  0  0  0  0
  -28.4327  -13.7365   21.8280 H   0  0  0  0  0  0
  -25.2731   -9.5665   22.4791 H   0  0  0  0  0  0
  -23.9984   -7.4609   22.7480 H   0  0  0  0  0  0
  -21.0829   -8.8749   19.8954 H   0  0  0  0  0  0
  -22.3672  -10.9666   19.6181 H   0  0  0  0  0  0
  -21.2001   -7.6147   23.9708 H   0  0  0  0  0  0
  -21.1491   -6.0533   25.9072 H   0  0  0  0  0  0
  -22.0600   -2.7608   23.2869 H   0  0  0  0  0  0
  -22.4081  -11.9860   22.4783 H   0  0  0  0  0  0
  -21.1108  -13.1247   22.2650 H   0  0  0  0  0  0
  -24.6488  -15.8339   20.5113 H   0  0  0  0  0  0
  -26.2493  -15.6215   20.0236 H   0  0  0  0  0  0
  -26.7149  -32.5382   23.1031 H   0  0  0  0  0  0
  -25.0014  -33.9731   25.0332 H   0  0  0  0  0  0
  -22.7202  -31.2864   21.3907 H   0  0  0  0  0  0
  -23.3736  -35.9680   23.3284 H   0  0  0  0  0  0
  -24.3597  -36.9006   22.2071 H   0  0  0  0  0  0
  -23.7317  -37.6507   23.6717 H   0  0  0  0  0  0
  -26.1010  -31.5371   20.6034 H   0  0  0  0  0  0
  -26.8488  -30.8268   22.0014 H   0  0  0  0  0  0
  -28.1296  -28.9684   21.1759 H   0  0  0  0  0  0
  -26.0085  -25.8438   19.1203 H   0  0  0  0  0  0
  -23.9842  -27.2322   19.0746 H   0  0  0  0  0  0
  -23.7397  -30.5490   19.3969 H   0  0  0  0  0  0
  -22.7685  -29.1907   19.8839 H   0  0  0  0  0  0
  -25.1323  -36.1894   25.0804 H   0  0  0  0  0  0
  -20.9904  -28.3229   24.1453 H   0  0  0  0  0  0
  -20.5754  -26.2233   23.3587 H   0  0  0  0  0  0
  -21.6656  -26.7492   22.1196 H   0  0  0  0  0  0
  -19.6949  -25.6265   21.1253 H   0  0  0  0  0  0
  -19.6728  -27.3145   20.6723 H   0  0  0  0  0  0
  -17.4222  -26.6609   21.3937 H   0  0  0  0  0  0
  -18.0301  -25.9982   22.8951 H   0  0  0  0  0  0
  -19.7924  -30.7235   24.2202 H   0  0  0  0  0  0
  -17.5002  -31.6252   24.5125 H   0  0  0  0  0  0
  -15.5314  -30.2920   23.7766 H   0  0  0  0  0  0
  -15.8615  -28.0796   22.7112 H   0  0  0  0  0  0
  -24.5894  -30.7032   25.7691 H   0  0  0  0  0  0
  -24.8890  -32.2835   26.4783 H   0  0  0  0  0  0
  -25.8046  -30.8863   27.0159 H   0  0  0  0  0  0
  -26.3051  -29.6507   24.1383 H   0  0  0  0  0  0
  -27.4292  -29.7381   25.4728 H   0  0  0  0  0  0
  -27.8813  -30.4224   23.9357 H   0  0  0  0  0  0
  -27.2695  -33.3667   26.1920 H   0  0  0  0  0  0
  -28.3868  -32.6846   25.0211 H   0  0  0  0  0  0
  -28.0685  -31.8465   26.5333 H   0  0  0  0  0  0
  -28.2570  -38.0101   24.7572 H   0  0  0  0  0  0
  -28.1154  -36.2664   24.6219 H   0  0  0  0  0  0
  -27.2323  -37.1387   25.8830 H   0  0  0  0  0  0
  -20.9338  -29.8690   21.6920 H   0  0  0  0  0  0
  -26.0169  -38.2815   24.1380 H   0  0  0  0  0  0
  -30.9965  -21.7495   23.1639 H   0  0  0  0  0  0
  -29.7678  -23.6231   22.1758 H   0  0  0  0  0  0
  -30.8860  -19.5067   22.2290 H   0  0  0  0  0  0
  -27.1250  -21.4913   18.6974 H   0  0  0  0  0  0
  -27.8017  -19.9081   18.4934 H   0  0  0  0  0  0
  -28.6530  -21.3002   17.8409 H   0  0  0  0  0  0
  -35.3788  -19.1733   19.0171 H   0  0  0  0  0  0
  -34.3651  -20.5967   19.2546 H   0  0  0  0  0  0
  -34.3511  -19.7360   17.7148 H   0  0  0  0  0  0
  -34.4449  -18.1647   21.0628 H   0  0  0  0  0  0
  -32.7825  -17.6801   21.1807 H   0  0  0  0  0  0
  -33.2192  -19.3774   21.3942 H   0  0  0  0  0  0
  -28.9895  -24.2386   17.6672 H   0  0  0  0  0  0
  -29.2848  -25.9696   17.7185 H   0  0  0  0  0  0
  -27.6384  -25.3569   17.6905 H   0  0  0  0  0  0
  -31.0834  -17.6043   17.0112 H   0  0  0  0  0  0
  -29.8293  -18.8387   17.1412 H   0  0  0  0  0  0
  -29.5222  -17.1782   17.6783 H   0  0  0  0  0  0
  -27.4911  -24.0448   21.1066 H   0  0  0  0  0  0
  -27.1624  -23.4787   19.5361 H   0  0  0  0  0  0
  -28.9785  -17.4109   21.7530 H   0  0  0  0  0  0
  -30.6955  -17.3636   21.6745 H   0  0  0  0  0  0
  -31.9571  -19.6952   17.9098 H   0  0  0  0  0  0
  -31.7442  -20.2166   19.5142 H   0  0  0  0  0  0
  -28.7342  -18.2959   19.5195 H   0  0  0  0  0  0
  -33.3796  -17.7450   18.8019 H   0  0  0  0  0  0
  -29.7118  -24.9894   19.8807 H   0  0  0  0  0  0
  -28.7237  -15.4728   20.6981 H   0  0  0  0  0  0
  -31.2211  -17.4564   19.2888 H   0  0  0  0  0  0
  1 25  1  0  0  0
  1 30  2  0  0  0
  1 88  1  0  0  0
  2  3  1  0  0  0
  2 25  1  0  0  0
  2 90  1  0  0  0
  2 91  1  0  0  0
  3  4  1  0  0  0
  3 92  1  0  0  0
  3 93  1  0  0  0
  4  5  1  0  0  0
  4 94  1  0  0  0
  4 95  1  0  0  0
  5  6  1  0  0  0
  5 26  1  0  0  0
  5 96  1  0  0  0
  6 25  1  0  0  0
  6 97  1  0  0  0
  6 98  1  0  0  0
  7  8  2  0  0  0
  7 26  1  0  0  0
  7 29  1  0  0  0
  8  9  1  0  0  0
  8 22  1  0  0  0
  9 10  1  0  0  0
  9 27  2  0  0  0
 10 11  2  0  0  0
 10 15  1  0  0  0
 11 12  1  0  0  0
 11 99  1  0  0  0
 12 13  2  0  0  0
 12100  1  0  0  0
 13 14  1  0  0  0
 13 31  1  0  0  0
 14 15  2  0  0  0
 14101  1  0  0  0
 15102  1  0  0  0
 16 17  2  0  0  0
 16 21  1  0  0  0
 16 31  1  0  0  0
 17 18  1  0  0  0
 17103  1  0  0  0
 18 19  2  0  0  0
 18104  1  0  0  0
 19 20  1  0  0  0
 19 24  1  0  0  0
 20 21  2  0  0  0
 20105  1  0  0  0
 21 23  1  0  0  0
 22 28  1  0  0  0
 22 32  2  0  0  0
 26 27  1  0  0  0
 28106  1  0  0  0
 28107  1  0  0  0
 29108  1  0  0  0
 29109  1  0  0  0
 33 34  1  0  0  0
 33 66  1  0  0  0
 33 70  2  0  0  0
 34 36  1  0  0  0
 34 59  1  0  0  0
 34110  1  0  0  0
 35 44  2  0  0  0
 35 45  1  0  0  0
 35 68  1  0  0  0
 36 56  1  0  0  0
 36111  1  0  0  0
 37 39  1  0  0  0
 37 47  1  0  0  0
 37 66  1  0  0  0
 37112  1  0  0  0
 38 43  2  0  0  0
 38 46  1  0  0  0
 38 47  1  0  0  0
 39 64  1  0  0  0
 39 67  2  0  0  0
 40 52  1  0  0  0
 40 53  2  0  0  0
 40 58  1  0  0  0
 41113  1  0  0  0
 41114  1  0  0  0
 41115  1  0  0  0
 41 48  1  0  0  0
 42 43  1  0  0  0
 42 66  1  0  0  0
 42116  1  0  0  0
 42117  1  0  0  0
 43 44  1  0  0  0
 44118  1  0  0  0
 45 46  2  0  0  0
 45119  1  0  0  0
 46120  1  0  0  0
 47121  1  0  0  0
 47122  1  0  0  0
 48 56  1  0  0  0
 48 65  1  0  0  0
 48123  1  0  0  0
 49 50  1  0  0  0
 49 53  1  0  0  0
 49 64  1  0  0  0
 49124  1  0  0  0
 50 51  1  0  0  0
 50125  1  0  0  0
 50126  1  0  0  0
 51 52  1  0  0  0
 51127  1  0  0  0
 51128  1  0  0  0
 52129  1  0  0  0
 52130  1  0  0  0
 53 54  1  0  0  0
 54 55  2  0  0  0
 54131  1  0  0  0
 55 57  1  0  0  0
 55132  1  0  0  0
 56 69  2  0  0  0
 57 58  2  0  0  0
 57133  1  0  0  0
 58134  1  0  0  0
 59 60  1  0  0  0
 59 61  1  0  0  0
 59 62  1  0  0  0
 60135  1  0  0  0
 60136  1  0  0  0
 60137  1  0  0  0
 61138  1  0  0  0
 61139  1  0  0  0
 61140  1  0  0  0
 62141  1  0  0  0
 62142  1  0  0  0
 62143  1  0  0  0
 63 65  1  0  0  0
 63144  1  0  0  0
 63145  1  0  0  0
 63146  1  0  0  0
 64147  1  0  0  0
 65148  1  0  0  0
 68 87  1  0  0  0
 71 72  2  0  0  0
 71 73  1  0  0  0
 71149  1  0  0  0
 72 74  1  0  0  0
 72150  1  0  0  0
 73 75  2  0  0  0
 73151  1  0  0  0
 74 76  2  0  0  0
 74 82  1  0  0  0
 75 76  1  0  0  0
 75 85  1  0  0  0
 76 77  1  0  0  0
 77152  1  0  0  0
 77153  1  0  0  0
 77154  1  0  0  0
 78155  1  0  0  0
 78156  1  0  0  0
 78157  1  0  0  0
 78 86  1  0  0  0
 79 86  1  0  0  0
 79158  1  0  0  0
 79159  1  0  0  0
 79160  1  0  0  0
 80161  1  0  0  0
 80162  1  0  0  0
 80163  1  0  0  0
 80 87  1  0  0  0
 81164  1  0  0  0
 81165  1  0  0  0
 81166  1  0  0  0
 81 89  1  0  0  0
 82 87  1  0  0  0
 82167  1  0  0  0
 82168  1  0  0  0
 83 88  1  0  0  0
 83169  1  0  0  0
 83170  1  0  0  0
 83 85  1  0  0  0
 84 86  1  0  0  0
 84 89  1  0  0  0
 84171  1  0  0  0
 84172  1  0  0  0
 85 89  1  0  0  0
 85173  1  0  0  0
 86174  1  0  0  0
 87175  1  0  0  0
 88176  1  0  0  0
 89177  1  0  0  0
M  CHG  1  89   1
M  ISO  4   1 100  68 101  87 101  88 100
M  END
> <chiral flag>
0

> <version>
0

> <s_m_source_file>
/data/baiqing/PycharmProjects/Reinvent-master-3.2/result/LINK_invent/BTK/process_docking_weight1_custom_sum_contain_oxygen_bond_distance_aromatic_linkinvent_7_9_3/rearranged_h_0102.sdf

> <i_m_source_file_index>
18

> <r_mmod_Potential_Energy-OPLS-2005>
92.7069625854492

> <r_mmod_Stretch_Energy-OPLS-2005>
132.457809448242

> <r_mmod_Bend_Energy-OPLS-2005>
231.00358581543

> <r_mmod_Torsional_Energy-OPLS-2005>
262.211578369141

> <r_mmod_Improper_Torsional_Energy-OPLS-2005>
6.42086124420166

> <r_mmod_Van_der_Waal_Energy-OPLS-2005>
125.99885559082

> <r_mmod_Electrostatic_Energy-OPLS-2005>
-335.586273193359

> <r_mmod_Solvation_Energy-OPLS-2005>
-407.480010986328

> <b_mmod_Minimization_Converged-OPLS-2005>
0

> <r_mmod_RMS_Derivative-OPLS-2005>
4.92312717437744

$$$$
18
                    3D
 Structure written by MMmdl.
177185  0  0  1  0            999 V2000
  -30.7200  -14.4607   20.5260 C   0  0  0  0  0  0
  -30.4132  -12.2832   19.4360 C   0  0  0  0  0  0
  -29.4974  -12.4870   18.2113 C   0  0  0  0  0  0
  -28.0166  -12.3584   18.6188 C   0  0  0  0  0  0
  -27.6610  -13.2086   19.8689 C   0  0  2  0  0  0
  -28.7029  -13.0192   20.9969 C   0  0  0  0  0  0
  -25.2603  -13.8177   20.5667 C   0  0  0  0  0  0
  -24.1857  -13.0460   20.9176 C   0  0  0  0  0  0
  -24.6400  -11.6916   20.8726 C   0  0  0  0  0  0
  -23.9063  -10.4303   21.0398 C   0  0  0  0  0  0
  -24.3619   -9.4221   21.9174 C   0  0  0  0  0  0
  -23.6297   -8.2257   22.0753 C   0  0  0  0  0  0
  -22.4277   -8.0293   21.3546 C   0  0  0  0  0  0
  -21.9908   -9.0260   20.4644 C   0  0  0  0  0  0
  -22.7235  -10.2141   20.3047 C   0  0  0  0  0  0
  -21.6864   -6.0739   22.5275 C   0  0  0  0  0  0
  -21.4016   -6.5635   23.8210 C   0  0  0  0  0  0
  -21.3659   -5.6786   24.9171 C   0  0  0  0  0  0
  -21.6051   -4.3052   24.7218 C   0  0  0  0  0  0
  -21.8823   -3.8144   23.4338 C   0  0  0  0  0  0
  -21.9197   -4.6963   22.3396 C   0  0  0  0  0  0
  -22.7876  -13.5252   21.1829 C   0  0  0  0  0  0
  -22.1670   -4.2149   21.0974 F   0  0  0  0  0  0
  -21.5632   -3.4533   25.7732 F   0  0  0  0  0  0
  -30.0353  -13.2908   20.4388 N   0  0  0  0  0  0
  -26.3030  -12.9341   20.3341 N   0  0  0  0  0  0
  -25.9329  -11.6500   20.5758 N   0  0  0  0  0  0
  -22.0507  -12.8246   22.0383 N   0  0  0  0  0  0
  -25.4341  -15.1896   20.4058 N   0  0  0  0  0  0
  -31.8791  -14.5856   20.1238 O   0  0  0  0  0  0
  -21.6651   -6.8884   21.4239 O   0  0  0  0  0  0
  -22.3560  -14.5545   20.6660 O   0  0  0  0  0  0
  -24.6151  -31.8690   23.2125 C   0  0  0  0  0  0
  -25.9052  -32.4824   23.8411 C   0  0  1  0  0  0
  -27.2210  -27.4292   20.1090 C   0  0  0  0  0  0
  -25.5912  -33.8620   24.2333 N   0  0  0  0  0  0
  -23.4034  -30.4934   21.5528 C   0  0  2  0  0  0
  -24.8509  -28.9663   20.1105 C   0  0  0  0  0  0
  -22.7413  -29.4661   22.4997 C   0  0  0  0  0  0
  -18.0269  -28.1379   22.8489 C   0  0  0  0  0  0
  -24.1491  -36.7306   23.2639 C   0  0  0  0  0  0
  -25.9339  -30.8319   21.3709 C   0  0  0  0  0  0
  -26.0107  -29.4668   20.7192 C   0  0  0  0  0  0
  -27.2021  -28.7023   20.7233 C   0  0  0  0  0  0
  -26.0599  -26.9642   19.4579 C   0  0  0  0  0  0
  -24.8710  -27.7130   19.4759 C   0  0  0  0  0  0
  -23.6118  -29.8310   20.1654 C   0  0  0  0  0  0
  -25.4111  -36.3109   24.0342 C   0  0  1  0  0  0
  -20.5861  -28.3662   23.1318 C   0  0  2  0  0  0
  -20.6770  -26.9402   22.5418 C   0  0  0  0  0  0
  -19.5744  -26.6385   21.5218 C   0  0  0  0  0  0
  -18.1917  -26.7931   22.1624 C   0  0  0  0  0  0
  -19.1520  -28.8836   23.2903 C   0  0  0  0  0  0
  -18.9451  -30.1446   23.8905 C   0  0  0  0  0  0
  -17.6455  -30.6590   24.0563 C   0  0  0  0  0  0
  -25.9036  -34.9473   23.5132 C   0  0  0  0  0  0
  -16.5339  -29.9091   23.6336 C   0  0  0  0  0  0
  -16.7257  -28.6511   23.0352 C   0  0  0  0  0  0
  -26.4483  -31.6599   25.0735 C   0  0  0  0  0  0
  -25.3743  -31.3707   26.1479 C   0  0  0  0  0  0
  -27.0322  -30.3040   24.6119 C   0  0  0  0  0  0
  -27.6057  -32.4327   25.7492 C   0  0  0  0  0  0
  -27.5580  -37.1805   24.8465 C   0  0  0  0  0  0
  -21.4138  -29.3033   22.3728 N   0  0  0  0  0  0
  -26.4294  -37.3796   23.9410 N   0  0  0  0  0  0
  -24.6686  -31.0794   22.1029 N   0  0  0  0  0  0
  -23.4182  -28.8202   23.3042 O   0  0  0  0  0  0
  -28.3391  -26.6220   20.1151 O   0  0  0  0  0  0
  -26.5590  -34.8920   22.4688 O   0  0  0  0  0  0
  -23.5346  -32.1444   23.7516 O   0  0  0  0  0  0
  -30.3885  -18.3629   18.2431 C   0  0  0  0  0  0
  -29.9677  -17.0046   18.8110 C   0  0  0  0  0  0
  -29.7812  -19.5115   19.0620 C   0  0  0  0  0  0
  -29.7218  -18.0959   21.0921 C   0  0  0  0  0  0
  -30.3442  -16.9017   20.3047 C   0  0  1  0  0  0
  -27.1802  -23.7499   22.4799 C   0  0  0  0  0  0
  -30.7352  -25.2590   23.1267 C   0  0  0  0  0  0
  -31.7889  -21.9590   20.3608 C   0  0  0  0  0  0
  -27.1178  -24.8504   21.4158 C   0  0  0  0  0  0
  -30.5669  -22.7945   22.5001 C   0  0  0  0  0  0
  -29.6361  -24.6952   20.8393 C   0  0  0  0  0  0
  -29.7360  -20.6319   21.2674 C   0  0  0  0  0  0
  -30.6476  -24.2619   21.9558 C   0  0  1  0  0  0
  -30.9372  -21.5746   21.5889 C   0  0  1  0  0  0
  -28.4364  -25.6419   21.1814 C   0  0  1  0  0  0
  -29.9830  -15.5556   20.8029 N   0  0  0  0  0  0
  -30.1431  -19.4101   20.5027 N   0  3  2  0  0  0
  -31.4618  -12.3504   19.1408 H   0  0  0  0  0  0
  -30.2851  -11.2805   19.8465 H   0  0  0  0  0  0
  -29.7346  -11.7567   17.4365 H   0  0  0  0  0  0
  -29.6783  -13.4686   17.7710 H   0  0  0  0  0  0
  -27.8215  -11.3042   18.8188 H   0  0  0  0  0  0
  -27.3719  -12.6304   17.7824 H   0  0  0  0  0  0
  -27.6967  -14.2509   19.5530 H   0  0  0  0  0  0
  -28.6692  -11.9979   21.3783 H   0  0  0  0  0  0
  -28.4785  -13.6627   21.8486 H   0  0  0  0  0  0
  -25.2776   -9.5706   22.4734 H   0  0  0  0  0  0
  -24.0017   -7.4653   22.7468 H   0  0  0  0  0  0
  -21.0848   -8.8765   19.8942 H   0  0  0  0  0  0
  -22.3694  -10.9672   19.6148 H   0  0  0  0  0  0
  -21.2002   -7.6142   23.9710 H   0  0  0  0  0  0
  -21.1482   -6.0517   25.9075 H   0  0  0  0  0  0
  -22.0601   -2.7604   23.2836 H   0  0  0  0  0  0
  -22.4122  -11.9919   22.4797 H   0  0  0  0  0  0
  -21.1111  -13.1261   22.2532 H   0  0  0  0  0  0
  -24.6652  -15.8437   20.5055 H   0  0  0  0  0  0
  -26.2771  -15.6231   20.0519 H   0  0  0  0  0  0
  -26.7123  -32.5547   23.1174 H   0  0  0  0  0  0
  -25.0099  -33.9797   25.0502 H   0  0  0  0  0  0
  -22.6924  -31.3103   21.4163 H   0  0  0  0  0  0
  -23.3756  -35.9638   23.3317 H   0  0  0  0  0  0
  -24.3579  -36.8901   22.2050 H   0  0  0  0  0  0
  -23.7240  -37.6514   23.6637 H   0  0  0  0  0  0
  -26.0514  -31.5986   20.6036 H   0  0  0  0  0  0
  -26.8198  -30.8812   21.9928 H   0  0  0  0  0  0
  -28.0943  -29.0762   21.2057 H   0  0  0  0  0  0
  -26.0678  -26.0035   18.9627 H   0  0  0  0  0  0
  -23.9836  -27.3254   18.9950 H   0  0  0  0  0  0
  -23.7155  -30.6081   19.4070 H   0  0  0  0  0  0
  -22.7364  -29.2490   19.8716 H   0  0  0  0  0  0
  -25.1290  -36.1974   25.0835 H   0  0  0  0  0  0
  -20.9946  -28.3230   24.1442 H   0  0  0  0  0  0
  -20.5696  -26.2269   23.3605 H   0  0  0  0  0  0
  -21.6640  -26.7469   22.1194 H   0  0  0  0  0  0
  -19.6919  -25.6301   21.1242 H   0  0  0  0  0  0
  -19.6695  -27.3202   20.6754 H   0  0  0  0  0  0
  -17.4200  -26.6679   21.4016 H   0  0  0  0  0  0
  -18.0312  -26.0067   22.9012 H   0  0  0  0  0  0
  -19.7926  -30.7261   24.2281 H   0  0  0  0  0  0
  -17.5010  -31.6272   24.5159 H   0  0  0  0  0  0
  -15.5344  -30.2997   23.7663 H   0  0  0  0  0  0
  -15.8654  -28.0836   22.7069 H   0  0  0  0  0  0
  -24.5916  -30.7060   25.7804 H   0  0  0  0  0  0
  -24.8943  -32.2871   26.4929 H   0  0  0  0  0  0
  -25.8096  -30.8866   27.0231 H   0  0  0  0  0  0
  -26.2873  -29.6796   24.1171 H   0  0  0  0  0  0
  -27.4089  -29.7281   25.4583 H   0  0  0  0  0  0
  -27.8711  -30.4362   23.9277 H   0  0  0  0  0  0
  -27.2673  -33.3622   26.2084 H   0  0  0  0  0  0
  -28.3853  -32.6898   25.0306 H   0  0  0  0  0  0
  -28.0739  -31.8445   26.5396 H   0  0  0  0  0  0
  -28.2605  -38.0096   24.7515 H   0  0  0  0  0  0
  -28.1067  -36.2630   24.6290 H   0  0  0  0  0  0
  -27.2294  -37.1456   25.8866 H   0  0  0  0  0  0
  -20.9299  -29.8749   21.6942 H   0  0  0  0  0  0
  -26.0186  -38.2875   24.1408 H   0  0  0  0  0  0
  -30.0710  -18.4422   17.2030 H   0  0  0  0  0  0
  -31.4771  -18.4422   18.2366 H   0  0  0  0  0  0
  -30.4487  -16.2150   18.2314 H   0  0  0  0  0  0
  -28.8926  -16.8671   18.6815 H   0  0  0  0  0  0
  -28.6953  -19.5084   18.9560 H   0  0  0  0  0  0
  -30.1272  -20.4599   18.6499 H   0  0  0  0  0  0
  -30.0439  -18.0488   22.1333 H   0  0  0  0  0  0
  -28.6329  -18.0261   21.0939 H   0  0  0  0  0  0
  -31.4282  -17.0119   20.3896 H   0  0  0  0  0  0
  -26.1776  -23.4504   22.7857 H   0  0  0  0  0  0
  -27.7092  -24.0832   23.3721 H   0  0  0  0  0  0
  -27.6669  -22.8589   22.0869 H   0  0  0  0  0  0
  -31.5980  -25.0464   23.7589 H   0  0  0  0  0  0
  -29.8505  -25.2152   23.7639 H   0  0  0  0  0  0
  -30.8504  -26.2841   22.7711 H   0  0  0  0  0  0
  -32.6635  -22.5373   20.6593 H   0  0  0  0  0  0
  -31.2274  -22.5502   19.6378 H   0  0  0  0  0  0
  -32.1799  -21.0844   19.8416 H   0  0  0  0  0  0
  -26.3402  -25.5433   21.7367 H   0  0  0  0  0  0
  -26.7732  -24.4056   20.4821 H   0  0  0  0  0  0
  -29.6263  -22.6198   23.0170 H   0  0  0  0  0  0
  -31.2922  -22.7545   23.3148 H   0  0  0  0  0  0
  -29.2747  -23.8190   20.3011 H   0  0  0  0  0  0
  -30.2358  -25.2251   20.0974 H   0  0  0  0  0  0
  -28.9631  -21.1817   20.7269 H   0  0  0  0  0  0
  -29.2693  -20.3288   22.2067 H   0  0  0  0  0  0
  -31.6275  -24.3451   21.4870 H   0  0  0  0  0  0
  -31.5976  -20.9611   22.2050 H   0  0  0  0  0  0
  -28.6353  -26.2278   22.0762 H   0  0  0  0  0  0
  -29.0371  -15.3990   21.1182 H   0  0  0  0  0  0
  -31.1508  -19.4045   20.5456 H   0  0  0  0  0  0
  1 25  1  0  0  0
  1 30  2  0  0  0
  1 86  1  0  0  0
  2  3  1  0  0  0
  2 25  1  0  0  0
  2 88  1  0  0  0
  2 89  1  0  0  0
  3  4  1  0  0  0
  3 90  1  0  0  0
  3 91  1  0  0  0
  4  5  1  0  0  0
  4 92  1  0  0  0
  4 93  1  0  0  0
  5  6  1  0  0  0
  5 26  1  0  0  0
  5 94  1  0  0  0
  6 25  1  0  0  0
  6 95  1  0  0  0
  6 96  1  0  0  0
  7  8  2  0  0  0
  7 26  1  0  0  0
  7 29  1  0  0  0
  8  9  1  0  0  0
  8 22  1  0  0  0
  9 10  1  0  0  0
  9 27  2  0  0  0
 10 11  2  0  0  0
 10 15  1  0  0  0
 11 12  1  0  0  0
 11 97  1  0  0  0
 12 13  2  0  0  0
 12 98  1  0  0  0
 13 14  1  0  0  0
 13 31  1  0  0  0
 14 15  2  0  0  0
 14 99  1  0  0  0
 15100  1  0  0  0
 16 17  2  0  0  0
 16 21  1  0  0  0
 16 31  1  0  0  0
 17 18  1  0  0  0
 17101  1  0  0  0
 18 19  2  0  0  0
 18102  1  0  0  0
 19 20  1  0  0  0
 19 24  1  0  0  0
 20 21  2  0  0  0
 20103  1  0  0  0
 21 23  1  0  0  0
 22 28  1  0  0  0
 22 32  2  0  0  0
 26 27  1  0  0  0
 28104  1  0  0  0
 28105  1  0  0  0
 29106  1  0  0  0
 29107  1  0  0  0
 33 34  1  0  0  0
 33 66  1  0  0  0
 33 70  2  0  0  0
 34 36  1  0  0  0
 34 59  1  0  0  0
 34108  1  0  0  0
 35 44  2  0  0  0
 35 45  1  0  0  0
 35 68  1  0  0  0
 36 56  1  0  0  0
 36109  1  0  0  0
 37 39  1  0  0  0
 37 47  1  0  0  0
 37 66  1  0  0  0
 37110  1  0  0  0
 38 43  2  0  0  0
 38 46  1  0  0  0
 38 47  1  0  0  0
 39 64  1  0  0  0
 39 67  2  0  0  0
 40 52  1  0  0  0
 40 53  2  0  0  0
 40 58  1  0  0  0
 41111  1  0  0  0
 41112  1  0  0  0
 41113  1  0  0  0
 41 48  1  0  0  0
 42 43  1  0  0  0
 42 66  1  0  0  0
 42114  1  0  0  0
 42115  1  0  0  0
 43 44  1  0  0  0
 44116  1  0  0  0
 45 46  2  0  0  0
 45117  1  0  0  0
 46118  1  0  0  0
 47119  1  0  0  0
 47120  1  0  0  0
 48 56  1  0  0  0
 48 65  1  0  0  0
 48121  1  0  0  0
 49 50  1  0  0  0
 49 53  1  0  0  0
 49 64  1  0  0  0
 49122  1  0  0  0
 50 51  1  0  0  0
 50123  1  0  0  0
 50124  1  0  0  0
 51 52  1  0  0  0
 51125  1  0  0  0
 51126  1  0  0  0
 52127  1  0  0  0
 52128  1  0  0  0
 53 54  1  0  0  0
 54 55  2  0  0  0
 54129  1  0  0  0
 55 57  1  0  0  0
 55130  1  0  0  0
 56 69  2  0  0  0
 57 58  2  0  0  0
 57131  1  0  0  0
 58132  1  0  0  0
 59 60  1  0  0  0
 59 61  1  0  0  0
 59 62  1  0  0  0
 60133  1  0  0  0
 60134  1  0  0  0
 60135  1  0  0  0
 61136  1  0  0  0
 61137  1  0  0  0
 61138  1  0  0  0
 62139  1  0  0  0
 62140  1  0  0  0
 62141  1  0  0  0
 63 65  1  0  0  0
 63142  1  0  0  0
 63143  1  0  0  0
 63144  1  0  0  0
 64145  1  0  0  0
 65146  1  0  0  0
 68 85  1  0  0  0
 71 72  1  0  0  0
 71 73  1  0  0  0
 71147  1  0  0  0
 71148  1  0  0  0
 72 75  1  0  0  0
 72149  1  0  0  0
 72150  1  0  0  0
 73 87  1  0  0  0
 73151  1  0  0  0
 73152  1  0  0  0
 74 75  1  0  0  0
 74 87  1  0  0  0
 74153  1  0  0  0
 74154  1  0  0  0
 75 86  1  0  0  0
 75155  1  0  0  0
 76 79  1  0  0  0
 76156  1  0  0  0
 76157  1  0  0  0
 76158  1  0  0  0
 77159  1  0  0  0
 77160  1  0  0  0
 77161  1  0  0  0
 77 83  1  0  0  0
 78162  1  0  0  0
 78163  1  0  0  0
 78164  1  0  0  0
 78 84  1  0  0  0
 79165  1  0  0  0
 79166  1  0  0  0
 79 85  1  0  0  0
 80 83  1  0  0  0
 80 84  1  0  0  0
 80167  1  0  0  0
 80168  1  0  0  0
 81 83  1  0  0  0
 81 85  1  0  0  0
 81169  1  0  0  0
 81170  1  0  0  0
 82 84  1  0  0  0
 82171  1  0  0  0
 82172  1  0  0  0
 82 87  1  0  0  0
 83173  1  0  0  0
 84174  1  0  0  0
 85175  1  0  0  0
 86176  1  0  0  0
 87177  1  0  0  0
M  CHG  1  87   1
M  ISO  4   1 100  68 101  85 101  86 100
M  END
> <chiral flag>
0

> <version>
0

> <s_m_source_file>
/data/baiqing/PycharmProjects/Reinvent-master-3.2/result/LINK_invent/BTK/process_docking_weight1_custom_sum_contain_oxygen_bond_distance_aromatic_linkinvent_7_9_3/rearranged_h_0102.sdf

> <i_m_source_file_index>
19

> <r_mmod_Potential_Energy-OPLS-2005>
-24.5304756164551

> <r_mmod_Stretch_Energy-OPLS-2005>
46.1670227050781

> <r_mmod_Bend_Energy-OPLS-2005>
128.76708984375

> <r_mmod_Torsional_Energy-OPLS-2005>
320.466400146484

> <r_mmod_Improper_Torsional_Energy-OPLS-2005>
7.76664638519287

> <r_mmod_Van_der_Waal_Energy-OPLS-2005>
139.834167480469

> <r_mmod_Electrostatic_Energy-OPLS-2005>
-254.664840698242

> <r_mmod_Solvation_Energy-OPLS-2005>
-430.352813720703

> <b_mmod_Minimization_Converged-OPLS-2005>
0

> <r_mmod_RMS_Derivative-OPLS-2005>
1.51333677768707

$$$$
19
                    3D
 Structure written by MMmdl.
170178  0  0  1  0            999 V2000
  -30.6343  -14.6468   20.5054 C   0  0  0  0  0  0
  -30.4296  -12.4069   19.4803 C   0  0  0  0  0  0
  -29.5163  -12.5159   18.2471 C   0  0  0  0  0  0
  -28.0427  -12.3207   18.6545 C   0  0  0  0  0  0
  -27.6445  -13.1980   19.8618 C   0  0  2  0  0  0
  -28.6796  -13.0500   21.0065 C   0  0  0  0  0  0
  -25.2296  -13.7745   20.5265 C   0  0  0  0  0  0
  -24.1753  -13.0337   20.9103 C   0  0  0  0  0  0
  -24.6405  -11.6753   20.8786 C   0  0  0  0  0  0
  -23.9007  -10.4230   21.0419 C   0  0  0  0  0  0
  -24.3627   -9.4127   21.9221 C   0  0  0  0  0  0
  -23.6354   -8.2193   22.0780 C   0  0  0  0  0  0
  -22.4261   -8.0308   21.3533 C   0  0  0  0  0  0
  -21.9886   -9.0235   20.4567 C   0  0  0  0  0  0
  -22.7176  -10.2107   20.2979 C   0  0  0  0  0  0
  -21.6938   -6.0704   22.5280 C   0  0  0  0  0  0
  -21.4027   -6.5641   23.8208 C   0  0  0  0  0  0
  -21.3650   -5.6795   24.9171 C   0  0  0  0  0  0
  -21.6042   -4.3048   24.7212 C   0  0  0  0  0  0
  -21.8797   -3.8131   23.4346 C   0  0  0  0  0  0
  -21.9223   -4.6936   22.3411 C   0  0  0  0  0  0
  -22.7776  -13.4948   21.1918 C   0  0  0  0  0  0
  -22.1673   -4.2153   21.1003 F   0  0  0  0  0  0
  -21.5656   -3.4528   25.7754 F   0  0  0  0  0  0
  -29.9913  -13.4373   20.4455 N   0  0  0  0  0  0
  -26.2977  -12.9144   20.3091 N   0  0  0  0  0  0
  -25.9369  -11.6413   20.5817 N   0  0  0  0  0  0
  -22.0492  -12.8032   22.0448 N   0  0  0  0  0  0
  -25.3667  -15.1467   20.2889 N   0  0  0  0  0  0
  -31.8215  -14.7150   20.1697 O   0  0  0  0  0  0
  -21.6631   -6.8827   21.4213 O   0  0  0  0  0  0
  -22.3418  -14.5297   20.6903 O   0  0  0  0  0  0
  -24.5921  -31.8487   23.2089 C   0  0  0  0  0  0
  -25.8883  -32.4655   23.8326 C   0  0  1  0  0  0
  -27.1741  -27.3586   20.1048 C   0  0  0  0  0  0
  -25.5766  -33.8531   24.2218 N   0  0  0  0  0  0
  -23.4116  -30.4286   21.5253 C   0  0  2  0  0  0
  -24.9132  -29.0340   20.0013 C   0  0  0  0  0  0
  -22.7005  -29.4241   22.4603 C   0  0  0  0  0  0
  -17.9338  -28.1619   22.9461 C   0  0  0  0  0  0
  -24.1500  -36.7223   23.2657 C   0  0  0  0  0  0
  -25.9227  -30.8176   21.3940 C   0  0  0  0  0  0
  -26.0392  -29.4634   20.7141 C   0  0  0  0  0  0
  -27.1903  -28.6107   20.7755 C   0  0  0  0  0  0
  -26.2147  -27.1758   19.0924 C   0  0  0  0  0  0
  -25.0334  -27.9313   19.1367 C   0  0  0  0  0  0
  -23.6425  -29.8326   20.1186 C   0  0  0  0  0  0
  -25.4105  -36.3034   24.0346 C   0  0  1  0  0  0
  -20.4976  -28.3234   23.0536 C   0  0  2  0  0  0
  -20.5153  -26.8837   22.3932 C   0  0  0  0  0  0
  -19.3165  -26.7465   21.4637 C   0  0  0  0  0  0
  -18.0657  -26.8071   22.3357 C   0  0  0  0  0  0
  -19.1003  -28.9112   23.2389 C   0  0  0  0  0  0
  -18.9261  -30.2100   23.7965 C   0  0  0  0  0  0
  -17.6324  -30.7298   24.0340 C   0  0  0  0  0  0
  -25.9013  -34.9414   23.5133 C   0  0  0  0  0  0
  -16.4879  -29.9707   23.7954 C   0  0  0  0  0  0
  -16.6384  -28.6746   23.2501 C   0  0  0  0  0  0
  -26.4436  -31.6539   25.0765 C   0  0  0  0  0  0
  -25.3557  -31.3746   26.1410 C   0  0  0  0  0  0
  -27.0189  -30.2850   24.6291 C   0  0  0  0  0  0
  -27.6008  -32.4268   25.7437 C   0  0  0  0  0  0
  -27.5549  -37.1760   24.8450 C   0  0  0  0  0  0
  -21.3532  -29.2657   22.3229 N   0  0  0  0  0  0
  -26.4236  -37.3694   23.9456 N   0  0  0  0  0  0
  -24.6538  -31.0358   22.1089 N   0  0  0  0  0  0
  -23.3804  -28.8061   23.2858 O   0  0  0  0  0  0
  -27.6588  -26.1823   20.6735 O   0  0  0  0  0  0
  -26.5601  -34.8846   22.4727 O   0  0  0  0  0  0
  -23.5183  -32.1271   23.7601 O   0  0  0  0  0  0
  -25.7185  -21.0196   23.5761 C   0  0  0  0  0  0
  -26.0403  -19.6322   23.4659 C   0  0  0  0  0  0
  -26.4122  -19.1299   22.1915 C   0  0  0  0  0  0
  -25.8509  -21.8902   22.4400 C   0  0  0  0  0  0
  -26.4317  -20.0492   21.1019 C   0  0  0  0  0  0
  -25.9441  -18.7040   24.7106 C   0  0  0  0  0  0
  -26.4042  -19.6657   19.6346 C   0  0  0  0  0  0
  -23.9331  -25.2751   21.3243 C   0  0  0  0  0  0
  -30.4125  -17.0061   19.7749 C   0  0  0  0  0  0
  -26.7564  -17.6270   22.0618 C   0  0  0  0  0  0
  -24.9953  -23.1872   22.3394 C   0  0  0  0  0  0
  -28.0597  -17.4266   21.2755 C   0  0  0  0  0  0
  -28.8080  -16.1091   21.4815 C   0  0  0  0  0  0
  -26.5538  -25.0846   20.8308 C   0  0  0  0  0  0
  -25.3496  -24.6756   21.9011 C   0  0  1  0  0  0
  -26.2223  -21.3682   21.2538 N   0  0  0  0  0  0
  -29.8774  -15.8028   20.4925 N   0  0  0  0  0  0
  -31.4720  -12.5223   19.2065 H   0  0  0  0  0  0
  -30.3654  -11.4310   19.9520 H   0  0  0  0  0  0
  -29.8181  -11.7968   17.4944 H   0  0  0  0  0  0
  -29.6453  -13.5066   17.7960 H   0  0  0  0  0  0
  -27.9366  -11.2707   18.9362 H   0  0  0  0  0  0
  -27.3810  -12.4835   17.8023 H   0  0  0  0  0  0
  -27.6397  -14.2202   19.4963 H   0  0  0  0  0  0
  -28.7135  -12.0061   21.3284 H   0  0  0  0  0  0
  -28.4374  -13.5951   21.9219 H   0  0  0  0  0  0
  -25.2757   -9.5749   22.4744 H   0  0  0  0  0  0
  -24.0063   -7.4573   22.7497 H   0  0  0  0  0  0
  -21.0801   -8.8681   19.8878 H   0  0  0  0  0  0
  -22.3620  -10.9641   19.6121 H   0  0  0  0  0  0
  -21.1986   -7.6146   23.9697 H   0  0  0  0  0  0
  -21.1505   -6.0523   25.9059 H   0  0  0  0  0  0
  -22.0587   -2.7629   23.2848 H   0  0  0  0  0  0
  -22.4209  -11.9741   22.4815 H   0  0  0  0  0  0
  -21.1085  -13.0927   22.2771 H   0  0  0  0  0  0
  -24.5603  -15.7474   20.3570 H   0  0  0  0  0  0
  -26.1720  -15.6005   19.8981 H   0  0  0  0  0  0
  -26.7008  -32.5375   23.1143 H   0  0  0  0  0  0
  -24.9855  -33.9688   25.0326 H   0  0  0  0  0  0
  -22.6754  -31.2230   21.4027 H   0  0  0  0  0  0
  -23.3753  -35.9521   23.3283 H   0  0  0  0  0  0
  -24.3620  -36.8871   22.2052 H   0  0  0  0  0  0
  -23.7245  -37.6409   23.6730 H   0  0  0  0  0  0
  -26.0803  -31.6384   20.6951 H   0  0  0  0  0  0
  -26.7719  -30.8399   22.0540 H   0  0  0  0  0  0
  -27.9785  -28.8910   21.4708 H   0  0  0  0  0  0
  -26.2519  -26.2240   18.6021 H   0  0  0  0  0  0
  -24.2454  -27.6605   18.4471 H   0  0  0  0  0  0
  -23.6889  -30.6521   19.4086 H   0  0  0  0  0  0
  -22.7929  -29.2370   19.7916 H   0  0  0  0  0  0
  -25.1344  -36.1799   25.0783 H   0  0  0  0  0  0
  -20.7989  -28.2135   24.0950 H   0  0  0  0  0  0
  -20.4097  -26.1278   23.1743 H   0  0  0  0  0  0
  -21.3843  -26.5107   21.8936 H   0  0  0  0  0  0
  -19.2554  -25.8198   20.8931 H   0  0  0  0  0  0
  -19.2565  -27.5142   20.7181 H   0  0  0  0  0  0
  -17.1339  -26.6044   21.8287 H   0  0  0  0  0  0
  -18.0585  -26.0848   23.1585 H   0  0  0  0  0  0
  -19.7668  -30.8497   23.9899 H   0  0  0  0  0  0
  -17.4947  -31.6902   24.5107 H   0  0  0  0  0  0
  -15.5136  -30.3267   24.1207 H   0  0  0  0  0  0
  -15.7338  -28.1010   23.0922 H   0  0  0  0  0  0
  -24.5785  -30.7051   25.7727 H   0  0  0  0  0  0
  -24.8721  -32.2945   26.4629 H   0  0  0  0  0  0
  -25.7861  -30.9033   27.0242 H   0  0  0  0  0  0
  -26.2774  -29.6486   24.1381 H   0  0  0  0  0  0
  -27.3813  -29.7273   25.4955 H   0  0  0  0  0  0
  -27.8751  -30.3951   23.9607 H   0  0  0  0  0  0
  -27.2615  -33.3577   26.1935 H   0  0  0  0  0  0
  -28.3801  -32.6666   25.0211 H   0  0  0  0  0  0
  -28.0584  -31.8331   26.5327 H   0  0  0  0  0  0
  -28.2529  -38.0082   24.7531 H   0  0  0  0  0  0
  -28.1112  -36.2644   24.6289 H   0  0  0  0  0  0
  -27.2308  -37.1370   25.8844 H   0  0  0  0  0  0
  -20.8476  -29.8720   21.6834 H   0  0  0  0  0  0
  -26.0136  -38.2753   24.1424 H   0  0  0  0  0  0
  -25.2921  -21.3886   24.5045 H   0  0  0  0  0  0
  -25.0061  -18.7445   25.2597 H   0  0  0  0  0  0
  -26.7854  -18.9138   25.3698 H   0  0  0  0  0  0
  -25.9771  -17.6388   24.5388 H   0  0  0  0  0  0
  -26.8535  -18.7379   19.3479 H   0  0  0  0  0  0
  -26.8955  -20.4150   19.0142 H   0  0  0  0  0  0
  -25.3615  -19.5340   19.3536 H   0  0  0  0  0  0
  -23.0964  -24.5863   21.4034 H   0  0  0  0  0  0
  -23.9821  -25.5908   20.2609 H   0  0  0  0  0  0
  -23.6041  -26.1893   21.8606 H   0  0  0  0  0  0
  -29.6519  -17.6795   19.3883 H   0  0  0  0  0  0
  -31.0082  -16.7496   18.8999 H   0  0  0  0  0  0
  -31.0548  -17.5968   20.4301 H   0  0  0  0  0  0
  -25.8698  -17.0604   21.7321 H   0  0  0  0  0  0
  -27.0967  -17.1651   22.9878 H   0  0  0  0  0  0
  -24.3679  -23.1918   23.2464 H   0  0  0  0  0  0
  -24.2487  -22.8592   21.6146 H   0  0  0  0  0  0
  -28.7188  -18.2825   21.4659 H   0  0  0  0  0  0
  -27.8114  -17.3163   20.2396 H   0  0  0  0  0  0
  -27.9971  -15.4214   21.3761 H   0  0  0  0  0  0
  -29.2035  -16.0253   22.4866 H   0  0  0  0  0  0
  -25.8656  -25.8871   20.8887 H   0  0  0  0  0  0
  -26.3501  -24.5941   19.8839 H   0  0  0  0  0  0
  -25.5315  -25.2479   22.8245 H   0  0  0  0  0  0
  1 25  1  0  0  0
  1 30  2  0  0  0
  1 87  1  0  0  0
  2  3  1  0  0  0
  2 25  1  0  0  0
  2 88  1  0  0  0
  2 89  1  0  0  0
  3  4  1  0  0  0
  3 90  1  0  0  0
  3 91  1  0  0  0
  4  5  1  0  0  0
  4 92  1  0  0  0
  4 93  1  0  0  0
  5  6  1  0  0  0
  5 26  1  0  0  0
  5 94  1  0  0  0
  6 25  1  0  0  0
  6 95  1  0  0  0
  6 96  1  0  0  0
  7  8  2  0  0  0
  7 26  1  0  0  0
  7 29  1  0  0  0
  8  9  1  0  0  0
  8 22  1  0  0  0
  9 10  1  0  0  0
  9 27  2  0  0  0
 10 11  2  0  0  0
 10 15  1  0  0  0
 11 12  1  0  0  0
 11 97  1  0  0  0
 12 13  2  0  0  0
 12 98  1  0  0  0
 13 14  1  0  0  0
 13 31  1  0  0  0
 14 15  2  0  0  0
 14 99  1  0  0  0
 15100  1  0  0  0
 16 17  2  0  0  0
 16 21  1  0  0  0
 16 31  1  0  0  0
 17 18  1  0  0  0
 17101  1  0  0  0
 18 19  2  0  0  0
 18102  1  0  0  0
 19 20  1  0  0  0
 19 24  1  0  0  0
 20 21  2  0  0  0
 20103  1  0  0  0
 21 23  1  0  0  0
 22 28  1  0  0  0
 22 32  2  0  0  0
 26 27  1  0  0  0
 28104  1  0  0  0
 28105  1  0  0  0
 29106  1  0  0  0
 29107  1  0  0  0
 33 34  1  0  0  0
 33 66  1  0  0  0
 33 70  2  0  0  0
 34 36  1  0  0  0
 34 59  1  0  0  0
 34108  1  0  0  0
 35 44  2  0  0  0
 35 45  1  0  0  0
 35 68  1  0  0  0
 36 56  1  0  0  0
 36109  1  0  0  0
 37 39  1  0  0  0
 37 47  1  0  0  0
 37 66  1  0  0  0
 37110  1  0  0  0
 38 43  2  0  0  0
 38 46  1  0  0  0
 38 47  1  0  0  0
 39 64  1  0  0  0
 39 67  2  0  0  0
 40 52  1  0  0  0
 40 53  2  0  0  0
 40 58  1  0  0  0
 41111  1  0  0  0
 41112  1  0  0  0
 41113  1  0  0  0
 41 48  1  0  0  0
 42 43  1  0  0  0
 42 66  1  0  0  0
 42114  1  0  0  0
 42115  1  0  0  0
 43 44  1  0  0  0
 44116  1  0  0  0
 45 46  2  0  0  0
 45117  1  0  0  0
 46118  1  0  0  0
 47119  1  0  0  0
 47120  1  0  0  0
 48 56  1  0  0  0
 48 65  1  0  0  0
 48121  1  0  0  0
 49 50  1  0  0  0
 49 53  1  0  0  0
 49 64  1  0  0  0
 49122  1  0  0  0
 50 51  1  0  0  0
 50123  1  0  0  0
 50124  1  0  0  0
 51 52  1  0  0  0
 51125  1  0  0  0
 51126  1  0  0  0
 52127  1  0  0  0
 52128  1  0  0  0
 53 54  1  0  0  0
 54 55  2  0  0  0
 54129  1  0  0  0
 55 57  1  0  0  0
 55130  1  0  0  0
 56 69  2  0  0  0
 57 58  2  0  0  0
 57131  1  0  0  0
 58132  1  0  0  0
 59 60  1  0  0  0
 59 61  1  0  0  0
 59 62  1  0  0  0
 60133  1  0  0  0
 60134  1  0  0  0
 60135  1  0  0  0
 61136  1  0  0  0
 61137  1  0  0  0
 61138  1  0  0  0
 62139  1  0  0  0
 62140  1  0  0  0
 62141  1  0  0  0
 63 65  1  0  0  0
 63142  1  0  0  0
 63143  1  0  0  0
 63144  1  0  0  0
 64145  1  0  0  0
 65146  1  0  0  0
 68 84  1  0  0  0
 71 72  2  0  0  0
 71 74  1  0  0  0
 71147  1  0  0  0
 72 73  1  0  0  0
 72 76  1  0  0  0
 73 75  2  0  0  0
 73 80  1  0  0  0
 74 81  1  0  0  0
 74 86  2  0  0  0
 75 77  1  0  0  0
 75 86  1  0  0  0
 76148  1  0  0  0
 76149  1  0  0  0
 76150  1  0  0  0
 77151  1  0  0  0
 77152  1  0  0  0
 77153  1  0  0  0
 78154  1  0  0  0
 78155  1  0  0  0
 78156  1  0  0  0
 78 85  1  0  0  0
 79 87  1  0  0  0
 79157  1  0  0  0
 79158  1  0  0  0
 79159  1  0  0  0
 80 82  1  0  0  0
 80160  1  0  0  0
 80161  1  0  0  0
 81 85  1  0  0  0
 81162  1  0  0  0
 81163  1  0  0  0
 82 83  1  0  0  0
 82164  1  0  0  0
 82165  1  0  0  0
 83 87  1  0  0  0
 83166  1  0  0  0
 83167  1  0  0  0
 84 85  1  0  0  0
 84168  1  0  0  0
 84169  1  0  0  0
 85170  1  0  0  0
M  ISO  4   1 100  68 101  84 101  87 100
M  END
> <chiral flag>
0

> <version>
0

> <s_m_source_file>
/data/baiqing/PycharmProjects/Reinvent-master-3.2/result/LINK_invent/BTK/process_docking_weight1_custom_sum_contain_oxygen_bond_distance_aromatic_linkinvent_7_9_3/rearranged_h_0102.sdf

> <i_m_source_file_index>
20

> <r_mmod_Potential_Energy-OPLS-2005>
849.703796386719

> <r_mmod_Stretch_Energy-OPLS-2005>
149.504119873047

> <r_mmod_Bend_Energy-OPLS-2005>
411.269866943359

> <r_mmod_Torsional_Energy-OPLS-2005>
394.158721923828

> <r_mmod_Improper_Torsional_Energy-OPLS-2005>
31.7477207183838

> <r_mmod_Van_der_Waal_Energy-OPLS-2005>
274.408966064453

> <r_mmod_Electrostatic_Energy-OPLS-2005>
-450.191955566406

> <r_mmod_Solvation_Energy-OPLS-2005>
-210.570098876953

> <b_mmod_Minimization_Converged-OPLS-2005>
0

> <r_mmod_RMS_Derivative-OPLS-2005>
50.7836837768555

$$$$
20
                    3D
 Structure written by MMmdl.
173181  0  0  1  0            999 V2000
  -30.6004  -14.7447   20.4402 C   0  0  0  0  0  0
  -30.4289  -12.4491   19.4812 C   0  0  0  0  0  0
  -29.5105  -12.4995   18.2406 C   0  0  0  0  0  0
  -28.0365  -12.3254   18.6509 C   0  0  0  0  0  0
  -27.6399  -13.2316   19.8474 C   0  0  2  0  0  0
  -28.6812  -13.1707   20.9863 C   0  0  0  0  0  0
  -25.2497  -13.8214   20.5706 C   0  0  0  0  0  0
  -24.1790  -13.0450   20.9209 C   0  0  0  0  0  0
  -24.6377  -11.6926   20.8732 C   0  0  0  0  0  0
  -23.9053  -10.4300   21.0376 C   0  0  0  0  0  0
  -24.3612   -9.4217   21.9154 C   0  0  0  0  0  0
  -23.6300   -8.2239   22.0718 C   0  0  0  0  0  0
  -22.4276   -8.0250   21.3523 C   0  0  0  0  0  0
  -21.9909   -9.0221   20.4627 C   0  0  0  0  0  0
  -22.7219  -10.2107   20.3034 C   0  0  0  0  0  0
  -21.6854   -6.0709   22.5272 C   0  0  0  0  0  0
  -21.4028   -6.5623   23.8199 C   0  0  0  0  0  0
  -21.3661   -5.6771   24.9163 C   0  0  0  0  0  0
  -21.6045   -4.3040   24.7213 C   0  0  0  0  0  0
  -21.8833   -3.8130   23.4347 C   0  0  0  0  0  0
  -21.9211   -4.6946   22.3395 C   0  0  0  0  0  0
  -22.7800  -13.5208   21.1854 C   0  0  0  0  0  0
  -22.1673   -4.2132   21.0972 F   0  0  0  0  0  0
  -21.5611   -3.4512   25.7730 F   0  0  0  0  0  0
  -29.9813  -13.5168   20.4061 N   0  0  0  0  0  0
  -26.2910  -12.9420   20.3258 N   0  0  0  0  0  0
  -25.9308  -11.6572   20.5749 N   0  0  0  0  0  0
  -22.0481  -12.8202   22.0440 N   0  0  0  0  0  0
  -25.4211  -15.1935   20.4137 N   0  0  0  0  0  0
  -31.7855  -14.8433   20.1204 O   0  0  0  0  0  0
  -21.6646   -6.8844   21.4217 O   0  0  0  0  0  0
  -22.3496  -14.5478   20.6646 O   0  0  0  0  0  0
  -24.6325  -31.8541   23.1960 C   0  0  0  0  0  0
  -25.9159  -32.4739   23.8297 C   0  0  1  0  0  0
  -27.2135  -27.2594   20.1455 C   0  0  0  0  0  0
  -25.5959  -33.8537   24.2231 N   0  0  0  0  0  0
  -23.4259  -30.4776   21.5399 C   0  0  2  0  0  0
  -24.8651  -28.9083   20.1225 C   0  0  0  0  0  0
  -22.7489  -29.4626   22.4922 C   0  0  0  0  0  0
  -18.0304  -28.1387   22.8500 C   0  0  0  0  0  0
  -24.1494  -36.7270   23.2637 C   0  0  0  0  0  0
  -25.9681  -30.7698   21.3684 C   0  0  0  0  0  0
  -26.0377  -29.3877   20.7200 C   0  0  0  0  0  0
  -27.2168  -28.5785   20.7109 C   0  0  0  0  0  0
  -26.0173  -26.8333   19.5343 C   0  0  0  0  0  0
  -24.8596  -27.6395   19.5181 C   0  0  0  0  0  0
  -23.6402  -29.8033   20.1596 C   0  0  0  0  0  0
  -25.4138  -36.3059   24.0319 C   0  0  1  0  0  0
  -20.5903  -28.3709   23.1274 C   0  0  2  0  0  0
  -20.6792  -26.9427   22.5409 C   0  0  0  0  0  0
  -19.5765  -26.6390   21.5215 C   0  0  0  0  0  0
  -18.1944  -26.7929   22.1619 C   0  0  0  0  0  0
  -19.1550  -28.8870   23.2876 C   0  0  0  0  0  0
  -18.9464  -30.1468   23.8884 C   0  0  0  0  0  0
  -17.6458  -30.6581   24.0581 C   0  0  0  0  0  0
  -25.9092  -34.9429   23.5083 C   0  0  0  0  0  0
  -16.5362  -29.9076   23.6331 C   0  0  0  0  0  0
  -16.7287  -28.6501   23.0356 C   0  0  0  0  0  0
  -26.4538  -31.6556   25.0676 C   0  0  0  0  0  0
  -25.3760  -31.3681   26.1394 C   0  0  0  0  0  0
  -27.0377  -30.2968   24.6136 C   0  0  0  0  0  0
  -27.6106  -32.4302   25.7446 C   0  0  0  0  0  0
  -27.5583  -37.1798   24.8467 C   0  0  0  0  0  0
  -21.4201  -29.3045   22.3644 N   0  0  0  0  0  0
  -26.4300  -37.3775   23.9406 N   0  0  0  0  0  0
  -24.6947  -31.0529   22.0911 N   0  0  0  0  0  0
  -23.4197  -28.8202   23.3049 O   0  0  0  0  0  0
  -28.3538  -26.4409   20.0590 O   0  0  0  0  0  0
  -26.5640  -34.8937   22.4633 O   0  0  0  0  0  0
  -23.5472  -32.1333   23.7269 O   0  0  0  0  0  0
  -29.3952  -22.6389   18.4409 C   0  0  0  0  0  0
  -30.1635  -21.6176   17.8703 C   0  0  0  0  0  0
  -30.3248  -20.3762   18.5552 C   0  0  0  0  0  0
  -28.7051  -22.4458   19.6386 C   0  0  0  0  0  0
  -29.5080  -20.1176   19.7147 C   0  0  0  0  0  0
  -30.7438  -21.9142   16.4933 C   0  0  0  0  0  0
  -25.5741  -22.3418   20.4071 C   0  0  0  0  0  0
  -33.3723  -20.8096   18.6359 C   0  0  0  0  0  0
  -33.6788  -18.6234   17.3971 C   0  0  0  0  0  0
  -31.3448  -19.3557   18.0216 C   0  0  0  0  0  0
  -29.2739  -18.6432   20.3745 C   0  0  0  0  0  0
  -26.6183  -23.2880   21.0234 C   0  0  0  0  0  0
  -30.1943  -17.3039   20.1338 C   0  0  0  0  0  0
  -28.4718  -25.0581   20.6381 C   0  0  0  0  0  0
  -27.7938  -23.6863   20.0983 C   0  0  1  0  0  0
  -32.7589  -19.8356   17.6127 C   0  0  0  0  0  0
  -28.7585  -21.1828   20.2394 N   0  0  0  0  0  0
  -29.8209  -15.8869   20.5837 N   0  0  0  0  0  0
  -31.4725  -12.5650   19.1848 H   0  0  0  0  0  0
  -30.3610  -11.4751   19.9678 H   0  0  0  0  0  0
  -29.7972  -11.7248   17.5290 H   0  0  0  0  0  0
  -29.6366  -13.4552   17.7272 H   0  0  0  0  0  0
  -27.8985  -11.2771   18.9189 H   0  0  0  0  0  0
  -27.3800  -12.5096   17.8004 H   0  0  0  0  0  0
  -27.6344  -14.2521   19.4632 H   0  0  0  0  0  0
  -28.7168  -12.1755   21.4303 H   0  0  0  0  0  0
  -28.4179  -13.8568   21.7918 H   0  0  0  0  0  0
  -25.2752   -9.5694   22.4726 H   0  0  0  0  0  0
  -24.0022   -7.4634   22.7422 H   0  0  0  0  0  0
  -21.0837   -8.8718   19.8947 H   0  0  0  0  0  0
  -22.3659  -10.9623   19.6135 H   0  0  0  0  0  0
  -21.2011   -7.6135   23.9698 H   0  0  0  0  0  0
  -21.1475   -6.0501   25.9063 H   0  0  0  0  0  0
  -22.0620   -2.7598   23.2845 H   0  0  0  0  0  0
  -22.4169  -11.9907   22.4855 H   0  0  0  0  0  0
  -21.1054  -13.1142   22.2565 H   0  0  0  0  0  0
  -24.6473  -15.8416   20.4974 H   0  0  0  0  0  0
  -26.2569  -15.6308   20.0467 H   0  0  0  0  0  0
  -26.7226  -32.5394   23.1041 H   0  0  0  0  0  0
  -25.0143  -33.9661   25.0403 H   0  0  0  0  0  0
  -22.7225  -31.2996   21.3957 H   0  0  0  0  0  0
  -23.3771  -35.9585   23.3287 H   0  0  0  0  0  0
  -24.3585  -36.8893   22.2053 H   0  0  0  0  0  0
  -23.7257  -37.6473   23.6673 H   0  0  0  0  0  0
  -26.1010  -31.5293   20.5953 H   0  0  0  0  0  0
  -26.8497  -30.8201   21.9972 H   0  0  0  0  0  0
  -28.1254  -28.9565   21.1551 H   0  0  0  0  0  0
  -25.9782  -25.8693   19.0475 H   0  0  0  0  0  0
  -23.9627  -27.2730   19.0356 H   0  0  0  0  0  0
  -23.7640  -30.5764   19.3996 H   0  0  0  0  0  0
  -22.7549  -29.2385   19.8626 H   0  0  0  0  0  0
  -25.1331  -36.1878   25.0816 H   0  0  0  0  0  0
  -21.0005  -28.3284   24.1396 H   0  0  0  0  0  0
  -20.5706  -26.2311   23.3617 H   0  0  0  0  0  0
  -21.6658  -26.7456   22.1200 H   0  0  0  0  0  0
  -19.6913  -25.6301   21.1240 H   0  0  0  0  0  0
  -19.6685  -27.3216   20.6764 H   0  0  0  0  0  0
  -17.4221  -26.6706   21.4016 H   0  0  0  0  0  0
  -18.0316  -26.0071   22.9007 H   0  0  0  0  0  0
  -19.7949  -30.7303   24.2206 H   0  0  0  0  0  0
  -17.5023  -31.6260   24.5188 H   0  0  0  0  0  0
  -15.5358  -30.2977   23.7658 H   0  0  0  0  0  0
  -15.8701  -28.0828   22.7041 H   0  0  0  0  0  0
  -24.5989  -30.6964   25.7727 H   0  0  0  0  0  0
  -24.8894  -32.2819   26.4801 H   0  0  0  0  0  0
  -25.8091  -30.8893   27.0173 H   0  0  0  0  0  0
  -26.2909  -29.6709   24.1220 H   0  0  0  0  0  0
  -27.4120  -29.7266   25.4646 H   0  0  0  0  0  0
  -27.8780  -30.4260   23.9311 H   0  0  0  0  0  0
  -27.2726  -33.3632   26.1982 H   0  0  0  0  0  0
  -28.3933  -32.6787   25.0265 H   0  0  0  0  0  0
  -28.0746  -31.8425   26.5376 H   0  0  0  0  0  0
  -28.2607  -38.0090   24.7545 H   0  0  0  0  0  0
  -28.1058  -36.2623   24.6261 H   0  0  0  0  0  0
  -27.2277  -37.1429   25.8860 H   0  0  0  0  0  0
  -20.9349  -29.8711   21.6820 H   0  0  0  0  0  0
  -26.0144  -38.2822   24.1443 H   0  0  0  0  0  0
  -29.3115  -23.5897   17.9317 H   0  0  0  0  0  0
  -30.1462  -22.6657   15.9762 H   0  0  0  0  0  0
  -30.7414  -21.0326   15.8509 H   0  0  0  0  0  0
  -31.7551  -22.3132   16.5650 H   0  0  0  0  0  0
  -24.7826  -22.1182   21.1226 H   0  0  0  0  0  0
  -26.0180  -21.3928   20.1047 H   0  0  0  0  0  0
  -25.1057  -22.7889   19.5301 H   0  0  0  0  0  0
  -34.3773  -21.1095   18.3422 H   0  0  0  0  0  0
  -33.4397  -20.3486   19.6216 H   0  0  0  0  0  0
  -32.7814  -21.7194   18.7437 H   0  0  0  0  0  0
  -34.6346  -18.9215   16.9660 H   0  0  0  0  0  0
  -33.2248  -17.9006   16.7158 H   0  0  0  0  0  0
  -33.8869  -18.1065   18.3350 H   0  0  0  0  0  0
  -30.8928  -18.7347   17.2463 H   0  0  0  0  0  0
  -31.6129  -18.7283   18.8510 H   0  0  0  0  0  0
  -28.2588  -18.3628   20.0904 H   0  0  0  0  0  0
  -29.2211  -18.8089   21.4509 H   0  0  0  0  0  0
  -27.0160  -22.8528   21.9411 H   0  0  0  0  0  0
  -26.0940  -24.1925   21.3292 H   0  0  0  0  0  0
  -31.1865  -17.4994   20.5438 H   0  0  0  0  0  0
  -30.2911  -17.1600   19.0598 H   0  0  0  0  0  0
  -29.5458  -24.8661   20.6111 H   0  0  0  0  0  0
  -28.2665  -25.1441   21.7061 H   0  0  0  0  0  0
  -27.3197  -23.9903   19.1643 H   0  0  0  0  0  0
  -32.7208  -20.3351   16.6492 H   0  0  0  0  0  0
  -28.8565  -15.7272   20.8306 H   0  0  0  0  0  0
  1 25  1  0  0  0
  1 30  2  0  0  0
  1 88  1  0  0  0
  2  3  1  0  0  0
  2 25  1  0  0  0
  2 89  1  0  0  0
  2 90  1  0  0  0
  3  4  1  0  0  0
  3 91  1  0  0  0
  3 92  1  0  0  0
  4  5  1  0  0  0
  4 93  1  0  0  0
  4 94  1  0  0  0
  5  6  1  0  0  0
  5 26  1  0  0  0
  5 95  1  0  0  0
  6 25  1  0  0  0
  6 96  1  0  0  0
  6 97  1  0  0  0
  7  8  2  0  0  0
  7 26  1  0  0  0
  7 29  1  0  0  0
  8  9  1  0  0  0
  8 22  1  0  0  0
  9 10  1  0  0  0
  9 27  2  0  0  0
 10 11  2  0  0  0
 10 15  1  0  0  0
 11 12  1  0  0  0
 11 98  1  0  0  0
 12 13  2  0  0  0
 12 99  1  0  0  0
 13 14  1  0  0  0
 13 31  1  0  0  0
 14 15  2  0  0  0
 14100  1  0  0  0
 15101  1  0  0  0
 16 17  2  0  0  0
 16 21  1  0  0  0
 16 31  1  0  0  0
 17 18  1  0  0  0
 17102  1  0  0  0
 18 19  2  0  0  0
 18103  1  0  0  0
 19 20  1  0  0  0
 19 24  1  0  0  0
 20 21  2  0  0  0
 20104  1  0  0  0
 21 23  1  0  0  0
 22 28  1  0  0  0
 22 32  2  0  0  0
 26 27  1  0  0  0
 28105  1  0  0  0
 28106  1  0  0  0
 29107  1  0  0  0
 29108  1  0  0  0
 33 34  1  0  0  0
 33 66  1  0  0  0
 33 70  2  0  0  0
 34 36  1  0  0  0
 34 59  1  0  0  0
 34109  1  0  0  0
 35 44  2  0  0  0
 35 45  1  0  0  0
 35 68  1  0  0  0
 36 56  1  0  0  0
 36110  1  0  0  0
 37 39  1  0  0  0
 37 47  1  0  0  0
 37 66  1  0  0  0
 37111  1  0  0  0
 38 43  2  0  0  0
 38 46  1  0  0  0
 38 47  1  0  0  0
 39 64  1  0  0  0
 39 67  2  0  0  0
 40 52  1  0  0  0
 40 53  2  0  0  0
 40 58  1  0  0  0
 41112  1  0  0  0
 41113  1  0  0  0
 41114  1  0  0  0
 41 48  1  0  0  0
 42 43  1  0  0  0
 42 66  1  0  0  0
 42115  1  0  0  0
 42116  1  0  0  0
 43 44  1  0  0  0
 44117  1  0  0  0
 45 46  2  0  0  0
 45118  1  0  0  0
 46119  1  0  0  0
 47120  1  0  0  0
 47121  1  0  0  0
 48 56  1  0  0  0
 48 65  1  0  0  0
 48122  1  0  0  0
 49 50  1  0  0  0
 49 53  1  0  0  0
 49 64  1  0  0  0
 49123  1  0  0  0
 50 51  1  0  0  0
 50124  1  0  0  0
 50125  1  0  0  0
 51 52  1  0  0  0
 51126  1  0  0  0
 51127  1  0  0  0
 52128  1  0  0  0
 52129  1  0  0  0
 53 54  1  0  0  0
 54 55  2  0  0  0
 54130  1  0  0  0
 55 57  1  0  0  0
 55131  1  0  0  0
 56 69  2  0  0  0
 57 58  2  0  0  0
 57132  1  0  0  0
 58133  1  0  0  0
 59 60  1  0  0  0
 59 61  1  0  0  0
 59 62  1  0  0  0
 60134  1  0  0  0
 60135  1  0  0  0
 60136  1  0  0  0
 61137  1  0  0  0
 61138  1  0  0  0
 61139  1  0  0  0
 62140  1  0  0  0
 62141  1  0  0  0
 62142  1  0  0  0
 63 65  1  0  0  0
 63143  1  0  0  0
 63144  1  0  0  0
 63145  1  0  0  0
 64146  1  0  0  0
 65147  1  0  0  0
 68 84  1  0  0  0
 71 72  2  0  0  0
 71 74  1  0  0  0
 71148  1  0  0  0
 72 73  1  0  0  0
 72 76  1  0  0  0
 73 75  2  0  0  0
 73 80  1  0  0  0
 74 85  1  0  0  0
 74 87  2  0  0  0
 75 81  1  0  0  0
 75 87  1  0  0  0
 76149  1  0  0  0
 76150  1  0  0  0
 76151  1  0  0  0
 77 82  1  0  0  0
 77152  1  0  0  0
 77153  1  0  0  0
 77154  1  0  0  0
 78155  1  0  0  0
 78156  1  0  0  0
 78157  1  0  0  0
 78 86  1  0  0  0
 79 86  1  0  0  0
 79158  1  0  0  0
 79159  1  0  0  0
 79160  1  0  0  0
 80 86  1  0  0  0
 80161  1  0  0  0
 80162  1  0  0  0
 81 83  1  0  0  0
 81163  1  0  0  0
 81164  1  0  0  0
 82165  1  0  0  0
 82166  1  0  0  0
 82 85  1  0  0  0
 83 88  1  0  0  0
 83167  1  0  0  0
 83168  1  0  0  0
 84 85  1  0  0  0
 84169  1  0  0  0
 84170  1  0  0  0
 85171  1  0  0  0
 86172  1  0  0  0
 88173  1  0  0  0
M  ISO  4   1 100  68 101  84 101  88 100
M  END
> <chiral flag>
0

> <version>
0

> <s_m_source_file>
/data/baiqing/PycharmProjects/Reinvent-master-3.2/result/LINK_invent/BTK/process_docking_weight1_custom_sum_contain_oxygen_bond_distance_aromatic_linkinvent_7_9_3/rearranged_h_0102.sdf

> <i_m_source_file_index>
21

> <r_mmod_Potential_Energy-OPLS-2005>
187.455642700195

> <r_mmod_Stretch_Energy-OPLS-2005>
148.459075927734

> <r_mmod_Bend_Energy-OPLS-2005>
240.229598999023

> <r_mmod_Torsional_Energy-OPLS-2005>
254.293853759766

> <r_mmod_Improper_Torsional_Energy-OPLS-2005>
7.77583026885986

> <r_mmod_Van_der_Waal_Energy-OPLS-2005>
147.669708251953

> <r_mmod_Electrostatic_Energy-OPLS-2005>
-474.749389648438

> <r_mmod_Solvation_Energy-OPLS-2005>
-215.391891479492

> <b_mmod_Minimization_Converged-OPLS-2005>
0

> <r_mmod_RMS_Derivative-OPLS-2005>
4.21305990219116

$$$$
21
                    3D
 Structure written by MMmdl.
159167  0  0  1  0            999 V2000
  -30.4386  -15.0682   20.4155 C   0  0  0  0  0  0
  -30.4549  -12.6713   19.5422 C   0  0  0  0  0  0
  -29.5413  -12.5587   18.2969 C   0  0  0  0  0  0
  -28.0740  -12.3304   18.7077 C   0  0  0  0  0  0
  -27.6253  -13.2640   19.8635 C   0  0  2  0  0  0
  -28.6588  -13.3038   21.0057 C   0  0  0  0  0  0
  -25.2455  -13.8301   20.5816 C   0  0  0  0  0  0
  -24.1736  -13.0501   20.9300 C   0  0  0  0  0  0
  -24.6370  -11.7023   20.8809 C   0  0  0  0  0  0
  -23.9075  -10.4372   21.0466 C   0  0  0  0  0  0
  -24.3638   -9.4250   21.9199 C   0  0  0  0  0  0
  -23.6309   -8.2274   22.0765 C   0  0  0  0  0  0
  -22.4282   -8.0306   21.3558 C   0  0  0  0  0  0
  -21.9932   -9.0289   20.4658 C   0  0  0  0  0  0
  -22.7275  -10.2176   20.3081 C   0  0  0  0  0  0
  -21.6871   -6.0756   22.5262 C   0  0  0  0  0  0
  -21.4008   -6.5660   23.8190 C   0  0  0  0  0  0
  -21.3670   -5.6818   24.9163 C   0  0  0  0  0  0
  -21.6025   -4.3070   24.7212 C   0  0  0  0  0  0
  -21.8837   -3.8172   23.4336 C   0  0  0  0  0  0
  -21.9195   -4.6988   22.3393 C   0  0  0  0  0  0
  -22.7751  -13.5270   21.1887 C   0  0  0  0  0  0
  -22.1673   -4.2173   21.0971 F   0  0  0  0  0  0
  -21.5635   -3.4541   25.7727 F   0  0  0  0  0  0
  -29.9128  -13.7627   20.4060 N   0  0  0  0  0  0
  -26.2846  -12.9519   20.3351 N   0  0  0  0  0  0
  -25.9311  -11.6649   20.5857 N   0  0  0  0  0  0
  -22.0356  -12.8261   22.0459 N   0  0  0  0  0  0
  -25.4160  -15.2000   20.4200 N   0  0  0  0  0  0
  -31.6387  -15.1628   20.1394 O   0  0  0  0  0  0
  -21.6667   -6.8874   21.4227 O   0  0  0  0  0  0
  -22.3472  -14.5564   20.6725 O   0  0  0  0  0  0
  -24.6354  -31.8456   23.1846 C   0  0  0  0  0  0
  -25.9204  -32.4699   23.8190 C   0  0  1  0  0  0
  -27.1745  -27.1383   20.1354 C   0  0  0  0  0  0
  -25.5917  -33.8466   24.2107 N   0  0  0  0  0  0
  -23.4354  -30.4723   21.5416 C   0  0  2  0  0  0
  -24.8622  -28.9068   20.1094 C   0  0  0  0  0  0
  -22.7546  -29.4580   22.4845 C   0  0  0  0  0  0
  -18.0309  -28.1501   22.8438 C   0  0  0  0  0  0
  -24.1571  -36.7301   23.2577 C   0  0  0  0  0  0
  -25.9795  -30.7327   21.3858 C   0  0  0  0  0  0
  -26.0410  -29.3425   20.7260 C   0  0  0  0  0  0
  -27.1911  -28.4716   20.7270 C   0  0  0  0  0  0
  -25.9786  -26.8115   19.4544 C   0  0  0  0  0  0
  -24.8503  -27.6708   19.4426 C   0  0  0  0  0  0
  -23.6400  -29.7990   20.1645 C   0  0  0  0  0  0
  -25.4203  -36.2982   24.0175 C   0  0  1  0  0  0
  -20.5912  -28.3773   23.1272 C   0  0  2  0  0  0
  -20.6837  -26.9489   22.5460 C   0  0  0  0  0  0
  -19.5844  -26.6431   21.5249 C   0  0  0  0  0  0
  -18.2008  -26.8043   22.1576 C   0  0  0  0  0  0
  -19.1545  -28.8891   23.2841 C   0  0  0  0  0  0
  -18.9463  -30.1509   23.8825 C   0  0  0  0  0  0
  -17.6461  -30.6603   24.0581 C   0  0  0  0  0  0
  -25.9072  -34.9386   23.4900 C   0  0  0  0  0  0
  -16.5336  -29.9133   23.6442 C   0  0  0  0  0  0
  -16.7283  -28.6624   23.0314 C   0  0  0  0  0  0
  -26.4578  -31.6535   25.0586 C   0  0  0  0  0  0
  -25.3720  -31.3709   26.1191 C   0  0  0  0  0  0
  -27.0389  -30.2876   24.6194 C   0  0  0  0  0  0
  -27.6114  -32.4226   25.7425 C   0  0  0  0  0  0
  -27.5600  -37.1770   24.8380 C   0  0  0  0  0  0
  -21.4203  -29.3095   22.3655 N   0  0  0  0  0  0
  -26.4349  -37.3691   23.9312 N   0  0  0  0  0  0
  -24.7046  -31.0329   22.0939 N   0  0  0  0  0  0
  -23.4228  -28.8076   23.2903 O   0  0  0  0  0  0
  -28.2371  -26.1537   20.1564 O   0  0  0  0  0  0
  -26.5663  -34.8875   22.4513 O   0  0  0  0  0  0
  -23.5482  -32.1250   23.7157 O   0  0  0  0  0  0
  -29.2828  -23.2999   18.8393 C   0  0  0  0  0  0
  -29.4790  -22.1095   18.0988 C   0  0  0  0  0  0
  -28.5073  -21.9122   20.6568 C   0  0  0  0  0  0
  -28.6224  -23.2846   20.0898 C   0  0  0  0  0  0
  -28.8285  -20.9191   18.5071 C   0  0  0  0  0  0
  -28.7457  -20.6408   19.9082 C   0  0  0  0  0  0
  -27.7615  -19.1921   16.8777 C   0  0  0  0  0  0
  -27.1732  -21.6824   16.6378 C   0  0  0  0  0  0
  -28.5968  -19.0564   20.4189 C   0  0  0  0  0  0
  -28.0007  -24.7042   20.6800 C   0  0  0  0  0  0
  -29.7859  -17.8150   20.3770 C   0  0  0  0  0  0
  -27.6286  -20.5380   17.5954 C   0  0  0  0  0  0
  -29.5877  -16.2196   20.5559 N   0  0  0  0  0  0
  -31.4807  -12.8870   19.2526 H   0  0  0  0  0  0
  -30.5151  -11.7390   20.0978 H   0  0  0  0  0  0
  -29.8876  -11.7623   17.6412 H   0  0  0  0  0  0
  -29.6140  -13.4839   17.7215 H   0  0  0  0  0  0
  -27.9755  -11.2896   19.0187 H   0  0  0  0  0  0
  -27.4158  -12.4639   17.8514 H   0  0  0  0  0  0
  -27.5881  -14.2619   19.4274 H   0  0  0  0  0  0
  -28.7805  -12.3287   21.4840 H   0  0  0  0  0  0
  -28.3582  -13.9999   21.7856 H   0  0  0  0  0  0
  -25.2751   -9.5751   22.4809 H   0  0  0  0  0  0
  -24.0030   -7.4671   22.7490 H   0  0  0  0  0  0
  -21.0873   -8.8822   19.8952 H   0  0  0  0  0  0
  -22.3711  -10.9733   19.6221 H   0  0  0  0  0  0
  -21.2001   -7.6163   23.9710 H   0  0  0  0  0  0
  -21.1462   -6.0533   25.9066 H   0  0  0  0  0  0
  -22.0601   -2.7623   23.2827 H   0  0  0  0  0  0
  -22.3992  -11.9910   22.4803 H   0  0  0  0  0  0
  -21.0931  -13.1278   22.2620 H   0  0  0  0  0  0
  -24.6586  -15.8662   20.5299 H   0  0  0  0  0  0
  -26.2478  -15.6130   20.0159 H   0  0  0  0  0  0
  -26.7176  -32.5520   23.0875 H   0  0  0  0  0  0
  -25.0083  -33.9614   25.0234 H   0  0  0  0  0  0
  -22.7320  -31.2916   21.3978 H   0  0  0  0  0  0
  -23.3771  -35.9684   23.3201 H   0  0  0  0  0  0
  -24.3540  -36.9011   22.1977 H   0  0  0  0  0  0
  -23.7486  -37.6488   23.6749 H   0  0  0  0  0  0
  -26.1055  -31.4888   20.6085 H   0  0  0  0  0  0
  -26.8614  -30.7773   22.0246 H   0  0  0  0  0  0
  -28.1137  -28.7906   21.1906 H   0  0  0  0  0  0
  -25.8901  -25.8626   18.9429 H   0  0  0  0  0  0
  -23.9567  -27.3975   18.9050 H   0  0  0  0  0  0
  -23.6973  -30.5533   19.3770 H   0  0  0  0  0  0
  -22.7651  -29.1943   19.9233 H   0  0  0  0  0  0
  -25.1492  -36.1667   25.0636 H   0  0  0  0  0  0
  -20.9869  -28.3419   24.1398 H   0  0  0  0  0  0
  -20.5945  -26.2305   23.3640 H   0  0  0  0  0  0
  -21.6732  -26.7766   22.1130 H   0  0  0  0  0  0
  -19.7122  -25.6364   21.1279 H   0  0  0  0  0  0
  -19.6896  -27.3196   20.6758 H   0  0  0  0  0  0
  -17.4347  -26.6674   21.3912 H   0  0  0  0  0  0
  -18.0444  -26.0254   22.9019 H   0  0  0  0  0  0
  -19.7875  -30.7427   24.2090 H   0  0  0  0  0  0
  -17.4995  -31.6295   24.5231 H   0  0  0  0  0  0
  -15.5348  -30.2994   23.7865 H   0  0  0  0  0  0
  -15.8656  -28.0974   22.7019 H   0  0  0  0  0  0
  -24.5991  -30.6937   25.7487 H   0  0  0  0  0  0
  -24.8816  -32.2880   26.4428 H   0  0  0  0  0  0
  -25.7892  -30.8983   27.0093 H   0  0  0  0  0  0
  -26.2988  -29.6538   24.1251 H   0  0  0  0  0  0
  -27.3900  -29.7186   25.4831 H   0  0  0  0  0  0
  -27.8957  -30.3899   23.9538 H   0  0  0  0  0  0
  -27.2722  -33.3562   26.1949 H   0  0  0  0  0  0
  -28.4095  -32.6653   25.0392 H   0  0  0  0  0  0
  -28.0664  -31.8356   26.5405 H   0  0  0  0  0  0
  -28.2557  -38.0135   24.7491 H   0  0  0  0  0  0
  -28.1175  -36.2609   24.6253 H   0  0  0  0  0  0
  -27.2188  -37.1476   25.8737 H   0  0  0  0  0  0
  -20.9360  -29.8452   21.6559 H   0  0  0  0  0  0
  -26.0144  -38.2699   24.1358 H   0  0  0  0  0  0
  -29.4902  -24.2263   18.3361 H   0  0  0  0  0  0
  -29.7843  -22.2309   17.0622 H   0  0  0  0  0  0
  -28.1236  -21.8076   21.6647 H   0  0  0  0  0  0
  -27.7215  -18.3876   17.5913 H   0  0  0  0  0  0
  -28.6536  -19.0942   16.2713 H   0  0  0  0  0  0
  -26.9091  -19.0624   16.2170 H   0  0  0  0  0  0
  -26.9429  -22.5948   17.2148 H   0  0  0  0  0  0
  -26.2939  -21.4273   16.0434 H   0  0  0  0  0  0
  -27.9181  -21.9668   15.8903 H   0  0  0  0  0  0
  -27.7007  -18.6931   19.9033 H   0  0  0  0  0  0
  -28.2627  -19.1512   21.4614 H   0  0  0  0  0  0
  -28.3100  -24.7467   21.7280 H   0  0  0  0  0  0
  -26.9251  -24.5203   20.7031 H   0  0  0  0  0  0
  -30.4688  -18.0623   21.2004 H   0  0  0  0  0  0
  -30.3754  -17.9465   19.4743 H   0  0  0  0  0  0
  -26.7750  -20.4430   18.2841 H   0  0  0  0  0  0
  -28.6556  -15.9605   20.8405 H   0  0  0  0  0  0
  1 25  1  0  0  0
  1 30  2  0  0  0
  1 83  1  0  0  0
  2  3  1  0  0  0
  2 25  1  0  0  0
  2 84  1  0  0  0
  2 85  1  0  0  0
  3  4  1  0  0  0
  3 86  1  0  0  0
  3 87  1  0  0  0
  4  5  1  0  0  0
  4 88  1  0  0  0
  4 89  1  0  0  0
  5  6  1  0  0  0
  5 26  1  0  0  0
  5 90  1  0  0  0
  6 25  1  0  0  0
  6 91  1  0  0  0
  6 92  1  0  0  0
  7  8  2  0  0  0
  7 26  1  0  0  0
  7 29  1  0  0  0
  8  9  1  0  0  0
  8 22  1  0  0  0
  9 10  1  0  0  0
  9 27  2  0  0  0
 10 11  2  0  0  0
 10 15  1  0  0  0
 11 12  1  0  0  0
 11 93  1  0  0  0
 12 13  2  0  0  0
 12 94  1  0  0  0
 13 14  1  0  0  0
 13 31  1  0  0  0
 14 15  2  0  0  0
 14 95  1  0  0  0
 15 96  1  0  0  0
 16 17  2  0  0  0
 16 21  1  0  0  0
 16 31  1  0  0  0
 17 18  1  0  0  0
 17 97  1  0  0  0
 18 19  2  0  0  0
 18 98  1  0  0  0
 19 20  1  0  0  0
 19 24  1  0  0  0
 20 21  2  0  0  0
 20 99  1  0  0  0
 21 23  1  0  0  0
 22 28  1  0  0  0
 22 32  2  0  0  0
 26 27  1  0  0  0
 28100  1  0  0  0
 28101  1  0  0  0
 29102  1  0  0  0
 29103  1  0  0  0
 33 34  1  0  0  0
 33 66  1  0  0  0
 33 70  2  0  0  0
 34 36  1  0  0  0
 34 59  1  0  0  0
 34104  1  0  0  0
 35 44  2  0  0  0
 35 45  1  0  0  0
 35 68  1  0  0  0
 36 56  1  0  0  0
 36105  1  0  0  0
 37 39  1  0  0  0
 37 47  1  0  0  0
 37 66  1  0  0  0
 37106  1  0  0  0
 38 43  2  0  0  0
 38 46  1  0  0  0
 38 47  1  0  0  0
 39 64  1  0  0  0
 39 67  2  0  0  0
 40 52  1  0  0  0
 40 53  2  0  0  0
 40 58  1  0  0  0
 41107  1  0  0  0
 41108  1  0  0  0
 41109  1  0  0  0
 41 48  1  0  0  0
 42 43  1  0  0  0
 42 66  1  0  0  0
 42110  1  0  0  0
 42111  1  0  0  0
 43 44  1  0  0  0
 44112  1  0  0  0
 45 46  2  0  0  0
 45113  1  0  0  0
 46114  1  0  0  0
 47115  1  0  0  0
 47116  1  0  0  0
 48 56  1  0  0  0
 48 65  1  0  0  0
 48117  1  0  0  0
 49 50  1  0  0  0
 49 53  1  0  0  0
 49 64  1  0  0  0
 49118  1  0  0  0
 50 51  1  0  0  0
 50119  1  0  0  0
 50120  1  0  0  0
 51 52  1  0  0  0
 51121  1  0  0  0
 51122  1  0  0  0
 52123  1  0  0  0
 52124  1  0  0  0
 53 54  1  0  0  0
 54 55  2  0  0  0
 54125  1  0  0  0
 55 57  1  0  0  0
 55126  1  0  0  0
 56 69  2  0  0  0
 57 58  2  0  0  0
 57127  1  0  0  0
 58128  1  0  0  0
 59 60  1  0  0  0
 59 61  1  0  0  0
 59 62  1  0  0  0
 60129  1  0  0  0
 60130  1  0  0  0
 60131  1  0  0  0
 61132  1  0  0  0
 61133  1  0  0  0
 61134  1  0  0  0
 62135  1  0  0  0
 62136  1  0  0  0
 62137  1  0  0  0
 63 65  1  0  0  0
 63138  1  0  0  0
 63139  1  0  0  0
 63140  1  0  0  0
 64141  1  0  0  0
 65142  1  0  0  0
 68 80  1  0  0  0
 71 72  2  0  0  0
 71 74  1  0  0  0
 71143  1  0  0  0
 72 75  1  0  0  0
 72144  1  0  0  0
 73 74  2  0  0  0
 73 76  1  0  0  0
 73145  1  0  0  0
 74 80  1  0  0  0
 75 76  2  0  0  0
 75 82  1  0  0  0
 76 79  1  0  0  0
 77146  1  0  0  0
 77147  1  0  0  0
 77148  1  0  0  0
 77 82  1  0  0  0
 78 82  1  0  0  0
 78149  1  0  0  0
 78150  1  0  0  0
 78151  1  0  0  0
 79 81  1  0  0  0
 79152  1  0  0  0
 79153  1  0  0  0
 80154  1  0  0  0
 80155  1  0  0  0
 81 83  1  0  0  0
 81156  1  0  0  0
 81157  1  0  0  0
 82158  1  0  0  0
 83159  1  0  0  0
M  ISO  4   1 100  68 101  80 101  83 100
M  END
> <chiral flag>
0

> <version>
0

> <s_m_source_file>
/data/baiqing/PycharmProjects/Reinvent-master-3.2/result/LINK_invent/BTK/process_docking_weight1_custom_sum_contain_oxygen_bond_distance_aromatic_linkinvent_7_9_3/rearranged_h_0102.sdf

> <i_m_source_file_index>
22

> <r_mmod_Potential_Energy-OPLS-2005>
778.490112304688

> <r_mmod_Stretch_Energy-OPLS-2005>
302.075836181641

> <r_mmod_Bend_Energy-OPLS-2005>
274.248382568359

> <r_mmod_Torsional_Energy-OPLS-2005>
389.190216064453

> <r_mmod_Improper_Torsional_Energy-OPLS-2005>
19.4874534606934

> <r_mmod_Van_der_Waal_Energy-OPLS-2005>
136.719131469727

> <r_mmod_Electrostatic_Energy-OPLS-2005>
-380.882629394531

> <r_mmod_Solvation_Energy-OPLS-2005>
-206.285385131836

> <b_mmod_Minimization_Converged-OPLS-2005>
0

> <r_mmod_RMS_Derivative-OPLS-2005>
16.66477394104

$$$$
22
                    3D
 Structure written by MMmdl.
156165  0  0  1  0            999 V2000
  -30.5460  -14.9671   20.4060 C   0  0  0  0  0  0
  -30.4374  -12.6069   19.4825 C   0  0  0  0  0  0
  -29.5120  -12.5111   18.2473 C   0  0  0  0  0  0
  -28.0473  -12.3020   18.6761 C   0  0  0  0  0  0
  -27.6214  -13.2483   19.8278 C   0  0  2  0  0  0
  -28.6689  -13.3027   20.9586 C   0  0  0  0  0  0
  -25.2427  -13.8216   20.5725 C   0  0  0  0  0  0
  -24.1755  -13.0428   20.9244 C   0  0  0  0  0  0
  -24.6383  -11.6928   20.8776 C   0  0  0  0  0  0
  -23.9086  -10.4288   21.0415 C   0  0  0  0  0  0
  -24.3644   -9.4200   21.9185 C   0  0  0  0  0  0
  -23.6310   -8.2237   22.0751 C   0  0  0  0  0  0
  -22.4287   -8.0282   21.3547 C   0  0  0  0  0  0
  -21.9934   -9.0257   20.4639 C   0  0  0  0  0  0
  -22.7267  -10.2130   20.3047 C   0  0  0  0  0  0
  -21.6848   -6.0745   22.5283 C   0  0  0  0  0  0
  -21.4011   -6.5661   23.8222 C   0  0  0  0  0  0
  -21.3652   -5.6806   24.9187 C   0  0  0  0  0  0
  -21.6032   -4.3066   24.7228 C   0  0  0  0  0  0
  -21.8818   -3.8165   23.4354 C   0  0  0  0  0  0
  -21.9199   -4.6974   22.3412 C   0  0  0  0  0  0
  -22.7775  -13.5190   21.1918 C   0  0  0  0  0  0
  -22.1662   -4.2161   21.0974 F   0  0  0  0  0  0
  -21.5630   -3.4547   25.7745 F   0  0  0  0  0  0
  -29.9353  -13.7165   20.3419 N   0  0  0  0  0  0
  -26.2844  -12.9451   20.3227 N   0  0  0  0  0  0
  -25.9309  -11.6583   20.5755 N   0  0  0  0  0  0
  -22.0451  -12.8137   22.0465 N   0  0  0  0  0  0
  -25.4052  -15.1954   20.4154 N   0  0  0  0  0  0
  -31.7642  -15.0080   20.2039 O   0  0  0  0  0  0
  -21.6637   -6.8888   21.4243 O   0  0  0  0  0  0
  -22.3444  -14.5500   20.6775 O   0  0  0  0  0  0
  -24.6449  -31.8440   23.1876 C   0  0  0  0  0  0
  -25.9220  -32.4705   23.8256 C   0  0  1  0  0  0
  -27.2101  -27.1313   20.1405 C   0  0  0  0  0  0
  -25.5987  -33.8515   24.2181 N   0  0  0  0  0  0
  -23.4446  -30.4689   21.5319 C   0  0  2  0  0  0
  -24.8902  -28.8911   20.1093 C   0  0  0  0  0  0
  -22.7556  -29.4582   22.4835 C   0  0  0  0  0  0
  -18.0305  -28.1409   22.8479 C   0  0  0  0  0  0
  -24.1477  -36.7235   23.2642 C   0  0  0  0  0  0
  -26.0006  -30.7176   21.3808 C   0  0  0  0  0  0
  -26.0690  -29.3276   20.7257 C   0  0  0  0  0  0
  -27.2287  -28.4636   20.7233 C   0  0  0  0  0  0
  -26.0056  -26.8014   19.4817 C   0  0  0  0  0  0
  -24.8709  -27.6428   19.4713 C   0  0  0  0  0  0
  -23.6691  -29.7958   20.1519 C   0  0  0  0  0  0
  -25.4101  -36.3022   24.0318 C   0  0  1  0  0  0
  -20.5925  -28.3747   23.1216 C   0  0  2  0  0  0
  -20.6774  -26.9444   22.5403 C   0  0  0  0  0  0
  -19.5750  -26.6383   21.5220 C   0  0  0  0  0  0
  -18.1931  -26.7965   22.1611 C   0  0  0  0  0  0
  -19.1569  -28.8893   23.2851 C   0  0  0  0  0  0
  -18.9505  -30.1496   23.8869 C   0  0  0  0  0  0
  -17.6503  -30.6598   24.0604 C   0  0  0  0  0  0
  -25.9070  -34.9421   23.5042 C   0  0  0  0  0  0
  -16.5384  -29.9099   23.6372 C   0  0  0  0  0  0
  -16.7298  -28.6536   23.0349 C   0  0  0  0  0  0
  -26.4531  -31.6576   25.0706 C   0  0  0  0  0  0
  -25.3706  -31.3796   26.1403 C   0  0  0  0  0  0
  -27.0413  -30.2970   24.6302 C   0  0  0  0  0  0
  -27.6071  -32.4333   25.7472 C   0  0  0  0  0  0
  -27.5561  -37.1747   24.8464 C   0  0  0  0  0  0
  -21.4249  -29.3084   22.3600 N   0  0  0  0  0  0
  -26.4239  -37.3757   23.9455 N   0  0  0  0  0  0
  -24.7170  -31.0309   22.0892 N   0  0  0  0  0  0
  -23.4232  -28.8115   23.2956 O   0  0  0  0  0  0
  -28.2853  -26.1670   20.1747 O   0  0  0  0  0  0
  -26.5660  -34.8938   22.4619 O   0  0  0  0  0  0
  -23.5560  -32.1302   23.7099 O   0  0  0  0  0  0
  -28.7738  -20.0080   21.0905 C   0  0  0  0  0  0
  -28.5883  -21.4344   20.8042 C   0  0  0  0  0  0
  -29.2765  -22.0384   19.7277 C   0  0  0  0  0  0
  -29.6335  -19.1311   20.3157 C   0  0  0  0  0  0
  -30.0912  -21.1144   18.9905 C   0  0  0  0  0  0
  -27.6596  -22.3783   21.6079 C   0  0  0  0  0  0
  -29.1742  -23.6268   19.4135 C   0  0  0  0  0  0
  -27.9647  -23.9416   21.5699 C   0  0  0  0  0  0
  -28.1076  -24.6089   20.1608 C   0  0  1  0  0  0
  -30.8989  -21.5962   17.7961 C   0  0  0  0  0  0
  -30.2407  -17.6538   20.7748 C   0  0  0  0  0  0
  -30.2496  -19.7661   19.2691 N   0  0  0  0  0  0
  -29.7892  -16.1691   20.4998 N   0  0  0  0  0  0
  -31.4626  -12.7811   19.1540 H   0  0  0  0  0  0
  -30.4539  -11.6684   20.0379 H   0  0  0  0  0  0
  -29.8323  -11.6915   17.6034 H   0  0  0  0  0  0
  -29.5902  -13.4189   17.6475 H   0  0  0  0  0  0
  -27.9503  -11.2648   19.0010 H   0  0  0  0  0  0
  -27.3792  -12.4140   17.8218 H   0  0  0  0  0  0
  -27.5744  -14.2420   19.3828 H   0  0  0  0  0  0
  -28.7677  -12.3370   21.4568 H   0  0  0  0  0  0
  -28.3650  -14.0193   21.7241 H   0  0  0  0  0  0
  -25.2796   -9.5675   22.4760 H   0  0  0  0  0  0
  -24.0033   -7.4617   22.7460 H   0  0  0  0  0  0
  -21.0881   -8.8761   19.8931 H   0  0  0  0  0  0
  -22.3738  -10.9663   19.6150 H   0  0  0  0  0  0
  -21.1991   -7.6167   23.9731 H   0  0  0  0  0  0
  -21.1466   -6.0536   25.9087 H   0  0  0  0  0  0
  -22.0603   -2.7623   23.2845 H   0  0  0  0  0  0
  -22.4125  -11.9796   22.4808 H   0  0  0  0  0  0
  -21.1054  -13.1074   22.2688 H   0  0  0  0  0  0
  -24.6303  -15.8403   20.5314 H   0  0  0  0  0  0
  -26.2421  -15.6446   20.0688 H   0  0  0  0  0  0
  -26.7285  -32.5320   23.0992 H   0  0  0  0  0  0
  -25.0191  -33.9631   25.0374 H   0  0  0  0  0  0
  -22.7488  -31.2957   21.3777 H   0  0  0  0  0  0
  -23.3765  -35.9544   23.3257 H   0  0  0  0  0  0
  -24.3575  -36.8897   22.2065 H   0  0  0  0  0  0
  -23.7188  -37.6396   23.6707 H   0  0  0  0  0  0
  -26.1435  -31.4686   20.6016 H   0  0  0  0  0  0
  -26.8751  -30.7737   22.0174 H   0  0  0  0  0  0
  -28.1272  -28.7944   21.2250 H   0  0  0  0  0  0
  -25.9039  -25.8628   18.9589 H   0  0  0  0  0  0
  -23.9736  -27.3094   18.9700 H   0  0  0  0  0  0
  -23.8039  -30.5682   19.3941 H   0  0  0  0  0  0
  -22.7823  -29.2402   19.8428 H   0  0  0  0  0  0
  -25.1274  -36.1812   25.0802 H   0  0  0  0  0  0
  -21.0040  -28.3333   24.1324 H   0  0  0  0  0  0
  -20.5637  -26.2379   23.3633 H   0  0  0  0  0  0
  -21.6644  -26.7415   22.1227 H   0  0  0  0  0  0
  -19.6913  -25.6287   21.1252 H   0  0  0  0  0  0
  -19.6675  -27.3203   20.6764 H   0  0  0  0  0  0
  -17.4204  -26.6768   21.3991 H   0  0  0  0  0  0
  -18.0291  -26.0081   22.8970 H   0  0  0  0  0  0
  -19.7982  -30.7349   24.2164 H   0  0  0  0  0  0
  -17.5061  -31.6278   24.5217 H   0  0  0  0  0  0
  -15.5390  -30.3020   23.7705 H   0  0  0  0  0  0
  -15.8690  -28.0894   22.7022 H   0  0  0  0  0  0
  -24.6010  -30.6964   25.7785 H   0  0  0  0  0  0
  -24.8760  -32.2983   26.4581 H   0  0  0  0  0  0
  -25.8004  -30.9215   27.0326 H   0  0  0  0  0  0
  -26.3058  -29.6657   24.1306 H   0  0  0  0  0  0
  -27.4018  -29.7296   25.4891 H   0  0  0  0  0  0
  -27.8953  -30.4195   23.9635 H   0  0  0  0  0  0
  -27.2729  -33.3743   26.1855 H   0  0  0  0  0  0
  -28.3991  -32.6675   25.0350 H   0  0  0  0  0  0
  -28.0619  -31.8561   26.5531 H   0  0  0  0  0  0
  -28.2525  -38.0100   24.7582 H   0  0  0  0  0  0
  -28.1066  -36.2616   24.6139 H   0  0  0  0  0  0
  -27.2302  -37.1245   25.8871 H   0  0  0  0  0  0
  -20.9430  -29.8857   21.6845 H   0  0  0  0  0  0
  -26.0068  -38.2789   24.1544 H   0  0  0  0  0  0
  -28.2839  -19.5944   21.9610 H   0  0  0  0  0  0
  -27.6330  -22.0434   22.6450 H   0  0  0  0  0  0
  -26.6515  -22.2220   21.2210 H   0  0  0  0  0  0
  -29.0331  -23.7400   18.3386 H   0  0  0  0  0  0
  -30.1687  -24.0247   19.6148 H   0  0  0  0  0  0
  -28.8901  -24.1163   22.1198 H   0  0  0  0  0  0
  -27.1885  -24.4657   22.1292 H   0  0  0  0  0  0
  -27.1673  -24.3919   19.6609 H   0  0  0  0  0  0
  -30.2713  -21.6450   16.9070 H   0  0  0  0  0  0
  -31.7322  -20.9271   17.5774 H   0  0  0  0  0  0
  -31.3183  -22.5872   17.9677 H   0  0  0  0  0  0
  -30.2807  -17.7142   21.8619 H   0  0  0  0  0  0
  -31.2912  -17.6856   20.4818 H   0  0  0  0  0  0
  -28.7903  -16.0362   20.5276 H   0  0  0  0  0  0
  1 25  1  0  0  0
  1 30  2  0  0  0
  1 83  1  0  0  0
  2  3  1  0  0  0
  2 25  1  0  0  0
  2 84  1  0  0  0
  2 85  1  0  0  0
  3  4  1  0  0  0
  3 86  1  0  0  0
  3 87  1  0  0  0
  4  5  1  0  0  0
  4 88  1  0  0  0
  4 89  1  0  0  0
  5  6  1  0  0  0
  5 26  1  0  0  0
  5 90  1  0  0  0
  6 25  1  0  0  0
  6 91  1  0  0  0
  6 92  1  0  0  0
  7  8  2  0  0  0
  7 26  1  0  0  0
  7 29  1  0  0  0
  8  9  1  0  0  0
  8 22  1  0  0  0
  9 10  1  0  0  0
  9 27  2  0  0  0
 10 11  2  0  0  0
 10 15  1  0  0  0
 11 12  1  0  0  0
 11 93  1  0  0  0
 12 13  2  0  0  0
 12 94  1  0  0  0
 13 14  1  0  0  0
 13 31  1  0  0  0
 14 15  2  0  0  0
 14 95  1  0  0  0
 15 96  1  0  0  0
 16 17  2  0  0  0
 16 21  1  0  0  0
 16 31  1  0  0  0
 17 18  1  0  0  0
 17 97  1  0  0  0
 18 19  2  0  0  0
 18 98  1  0  0  0
 19 20  1  0  0  0
 19 24  1  0  0  0
 20 21  2  0  0  0
 20 99  1  0  0  0
 21 23  1  0  0  0
 22 28  1  0  0  0
 22 32  2  0  0  0
 26 27  1  0  0  0
 28100  1  0  0  0
 28101  1  0  0  0
 29102  1  0  0  0
 29103  1  0  0  0
 33 34  1  0  0  0
 33 66  1  0  0  0
 33 70  2  0  0  0
 34 36  1  0  0  0
 34 59  1  0  0  0
 34104  1  0  0  0
 35 44  2  0  0  0
 35 45  1  0  0  0
 35 68  1  0  0  0
 36 56  1  0  0  0
 36105  1  0  0  0
 37 39  1  0  0  0
 37 47  1  0  0  0
 37 66  1  0  0  0
 37106  1  0  0  0
 38 43  2  0  0  0
 38 46  1  0  0  0
 38 47  1  0  0  0
 39 64  1  0  0  0
 39 67  2  0  0  0
 40 52  1  0  0  0
 40 53  2  0  0  0
 40 58  1  0  0  0
 41107  1  0  0  0
 41108  1  0  0  0
 41109  1  0  0  0
 41 48  1  0  0  0
 42 43  1  0  0  0
 42 66  1  0  0  0
 42110  1  0  0  0
 42111  1  0  0  0
 43 44  1  0  0  0
 44112  1  0  0  0
 45 46  2  0  0  0
 45113  1  0  0  0
 46114  1  0  0  0
 47115  1  0  0  0
 47116  1  0  0  0
 48 56  1  0  0  0
 48 65  1  0  0  0
 48117  1  0  0  0
 49 50  1  0  0  0
 49 53  1  0  0  0
 49 64  1  0  0  0
 49118  1  0  0  0
 50 51  1  0  0  0
 50119  1  0  0  0
 50120  1  0  0  0
 51 52  1  0  0  0
 51121  1  0  0  0
 51122  1  0  0  0
 52123  1  0  0  0
 52124  1  0  0  0
 53 54  1  0  0  0
 54 55  2  0  0  0
 54125  1  0  0  0
 55 57  1  0  0  0
 55126  1  0  0  0
 56 69  2  0  0  0
 57 58  2  0  0  0
 57127  1  0  0  0
 58128  1  0  0  0
 59 60  1  0  0  0
 59 61  1  0  0  0
 59 62  1  0  0  0
 60129  1  0  0  0
 60130  1  0  0  0
 60131  1  0  0  0
 61132  1  0  0  0
 61133  1  0  0  0
 61134  1  0  0  0
 62135  1  0  0  0
 62136  1  0  0  0
 62137  1  0  0  0
 63 65  1  0  0  0
 63138  1  0  0  0
 63139  1  0  0  0
 63140  1  0  0  0
 64141  1  0  0  0
 65142  1  0  0  0
 68 79  1  0  0  0
 71 72  2  0  0  0
 71 74  1  0  0  0
 71143  1  0  0  0
 72 73  1  0  0  0
 72 76  1  0  0  0
 73 75  2  0  0  0
 73 77  1  0  0  0
 74 81  1  0  0  0
 74 82  2  0  0  0
 75 80  1  0  0  0
 75 82  1  0  0  0
 76 78  1  0  0  0
 76144  1  0  0  0
 76145  1  0  0  0
 77 79  1  0  0  0
 77146  1  0  0  0
 77147  1  0  0  0
 78 79  1  0  0  0
 78148  1  0  0  0
 78149  1  0  0  0
 79150  1  0  0  0
 80151  1  0  0  0
 80152  1  0  0  0
 80153  1  0  0  0
 81 83  1  0  0  0
 81154  1  0  0  0
 81155  1  0  0  0
 83156  1  0  0  0
M  ISO  4   1 100  68 101  79 101  83 100
M  END
> <chiral flag>
0

> <version>
0

> <s_m_source_file>
/data/baiqing/PycharmProjects/Reinvent-master-3.2/result/LINK_invent/BTK/process_docking_weight1_custom_sum_contain_oxygen_bond_distance_aromatic_linkinvent_7_9_3/rearranged_h_0102.sdf

> <i_m_source_file_index>
23

> <r_mmod_Potential_Energy-OPLS-2005>
177.496154785156

> <r_mmod_Stretch_Energy-OPLS-2005>
225.029663085938

> <r_mmod_Bend_Energy-OPLS-2005>
256.591644287109

> <r_mmod_Torsional_Energy-OPLS-2005>
223.181564331055

> <r_mmod_Improper_Torsional_Energy-OPLS-2005>
6.56280088424683

> <r_mmod_Van_der_Waal_Energy-OPLS-2005>
135.052017211914

> <r_mmod_Electrostatic_Energy-OPLS-2005>
-636.546081542969

> <r_mmod_Solvation_Energy-OPLS-2005>
-232.469909667969

> <b_mmod_Minimization_Converged-OPLS-2005>
0

> <r_mmod_RMS_Derivative-OPLS-2005>
3.1616792678833

$$$$
23
                    3D
 Structure written by MMmdl.
179187  0  0  1  0            999 V2000
  -30.6986  -14.4804   20.5680 C   0  0  0  0  0  0
  -30.4247  -12.3100   19.4279 C   0  0  0  0  0  0
  -29.4973  -12.5034   18.2094 C   0  0  0  0  0  0
  -28.0181  -12.3644   18.6212 C   0  0  0  0  0  0
  -27.6625  -13.2075   19.8755 C   0  0  2  0  0  0
  -28.7041  -12.9949   20.9985 C   0  0  0  0  0  0
  -25.2593  -13.8158   20.5694 C   0  0  0  0  0  0
  -24.1843  -13.0439   20.9191 C   0  0  0  0  0  0
  -24.6395  -11.6905   20.8738 C   0  0  0  0  0  0
  -23.9058  -10.4290   21.0403 C   0  0  0  0  0  0
  -24.3610   -9.4207   21.9182 C   0  0  0  0  0  0
  -23.6289   -8.2243   22.0749 C   0  0  0  0  0  0
  -22.4270   -8.0279   21.3542 C   0  0  0  0  0  0
  -21.9909   -9.0252   20.4645 C   0  0  0  0  0  0
  -22.7231  -10.2134   20.3051 C   0  0  0  0  0  0
  -21.6854   -6.0737   22.5280 C   0  0  0  0  0  0
  -21.4013   -6.5638   23.8215 C   0  0  0  0  0  0
  -21.3655   -5.6791   24.9176 C   0  0  0  0  0  0
  -21.6045   -4.3056   24.7226 C   0  0  0  0  0  0
  -21.8818   -3.8148   23.4347 C   0  0  0  0  0  0
  -21.9195   -4.6966   22.3403 C   0  0  0  0  0  0
  -22.7866  -13.5241   21.1848 C   0  0  0  0  0  0
  -22.1663   -4.2153   21.0981 F   0  0  0  0  0  0
  -21.5628   -3.4536   25.7736 F   0  0  0  0  0  0
  -30.0366  -13.2976   20.4485 N   0  0  0  0  0  0
  -26.3028  -12.9330   20.3364 N   0  0  0  0  0  0
  -25.9322  -11.6492   20.5760 N   0  0  0  0  0  0
  -22.0494  -12.8231   22.0396 N   0  0  0  0  0  0
  -25.4317  -15.1872   20.4085 N   0  0  0  0  0  0
  -31.8196  -14.6740   20.0906 O   0  0  0  0  0  0
  -21.6635   -6.8877   21.4239 O   0  0  0  0  0  0
  -22.3561  -14.5556   20.6704 O   0  0  0  0  0  0
  -24.6137  -31.8680   23.2097 C   0  0  0  0  0  0
  -25.9033  -32.4823   23.8394 C   0  0  1  0  0  0
  -27.2395  -27.4325   20.1069 C   0  0  0  0  0  0
  -25.5895  -33.8620   24.2333 N   0  0  0  0  0  0
  -23.4036  -30.4892   21.5486 C   0  0  2  0  0  0
  -24.8553  -28.9513   20.1172 C   0  0  0  0  0  0
  -22.7410  -29.4650   22.4978 C   0  0  0  0  0  0
  -18.0273  -28.1375   22.8491 C   0  0  0  0  0  0
  -24.1486  -36.7307   23.2635 C   0  0  0  0  0  0
  -25.9314  -30.8314   21.3653 C   0  0  0  0  0  0
  -26.0120  -29.4619   20.7212 C   0  0  0  0  0  0
  -27.2081  -28.7072   20.7206 C   0  0  0  0  0  0
  -26.0729  -26.9379   19.4925 C   0  0  0  0  0  0
  -24.8797  -27.6867   19.5013 C   0  0  0  0  0  0
  -23.6159  -29.8177   20.1641 C   0  0  0  0  0  0
  -25.4106  -36.3112   24.0342 C   0  0  1  0  0  0
  -20.5863  -28.3662   23.1317 C   0  0  2  0  0  0
  -20.6760  -26.9396   22.5418 C   0  0  0  0  0  0
  -19.5746  -26.6386   21.5206 C   0  0  0  0  0  0
  -18.1923  -26.7926   22.1617 C   0  0  0  0  0  0
  -19.1521  -28.8834   23.2901 C   0  0  0  0  0  0
  -18.9450  -30.1441   23.8911 C   0  0  0  0  0  0
  -17.6454  -30.6584   24.0562 C   0  0  0  0  0  0
  -25.9035  -34.9476   23.5136 C   0  0  0  0  0  0
  -16.5345  -29.9087   23.6323 C   0  0  0  0  0  0
  -16.7263  -28.6502   23.0348 C   0  0  0  0  0  0
  -26.4467  -31.6590   25.0713 C   0  0  0  0  0  0
  -25.3742  -31.3703   26.1470 C   0  0  0  0  0  0
  -27.0283  -30.3030   24.6074 C   0  0  0  0  0  0
  -27.6054  -32.4297   25.7471 C   0  0  0  0  0  0
  -27.5590  -37.1798   24.8459 C   0  0  0  0  0  0
  -21.4138  -29.3028   22.3718 N   0  0  0  0  0  0
  -26.4289  -37.3802   23.9424 N   0  0  0  0  0  0
  -24.6674  -31.0780   22.0998 N   0  0  0  0  0  0
  -23.4185  -28.8191   23.3017 O   0  0  0  0  0  0
  -28.3809  -26.6640   20.0647 O   0  0  0  0  0  0
  -26.5592  -34.8929   22.4694 O   0  0  0  0  0  0
  -23.5327  -32.1426   23.7488 O   0  0  0  0  0  0
  -28.2901  -23.6842   22.3178 C   0  0  0  0  0  0
  -29.2623  -22.5027   20.0531 C   0  0  0  0  0  0
  -28.3423  -22.2747   22.2725 C   0  0  0  0  0  0
  -28.8532  -21.6478   21.1054 C   0  0  0  0  0  0
  -28.7140  -24.4499   21.2148 C   0  0  0  0  0  0
  -29.7406  -20.5262   26.7991 C   0  0  0  0  0  0
  -27.3093  -21.1577   26.5649 C   0  0  0  0  0  0
  -30.1313  -17.4761   23.3880 C   0  0  0  0  0  0
  -28.0726  -17.5074   22.0183 C   0  0  0  0  0  0
  -31.2417  -19.7027   21.4664 C   0  0  0  0  0  0
  -27.8596  -21.5021   23.4918 C   0  0  0  0  0  0
  -28.8706  -20.1110   20.9055 C   0  0  0  0  0  0
  -28.7056  -25.9888   21.2913 C   0  0  0  0  0  0
  -28.9235  -21.4809   24.6044 C   0  0  0  0  0  0
  -30.2894  -16.9367   20.9301 C   0  0  0  0  0  0
  -28.5508  -20.6241   25.8317 C   0  0  0  0  0  0
  -29.5849  -17.8537   21.9903 C   0  0  0  0  0  0
  -29.2009  -23.8575   20.0985 N   0  0  0  0  0  0
  -29.9819  -15.4980   21.0812 N   0  0  0  0  0  0
  -29.8315  -19.3439   21.7748 N   0  3  1  0  0  0
  -31.4699  -12.4080   19.1276 H   0  0  0  0  0  0
  -30.3243  -11.3002   19.8287 H   0  0  0  0  0  0
  -29.7376  -11.7745   17.4342 H   0  0  0  0  0  0
  -29.6664  -13.4861   17.7674 H   0  0  0  0  0  0
  -27.8298  -11.3088   18.8205 H   0  0  0  0  0  0
  -27.3677  -12.6360   17.7884 H   0  0  0  0  0  0
  -27.7045  -14.2542   19.5735 H   0  0  0  0  0  0
  -28.6800  -11.9610   21.3463 H   0  0  0  0  0  0
  -28.4653  -13.6018   21.8731 H   0  0  0  0  0  0
  -25.2758   -9.5690   22.4751 H   0  0  0  0  0  0
  -24.0003   -7.4636   22.7466 H   0  0  0  0  0  0
  -21.0840   -8.8769   19.8948 H   0  0  0  0  0  0
  -22.3689  -10.9669   19.6158 H   0  0  0  0  0  0
  -21.2001   -7.6146   23.9719 H   0  0  0  0  0  0
  -21.1477   -6.0519   25.9079 H   0  0  0  0  0  0
  -22.0600   -2.7614   23.2842 H   0  0  0  0  0  0
  -22.4086  -11.9881   22.4783 H   0  0  0  0  0  0
  -21.1110  -13.1263   22.2586 H   0  0  0  0  0  0
  -24.6612  -15.8384   20.5092 H   0  0  0  0  0  0
  -26.2742  -15.6204   20.0533 H   0  0  0  0  0  0
  -26.7101  -32.5554   23.1158 H   0  0  0  0  0  0
  -25.0066  -33.9780   25.0495 H   0  0  0  0  0  0
  -22.6918  -31.3052   21.4068 H   0  0  0  0  0  0
  -23.3755  -35.9629   23.3286 H   0  0  0  0  0  0
  -24.3585  -36.8926   22.2051 H   0  0  0  0  0  0
  -23.7225  -37.6506   23.6647 H   0  0  0  0  0  0
  -26.0417  -31.5928   20.5919 H   0  0  0  0  0  0
  -26.8201  -30.8913   21.9815 H   0  0  0  0  0  0
  -28.1019  -29.1001   21.1851 H   0  0  0  0  0  0
  -26.0895  -25.9681   19.0149 H   0  0  0  0  0  0
  -23.9921  -27.2879   19.0299 H   0  0  0  0  0  0
  -23.7248  -30.5908   19.4026 H   0  0  0  0  0  0
  -22.7415  -29.2352   19.8688 H   0  0  0  0  0  0
  -25.1273  -36.1973   25.0833 H   0  0  0  0  0  0
  -20.9964  -28.3231   24.1433 H   0  0  0  0  0  0
  -20.5652  -26.2269   23.3604 H   0  0  0  0  0  0
  -21.6635  -26.7434   22.1220 H   0  0  0  0  0  0
  -19.6908  -25.6300   21.1224 H   0  0  0  0  0  0
  -19.6694  -27.3203   20.6740 H   0  0  0  0  0  0
  -17.4199  -26.6676   21.4012 H   0  0  0  0  0  0
  -18.0324  -26.0058   22.9008 H   0  0  0  0  0  0
  -19.7930  -30.7244   24.2294 H   0  0  0  0  0  0
  -17.5015  -31.6265   24.5163 H   0  0  0  0  0  0
  -15.5345  -30.2995   23.7638 H   0  0  0  0  0  0
  -15.8664  -28.0823   22.7057 H   0  0  0  0  0  0
  -24.5910  -30.7049   25.7820 H   0  0  0  0  0  0
  -24.8936  -32.2861   26.4919 H   0  0  0  0  0  0
  -25.8105  -30.8880   27.0226 H   0  0  0  0  0  0
  -26.2816  -29.6807   24.1128 H   0  0  0  0  0  0
  -27.4052  -29.7247   25.4520 H   0  0  0  0  0  0
  -27.8654  -30.4339   23.9214 H   0  0  0  0  0  0
  -27.2685  -33.3591   26.2070 H   0  0  0  0  0  0
  -28.3854  -32.6859   25.0291 H   0  0  0  0  0  0
  -28.0728  -31.8403   26.5367 H   0  0  0  0  0  0
  -28.2585  -38.0119   24.7549 H   0  0  0  0  0  0
  -28.1106  -36.2651   24.6220 H   0  0  0  0  0  0
  -27.2317  -37.1384   25.8863 H   0  0  0  0  0  0
  -20.9296  -29.8753   21.6945 H   0  0  0  0  0  0
  -26.0174  -38.2874   24.1449 H   0  0  0  0  0  0
  -27.9212  -24.1830   23.2045 H   0  0  0  0  0  0
  -29.6396  -22.0879   19.1299 H   0  0  0  0  0  0
  -29.5078  -19.8865   27.6512 H   0  0  0  0  0  0
  -30.0192  -21.5061   27.1894 H   0  0  0  0  0  0
  -30.6189  -20.1045   26.3088 H   0  0  0  0  0  0
  -27.0892  -20.5596   27.4498 H   0  0  0  0  0  0
  -26.4221  -21.1235   25.9329 H   0  0  0  0  0  0
  -27.4474  -22.1896   26.8905 H   0  0  0  0  0  0
  -29.9104  -16.4388   23.6421 H   0  0  0  0  0  0
  -29.6917  -18.0902   24.1736 H   0  0  0  0  0  0
  -31.2137  -17.5816   23.4565 H   0  0  0  0  0  0
  -27.8930  -16.4874   22.3587 H   0  0  0  0  0  0
  -27.6155  -17.5815   21.0314 H   0  0  0  0  0  0
  -27.5193  -18.1501   22.7028 H   0  0  0  0  0  0
  -31.4053  -20.7748   21.5777 H   0  0  0  0  0  0
  -31.5056  -19.4378   20.4423 H   0  0  0  0  0  0
  -31.9508  -19.2142   22.1331 H   0  0  0  0  0  0
  -27.5546  -20.4918   23.2285 H   0  0  0  0  0  0
  -26.9528  -21.9871   23.8536 H   0  0  0  0  0  0
  -29.0817  -19.8782   19.8602 H   0  0  0  0  0  0
  -27.8390  -19.8018   21.0567 H   0  0  0  0  0  0
  -29.7035  -26.3096   21.5905 H   0  0  0  0  0  0
  -28.0411  -26.2975   22.1013 H   0  0  0  0  0  0
  -29.1334  -22.5031   24.9229 H   0  0  0  0  0  0
  -29.8576  -21.1084   24.1843 H   0  0  0  0  0  0
  -31.3719  -17.0665   20.9754 H   0  0  0  0  0  0
  -29.9886  -17.2334   19.9246 H   0  0  0  0  0  0
  -28.3239  -19.6130   25.4901 H   0  0  0  0  0  0
  -29.0743  -15.2572   21.4492 H   0  0  0  0  0  0
  -29.6790  -19.7297   22.6926 H   0  0  0  0  0  0
  1 25  1  0  0  0
  1 30  2  0  0  0
  1 89  1  0  0  0
  2  3  1  0  0  0
  2 25  1  0  0  0
  2 91  1  0  0  0
  2 92  1  0  0  0
  3  4  1  0  0  0
  3 93  1  0  0  0
  3 94  1  0  0  0
  4  5  1  0  0  0
  4 95  1  0  0  0
  4 96  1  0  0  0
  5  6  1  0  0  0
  5 26  1  0  0  0
  5 97  1  0  0  0
  6 25  1  0  0  0
  6 98  1  0  0  0
  6 99  1  0  0  0
  7  8  2  0  0  0
  7 26  1  0  0  0
  7 29  1  0  0  0
  8  9  1  0  0  0
  8 22  1  0  0  0
  9 10  1  0  0  0
  9 27  2  0  0  0
 10 11  2  0  0  0
 10 15  1  0  0  0
 11 12  1  0  0  0
 11100  1  0  0  0
 12 13  2  0  0  0
 12101  1  0  0  0
 13 14  1  0  0  0
 13 31  1  0  0  0
 14 15  2  0  0  0
 14102  1  0  0  0
 15103  1  0  0  0
 16 17  2  0  0  0
 16 21  1  0  0  0
 16 31  1  0  0  0
 17 18  1  0  0  0
 17104  1  0  0  0
 18 19  2  0  0  0
 18105  1  0  0  0
 19 20  1  0  0  0
 19 24  1  0  0  0
 20 21  2  0  0  0
 20106  1  0  0  0
 21 23  1  0  0  0
 22 28  1  0  0  0
 22 32  2  0  0  0
 26 27  1  0  0  0
 28107  1  0  0  0
 28108  1  0  0  0
 29109  1  0  0  0
 29110  1  0  0  0
 33 34  1  0  0  0
 33 66  1  0  0  0
 33 70  2  0  0  0
 34 36  1  0  0  0
 34 59  1  0  0  0
 34111  1  0  0  0
 35 44  2  0  0  0
 35 45  1  0  0  0
 35 68  1  0  0  0
 36 56  1  0  0  0
 36112  1  0  0  0
 37 39  1  0  0  0
 37 47  1  0  0  0
 37 66  1  0  0  0
 37113  1  0  0  0
 38 43  2  0  0  0
 38 46  1  0  0  0
 38 47  1  0  0  0
 39 64  1  0  0  0
 39 67  2  0  0  0
 40 52  1  0  0  0
 40 53  2  0  0  0
 40 58  1  0  0  0
 41114  1  0  0  0
 41115  1  0  0  0
 41116  1  0  0  0
 41 48  1  0  0  0
 42 43  1  0  0  0
 42 66  1  0  0  0
 42117  1  0  0  0
 42118  1  0  0  0
 43 44  1  0  0  0
 44119  1  0  0  0
 45 46  2  0  0  0
 45120  1  0  0  0
 46121  1  0  0  0
 47122  1  0  0  0
 47123  1  0  0  0
 48 56  1  0  0  0
 48 65  1  0  0  0
 48124  1  0  0  0
 49 50  1  0  0  0
 49 53  1  0  0  0
 49 64  1  0  0  0
 49125  1  0  0  0
 50 51  1  0  0  0
 50126  1  0  0  0
 50127  1  0  0  0
 51 52  1  0  0  0
 51128  1  0  0  0
 51129  1  0  0  0
 52130  1  0  0  0
 52131  1  0  0  0
 53 54  1  0  0  0
 54 55  2  0  0  0
 54132  1  0  0  0
 55 57  1  0  0  0
 55133  1  0  0  0
 56 69  2  0  0  0
 57 58  2  0  0  0
 57134  1  0  0  0
 58135  1  0  0  0
 59 60  1  0  0  0
 59 61  1  0  0  0
 59 62  1  0  0  0
 60136  1  0  0  0
 60137  1  0  0  0
 60138  1  0  0  0
 61139  1  0  0  0
 61140  1  0  0  0
 61141  1  0  0  0
 62142  1  0  0  0
 62143  1  0  0  0
 62144  1  0  0  0
 63 65  1  0  0  0
 63145  1  0  0  0
 63146  1  0  0  0
 63147  1  0  0  0
 64148  1  0  0  0
 65149  1  0  0  0
 68 83  1  0  0  0
 71 73  2  0  0  0
 71 75  1  0  0  0
 71150  1  0  0  0
 72 74  2  0  0  0
 72 88  1  0  0  0
 72151  1  0  0  0
 73 74  1  0  0  0
 73 81  1  0  0  0
 74 82  1  0  0  0
 75 83  1  0  0  0
 75 88  2  0  0  0
 76152  1  0  0  0
 76153  1  0  0  0
 76154  1  0  0  0
 76 86  1  0  0  0
 77 86  1  0  0  0
 77155  1  0  0  0
 77156  1  0  0  0
 77157  1  0  0  0
 78158  1  0  0  0
 78159  1  0  0  0
 78160  1  0  0  0
 78 87  1  0  0  0
 79 87  1  0  0  0
 79161  1  0  0  0
 79162  1  0  0  0
 79163  1  0  0  0
 80164  1  0  0  0
 80165  1  0  0  0
 80166  1  0  0  0
 80 90  1  0  0  0
 81 84  1  0  0  0
 81167  1  0  0  0
 81168  1  0  0  0
 82 90  1  0  0  0
 82169  1  0  0  0
 82170  1  0  0  0
 83171  1  0  0  0
 83172  1  0  0  0
 84 86  1  0  0  0
 84173  1  0  0  0
 84174  1  0  0  0
 85 87  1  0  0  0
 85 89  1  0  0  0
 85175  1  0  0  0
 85176  1  0  0  0
 86177  1  0  0  0
 87 90  1  0  0  0
 89178  1  0  0  0
 90179  1  0  0  0
M  CHG  1  90   1
M  ISO  4   1 100  68 101  83 101  89 100
M  END
> <chiral flag>
0

> <version>
0

> <s_m_source_file>
/data/baiqing/PycharmProjects/Reinvent-master-3.2/result/LINK_invent/BTK/process_docking_weight1_custom_sum_contain_oxygen_bond_distance_aromatic_linkinvent_7_9_3/rearranged_h_0102.sdf

> <i_m_source_file_index>
24

> <r_mmod_Potential_Energy-OPLS-2005>
-271.537780761719

> <r_mmod_Stretch_Energy-OPLS-2005>
48.6768035888672

> <r_mmod_Bend_Energy-OPLS-2005>
114.767913818359

> <r_mmod_Torsional_Energy-OPLS-2005>
252.216766357422

> <r_mmod_Improper_Torsional_Energy-OPLS-2005>
4.85661602020264

> <r_mmod_Van_der_Waal_Energy-OPLS-2005>
145.897872924805

> <r_mmod_Electrostatic_Energy-OPLS-2005>
-402.769256591797

> <r_mmod_Solvation_Energy-OPLS-2005>
-447.728637695312

> <b_mmod_Minimization_Converged-OPLS-2005>
0

> <r_mmod_RMS_Derivative-OPLS-2005>
1.07276129722595

$$$$
24
                    3D
 Structure written by MMmdl.
190198  0  0  1  0            999 V2000
  -30.7792  -14.4321   20.6114 C   0  0  0  0  0  0
  -30.4064  -12.3014   19.4444 C   0  0  0  0  0  0
  -29.4858  -12.4783   18.2158 C   0  0  0  0  0  0
  -28.0092  -12.3363   18.6286 C   0  0  0  0  0  0
  -27.6555  -13.2023   19.8651 C   0  0  2  0  0  0
  -28.6876  -12.9788   20.9905 C   0  0  0  0  0  0
  -25.2576  -13.8179   20.5637 C   0  0  0  0  0  0
  -24.1784  -13.0392   20.9173 C   0  0  0  0  0  0
  -24.6328  -11.6900   20.8694 C   0  0  0  0  0  0
  -23.8987  -10.4289   21.0409 C   0  0  0  0  0  0
  -24.3601   -9.4242   21.9137 C   0  0  0  0  0  0
  -23.6270   -8.2278   22.0756 C   0  0  0  0  0  0
  -22.4267   -8.0268   21.3536 C   0  0  0  0  0  0
  -21.9880   -9.0252   20.4650 C   0  0  0  0  0  0
  -22.7206  -10.2110   20.3018 C   0  0  0  0  0  0
  -21.6857   -6.0721   22.5283 C   0  0  0  0  0  0
  -21.4025   -6.5629   23.8211 C   0  0  0  0  0  0
  -21.3647   -5.6776   24.9156 C   0  0  0  0  0  0
  -21.6056   -4.3052   24.7232 C   0  0  0  0  0  0
  -21.8826   -3.8144   23.4337 C   0  0  0  0  0  0
  -21.9217   -4.6941   22.3400 C   0  0  0  0  0  0
  -22.7859  -13.5241   21.1866 C   0  0  0  0  0  0
  -22.1678   -4.2121   21.0968 F   0  0  0  0  0  0
  -21.5623   -3.4533   25.7732 F   0  0  0  0  0  0
  -30.0286  -13.2974   20.4666 N   0  0  0  0  0  0
  -26.2961  -12.9349   20.3318 N   0  0  0  0  0  0
  -25.9250  -11.6497   20.5725 N   0  0  0  0  0  0
  -22.0529  -12.8129   22.0430 N   0  0  0  0  0  0
  -25.4333  -15.1881   20.4108 N   0  0  0  0  0  0
  -31.8207  -14.6026   19.9741 O   0  0  0  0  0  0
  -21.6645   -6.8846   21.4227 O   0  0  0  0  0  0
  -22.3536  -14.5547   20.6777 O   0  0  0  0  0  0
  -24.6142  -31.8649   23.2193 C   0  0  0  0  0  0
  -25.9056  -32.4793   23.8395 C   0  0  1  0  0  0
  -27.1620  -27.3982   19.9965 C   0  0  0  0  0  0
  -25.5865  -33.8599   24.2284 N   0  0  0  0  0  0
  -23.3959  -30.5086   21.5572 C   0  0  2  0  0  0
  -24.8136  -28.9861   20.1146 C   0  0  0  0  0  0
  -22.7414  -29.4655   22.4975 C   0  0  0  0  0  0
  -18.0320  -28.1323   22.8514 C   0  0  0  0  0  0
  -24.1493  -36.7332   23.2648 C   0  0  0  0  0  0
  -25.9367  -30.8143   21.3776 C   0  0  0  0  0  0
  -25.9956  -29.4523   20.7074 C   0  0  0  0  0  0
  -27.1822  -28.6624   20.6520 C   0  0  0  0  0  0
  -25.9695  -27.0044   19.3704 C   0  0  0  0  0  0
  -24.7912  -27.7538   19.4486 C   0  0  0  0  0  0
  -23.5948  -29.8665   20.1670 C   0  0  0  0  0  0
  -25.4126  -36.3101   24.0335 C   0  0  1  0  0  0
  -20.5848  -28.3659   23.1379 C   0  0  2  0  0  0
  -20.6755  -26.9354   22.5599 C   0  0  0  0  0  0
  -19.5738  -26.6264   21.5394 C   0  0  0  0  0  0
  -18.1966  -26.7820   22.1797 C   0  0  0  0  0  0
  -19.1534  -28.8835   23.2874 C   0  0  0  0  0  0
  -18.9461  -30.1484   23.8796 C   0  0  0  0  0  0
  -17.6465  -30.6626   24.0316 C   0  0  0  0  0  0
  -25.9028  -34.9454   23.5101 C   0  0  0  0  0  0
  -16.5342  -29.9109   23.6090 C   0  0  0  0  0  0
  -16.7305  -28.6472   23.0252 C   0  0  0  0  0  0
  -26.4495  -31.6576   25.0730 C   0  0  0  0  0  0
  -25.3781  -31.3680   26.1504 C   0  0  0  0  0  0
  -27.0295  -30.2980   24.6153 C   0  0  0  0  0  0
  -27.6058  -32.4346   25.7466 C   0  0  0  0  0  0
  -27.5590  -37.1809   24.8469 C   0  0  0  0  0  0
  -21.4124  -29.2986   22.3720 N   0  0  0  0  0  0
  -26.4305  -37.3793   23.9430 N   0  0  0  0  0  0
  -24.6689  -31.0796   22.1069 N   0  0  0  0  0  0
  -23.4217  -28.8176   23.3024 O   0  0  0  0  0  0
  -28.2691  -26.5827   19.8640 O   0  0  0  0  0  0
  -26.5669  -34.8886   22.4716 O   0  0  0  0  0  0
  -23.5317  -32.1444   23.7548 O   0  0  0  0  0  0
  -29.7499  -19.6076   22.6421 C   0  0  0  0  0  0
  -29.4337  -18.0976   21.0631 C   0  0  0  0  0  0
  -29.4474  -18.4264   23.2753 C   0  0  0  0  0  0
  -29.4277  -17.3992   22.2547 C   0  0  0  0  0  0
  -21.8234  -23.0650   16.4225 C   0  0  0  0  0  0
  -30.3378  -17.7602   25.5964 C   0  0  0  0  0  0
  -27.7659  -17.9397   25.1303 C   0  0  0  0  0  0
  -29.5399  -15.2115   23.6831 C   0  0  0  0  0  0
  -27.6463  -21.7055   21.4738 C   0  0  0  0  0  0
  -28.1738  -21.8598   17.9764 C   0  0  0  0  0  0
  -23.2964  -22.8045   16.7315 C   0  0  0  0  0  0
  -23.8476  -23.5503   17.9662 C   0  0  0  0  0  0
  -25.3304  -23.1675   18.1733 C   0  0  0  0  0  0
  -26.0405  -23.6723   19.4609 C   0  0  0  0  0  0
  -29.6429  -20.5114   20.2544 C   0  0  0  0  0  0
  -28.1709  -25.1664   20.2178 C   0  0  0  0  0  0
  -29.2013  -18.3858   24.7761 C   0  0  0  0  0  0
  -29.3754  -15.8587   22.2998 C   0  0  2  0  0  0
  -28.8467  -21.8709   20.5177 C   0  0  1  0  0  0
  -28.5227  -22.7301   19.2039 C   0  0  2  0  0  0
  -27.5773  -24.0237   19.2654 C   0  0  1  0  0  0
  -29.5942  -19.4602   21.2851 N   0  0  0  0  0  0
  -30.5207  -15.3733   21.5344 N   0  0  0  0  0  0
  -31.4539  -12.3642   19.1391 H   0  0  0  0  0  0
  -30.3047  -11.2953   19.8534 H   0  0  0  0  0  0
  -29.7267  -11.7224   17.4633 H   0  0  0  0  0  0
  -29.6587  -13.4511   17.7506 H   0  0  0  0  0  0
  -27.8432  -11.2835   18.8541 H   0  0  0  0  0  0
  -27.3487  -12.5716   17.7947 H   0  0  0  0  0  0
  -27.7030  -14.2454   19.5565 H   0  0  0  0  0  0
  -28.6658  -11.9380   21.3132 H   0  0  0  0  0  0
  -28.4098  -13.5266   21.8748 H   0  0  0  0  0  0
  -25.2746   -9.5704   22.4714 H   0  0  0  0  0  0
  -24.0015   -7.4653   22.7431 H   0  0  0  0  0  0
  -21.0864   -8.8721   19.8935 H   0  0  0  0  0  0
  -22.3668  -10.9622   19.6142 H   0  0  0  0  0  0
  -21.2017   -7.6129   23.9674 H   0  0  0  0  0  0
  -21.1468   -6.0510   25.9030 H   0  0  0  0  0  0
  -22.0627   -2.7596   23.2849 H   0  0  0  0  0  0
  -22.4204  -11.9735   22.4658 H   0  0  0  0  0  0
  -21.1142  -13.1103   22.2692 H   0  0  0  0  0  0
  -24.6782  -15.8543   20.5312 H   0  0  0  0  0  0
  -26.2995  -15.6216   20.1156 H   0  0  0  0  0  0
  -26.7132  -32.5431   23.1129 H   0  0  0  0  0  0
  -24.9819  -33.9728   25.0285 H   0  0  0  0  0  0
  -22.6854  -31.3262   21.4308 H   0  0  0  0  0  0
  -23.3698  -35.9707   23.3327 H   0  0  0  0  0  0
  -24.3588  -36.8948   22.2055 H   0  0  0  0  0  0
  -23.7272  -37.6559   23.6663 H   0  0  0  0  0  0
  -26.0747  -31.5897   20.6190 H   0  0  0  0  0  0
  -26.8206  -30.8446   22.0046 H   0  0  0  0  0  0
  -28.0869  -29.0325   21.1153 H   0  0  0  0  0  0
  -25.9573  -26.1229   18.7596 H   0  0  0  0  0  0
  -23.8973  -27.3971   18.9468 H   0  0  0  0  0  0
  -23.7226  -30.6488   19.4194 H   0  0  0  0  0  0
  -22.7095  -29.3087   19.8555 H   0  0  0  0  0  0
  -25.1275  -36.1965   25.0824 H   0  0  0  0  0  0
  -20.9977  -28.3386   24.1465 H   0  0  0  0  0  0
  -20.5534  -26.2339   23.3863 H   0  0  0  0  0  0
  -21.6696  -26.7283   22.1566 H   0  0  0  0  0  0
  -19.7018  -25.6162   21.1506 H   0  0  0  0  0  0
  -19.6783  -27.3015   20.6863 H   0  0  0  0  0  0
  -18.0504  -26.0074   22.9305 H   0  0  0  0  0  0
  -17.4211  -26.6387   21.4288 H   0  0  0  0  0  0
  -19.7927  -30.7383   24.2075 H   0  0  0  0  0  0
  -17.5006  -31.6417   24.4705 H   0  0  0  0  0  0
  -15.5345  -30.3107   23.7245 H   0  0  0  0  0  0
  -15.8710  -28.0795   22.6948 H   0  0  0  0  0  0
  -24.5967  -30.7006   25.7897 H   0  0  0  0  0  0
  -24.8952  -32.2806   26.4977 H   0  0  0  0  0  0
  -25.8163  -30.8870   27.0240 H   0  0  0  0  0  0
  -26.2815  -29.6771   24.1214 H   0  0  0  0  0  0
  -27.4027  -29.7226   25.4629 H   0  0  0  0  0  0
  -27.8696  -30.4280   23.9334 H   0  0  0  0  0  0
  -27.2641  -33.3636   26.2048 H   0  0  0  0  0  0
  -28.3811  -32.6934   25.0246 H   0  0  0  0  0  0
  -28.0787  -31.8478   26.5353 H   0  0  0  0  0  0
  -28.2575  -38.0101   24.7461 H   0  0  0  0  0  0
  -28.1055  -36.2632   24.6309 H   0  0  0  0  0  0
  -27.2302  -37.1513   25.8849 H   0  0  0  0  0  0
  -20.9309  -29.8677   21.6906 H   0  0  0  0  0  0
  -26.0158  -38.2858   24.1397 H   0  0  0  0  0  0
  -29.9516  -20.5860   23.0557 H   0  0  0  0  0  0
  -29.3465  -17.7304   20.0446 H   0  0  0  0  0  0
  -21.5279  -22.5006   15.5369 H   0  0  0  0  0  0
  -21.6352  -24.1161   16.2173 H   0  0  0  0  0  0
  -21.1804  -22.7493   17.2412 H   0  0  0  0  0  0
  -31.3053  -17.9242   25.1130 H   0  0  0  0  0  0
  -30.2087  -16.6951   25.7727 H   0  0  0  0  0  0
  -30.3868  -18.2265   26.5799 H   0  0  0  0  0  0
  -27.0370  -18.6583   24.7510 H   0  0  0  0  0  0
  -27.6355  -17.8803   26.2093 H   0  0  0  0  0  0
  -27.4722  -16.9813   24.7080 H   0  0  0  0  0  0
  -29.4919  -14.1278   23.6297 H   0  0  0  0  0  0
  -28.7893  -15.4936   24.4004 H   0  0  0  0  0  0
  -30.5248  -15.4335   24.0876 H   0  0  0  0  0  0
  -27.2274  -22.6812   21.7412 H   0  0  0  0  0  0
  -27.9220  -21.2927   22.4425 H   0  0  0  0  0  0
  -26.8647  -21.0567   21.0589 H   0  0  0  0  0  0
  -28.9670  -21.1660   17.7051 H   0  0  0  0  0  0
  -28.0258  -22.4723   17.0824 H   0  0  0  0  0  0
  -27.2815  -21.2531   18.1402 H   0  0  0  0  0  0
  -23.8952  -23.0609   15.8538 H   0  0  0  0  0  0
  -23.4278  -21.7320   16.8802 H   0  0  0  0  0  0
  -23.2674  -23.3032   18.8588 H   0  0  0  0  0  0
  -23.7693  -24.6307   17.8292 H   0  0  0  0  0  0
  -25.8809  -23.4711   17.2784 H   0  0  0  0  0  0
  -25.3448  -22.0745   18.1718 H   0  0  0  0  0  0
  -25.8721  -22.8822   20.1875 H   0  0  0  0  0  0
  -25.4649  -24.4979   19.8984 H   0  0  0  0  0  0
  -30.6906  -20.7338   20.0678 H   0  0  0  0  0  0
  -29.2843  -20.0120   19.3577 H   0  0  0  0  0  0
  -27.8066  -25.0926   21.2390 H   0  0  0  0  0  0
  -29.2310  -24.9461   20.3278 H   0  0  0  0  0  0
  -29.2273  -19.4349   25.0695 H   0  0  0  0  0  0
  -28.4240  -15.5972   21.8319 H   0  0  0  0  0  0
  -29.5398  -22.4811   21.0957 H   0  0  0  0  0  0
  -29.4982  -23.1438   18.9438 H   0  0  0  0  0  0
  -27.6366  -24.4697   18.2783 H   0  0  0  0  0  0
  -31.2849  -16.0346   21.5690 H   0  0  0  0  0  0
  1 25  1  0  0  0
  1 30  2  0  0  0
  1 93  1  0  0  0
  2  3  1  0  0  0
  2 25  1  0  0  0
  2 94  1  0  0  0
  2 95  1  0  0  0
  3  4  1  0  0  0
  3 96  1  0  0  0
  3 97  1  0  0  0
  4  5  1  0  0  0
  4 98  1  0  0  0
  4 99  1  0  0  0
  5  6  1  0  0  0
  5 26  1  0  0  0
  5100  1  0  0  0
  6 25  1  0  0  0
  6101  1  0  0  0
  6102  1  0  0  0
  7  8  2  0  0  0
  7 26  1  0  0  0
  7 29  1  0  0  0
  8  9  1  0  0  0
  8 22  1  0  0  0
  9 10  1  0  0  0
  9 27  2  0  0  0
 10 11  2  0  0  0
 10 15  1  0  0  0
 11 12  1  0  0  0
 11103  1  0  0  0
 12 13  2  0  0  0
 12104  1  0  0  0
 13 14  1  0  0  0
 13 31  1  0  0  0
 14 15  2  0  0  0
 14105  1  0  0  0
 15106  1  0  0  0
 16 17  2  0  0  0
 16 21  1  0  0  0
 16 31  1  0  0  0
 17 18  1  0  0  0
 17107  1  0  0  0
 18 19  2  0  0  0
 18108  1  0  0  0
 19 20  1  0  0  0
 19 24  1  0  0  0
 20 21  2  0  0  0
 20109  1  0  0  0
 21 23  1  0  0  0
 22 28  1  0  0  0
 22 32  2  0  0  0
 26 27  1  0  0  0
 28110  1  0  0  0
 28111  1  0  0  0
 29112  1  0  0  0
 29113  1  0  0  0
 33 34  1  0  0  0
 33 66  1  0  0  0
 33 70  2  0  0  0
 34 36  1  0  0  0
 34 59  1  0  0  0
 34114  1  0  0  0
 35 44  2  0  0  0
 35 45  1  0  0  0
 35 68  1  0  0  0
 36 56  1  0  0  0
 36115  1  0  0  0
 37 39  1  0  0  0
 37 47  1  0  0  0
 37 66  1  0  0  0
 37116  1  0  0  0
 38 43  2  0  0  0
 38 46  1  0  0  0
 38 47  1  0  0  0
 39 64  1  0  0  0
 39 67  2  0  0  0
 40 52  1  0  0  0
 40 53  2  0  0  0
 40 58  1  0  0  0
 41117  1  0  0  0
 41118  1  0  0  0
 41119  1  0  0  0
 41 48  1  0  0  0
 42 43  1  0  0  0
 42 66  1  0  0  0
 42120  1  0  0  0
 42121  1  0  0  0
 43 44  1  0  0  0
 44122  1  0  0  0
 45 46  2  0  0  0
 45123  1  0  0  0
 46124  1  0  0  0
 47125  1  0  0  0
 47126  1  0  0  0
 48 56  1  0  0  0
 48 65  1  0  0  0
 48127  1  0  0  0
 49 50  1  0  0  0
 49 53  1  0  0  0
 49 64  1  0  0  0
 49128  1  0  0  0
 50 51  1  0  0  0
 50129  1  0  0  0
 50130  1  0  0  0
 51 52  1  0  0  0
 51131  1  0  0  0
 51132  1  0  0  0
 52133  1  0  0  0
 52134  1  0  0  0
 53 54  1  0  0  0
 54 55  2  0  0  0
 54135  1  0  0  0
 55 57  1  0  0  0
 55136  1  0  0  0
 56 69  2  0  0  0
 57 58  2  0  0  0
 57137  1  0  0  0
 58138  1  0  0  0
 59 60  1  0  0  0
 59 61  1  0  0  0
 59 62  1  0  0  0
 60139  1  0  0  0
 60140  1  0  0  0
 60141  1  0  0  0
 61142  1  0  0  0
 61143  1  0  0  0
 61144  1  0  0  0
 62145  1  0  0  0
 62146  1  0  0  0
 62147  1  0  0  0
 63 65  1  0  0  0
 63148  1  0  0  0
 63149  1  0  0  0
 63150  1  0  0  0
 64151  1  0  0  0
 65152  1  0  0  0
 68 86  1  0  0  0
 71 73  2  0  0  0
 71 92  1  0  0  0
 71153  1  0  0  0
 72 74  2  0  0  0
 72 92  1  0  0  0
 72154  1  0  0  0
 73 74  1  0  0  0
 73 87  1  0  0  0
 74 88  1  0  0  0
 75 81  1  0  0  0
 75155  1  0  0  0
 75156  1  0  0  0
 75157  1  0  0  0
 76158  1  0  0  0
 76159  1  0  0  0
 76160  1  0  0  0
 76 87  1  0  0  0
 77 87  1  0  0  0
 77161  1  0  0  0
 77162  1  0  0  0
 77163  1  0  0  0
 78164  1  0  0  0
 78165  1  0  0  0
 78166  1  0  0  0
 78 88  1  0  0  0
 79167  1  0  0  0
 79168  1  0  0  0
 79169  1  0  0  0
 79 89  1  0  0  0
 80170  1  0  0  0
 80171  1  0  0  0
 80172  1  0  0  0
 80 90  1  0  0  0
 81 82  1  0  0  0
 81173  1  0  0  0
 81174  1  0  0  0
 82 83  1  0  0  0
 82175  1  0  0  0
 82176  1  0  0  0
 83 84  1  0  0  0
 83177  1  0  0  0
 83178  1  0  0  0
 84179  1  0  0  0
 84180  1  0  0  0
 84 91  1  0  0  0
 85 89  1  0  0  0
 85 92  1  0  0  0
 85181  1  0  0  0
 85182  1  0  0  0
 86 91  1  0  0  0
 86183  1  0  0  0
 86184  1  0  0  0
 87185  1  0  0  0
 88 93  1  0  0  0
 88186  1  0  0  0
 89 90  1  0  0  0
 89187  1  0  0  0
 90 91  1  0  0  0
 90188  1  0  0  0
 91189  1  0  0  0
 93190  1  0  0  0
M  ISO  4   1 100  68 101  86 101  93 100
M  END
> <chiral flag>
0

> <version>
0

> <s_m_source_file>
/data/baiqing/PycharmProjects/Reinvent-master-3.2/result/LINK_invent/BTK/process_docking_weight1_custom_sum_contain_oxygen_bond_distance_aromatic_linkinvent_7_9_3/rearranged_h_0102.sdf

> <i_m_source_file_index>
25

> <r_mmod_Potential_Energy-OPLS-2005>
212.01725769043

> <r_mmod_Stretch_Energy-OPLS-2005>
72.8059692382812

> <r_mmod_Bend_Energy-OPLS-2005>
244.40983581543

> <r_mmod_Torsional_Energy-OPLS-2005>
321.442596435547

> <r_mmod_Improper_Torsional_Energy-OPLS-2005>
3.93058943748474

> <r_mmod_Van_der_Waal_Energy-OPLS-2005>
152.287933349609

> <r_mmod_Electrostatic_Energy-OPLS-2005>
-434.556365966797

> <r_mmod_Solvation_Energy-OPLS-2005>
-176.851669311523

> <b_mmod_Minimization_Converged-OPLS-2005>
0

> <r_mmod_RMS_Derivative-OPLS-2005>
18.0532379150391

$$$$
25
                    3D
 Structure written by MMmdl.
150158  0  0  1  0            999 V2000
  -30.5332  -15.0087   20.4087 C   0  0  0  0  0  0
  -30.4380  -12.6296   19.5059 C   0  0  0  0  0  0
  -29.5248  -12.5330   18.2620 C   0  0  0  0  0  0
  -28.0600  -12.3095   18.6813 C   0  0  0  0  0  0
  -27.6245  -13.2544   19.8324 C   0  0  2  0  0  0
  -28.6650  -13.3190   20.9700 C   0  0  0  0  0  0
  -25.2443  -13.8223   20.5726 C   0  0  0  0  0  0
  -24.1767  -13.0438   20.9238 C   0  0  0  0  0  0
  -24.6393  -11.6923   20.8753 C   0  0  0  0  0  0
  -23.9087  -10.4291   21.0399 C   0  0  0  0  0  0
  -24.3634   -9.4203   21.9174 C   0  0  0  0  0  0
  -23.6305   -8.2240   22.0748 C   0  0  0  0  0  0
  -22.4282   -8.0284   21.3546 C   0  0  0  0  0  0
  -21.9921   -9.0258   20.4646 C   0  0  0  0  0  0
  -22.7257  -10.2135   20.3054 C   0  0  0  0  0  0
  -21.6855   -6.0739   22.5285 C   0  0  0  0  0  0
  -21.4016   -6.5640   23.8218 C   0  0  0  0  0  0
  -21.3660   -5.6795   24.9179 C   0  0  0  0  0  0
  -21.6041   -4.3058   24.7228 C   0  0  0  0  0  0
  -21.8818   -3.8150   23.4348 C   0  0  0  0  0  0
  -21.9191   -4.6968   22.3405 C   0  0  0  0  0  0
  -22.7787  -13.5208   21.1881 C   0  0  0  0  0  0
  -22.1655   -4.2153   21.0982 F   0  0  0  0  0  0
  -21.5624   -3.4540   25.7738 F   0  0  0  0  0  0
  -29.9311  -13.7457   20.3617 N   0  0  0  0  0  0
  -26.2864  -12.9466   20.3231 N   0  0  0  0  0  0
  -25.9328  -11.6587   20.5727 N   0  0  0  0  0  0
  -22.0435  -12.8206   22.0440 N   0  0  0  0  0  0
  -25.4091  -15.1956   20.4162 N   0  0  0  0  0  0
  -31.7448  -15.0393   20.1661 O   0  0  0  0  0  0
  -21.6641   -6.8884   21.4245 O   0  0  0  0  0  0
  -22.3474  -14.5507   20.6720 O   0  0  0  0  0  0
  -24.6491  -31.8391   23.1829 C   0  0  0  0  0  0
  -25.9238  -32.4668   23.8248 C   0  0  1  0  0  0
  -27.2158  -27.0835   20.1551 C   0  0  0  0  0  0
  -25.5955  -33.8476   24.2162 N   0  0  0  0  0  0
  -23.4552  -30.4572   21.5296 C   0  0  2  0  0  0
  -24.9040  -28.8749   20.1090 C   0  0  0  0  0  0
  -22.7599  -29.4525   22.4837 C   0  0  0  0  0  0
  -18.0308  -28.1399   22.8469 C   0  0  0  0  0  0
  -24.1489  -36.7244   23.2645 C   0  0  0  0  0  0
  -26.0152  -30.6959   21.3893 C   0  0  0  0  0  0
  -26.0839  -29.3027   20.7295 C   0  0  0  0  0  0
  -27.2392  -28.4251   20.7312 C   0  0  0  0  0  0
  -26.0028  -26.7668   19.5038 C   0  0  0  0  0  0
  -24.8794  -27.6226   19.4792 C   0  0  0  0  0  0
  -23.6840  -29.7840   20.1504 C   0  0  0  0  0  0
  -25.4122  -36.3015   24.0313 C   0  0  1  0  0  0
  -20.5925  -28.3734   23.1215 C   0  0  2  0  0  0
  -20.6787  -26.9430   22.5401 C   0  0  0  0  0  0
  -19.5762  -26.6378   21.5210 C   0  0  0  0  0  0
  -18.1946  -26.7932   22.1624 C   0  0  0  0  0  0
  -19.1567  -28.8886   23.2831 C   0  0  0  0  0  0
  -18.9484  -30.1475   23.8866 C   0  0  0  0  0  0
  -17.6481  -30.6592   24.0556 C   0  0  0  0  0  0
  -25.9080  -34.9390   23.5052 C   0  0  0  0  0  0
  -16.5370  -29.9087   23.6333 C   0  0  0  0  0  0
  -16.7293  -28.6504   23.0359 C   0  0  0  0  0  0
  -26.4529  -31.6560   25.0720 C   0  0  0  0  0  0
  -25.3690  -31.3771   26.1403 C   0  0  0  0  0  0
  -27.0410  -30.2947   24.6353 C   0  0  0  0  0  0
  -27.6041  -32.4347   25.7510 C   0  0  0  0  0  0
  -27.5572  -37.1779   24.8464 C   0  0  0  0  0  0
  -21.4287  -29.3050   22.3584 N   0  0  0  0  0  0
  -26.4279  -37.3734   23.9412 N   0  0  0  0  0  0
  -24.7267  -31.0206   22.0883 N   0  0  0  0  0  0
  -23.4217  -28.8081   23.3013 O   0  0  0  0  0  0
  -28.2635  -26.0746   20.2413 O   0  0  0  0  0  0
  -26.5679  -34.8898   22.4642 O   0  0  0  0  0  0
  -23.5599  -32.1296   23.7016 O   0  0  0  0  0  0
  -28.0809  -19.6095   20.0704 C   0  0  0  0  0  0
  -29.8973  -20.5768   20.5641 C   0  0  0  0  0  0
  -29.4382  -19.2363   20.3791 C   0  0  0  0  0  0
  -28.2046  -24.3797   18.4208 C   0  0  0  0  0  0
  -30.2613  -17.7595   20.4499 C   0  0  0  0  0  0
  -28.9888  -23.2402   20.6335 C   0  0  0  0  0  0
  -28.0890  -24.5248   19.9469 C   0  0  1  0  0  0
  -27.7957  -20.9474   20.0820 N   0  0  0  0  0  0
  -28.9313  -21.6477   20.3692 N   0  0  0  0  0  0
  -29.7869  -16.2332   20.5168 N   0  0  0  0  0  0
  -31.4707  -12.7902   19.1924 H   0  0  0  0  0  0
  -30.4407  -11.6895   20.0597 H   0  0  0  0  0  0
  -29.8556  -11.7243   17.6092 H   0  0  0  0  0  0
  -29.6051  -13.4513   17.6779 H   0  0  0  0  0  0
  -27.9675  -11.2722   19.0058 H   0  0  0  0  0  0
  -27.3979  -12.4190   17.8217 H   0  0  0  0  0  0
  -27.5774  -14.2487   19.3874 H   0  0  0  0  0  0
  -28.7679  -12.3542   21.4689 H   0  0  0  0  0  0
  -28.3537  -14.0328   21.7342 H   0  0  0  0  0  0
  -25.2775   -9.5676   22.4758 H   0  0  0  0  0  0
  -24.0007   -7.4632   22.7473 H   0  0  0  0  0  0
  -21.0843   -8.8792   19.8964 H   0  0  0  0  0  0
  -22.3709  -10.9680   19.6175 H   0  0  0  0  0  0
  -21.2011   -7.6152   23.9727 H   0  0  0  0  0  0
  -21.1477   -6.0519   25.9084 H   0  0  0  0  0  0
  -22.0594   -2.7611   23.2849 H   0  0  0  0  0  0
  -22.4057  -11.9899   22.4881 H   0  0  0  0  0  0
  -21.1046  -13.1228   22.2622 H   0  0  0  0  0  0
  -24.6370  -15.8439   20.5287 H   0  0  0  0  0  0
  -26.2468  -15.6381   20.0624 H   0  0  0  0  0  0
  -26.7308  -32.5255   23.0977 H   0  0  0  0  0  0
  -25.0047  -33.9575   25.0274 H   0  0  0  0  0  0
  -22.7596  -31.2842   21.3711 H   0  0  0  0  0  0
  -23.3755  -35.9572   23.3288 H   0  0  0  0  0  0
  -24.3570  -36.8905   22.2064 H   0  0  0  0  0  0
  -23.7243  -37.6430   23.6704 H   0  0  0  0  0  0
  -26.1810  -31.4477   20.6163 H   0  0  0  0  0  0
  -26.8810  -30.7440   22.0380 H   0  0  0  0  0  0
  -28.1367  -28.7492   21.2389 H   0  0  0  0  0  0
  -25.8769  -25.8046   19.0331 H   0  0  0  0  0  0
  -23.9776  -27.2867   18.9860 H   0  0  0  0  0  0
  -23.8271  -30.5567   19.3941 H   0  0  0  0  0  0
  -22.7970  -29.2304   19.8371 H   0  0  0  0  0  0
  -25.1312  -36.1828   25.0804 H   0  0  0  0  0  0
  -21.0012  -28.3330   24.1339 H   0  0  0  0  0  0
  -20.5665  -26.2356   23.3633 H   0  0  0  0  0  0
  -21.6654  -26.7418   22.1212 H   0  0  0  0  0  0
  -19.6920  -25.6279   21.1266 H   0  0  0  0  0  0
  -19.6693  -27.3164   20.6720 H   0  0  0  0  0  0
  -17.4211  -26.6670   21.4031 H   0  0  0  0  0  0
  -18.0345  -26.0084   22.9031 H   0  0  0  0  0  0
  -19.7961  -30.7292   24.2230 H   0  0  0  0  0  0
  -17.5037  -31.6266   24.5167 H   0  0  0  0  0  0
  -15.5372  -30.2983   23.7666 H   0  0  0  0  0  0
  -15.8694  -28.0807   22.7104 H   0  0  0  0  0  0
  -24.5859  -30.7135   25.7715 H   0  0  0  0  0  0
  -24.8891  -32.2962   26.4771 H   0  0  0  0  0  0
  -25.7948  -30.8969   27.0222 H   0  0  0  0  0  0
  -26.3051  -29.6654   24.1335 H   0  0  0  0  0  0
  -27.3969  -29.7269   25.4960 H   0  0  0  0  0  0
  -27.8977  -30.4171   23.9724 H   0  0  0  0  0  0
  -27.2612  -33.3664   26.2023 H   0  0  0  0  0  0
  -28.3876  -32.6892   25.0360 H   0  0  0  0  0  0
  -28.0682  -31.8526   26.5482 H   0  0  0  0  0  0
  -28.2576  -38.0087   24.7509 H   0  0  0  0  0  0
  -28.1082  -36.2616   24.6285 H   0  0  0  0  0  0
  -27.2292  -37.1415   25.8867 H   0  0  0  0  0  0
  -20.9516  -29.8769   21.6756 H   0  0  0  0  0  0
  -26.0139  -38.2800   24.1412 H   0  0  0  0  0  0
  -27.2698  -18.9368   19.8285 H   0  0  0  0  0  0
  -30.8991  -20.8719   20.8452 H   0  0  0  0  0  0
  -27.9185  -23.3766   18.1038 H   0  0  0  0  0  0
  -29.2322  -24.5452   18.0979 H   0  0  0  0  0  0
  -27.5799  -25.0848   17.8759 H   0  0  0  0  0  0
  -30.9503  -17.8310   21.2925 H   0  0  0  0  0  0
  -30.9367  -17.7536   19.5935 H   0  0  0  0  0  0
  -28.8741  -23.3485   21.7124 H   0  0  0  0  0  0
  -30.0318  -23.5040   20.4597 H   0  0  0  0  0  0
  -27.0590  -24.2973   20.2213 H   0  0  0  0  0  0
  -28.7974  -16.1005   20.6641 H   0  0  0  0  0  0
  1 25  1  0  0  0
  1 30  2  0  0  0
  1 80  1  0  0  0
  2  3  1  0  0  0
  2 25  1  0  0  0
  2 81  1  0  0  0
  2 82  1  0  0  0
  3  4  1  0  0  0
  3 83  1  0  0  0
  3 84  1  0  0  0
  4  5  1  0  0  0
  4 85  1  0  0  0
  4 86  1  0  0  0
  5  6  1  0  0  0
  5 26  1  0  0  0
  5 87  1  0  0  0
  6 25  1  0  0  0
  6 88  1  0  0  0
  6 89  1  0  0  0
  7  8  2  0  0  0
  7 26  1  0  0  0
  7 29  1  0  0  0
  8  9  1  0  0  0
  8 22  1  0  0  0
  9 10  1  0  0  0
  9 27  2  0  0  0
 10 11  2  0  0  0
 10 15  1  0  0  0
 11 12  1  0  0  0
 11 90  1  0  0  0
 12 13  2  0  0  0
 12 91  1  0  0  0
 13 14  1  0  0  0
 13 31  1  0  0  0
 14 15  2  0  0  0
 14 92  1  0  0  0
 15 93  1  0  0  0
 16 17  2  0  0  0
 16 21  1  0  0  0
 16 31  1  0  0  0
 17 18  1  0  0  0
 17 94  1  0  0  0
 18 19  2  0  0  0
 18 95  1  0  0  0
 19 20  1  0  0  0
 19 24  1  0  0  0
 20 21  2  0  0  0
 20 96  1  0  0  0
 21 23  1  0  0  0
 22 28  1  0  0  0
 22 32  2  0  0  0
 26 27  1  0  0  0
 28 97  1  0  0  0
 28 98  1  0  0  0
 29 99  1  0  0  0
 29100  1  0  0  0
 33 34  1  0  0  0
 33 66  1  0  0  0
 33 70  2  0  0  0
 34 36  1  0  0  0
 34 59  1  0  0  0
 34101  1  0  0  0
 35 44  2  0  0  0
 35 45  1  0  0  0
 35 68  1  0  0  0
 36 56  1  0  0  0
 36102  1  0  0  0
 37 39  1  0  0  0
 37 47  1  0  0  0
 37 66  1  0  0  0
 37103  1  0  0  0
 38 43  2  0  0  0
 38 46  1  0  0  0
 38 47  1  0  0  0
 39 64  1  0  0  0
 39 67  2  0  0  0
 40 52  1  0  0  0
 40 53  2  0  0  0
 40 58  1  0  0  0
 41104  1  0  0  0
 41105  1  0  0  0
 41106  1  0  0  0
 41 48  1  0  0  0
 42 43  1  0  0  0
 42 66  1  0  0  0
 42107  1  0  0  0
 42108  1  0  0  0
 43 44  1  0  0  0
 44109  1  0  0  0
 45 46  2  0  0  0
 45110  1  0  0  0
 46111  1  0  0  0
 47112  1  0  0  0
 47113  1  0  0  0
 48 56  1  0  0  0
 48 65  1  0  0  0
 48114  1  0  0  0
 49 50  1  0  0  0
 49 53  1  0  0  0
 49 64  1  0  0  0
 49115  1  0  0  0
 50 51  1  0  0  0
 50116  1  0  0  0
 50117  1  0  0  0
 51 52  1  0  0  0
 51118  1  0  0  0
 51119  1  0  0  0
 52120  1  0  0  0
 52121  1  0  0  0
 53 54  1  0  0  0
 54 55  2  0  0  0
 54122  1  0  0  0
 55 57  1  0  0  0
 55123  1  0  0  0
 56 69  2  0  0  0
 57 58  2  0  0  0
 57124  1  0  0  0
 58125  1  0  0  0
 59 60  1  0  0  0
 59 61  1  0  0  0
 59 62  1  0  0  0
 60126  1  0  0  0
 60127  1  0  0  0
 60128  1  0  0  0
 61129  1  0  0  0
 61130  1  0  0  0
 61131  1  0  0  0
 62132  1  0  0  0
 62133  1  0  0  0
 62134  1  0  0  0
 63 65  1  0  0  0
 63135  1  0  0  0
 63136  1  0  0  0
 63137  1  0  0  0
 64138  1  0  0  0
 65139  1  0  0  0
 68 77  1  0  0  0
 71 73  1  0  0  0
 71 78  2  0  0  0
 71140  1  0  0  0
 72 73  2  0  0  0
 72 79  1  0  0  0
 72141  1  0  0  0
 73 75  1  0  0  0
 74142  1  0  0  0
 74143  1  0  0  0
 74144  1  0  0  0
 74 77  1  0  0  0
 75 80  1  0  0  0
 75145  1  0  0  0
 75146  1  0  0  0
 76 77  1  0  0  0
 76 79  1  0  0  0
 76147  1  0  0  0
 76148  1  0  0  0
 77149  1  0  0  0
 78 79  1  0  0  0
 80150  1  0  0  0
M  ISO  4   1 100  68 101  77 101  80 100
M  END
> <chiral flag>
0

> <version>
0

> <s_m_source_file>
/data/baiqing/PycharmProjects/Reinvent-master-3.2/result/LINK_invent/BTK/process_docking_weight1_custom_sum_contain_oxygen_bond_distance_aromatic_linkinvent_7_9_3/rearranged_h_0102.sdf

> <i_m_source_file_index>
26

> <r_mmod_Potential_Energy-OPLS-2005>
585.374084472656

> <r_mmod_Stretch_Energy-OPLS-2005>
312.812042236328

> <r_mmod_Bend_Energy-OPLS-2005>
304.304321289062

> <r_mmod_Torsional_Energy-OPLS-2005>
202.17985534668

> <r_mmod_Improper_Torsional_Energy-OPLS-2005>
5.15681982040405

> <r_mmod_Van_der_Waal_Energy-OPLS-2005>
108.831512451172

> <r_mmod_Electrostatic_Energy-OPLS-2005>
-357.719512939453

> <r_mmod_Solvation_Energy-OPLS-2005>
-229.495056152344

> <b_mmod_Minimization_Converged-OPLS-2005>
0

> <r_mmod_RMS_Derivative-OPLS-2005>
0.970942199230194

$$$$
26
                    3D
 Structure written by MMmdl.
184192  0  0  1  0            999 V2000
  -30.5461  -15.0340   20.4469 C   0  0  0  0  0  0
  -30.4421  -12.6597   19.4951 C   0  0  0  0  0  0
  -29.5200  -12.5323   18.2583 C   0  0  0  0  0  0
  -28.0622  -12.2889   18.6906 C   0  0  0  0  0  0
  -27.6227  -13.2479   19.8240 C   0  0  2  0  0  0
  -28.6648  -13.3289   20.9610 C   0  0  0  0  0  0
  -25.2468  -13.8216   20.5716 C   0  0  0  0  0  0
  -24.1785  -13.0436   20.9231 C   0  0  0  0  0  0
  -24.6401  -11.6918   20.8743 C   0  0  0  0  0  0
  -23.9106  -10.4285   21.0403 C   0  0  0  0  0  0
  -24.3662   -9.4210   21.9186 C   0  0  0  0  0  0
  -23.6340   -8.2261   22.0788 C   0  0  0  0  0  0
  -22.4324   -8.0305   21.3560 C   0  0  0  0  0  0
  -21.9941   -9.0279   20.4659 C   0  0  0  0  0  0
  -22.7296  -10.2136   20.3061 C   0  0  0  0  0  0
  -21.6845   -6.0772   22.5306 C   0  0  0  0  0  0
  -21.3992   -6.5667   23.8246 C   0  0  0  0  0  0
  -21.3646   -5.6818   24.9206 C   0  0  0  0  0  0
  -21.6027   -4.3079   24.7211 C   0  0  0  0  0  0
  -21.8834   -3.8182   23.4329 C   0  0  0  0  0  0
  -21.9187   -4.7007   22.3391 C   0  0  0  0  0  0
  -22.7793  -13.5214   21.1834 C   0  0  0  0  0  0
  -22.1678   -4.2216   21.0962 F   0  0  0  0  0  0
  -21.5605   -3.4554   25.7699 F   0  0  0  0  0  0
  -29.9271  -13.7759   20.3483 N   0  0  0  0  0  0
  -26.2850  -12.9439   20.3190 N   0  0  0  0  0  0
  -25.9312  -11.6569   20.5662 N   0  0  0  0  0  0
  -22.0445  -12.8212   22.0366 N   0  0  0  0  0  0
  -25.4140  -15.1949   20.4172 N   0  0  0  0  0  0
  -31.7632  -15.0547   20.2449 O   0  0  0  0  0  0
  -21.6654   -6.8929   21.4284 O   0  0  0  0  0  0
  -22.3471  -14.5502   20.6663 O   0  0  0  0  0  0
  -24.6556  -31.8334   23.1908 C   0  0  0  0  0  0
  -25.9295  -32.4620   23.8292 C   0  0  1  0  0  0
  -27.1512  -26.9602   20.1535 C   0  0  0  0  0  0
  -25.5978  -33.8425   24.2173 N   0  0  0  0  0  0
  -23.4694  -30.4575   21.5357 C   0  0  2  0  0  0
  -24.9405  -28.9062   20.0881 C   0  0  0  0  0  0
  -22.7660  -29.4471   22.4806 C   0  0  0  0  0  0
  -18.0320  -28.1307   22.8511 C   0  0  0  0  0  0
  -24.1513  -36.7218   23.2655 C   0  0  0  0  0  0
  -26.0441  -30.6253   21.4583 C   0  0  0  0  0  0
  -26.1019  -29.2297   20.7989 C   0  0  0  0  0  0
  -27.1841  -28.2429   20.8848 C   0  0  0  0  0  0
  -26.1322  -26.9929   19.1704 C   0  0  0  0  0  0
  -24.9742  -27.7893   19.2579 C   0  0  0  0  0  0
  -23.7134  -29.8082   20.1507 C   0  0  0  0  0  0
  -25.4134  -36.2998   24.0342 C   0  0  1  0  0  0
  -20.5940  -28.3709   23.1132 C   0  0  2  0  0  0
  -20.6808  -26.9388   22.5327 C   0  0  0  0  0  0
  -19.5754  -26.6307   21.5181 C   0  0  0  0  0  0
  -18.1958  -26.7840   22.1653 C   0  0  0  0  0  0
  -19.1568  -28.8834   23.2827 C   0  0  0  0  0  0
  -18.9459  -30.1411   23.8879 C   0  0  0  0  0  0
  -17.6439  -30.6528   24.0492 C   0  0  0  0  0  0
  -25.9088  -34.9358   23.5066 C   0  0  0  0  0  0
  -16.5337  -29.9005   23.6268 C   0  0  0  0  0  0
  -16.7291  -28.6381   23.0395 C   0  0  0  0  0  0
  -26.4563  -31.6524   25.0797 C   0  0  0  0  0  0
  -25.3677  -31.3696   26.1443 C   0  0  0  0  0  0
  -27.0497  -30.2886   24.6581 C   0  0  0  0  0  0
  -27.6092  -32.4328   25.7530 C   0  0  0  0  0  0
  -27.5565  -37.1772   24.8489 C   0  0  0  0  0  0
  -21.4337  -29.3024   22.3516 N   0  0  0  0  0  0
  -26.4288  -37.3718   23.9403 N   0  0  0  0  0  0
  -24.7416  -31.0002   22.1092 N   0  0  0  0  0  0
  -23.4242  -28.7995   23.2988 O   0  0  0  0  0  0
  -27.7371  -25.5456   20.4284 O   0  0  0  0  0  0
  -26.5708  -34.8868   22.4673 O   0  0  0  0  0  0
  -23.5621  -32.1359   23.6967 O   0  0  0  0  0  0
  -25.7759  -25.1727   21.3489 C   0  0  0  0  0  0
  -28.7126  -24.4389   22.0303 C   0  0  0  0  0  0
  -27.1581  -25.1827   22.4803 C   0  0  0  0  0  0
  -25.9926  -24.3143   19.8332 C   0  0  0  0  0  0
  -27.5057  -23.5626   19.4625 C   0  0  0  0  0  0
  -28.8225  -23.5359   20.5396 C   0  0  0  0  0  0
  -27.7041  -22.7466   18.1859 C   0  0  0  0  0  0
  -26.1708  -26.5626   25.4196 C   0  0  0  0  0  0
  -21.5079  -24.7381   17.0846 C   0  0  0  0  0  0
  -23.4981  -23.5689   16.1054 C   0  0  0  0  0  0
  -24.7982  -23.8026   18.9972 C   0  0  0  0  0  0
  -25.6386  -25.3905   24.5815 C   0  0  0  0  0  0
  -23.7148  -24.7302   18.4095 C   0  0  0  0  0  0
  -29.6045  -19.2947   20.2573 C   0  0  0  0  0  0
  -26.2816  -23.3042   23.1952 C   0  0  0  0  0  0
  -30.1737  -17.8024   20.9238 C   0  0  0  0  0  0
  -29.6374  -20.8730   20.9756 C   0  0  0  0  0  0
  -26.8148  -23.1752   21.6864 C   0  0  0  0  0  0
  -26.7387  -24.6373   23.7974 C   0  0  1  0  0  0
  -22.7889  -23.9619   17.4185 C   0  0  0  0  0  0
  -29.8080  -16.2669   20.5763 N   0  0  0  0  0  0
  -29.6594  -22.3274   20.3345 O   0  0  0  0  0  0
  -31.4642  -12.8497   19.1631 H   0  0  0  0  0  0
  -30.4744  -11.7251   20.0577 H   0  0  0  0  0  0
  -29.8671  -11.7336   17.5999 H   0  0  0  0  0  0
  -29.5729  -13.4440   17.6635 H   0  0  0  0  0  0
  -27.9882  -11.2559   19.0350 H   0  0  0  0  0  0
  -27.3962  -12.3715   17.8327 H   0  0  0  0  0  0
  -27.5751  -14.2342   19.3619 H   0  0  0  0  0  0
  -28.7751  -12.3602   21.4592 H   0  0  0  0  0  0
  -28.3440  -14.0414   21.7218 H   0  0  0  0  0  0
  -25.2819   -9.5650   22.4747 H   0  0  0  0  0  0
  -24.0039   -7.4632   22.7477 H   0  0  0  0  0  0
  -21.0926   -8.8820   19.8908 H   0  0  0  0  0  0
  -22.3839  -10.9693   19.6153 H   0  0  0  0  0  0
  -21.2031   -7.6194   23.9766 H   0  0  0  0  0  0
  -21.1429   -6.0541   25.9105 H   0  0  0  0  0  0
  -22.0611   -2.7656   23.2812 H   0  0  0  0  0  0
  -22.4128  -11.9930   22.4807 H   0  0  0  0  0  0
  -21.1038  -13.1216   22.2485 H   0  0  0  0  0  0
  -24.6401  -15.8412   20.5421 H   0  0  0  0  0  0
  -26.2631  -15.6439   20.1010 H   0  0  0  0  0  0
  -26.7366  -32.5159   23.1002 H   0  0  0  0  0  0
  -25.0069  -33.9475   25.0282 H   0  0  0  0  0  0
  -22.7818  -31.2910   21.3827 H   0  0  0  0  0  0
  -23.3776  -35.9555   23.3344 H   0  0  0  0  0  0
  -24.3613  -36.8812   22.2069 H   0  0  0  0  0  0
  -23.7269  -37.6417   23.6667 H   0  0  0  0  0  0
  -26.2515  -31.3625   20.6835 H   0  0  0  0  0  0
  -26.8959  -30.6675   22.1189 H   0  0  0  0  0  0
  -27.9738  -28.4029   21.6030 H   0  0  0  0  0  0
  -26.1204  -26.2162   18.4238 H   0  0  0  0  0  0
  -24.1339  -27.5887   18.6119 H   0  0  0  0  0  0
  -23.8489  -30.5926   19.4085 H   0  0  0  0  0  0
  -22.8326  -29.2538   19.8267 H   0  0  0  0  0  0
  -25.1313  -36.1867   25.0840 H   0  0  0  0  0  0
  -21.0044  -28.3304   24.1243 H   0  0  0  0  0  0
  -20.5745  -26.2295   23.3557 H   0  0  0  0  0  0
  -21.6650  -26.7392   22.1070 H   0  0  0  0  0  0
  -19.6903  -25.6218   21.1202 H   0  0  0  0  0  0
  -19.6602  -27.3104   20.6700 H   0  0  0  0  0  0
  -17.4182  -26.6586   21.4092 H   0  0  0  0  0  0
  -18.0380  -25.9951   22.9032 H   0  0  0  0  0  0
  -19.7898  -30.7235   24.2293 H   0  0  0  0  0  0
  -17.4943  -31.6209   24.5063 H   0  0  0  0  0  0
  -15.5312  -30.2890   23.7511 H   0  0  0  0  0  0
  -15.8725  -28.0599   22.7201 H   0  0  0  0  0  0
  -24.5973  -30.6931   25.7732 H   0  0  0  0  0  0
  -24.8722  -32.2834   26.4711 H   0  0  0  0  0  0
  -25.7920  -30.8987   27.0327 H   0  0  0  0  0  0
  -26.3207  -29.6593   24.1480 H   0  0  0  0  0  0
  -27.3903  -29.7221   25.5265 H   0  0  0  0  0  0
  -27.9228  -30.4058   24.0164 H   0  0  0  0  0  0
  -27.2740  -33.3728   26.1927 H   0  0  0  0  0  0
  -28.3937  -32.6712   25.0335 H   0  0  0  0  0  0
  -28.0755  -31.8569   26.5538 H   0  0  0  0  0  0
  -28.2603  -38.0034   24.7468 H   0  0  0  0  0  0
  -28.1012  -36.2552   24.6409 H   0  0  0  0  0  0
  -27.2257  -37.1558   25.8879 H   0  0  0  0  0  0
  -20.9609  -29.8813   21.6715 H   0  0  0  0  0  0
  -26.0172  -38.2807   24.1309 H   0  0  0  0  0  0
  -24.7793  -25.4330   21.6711 H   0  0  0  0  0  0
  -29.4198  -24.1940   22.8122 H   0  0  0  0  0  0
  -27.8589  -23.4048   17.3294 H   0  0  0  0  0  0
  -26.8825  -22.0668   17.9724 H   0  0  0  0  0  0
  -28.5845  -22.1035   18.2487 H   0  0  0  0  0  0
  -25.3839  -26.9722   26.0536 H   0  0  0  0  0  0
  -26.5347  -27.3681   24.7808 H   0  0  0  0  0  0
  -26.9922  -26.2493   26.0711 H   0  0  0  0  0  0
  -20.8664  -24.1650   16.4111 H   0  0  0  0  0  0
  -21.7216  -25.6888   16.5958 H   0  0  0  0  0  0
  -20.9219  -24.9379   17.9821 H   0  0  0  0  0  0
  -22.8266  -23.0157   15.4457 H   0  0  0  0  0  0
  -24.3541  -22.9154   16.2680 H   0  0  0  0  0  0
  -23.8511  -24.4429   15.5584 H   0  0  0  0  0  0
  -24.3176  -23.0177   19.5800 H   0  0  0  0  0  0
  -25.2272  -23.2898   18.1516 H   0  0  0  0  0  0
  -24.8195  -25.7105   23.9352 H   0  0  0  0  0  0
  -25.1877  -24.6962   25.2965 H   0  0  0  0  0  0
  -24.1540  -25.5535   17.8553 H   0  0  0  0  0  0
  -23.1308  -25.1585   19.2240 H   0  0  0  0  0  0
  -30.1287  -19.4048   19.3090 H   0  0  0  0  0  0
  -28.5717  -19.1359   19.9526 H   0  0  0  0  0  0
  -26.5788  -22.4591   23.8227 H   0  0  0  0  0  0
  -25.1924  -23.2724   23.1744 H   0  0  0  0  0  0
  -31.2634  -17.8624   20.9032 H   0  0  0  0  0  0
  -29.9111  -17.8749   21.9779 H   0  0  0  0  0  0
  -30.5850  -20.8828   21.5115 H   0  0  0  0  0  0
  -28.9081  -20.8451   21.7830 H   0  0  0  0  0  0
  -26.0315  -22.5478   21.2357 H   0  0  0  0  0  0
  -27.4813  -22.3288   21.8756 H   0  0  0  0  0  0
  -27.6124  -24.4747   24.4341 H   0  0  0  0  0  0
  -22.4694  -23.0393   17.9039 H   0  0  0  0  0  0
  -28.8073  -16.0957   20.5806 H   0  0  0  0  0  0
  1 25  1  0  0  0
  1 30  2  0  0  0
  1 91  1  0  0  0
  2  3  1  0  0  0
  2 25  1  0  0  0
  2 93  1  0  0  0
  2 94  1  0  0  0
  3  4  1  0  0  0
  3 95  1  0  0  0
  3 96  1  0  0  0
  4  5  1  0  0  0
  4 97  1  0  0  0
  4 98  1  0  0  0
  5  6  1  0  0  0
  5 26  1  0  0  0
  5 99  1  0  0  0
  6 25  1  0  0  0
  6100  1  0  0  0
  6101  1  0  0  0
  7  8  2  0  0  0
  7 26  1  0  0  0
  7 29  1  0  0  0
  8  9  1  0  0  0
  8 22  1  0  0  0
  9 10  1  0  0  0
  9 27  2  0  0  0
 10 11  2  0  0  0
 10 15  1  0  0  0
 11 12  1  0  0  0
 11102  1  0  0  0
 12 13  2  0  0  0
 12103  1  0  0  0
 13 14  1  0  0  0
 13 31  1  0  0  0
 14 15  2  0  0  0
 14104  1  0  0  0
 15105  1  0  0  0
 16 17  2  0  0  0
 16 21  1  0  0  0
 16 31  1  0  0  0
 17 18  1  0  0  0
 17106  1  0  0  0
 18 19  2  0  0  0
 18107  1  0  0  0
 19 20  1  0  0  0
 19 24  1  0  0  0
 20 21  2  0  0  0
 20108  1  0  0  0
 21 23  1  0  0  0
 22 28  1  0  0  0
 22 32  2  0  0  0
 26 27  1  0  0  0
 28109  1  0  0  0
 28110  1  0  0  0
 29111  1  0  0  0
 29112  1  0  0  0
 33 34  1  0  0  0
 33 66  1  0  0  0
 33 70  2  0  0  0
 34 36  1  0  0  0
 34 59  1  0  0  0
 34113  1  0  0  0
 35 44  2  0  0  0
 35 45  1  0  0  0
 35 68  1  0  0  0
 36 56  1  0  0  0
 36114  1  0  0  0
 37 39  1  0  0  0
 37 47  1  0  0  0
 37 66  1  0  0  0
 37115  1  0  0  0
 38 43  2  0  0  0
 38 46  1  0  0  0
 38 47  1  0  0  0
 39 64  1  0  0  0
 39 67  2  0  0  0
 40 52  1  0  0  0
 40 53  2  0  0  0
 40 58  1  0  0  0
 41116  1  0  0  0
 41117  1  0  0  0
 41118  1  0  0  0
 41 48  1  0  0  0
 42 43  1  0  0  0
 42 66  1  0  0  0
 42119  1  0  0  0
 42120  1  0  0  0
 43 44  1  0  0  0
 44121  1  0  0  0
 45 46  2  0  0  0
 45122  1  0  0  0
 46123  1  0  0  0
 47124  1  0  0  0
 47125  1  0  0  0
 48 56  1  0  0  0
 48 65  1  0  0  0
 48126  1  0  0  0
 49 50  1  0  0  0
 49 53  1  0  0  0
 49 64  1  0  0  0
 49127  1  0  0  0
 50 51  1  0  0  0
 50128  1  0  0  0
 50129  1  0  0  0
 51 52  1  0  0  0
 51130  1  0  0  0
 51131  1  0  0  0
 52132  1  0  0  0
 52133  1  0  0  0
 53 54  1  0  0  0
 54 55  2  0  0  0
 54134  1  0  0  0
 55 57  1  0  0  0
 55135  1  0  0  0
 56 69  2  0  0  0
 57 58  2  0  0  0
 57136  1  0  0  0
 58137  1  0  0  0
 59 60  1  0  0  0
 59 61  1  0  0  0
 59 62  1  0  0  0
 60138  1  0  0  0
 60139  1  0  0  0
 60140  1  0  0  0
 61141  1  0  0  0
 61142  1  0  0  0
 61143  1  0  0  0
 62144  1  0  0  0
 62145  1  0  0  0
 62146  1  0  0  0
 63 65  1  0  0  0
 63147  1  0  0  0
 63148  1  0  0  0
 63149  1  0  0  0
 64150  1  0  0  0
 65151  1  0  0  0
 68 88  1  0  0  0
 71 73  2  0  0  0
 71 74  1  0  0  0
 71152  1  0  0  0
 72 73  1  0  0  0
 72 76  2  0  0  0
 72153  1  0  0  0
 73 89  1  0  0  0
 74 75  2  0  0  0
 74 81  1  0  0  0
 75 76  1  0  0  0
 75 77  1  0  0  0
 76 92  1  0  0  0
 77154  1  0  0  0
 77155  1  0  0  0
 77156  1  0  0  0
 78 82  1  0  0  0
 78157  1  0  0  0
 78158  1  0  0  0
 78159  1  0  0  0
 79160  1  0  0  0
 79161  1  0  0  0
 79162  1  0  0  0
 79 90  1  0  0  0
 80 90  1  0  0  0
 80163  1  0  0  0
 80164  1  0  0  0
 80165  1  0  0  0
 81 83  1  0  0  0
 81166  1  0  0  0
 81167  1  0  0  0
 82168  1  0  0  0
 82169  1  0  0  0
 82 89  1  0  0  0
 83 90  1  0  0  0
 83170  1  0  0  0
 83171  1  0  0  0
 84 86  1  0  0  0
 84 87  1  0  0  0
 84172  1  0  0  0
 84173  1  0  0  0
 85 88  1  0  0  0
 85 89  1  0  0  0
 85174  1  0  0  0
 85175  1  0  0  0
 86 91  1  0  0  0
 86176  1  0  0  0
 86177  1  0  0  0
 87 92  1  0  0  0
 87178  1  0  0  0
 87179  1  0  0  0
 88180  1  0  0  0
 88181  1  0  0  0
 89182  1  0  0  0
 90183  1  0  0  0
 91184  1  0  0  0
M  ISO  4   1 100  68 101  88 101  91 100
M  END
> <chiral flag>
0

> <version>
0

> <s_m_source_file>
/data/baiqing/PycharmProjects/Reinvent-master-3.2/result/LINK_invent/BTK/process_docking_weight1_custom_sum_contain_oxygen_bond_distance_aromatic_linkinvent_7_9_3/rearranged_h_0102.sdf

> <i_m_source_file_index>
27

> <r_mmod_Potential_Energy-OPLS-2005>
7460.30322265625

> <r_mmod_Stretch_Energy-OPLS-2005>
4555.31689453125

> <r_mmod_Bend_Energy-OPLS-2005>
508.097564697266

> <r_mmod_Torsional_Energy-OPLS-2005>
458.366424560547

> <r_mmod_Improper_Torsional_Energy-OPLS-2005>
37.0084648132324

> <r_mmod_Van_der_Waal_Energy-OPLS-2005>
2019.63818359375

> <r_mmod_Electrostatic_Energy-OPLS-2005>
-357.457061767578

> <r_mmod_Solvation_Energy-OPLS-2005>
-219.207489013672

> <b_mmod_Minimization_Converged-OPLS-2005>
0

> <r_mmod_RMS_Derivative-OPLS-2005>
8.2964038848877

$$$$
27
                    3D
 Structure written by MMmdl.
180188  0  0  1  0            999 V2000
  -30.7137  -14.5594   20.4508 C   0  0  0  0  0  0
  -30.4146  -12.3303   19.4467 C   0  0  0  0  0  0
  -29.4891  -12.4341   18.2177 C   0  0  0  0  0  0
  -28.0129  -12.2981   18.6427 C   0  0  0  0  0  0
  -27.6379  -13.1897   19.8571 C   0  0  2  0  0  0
  -28.6973  -13.1114   20.9806 C   0  0  0  0  0  0
  -25.2529  -13.8106   20.5756 C   0  0  0  0  0  0
  -24.1765  -13.0413   20.9232 C   0  0  0  0  0  0
  -24.6296  -11.6878   20.8768 C   0  0  0  0  0  0
  -23.8957  -10.4284   21.0411 C   0  0  0  0  0  0
  -24.3547   -9.4223   21.9183 C   0  0  0  0  0  0
  -23.6258   -8.2242   22.0751 C   0  0  0  0  0  0
  -22.4244   -8.0258   21.3537 C   0  0  0  0  0  0
  -21.9846   -9.0222   20.4643 C   0  0  0  0  0  0
  -22.7136  -10.2117   20.3056 C   0  0  0  0  0  0
  -21.6851   -6.0710   22.5262 C   0  0  0  0  0  0
  -21.4013   -6.5628   23.8193 C   0  0  0  0  0  0
  -21.3641   -5.6787   24.9159 C   0  0  0  0  0  0
  -21.6032   -4.3049   24.7216 C   0  0  0  0  0  0
  -21.8836   -3.8129   23.4348 C   0  0  0  0  0  0
  -21.9209   -4.6939   22.3397 C   0  0  0  0  0  0
  -22.7796  -13.5247   21.1846 C   0  0  0  0  0  0
  -22.1680   -4.2120   21.0977 F   0  0  0  0  0  0
  -21.5611   -3.4542   25.7740 F   0  0  0  0  0  0
  -30.0119  -13.3900   20.3851 N   0  0  0  0  0  0
  -26.2911  -12.9213   20.3407 N   0  0  0  0  0  0
  -25.9218  -11.6404   20.5843 N   0  0  0  0  0  0
  -22.0399  -12.8282   22.0396 N   0  0  0  0  0  0
  -25.4266  -15.1828   20.4179 N   0  0  0  0  0  0
  -31.9218  -14.6062   20.2103 O   0  0  0  0  0  0
  -21.6640   -6.8839   21.4221 O   0  0  0  0  0  0
  -22.3530  -14.5561   20.6665 O   0  0  0  0  0  0
  -24.6165  -31.8688   23.2089 C   0  0  0  0  0  0
  -25.9038  -32.4857   23.8388 C   0  0  1  0  0  0
  -27.2298  -27.4194   20.1174 C   0  0  0  0  0  0
  -25.5888  -33.8660   24.2335 N   0  0  0  0  0  0
  -23.4077  -30.4926   21.5475 C   0  0  2  0  0  0
  -24.8569  -28.9608   20.1072 C   0  0  0  0  0  0
  -22.7432  -29.4676   22.4949 C   0  0  0  0  0  0
  -18.0282  -28.1402   22.8532 C   0  0  0  0  0  0
  -24.1474  -36.7296   23.2645 C   0  0  0  0  0  0
  -25.9372  -30.8334   21.3615 C   0  0  0  0  0  0
  -26.0169  -29.4660   20.7097 C   0  0  0  0  0  0
  -27.2126  -28.7058   20.7077 C   0  0  0  0  0  0
  -26.0630  -26.9415   19.4870 C   0  0  0  0  0  0
  -24.8764  -27.7002   19.4854 C   0  0  0  0  0  0
  -23.6174  -29.8275   20.1589 C   0  0  0  0  0  0
  -25.4101  -36.3144   24.0358 C   0  0  1  0  0  0
  -20.5880  -28.3681   23.1325 C   0  0  2  0  0  0
  -20.6785  -26.9407   22.5442 C   0  0  0  0  0  0
  -19.5746  -26.6392   21.5256 C   0  0  0  0  0  0
  -18.1914  -26.7961   22.1643 C   0  0  0  0  0  0
  -19.1536  -28.8848   23.2935 C   0  0  0  0  0  0
  -18.9469  -30.1453   23.8939 C   0  0  0  0  0  0
  -17.6465  -30.6605   24.0580 C   0  0  0  0  0  0
  -25.9029  -34.9508   23.5144 C   0  0  0  0  0  0
  -16.5349  -29.9122   23.6330 C   0  0  0  0  0  0
  -16.7274  -28.6529   23.0365 C   0  0  0  0  0  0
  -26.4443  -31.6644   25.0718 C   0  0  0  0  0  0
  -25.3699  -31.3764   26.1461 C   0  0  0  0  0  0
  -27.0266  -30.3106   24.6054 C   0  0  0  0  0  0
  -27.6013  -32.4369   25.7477 C   0  0  0  0  0  0
  -27.5580  -37.1818   24.8477 C   0  0  0  0  0  0
  -21.4150  -29.3067   22.3735 N   0  0  0  0  0  0
  -26.4293  -37.3828   23.9418 N   0  0  0  0  0  0
  -24.6720  -31.0792   22.0974 N   0  0  0  0  0  0
  -23.4202  -28.8187   23.2969 O   0  0  0  0  0  0
  -28.3488  -26.6115   20.1618 O   0  0  0  0  0  0
  -26.5593  -34.8977   22.4711 O   0  0  0  0  0  0
  -23.5348  -32.1414   23.7494 O   0  0  0  0  0  0
  -29.0238  -23.0391   21.3713 C   0  0  0  0  0  0
  -29.5589  -24.1046   19.2788 C   0  0  0  0  0  0
  -28.9617  -24.1771   20.5417 C   0  0  0  0  0  0
  -29.7391  -21.8623   21.0155 C   0  0  0  0  0  0
  -30.2714  -22.9577   18.8396 C   0  0  0  0  0  0
  -30.4784  -21.8866   19.7818 C   0  0  0  0  0  0
  -31.5626  -20.8443   19.5234 C   0  0  0  0  0  0
  -28.1672  -20.3219   22.3695 C   0  0  0  0  0  0
  -29.8665  -23.8555   16.4571 C   0  0  0  0  0  0
  -30.6887  -21.5674   16.6679 C   0  0  0  0  0  0
  -32.1888  -23.5417   17.2644 C   0  0  0  0  0  0
  -29.2336  -16.1204   19.3552 C   0  0  0  0  0  0
  -31.5446  -19.2711   22.8166 C   0  0  0  0  0  0
  -28.1671  -25.4206   20.9709 C   0  0  0  0  0  0
  -30.7012  -16.9422   21.0793 C   0  0  0  0  0  0
  -29.7728  -18.1517   21.4538 C   0  0  0  0  0  0
  -29.6407  -20.6709   22.0360 C   0  0  1  0  0  0
  -30.7640  -22.9587   17.3556 C   0  0  0  0  0  0
  -30.0130  -15.7324   20.5441 N   0  0  0  0  0  0
  -30.4867  -19.4392   21.7864 N   0  3  1  0  0  0
  -31.4587  -12.4120   19.1392 H   0  0  0  0  0  0
  -30.3194  -11.3516   19.9209 H   0  0  0  0  0  0
  -29.7393  -11.6540   17.4973 H   0  0  0  0  0  0
  -29.6490  -13.3763   17.6957 H   0  0  0  0  0  0
  -27.8471  -11.2506   18.8960 H   0  0  0  0  0  0
  -27.3537  -12.5070   17.8008 H   0  0  0  0  0  0
  -27.6058  -14.2012   19.4785 H   0  0  0  0  0  0
  -28.6983  -12.1215   21.4403 H   0  0  0  0  0  0
  -28.4668  -13.8213   21.7773 H   0  0  0  0  0  0
  -25.2681   -9.5751   22.4763 H   0  0  0  0  0  0
  -23.9978   -7.4653   22.7486 H   0  0  0  0  0  0
  -21.0766   -8.8714   19.8965 H   0  0  0  0  0  0
  -22.3550  -10.9659   19.6181 H   0  0  0  0  0  0
  -21.2010   -7.6140   23.9677 H   0  0  0  0  0  0
  -21.1419   -6.0521   25.9051 H   0  0  0  0  0  0
  -22.0627   -2.7590   23.2856 H   0  0  0  0  0  0
  -22.3988  -11.9999   22.4907 H   0  0  0  0  0  0
  -21.0981  -13.1301   22.2475 H   0  0  0  0  0  0
  -24.6618  -15.8383   20.5349 H   0  0  0  0  0  0
  -26.2891  -15.6261   20.1300 H   0  0  0  0  0  0
  -26.7119  -32.5568   23.1167 H   0  0  0  0  0  0
  -25.0112  -33.9817   25.0527 H   0  0  0  0  0  0
  -22.7004  -31.3130   21.4110 H   0  0  0  0  0  0
  -23.3781  -35.9584   23.3330 H   0  0  0  0  0  0
  -24.3574  -36.8868   22.2049 H   0  0  0  0  0  0
  -23.7177  -37.6495   23.6631 H   0  0  0  0  0  0
  -26.0503  -31.5968   20.5896 H   0  0  0  0  0  0
  -26.8270  -30.8910   21.9759 H   0  0  0  0  0  0
  -28.1072  -29.0903   21.1796 H   0  0  0  0  0  0
  -26.0695  -25.9716   19.0073 H   0  0  0  0  0  0
  -23.9909  -27.3115   19.0030 H   0  0  0  0  0  0
  -23.7266  -30.6091   19.4046 H   0  0  0  0  0  0
  -22.7420  -29.2485   19.8588 H   0  0  0  0  0  0
  -25.1291  -36.2018   25.0858 H   0  0  0  0  0  0
  -20.9985  -28.3244   24.1437 H   0  0  0  0  0  0
  -20.5719  -26.2265   23.3625 H   0  0  0  0  0  0
  -21.6643  -26.7483   22.1184 H   0  0  0  0  0  0
  -19.6895  -25.6301   21.1275 H   0  0  0  0  0  0
  -19.6695  -27.3222   20.6798 H   0  0  0  0  0  0
  -17.4202  -26.6757   21.4014 H   0  0  0  0  0  0
  -18.0261  -26.0101   22.9020 H   0  0  0  0  0  0
  -19.7938  -30.7284   24.2307 H   0  0  0  0  0  0
  -17.5026  -31.6291   24.5181 H   0  0  0  0  0  0
  -15.5358  -30.3047   23.7643 H   0  0  0  0  0  0
  -15.8666  -28.0876   22.7059 H   0  0  0  0  0  0
  -24.5883  -30.7090   25.7816 H   0  0  0  0  0  0
  -24.8855  -32.2919   26.4871 H   0  0  0  0  0  0
  -25.8044  -30.8982   27.0239 H   0  0  0  0  0  0
  -26.2789  -29.6915   24.1087 H   0  0  0  0  0  0
  -27.4055  -29.7305   25.4472 H   0  0  0  0  0  0
  -27.8618  -30.4485   23.9189 H   0  0  0  0  0  0
  -27.2627  -33.3683   26.2033 H   0  0  0  0  0  0
  -28.3826  -32.6917   25.0303 H   0  0  0  0  0  0
  -28.0667  -31.8503   26.5401 H   0  0  0  0  0  0
  -28.2639  -38.0083   24.7550 H   0  0  0  0  0  0
  -28.1054  -36.2639   24.6296 H   0  0  0  0  0  0
  -27.2312  -37.1432   25.8884 H   0  0  0  0  0  0
  -20.9289  -29.8833   21.7001 H   0  0  0  0  0  0
  -26.0203  -38.2913   24.1437 H   0  0  0  0  0  0
  -28.5066  -23.0875   22.3189 H   0  0  0  0  0  0
  -29.4383  -24.9720   18.6525 H   0  0  0  0  0  0
  -32.1534  -20.6725   20.4200 H   0  0  0  0  0  0
  -32.3233  -21.1912   18.8340 H   0  0  0  0  0  0
  -31.1542  -19.9033   19.1520 H   0  0  0  0  0  0
  -27.6073  -21.1734   22.7520 H   0  0  0  0  0  0
  -28.1013  -19.5682   23.1552 H   0  0  0  0  0  0
  -27.6291  -19.9589   21.4948 H   0  0  0  0  0  0
  -28.8103  -23.6079   16.5734 H   0  0  0  0  0  0
  -30.1053  -23.7391   15.3999 H   0  0  0  0  0  0
  -29.9903  -24.9197   16.6576 H   0  0  0  0  0  0
  -29.7069  -21.1119   16.8006 H   0  0  0  0  0  0
  -31.4345  -20.8478   16.9890 H   0  0  0  0  0  0
  -30.8577  -21.6519   15.5943 H   0  0  0  0  0  0
  -32.2300  -24.5426   17.6961 H   0  0  0  0  0  0
  -32.5125  -23.6267   16.2269 H   0  0  0  0  0  0
  -32.9341  -22.9431   17.7825 H   0  0  0  0  0  0
  -28.2078  -16.3669   19.6311 H   0  0  0  0  0  0
  -29.2020  -15.3544   18.5818 H   0  0  0  0  0  0
  -29.6564  -16.9915   18.8519 H   0  0  0  0  0  0
  -32.3093  -18.5631   22.4969 H   0  0  0  0  0  0
  -31.1260  -18.9245   23.7620 H   0  0  0  0  0  0
  -32.0675  -20.2099   23.0070 H   0  0  0  0  0  0
  -28.4538  -25.6706   21.9937 H   0  0  0  0  0  0
  -27.1207  -25.1131   21.0320 H   0  0  0  0  0  0
  -31.2502  -16.6364   21.9716 H   0  0  0  0  0  0
  -31.4530  -17.2606   20.3544 H   0  0  0  0  0  0
  -29.1515  -17.8337   22.2905 H   0  0  0  0  0  0
  -29.0953  -18.3761   20.6307 H   0  0  0  0  0  0
  -30.0176  -21.1179   22.9584 H   0  0  0  0  0  0
  -30.9886  -19.6925   20.9461 H   0  0  0  0  0  0
  1 25  1  0  0  0
  1 30  2  0  0  0
  1 89  1  0  0  0
  2  3  1  0  0  0
  2 25  1  0  0  0
  2 91  1  0  0  0
  2 92  1  0  0  0
  3  4  1  0  0  0
  3 93  1  0  0  0
  3 94  1  0  0  0
  4  5  1  0  0  0
  4 95  1  0  0  0
  4 96  1  0  0  0
  5  6  1  0  0  0
  5 26  1  0  0  0
  5 97  1  0  0  0
  6 25  1  0  0  0
  6 98  1  0  0  0
  6 99  1  0  0  0
  7  8  2  0  0  0
  7 26  1  0  0  0
  7 29  1  0  0  0
  8  9  1  0  0  0
  8 22  1  0  0  0
  9 10  1  0  0  0
  9 27  2  0  0  0
 10 11  2  0  0  0
 10 15  1  0  0  0
 11 12  1  0  0  0
 11100  1  0  0  0
 12 13  2  0  0  0
 12101  1  0  0  0
 13 14  1  0  0  0
 13 31  1  0  0  0
 14 15  2  0  0  0
 14102  1  0  0  0
 15103  1  0  0  0
 16 17  2  0  0  0
 16 21  1  0  0  0
 16 31  1  0  0  0
 17 18  1  0  0  0
 17104  1  0  0  0
 18 19  2  0  0  0
 18105  1  0  0  0
 19 20  1  0  0  0
 19 24  1  0  0  0
 20 21  2  0  0  0
 20106  1  0  0  0
 21 23  1  0  0  0
 22 28  1  0  0  0
 22 32  2  0  0  0
 26 27  1  0  0  0
 28107  1  0  0  0
 28108  1  0  0  0
 29109  1  0  0  0
 29110  1  0  0  0
 33 34  1  0  0  0
 33 66  1  0  0  0
 33 70  2  0  0  0
 34 36  1  0  0  0
 34 59  1  0  0  0
 34111  1  0  0  0
 35 44  2  0  0  0
 35 45  1  0  0  0
 35 68  1  0  0  0
 36 56  1  0  0  0
 36112  1  0  0  0
 37 39  1  0  0  0
 37 47  1  0  0  0
 37 66  1  0  0  0
 37113  1  0  0  0
 38 43  2  0  0  0
 38 46  1  0  0  0
 38 47  1  0  0  0
 39 64  1  0  0  0
 39 67  2  0  0  0
 40 52  1  0  0  0
 40 53  2  0  0  0
 40 58  1  0  0  0
 41114  1  0  0  0
 41115  1  0  0  0
 41116  1  0  0  0
 41 48  1  0  0  0
 42 43  1  0  0  0
 42 66  1  0  0  0
 42117  1  0  0  0
 42118  1  0  0  0
 43 44  1  0  0  0
 44119  1  0  0  0
 45 46  2  0  0  0
 45120  1  0  0  0
 46121  1  0  0  0
 47122  1  0  0  0
 47123  1  0  0  0
 48 56  1  0  0  0
 48 65  1  0  0  0
 48124  1  0  0  0
 49 50  1  0  0  0
 49 53  1  0  0  0
 49 64  1  0  0  0
 49125  1  0  0  0
 50 51  1  0  0  0
 50126  1  0  0  0
 50127  1  0  0  0
 51 52  1  0  0  0
 51128  1  0  0  0
 51129  1  0  0  0
 52130  1  0  0  0
 52131  1  0  0  0
 53 54  1  0  0  0
 54 55  2  0  0  0
 54132  1  0  0  0
 55 57  1  0  0  0
 55133  1  0  0  0
 56 69  2  0  0  0
 57 58  2  0  0  0
 57134  1  0  0  0
 58135  1  0  0  0
 59 60  1  0  0  0
 59 61  1  0  0  0
 59 62  1  0  0  0
 60136  1  0  0  0
 60137  1  0  0  0
 60138  1  0  0  0
 61139  1  0  0  0
 61140  1  0  0  0
 61141  1  0  0  0
 62142  1  0  0  0
 62143  1  0  0  0
 62144  1  0  0  0
 63 65  1  0  0  0
 63145  1  0  0  0
 63146  1  0  0  0
 63147  1  0  0  0
 64148  1  0  0  0
 65149  1  0  0  0
 68 84  1  0  0  0
 71 73  2  0  0  0
 71 74  1  0  0  0
 71150  1  0  0  0
 72 73  1  0  0  0
 72 75  2  0  0  0
 72151  1  0  0  0
 73 84  1  0  0  0
 74 76  2  0  0  0
 74 87  1  0  0  0
 75 76  1  0  0  0
 75 88  1  0  0  0
 76 77  1  0  0  0
 77152  1  0  0  0
 77153  1  0  0  0
 77154  1  0  0  0
 78155  1  0  0  0
 78156  1  0  0  0
 78157  1  0  0  0
 78 87  1  0  0  0
 79158  1  0  0  0
 79159  1  0  0  0
 79160  1  0  0  0
 79 88  1  0  0  0
 80 88  1  0  0  0
 80161  1  0  0  0
 80162  1  0  0  0
 80163  1  0  0  0
 81 88  1  0  0  0
 81164  1  0  0  0
 81165  1  0  0  0
 81166  1  0  0  0
 82 89  1  0  0  0
 82167  1  0  0  0
 82168  1  0  0  0
 82169  1  0  0  0
 83170  1  0  0  0
 83171  1  0  0  0
 83172  1  0  0  0
 83 90  1  0  0  0
 84173  1  0  0  0
 84174  1  0  0  0
 85 86  1  0  0  0
 85 89  1  0  0  0
 85175  1  0  0  0
 85176  1  0  0  0
 86 90  1  0  0  0
 86177  1  0  0  0
 86178  1  0  0  0
 87 90  1  0  0  0
 87179  1  0  0  0
 90180  1  0  0  0
M  CHG  1  90   1
M  ISO  4   1 100  68 101  84 101  89 100
M  END
> <chiral flag>
0

> <version>
0

> <s_m_source_file>
/data/baiqing/PycharmProjects/Reinvent-master-3.2/result/LINK_invent/BTK/process_docking_weight1_custom_sum_contain_oxygen_bond_distance_aromatic_linkinvent_7_9_3/rearranged_h_0102.sdf

> <i_m_source_file_index>
28

> <r_mmod_Potential_Energy-OPLS-2005>
145.503555297852

> <r_mmod_Stretch_Energy-OPLS-2005>
66.4082565307617

> <r_mmod_Bend_Energy-OPLS-2005>
150.273742675781

> <r_mmod_Torsional_Energy-OPLS-2005>
352.752899169922

> <r_mmod_Improper_Torsional_Energy-OPLS-2005>
10.2002620697021

> <r_mmod_Van_der_Waal_Energy-OPLS-2005>
197.983154296875

> <r_mmod_Electrostatic_Energy-OPLS-2005>
-251.669860839844

> <r_mmod_Solvation_Energy-OPLS-2005>
-415.789337158203

> <b_mmod_Minimization_Converged-OPLS-2005>
0

> <r_mmod_RMS_Derivative-OPLS-2005>
2.7197961807251

$$$$
28
                    3D
 Structure written by MMmdl.
161168  0  0  1  0            999 V2000
  -30.4179  -15.2613   20.3630 C   0  0  0  0  0  0
  -30.4515  -12.8165   19.4823 C   0  0  0  0  0  0
  -29.5313  -12.5817   18.2592 C   0  0  0  0  0  0
  -28.0781  -12.3049   18.6936 C   0  0  0  0  0  0
  -27.6108  -13.2687   19.8138 C   0  0  2  0  0  0
  -28.6600  -13.4281   20.9319 C   0  0  0  0  0  0
  -25.2372  -13.8216   20.5723 C   0  0  0  0  0  0
  -24.1735  -13.0418   20.9267 C   0  0  0  0  0  0
  -24.6383  -11.6919   20.8772 C   0  0  0  0  0  0
  -23.9063  -10.4287   21.0401 C   0  0  0  0  0  0
  -24.3617   -9.4200   21.9175 C   0  0  0  0  0  0
  -23.6294   -8.2233   22.0745 C   0  0  0  0  0  0
  -22.4274   -8.0268   21.3542 C   0  0  0  0  0  0
  -21.9909   -9.0239   20.4648 C   0  0  0  0  0  0
  -22.7230  -10.2123   20.3051 C   0  0  0  0  0  0
  -21.6857   -6.0727   22.5280 C   0  0  0  0  0  0
  -21.4017   -6.5632   23.8210 C   0  0  0  0  0  0
  -21.3658   -5.6782   24.9169 C   0  0  0  0  0  0
  -21.6041   -4.3046   24.7219 C   0  0  0  0  0  0
  -21.8818   -3.8139   23.4341 C   0  0  0  0  0  0
  -21.9189   -4.6954   22.3400 C   0  0  0  0  0  0
  -22.7745  -13.5188   21.1895 C   0  0  0  0  0  0
  -22.1660   -4.2143   21.0976 F   0  0  0  0  0  0
  -21.5629   -3.4529   25.7732 F   0  0  0  0  0  0
  -29.8735  -13.9515   20.2812 N   0  0  0  0  0  0
  -26.2818  -12.9486   20.3206 N   0  0  0  0  0  0
  -25.9325  -11.6596   20.5727 N   0  0  0  0  0  0
  -22.0389  -12.8219   22.0472 N   0  0  0  0  0  0
  -25.3943  -15.1959   20.4075 N   0  0  0  0  0  0
  -31.6541  -15.2852   20.2994 O   0  0  0  0  0  0
  -21.6635   -6.8875   21.4241 O   0  0  0  0  0  0
  -22.3434  -14.5467   20.6680 O   0  0  0  0  0  0
  -24.6665  -31.8244   23.1672 C   0  0  0  0  0  0
  -25.9333  -32.4594   23.8151 C   0  0  1  0  0  0
  -27.2209  -26.9196   20.1627 C   0  0  0  0  0  0
  -25.5993  -33.8405   24.2073 N   0  0  0  0  0  0
  -23.4791  -30.4374   21.5212 C   0  0  2  0  0  0
  -24.9244  -28.8203   20.1194 C   0  0  0  0  0  0
  -22.7679  -29.4462   22.4803 C   0  0  0  0  0  0
  -18.0330  -28.1415   22.8490 C   0  0  0  0  0  0
  -24.1496  -36.7209   23.2639 C   0  0  0  0  0  0
  -26.0501  -30.6319   21.3903 C   0  0  0  0  0  0
  -26.1181  -29.2200   20.7336 C   0  0  0  0  0  0
  -27.2603  -28.2956   20.7215 C   0  0  0  0  0  0
  -25.9669  -26.6553   19.5658 C   0  0  0  0  0  0
  -24.8744  -27.5564   19.5163 C   0  0  0  0  0  0
  -23.7149  -29.7524   20.1490 C   0  0  0  0  0  0
  -25.4134  -36.2967   24.0298 C   0  0  1  0  0  0
  -20.5957  -28.3767   23.1198 C   0  0  2  0  0  0
  -20.6820  -26.9456   22.5393 C   0  0  0  0  0  0
  -19.5775  -26.6389   21.5229 C   0  0  0  0  0  0
  -18.1966  -26.7942   22.1654 C   0  0  0  0  0  0
  -19.1587  -28.8914   23.2824 C   0  0  0  0  0  0
  -18.9490  -30.1506   23.8853 C   0  0  0  0  0  0
  -17.6481  -30.6608   24.0558 C   0  0  0  0  0  0
  -25.9109  -34.9356   23.5007 C   0  0  0  0  0  0
  -16.5377  -29.9094   23.6340 C   0  0  0  0  0  0
  -16.7306  -28.6508   23.0371 C   0  0  0  0  0  0
  -26.4567  -31.6520   25.0674 C   0  0  0  0  0  0
  -25.3696  -31.3835   26.1350 C   0  0  0  0  0  0
  -27.0384  -30.2856   24.6390 C   0  0  0  0  0  0
  -27.6108  -32.4280   25.7452 C   0  0  0  0  0  0
  -27.5581  -37.1743   24.8456 C   0  0  0  0  0  0
  -21.4345  -29.3063   22.3549 N   0  0  0  0  0  0
  -26.4274  -37.3710   23.9427 N   0  0  0  0  0  0
  -24.7549  -30.9904   22.0804 N   0  0  0  0  0  0
  -23.4224  -28.8026   23.3041 O   0  0  0  0  0  0
  -28.2512  -25.8315   20.2134 O   0  0  0  0  0  0
  -26.5713  -34.8893   22.4598 O   0  0  0  0  0  0
  -23.5736  -32.1211   23.6771 O   0  0  0  0  0  0
  -28.7221  -23.9190   15.8110 C   0  0  0  0  0  0
  -27.7353  -25.9560   16.7285 C   0  0  0  0  0  0
  -26.5744  -23.7062   17.0237 C   0  0  0  0  0  0
  -28.7687  -24.2029   18.3146 C   0  0  0  0  0  0
  -29.4390  -18.0979   20.7382 C   0  0  0  0  0  0
  -29.4777  -19.7201   19.9581 C   0  0  0  0  0  0
  -28.9946  -22.7330   20.4468 C   0  0  0  0  0  0
  -28.1971  -24.2210   19.7835 C   0  0  1  0  0  0
  -27.9233  -24.4566   17.0222 C   0  0  0  0  0  0
  -29.5952  -16.4921   20.2709 N   0  0  0  0  0  0
  -28.6133  -21.1085   20.3088 N   0  3  0  0  0  0
  -31.4571  -13.0583   19.1354 H   0  0  0  0  0  0
  -30.5515  -11.9127   20.0852 H   0  0  0  0  0  0
  -29.9103  -11.7651   17.6445 H   0  0  0  0  0  0
  -29.5495  -13.4704   17.6269 H   0  0  0  0  0  0
  -28.0282  -11.2767   19.0508 H   0  0  0  0  0  0
  -27.4084  -12.3610   17.8356 H   0  0  0  0  0  0
  -27.5233  -14.2406   19.3265 H   0  0  0  0  0  0
  -28.8466  -12.4842   21.4466 H   0  0  0  0  0  0
  -28.3120  -14.1343   21.6869 H   0  0  0  0  0  0
  -25.2755   -9.5678   22.4751 H   0  0  0  0  0  0
  -24.0007   -7.4618   22.7459 H   0  0  0  0  0  0
  -21.0836   -8.8730   19.8969 H   0  0  0  0  0  0
  -22.3655  -10.9646   19.6165 H   0  0  0  0  0  0
  -21.2010   -7.6140   23.9712 H   0  0  0  0  0  0
  -21.1490   -6.0515   25.9077 H   0  0  0  0  0  0
  -22.0601   -2.7597   23.2831 H   0  0  0  0  0  0
  -22.4024  -11.9950   22.4966 H   0  0  0  0  0  0
  -21.0978  -13.1227   22.2596 H   0  0  0  0  0  0
  -24.6016  -15.8257   20.4744 H   0  0  0  0  0  0
  -26.2103  -15.6309   19.9994 H   0  0  0  0  0  0
  -26.7412  -32.5128   23.0877 H   0  0  0  0  0  0
  -25.0083  -33.9481   25.0187 H   0  0  0  0  0  0
  -22.7942  -31.2703   21.3512 H   0  0  0  0  0  0
  -23.3799  -35.9488   23.3180 H   0  0  0  0  0  0
  -24.3606  -36.8983   22.2079 H   0  0  0  0  0  0
  -23.7184  -37.6333   23.6778 H   0  0  0  0  0  0
  -26.2244  -31.3747   20.6110 H   0  0  0  0  0  0
  -26.9143  -30.6924   22.0407 H   0  0  0  0  0  0
  -28.1722  -28.6093   21.2091 H   0  0  0  0  0  0
  -25.7982  -25.6857   19.1287 H   0  0  0  0  0  0
  -23.9603  -27.2333   19.0371 H   0  0  0  0  0  0
  -23.8705  -30.5195   19.3894 H   0  0  0  0  0  0
  -22.8224  -29.2098   19.8325 H   0  0  0  0  0  0
  -25.1325  -36.1753   25.0786 H   0  0  0  0  0  0
  -21.0044  -28.3360   24.1321 H   0  0  0  0  0  0
  -20.5755  -26.2376   23.3624 H   0  0  0  0  0  0
  -21.6673  -26.7474   22.1154 H   0  0  0  0  0  0
  -19.6938  -25.6288   21.1287 H   0  0  0  0  0  0
  -19.6689  -27.3180   20.6740 H   0  0  0  0  0  0
  -17.4222  -26.6665   21.4074 H   0  0  0  0  0  0
  -18.0383  -26.0111   22.9081 H   0  0  0  0  0  0
  -19.7960  -30.7344   24.2198 H   0  0  0  0  0  0
  -17.5026  -31.6283   24.5159 H   0  0  0  0  0  0
  -15.5372  -30.2976   23.7690 H   0  0  0  0  0  0
  -15.8708  -28.0805   22.7120 H   0  0  0  0  0  0
  -24.5730  -30.7392   25.7618 H   0  0  0  0  0  0
  -24.9084  -32.3090   26.4805 H   0  0  0  0  0  0
  -25.7870  -30.8870   27.0117 H   0  0  0  0  0  0
  -26.2995  -29.6572   24.1402 H   0  0  0  0  0  0
  -27.3891  -29.7198   25.5030 H   0  0  0  0  0  0
  -27.8977  -30.3983   23.9779 H   0  0  0  0  0  0
  -27.2752  -33.3673   26.1859 H   0  0  0  0  0  0
  -28.4004  -32.6670   25.0316 H   0  0  0  0  0  0
  -28.0662  -31.8480   26.5490 H   0  0  0  0  0  0
  -28.2542  -38.0097   24.7573 H   0  0  0  0  0  0
  -28.1135  -36.2627   24.6189 H   0  0  0  0  0  0
  -27.2316  -37.1272   25.8861 H   0  0  0  0  0  0
  -20.9606  -29.8733   21.6657 H   0  0  0  0  0  0
  -26.0116  -38.2758   24.1477 H   0  0  0  0  0  0
  -28.1525  -24.0157   14.8847 H   0  0  0  0  0  0
  -28.9744  -22.8631   15.9148 H   0  0  0  0  0  0
  -29.6583  -24.4625   15.6707 H   0  0  0  0  0  0
  -27.2511  -26.1158   15.7642 H   0  0  0  0  0  0
  -28.6906  -26.4817   16.7068 H   0  0  0  0  0  0
  -27.1189  -26.4615   17.4506 H   0  0  0  0  0  0
  -25.9488  -24.0266   16.1896 H   0  0  0  0  0  0
  -25.9884  -23.8584   17.9257 H   0  0  0  0  0  0
  -26.7201  -22.6306   16.9142 H   0  0  0  0  0  0
  -29.1960  -23.2131   18.1572 H   0  0  0  0  0  0
  -29.6441  -24.8527   18.2974 H   0  0  0  0  0  0
  -28.4430  -18.0772   21.1813 H   0  0  0  0  0  0
  -30.0945  -18.1870   21.6037 H   0  0  0  0  0  0
  -29.2916  -19.5485   18.8977 H   0  0  0  0  0  0
  -30.5220  -20.0298   19.9849 H   0  0  0  0  0  0
  -28.9694  -22.8803   21.5267 H   0  0  0  0  0  0
  -30.0607  -22.8038   20.2266 H   0  0  0  0  0  0
  -27.1405  -23.9673   19.7925 H   0  0  0  0  0  0
  -28.6776  -16.1780   19.9923 H   0  0  0  0  0  0
  -28.1635  -20.8916   21.1840 H   0  0  0  0  0  0
  -27.8578  -21.0835   19.6419 H   0  0  0  0  0  0
  1 25  1  0  0  0
  1 30  2  0  0  0
  1 80  1  0  0  0
  2  3  1  0  0  0
  2 25  1  0  0  0
  2 82  1  0  0  0
  2 83  1  0  0  0
  3  4  1  0  0  0
  3 84  1  0  0  0
  3 85  1  0  0  0
  4  5  1  0  0  0
  4 86  1  0  0  0
  4 87  1  0  0  0
  5  6  1  0  0  0
  5 26  1  0  0  0
  5 88  1  0  0  0
  6 25  1  0  0  0
  6 89  1  0  0  0
  6 90  1  0  0  0
  7  8  2  0  0  0
  7 26  1  0  0  0
  7 29  1  0  0  0
  8  9  1  0  0  0
  8 22  1  0  0  0
  9 10  1  0  0  0
  9 27  2  0  0  0
 10 11  2  0  0  0
 10 15  1  0  0  0
 11 12  1  0  0  0
 11 91  1  0  0  0
 12 13  2  0  0  0
 12 92  1  0  0  0
 13 14  1  0  0  0
 13 31  1  0  0  0
 14 15  2  0  0  0
 14 93  1  0  0  0
 15 94  1  0  0  0
 16 17  2  0  0  0
 16 21  1  0  0  0
 16 31  1  0  0  0
 17 18  1  0  0  0
 17 95  1  0  0  0
 18 19  2  0  0  0
 18 96  1  0  0  0
 19 20  1  0  0  0
 19 24  1  0  0  0
 20 21  2  0  0  0
 20 97  1  0  0  0
 21 23  1  0  0  0
 22 28  1  0  0  0
 22 32  2  0  0  0
 26 27  1  0  0  0
 28 98  1  0  0  0
 28 99  1  0  0  0
 29100  1  0  0  0
 29101  1  0  0  0
 33 34  1  0  0  0
 33 66  1  0  0  0
 33 70  2  0  0  0
 34 36  1  0  0  0
 34 59  1  0  0  0
 34102  1  0  0  0
 35 44  2  0  0  0
 35 45  1  0  0  0
 35 68  1  0  0  0
 36 56  1  0  0  0
 36103  1  0  0  0
 37 39  1  0  0  0
 37 47  1  0  0  0
 37 66  1  0  0  0
 37104  1  0  0  0
 38 43  2  0  0  0
 38 46  1  0  0  0
 38 47  1  0  0  0
 39 64  1  0  0  0
 39 67  2  0  0  0
 40 52  1  0  0  0
 40 53  2  0  0  0
 40 58  1  0  0  0
 41105  1  0  0  0
 41106  1  0  0  0
 41107  1  0  0  0
 41 48  1  0  0  0
 42 43  1  0  0  0
 42 66  1  0  0  0
 42108  1  0  0  0
 42109  1  0  0  0
 43 44  1  0  0  0
 44110  1  0  0  0
 45 46  2  0  0  0
 45111  1  0  0  0
 46112  1  0  0  0
 47113  1  0  0  0
 47114  1  0  0  0
 48 56  1  0  0  0
 48 65  1  0  0  0
 48115  1  0  0  0
 49 50  1  0  0  0
 49 53  1  0  0  0
 49 64  1  0  0  0
 49116  1  0  0  0
 50 51  1  0  0  0
 50117  1  0  0  0
 50118  1  0  0  0
 51 52  1  0  0  0
 51119  1  0  0  0
 51120  1  0  0  0
 52121  1  0  0  0
 52122  1  0  0  0
 53 54  1  0  0  0
 54 55  2  0  0  0
 54123  1  0  0  0
 55 57  1  0  0  0
 55124  1  0  0  0
 56 69  2  0  0  0
 57 58  2  0  0  0
 57125  1  0  0  0
 58126  1  0  0  0
 59 60  1  0  0  0
 59 61  1  0  0  0
 59 62  1  0  0  0
 60127  1  0  0  0
 60128  1  0  0  0
 60129  1  0  0  0
 61130  1  0  0  0
 61131  1  0  0  0
 61132  1  0  0  0
 62133  1  0  0  0
 62134  1  0  0  0
 62135  1  0  0  0
 63 65  1  0  0  0
 63136  1  0  0  0
 63137  1  0  0  0
 63138  1  0  0  0
 64139  1  0  0  0
 65140  1  0  0  0
 68 78  1  0  0  0
 71141  1  0  0  0
 71142  1  0  0  0
 71143  1  0  0  0
 71 79  1  0  0  0
 72 79  1  0  0  0
 72144  1  0  0  0
 72145  1  0  0  0
 72146  1  0  0  0
 73 79  1  0  0  0
 73147  1  0  0  0
 73148  1  0  0  0
 73149  1  0  0  0
 74 79  1  0  0  0
 74150  1  0  0  0
 74151  1  0  0  0
 74 78  1  0  0  0
 75 76  1  0  0  0
 75 80  1  0  0  0
 75152  1  0  0  0
 75153  1  0  0  0
 76 81  1  0  0  0
 76154  1  0  0  0
 76155  1  0  0  0
 77 78  1  0  0  0
 77 81  1  0  0  0
 77156  1  0  0  0
 77157  1  0  0  0
 78158  1  0  0  0
 80159  1  0  0  0
 81160  1  0  0  0
 81161  1  0  0  0
M  CHG  1  81   1
M  ISO  4   1 100  68 101  78 101  80 100
M  END
> <chiral flag>
0

> <version>
0

> <s_m_source_file>
/data/baiqing/PycharmProjects/Reinvent-master-3.2/result/LINK_invent/BTK/process_docking_weight1_custom_sum_contain_oxygen_bond_distance_aromatic_linkinvent_7_9_3/rearranged_h_0102.sdf

> <i_m_source_file_index>
29

> <r_mmod_Potential_Energy-OPLS-2005>
1303.32958984375

> <r_mmod_Stretch_Energy-OPLS-2005>
628.145935058594

> <r_mmod_Bend_Energy-OPLS-2005>
532.37744140625

> <r_mmod_Torsional_Energy-OPLS-2005>
277.081787109375

> <r_mmod_Improper_Torsional_Energy-OPLS-2005>
6.85360288619995

> <r_mmod_Van_der_Waal_Energy-OPLS-2005>
117.580345153809

> <r_mmod_Electrostatic_Energy-OPLS-2005>
-249.691970825195

> <r_mmod_Solvation_Energy-OPLS-2005>
-472.410614013672

> <b_mmod_Minimization_Converged-OPLS-2005>
0

> <r_mmod_RMS_Derivative-OPLS-2005>
2.50336408615112

$$$$
29
                    3D
 Structure written by MMmdl.
168176  0  0  1  0            999 V2000
  -30.7034  -14.4243   20.5717 C   0  0  0  0  0  0
  -30.4263  -12.2725   19.4097 C   0  0  0  0  0  0
  -29.4956  -12.4939   18.1985 C   0  0  0  0  0  0
  -28.0132  -12.3684   18.6071 C   0  0  0  0  0  0
  -27.6650  -13.1892   19.8785 C   0  0  2  0  0  0
  -28.7090  -12.9405   20.9926 C   0  0  0  0  0  0
  -25.2619  -13.8095   20.5676 C   0  0  0  0  0  0
  -24.1855  -13.0398   20.9176 C   0  0  0  0  0  0
  -24.6386  -11.6859   20.8738 C   0  0  0  0  0  0
  -23.9048  -10.4263   21.0420 C   0  0  0  0  0  0
  -24.3602   -9.4184   21.9198 C   0  0  0  0  0  0
  -23.6271   -8.2226   22.0777 C   0  0  0  0  0  0
  -22.4251   -8.0267   21.3555 C   0  0  0  0  0  0
  -21.9884   -9.0250   20.4662 C   0  0  0  0  0  0
  -22.7219  -10.2123   20.3078 C   0  0  0  0  0  0
  -21.6849   -6.0716   22.5282 C   0  0  0  0  0  0
  -21.4012   -6.5625   23.8212 C   0  0  0  0  0  0
  -21.3667   -5.6790   24.9181 C   0  0  0  0  0  0
  -21.6048   -4.3053   24.7234 C   0  0  0  0  0  0
  -21.8819   -3.8125   23.4363 C   0  0  0  0  0  0
  -21.9188   -4.6940   22.3413 C   0  0  0  0  0  0
  -22.7877  -13.5229   21.1812 C   0  0  0  0  0  0
  -22.1657   -4.2116   21.0992 F   0  0  0  0  0  0
  -21.5641   -3.4547   25.7760 F   0  0  0  0  0  0
  -30.0464  -13.2417   20.4466 N   0  0  0  0  0  0
  -26.3038  -12.9228   20.3377 N   0  0  0  0  0  0
  -25.9311  -11.6407   20.5769 N   0  0  0  0  0  0
  -22.0486  -12.8272   22.0374 N   0  0  0  0  0  0
  -25.4331  -15.1814   20.4085 N   0  0  0  0  0  0
  -31.8189  -14.6459   20.0912 O   0  0  0  0  0  0
  -21.6623   -6.8857   21.4242 O   0  0  0  0  0  0
  -22.3588  -14.5528   20.6626 O   0  0  0  0  0  0
  -24.6108  -31.8699   23.2123 C   0  0  0  0  0  0
  -25.9011  -32.4838   23.8410 C   0  0  1  0  0  0
  -27.2400  -27.4783   20.0793 C   0  0  0  0  0  0
  -25.5881  -33.8635   24.2346 N   0  0  0  0  0  0
  -23.3986  -30.4928   21.5515 C   0  0  2  0  0  0
  -24.8482  -28.9640   20.1133 C   0  0  0  0  0  0
  -22.7392  -29.4661   22.4994 C   0  0  0  0  0  0
  -18.0276  -28.1374   22.8490 C   0  0  0  0  0  0
  -24.1482  -36.7320   23.2636 C   0  0  0  0  0  0
  -25.9234  -30.8476   21.3607 C   0  0  0  0  0  0
  -26.0057  -29.4850   20.7074 C   0  0  0  0  0  0
  -27.2073  -28.7453   20.6959 C   0  0  0  0  0  0
  -26.0706  -26.9547   19.4948 C   0  0  0  0  0  0
  -24.8729  -27.6949   19.5058 C   0  0  0  0  0  0
  -23.6064  -29.8247   20.1656 C   0  0  0  0  0  0
  -25.4104  -36.3118   24.0341 C   0  0  1  0  0  0
  -20.5861  -28.3655   23.1326 C   0  0  2  0  0  0
  -20.6762  -26.9391   22.5427 C   0  0  0  0  0  0
  -19.5752  -26.6379   21.5209 C   0  0  0  0  0  0
  -18.1926  -26.7929   22.1612 C   0  0  0  0  0  0
  -19.1524  -28.8836   23.2909 C   0  0  0  0  0  0
  -18.9449  -30.1443   23.8917 C   0  0  0  0  0  0
  -17.6452  -30.6580   24.0571 C   0  0  0  0  0  0
  -25.9024  -34.9482   23.5133 C   0  0  0  0  0  0
  -16.5344  -29.9084   23.6322 C   0  0  0  0  0  0
  -16.7265  -28.6501   23.0342 C   0  0  0  0  0  0
  -26.4464  -31.6616   25.0720 C   0  0  0  0  0  0
  -25.3754  -31.3740   26.1494 C   0  0  0  0  0  0
  -27.0268  -30.3053   24.6073 C   0  0  0  0  0  0
  -27.6072  -32.4324   25.7441 C   0  0  0  0  0  0
  -27.5590  -37.1801   24.8459 C   0  0  0  0  0  0
  -21.4127  -29.3018   22.3725 N   0  0  0  0  0  0
  -26.4297  -37.3795   23.9411 N   0  0  0  0  0  0
  -24.6622  -31.0831   22.1007 N   0  0  0  0  0  0
  -23.4173  -28.8208   23.3037 O   0  0  0  0  0  0
  -28.3739  -26.7125   20.0902 O   0  0  0  0  0  0
  -26.5575  -34.8926   22.4690 O   0  0  0  0  0  0
  -23.5306  -32.1433   23.7534 O   0  0  0  0  0  0
  -30.5899  -25.3315   17.4155 C   0  0  0  0  0  0
  -30.0571  -25.6590   18.6926 C   0  0  0  0  0  0
  -31.1972  -24.1119   17.4853 C   0  0  0  0  0  0
  -30.4010  -24.6268   19.5339 C   0  0  0  0  0  0
  -30.7028  -19.9220   19.7012 C   0  0  0  0  0  0
  -31.8781  -23.3265   16.4085 C   0  0  0  0  0  0
  -30.1222  -24.4389   20.9972 C   0  0  0  0  0  0
  -28.8578  -16.6495   18.7368 C   0  0  0  0  0  0
  -29.2700  -26.9172   19.0093 C   0  0  0  0  0  0
  -30.3505  -21.3520   19.2880 C   0  0  0  0  0  0
  -29.5627  -18.9109   19.5462 C   0  0  0  0  0  0
  -31.5195  -22.3519   19.2864 C   0  0  0  0  0  0
  -30.1885  -16.8505   20.9646 C   0  0  0  0  0  0
  -29.9395  -17.4102   19.5319 C   0  0  1  0  0  0
  -31.0695  -23.6551   18.7904 N   0  0  0  0  0  0
  -29.9604  -15.4083   21.0909 N   0  0  0  0  0  0
  -31.8163  -19.6089   20.1326 O   0  0  0  0  0  0
  -31.4707  -12.3726   19.1087 H   0  0  0  0  0  0
  -30.3242  -11.2551   19.7919 H   0  0  0  0  0  0
  -29.7266  -11.7748   17.4115 H   0  0  0  0  0  0
  -29.6786  -13.4791   17.7681 H   0  0  0  0  0  0
  -27.8082  -11.3110   18.7816 H   0  0  0  0  0  0
  -27.3697  -12.6657   17.7780 H   0  0  0  0  0  0
  -27.7074  -14.2387   19.6016 H   0  0  0  0  0  0
  -28.6742  -11.8962   21.3080 H   0  0  0  0  0  0
  -28.4761  -13.5179   21.8880 H   0  0  0  0  0  0
  -25.2768   -9.5654   22.4751 H   0  0  0  0  0  0
  -23.9967   -7.4639   22.7526 H   0  0  0  0  0  0
  -21.0802   -8.8793   19.8992 H   0  0  0  0  0  0
  -22.3697  -10.9673   19.6190 H   0  0  0  0  0  0
  -21.2000   -7.6140   23.9718 H   0  0  0  0  0  0
  -21.1503   -6.0517   25.9086 H   0  0  0  0  0  0
  -22.0587   -2.7583   23.2885 H   0  0  0  0  0  0
  -22.4038  -11.9921   22.4796 H   0  0  0  0  0  0
  -21.1128  -13.1366   22.2562 H   0  0  0  0  0  0
  -24.6647  -15.8338   20.5191 H   0  0  0  0  0  0
  -26.2817  -15.6185   20.0738 H   0  0  0  0  0  0
  -26.7083  -32.5571   23.1187 H   0  0  0  0  0  0
  -25.0067  -33.9807   25.0510 H   0  0  0  0  0  0
  -22.6851  -31.3080   21.4141 H   0  0  0  0  0  0
  -23.3734  -35.9663   23.3310 H   0  0  0  0  0  0
  -24.3571  -36.8914   22.2047 H   0  0  0  0  0  0
  -23.7242  -37.6534   23.6634 H   0  0  0  0  0  0
  -26.0302  -31.6160   20.5939 H   0  0  0  0  0  0
  -26.8123  -30.9023   21.9770 H   0  0  0  0  0  0
  -28.1007  -29.1383   21.1613 H   0  0  0  0  0  0
  -26.0892  -25.9756   19.0368 H   0  0  0  0  0  0
  -23.9821  -27.2849   19.0502 H   0  0  0  0  0  0
  -23.7083  -30.6005   19.4059 H   0  0  0  0  0  0
  -22.7323  -29.2408   19.8712 H   0  0  0  0  0  0
  -25.1276  -36.1992   25.0833 H   0  0  0  0  0  0
  -20.9966  -28.3226   24.1444 H   0  0  0  0  0  0
  -20.5655  -26.2262   23.3612 H   0  0  0  0  0  0
  -21.6639  -26.7431   22.1235 H   0  0  0  0  0  0
  -19.6913  -25.6295   21.1221 H   0  0  0  0  0  0
  -19.6707  -27.3197   20.6748 H   0  0  0  0  0  0
  -17.4208  -26.6711   21.3996 H   0  0  0  0  0  0
  -18.0305  -26.0058   22.8991 H   0  0  0  0  0  0
  -19.7923  -30.7261   24.2299 H   0  0  0  0  0  0
  -17.5000  -31.6257   24.5175 H   0  0  0  0  0  0
  -15.5347  -30.2993   23.7630 H   0  0  0  0  0  0
  -15.8669  -28.0827   22.7040 H   0  0  0  0  0  0
  -24.5908  -30.7100   25.7851 H   0  0  0  0  0  0
  -24.8973  -32.2910   26.4949 H   0  0  0  0  0  0
  -25.8121  -30.8909   27.0242 H   0  0  0  0  0  0
  -26.2783  -29.6814   24.1174 H   0  0  0  0  0  0
  -27.4089  -29.7292   25.4508 H   0  0  0  0  0  0
  -27.8600  -30.4362   23.9166 H   0  0  0  0  0  0
  -27.2719  -33.3608   26.2075 H   0  0  0  0  0  0
  -28.3829  -32.6915   25.0223 H   0  0  0  0  0  0
  -28.0803  -31.8421   26.5296 H   0  0  0  0  0  0
  -28.2625  -38.0082   24.7481 H   0  0  0  0  0  0
  -28.1061  -36.2611   24.6292 H   0  0  0  0  0  0
  -27.2311  -37.1471   25.8864 H   0  0  0  0  0  0
  -20.9277  -29.8729   21.6946 H   0  0  0  0  0  0
  -26.0188  -38.2873   24.1409 H   0  0  0  0  0  0
  -30.5120  -25.9313   16.5184 H   0  0  0  0  0  0
  -31.8261  -23.8493   15.4529 H   0  0  0  0  0  0
  -31.4107  -22.3511   16.2733 H   0  0  0  0  0  0
  -32.9319  -23.1734   16.6414 H   0  0  0  0  0  0
  -29.9152  -25.3874   21.4905 H   0  0  0  0  0  0
  -30.9709  -24.0047   21.5231 H   0  0  0  0  0  0
  -29.2596  -23.7903   21.1481 H   0  0  0  0  0  0
  -28.6754  -17.1182   17.7691 H   0  0  0  0  0  0
  -27.9087  -16.6230   19.2729 H   0  0  0  0  0  0
  -29.1620  -15.6287   18.5155 H   0  0  0  0  0  0
  -28.7365  -27.2298   18.1098 H   0  0  0  0  0  0
  -29.9653  -27.7170   19.2657 H   0  0  0  0  0  0
  -29.5610  -21.7048   19.9503 H   0  0  0  0  0  0
  -29.9167  -21.3071   18.2893 H   0  0  0  0  0  0
  -29.0721  -19.1627   18.6058 H   0  0  0  0  0  0
  -28.8207  -19.1014   20.3220 H   0  0  0  0  0  0
  -32.3354  -21.9837   18.6649 H   0  0  0  0  0  0
  -31.9411  -22.4624   20.2851 H   0  0  0  0  0  0
  -29.5082  -17.3300   21.6693 H   0  0  0  0  0  0
  -31.1962  -17.0994   21.3028 H   0  0  0  0  0  0
  -30.8673  -17.2963   18.9675 H   0  0  0  0  0  0
  -29.0698  -15.1268   21.4731 H   0  0  0  0  0  0
  1 25  1  0  0  0
  1 30  2  0  0  0
  1 86  1  0  0  0
  2  3  1  0  0  0
  2 25  1  0  0  0
  2 88  1  0  0  0
  2 89  1  0  0  0
  3  4  1  0  0  0
  3 90  1  0  0  0
  3 91  1  0  0  0
  4  5  1  0  0  0
  4 92  1  0  0  0
  4 93  1  0  0  0
  5  6  1  0  0  0
  5 26  1  0  0  0
  5 94  1  0  0  0
  6 25  1  0  0  0
  6 95  1  0  0  0
  6 96  1  0  0  0
  7  8  2  0  0  0
  7 26  1  0  0  0
  7 29  1  0  0  0
  8  9  1  0  0  0
  8 22  1  0  0  0
  9 10  1  0  0  0
  9 27  2  0  0  0
 10 11  2  0  0  0
 10 15  1  0  0  0
 11 12  1  0  0  0
 11 97  1  0  0  0
 12 13  2  0  0  0
 12 98  1  0  0  0
 13 14  1  0  0  0
 13 31  1  0  0  0
 14 15  2  0  0  0
 14 99  1  0  0  0
 15100  1  0  0  0
 16 17  2  0  0  0
 16 21  1  0  0  0
 16 31  1  0  0  0
 17 18  1  0  0  0
 17101  1  0  0  0
 18 19  2  0  0  0
 18102  1  0  0  0
 19 20  1  0  0  0
 19 24  1  0  0  0
 20 21  2  0  0  0
 20103  1  0  0  0
 21 23  1  0  0  0
 22 28  1  0  0  0
 22 32  2  0  0  0
 26 27  1  0  0  0
 28104  1  0  0  0
 28105  1  0  0  0
 29106  1  0  0  0
 29107  1  0  0  0
 33 34  1  0  0  0
 33 66  1  0  0  0
 33 70  2  0  0  0
 34 36  1  0  0  0
 34 59  1  0  0  0
 34108  1  0  0  0
 35 44  2  0  0  0
 35 45  1  0  0  0
 35 68  1  0  0  0
 36 56  1  0  0  0
 36109  1  0  0  0
 37 39  1  0  0  0
 37 47  1  0  0  0
 37 66  1  0  0  0
 37110  1  0  0  0
 38 43  2  0  0  0
 38 46  1  0  0  0
 38 47  1  0  0  0
 39 64  1  0  0  0
 39 67  2  0  0  0
 40 52  1  0  0  0
 40 53  2  0  0  0
 40 58  1  0  0  0
 41111  1  0  0  0
 41112  1  0  0  0
 41113  1  0  0  0
 41 48  1  0  0  0
 42 43  1  0  0  0
 42 66  1  0  0  0
 42114  1  0  0  0
 42115  1  0  0  0
 43 44  1  0  0  0
 44116  1  0  0  0
 45 46  2  0  0  0
 45117  1  0  0  0
 46118  1  0  0  0
 47119  1  0  0  0
 47120  1  0  0  0
 48 56  1  0  0  0
 48 65  1  0  0  0
 48121  1  0  0  0
 49 50  1  0  0  0
 49 53  1  0  0  0
 49 64  1  0  0  0
 49122  1  0  0  0
 50 51  1  0  0  0
 50123  1  0  0  0
 50124  1  0  0  0
 51 52  1  0  0  0
 51125  1  0  0  0
 51126  1  0  0  0
 52127  1  0  0  0
 52128  1  0  0  0
 53 54  1  0  0  0
 54 55  2  0  0  0
 54129  1  0  0  0
 55 57  1  0  0  0
 55130  1  0  0  0
 56 69  2  0  0  0
 57 58  2  0  0  0
 57131  1  0  0  0
 58132  1  0  0  0
 59 60  1  0  0  0
 59 61  1  0  0  0
 59 62  1  0  0  0
 60133  1  0  0  0
 60134  1  0  0  0
 60135  1  0  0  0
 61136  1  0  0  0
 61137  1  0  0  0
 61138  1  0  0  0
 62139  1  0  0  0
 62140  1  0  0  0
 62141  1  0  0  0
 63 65  1  0  0  0
 63142  1  0  0  0
 63143  1  0  0  0
 63144  1  0  0  0
 64145  1  0  0  0
 65146  1  0  0  0
 68 79  1  0  0  0
 71 72  1  0  0  0
 71 73  2  0  0  0
 71147  1  0  0  0
 72 74  2  0  0  0
 72 79  1  0  0  0
 73 76  1  0  0  0
 73 85  1  0  0  0
 74 77  1  0  0  0
 74 85  1  0  0  0
 75 80  1  0  0  0
 75 81  1  0  0  0
 75 87  2  0  0  0
 76148  1  0  0  0
 76149  1  0  0  0
 76150  1  0  0  0
 77151  1  0  0  0
 77152  1  0  0  0
 77153  1  0  0  0
 78154  1  0  0  0
 78155  1  0  0  0
 78156  1  0  0  0
 78 84  1  0  0  0
 79157  1  0  0  0
 79158  1  0  0  0
 80 82  1  0  0  0
 80159  1  0  0  0
 80160  1  0  0  0
 81 84  1  0  0  0
 81161  1  0  0  0
 81162  1  0  0  0
 82 85  1  0  0  0
 82163  1  0  0  0
 82164  1  0  0  0
 83 84  1  0  0  0
 83 86  1  0  0  0
 83165  1  0  0  0
 83166  1  0  0  0
 84167  1  0  0  0
 86168  1  0  0  0
M  ISO  4   1 100  68 101  79 101  86 100
M  END
> <chiral flag>
0

> <version>
0

> <s_m_source_file>
/data/baiqing/PycharmProjects/Reinvent-master-3.2/result/LINK_invent/BTK/process_docking_weight1_custom_sum_contain_oxygen_bond_distance_aromatic_linkinvent_7_9_3/rearranged_h_0102.sdf

> <i_m_source_file_index>
30

> <r_mmod_Potential_Energy-OPLS-2005>
-133.270812988281

> <r_mmod_Stretch_Energy-OPLS-2005>
32.6363830566406

> <r_mmod_Bend_Energy-OPLS-2005>
99.4374542236328

> <r_mmod_Torsional_Energy-OPLS-2005>
250.580902099609

> <r_mmod_Improper_Torsional_Energy-OPLS-2005>
4.89523410797119

> <r_mmod_Van_der_Waal_Energy-OPLS-2005>
125.64387512207

> <r_mmod_Electrostatic_Energy-OPLS-2005>
-429.553527832031

> <r_mmod_Solvation_Energy-OPLS-2005>
-226.189208984375

> <b_mmod_Minimization_Converged-OPLS-2005>
0

> <r_mmod_RMS_Derivative-OPLS-2005>
1.86760330200195

$$$$
30
                    3D
 Structure written by MMmdl.
156164  0  0  1  0            999 V2000
  -30.5513  -14.9528   20.3959 C   0  0  0  0  0  0
  -30.4303  -12.5915   19.4817 C   0  0  0  0  0  0
  -29.5072  -12.5164   18.2443 C   0  0  0  0  0  0
  -28.0438  -12.3059   18.6727 C   0  0  0  0  0  0
  -27.6239  -13.2471   19.8318 C   0  0  2  0  0  0
  -28.6715  -13.2969   20.9642 C   0  0  0  0  0  0
  -25.2441  -13.8223   20.5722 C   0  0  0  0  0  0
  -24.1768  -13.0439   20.9256 C   0  0  0  0  0  0
  -24.6384  -11.6919   20.8756 C   0  0  0  0  0  0
  -23.9061  -10.4294   21.0414 C   0  0  0  0  0  0
  -24.3614   -9.4210   21.9188 C   0  0  0  0  0  0
  -23.6285   -8.2244   22.0752 C   0  0  0  0  0  0
  -22.4268   -8.0278   21.3543 C   0  0  0  0  0  0
  -21.9912   -9.0254   20.4641 C   0  0  0  0  0  0
  -22.7237  -10.2135   20.3059 C   0  0  0  0  0  0
  -21.6859   -6.0725   22.5268 C   0  0  0  0  0  0
  -21.4020   -6.5636   23.8199 C   0  0  0  0  0  0
  -21.3650   -5.6787   24.9163 C   0  0  0  0  0  0
  -21.6051   -4.3056   24.7216 C   0  0  0  0  0  0
  -21.8817   -3.8139   23.4341 C   0  0  0  0  0  0
  -21.9200   -4.6954   22.3390 C   0  0  0  0  0  0
  -22.7789  -13.5207   21.1885 C   0  0  0  0  0  0
  -22.1668   -4.2134   21.0967 F   0  0  0  0  0  0
  -21.5623   -3.4541   25.7732 F   0  0  0  0  0  0
  -29.9370  -13.7026   20.3434 N   0  0  0  0  0  0
  -26.2855  -12.9445   20.3249 N   0  0  0  0  0  0
  -25.9316  -11.6578   20.5755 N   0  0  0  0  0  0
  -22.0436  -12.8186   22.0442 N   0  0  0  0  0  0
  -25.4084  -15.1931   20.4116 N   0  0  0  0  0  0
  -31.7686  -14.9637   20.1735 O   0  0  0  0  0  0
  -21.6643   -6.8864   21.4227 O   0  0  0  0  0  0
  -22.3476  -14.5523   20.6735 O   0  0  0  0  0  0
  -24.6450  -31.8422   23.1877 C   0  0  0  0  0  0
  -25.9217  -32.4711   23.8264 C   0  0  1  0  0  0
  -27.2308  -27.1236   20.1578 C   0  0  0  0  0  0
  -25.5933  -33.8512   24.2169 N   0  0  0  0  0  0
  -23.4524  -30.4560   21.5317 C   0  0  2  0  0  0
  -24.9080  -28.8821   20.1094 C   0  0  0  0  0  0
  -22.7595  -29.4514   22.4865 C   0  0  0  0  0  0
  -18.0287  -28.1359   22.8483 C   0  0  0  0  0  0
  -24.1492  -36.7256   23.2637 C   0  0  0  0  0  0
  -26.0081  -30.7134   21.3910 C   0  0  0  0  0  0
  -26.0838  -29.3208   20.7336 C   0  0  0  0  0  0
  -27.2460  -28.4585   20.7397 C   0  0  0  0  0  0
  -26.0276  -26.7893   19.4979 C   0  0  0  0  0  0
  -24.8954  -27.6313   19.4725 C   0  0  0  0  0  0
  -23.6813  -29.7809   20.1509 C   0  0  0  0  0  0
  -25.4129  -36.3051   24.0304 C   0  0  1  0  0  0
  -20.5915  -28.3713   23.1229 C   0  0  2  0  0  0
  -20.6792  -26.9417   22.5402 C   0  0  0  0  0  0
  -19.5775  -26.6350   21.5211 C   0  0  0  0  0  0
  -18.1939  -26.7914   22.1598 C   0  0  0  0  0  0
  -19.1542  -28.8846   23.2856 C   0  0  0  0  0  0
  -18.9462  -30.1438   23.8894 C   0  0  0  0  0  0
  -17.6473  -30.6588   24.0535 C   0  0  0  0  0  0
  -25.9077  -34.9427   23.5058 C   0  0  0  0  0  0
  -16.5367  -29.9079   23.6324 C   0  0  0  0  0  0
  -16.7280  -28.6475   23.0381 C   0  0  0  0  0  0
  -26.4525  -31.6586   25.0711 C   0  0  0  0  0  0
  -25.3689  -31.3760   26.1396 C   0  0  0  0  0  0
  -27.0393  -30.2983   24.6296 C   0  0  0  0  0  0
  -27.6038  -32.4368   25.7506 C   0  0  0  0  0  0
  -27.5590  -37.1784   24.8459 C   0  0  0  0  0  0
  -21.4281  -29.3040   22.3625 N   0  0  0  0  0  0
  -26.4296  -37.3764   23.9407 N   0  0  0  0  0  0
  -24.7209  -31.0247   22.0924 N   0  0  0  0  0  0
  -23.4248  -28.8078   23.3026 O   0  0  0  0  0  0
  -28.2842  -26.1329   20.2367 O   0  0  0  0  0  0
  -26.5673  -34.8927   22.4644 O   0  0  0  0  0  0
  -23.5559  -32.1284   23.7078 O   0  0  0  0  0  0
  -29.2924  -18.8468   20.3374 C   0  0  0  0  0  0
  -31.8707  -19.1927   20.9681 C   0  0  0  0  0  0
  -29.7159  -20.2787   20.4639 C   0  0  0  0  0  0
  -31.0994  -20.3739   20.8192 C   0  0  0  0  0  0
  -30.1612  -17.6449   20.5241 C   0  0  0  0  0  0
  -32.4346  -22.2079   19.6935 C   0  0  0  0  0  0
  -28.7501  -21.6234   20.1912 C   0  0  0  0  0  0
  -29.0493  -23.2928   20.4291 C   0  0  0  0  0  0
  -28.0343  -24.5967   20.0396 C   0  0  0  0  0  0
  -31.8391  -21.6969   21.0122 C   0  0  2  0  0  0
  -31.4383  -17.9235   20.8338 N   0  0  0  0  0  0
  -29.7849  -16.1609   20.4382 N   0  0  0  0  0  0
  -32.8916  -21.6088   21.9601 O   0  0  0  0  0  0
  -31.4621  -12.7427   19.1594 H   0  0  0  0  0  0
  -30.4244  -11.6489   20.0301 H   0  0  0  0  0  0
  -29.8222  -11.7069   17.5856 H   0  0  0  0  0  0
  -29.5907  -13.4353   17.6630 H   0  0  0  0  0  0
  -27.9442  -11.2673   18.9898 H   0  0  0  0  0  0
  -27.3737  -12.4286   17.8208 H   0  0  0  0  0  0
  -27.5780  -14.2446   19.3913 H   0  0  0  0  0  0
  -28.7648  -12.3306   21.4622 H   0  0  0  0  0  0
  -28.3739  -14.0178   21.7295 H   0  0  0  0  0  0
  -25.2752   -9.5693   22.4777 H   0  0  0  0  0  0
  -23.9989   -7.4640   22.7495 H   0  0  0  0  0  0
  -21.0826   -8.8774   19.8951 H   0  0  0  0  0  0
  -22.3681  -10.9679   19.6173 H   0  0  0  0  0  0
  -21.2017   -7.6144   23.9689 H   0  0  0  0  0  0
  -21.1474   -6.0525   25.9059 H   0  0  0  0  0  0
  -22.0607   -2.7600   23.2845 H   0  0  0  0  0  0
  -22.4069  -11.9841   22.4796 H   0  0  0  0  0  0
  -21.1059  -13.1198   22.2653 H   0  0  0  0  0  0
  -24.6340  -15.8396   20.5214 H   0  0  0  0  0  0
  -26.2343  -15.6333   20.0287 H   0  0  0  0  0  0
  -26.7291  -32.5313   23.0995 H   0  0  0  0  0  0
  -25.0037  -33.9603   25.0292 H   0  0  0  0  0  0
  -22.7543  -31.2797   21.3707 H   0  0  0  0  0  0
  -23.3784  -35.9570   23.3290 H   0  0  0  0  0  0
  -24.3559  -36.8913   22.2058 H   0  0  0  0  0  0
  -23.7236  -37.6424   23.6701 H   0  0  0  0  0  0
  -26.1608  -31.4701   20.6213 H   0  0  0  0  0  0
  -26.8786  -30.7686   22.0340 H   0  0  0  0  0  0
  -28.1425  -28.7824   21.2523 H   0  0  0  0  0  0
  -25.9287  -25.8267   19.0203 H   0  0  0  0  0  0
  -24.0017  -27.2922   18.9686 H   0  0  0  0  0  0
  -23.8181  -30.5516   19.3902 H   0  0  0  0  0  0
  -22.8005  -29.2135   19.8465 H   0  0  0  0  0  0
  -25.1337  -36.1868   25.0799 H   0  0  0  0  0  0
  -20.9949  -28.3292   24.1366 H   0  0  0  0  0  0
  -20.5671  -26.2319   23.3613 H   0  0  0  0  0  0
  -21.6662  -26.7428   22.1210 H   0  0  0  0  0  0
  -19.6940  -25.6263   21.1237 H   0  0  0  0  0  0
  -19.6697  -27.3162   20.6757 H   0  0  0  0  0  0
  -17.4213  -26.6645   21.4000 H   0  0  0  0  0  0
  -18.0333  -26.0051   22.8966 H   0  0  0  0  0  0
  -19.7956  -30.7199   24.2310 H   0  0  0  0  0  0
  -17.5055  -31.6282   24.5106 H   0  0  0  0  0  0
  -15.5378  -30.2986   23.7670 H   0  0  0  0  0  0
  -15.8665  -28.0786   22.7159 H   0  0  0  0  0  0
  -24.5878  -30.7115   25.7683 H   0  0  0  0  0  0
  -24.8843  -32.2927   26.4776 H   0  0  0  0  0  0
  -25.7952  -30.8932   27.0207 H   0  0  0  0  0  0
  -26.3012  -29.6691   24.1311 H   0  0  0  0  0  0
  -27.4016  -29.7323   25.4884 H   0  0  0  0  0  0
  -27.8932  -30.4229   23.9645 H   0  0  0  0  0  0
  -27.2644  -33.3724   26.2001 H   0  0  0  0  0  0
  -28.3912  -32.6852   25.0366 H   0  0  0  0  0  0
  -28.0665  -31.8536   26.5487 H   0  0  0  0  0  0
  -28.2589  -38.0099   24.7532 H   0  0  0  0  0  0
  -28.1096  -36.2615   24.6277 H   0  0  0  0  0  0
  -27.2274  -37.1442   25.8849 H   0  0  0  0  0  0
  -20.9509  -29.8749   21.6794 H   0  0  0  0  0  0
  -26.0159  -38.2828   24.1411 H   0  0  0  0  0  0
  -28.2574  -18.6729   20.0766 H   0  0  0  0  0  0
  -32.9227  -19.2489   21.2030 H   0  0  0  0  0  0
  -31.6628  -22.3343   18.9340 H   0  0  0  0  0  0
  -33.1689  -21.5103   19.2896 H   0  0  0  0  0  0
  -32.9205  -23.1746   19.8245 H   0  0  0  0  0  0
  -27.8322  -21.4079   20.7386 H   0  0  0  0  0  0
  -28.4617  -21.5295   19.1440 H   0  0  0  0  0  0
  -29.9777  -23.5267   19.9143 H   0  0  0  0  0  0
  -29.2585  -23.4182   21.4910 H   0  0  0  0  0  0
  -27.0862  -24.3818   20.5334 H   0  0  0  0  0  0
  -27.8274  -24.4885   18.9739 H   0  0  0  0  0  0
  -31.1683  -22.4270   21.4449 H   0  0  0  0  0  0
  -28.7931  -15.9951   20.4128 H   0  0  0  0  0  0
  -33.6911  -21.9267   21.5415 H   0  0  0  0  0  0
  1 25  1  0  0  0
  1 30  2  0  0  0
  1 82  1  0  0  0
  2  3  1  0  0  0
  2 25  1  0  0  0
  2 84  1  0  0  0
  2 85  1  0  0  0
  3  4  1  0  0  0
  3 86  1  0  0  0
  3 87  1  0  0  0
  4  5  1  0  0  0
  4 88  1  0  0  0
  4 89  1  0  0  0
  5  6  1  0  0  0
  5 26  1  0  0  0
  5 90  1  0  0  0
  6 25  1  0  0  0
  6 91  1  0  0  0
  6 92  1  0  0  0
  7  8  2  0  0  0
  7 26  1  0  0  0
  7 29  1  0  0  0
  8  9  1  0  0  0
  8 22  1  0  0  0
  9 10  1  0  0  0
  9 27  2  0  0  0
 10 11  2  0  0  0
 10 15  1  0  0  0
 11 12  1  0  0  0
 11 93  1  0  0  0
 12 13  2  0  0  0
 12 94  1  0  0  0
 13 14  1  0  0  0
 13 31  1  0  0  0
 14 15  2  0  0  0
 14 95  1  0  0  0
 15 96  1  0  0  0
 16 17  2  0  0  0
 16 21  1  0  0  0
 16 31  1  0  0  0
 17 18  1  0  0  0
 17 97  1  0  0  0
 18 19  2  0  0  0
 18 98  1  0  0  0
 19 20  1  0  0  0
 19 24  1  0  0  0
 20 21  2  0  0  0
 20 99  1  0  0  0
 21 23  1  0  0  0
 22 28  1  0  0  0
 22 32  2  0  0  0
 26 27  1  0  0  0
 28100  1  0  0  0
 28101  1  0  0  0
 29102  1  0  0  0
 29103  1  0  0  0
 33 34  1  0  0  0
 33 66  1  0  0  0
 33 70  2  0  0  0
 34 36  1  0  0  0
 34 59  1  0  0  0
 34104  1  0  0  0
 35 44  2  0  0  0
 35 45  1  0  0  0
 35 68  1  0  0  0
 36 56  1  0  0  0
 36105  1  0  0  0
 37 39  1  0  0  0
 37 47  1  0  0  0
 37 66  1  0  0  0
 37106  1  0  0  0
 38 43  2  0  0  0
 38 46  1  0  0  0
 38 47  1  0  0  0
 39 64  1  0  0  0
 39 67  2  0  0  0
 40 52  1  0  0  0
 40 53  2  0  0  0
 40 58  1  0  0  0
 41107  1  0  0  0
 41108  1  0  0  0
 41109  1  0  0  0
 41 48  1  0  0  0
 42 43  1  0  0  0
 42 66  1  0  0  0
 42110  1  0  0  0
 42111  1  0  0  0
 43 44  1  0  0  0
 44112  1  0  0  0
 45 46  2  0  0  0
 45113  1  0  0  0
 46114  1  0  0  0
 47115  1  0  0  0
 47116  1  0  0  0
 48 56  1  0  0  0
 48 65  1  0  0  0
 48117  1  0  0  0
 49 50  1  0  0  0
 49 53  1  0  0  0
 49 64  1  0  0  0
 49118  1  0  0  0
 50 51  1  0  0  0
 50119  1  0  0  0
 50120  1  0  0  0
 51 52  1  0  0  0
 51121  1  0  0  0
 51122  1  0  0  0
 52123  1  0  0  0
 52124  1  0  0  0
 53 54  1  0  0  0
 54 55  2  0  0  0
 54125  1  0  0  0
 55 57  1  0  0  0
 55126  1  0  0  0
 56 69  2  0  0  0
 57 58  2  0  0  0
 57127  1  0  0  0
 58128  1  0  0  0
 59 60  1  0  0  0
 59 61  1  0  0  0
 59 62  1  0  0  0
 60129  1  0  0  0
 60130  1  0  0  0
 60131  1  0  0  0
 61132  1  0  0  0
 61133  1  0  0  0
 61134  1  0  0  0
 62135  1  0  0  0
 62136  1  0  0  0
 62137  1  0  0  0
 63 65  1  0  0  0
 63138  1  0  0  0
 63139  1  0  0  0
 63140  1  0  0  0
 64141  1  0  0  0
 65142  1  0  0  0
 68 79  1  0  0  0
 71 73  2  0  0  0
 71 75  1  0  0  0
 71143  1  0  0  0
 72 74  2  0  0  0
 72 81  1  0  0  0
 72144  1  0  0  0
 73 74  1  0  0  0
 73 77  1  0  0  0
 74 80  1  0  0  0
 75 81  2  0  0  0
 75 82  1  0  0  0
 76145  1  0  0  0
 76146  1  0  0  0
 76147  1  0  0  0
 76 80  1  0  0  0
 77 78  1  0  0  0
 77148  1  0  0  0
 77149  1  0  0  0
 78 79  1  0  0  0
 78150  1  0  0  0
 78151  1  0  0  0
 79152  1  0  0  0
 79153  1  0  0  0
 80 83  1  0  0  0
 80154  1  0  0  0
 82155  1  0  0  0
 83156  1  0  0  0
M  ISO  4   1 100  68 101  79 101  82 100
M  END
> <chiral flag>
0

> <version>
0

> <s_m_source_file>
/data/baiqing/PycharmProjects/Reinvent-master-3.2/result/LINK_invent/BTK/process_docking_weight1_custom_sum_contain_oxygen_bond_distance_aromatic_linkinvent_7_9_3/rearranged_h_0102.sdf

> <i_m_source_file_index>
31

> <r_mmod_Potential_Energy-OPLS-2005>
388.684875488281

> <r_mmod_Stretch_Energy-OPLS-2005>
290.006378173828

> <r_mmod_Bend_Energy-OPLS-2005>
267.028106689453

> <r_mmod_Torsional_Energy-OPLS-2005>
210.22265625

> <r_mmod_Improper_Torsional_Energy-OPLS-2005>
6.02440214157104

> <r_mmod_Van_der_Waal_Energy-OPLS-2005>
144.558074951172

> <r_mmod_Electrostatic_Energy-OPLS-2005>
-466.576538085938

> <r_mmod_Solvation_Energy-OPLS-2005>
-263.133056640625

> <b_mmod_Minimization_Converged-OPLS-2005>
0

> <r_mmod_RMS_Derivative-OPLS-2005>
2.94098591804504

$$$$
31
                    3D
 Structure written by MMmdl.
160168  0  0  1  0            999 V2000
  -30.4203  -15.2923   20.3783 C   0  0  0  0  0  0
  -30.4530  -12.8188   19.5458 C   0  0  0  0  0  0
  -29.5527  -12.5768   18.3046 C   0  0  0  0  0  0
  -28.1086  -12.2567   18.7296 C   0  0  0  0  0  0
  -27.6122  -13.2434   19.8092 C   0  0  2  0  0  0
  -28.6387  -13.4553   20.9489 C   0  0  0  0  0  0
  -25.2321  -13.8099   20.5670 C   0  0  0  0  0  0
  -24.1706  -13.0313   20.9267 C   0  0  0  0  0  0
  -24.6384  -11.6835   20.8776 C   0  0  0  0  0  0
  -23.9088  -10.4228   21.0425 C   0  0  0  0  0  0
  -24.3638   -9.4154   21.9205 C   0  0  0  0  0  0
  -23.6303   -8.2196   22.0763 C   0  0  0  0  0  0
  -22.4282   -8.0256   21.3544 C   0  0  0  0  0  0
  -21.9926   -9.0226   20.4643 C   0  0  0  0  0  0
  -22.7266  -10.2096   20.3063 C   0  0  0  0  0  0
  -21.6843   -6.0743   22.5288 C   0  0  0  0  0  0
  -21.3997   -6.5642   23.8223 C   0  0  0  0  0  0
  -21.3661   -5.6789   24.9183 C   0  0  0  0  0  0
  -21.6053   -4.3055   24.7232 C   0  0  0  0  0  0
  -21.8817   -3.8152   23.4346 C   0  0  0  0  0  0
  -21.9182   -4.6972   22.3407 C   0  0  0  0  0  0
  -22.7732  -13.5103   21.1908 C   0  0  0  0  0  0
  -22.1651   -4.2164   21.0981 F   0  0  0  0  0  0
  -21.5639   -3.4535   25.7743 F   0  0  0  0  0  0
  -29.8914  -13.9625   20.3575 N   0  0  0  0  0  0
  -26.2791  -12.9364   20.3124 N   0  0  0  0  0  0
  -25.9310  -11.6500   20.5707 N   0  0  0  0  0  0
  -22.0379  -12.8114   22.0484 N   0  0  0  0  0  0
  -25.3654  -15.1827   20.4064 N   0  0  0  0  0  0
  -31.6355  -15.2987   20.1318 O   0  0  0  0  0  0
  -21.6616   -6.8878   21.4251 O   0  0  0  0  0  0
  -22.3413  -14.5405   20.6742 O   0  0  0  0  0  0
  -24.6597  -31.8276   23.1715 C   0  0  0  0  0  0
  -25.9291  -32.4594   23.8180 C   0  0  1  0  0  0
  -27.2235  -26.9475   20.1967 C   0  0  0  0  0  0
  -25.5981  -33.8413   24.2083 N   0  0  0  0  0  0
  -23.4733  -30.4380   21.5219 C   0  0  2  0  0  0
  -24.9261  -28.8209   20.1236 C   0  0  0  0  0  0
  -22.7647  -29.4469   22.4813 C   0  0  0  0  0  0
  -18.0327  -28.1399   22.8471 C   0  0  0  0  0  0
  -24.1495  -36.7208   23.2649 C   0  0  0  0  0  0
  -26.0405  -30.6398   21.3983 C   0  0  0  0  0  0
  -26.1109  -29.2282   20.7492 C   0  0  0  0  0  0
  -27.2580  -28.3162   20.7547 C   0  0  0  0  0  0
  -26.0045  -26.6794   19.5357 C   0  0  0  0  0  0
  -24.8956  -27.5639   19.4980 C   0  0  0  0  0  0
  -23.7119  -29.7496   20.1507 C   0  0  0  0  0  0
  -25.4137  -36.2970   24.0299 C   0  0  1  0  0  0
  -20.5945  -28.3753   23.1194 C   0  0  2  0  0  0
  -20.6806  -26.9438   22.5405 C   0  0  0  0  0  0
  -19.5780  -26.6378   21.5215 C   0  0  0  0  0  0
  -18.1964  -26.7937   22.1619 C   0  0  0  0  0  0
  -19.1584  -28.8897   23.2820 C   0  0  0  0  0  0
  -18.9497  -30.1488   23.8851 C   0  0  0  0  0  0
  -17.6492  -30.6593   24.0561 C   0  0  0  0  0  0
  -25.9107  -34.9352   23.5010 C   0  0  0  0  0  0
  -16.5384  -29.9079   23.6346 C   0  0  0  0  0  0
  -16.7311  -28.6498   23.0365 C   0  0  0  0  0  0
  -26.4558  -31.6522   25.0691 C   0  0  0  0  0  0
  -25.3690  -31.3769   26.1346 C   0  0  0  0  0  0
  -27.0460  -30.2893   24.6405 C   0  0  0  0  0  0
  -27.6055  -32.4335   25.7493 C   0  0  0  0  0  0
  -27.5571  -37.1757   24.8465 C   0  0  0  0  0  0
  -21.4322  -29.3045   22.3538 N   0  0  0  0  0  0
  -26.4285  -37.3701   23.9406 N   0  0  0  0  0  0
  -24.7457  -30.9945   22.0846 N   0  0  0  0  0  0
  -23.4200  -28.8060   23.3069 O   0  0  0  0  0  0
  -28.2554  -25.8775   20.1555 O   0  0  0  0  0  0
  -26.5724  -34.8882   22.4609 O   0  0  0  0  0  0
  -23.5669  -32.1258   23.6807 O   0  0  0  0  0  0
  -29.1491  -21.4894   20.6770 C   0  0  0  0  0  0
  -28.5259  -20.0342   18.8659 C   0  0  0  0  0  0
  -27.8666  -22.4550   18.8686 C   0  0  0  0  0  0
  -29.2083  -20.0612   20.1001 C   0  0  0  0  0  0
  -28.4958  -22.7612   20.0949 C   0  0  0  0  0  0
  -27.8640  -21.1539   18.2858 C   0  0  0  0  0  0
  -25.9463  -19.9193   17.1877 C   0  0  0  0  0  0
  -28.0080  -20.5241   15.8337 C   0  0  0  0  0  0
  -28.2854  -16.7759   19.7334 C   0  0  0  0  0  0
  -30.0297  -18.5786   20.5397 C   0  0  0  0  0  0
  -28.1647  -24.3476   20.7349 C   0  0  0  0  0  0
  -27.0854  -20.9347   16.9908 C   0  0  0  0  0  0
  -29.5679  -16.8399   20.5492 C   0  0  2  0  0  0
  -31.4717  -13.0279   19.2181 H   0  0  0  0  0  0
  -30.5214  -11.9143   20.1522 H   0  0  0  0  0  0
  -29.9561  -11.7653   17.6985 H   0  0  0  0  0  0
  -29.5619  -13.4663   17.6722 H   0  0  0  0  0  0
  -28.0964  -11.2415   19.1270 H   0  0  0  0  0  0
  -27.4438  -12.2581   17.8656 H   0  0  0  0  0  0
  -27.5093  -14.1612   19.2420 H   0  0  0  0  0  0
  -28.8049  -12.5296   21.5020 H   0  0  0  0  0  0
  -28.2578  -14.1796   21.6703 H   0  0  0  0  0  0
  -25.2790   -9.5634   22.4773 H   0  0  0  0  0  0
  -24.0013   -7.4589   22.7484 H   0  0  0  0  0  0
  -21.0856   -8.8758   19.8950 H   0  0  0  0  0  0
  -22.3745  -10.9642   19.6169 H   0  0  0  0  0  0
  -21.1972   -7.6148   23.9737 H   0  0  0  0  0  0
  -21.1490   -6.0512   25.9090 H   0  0  0  0  0  0
  -22.0593   -2.7616   23.2836 H   0  0  0  0  0  0
  -22.4000  -11.9814   22.4940 H   0  0  0  0  0  0
  -21.0981  -13.1139   22.2631 H   0  0  0  0  0  0
  -24.5771  -15.8103   20.5250 H   0  0  0  0  0  0
  -26.1909  -15.6499   20.0567 H   0  0  0  0  0  0
  -26.7362  -32.5137   23.0898 H   0  0  0  0  0  0
  -25.0069  -33.9515   25.0194 H   0  0  0  0  0  0
  -22.7851  -31.2689   21.3515 H   0  0  0  0  0  0
  -23.3767  -35.9527   23.3282 H   0  0  0  0  0  0
  -24.3578  -36.8886   22.2070 H   0  0  0  0  0  0
  -23.7244  -37.6384   23.6731 H   0  0  0  0  0  0
  -26.2146  -31.3792   20.6159 H   0  0  0  0  0  0
  -26.9015  -30.6991   22.0521 H   0  0  0  0  0  0
  -28.1638  -28.6387   21.2484 H   0  0  0  0  0  0
  -25.8940  -25.7201   19.0509 H   0  0  0  0  0  0
  -23.9936  -27.2437   18.9949 H   0  0  0  0  0  0
  -23.8653  -30.5173   19.3910 H   0  0  0  0  0  0
  -22.8205  -29.2037   19.8357 H   0  0  0  0  0  0
  -25.1325  -36.1778   25.0790 H   0  0  0  0  0  0
  -21.0032  -28.3361   24.1316 H   0  0  0  0  0  0
  -20.5697  -26.2376   23.3646 H   0  0  0  0  0  0
  -21.6674  -26.7427   22.1208 H   0  0  0  0  0  0
  -19.6952  -25.6278   21.1275 H   0  0  0  0  0  0
  -19.6715  -27.3163   20.6722 H   0  0  0  0  0  0
  -17.4237  -26.6694   21.4015 H   0  0  0  0  0  0
  -18.0351  -26.0078   22.9012 H   0  0  0  0  0  0
  -19.7974  -30.7323   24.2186 H   0  0  0  0  0  0
  -17.5044  -31.6267   24.5170 H   0  0  0  0  0  0
  -15.5381  -30.2967   23.7690 H   0  0  0  0  0  0
  -15.8714  -28.0802   22.7099 H   0  0  0  0  0  0
  -24.5894  -30.7091   25.7657 H   0  0  0  0  0  0
  -24.8852  -32.2965   26.4646 H   0  0  0  0  0  0
  -25.7917  -30.9028   27.0213 H   0  0  0  0  0  0
  -26.3126  -29.6565   24.1390 H   0  0  0  0  0  0
  -27.3990  -29.7251   25.5051 H   0  0  0  0  0  0
  -27.9063  -30.4083   23.9811 H   0  0  0  0  0  0
  -27.2626  -33.3689   26.1926 H   0  0  0  0  0  0
  -28.3927  -32.6809   25.0356 H   0  0  0  0  0  0
  -28.0647  -31.8559   26.5524 H   0  0  0  0  0  0
  -28.2558  -38.0080   24.7513 H   0  0  0  0  0  0
  -28.1096  -36.2605   24.6284 H   0  0  0  0  0  0
  -27.2295  -37.1379   25.8871 H   0  0  0  0  0  0
  -20.9579  -29.8710   21.6642 H   0  0  0  0  0  0
  -26.0131  -38.2760   24.1414 H   0  0  0  0  0  0
  -29.6316  -21.6212   21.6353 H   0  0  0  0  0  0
  -28.5077  -19.1009   18.3226 H   0  0  0  0  0  0
  -27.3145  -23.2462   18.3804 H   0  0  0  0  0  0
  -25.2757  -20.2382   17.9867 H   0  0  0  0  0  0
  -26.3201  -18.9272   17.4447 H   0  0  0  0  0  0
  -25.3492  -19.8173   16.2804 H   0  0  0  0  0  0
  -28.7833  -21.2730   15.6708 H   0  0  0  0  0  0
  -27.4477  -20.4232   14.9034 H   0  0  0  0  0  0
  -28.4990  -19.5697   16.0240 H   0  0  0  0  0  0
  -27.6734  -17.6674   19.8596 H   0  0  0  0  0  0
  -27.6882  -15.9742   20.1227 H   0  0  0  0  0  0
  -28.4758  -16.6187   18.6721 H   0  0  0  0  0  0
  -30.4027  -18.7793   21.5437 H   0  0  0  0  0  0
  -30.9330  -18.6094   19.9300 H   0  0  0  0  0  0
  -28.7650  -24.3866   21.6432 H   0  0  0  0  0  0
  -27.1413  -24.2666   21.1035 H   0  0  0  0  0  0
  -26.6200  -21.8798   16.7059 H   0  0  0  0  0  0
  -29.2171  -16.7344   21.5768 H   0  0  0  0  0  0
  1 25  1  0  0  0
  1 30  2  0  0  0
  1 83  1  0  0  0
  2  3  1  0  0  0
  2 25  1  0  0  0
  2 84  1  0  0  0
  2 85  1  0  0  0
  3  4  1  0  0  0
  3 86  1  0  0  0
  3 87  1  0  0  0
  4  5  1  0  0  0
  4 88  1  0  0  0
  4 89  1  0  0  0
  5  6  1  0  0  0
  5 26  1  0  0  0
  5 90  1  0  0  0
  6 25  1  0  0  0
  6 91  1  0  0  0
  6 92  1  0  0  0
  7  8  2  0  0  0
  7 26  1  0  0  0
  7 29  1  0  0  0
  8  9  1  0  0  0
  8 22  1  0  0  0
  9 10  1  0  0  0
  9 27  2  0  0  0
 10 11  2  0  0  0
 10 15  1  0  0  0
 11 12  1  0  0  0
 11 93  1  0  0  0
 12 13  2  0  0  0
 12 94  1  0  0  0
 13 14  1  0  0  0
 13 31  1  0  0  0
 14 15  2  0  0  0
 14 95  1  0  0  0
 15 96  1  0  0  0
 16 17  2  0  0  0
 16 21  1  0  0  0
 16 31  1  0  0  0
 17 18  1  0  0  0
 17 97  1  0  0  0
 18 19  2  0  0  0
 18 98  1  0  0  0
 19 20  1  0  0  0
 19 24  1  0  0  0
 20 21  2  0  0  0
 20 99  1  0  0  0
 21 23  1  0  0  0
 22 28  1  0  0  0
 22 32  2  0  0  0
 26 27  1  0  0  0
 28100  1  0  0  0
 28101  1  0  0  0
 29102  1  0  0  0
 29103  1  0  0  0
 33 34  1  0  0  0
 33 66  1  0  0  0
 33 70  2  0  0  0
 34 36  1  0  0  0
 34 59  1  0  0  0
 34104  1  0  0  0
 35 44  2  0  0  0
 35 45  1  0  0  0
 35 68  1  0  0  0
 36 56  1  0  0  0
 36105  1  0  0  0
 37 39  1  0  0  0
 37 47  1  0  0  0
 37 66  1  0  0  0
 37106  1  0  0  0
 38 43  2  0  0  0
 38 46  1  0  0  0
 38 47  1  0  0  0
 39 64  1  0  0  0
 39 67  2  0  0  0
 40 52  1  0  0  0
 40 53  2  0  0  0
 40 58  1  0  0  0
 41107  1  0  0  0
 41108  1  0  0  0
 41109  1  0  0  0
 41 48  1  0  0  0
 42 43  1  0  0  0
 42 66  1  0  0  0
 42110  1  0  0  0
 42111  1  0  0  0
 43 44  1  0  0  0
 44112  1  0  0  0
 45 46  2  0  0  0
 45113  1  0  0  0
 46114  1  0  0  0
 47115  1  0  0  0
 47116  1  0  0  0
 48 56  1  0  0  0
 48 65  1  0  0  0
 48117  1  0  0  0
 49 50  1  0  0  0
 49 53  1  0  0  0
 49 64  1  0  0  0
 49118  1  0  0  0
 50 51  1  0  0  0
 50119  1  0  0  0
 50120  1  0  0  0
 51 52  1  0  0  0
 51121  1  0  0  0
 51122  1  0  0  0
 52123  1  0  0  0
 52124  1  0  0  0
 53 54  1  0  0  0
 54 55  2  0  0  0
 54125  1  0  0  0
 55 57  1  0  0  0
 55126  1  0  0  0
 56 69  2  0  0  0
 57 58  2  0  0  0
 57127  1  0  0  0
 58128  1  0  0  0
 59 60  1  0  0  0
 59 61  1  0  0  0
 59 62  1  0  0  0
 60129  1  0  0  0
 60130  1  0  0  0
 60131  1  0  0  0
 61132  1  0  0  0
 61133  1  0  0  0
 61134  1  0  0  0
 62135  1  0  0  0
 62136  1  0  0  0
 62137  1  0  0  0
 63 65  1  0  0  0
 63138  1  0  0  0
 63139  1  0  0  0
 63140  1  0  0  0
 64141  1  0  0  0
 65142  1  0  0  0
 68 81  1  0  0  0
 71 74  2  0  0  0
 71 75  1  0  0  0
 71143  1  0  0  0
 72 74  1  0  0  0
 72 76  2  0  0  0
 72144  1  0  0  0
 73 75  2  0  0  0
 73 76  1  0  0  0
 73145  1  0  0  0
 74 80  1  0  0  0
 75 81  1  0  0  0
 76 82  1  0  0  0
 77146  1  0  0  0
 77147  1  0  0  0
 77148  1  0  0  0
 77 82  1  0  0  0
 78 82  1  0  0  0
 78149  1  0  0  0
 78150  1  0  0  0
 78151  1  0  0  0
 79152  1  0  0  0
 79153  1  0  0  0
 79154  1  0  0  0
 79 83  1  0  0  0
 80 83  1  0  0  0
 80155  1  0  0  0
 80156  1  0  0  0
 81157  1  0  0  0
 81158  1  0  0  0
 82159  1  0  0  0
 83160  1  0  0  0
M  ISO  4   1 100  68 101  81 101  83 100
M  END
> <chiral flag>
0

> <version>
0

> <s_m_source_file>
/data/baiqing/PycharmProjects/Reinvent-master-3.2/result/LINK_invent/BTK/process_docking_weight1_custom_sum_contain_oxygen_bond_distance_aromatic_linkinvent_7_9_3/rearranged_h_0102.sdf

> <i_m_source_file_index>
32

> <r_mmod_Potential_Energy-OPLS-2005>
1317.623046875

> <r_mmod_Stretch_Energy-OPLS-2005>
578.300476074219

> <r_mmod_Bend_Energy-OPLS-2005>
433.109924316406

> <r_mmod_Torsional_Energy-OPLS-2005>
230.136611938477

> <r_mmod_Improper_Torsional_Energy-OPLS-2005>
5.03229665756226

> <r_mmod_Van_der_Waal_Energy-OPLS-2005>
127.380859375

> <r_mmod_Electrostatic_Energy-OPLS-2005>
-323.753234863281

> <r_mmod_Solvation_Energy-OPLS-2005>
-184.816253662109

> <b_mmod_Minimization_Converged-OPLS-2005>
0

> <r_mmod_RMS_Derivative-OPLS-2005>
1.66323232650757

$$$$
32
                    3D
 Structure written by MMmdl.
172180  0  0  1  0            999 V2000
  -30.5398  -14.9939   20.4708 C   0  0  0  0  0  0
  -30.4155  -12.6382   19.5198 C   0  0  0  0  0  0
  -29.5227  -12.5583   18.2644 C   0  0  0  0  0  0
  -28.0545  -12.3112   18.6812 C   0  0  0  0  0  0
  -27.6090  -13.2612   19.8291 C   0  0  2  0  0  0
  -28.6325  -13.3294   20.9778 C   0  0  0  0  0  0
  -25.2409  -13.8095   20.5952 C   0  0  0  0  0  0
  -24.1775  -13.0346   20.9477 C   0  0  0  0  0  0
  -24.6380  -11.6770   20.8768 C   0  0  0  0  0  0
  -23.9188  -10.4106   21.0421 C   0  0  0  0  0  0
  -24.3727   -9.3983   21.9211 C   0  0  0  0  0  0
  -23.6308   -8.2116   22.0888 C   0  0  0  0  0  0
  -22.4273   -8.0249   21.3631 C   0  0  0  0  0  0
  -22.0196   -9.0042   20.4415 C   0  0  0  0  0  0
  -22.7536  -10.1856   20.2803 C   0  0  0  0  0  0
  -21.6858   -6.0650   22.5337 C   0  0  0  0  0  0
  -21.3968   -6.5413   23.8363 C   0  0  0  0  0  0
  -21.3702   -5.6569   24.9254 C   0  0  0  0  0  0
  -21.6166   -4.2853   24.7294 C   0  0  0  0  0  0
  -21.8824   -3.7958   23.4382 C   0  0  0  0  0  0
  -21.9250   -4.6844   22.3480 C   0  0  0  0  0  0
  -22.7644  -13.4868   21.1759 C   0  0  0  0  0  0
  -22.1618   -4.2072   21.1034 F   0  0  0  0  0  0
  -21.5898   -3.4378   25.7724 F   0  0  0  0  0  0
  -29.8992  -13.7578   20.3680 N   0  0  0  0  0  0
  -26.2810  -12.9398   20.3235 N   0  0  0  0  0  0
  -25.9324  -11.6470   20.5590 N   0  0  0  0  0  0
  -22.0370  -12.8057   22.0515 N   0  0  0  0  0  0
  -25.4244  -15.1858   20.4765 N   0  0  0  0  0  0
  -31.7554  -14.9985   20.2990 O   0  0  0  0  0  0
  -21.6630   -6.8861   21.4304 O   0  0  0  0  0  0
  -22.3003  -14.4716   20.5768 O   0  0  0  0  0  0
  -24.6545  -31.8241   23.1723 C   0  0  0  0  0  0
  -25.9261  -32.4607   23.8138 C   0  0  1  0  0  0
  -27.2347  -27.0518   20.1482 C   0  0  0  0  0  0
  -25.5982  -33.8417   24.2092 N   0  0  0  0  0  0
  -23.4616  -30.4490   21.5066 C   0  0  2  0  0  0
  -24.9107  -28.8290   20.0846 C   0  0  0  0  0  0
  -22.7588  -29.4568   22.4681 C   0  0  0  0  0  0
  -18.0332  -28.1366   22.8435 C   0  0  0  0  0  0
  -24.1435  -36.7285   23.2644 C   0  0  0  0  0  0
  -26.0191  -30.6487   21.3776 C   0  0  0  0  0  0
  -26.0804  -29.2555   20.7279 C   0  0  0  0  0  0
  -27.2238  -28.3719   20.7727 C   0  0  0  0  0  0
  -26.0490  -26.7328   19.4584 C   0  0  0  0  0  0
  -24.9047  -27.5796   19.4270 C   0  0  0  0  0  0
  -23.6928  -29.7464   20.1338 C   0  0  0  0  0  0
  -25.4091  -36.3028   24.0314 C   0  0  1  0  0  0
  -20.5940  -28.3793   23.1103 C   0  0  2  0  0  0
  -20.6798  -26.9445   22.5379 C   0  0  0  0  0  0
  -19.5798  -26.6357   21.5172 C   0  0  0  0  0  0
  -18.1966  -26.7906   22.1559 C   0  0  0  0  0  0
  -19.1552  -28.8917   23.2781 C   0  0  0  0  0  0
  -18.9507  -30.1492   23.8877 C   0  0  0  0  0  0
  -17.6495  -30.6571   24.0573 C   0  0  0  0  0  0
  -25.9086  -34.9381   23.4980 C   0  0  0  0  0  0
  -16.5407  -29.9078   23.6252 C   0  0  0  0  0  0
  -16.7333  -28.6463   23.0346 C   0  0  0  0  0  0
  -26.4499  -31.6563   25.0661 C   0  0  0  0  0  0
  -25.3656  -31.3907   26.1401 C   0  0  0  0  0  0
  -27.0436  -30.2957   24.6318 C   0  0  0  0  0  0
  -27.5982  -32.4389   25.7531 C   0  0  0  0  0  0
  -27.5551  -37.1792   24.8459 C   0  0  0  0  0  0
  -21.4286  -29.3056   22.3367 N   0  0  0  0  0  0
  -26.4294  -37.3751   23.9362 N   0  0  0  0  0  0
  -24.7326  -30.9996   22.0748 N   0  0  0  0  0  0
  -23.4178  -28.8044   23.2847 O   0  0  0  0  0  0
  -28.3060  -26.0833   20.3414 O   0  0  0  0  0  0
  -26.5674  -34.8953   22.4547 O   0  0  0  0  0  0
  -23.5633  -32.1319   23.6819 O   0  0  0  0  0  0
  -26.2557  -21.1811   20.4441 C   0  0  0  0  0  0
  -27.3050  -22.7112   18.8998 C   0  0  0  0  0  0
  -26.4174  -21.6195   19.0995 C   0  0  0  0  0  0
  -27.2076  -21.5958   21.3996 C   0  0  0  0  0  0
  -28.1935  -23.1305   19.9224 C   0  0  0  0  0  0
  -28.4468  -22.0069   20.8827 C   0  0  0  0  0  0
  -26.9607  -21.6095   22.9095 C   0  0  0  0  0  0
  -24.4642  -20.1000   18.2732 C   0  0  0  0  0  0
  -25.5535  -20.2209   15.5031 C   0  0  0  0  0  0
  -27.5979  -19.8027   16.9561 C   0  0  0  0  0  0
  -29.5170  -20.7065   20.9932 C   0  0  0  0  0  0
  -28.7481  -24.6894   19.7230 C   0  0  0  0  0  0
  -29.7557  -17.6275   21.0666 C   0  0  0  0  0  0
  -25.5624  -21.1445   17.9147 C   0  0  2  0  0  0
  -26.4110  -20.7415   16.6617 C   0  0  0  0  0  0
  -29.4286  -19.1213   20.3105 C   0  0  2  0  0  0
  -29.8546  -16.2337   20.2956 N   0  0  0  0  0  0
  -30.4342  -19.0977   19.3053 O   0  0  0  0  0  0
  -31.4587  -12.8021   19.2224 H   0  0  0  0  0  0
  -30.4073  -11.6765   20.0562 H   0  0  0  0  0  0
  -29.8677  -11.7586   17.6036 H   0  0  0  0  0  0
  -29.6107  -13.4823   17.6902 H   0  0  0  0  0  0
  -27.9828  -11.2793   19.0453 H   0  0  0  0  0  0
  -27.3572  -12.4053   17.8460 H   0  0  0  0  0  0
  -27.5443  -14.2608   19.3863 H   0  0  0  0  0  0
  -28.7407  -12.3702   21.4918 H   0  0  0  0  0  0
  -28.3221  -14.0657   21.7306 H   0  0  0  0  0  0
  -25.2976   -9.5409   22.4547 H   0  0  0  0  0  0
  -24.0047   -7.4535   22.7683 H   0  0  0  0  0  0
  -21.1372   -8.8530   19.8269 H   0  0  0  0  0  0
  -22.4408  -10.9142   19.5369 H   0  0  0  0  0  0
  -21.1643   -7.5889   23.9979 H   0  0  0  0  0  0
  -21.1618   -6.0049   25.9243 H   0  0  0  0  0  0
  -22.0495   -2.7451   23.2821 H   0  0  0  0  0  0
  -21.0288  -12.9008   22.0930 H   0  0  0  0  0  0
  -22.4690  -12.1430   22.6841 H   0  0  0  0  0  0
  -26.2908  -15.6117   20.1790 H   0  0  0  0  0  0
  -24.6751  -15.8481   20.5185 H   0  0  0  0  0  0
  -26.7365  -32.5150   23.0901 H   0  0  0  0  0  0
  -25.0069  -33.9440   25.0222 H   0  0  0  0  0  0
  -22.7815  -31.2941   21.3326 H   0  0  0  0  0  0
  -23.3656  -35.9655   23.3313 H   0  0  0  0  0  0
  -24.3557  -36.8896   22.2072 H   0  0  0  0  0  0
  -23.7247  -37.6503   23.6662 H   0  0  0  0  0  0
  -26.1882  -31.3627   20.5755 H   0  0  0  0  0  0
  -26.8997  -30.7243   22.0073 H   0  0  0  0  0  0
  -28.0772  -28.6457   21.3733 H   0  0  0  0  0  0
  -25.9764  -25.7585   18.9943 H   0  0  0  0  0  0
  -24.0179  -27.2375   18.8987 H   0  0  0  0  0  0
  -23.7957  -30.5041   19.3581 H   0  0  0  0  0  0
  -22.8108  -29.1814   19.8260 H   0  0  0  0  0  0
  -25.1246  -36.1844   25.0833 H   0  0  0  0  0  0
  -21.0198  -28.3449   24.1178 H   0  0  0  0  0  0
  -20.5486  -26.2506   23.3659 H   0  0  0  0  0  0
  -21.6674  -26.7240   22.1284 H   0  0  0  0  0  0
  -19.6898  -25.6242   21.1250 H   0  0  0  0  0  0
  -19.6692  -27.3138   20.6652 H   0  0  0  0  0  0
  -17.4202  -26.6708   21.3979 H   0  0  0  0  0  0
  -18.0321  -26.0086   22.8978 H   0  0  0  0  0  0
  -19.8023  -30.7266   24.2258 H   0  0  0  0  0  0
  -17.5080  -31.6245   24.5182 H   0  0  0  0  0  0
  -15.5403  -30.2972   23.7637 H   0  0  0  0  0  0
  -15.8748  -28.0797   22.7078 H   0  0  0  0  0  0
  -24.5852  -30.7172   25.7843 H   0  0  0  0  0  0
  -24.8879  -32.3183   26.4570 H   0  0  0  0  0  0
  -25.8023  -30.9347   27.0314 H   0  0  0  0  0  0
  -26.3111  -29.6662   24.1292 H   0  0  0  0  0  0
  -27.4018  -29.7305   25.4931 H   0  0  0  0  0  0
  -27.8981  -30.4233   23.9704 H   0  0  0  0  0  0
  -27.2456  -33.3712   26.1970 H   0  0  0  0  0  0
  -28.3910  -32.6909   25.0473 H   0  0  0  0  0  0
  -28.0472  -31.8587   26.5598 H   0  0  0  0  0  0
  -28.2550  -38.0100   24.7437 H   0  0  0  0  0  0
  -28.1042  -36.2599   24.6291 H   0  0  0  0  0  0
  -27.2281  -37.1489   25.8885 H   0  0  0  0  0  0
  -20.9518  -29.8942   21.6667 H   0  0  0  0  0  0
  -26.0100  -38.2804   24.1357 H   0  0  0  0  0  0
  -25.4068  -20.5979   20.7655 H   0  0  0  0  0  0
  -27.2758  -23.2494   17.9666 H   0  0  0  0  0  0
  -26.6503  -20.6610   23.3349 H   0  0  0  0  0  0
  -26.2153  -22.3751   23.1956 H   0  0  0  0  0  0
  -27.8701  -21.9039   23.4199 H   0  0  0  0  0  0
  -23.7077  -19.9996   17.4898 H   0  0  0  0  0  0
  -23.9271  -20.4044   19.1706 H   0  0  0  0  0  0
  -24.8776  -19.0951   18.4200 H   0  0  0  0  0  0
  -26.1450  -20.1149   14.5921 H   0  0  0  0  0  0
  -24.7182  -20.8933   15.3144 H   0  0  0  0  0  0
  -25.1078  -19.2517   15.7346 H   0  0  0  0  0  0
  -27.9594  -19.3319   16.0426 H   0  0  0  0  0  0
  -27.3164  -19.0120   17.6382 H   0  0  0  0  0  0
  -28.4359  -20.3317   17.4248 H   0  0  0  0  0  0
  -29.4681  -20.4771   22.0704 H   0  0  0  0  0  0
  -30.5504  -21.1054   20.9201 H   0  0  0  0  0  0
  -28.7266  -24.8417   18.6480 H   0  0  0  0  0  0
  -29.8162  -24.6039   19.9346 H   0  0  0  0  0  0
  -28.9824  -17.5094   21.8438 H   0  0  0  0  0  0
  -30.6994  -17.7330   21.6018 H   0  0  0  0  0  0
  -25.0185  -22.0392   17.6103 H   0  0  0  0  0  0
  -26.8653  -21.6498   16.2782 H   0  0  0  0  0  0
  -28.4356  -19.0212   19.8370 H   0  0  0  0  0  0
  -30.2980  -16.5413   19.4357 H   0  0  0  0  0  0
  -31.2921  -19.0640   19.7325 H   0  0  0  0  0  0
  1 25  1  0  0  0
  1 30  2  0  0  0
  1 87  1  0  0  0
  2  3  1  0  0  0
  2 25  1  0  0  0
  2 89  1  0  0  0
  2 90  1  0  0  0
  3  4  1  0  0  0
  3 91  1  0  0  0
  3 92  1  0  0  0
  4  5  1  0  0  0
  4 93  1  0  0  0
  4 94  1  0  0  0
  5  6  1  0  0  0
  5 26  1  0  0  0
  5 95  1  0  0  0
  6 25  1  0  0  0
  6 96  1  0  0  0
  6 97  1  0  0  0
  7  8  2  0  0  0
  7 26  1  0  0  0
  7 29  1  0  0  0
  8  9  1  0  0  0
  8 22  1  0  0  0
  9 10  1  0  0  0
  9 27  2  0  0  0
 10 11  2  0  0  0
 10 15  1  0  0  0
 11 12  1  0  0  0
 11 98  1  0  0  0
 12 13  2  0  0  0
 12 99  1  0  0  0
 13 14  1  0  0  0
 13 31  1  0  0  0
 14 15  2  0  0  0
 14100  1  0  0  0
 15101  1  0  0  0
 16 17  2  0  0  0
 16 21  1  0  0  0
 16 31  1  0  0  0
 17 18  1  0  0  0
 17102  1  0  0  0
 18 19  2  0  0  0
 18103  1  0  0  0
 19 20  1  0  0  0
 19 24  1  0  0  0
 20 21  2  0  0  0
 20104  1  0  0  0
 21 23  1  0  0  0
 22 28  1  0  0  0
 22 32  2  0  0  0
 26 27  1  0  0  0
 28105  1  0  0  0
 28106  1  0  0  0
 29107  1  0  0  0
 29108  1  0  0  0
 33 34  1  0  0  0
 33 66  1  0  0  0
 33 70  2  0  0  0
 34 36  1  0  0  0
 34 59  1  0  0  0
 34109  1  0  0  0
 35 44  2  0  0  0
 35 45  1  0  0  0
 35 68  1  0  0  0
 36 56  1  0  0  0
 36110  1  0  0  0
 37 39  1  0  0  0
 37 47  1  0  0  0
 37 66  1  0  0  0
 37111  1  0  0  0
 38 43  2  0  0  0
 38 46  1  0  0  0
 38 47  1  0  0  0
 39 64  1  0  0  0
 39 67  2  0  0  0
 40 52  1  0  0  0
 40 53  2  0  0  0
 40 58  1  0  0  0
 41112  1  0  0  0
 41113  1  0  0  0
 41114  1  0  0  0
 41 48  1  0  0  0
 42 43  1  0  0  0
 42 66  1  0  0  0
 42115  1  0  0  0
 42116  1  0  0  0
 43 44  1  0  0  0
 44117  1  0  0  0
 45 46  2  0  0  0
 45118  1  0  0  0
 46119  1  0  0  0
 47120  1  0  0  0
 47121  1  0  0  0
 48 56  1  0  0  0
 48 65  1  0  0  0
 48122  1  0  0  0
 49 50  1  0  0  0
 49 53  1  0  0  0
 49 64  1  0  0  0
 49123  1  0  0  0
 50 51  1  0  0  0
 50124  1  0  0  0
 50125  1  0  0  0
 51 52  1  0  0  0
 51126  1  0  0  0
 51127  1  0  0  0
 52128  1  0  0  0
 52129  1  0  0  0
 53 54  1  0  0  0
 54 55  2  0  0  0
 54130  1  0  0  0
 55 57  1  0  0  0
 55131  1  0  0  0
 56 69  2  0  0  0
 57 58  2  0  0  0
 57132  1  0  0  0
 58133  1  0  0  0
 59 60  1  0  0  0
 59 61  1  0  0  0
 59 62  1  0  0  0
 60134  1  0  0  0
 60135  1  0  0  0
 60136  1  0  0  0
 61137  1  0  0  0
 61138  1  0  0  0
 61139  1  0  0  0
 62140  1  0  0  0
 62141  1  0  0  0
 62142  1  0  0  0
 63 65  1  0  0  0
 63143  1  0  0  0
 63144  1  0  0  0
 63145  1  0  0  0
 64146  1  0  0  0
 65147  1  0  0  0
 68 82  1  0  0  0
 71 73  2  0  0  0
 71 74  1  0  0  0
 71148  1  0  0  0
 72 73  1  0  0  0
 72 75  2  0  0  0
 72149  1  0  0  0
 73 84  1  0  0  0
 74 76  2  0  0  0
 74 77  1  0  0  0
 75 76  1  0  0  0
 75 82  1  0  0  0
 76 81  1  0  0  0
 77150  1  0  0  0
 77151  1  0  0  0
 77152  1  0  0  0
 78153  1  0  0  0
 78154  1  0  0  0
 78155  1  0  0  0
 78 84  1  0  0  0
 79156  1  0  0  0
 79157  1  0  0  0
 79158  1  0  0  0
 79 85  1  0  0  0
 80 85  1  0  0  0
 80159  1  0  0  0
 80160  1  0  0  0
 80161  1  0  0  0
 81 86  1  0  0  0
 81162  1  0  0  0
 81163  1  0  0  0
 82164  1  0  0  0
 82165  1  0  0  0
 83 86  1  0  0  0
 83 87  1  0  0  0
 83166  1  0  0  0
 83167  1  0  0  0
 84 85  1  0  0  0
 84168  1  0  0  0
 85169  1  0  0  0
 86 88  1  0  0  0
 86170  1  0  0  0
 87171  1  0  0  0
 88172  1  0  0  0
M  ISO  4   1 100  68 101  82 101  87 100
M  END
> <chiral flag>
0

> <version>
0

> <s_m_source_file>
/data/baiqing/PycharmProjects/Reinvent-master-3.2/result/LINK_invent/BTK/process_docking_weight1_custom_sum_contain_oxygen_bond_distance_aromatic_linkinvent_7_9_3/rearranged_h_0102.sdf

> <i_m_source_file_index>
33

> <r_mmod_Potential_Energy-OPLS-2005>
1124.06457519531

> <r_mmod_Stretch_Energy-OPLS-2005>
350.114318847656

> <r_mmod_Bend_Energy-OPLS-2005>
474.090942382812

> <r_mmod_Torsional_Energy-OPLS-2005>
551.9462890625

> <r_mmod_Improper_Torsional_Energy-OPLS-2005>
35.1406707763672

> <r_mmod_Van_der_Waal_Energy-OPLS-2005>
122.952026367188

> <r_mmod_Electrostatic_Energy-OPLS-2005>
-466.429016113281

> <r_mmod_Solvation_Energy-OPLS-2005>
-207.954452514648

> <b_mmod_Minimization_Converged-OPLS-2005>
0

> <r_mmod_RMS_Derivative-OPLS-2005>
23.2149181365967

$$$$
33
                    3D
 Structure written by MMmdl.
161169  0  0  1  0            999 V2000
  -30.6064  -14.7349   20.3778 C   0  0  0  0  0  0
  -30.4455  -12.4164   19.4695 C   0  0  0  0  0  0
  -29.5176  -12.3867   18.2346 C   0  0  0  0  0  0
  -28.0310  -12.2931   18.6497 C   0  0  0  0  0  0
  -27.6373  -13.2099   19.8416 C   0  0  2  0  0  0
  -28.6939  -13.1766   20.9646 C   0  0  0  0  0  0
  -25.2539  -13.8142   20.5735 C   0  0  0  0  0  0
  -24.1801  -13.0415   20.9234 C   0  0  0  0  0  0
  -24.6358  -11.6887   20.8783 C   0  0  0  0  0  0
  -23.9019  -10.4280   21.0433 C   0  0  0  0  0  0
  -24.3585   -9.4198   21.9198 C   0  0  0  0  0  0
  -23.6274   -8.2224   22.0748 C   0  0  0  0  0  0
  -22.4263   -8.0256   21.3522 C   0  0  0  0  0  0
  -21.9881   -9.0233   20.4630 C   0  0  0  0  0  0
  -22.7203  -10.2124   20.3065 C   0  0  0  0  0  0
  -21.6848   -6.0723   22.5273 C   0  0  0  0  0  0
  -21.4007   -6.5636   23.8207 C   0  0  0  0  0  0
  -21.3666   -5.6790   24.9171 C   0  0  0  0  0  0
  -21.6048   -4.3053   24.7227 C   0  0  0  0  0  0
  -21.8817   -3.8137   23.4351 C   0  0  0  0  0  0
  -21.9189   -4.6950   22.3405 C   0  0  0  0  0  0
  -22.7825  -13.5217   21.1873 C   0  0  0  0  0  0
  -22.1659   -4.2134   21.0982 F   0  0  0  0  0  0
  -21.5633   -3.4544   25.7744 F   0  0  0  0  0  0
  -29.9874  -13.5069   20.3535 N   0  0  0  0  0  0
  -26.2928  -12.9287   20.3315 N   0  0  0  0  0  0
  -25.9278  -11.6456   20.5806 N   0  0  0  0  0  0
  -22.0443  -12.8231   22.0430 N   0  0  0  0  0  0
  -25.4251  -15.1872   20.4184 N   0  0  0  0  0  0
  -31.8311  -14.8215   20.2515 O   0  0  0  0  0  0
  -21.6625   -6.8854   21.4228 O   0  0  0  0  0  0
  -22.3520  -14.5511   20.6695 O   0  0  0  0  0  0
  -24.6265  -31.8580   23.1995 C   0  0  0  0  0  0
  -25.9110  -32.4771   23.8337 C   0  0  1  0  0  0
  -27.2281  -27.3056   20.1376 C   0  0  0  0  0  0
  -25.5919  -33.8574   24.2268 N   0  0  0  0  0  0
  -23.4216  -30.4794   21.5412 C   0  0  2  0  0  0
  -24.8705  -28.9236   20.1179 C   0  0  0  0  0  0
  -22.7472  -29.4622   22.4925 C   0  0  0  0  0  0
  -18.0288  -28.1387   22.8484 C   0  0  0  0  0  0
  -24.1491  -36.7291   23.2639 C   0  0  0  0  0  0
  -25.9622  -30.7878   21.3695 C   0  0  0  0  0  0
  -26.0391  -29.4104   20.7184 C   0  0  0  0  0  0
  -27.2244  -28.6154   20.7114 C   0  0  0  0  0  0
  -26.0382  -26.8647   19.5237 C   0  0  0  0  0  0
  -24.8716  -27.6562   19.5111 C   0  0  0  0  0  0
  -23.6387  -29.8067   20.1597 C   0  0  0  0  0  0
  -25.4118  -36.3080   24.0326 C   0  0  1  0  0  0
  -20.5887  -28.3695   23.1276 C   0  0  2  0  0  0
  -20.6781  -26.9418   22.5408 C   0  0  0  0  0  0
  -19.5761  -26.6385   21.5211 C   0  0  0  0  0  0
  -18.1936  -26.7930   22.1620 C   0  0  0  0  0  0
  -19.1538  -28.8856   23.2877 C   0  0  0  0  0  0
  -18.9462  -30.1458   23.8900 C   0  0  0  0  0  0
  -17.6459  -30.6589   24.0563 C   0  0  0  0  0  0
  -25.9049  -34.9448   23.5101 C   0  0  0  0  0  0
  -16.5353  -29.9089   23.6325 C   0  0  0  0  0  0
  -16.7273  -28.6505   23.0352 C   0  0  0  0  0  0
  -26.4498  -31.6583   25.0710 C   0  0  0  0  0  0
  -25.3734  -31.3723   26.1439 C   0  0  0  0  0  0
  -27.0335  -30.3004   24.6165 C   0  0  0  0  0  0
  -27.6050  -32.4322   25.7489 C   0  0  0  0  0  0
  -27.5582  -37.1802   24.8466 C   0  0  0  0  0  0
  -21.4182  -29.3046   22.3667 N   0  0  0  0  0  0
  -26.4297  -37.3774   23.9406 N   0  0  0  0  0  0
  -24.6892  -31.0588   22.0942 N   0  0  0  0  0  0
  -23.4187  -28.8168   23.3018 O   0  0  0  0  0  0
  -28.3503  -26.4643   20.1317 O   0  0  0  0  0  0
  -26.5620  -34.8919   22.4669 O   0  0  0  0  0  0
  -23.5426  -32.1378   23.7321 O   0  0  0  0  0  0
  -29.1605  -22.4004   22.0898 C   0  0  0  0  0  0
  -29.2612  -21.1555   20.0447 C   0  0  0  0  0  0
  -29.4995  -21.2003   22.7492 C   0  0  0  0  0  0
  -29.0398  -22.4351   20.6844 C   0  0  0  0  0  0
  -29.5913  -19.9605   20.7855 C   0  0  0  0  0  0
  -27.8631  -23.5736   18.6936 C   0  0  0  0  0  0
  -31.4644  -18.6830   19.6413 C   0  0  0  0  0  0
  -29.3380  -16.0452   18.7765 C   0  0  0  0  0  0
  -29.7900  -17.1895   20.9052 C   0  0  0  0  0  0
  -28.2363  -25.0986   20.7161 C   0  0  0  0  0  0
  -28.7719  -23.8072   19.9125 C   0  0  1  0  0  0
  -30.0030  -18.5890   20.1094 C   0  0  1  0  0  0
  -29.7335  -20.0235   22.1245 N   0  0  0  0  0  0
  -29.8094  -15.8562   20.1556 N   0  0  0  0  0  0
  -31.4816  -12.5526   19.1559 H   0  0  0  0  0  0
  -30.4120  -11.4626   19.9990 H   0  0  0  0  0  0
  -29.7670  -11.5214   17.6183 H   0  0  0  0  0  0
  -29.7057  -13.2390   17.5868 H   0  0  0  0  0  0
  -27.8567  -11.2536   18.9293 H   0  0  0  0  0  0
  -27.3846  -12.4843   17.7930 H   0  0  0  0  0  0
  -27.5977  -14.2201   19.4504 H   0  0  0  0  0  0
  -28.7320  -12.1953   21.4378 H   0  0  0  0  0  0
  -28.4442  -13.8941   21.7486 H   0  0  0  0  0  0
  -25.2724   -9.5701   22.4777 H   0  0  0  0  0  0
  -23.9990   -7.4623   22.7473 H   0  0  0  0  0  0
  -21.0806   -8.8757   19.8925 H   0  0  0  0  0  0
  -22.3657  -10.9669   19.6187 H   0  0  0  0  0  0
  -21.1989   -7.6140   23.9719 H   0  0  0  0  0  0
  -21.1493   -6.0509   25.9076 H   0  0  0  0  0  0
  -22.0585   -2.7594   23.2864 H   0  0  0  0  0  0
  -22.4031  -11.9923   22.4904 H   0  0  0  0  0  0
  -21.1040  -13.1250   22.2547 H   0  0  0  0  0  0
  -24.6645  -15.8454   20.5473 H   0  0  0  0  0  0
  -26.2887  -15.6320   20.1346 H   0  0  0  0  0  0
  -26.7177  -32.5445   23.1086 H   0  0  0  0  0  0
  -25.0078  -33.9722   25.0421 H   0  0  0  0  0  0
  -22.7157  -31.2994   21.3929 H   0  0  0  0  0  0
  -23.3749  -35.9627   23.3306 H   0  0  0  0  0  0
  -24.3575  -36.8906   22.2050 H   0  0  0  0  0  0
  -23.7247  -37.6497   23.6656 H   0  0  0  0  0  0
  -26.0904  -31.5474   20.5973 H   0  0  0  0  0  0
  -26.8435  -30.8421   21.9974 H   0  0  0  0  0  0
  -28.1257  -28.9878   21.1775 H   0  0  0  0  0  0
  -26.0039  -25.8904   19.0584 H   0  0  0  0  0  0
  -23.9751  -27.2753   19.0419 H   0  0  0  0  0  0
  -23.7611  -30.5788   19.3994 H   0  0  0  0  0  0
  -22.7588  -29.2357   19.8577 H   0  0  0  0  0  0
  -25.1299  -36.1932   25.0817 H   0  0  0  0  0  0
  -20.9986  -28.3282   24.1395 H   0  0  0  0  0  0
  -20.5685  -26.2311   23.3612 H   0  0  0  0  0  0
  -21.6649  -26.7455   22.1201 H   0  0  0  0  0  0
  -19.6926  -25.6294   21.1249 H   0  0  0  0  0  0
  -19.6699  -27.3189   20.6736 H   0  0  0  0  0  0
  -17.4207  -26.6673   21.4021 H   0  0  0  0  0  0
  -18.0340  -26.0072   22.9017 H   0  0  0  0  0  0
  -19.7937  -30.7272   24.2273 H   0  0  0  0  0  0
  -17.5016  -31.6270   24.5165 H   0  0  0  0  0  0
  -15.5354  -30.2995   23.7647 H   0  0  0  0  0  0
  -15.8673  -28.0825   22.7069 H   0  0  0  0  0  0
  -24.5909  -30.7073   25.7770 H   0  0  0  0  0  0
  -24.8932  -32.2890   26.4865 H   0  0  0  0  0  0
  -25.8065  -30.8901   27.0211 H   0  0  0  0  0  0
  -26.2904  -29.6756   24.1196 H   0  0  0  0  0  0
  -27.4032  -29.7260   25.4669 H   0  0  0  0  0  0
  -27.8774  -30.4281   23.9383 H   0  0  0  0  0  0
  -27.2650  -33.3616   26.2069 H   0  0  0  0  0  0
  -28.3865  -32.6891   25.0327 H   0  0  0  0  0  0
  -28.0714  -31.8448   26.5408 H   0  0  0  0  0  0
  -28.2601  -38.0098   24.7501 H   0  0  0  0  0  0
  -28.1075  -36.2624   24.6306 H   0  0  0  0  0  0
  -27.2295  -37.1469   25.8869 H   0  0  0  0  0  0
  -20.9363  -29.8762   21.6868 H   0  0  0  0  0  0
  -26.0176  -38.2851   24.1399 H   0  0  0  0  0  0
  -29.0256  -23.2874   22.6901 H   0  0  0  0  0  0
  -29.2254  -21.0865   18.9669 H   0  0  0  0  0  0
  -29.6103  -21.1902   23.8233 H   0  0  0  0  0  0
  -28.2979  -22.8648   17.9909 H   0  0  0  0  0  0
  -27.6989  -24.5005   18.1444 H   0  0  0  0  0  0
  -26.8891  -23.1906   18.9996 H   0  0  0  0  0  0
  -31.6088  -19.5381   18.9811 H   0  0  0  0  0  0
  -31.7791  -17.7929   19.0980 H   0  0  0  0  0  0
  -32.1395  -18.8040   20.4883 H   0  0  0  0  0  0
  -28.3975  -16.5954   18.7580 H   0  0  0  0  0  0
  -29.1499  -15.1203   18.2473 H   0  0  0  0  0  0
  -30.0721  -16.5815   18.1763 H   0  0  0  0  0  0
  -28.8130  -17.2329   21.3882 H   0  0  0  0  0  0
  -30.5053  -17.1426   21.7273 H   0  0  0  0  0  0
  -28.8170  -25.1768   21.6339 H   0  0  0  0  0  0
  -27.2156  -24.9099   21.0497 H   0  0  0  0  0  0
  -29.7528  -24.0901   19.5295 H   0  0  0  0  0  0
  -29.3759  -18.5739   19.2195 H   0  0  0  0  0  0
  1 25  1  0  0  0
  1 30  2  0  0  0
  1 84  1  0  0  0
  2  3  1  0  0  0
  2 25  1  0  0  0
  2 85  1  0  0  0
  2 86  1  0  0  0
  3  4  1  0  0  0
  3 87  1  0  0  0
  3 88  1  0  0  0
  4  5  1  0  0  0
  4 89  1  0  0  0
  4 90  1  0  0  0
  5  6  1  0  0  0
  5 26  1  0  0  0
  5 91  1  0  0  0
  6 25  1  0  0  0
  6 92  1  0  0  0
  6 93  1  0  0  0
  7  8  2  0  0  0
  7 26  1  0  0  0
  7 29  1  0  0  0
  8  9  1  0  0  0
  8 22  1  0  0  0
  9 10  1  0  0  0
  9 27  2  0  0  0
 10 11  2  0  0  0
 10 15  1  0  0  0
 11 12  1  0  0  0
 11 94  1  0  0  0
 12 13  2  0  0  0
 12 95  1  0  0  0
 13 14  1  0  0  0
 13 31  1  0  0  0
 14 15  2  0  0  0
 14 96  1  0  0  0
 15 97  1  0  0  0
 16 17  2  0  0  0
 16 21  1  0  0  0
 16 31  1  0  0  0
 17 18  1  0  0  0
 17 98  1  0  0  0
 18 19  2  0  0  0
 18 99  1  0  0  0
 19 20  1  0  0  0
 19 24  1  0  0  0
 20 21  2  0  0  0
 20100  1  0  0  0
 21 23  1  0  0  0
 22 28  1  0  0  0
 22 32  2  0  0  0
 26 27  1  0  0  0
 28101  1  0  0  0
 28102  1  0  0  0
 29103  1  0  0  0
 29104  1  0  0  0
 33 34  1  0  0  0
 33 66  1  0  0  0
 33 70  2  0  0  0
 34 36  1  0  0  0
 34 59  1  0  0  0
 34105  1  0  0  0
 35 44  2  0  0  0
 35 45  1  0  0  0
 35 68  1  0  0  0
 36 56  1  0  0  0
 36106  1  0  0  0
 37 39  1  0  0  0
 37 47  1  0  0  0
 37 66  1  0  0  0
 37107  1  0  0  0
 38 43  2  0  0  0
 38 46  1  0  0  0
 38 47  1  0  0  0
 39 64  1  0  0  0
 39 67  2  0  0  0
 40 52  1  0  0  0
 40 53  2  0  0  0
 40 58  1  0  0  0
 41108  1  0  0  0
 41109  1  0  0  0
 41110  1  0  0  0
 41 48  1  0  0  0
 42 43  1  0  0  0
 42 66  1  0  0  0
 42111  1  0  0  0
 42112  1  0  0  0
 43 44  1  0  0  0
 44113  1  0  0  0
 45 46  2  0  0  0
 45114  1  0  0  0
 46115  1  0  0  0
 47116  1  0  0  0
 47117  1  0  0  0
 48 56  1  0  0  0
 48 65  1  0  0  0
 48118  1  0  0  0
 49 50  1  0  0  0
 49 53  1  0  0  0
 49 64  1  0  0  0
 49119  1  0  0  0
 50 51  1  0  0  0
 50120  1  0  0  0
 50121  1  0  0  0
 51 52  1  0  0  0
 51122  1  0  0  0
 51123  1  0  0  0
 52124  1  0  0  0
 52125  1  0  0  0
 53 54  1  0  0  0
 54 55  2  0  0  0
 54126  1  0  0  0
 55 57  1  0  0  0
 55127  1  0  0  0
 56 69  2  0  0  0
 57 58  2  0  0  0
 57128  1  0  0  0
 58129  1  0  0  0
 59 60  1  0  0  0
 59 61  1  0  0  0
 59 62  1  0  0  0
 60130  1  0  0  0
 60131  1  0  0  0
 60132  1  0  0  0
 61133  1  0  0  0
 61134  1  0  0  0
 61135  1  0  0  0
 62136  1  0  0  0
 62137  1  0  0  0
 62138  1  0  0  0
 63 65  1  0  0  0
 63139  1  0  0  0
 63140  1  0  0  0
 63141  1  0  0  0
 64142  1  0  0  0
 65143  1  0  0  0
 68 80  1  0  0  0
 71 73  2  0  0  0
 71 74  1  0  0  0
 71144  1  0  0  0
 72 74  2  0  0  0
 72 75  1  0  0  0
 72145  1  0  0  0
 73 83  1  0  0  0
 73146  1  0  0  0
 74 81  1  0  0  0
 75 82  1  0  0  0
 75 83  2  0  0  0
 76147  1  0  0  0
 76148  1  0  0  0
 76149  1  0  0  0
 76 81  1  0  0  0
 77150  1  0  0  0
 77151  1  0  0  0
 77152  1  0  0  0
 77 82  1  0  0  0
 78 84  1  0  0  0
 78153  1  0  0  0
 78154  1  0  0  0
 78155  1  0  0  0
 79 82  1  0  0  0
 79 84  1  0  0  0
 79156  1  0  0  0
 79157  1  0  0  0
 80 81  1  0  0  0
 80158  1  0  0  0
 80159  1  0  0  0
 81160  1  0  0  0
 82161  1  0  0  0
M  ISO  4   1 100  68 101  80 101  84 100
M  END
> <chiral flag>
0

> <version>
0

> <s_m_source_file>
/data/baiqing/PycharmProjects/Reinvent-master-3.2/result/LINK_invent/BTK/process_docking_weight1_custom_sum_contain_oxygen_bond_distance_aromatic_linkinvent_7_9_3/rearranged_h_0102.sdf

> <i_m_source_file_index>
34

> <r_mmod_Potential_Energy-OPLS-2005>
173.818649291992

> <r_mmod_Stretch_Energy-OPLS-2005>
108.293754577637

> <r_mmod_Bend_Energy-OPLS-2005>
154.105239868164

> <r_mmod_Torsional_Energy-OPLS-2005>
332.976959228516

> <r_mmod_Improper_Torsional_Energy-OPLS-2005>
12.693115234375

> <r_mmod_Van_der_Waal_Energy-OPLS-2005>
143.023803710938

> <r_mmod_Electrostatic_Energy-OPLS-2005>
-454.432464599609

> <r_mmod_Solvation_Energy-OPLS-2005>
-202.878540039062

> <b_mmod_Minimization_Converged-OPLS-2005>
0

> <r_mmod_RMS_Derivative-OPLS-2005>
1.48244667053223

$$$$
34
                    3D
 Structure written by MMmdl.
155163  0  0  1  0            999 V2000
  -30.4312  -15.2001   20.3778 C   0  0  0  0  0  0
  -30.4482  -12.7588   19.5174 C   0  0  0  0  0  0
  -29.5361  -12.5677   18.2791 C   0  0  0  0  0  0
  -28.0797  -12.3035   18.7034 C   0  0  0  0  0  0
  -27.6183  -13.2646   19.8272 C   0  0  2  0  0  0
  -28.6559  -13.3910   20.9630 C   0  0  0  0  0  0
  -25.2417  -13.8229   20.5718 C   0  0  0  0  0  0
  -24.1764  -13.0433   20.9263 C   0  0  0  0  0  0
  -24.6404  -11.6927   20.8769 C   0  0  0  0  0  0
  -23.9092  -10.4291   21.0414 C   0  0  0  0  0  0
  -24.3636   -9.4203   21.9190 C   0  0  0  0  0  0
  -23.6304   -8.2242   22.0757 C   0  0  0  0  0  0
  -22.4285   -8.0284   21.3547 C   0  0  0  0  0  0
  -21.9928   -9.0260   20.4647 C   0  0  0  0  0  0
  -22.7265  -10.2135   20.3059 C   0  0  0  0  0  0
  -21.6853   -6.0739   22.5280 C   0  0  0  0  0  0
  -21.4015   -6.5642   23.8215 C   0  0  0  0  0  0
  -21.3660   -5.6793   24.9176 C   0  0  0  0  0  0
  -21.6043   -4.3055   24.7225 C   0  0  0  0  0  0
  -21.8819   -3.8149   23.4347 C   0  0  0  0  0  0
  -21.9193   -4.6966   22.3403 C   0  0  0  0  0  0
  -22.7782  -13.5196   21.1907 C   0  0  0  0  0  0
  -22.1661   -4.2153   21.0980 F   0  0  0  0  0  0
  -21.5628   -3.4539   25.7738 F   0  0  0  0  0  0
  -29.8982  -13.8858   20.3480 N   0  0  0  0  0  0
  -26.2841  -12.9485   20.3207 N   0  0  0  0  0  0
  -25.9337  -11.6603   20.5721 N   0  0  0  0  0  0
  -22.0429  -12.8180   22.0456 N   0  0  0  0  0  0
  -25.4031  -15.1960   20.4098 N   0  0  0  0  0  0
  -31.6503  -15.2449   20.1497 O   0  0  0  0  0  0
  -21.6642   -6.8886   21.4244 O   0  0  0  0  0  0
  -22.3467  -14.5497   20.6742 O   0  0  0  0  0  0
  -24.6589  -31.8279   23.1736 C   0  0  0  0  0  0
  -25.9290  -32.4608   23.8186 C   0  0  1  0  0  0
  -27.2196  -26.9725   20.1805 C   0  0  0  0  0  0
  -25.5974  -33.8421   24.2093 N   0  0  0  0  0  0
  -23.4712  -30.4400   21.5224 C   0  0  2  0  0  0
  -24.9241  -28.8349   20.1127 C   0  0  0  0  0  0
  -22.7647  -29.4456   22.4802 C   0  0  0  0  0  0
  -18.0317  -28.1404   22.8466 C   0  0  0  0  0  0
  -24.1494  -36.7216   23.2646 C   0  0  0  0  0  0
  -26.0374  -30.6498   21.3963 C   0  0  0  0  0  0
  -26.1069  -29.2434   20.7416 C   0  0  0  0  0  0
  -27.2519  -28.3335   20.7491 C   0  0  0  0  0  0
  -26.0090  -26.7063   19.5030 C   0  0  0  0  0  0
  -24.8977  -27.5854   19.4733 C   0  0  0  0  0  0
  -23.7085  -29.7578   20.1476 C   0  0  0  0  0  0
  -25.4130  -36.2978   24.0301 C   0  0  1  0  0  0
  -20.5940  -28.3743   23.1197 C   0  0  2  0  0  0
  -20.6796  -26.9429   22.5403 C   0  0  0  0  0  0
  -19.5772  -26.6377   21.5210 C   0  0  0  0  0  0
  -18.1952  -26.7939   22.1619 C   0  0  0  0  0  0
  -19.1578  -28.8893   23.2818 C   0  0  0  0  0  0
  -18.9492  -30.1486   23.8851 C   0  0  0  0  0  0
  -17.6486  -30.6597   24.0552 C   0  0  0  0  0  0
  -25.9094  -34.9361   23.5016 C   0  0  0  0  0  0
  -16.5377  -29.9085   23.6340 C   0  0  0  0  0  0
  -16.7301  -28.6506   23.0357 C   0  0  0  0  0  0
  -26.4554  -31.6537   25.0698 C   0  0  0  0  0  0
  -25.3688  -31.3779   26.1359 C   0  0  0  0  0  0
  -27.0439  -30.2907   24.6402 C   0  0  0  0  0  0
  -27.6053  -32.4339   25.7498 C   0  0  0  0  0  0
  -27.5570  -37.1764   24.8466 C   0  0  0  0  0  0
  -21.4322  -29.3040   22.3551 N   0  0  0  0  0  0
  -26.4280  -37.3709   23.9407 N   0  0  0  0  0  0
  -24.7434  -30.9985   22.0849 N   0  0  0  0  0  0
  -23.4213  -28.8025   23.3029 O   0  0  0  0  0  0
  -28.2393  -25.8970   20.2462 O   0  0  0  0  0  0
  -26.5702  -34.8892   22.4611 O   0  0  0  0  0  0
  -23.5668  -32.1229   23.6857 O   0  0  0  0  0  0
  -28.2750  -18.7309   20.3816 C   0  0  0  0  0  0
  -30.3559  -20.3657   20.3166 C   0  0  0  0  0  0
  -28.0718  -20.2019   20.3320 C   0  0  0  0  0  0
  -29.1408  -21.1865   20.3186 C   0  0  0  0  0  0
  -29.5341  -17.9953   20.3958 C   0  0  0  0  0  0
  -26.6397  -20.6932   20.2772 C   0  0  0  0  0  0
  -30.1700  -23.3595   21.3761 C   0  0  0  0  0  0
  -27.0908  -24.0918   21.5143 C   0  0  0  0  0  0
  -29.1659  -22.9389   20.2881 C   0  0  2  0  0  0
  -27.9918  -24.2778   20.2839 C   0  0  2  0  0  0
  -30.5422  -18.9524   20.3510 N   0  0  0  0  0  0
  -29.5727  -16.3912   20.4690 N   0  0  0  0  0  0
  -31.4673  -12.9668   19.1886 H   0  0  0  0  0  0
  -30.5092  -11.8392   20.1017 H   0  0  0  0  0  0
  -29.9021  -11.7478   17.6597 H   0  0  0  0  0  0
  -29.5769  -13.4636   17.6577 H   0  0  0  0  0  0
  -28.0223  -11.2737   19.0577 H   0  0  0  0  0  0
  -27.4124  -12.3695   17.8433 H   0  0  0  0  0  0
  -27.5477  -14.2423   19.3499 H   0  0  0  0  0  0
  -28.8070  -12.4380   21.4726 H   0  0  0  0  0  0
  -28.3084  -14.0946   21.7212 H   0  0  0  0  0  0
  -25.2778   -9.5676   22.4771 H   0  0  0  0  0  0
  -24.0007   -7.4632   22.7476 H   0  0  0  0  0  0
  -21.0860   -8.8789   19.8949 H   0  0  0  0  0  0
  -22.3729  -10.9680   19.6170 H   0  0  0  0  0  0
  -21.2007   -7.6150   23.9720 H   0  0  0  0  0  0
  -21.1481   -6.0522   25.9080 H   0  0  0  0  0  0
  -22.0596   -2.7612   23.2845 H   0  0  0  0  0  0
  -22.4052  -11.9847   22.4846 H   0  0  0  0  0  0
  -21.1039  -13.1194   22.2647 H   0  0  0  0  0  0
  -24.6183  -15.8324   20.4996 H   0  0  0  0  0  0
  -26.2107  -15.6269   19.9816 H   0  0  0  0  0  0
  -26.7360  -32.5163   23.0905 H   0  0  0  0  0  0
  -25.0070  -33.9501   25.0208 H   0  0  0  0  0  0
  -22.7816  -31.2697   21.3547 H   0  0  0  0  0  0
  -23.3765  -35.9541   23.3291 H   0  0  0  0  0  0
  -24.3568  -36.8879   22.2065 H   0  0  0  0  0  0
  -23.7250  -37.6400   23.6711 H   0  0  0  0  0  0
  -26.2108  -31.3939   20.6176 H   0  0  0  0  0  0
  -26.8998  -30.7064   22.0486 H   0  0  0  0  0  0
  -28.1502  -28.6456   21.2632 H   0  0  0  0  0  0
  -25.8909  -25.7517   19.0122 H   0  0  0  0  0  0
  -23.9983  -27.2671   18.9638 H   0  0  0  0  0  0
  -23.8609  -30.5273   19.3899 H   0  0  0  0  0  0
  -22.8193  -29.2095   19.8317 H   0  0  0  0  0  0
  -25.1327  -36.1779   25.0793 H   0  0  0  0  0  0
  -21.0022  -28.3355   24.1323 H   0  0  0  0  0  0
  -20.5674  -26.2362   23.3641 H   0  0  0  0  0  0
  -21.6660  -26.7408   22.1210 H   0  0  0  0  0  0
  -19.6928  -25.6276   21.1269 H   0  0  0  0  0  0
  -19.6714  -27.3163   20.6721 H   0  0  0  0  0  0
  -17.4219  -26.6681   21.4026 H   0  0  0  0  0  0
  -18.0348  -26.0090   22.9023 H   0  0  0  0  0  0
  -19.7969  -30.7309   24.2205 H   0  0  0  0  0  0
  -17.5042  -31.6271   24.5166 H   0  0  0  0  0  0
  -15.5375  -30.2972   23.7694 H   0  0  0  0  0  0
  -15.8702  -28.0812   22.7093 H   0  0  0  0  0  0
  -24.5894  -30.7096   25.7679 H   0  0  0  0  0  0
  -24.8842  -32.2976   26.4650 H   0  0  0  0  0  0
  -25.7928  -30.9046   27.0223 H   0  0  0  0  0  0
  -26.3092  -29.6594   24.1391 H   0  0  0  0  0  0
  -27.3968  -29.7257   25.5040 H   0  0  0  0  0  0
  -27.9039  -30.4094   23.9807 H   0  0  0  0  0  0
  -27.2628  -33.3689   26.1941 H   0  0  0  0  0  0
  -28.3933  -32.6817   25.0374 H   0  0  0  0  0  0
  -28.0641  -31.8549   26.5521 H   0  0  0  0  0  0
  -28.2569  -38.0074   24.7501 H   0  0  0  0  0  0
  -28.1081  -36.2600   24.6307 H   0  0  0  0  0  0
  -27.2283  -37.1422   25.8867 H   0  0  0  0  0  0
  -20.9570  -29.8738   21.6691 H   0  0  0  0  0  0
  -26.0133  -38.2771   24.1412 H   0  0  0  0  0  0
  -27.3777  -18.1273   20.4031 H   0  0  0  0  0  0
  -31.2984  -20.8903   20.2793 H   0  0  0  0  0  0
  -26.0017  -19.9763   19.7596 H   0  0  0  0  0  0
  -26.5660  -21.6382   19.7400 H   0  0  0  0  0  0
  -26.2444  -20.8281   21.2837 H   0  0  0  0  0  0
  -31.1538  -22.9177   21.2265 H   0  0  0  0  0  0
  -29.8183  -23.0670   22.3657 H   0  0  0  0  0  0
  -30.3140  -24.4404   21.3871 H   0  0  0  0  0  0
  -26.1613  -24.6528   21.4269 H   0  0  0  0  0  0
  -27.5966  -24.4286   22.4187 H   0  0  0  0  0  0
  -26.8249  -23.0488   21.6648 H   0  0  0  0  0  0
  -29.6809  -23.1079   19.3415 H   0  0  0  0  0  0
  -27.3771  -24.0796   19.4058 H   0  0  0  0  0  0
  -28.6362  -16.0472   20.6020 H   0  0  0  0  0  0
  1 25  1  0  0  0
  1 30  2  0  0  0
  1 82  1  0  0  0
  2  3  1  0  0  0
  2 25  1  0  0  0
  2 83  1  0  0  0
  2 84  1  0  0  0
  3  4  1  0  0  0
  3 85  1  0  0  0
  3 86  1  0  0  0
  4  5  1  0  0  0
  4 87  1  0  0  0
  4 88  1  0  0  0
  5  6  1  0  0  0
  5 26  1  0  0  0
  5 89  1  0  0  0
  6 25  1  0  0  0
  6 90  1  0  0  0
  6 91  1  0  0  0
  7  8  2  0  0  0
  7 26  1  0  0  0
  7 29  1  0  0  0
  8  9  1  0  0  0
  8 22  1  0  0  0
  9 10  1  0  0  0
  9 27  2  0  0  0
 10 11  2  0  0  0
 10 15  1  0  0  0
 11 12  1  0  0  0
 11 92  1  0  0  0
 12 13  2  0  0  0
 12 93  1  0  0  0
 13 14  1  0  0  0
 13 31  1  0  0  0
 14 15  2  0  0  0
 14 94  1  0  0  0
 15 95  1  0  0  0
 16 17  2  0  0  0
 16 21  1  0  0  0
 16 31  1  0  0  0
 17 18  1  0  0  0
 17 96  1  0  0  0
 18 19  2  0  0  0
 18 97  1  0  0  0
 19 20  1  0  0  0
 19 24  1  0  0  0
 20 21  2  0  0  0
 20 98  1  0  0  0
 21 23  1  0  0  0
 22 28  1  0  0  0
 22 32  2  0  0  0
 26 27  1  0  0  0
 28 99  1  0  0  0
 28100  1  0  0  0
 29101  1  0  0  0
 29102  1  0  0  0
 33 34  1  0  0  0
 33 66  1  0  0  0
 33 70  2  0  0  0
 34 36  1  0  0  0
 34 59  1  0  0  0
 34103  1  0  0  0
 35 44  2  0  0  0
 35 45  1  0  0  0
 35 68  1  0  0  0
 36 56  1  0  0  0
 36104  1  0  0  0
 37 39  1  0  0  0
 37 47  1  0  0  0
 37 66  1  0  0  0
 37105  1  0  0  0
 38 43  2  0  0  0
 38 46  1  0  0  0
 38 47  1  0  0  0
 39 64  1  0  0  0
 39 67  2  0  0  0
 40 52  1  0  0  0
 40 53  2  0  0  0
 40 58  1  0  0  0
 41106  1  0  0  0
 41107  1  0  0  0
 41108  1  0  0  0
 41 48  1  0  0  0
 42 43  1  0  0  0
 42 66  1  0  0  0
 42109  1  0  0  0
 42110  1  0  0  0
 43 44  1  0  0  0
 44111  1  0  0  0
 45 46  2  0  0  0
 45112  1  0  0  0
 46113  1  0  0  0
 47114  1  0  0  0
 47115  1  0  0  0
 48 56  1  0  0  0
 48 65  1  0  0  0
 48116  1  0  0  0
 49 50  1  0  0  0
 49 53  1  0  0  0
 49 64  1  0  0  0
 49117  1  0  0  0
 50 51  1  0  0  0
 50118  1  0  0  0
 50119  1  0  0  0
 51 52  1  0  0  0
 51120  1  0  0  0
 51121  1  0  0  0
 52122  1  0  0  0
 52123  1  0  0  0
 53 54  1  0  0  0
 54 55  2  0  0  0
 54124  1  0  0  0
 55 57  1  0  0  0
 55125  1  0  0  0
 56 69  2  0  0  0
 57 58  2  0  0  0
 57126  1  0  0  0
 58127  1  0  0  0
 59 60  1  0  0  0
 59 61  1  0  0  0
 59 62  1  0  0  0
 60128  1  0  0  0
 60129  1  0  0  0
 60130  1  0  0  0
 61131  1  0  0  0
 61132  1  0  0  0
 61133  1  0  0  0
 62134  1  0  0  0
 62135  1  0  0  0
 62136  1  0  0  0
 63 65  1  0  0  0
 63137  1  0  0  0
 63138  1  0  0  0
 63139  1  0  0  0
 64140  1  0  0  0
 65141  1  0  0  0
 68 80  1  0  0  0
 71 73  2  0  0  0
 71 75  1  0  0  0
 71142  1  0  0  0
 72 74  2  0  0  0
 72 81  1  0  0  0
 72143  1  0  0  0
 73 74  1  0  0  0
 73 76  1  0  0  0
 74 79  1  0  0  0
 75 81  2  0  0  0
 75 82  1  0  0  0
 76144  1  0  0  0
 76145  1  0  0  0
 76146  1  0  0  0
 77147  1  0  0  0
 77148  1  0  0  0
 77149  1  0  0  0
 77 79  1  0  0  0
 78150  1  0  0  0
 78151  1  0  0  0
 78152  1  0  0  0
 78 80  1  0  0  0
 79 80  1  0  0  0
 79153  1  0  0  0
 80154  1  0  0  0
 82155  1  0  0  0
M  ISO  4   1 100  68 101  80 101  82 100
M  END
> <chiral flag>
0

> <version>
0

> <s_m_source_file>
/data/baiqing/PycharmProjects/Reinvent-master-3.2/result/LINK_invent/BTK/process_docking_weight1_custom_sum_contain_oxygen_bond_distance_aromatic_linkinvent_7_9_3/rearranged_h_0102.sdf

> <i_m_source_file_index>
35

> <r_mmod_Potential_Energy-OPLS-2005>
907.406433105469

> <r_mmod_Stretch_Energy-OPLS-2005>
474.418121337891

> <r_mmod_Bend_Energy-OPLS-2005>
426.767028808594

> <r_mmod_Torsional_Energy-OPLS-2005>
213.156631469727

> <r_mmod_Improper_Torsional_Energy-OPLS-2005>
4.45574283599854

> <r_mmod_Van_der_Waal_Energy-OPLS-2005>
127.900199890137

> <r_mmod_Electrostatic_Energy-OPLS-2005>
-499.421936035156

> <r_mmod_Solvation_Energy-OPLS-2005>
-231.843734741211

> <b_mmod_Minimization_Converged-OPLS-2005>
0

> <r_mmod_RMS_Derivative-OPLS-2005>
0.47956645488739

$$$$
35
                    3D
 Structure written by MMmdl.
169177  0  0  1  0            999 V2000
  -30.6443  -14.7654   20.4400 C   0  0  0  0  0  0
  -30.4143  -12.4710   19.4763 C   0  0  0  0  0  0
  -29.5031  -12.5042   18.2325 C   0  0  0  0  0  0
  -28.0303  -12.3294   18.6451 C   0  0  0  0  0  0
  -27.6298  -13.2445   19.8351 C   0  0  2  0  0  0
  -28.6741  -13.2248   20.9720 C   0  0  0  0  0  0
  -25.2446  -13.8244   20.5655 C   0  0  0  0  0  0
  -24.1771  -13.0465   20.9198 C   0  0  0  0  0  0
  -24.6397  -11.6950   20.8737 C   0  0  0  0  0  0
  -23.9094  -10.4312   21.0389 C   0  0  0  0  0  0
  -24.3645   -9.4230   21.9172 C   0  0  0  0  0  0
  -23.6321   -8.2257   22.0750 C   0  0  0  0  0  0
  -22.4303   -8.0284   21.3533 C   0  0  0  0  0  0
  -21.9935   -9.0264   20.4637 C   0  0  0  0  0  0
  -22.7263  -10.2148   20.3045 C   0  0  0  0  0  0
  -21.6864   -6.0738   22.5272 C   0  0  0  0  0  0
  -21.4020   -6.5645   23.8204 C   0  0  0  0  0  0
  -21.3664   -5.6796   24.9171 C   0  0  0  0  0  0
  -21.6044   -4.3062   24.7220 C   0  0  0  0  0  0
  -21.8818   -3.8146   23.4343 C   0  0  0  0  0  0
  -21.9196   -4.6962   22.3394 C   0  0  0  0  0  0
  -22.7784  -13.5217   21.1861 C   0  0  0  0  0  0
  -22.1652   -4.2146   21.0969 F   0  0  0  0  0  0
  -21.5642   -3.4541   25.7728 F   0  0  0  0  0  0
  -29.9685  -13.5645   20.3733 N   0  0  0  0  0  0
  -26.2878  -12.9473   20.3204 N   0  0  0  0  0  0
  -25.9324  -11.6612   20.5721 N   0  0  0  0  0  0
  -22.0449  -12.8208   22.0436 N   0  0  0  0  0  0
  -25.4121  -15.1965   20.4062 N   0  0  0  0  0  0
  -31.8556  -14.7495   20.2154 O   0  0  0  0  0  0
  -21.6658   -6.8887   21.4231 O   0  0  0  0  0  0
  -22.3450  -14.5502   20.6697 O   0  0  0  0  0  0
  -24.6298  -31.8560   23.1989 C   0  0  0  0  0  0
  -25.9127  -32.4764   23.8329 C   0  0  1  0  0  0
  -27.2213  -27.2667   20.1398 C   0  0  0  0  0  0
  -25.5933  -33.8571   24.2261 N   0  0  0  0  0  0
  -23.4263  -30.4764   21.5430 C   0  0  2  0  0  0
  -24.8738  -28.9117   20.1233 C   0  0  0  0  0  0
  -22.7486  -29.4613   22.4941 C   0  0  0  0  0  0
  -18.0285  -28.1387   22.8491 C   0  0  0  0  0  0
  -24.1483  -36.7278   23.2641 C   0  0  0  0  0  0
  -25.9705  -30.7691   21.3768 C   0  0  0  0  0  0
  -26.0448  -29.3874   20.7294 C   0  0  0  0  0  0
  -27.2257  -28.5779   20.7230 C   0  0  0  0  0  0
  -26.0283  -26.8444   19.5241 C   0  0  0  0  0  0
  -24.8678  -27.6460   19.5136 C   0  0  0  0  0  0
  -23.6461  -29.8022   20.1625 C   0  0  0  0  0  0
  -25.4114  -36.3079   24.0330 C   0  0  1  0  0  0
  -20.5886  -28.3693   23.1287 C   0  0  2  0  0  0
  -20.6776  -26.9417   22.5419 C   0  0  0  0  0  0
  -19.5754  -26.6382   21.5223 C   0  0  0  0  0  0
  -18.1929  -26.7931   22.1626 C   0  0  0  0  0  0
  -19.1536  -28.8858   23.2884 C   0  0  0  0  0  0
  -18.9460  -30.1458   23.8903 C   0  0  0  0  0  0
  -17.6461  -30.6593   24.0562 C   0  0  0  0  0  0
  -25.9063  -34.9451   23.5100 C   0  0  0  0  0  0
  -16.5353  -29.9088   23.6337 C   0  0  0  0  0  0
  -16.7271  -28.6504   23.0359 C   0  0  0  0  0  0
  -26.4499  -31.6588   25.0718 C   0  0  0  0  0  0
  -25.3718  -31.3729   26.1433 C   0  0  0  0  0  0
  -27.0336  -30.2999   24.6199 C   0  0  0  0  0  0
  -27.6056  -32.4322   25.7494 C   0  0  0  0  0  0
  -27.5583  -37.1791   24.8464 C   0  0  0  0  0  0
  -21.4195  -29.3037   22.3671 N   0  0  0  0  0  0
  -26.4284  -37.3782   23.9423 N   0  0  0  0  0  0
  -24.6946  -31.0523   22.0964 N   0  0  0  0  0  0
  -23.4186  -28.8168   23.3049 O   0  0  0  0  0  0
  -28.3392  -26.4194   20.0334 O   0  0  0  0  0  0
  -26.5637  -34.8927   22.4669 O   0  0  0  0  0  0
  -23.5452  -32.1394   23.7288 O   0  0  0  0  0  0
  -28.1451  -18.8560   20.2384 C   0  0  0  0  0  0
  -29.9440  -20.0767   20.4868 C   0  0  0  0  0  0
  -29.5532  -18.7305   20.4350 C   0  0  0  0  0  0
  -27.7669  -20.1869   20.1193 C   0  0  0  0  0  0
  -25.2775  -19.8933   20.4363 C   0  0  0  0  0  0
  -26.1887  -20.8190   18.2690 C   0  0  0  0  0  0
  -27.5592  -23.2006   22.0847 C   0  0  0  0  0  0
  -31.3608  -17.6040   21.7731 C   0  0  0  0  0  0
  -31.4108  -17.5876   19.2535 C   0  0  0  0  0  0
  -29.0694  -22.5454   20.1152 C   0  0  0  0  0  0
  -28.5282  -25.2349   20.9191 C   0  0  0  0  0  0
  -26.3983  -20.7197   19.7850 C   0  0  0  0  0  0
  -28.0566  -23.6798   20.7036 C   0  0  2  0  0  0
  -30.5050  -17.4316   20.5011 C   0  0  0  0  0  0
  -28.8935  -21.0115   20.2836 N   0  0  0  0  0  0
  -29.9532  -15.9812   20.5395 N   0  0  0  0  0  0
  -31.4574  -12.5723   19.1730 H   0  0  0  0  0  0
  -30.3441  -11.5063   19.9812 H   0  0  0  0  0  0
  -29.7936  -11.7231   17.5290 H   0  0  0  0  0  0
  -29.6280  -13.4533   17.7084 H   0  0  0  0  0  0
  -27.8877  -11.2829   18.9170 H   0  0  0  0  0  0
  -27.3767  -12.5118   17.7902 H   0  0  0  0  0  0
  -27.6123  -14.2583   19.4339 H   0  0  0  0  0  0
  -28.7157  -12.2460   21.4523 H   0  0  0  0  0  0
  -28.4074  -13.9440   21.7496 H   0  0  0  0  0  0
  -25.2785   -9.5727   22.4756 H   0  0  0  0  0  0
  -24.0027   -7.4664   22.7489 H   0  0  0  0  0  0
  -21.0854   -8.8803   19.8954 H   0  0  0  0  0  0
  -22.3711  -10.9701   19.6163 H   0  0  0  0  0  0
  -21.2016   -7.6157   23.9712 H   0  0  0  0  0  0
  -21.1477   -6.0522   25.9076 H   0  0  0  0  0  0
  -22.0596   -2.7610   23.2833 H   0  0  0  0  0  0
  -22.4082  -11.9885   22.4827 H   0  0  0  0  0  0
  -21.1054  -13.1207   22.2631 H   0  0  0  0  0  0
  -24.6465  -15.8517   20.5220 H   0  0  0  0  0  0
  -26.2598  -15.6364   20.0749 H   0  0  0  0  0  0
  -26.7194  -32.5426   23.1076 H   0  0  0  0  0  0
  -25.0064  -33.9705   25.0393 H   0  0  0  0  0  0
  -22.7235  -31.2987   21.3940 H   0  0  0  0  0  0
  -23.3766  -35.9589   23.3289 H   0  0  0  0  0  0
  -24.3575  -36.8916   22.2059 H   0  0  0  0  0  0
  -23.7210  -37.6464   23.6673 H   0  0  0  0  0  0
  -26.1048  -31.5265   20.6031 H   0  0  0  0  0  0
  -26.8500  -30.8242   22.0065 H   0  0  0  0  0  0
  -28.1347  -28.9501   21.1743 H   0  0  0  0  0  0
  -25.9975  -25.8774   19.0417 H   0  0  0  0  0  0
  -23.9696  -27.2764   19.0387 H   0  0  0  0  0  0
  -23.7744  -30.5753   19.4040 H   0  0  0  0  0  0
  -22.7632  -29.2358   19.8587 H   0  0  0  0  0  0
  -25.1293  -36.1919   25.0821 H   0  0  0  0  0  0
  -20.9978  -28.3268   24.1407 H   0  0  0  0  0  0
  -20.5676  -26.2307   23.3619 H   0  0  0  0  0  0
  -21.6644  -26.7446   22.1212 H   0  0  0  0  0  0
  -19.6916  -25.6289   21.1257 H   0  0  0  0  0  0
  -19.6698  -27.3185   20.6746 H   0  0  0  0  0  0
  -17.4207  -26.6685   21.4020 H   0  0  0  0  0  0
  -18.0323  -26.0069   22.9016 H   0  0  0  0  0  0
  -19.7940  -30.7264   24.2278 H   0  0  0  0  0  0
  -17.5023  -31.6277   24.5146 H   0  0  0  0  0  0
  -15.5354  -30.2988   23.7671 H   0  0  0  0  0  0
  -15.8671  -28.0823   22.7078 H   0  0  0  0  0  0
  -24.5908  -30.7069   25.7753 H   0  0  0  0  0  0
  -24.8891  -32.2891   26.4845 H   0  0  0  0  0  0
  -25.8028  -30.8916   27.0218 H   0  0  0  0  0  0
  -26.2910  -29.6754   24.1222 H   0  0  0  0  0  0
  -27.4007  -29.7262   25.4718 H   0  0  0  0  0  0
  -27.8796  -30.4267   23.9443 H   0  0  0  0  0  0
  -27.2667  -33.3626   26.2061 H   0  0  0  0  0  0
  -28.3873  -32.6873   25.0329 H   0  0  0  0  0  0
  -28.0715  -31.8451   26.5416 H   0  0  0  0  0  0
  -28.2586  -38.0105   24.7549 H   0  0  0  0  0  0
  -28.1092  -36.2642   24.6235 H   0  0  0  0  0  0
  -27.2314  -37.1376   25.8869 H   0  0  0  0  0  0
  -20.9381  -29.8735   21.6857 H   0  0  0  0  0  0
  -26.0163  -38.2851   24.1442 H   0  0  0  0  0  0
  -27.4621  -18.0252   20.1286 H   0  0  0  0  0  0
  -30.9450  -20.4687   20.6045 H   0  0  0  0  0  0
  -25.4031  -19.8485   21.5189 H   0  0  0  0  0  0
  -25.2559  -18.8693   20.0633 H   0  0  0  0  0  0
  -24.3017  -20.3354   20.2362 H   0  0  0  0  0  0
  -26.9450  -21.4536   17.8050 H   0  0  0  0  0  0
  -25.2138  -21.2454   18.0338 H   0  0  0  0  0  0
  -26.2427  -19.8368   17.7996 H   0  0  0  0  0  0
  -27.1932  -22.1769   22.0839 H   0  0  0  0  0  0
  -26.7465  -23.8268   22.4531 H   0  0  0  0  0  0
  -28.3677  -23.2410   22.8161 H   0  0  0  0  0  0
  -31.8823  -18.5619   21.7841 H   0  0  0  0  0  0
  -32.1289  -16.8361   21.8683 H   0  0  0  0  0  0
  -30.7381  -17.5635   22.6676 H   0  0  0  0  0  0
  -31.8697  -18.5762   19.2115 H   0  0  0  0  0  0
  -30.8367  -17.4626   18.3346 H   0  0  0  0  0  0
  -32.2448  -16.8905   19.2196 H   0  0  0  0  0  0
  -30.0566  -22.7764   20.5178 H   0  0  0  0  0  0
  -29.1689  -22.7292   19.0445 H   0  0  0  0  0  0
  -29.5992  -25.2080   21.1224 H   0  0  0  0  0  0
  -28.1107  -25.5767   21.8671 H   0  0  0  0  0  0
  -26.2833  -21.7243   20.1745 H   0  0  0  0  0  0
  -27.1931  -23.7199   20.0409 H   0  0  0  0  0  0
  -28.9545  -15.9035   20.6517 H   0  0  0  0  0  0
  1 25  1  0  0  0
  1 30  2  0  0  0
  1 86  1  0  0  0
  2  3  1  0  0  0
  2 25  1  0  0  0
  2 87  1  0  0  0
  2 88  1  0  0  0
  3  4  1  0  0  0
  3 89  1  0  0  0
  3 90  1  0  0  0
  4  5  1  0  0  0
  4 91  1  0  0  0
  4 92  1  0  0  0
  5  6  1  0  0  0
  5 26  1  0  0  0
  5 93  1  0  0  0
  6 25  1  0  0  0
  6 94  1  0  0  0
  6 95  1  0  0  0
  7  8  2  0  0  0
  7 26  1  0  0  0
  7 29  1  0  0  0
  8  9  1  0  0  0
  8 22  1  0  0  0
  9 10  1  0  0  0
  9 27  2  0  0  0
 10 11  2  0  0  0
 10 15  1  0  0  0
 11 12  1  0  0  0
 11 96  1  0  0  0
 12 13  2  0  0  0
 12 97  1  0  0  0
 13 14  1  0  0  0
 13 31  1  0  0  0
 14 15  2  0  0  0
 14 98  1  0  0  0
 15 99  1  0  0  0
 16 17  2  0  0  0
 16 21  1  0  0  0
 16 31  1  0  0  0
 17 18  1  0  0  0
 17100  1  0  0  0
 18 19  2  0  0  0
 18101  1  0  0  0
 19 20  1  0  0  0
 19 24  1  0  0  0
 20 21  2  0  0  0
 20102  1  0  0  0
 21 23  1  0  0  0
 22 28  1  0  0  0
 22 32  2  0  0  0
 26 27  1  0  0  0
 28103  1  0  0  0
 28104  1  0  0  0
 29105  1  0  0  0
 29106  1  0  0  0
 33 34  1  0  0  0
 33 66  1  0  0  0
 33 70  2  0  0  0
 34 36  1  0  0  0
 34 59  1  0  0  0
 34107  1  0  0  0
 35 44  2  0  0  0
 35 45  1  0  0  0
 35 68  1  0  0  0
 36 56  1  0  0  0
 36108  1  0  0  0
 37 39  1  0  0  0
 37 47  1  0  0  0
 37 66  1  0  0  0
 37109  1  0  0  0
 38 43  2  0  0  0
 38 46  1  0  0  0
 38 47  1  0  0  0
 39 64  1  0  0  0
 39 67  2  0  0  0
 40 52  1  0  0  0
 40 53  2  0  0  0
 40 58  1  0  0  0
 41110  1  0  0  0
 41111  1  0  0  0
 41112  1  0  0  0
 41 48  1  0  0  0
 42 43  1  0  0  0
 42 66  1  0  0  0
 42113  1  0  0  0
 42114  1  0  0  0
 43 44  1  0  0  0
 44115  1  0  0  0
 45 46  2  0  0  0
 45116  1  0  0  0
 46117  1  0  0  0
 47118  1  0  0  0
 47119  1  0  0  0
 48 56  1  0  0  0
 48 65  1  0  0  0
 48120  1  0  0  0
 49 50  1  0  0  0
 49 53  1  0  0  0
 49 64  1  0  0  0
 49121  1  0  0  0
 50 51  1  0  0  0
 50122  1  0  0  0
 50123  1  0  0  0
 51 52  1  0  0  0
 51124  1  0  0  0
 51125  1  0  0  0
 52126  1  0  0  0
 52127  1  0  0  0
 53 54  1  0  0  0
 54 55  2  0  0  0
 54128  1  0  0  0
 55 57  1  0  0  0
 55129  1  0  0  0
 56 69  2  0  0  0
 57 58  2  0  0  0
 57130  1  0  0  0
 58131  1  0  0  0
 59 60  1  0  0  0
 59 61  1  0  0  0
 59 62  1  0  0  0
 60132  1  0  0  0
 60133  1  0  0  0
 60134  1  0  0  0
 61135  1  0  0  0
 61136  1  0  0  0
 61137  1  0  0  0
 62138  1  0  0  0
 62139  1  0  0  0
 62140  1  0  0  0
 63 65  1  0  0  0
 63141  1  0  0  0
 63142  1  0  0  0
 63143  1  0  0  0
 64144  1  0  0  0
 65145  1  0  0  0
 68 81  1  0  0  0
 71 73  1  0  0  0
 71 74  2  0  0  0
 71146  1  0  0  0
 72 73  2  0  0  0
 72 85  1  0  0  0
 72147  1  0  0  0
 73 84  1  0  0  0
 74 82  1  0  0  0
 74 85  1  0  0  0
 75148  1  0  0  0
 75149  1  0  0  0
 75150  1  0  0  0
 75 82  1  0  0  0
 76 82  1  0  0  0
 76151  1  0  0  0
 76152  1  0  0  0
 76153  1  0  0  0
 77154  1  0  0  0
 77155  1  0  0  0
 77156  1  0  0  0
 77 83  1  0  0  0
 78157  1  0  0  0
 78158  1  0  0  0
 78159  1  0  0  0
 78 84  1  0  0  0
 79 84  1  0  0  0
 79160  1  0  0  0
 79161  1  0  0  0
 79162  1  0  0  0
 80 83  1  0  0  0
 80 85  1  0  0  0
 80163  1  0  0  0
 80164  1  0  0  0
 81 83  1  0  0  0
 81165  1  0  0  0
 81166  1  0  0  0
 82167  1  0  0  0
 83168  1  0  0  0
 84 86  1  0  0  0
 86169  1  0  0  0
M  ISO  4   1 100  68 101  81 101  86 100
M  END
> <chiral flag>
0

> <version>
0

> <s_m_source_file>
/data/baiqing/PycharmProjects/Reinvent-master-3.2/result/LINK_invent/BTK/process_docking_weight1_custom_sum_contain_oxygen_bond_distance_aromatic_linkinvent_7_9_3/rearranged_h_0102.sdf

> <i_m_source_file_index>
36

> <r_mmod_Potential_Energy-OPLS-2005>
200.132904052734

> <r_mmod_Stretch_Energy-OPLS-2005>
139.649658203125

> <r_mmod_Bend_Energy-OPLS-2005>
230.674285888672

> <r_mmod_Torsional_Energy-OPLS-2005>
246.503204345703

> <r_mmod_Improper_Torsional_Energy-OPLS-2005>
5.90950965881348

> <r_mmod_Van_der_Waal_Energy-OPLS-2005>
115.739753723145

> <r_mmod_Electrostatic_Energy-OPLS-2005>
-436.086730957031

> <r_mmod_Solvation_Energy-OPLS-2005>
-190.102035522461

> <b_mmod_Minimization_Converged-OPLS-2005>
0

> <r_mmod_RMS_Derivative-OPLS-2005>
2.03643465042114

$$$$
36
                    3D
 Structure written by MMmdl.
166174  0  0  1  0            999 V2000
  -30.6600  -14.6512   20.5244 C   0  0  0  0  0  0
  -30.4398  -12.3948   19.4756 C   0  0  0  0  0  0
  -29.5147  -12.4711   18.2404 C   0  0  0  0  0  0
  -28.0440  -12.2635   18.6526 C   0  0  0  0  0  0
  -27.6421  -13.1718   19.8375 C   0  0  2  0  0  0
  -28.6898  -13.1160   20.9823 C   0  0  0  0  0  0
  -25.2500  -13.8014   20.5537 C   0  0  0  0  0  0
  -24.1785  -13.0339   20.9193 C   0  0  0  0  0  0
  -24.6334  -11.6820   20.8774 C   0  0  0  0  0  0
  -23.8995  -10.4243   21.0430 C   0  0  0  0  0  0
  -24.3572   -9.4172   21.9193 C   0  0  0  0  0  0
  -23.6265   -8.2206   22.0746 C   0  0  0  0  0  0
  -22.4247   -8.0253   21.3535 C   0  0  0  0  0  0
  -21.9873   -9.0212   20.4628 C   0  0  0  0  0  0
  -22.7187  -10.2097   20.3052 C   0  0  0  0  0  0
  -21.6837   -6.0736   22.5288 C   0  0  0  0  0  0
  -21.4010   -6.5639   23.8224 C   0  0  0  0  0  0
  -21.3658   -5.6784   24.9179 C   0  0  0  0  0  0
  -21.6034   -4.3047   24.7222 C   0  0  0  0  0  0
  -21.8825   -3.8147   23.4342 C   0  0  0  0  0  0
  -21.9192   -4.6970   22.3405 C   0  0  0  0  0  0
  -22.7830  -13.5192   21.1865 C   0  0  0  0  0  0
  -22.1664   -4.2161   21.0980 F   0  0  0  0  0  0
  -21.5619   -3.4526   25.7732 F   0  0  0  0  0  0
  -30.0114  -13.4419   20.4292 N   0  0  0  0  0  0
  -26.2908  -12.9119   20.3196 N   0  0  0  0  0  0
  -25.9237  -11.6336   20.5774 N   0  0  0  0  0  0
  -22.0463  -12.8190   22.0428 N   0  0  0  0  0  0
  -25.4018  -15.1706   20.3719 N   0  0  0  0  0  0
  -31.8129  -14.7543   20.0965 O   0  0  0  0  0  0
  -21.6608   -6.8861   21.4242 O   0  0  0  0  0  0
  -22.3541  -14.5515   20.6730 O   0  0  0  0  0  0
  -24.6210  -31.8578   23.2024 C   0  0  0  0  0  0
  -25.9067  -32.4764   23.8346 C   0  0  1  0  0  0
  -27.2389  -27.3566   20.1410 C   0  0  0  0  0  0
  -25.5895  -33.8559   24.2261 N   0  0  0  0  0  0
  -23.4144  -30.4747   21.5437 C   0  0  2  0  0  0
  -24.8618  -28.9242   20.1146 C   0  0  0  0  0  0
  -22.7469  -29.4552   22.4954 C   0  0  0  0  0  0
  -18.0279  -28.1333   22.8470 C   0  0  0  0  0  0
  -24.1499  -36.7296   23.2651 C   0  0  0  0  0  0
  -25.9467  -30.8036   21.3651 C   0  0  0  0  0  0
  -26.0214  -29.4296   20.7154 C   0  0  0  0  0  0
  -27.2094  -28.6571   20.7129 C   0  0  0  0  0  0
  -26.0643  -26.8780   19.5228 C   0  0  0  0  0  0
  -24.8832  -27.6522   19.5105 C   0  0  0  0  0  0
  -23.6271  -29.8006   20.1591 C   0  0  0  0  0  0
  -25.4112  -36.3060   24.0330 C   0  0  1  0  0  0
  -20.5884  -28.3608   23.1294 C   0  0  2  0  0  0
  -20.6768  -26.9331   22.5402 C   0  0  0  0  0  0
  -19.5752  -26.6324   21.5190 C   0  0  0  0  0  0
  -18.1925  -26.7878   22.1595 C   0  0  0  0  0  0
  -19.1536  -28.8795   23.2878 C   0  0  0  0  0  0
  -18.9461  -30.1416   23.8857 C   0  0  0  0  0  0
  -17.6462  -30.6533   24.0538 C   0  0  0  0  0  0
  -25.9037  -34.9429   23.5096 C   0  0  0  0  0  0
  -16.5351  -29.9029   23.6314 C   0  0  0  0  0  0
  -16.7270  -28.6456   23.0316 C   0  0  0  0  0  0
  -26.4450  -31.6593   25.0728 C   0  0  0  0  0  0
  -25.3697  -31.3749   26.1476 C   0  0  0  0  0  0
  -27.0320  -30.3040   24.6161 C   0  0  0  0  0  0
  -27.6009  -32.4337   25.7502 C   0  0  0  0  0  0
  -27.5573  -37.1792   24.8462 C   0  0  0  0  0  0
  -21.4188  -29.2984   22.3714 N   0  0  0  0  0  0
  -26.4284  -37.3737   23.9403 N   0  0  0  0  0  0
  -24.6805  -31.0636   22.0950 N   0  0  0  0  0  0
  -23.4213  -28.8093   23.3021 O   0  0  0  0  0  0
  -28.4305  -26.6417   20.1389 O   0  0  0  0  0  0
  -26.5609  -34.8884   22.4657 O   0  0  0  0  0  0
  -23.5377  -32.1336   23.7388 O   0  0  0  0  0  0
  -29.5492  -22.8821   19.8029 C   0  0  0  0  0  0
  -27.7066  -22.9547   21.5112 C   0  0  0  0  0  0
  -29.0322  -24.2987   19.3436 C   0  0  0  0  0  0
  -27.4999  -24.5070   21.3802 C   0  0  0  0  0  0
  -29.1843  -22.5151   21.2679 C   0  0  1  0  0  0
  -28.5694  -25.2263   20.4999 C   0  0  2  0  0  0
  -28.6199  -16.2655   20.3483 C   0  0  0  0  0  0
  -29.1747  -20.9238   23.1956 C   0  0  0  0  0  0
  -30.2634  -18.6184   21.6737 C   0  0  0  0  0  0
  -30.7788  -17.3351   20.8886 C   0  0  0  0  0  0
  -29.6520  -19.9004   20.9429 C   0  0  0  0  0  0
  -29.9576  -15.9877   21.0475 C   0  0  2  0  0  0
  -29.6402  -21.1560   21.8022 N   0  3  1  0  0  0
  -31.4825  -12.5007   19.1712 H   0  0  0  0  0  0
  -30.3708  -11.4124   19.9454 H   0  0  0  0  0  0
  -29.8053  -11.7155   17.5094 H   0  0  0  0  0  0
  -29.6344  -13.4375   17.7490 H   0  0  0  0  0  0
  -27.9213  -11.2161   18.9341 H   0  0  0  0  0  0
  -27.3832  -12.4267   17.8014 H   0  0  0  0  0  0
  -27.6113  -14.1525   19.3841 H   0  0  0  0  0  0
  -28.7116  -12.1209   21.4281 H   0  0  0  0  0  0
  -28.4249  -13.7920   21.7945 H   0  0  0  0  0  0
  -25.2720   -9.5666   22.4753 H   0  0  0  0  0  0
  -23.9988   -7.4601   22.7452 H   0  0  0  0  0  0
  -21.0813   -8.8718   19.8919 H   0  0  0  0  0  0
  -22.3654  -10.9632   19.6155 H   0  0  0  0  0  0
  -21.2006   -7.6145   23.9744 H   0  0  0  0  0  0
  -21.1467   -6.0497   25.9086 H   0  0  0  0  0  0
  -22.0604   -2.7608   23.2828 H   0  0  0  0  0  0
  -22.4066  -11.9841   22.4798 H   0  0  0  0  0  0
  -21.1085  -13.1218   22.2630 H   0  0  0  0  0  0
  -24.6159  -15.8077   20.4460 H   0  0  0  0  0  0
  -26.2334  -15.6067   19.9958 H   0  0  0  0  0  0
  -26.7150  -32.5415   23.1107 H   0  0  0  0  0  0
  -25.0055  -33.9688   25.0425 H   0  0  0  0  0  0
  -22.7066  -31.2926   21.3982 H   0  0  0  0  0  0
  -23.3718  -35.9673   23.3313 H   0  0  0  0  0  0
  -24.3605  -36.8912   22.2068 H   0  0  0  0  0  0
  -23.7282  -37.6507   23.6678 H   0  0  0  0  0  0
  -26.0680  -31.5664   20.5945 H   0  0  0  0  0  0
  -26.8342  -30.8577   21.9842 H   0  0  0  0  0  0
  -28.1100  -29.0449   21.1674 H   0  0  0  0  0  0
  -26.0628  -25.9069   19.0478 H   0  0  0  0  0  0
  -23.9947  -27.2605   19.0350 H   0  0  0  0  0  0
  -23.7417  -30.5763   19.4024 H   0  0  0  0  0  0
  -22.7499  -29.2267   19.8582 H   0  0  0  0  0  0
  -25.1285  -36.1896   25.0818 H   0  0  0  0  0  0
  -20.9961  -28.3160   24.1419 H   0  0  0  0  0  0
  -20.5635  -26.2213   23.3592 H   0  0  0  0  0  0
  -21.6636  -26.7330   22.1213 H   0  0  0  0  0  0
  -19.6926  -25.6240   21.1201 H   0  0  0  0  0  0
  -19.6706  -27.3151   20.6737 H   0  0  0  0  0  0
  -17.4203  -26.6615   21.3990 H   0  0  0  0  0  0
  -18.0323  -26.0010   22.8977 H   0  0  0  0  0  0
  -19.7951  -30.7231   24.2184 H   0  0  0  0  0  0
  -17.5021  -31.6199   24.5152 H   0  0  0  0  0  0
  -15.5360  -30.2906   23.7646 H   0  0  0  0  0  0
  -15.8681  -28.0773   22.7003 H   0  0  0  0  0  0
  -24.5859  -30.7082   25.7845 H   0  0  0  0  0  0
  -24.8888  -32.2939   26.4857 H   0  0  0  0  0  0
  -25.8021  -30.8980   27.0282 H   0  0  0  0  0  0
  -26.2920  -29.6802   24.1146 H   0  0  0  0  0  0
  -27.4013  -29.7256   25.4633 H   0  0  0  0  0  0
  -27.8765  -30.4354   23.9387 H   0  0  0  0  0  0
  -27.2612  -33.3644   26.2035 H   0  0  0  0  0  0
  -28.3842  -32.6876   25.0354 H   0  0  0  0  0  0
  -28.0649  -31.8508   26.5451 H   0  0  0  0  0  0
  -28.2552  -38.0121   24.7478 H   0  0  0  0  0  0
  -28.1090  -36.2630   24.6302 H   0  0  0  0  0  0
  -27.2301  -37.1458   25.8869 H   0  0  0  0  0  0
  -20.9363  -29.8730   21.6950 H   0  0  0  0  0  0
  -26.0159  -38.2805   24.1394 H   0  0  0  0  0  0
  -30.6320  -22.8282   19.6797 H   0  0  0  0  0  0
  -29.1356  -22.1332   19.1277 H   0  0  0  0  0  0
  -27.0727  -22.4503   20.7795 H   0  0  0  0  0  0
  -27.3210  -22.6431   22.4816 H   0  0  0  0  0  0
  -28.1988  -24.1726   18.6501 H   0  0  0  0  0  0
  -29.8192  -24.7923   18.7710 H   0  0  0  0  0  0
  -27.5191  -24.9528   22.3762 H   0  0  0  0  0  0
  -26.4936  -24.6812   21.0064 H   0  0  0  0  0  0
  -29.7773  -23.1869   21.8901 H   0  0  0  0  0  0
  -29.4431  -25.2953   21.1493 H   0  0  0  0  0  0
  -27.8313  -15.7215   20.8525 H   0  0  0  0  0  0
  -28.6654  -16.0044   19.2897 H   0  0  0  0  0  0
  -28.3123  -17.3083   20.3904 H   0  0  0  0  0  0
  -29.2571  -21.8343   23.7901 H   0  0  0  0  0  0
  -29.7765  -20.1840   23.7241 H   0  0  0  0  0  0
  -28.1383  -20.5938   23.2217 H   0  0  0  0  0  0
  -31.1286  -18.9747   22.2350 H   0  0  0  0  0  0
  -29.5595  -18.2789   22.4345 H   0  0  0  0  0  0
  -31.7894  -17.1359   21.2487 H   0  0  0  0  0  0
  -30.9084  -17.5704   19.8308 H   0  0  0  0  0  0
  -28.6367  -19.6871   20.6066 H   0  0  0  0  0  0
  -30.2296  -20.1096   20.0437 H   0  0  0  0  0  0
  -29.7740  -15.8411   22.1121 H   0  0  0  0  0  0
  -30.6302  -21.3219   21.9262 H   0  0  0  0  0  0
  1 25  1  0  0  0
  1 30  2  0  0  0
  1 82  1  0  0  0
  2  3  1  0  0  0
  2 25  1  0  0  0
  2 84  1  0  0  0
  2 85  1  0  0  0
  3  4  1  0  0  0
  3 86  1  0  0  0
  3 87  1  0  0  0
  4  5  1  0  0  0
  4 88  1  0  0  0
  4 89  1  0  0  0
  5  6  1  0  0  0
  5 26  1  0  0  0
  5 90  1  0  0  0
  6 25  1  0  0  0
  6 91  1  0  0  0
  6 92  1  0  0  0
  7  8  2  0  0  0
  7 26  1  0  0  0
  7 29  1  0  0  0
  8  9  1  0  0  0
  8 22  1  0  0  0
  9 10  1  0  0  0
  9 27  2  0  0  0
 10 11  2  0  0  0
 10 15  1  0  0  0
 11 12  1  0  0  0
 11 93  1  0  0  0
 12 13  2  0  0  0
 12 94  1  0  0  0
 13 14  1  0  0  0
 13 31  1  0  0  0
 14 15  2  0  0  0
 14 95  1  0  0  0
 15 96  1  0  0  0
 16 17  2  0  0  0
 16 21  1  0  0  0
 16 31  1  0  0  0
 17 18  1  0  0  0
 17 97  1  0  0  0
 18 19  2  0  0  0
 18 98  1  0  0  0
 19 20  1  0  0  0
 19 24  1  0  0  0
 20 21  2  0  0  0
 20 99  1  0  0  0
 21 23  1  0  0  0
 22 28  1  0  0  0
 22 32  2  0  0  0
 26 27  1  0  0  0
 28100  1  0  0  0
 28101  1  0  0  0
 29102  1  0  0  0
 29103  1  0  0  0
 33 34  1  0  0  0
 33 66  1  0  0  0
 33 70  2  0  0  0
 34 36  1  0  0  0
 34 59  1  0  0  0
 34104  1  0  0  0
 35 44  2  0  0  0
 35 45  1  0  0  0
 35 68  1  0  0  0
 36 56  1  0  0  0
 36105  1  0  0  0
 37 39  1  0  0  0
 37 47  1  0  0  0
 37 66  1  0  0  0
 37106  1  0  0  0
 38 43  2  0  0  0
 38 46  1  0  0  0
 38 47  1  0  0  0
 39 64  1  0  0  0
 39 67  2  0  0  0
 40 52  1  0  0  0
 40 53  2  0  0  0
 40 58  1  0  0  0
 41107  1  0  0  0
 41108  1  0  0  0
 41109  1  0  0  0
 41 48  1  0  0  0
 42 43  1  0  0  0
 42 66  1  0  0  0
 42110  1  0  0  0
 42111  1  0  0  0
 43 44  1  0  0  0
 44112  1  0  0  0
 45 46  2  0  0  0
 45113  1  0  0  0
 46114  1  0  0  0
 47115  1  0  0  0
 47116  1  0  0  0
 48 56  1  0  0  0
 48 65  1  0  0  0
 48117  1  0  0  0
 49 50  1  0  0  0
 49 53  1  0  0  0
 49 64  1  0  0  0
 49118  1  0  0  0
 50 51  1  0  0  0
 50119  1  0  0  0
 50120  1  0  0  0
 51 52  1  0  0  0
 51121  1  0  0  0
 51122  1  0  0  0
 52123  1  0  0  0
 52124  1  0  0  0
 53 54  1  0  0  0
 54 55  2  0  0  0
 54125  1  0  0  0
 55 57  1  0  0  0
 55126  1  0  0  0
 56 69  2  0  0  0
 57 58  2  0  0  0
 57127  1  0  0  0
 58128  1  0  0  0
 59 60  1  0  0  0
 59 61  1  0  0  0
 59 62  1  0  0  0
 60129  1  0  0  0
 60130  1  0  0  0
 60131  1  0  0  0
 61132  1  0  0  0
 61133  1  0  0  0
 61134  1  0  0  0
 62135  1  0  0  0
 62136  1  0  0  0
 62137  1  0  0  0
 63 65  1  0  0  0
 63138  1  0  0  0
 63139  1  0  0  0
 63140  1  0  0  0
 64141  1  0  0  0
 65142  1  0  0  0
 68 76  1  0  0  0
 71 73  1  0  0  0
 71143  1  0  0  0
 71144  1  0  0  0
 71 75  1  0  0  0
 72 74  1  0  0  0
 72 75  1  0  0  0
 72145  1  0  0  0
 72146  1  0  0  0
 73 76  1  0  0  0
 73147  1  0  0  0
 73148  1  0  0  0
 74 76  1  0  0  0
 74149  1  0  0  0
 74150  1  0  0  0
 75 83  1  0  0  0
 75151  1  0  0  0
 76152  1  0  0  0
 77153  1  0  0  0
 77154  1  0  0  0
 77155  1  0  0  0
 77 82  1  0  0  0
 78156  1  0  0  0
 78157  1  0  0  0
 78158  1  0  0  0
 78 83  1  0  0  0
 79 80  1  0  0  0
 79 81  1  0  0  0
 79159  1  0  0  0
 79160  1  0  0  0
 80 82  1  0  0  0
 80161  1  0  0  0
 80162  1  0  0  0
 81 83  1  0  0  0
 81163  1  0  0  0
 81164  1  0  0  0
 82165  1  0  0  0
 83166  1  0  0  0
M  CHG  1  83   1
M  ISO  4   1 100  68 101  76 101  82 100
M  END
> <chiral flag>
0

> <version>
0

> <s_m_source_file>
/data/baiqing/PycharmProjects/Reinvent-master-3.2/result/LINK_invent/BTK/process_docking_weight1_custom_sum_contain_oxygen_bond_distance_aromatic_linkinvent_7_9_3/rearranged_h_0102.sdf

> <i_m_source_file_index>
37

> <r_mmod_Potential_Energy-OPLS-2005>
127.428298950195

> <r_mmod_Stretch_Energy-OPLS-2005>
77.3489379882812

> <r_mmod_Bend_Energy-OPLS-2005>
193.347045898438

> <r_mmod_Torsional_Energy-OPLS-2005>
271.143310546875

> <r_mmod_Improper_Torsional_Energy-OPLS-2005>
3.01878762245178

> <r_mmod_Van_der_Waal_Energy-OPLS-2005>
141.450592041016

> <r_mmod_Electrostatic_Energy-OPLS-2005>
-182.321014404297

> <r_mmod_Solvation_Energy-OPLS-2005>
-418.831878662109

> <b_mmod_Minimization_Converged-OPLS-2005>
0

> <r_mmod_RMS_Derivative-OPLS-2005>
3.2007520198822

$$$$
37
                    3D
 Structure written by MMmdl.
184192  0  0  1  0            999 V2000
  -30.7417  -14.5233   20.5595 C   0  0  0  0  0  0
  -30.4074  -12.3162   19.4883 C   0  0  0  0  0  0
  -29.5094  -12.4667   18.2458 C   0  0  0  0  0  0
  -28.0240  -12.3557   18.6408 C   0  0  0  0  0  0
  -27.6501  -13.2223   19.8719 C   0  0  2  0  0  0
  -28.6843  -13.0469   21.0050 C   0  0  0  0  0  0
  -25.2512  -13.8215   20.5801 C   0  0  0  0  0  0
  -24.1776  -13.0493   20.9185 C   0  0  0  0  0  0
  -24.6326  -11.6941   20.8685 C   0  0  0  0  0  0
  -23.9016  -10.4314   21.0353 C   0  0  0  0  0  0
  -24.3595   -9.4253   21.9152 C   0  0  0  0  0  0
  -23.6296   -8.2271   22.0744 C   0  0  0  0  0  0
  -22.4277   -8.0252   21.3534 C   0  0  0  0  0  0
  -21.9871   -9.0213   20.4642 C   0  0  0  0  0  0
  -22.7175  -10.2110   20.3033 C   0  0  0  0  0  0
  -21.6870   -6.0716   22.5273 C   0  0  0  0  0  0
  -21.4015   -6.5633   23.8201 C   0  0  0  0  0  0
  -21.3663   -5.6788   24.9165 C   0  0  0  0  0  0
  -21.6051   -4.3050   24.7217 C   0  0  0  0  0  0
  -21.8837   -3.8134   23.4344 C   0  0  0  0  0  0
  -21.9202   -4.6942   22.3395 C   0  0  0  0  0  0
  -22.7792  -13.5252   21.1858 C   0  0  0  0  0  0
  -22.1681   -4.2127   21.0969 F   0  0  0  0  0  0
  -21.5611   -3.4541   25.7740 F   0  0  0  0  0  0
  -30.0108  -13.3640   20.4594 N   0  0  0  0  0  0
  -26.2941  -12.9422   20.3361 N   0  0  0  0  0  0
  -25.9238  -11.6555   20.5680 N   0  0  0  0  0  0
  -22.0446  -12.8242   22.0406 N   0  0  0  0  0  0
  -25.4307  -15.1958   20.4437 N   0  0  0  0  0  0
  -31.8976  -14.5233   20.1327 O   0  0  0  0  0  0
  -21.6675   -6.8838   21.4225 O   0  0  0  0  0  0
  -22.3474  -14.5584   20.6718 O   0  0  0  0  0  0
  -24.6087  -31.8676   23.2097 C   0  0  0  0  0  0
  -25.8981  -32.4828   23.8443 C   0  0  1  0  0  0
  -27.2556  -27.4505   20.0996 C   0  0  0  0  0  0
  -25.5859  -33.8640   24.2394 N   0  0  0  0  0  0
  -23.4021  -30.4896   21.5442 C   0  0  2  0  0  0
  -24.8534  -28.9553   20.1089 C   0  0  0  0  0  0
  -22.7372  -29.4670   22.4948 C   0  0  0  0  0  0
  -18.0277  -28.1391   22.8462 C   0  0  0  0  0  0
  -24.1480  -36.7326   23.2637 C   0  0  0  0  0  0
  -25.9253  -30.8441   21.3550 C   0  0  0  0  0  0
  -26.0071  -29.4745   20.7088 C   0  0  0  0  0  0
  -27.2037  -28.7254   20.7065 C   0  0  0  0  0  0
  -26.0819  -26.9411   19.4944 C   0  0  0  0  0  0
  -24.8857  -27.6890   19.4977 C   0  0  0  0  0  0
  -23.6099  -29.8152   20.1594 C   0  0  0  0  0  0
  -25.4087  -36.3126   24.0358 C   0  0  1  0  0  0
  -20.5856  -28.3685   23.1286 C   0  0  2  0  0  0
  -20.6768  -26.9408   22.5398 C   0  0  0  0  0  0
  -19.5762  -26.6377   21.5188 C   0  0  0  0  0  0
  -18.1933  -26.7936   22.1584 C   0  0  0  0  0  0
  -19.1515  -28.8845   23.2885 C   0  0  0  0  0  0
  -18.9442  -30.1445   23.8915 C   0  0  0  0  0  0
  -17.6446  -30.6584   24.0570 C   0  0  0  0  0  0
  -25.8998  -34.9476   23.5171 C   0  0  0  0  0  0
  -16.5347  -29.9077   23.6337 C   0  0  0  0  0  0
  -16.7259  -28.6504   23.0339 C   0  0  0  0  0  0
  -26.4420  -31.6595   25.0769 C   0  0  0  0  0  0
  -25.3660  -31.3631   26.1479 C   0  0  0  0  0  0
  -27.0309  -30.3090   24.6101 C   0  0  0  0  0  0
  -27.6083  -32.4242   25.7456 C   0  0  0  0  0  0
  -27.5584  -37.1791   24.8462 C   0  0  0  0  0  0
  -21.4103  -29.3053   22.3670 N   0  0  0  0  0  0
  -26.4300  -37.3792   23.9417 N   0  0  0  0  0  0
  -24.6648  -31.0803   22.0981 N   0  0  0  0  0  0
  -23.4125  -28.8233   23.3030 O   0  0  0  0  0  0
  -28.4606  -26.7760   20.1495 O   0  0  0  0  0  0
  -26.5531  -34.8913   22.4715 O   0  0  0  0  0  0
  -23.5272  -32.1418   23.7468 O   0  0  0  0  0  0
  -27.7083  -19.0892   23.3207 C   0  0  0  0  0  0
  -27.1641  -17.7769   22.7697 C   0  0  0  0  0  0
  -29.0522  -18.6858   22.7255 C   0  0  0  0  0  0
  -28.3477  -17.6657   21.7817 C   0  0  0  0  0  0
  -23.3365  -21.7077   19.8070 C   0  0  0  0  0  0
  -24.4714  -22.2415   17.5991 C   0  0  0  0  0  0
  -28.0449  -18.1542   20.3284 C   0  0  0  0  0  0
  -28.8966  -16.2014   21.6948 C   0  0  0  0  0  0
  -27.1878  -19.4363   20.1306 C   0  0  0  0  0  0
  -28.1480  -24.3004   20.0275 C   0  0  0  0  0  0
  -27.9472  -20.7917   20.0883 C   0  0  0  0  0  0
  -28.1166  -23.1464   18.9871 C   0  0  0  0  0  0
  -25.8064  -22.2636   19.7690 C   0  0  0  0  0  0
  -31.3725  -16.8620   21.5439 C   0  0  0  0  0  0
  -28.6790  -25.5972   19.3759 C   0  0  0  0  0  0
  -30.2325  -15.9717   20.9328 C   0  0  1  0  0  0
  -24.6404  -21.6122   18.9970 C   0  0  0  0  0  0
  -27.2295  -21.8985   19.2609 C   0  0  2  0  0  0
  -31.6035  -18.1299   20.8129 N   0  3  0  0  0  0
  -31.4569  -12.3642   19.1942 H   0  0  0  0  0  0
  -30.2784  -11.3216   19.9210 H   0  0  0  0  0  0
  -29.7554  -11.6941   17.5147 H   0  0  0  0  0  0
  -29.7042  -13.4289   17.7700 H   0  0  0  0  0  0
  -27.8313  -11.3063   18.8672 H   0  0  0  0  0  0
  -27.3891  -12.6187   17.7955 H   0  0  0  0  0  0
  -27.6768  -14.2587   19.5361 H   0  0  0  0  0  0
  -28.6561  -12.0135   21.3543 H   0  0  0  0  0  0
  -28.4401  -13.6230   21.8925 H   0  0  0  0  0  0
  -25.2723   -9.5816   22.4738 H   0  0  0  0  0  0
  -24.0028   -7.4700   22.7488 H   0  0  0  0  0  0
  -21.0790   -8.8711   19.8965 H   0  0  0  0  0  0
  -22.3581  -10.9641   19.6157 H   0  0  0  0  0  0
  -21.2029   -7.6143   23.9701 H   0  0  0  0  0  0
  -21.1464   -6.0514   25.9068 H   0  0  0  0  0  0
  -22.0618   -2.7591   23.2851 H   0  0  0  0  0  0
  -22.3983  -11.9864   22.4811 H   0  0  0  0  0  0
  -21.1055  -13.1245   22.2588 H   0  0  0  0  0  0
  -24.6960  -15.8600   20.6538 H   0  0  0  0  0  0
  -26.3215  -15.6323   20.2554 H   0  0  0  0  0  0
  -26.7085  -32.5561   23.1265 H   0  0  0  0  0  0
  -25.0107  -33.9846   25.0602 H   0  0  0  0  0  0
  -22.6934  -31.3060   21.3964 H   0  0  0  0  0  0
  -23.3758  -35.9640   23.3275 H   0  0  0  0  0  0
  -24.3595  -36.8935   22.2056 H   0  0  0  0  0  0
  -23.7200  -37.6521   23.6654 H   0  0  0  0  0  0
  -26.0166  -31.6052   20.5780 H   0  0  0  0  0  0
  -26.8202  -30.9142   21.9619 H   0  0  0  0  0  0
  -28.1019  -29.1196   21.1626 H   0  0  0  0  0  0
  -26.0702  -25.9714   19.0223 H   0  0  0  0  0  0
  -23.9992  -27.2862   19.0269 H   0  0  0  0  0  0
  -23.7027  -30.5836   19.3901 H   0  0  0  0  0  0
  -22.7405  -29.2204   19.8755 H   0  0  0  0  0  0
  -25.1237  -36.2039   25.0846 H   0  0  0  0  0  0
  -20.9986  -28.3291   24.1397 H   0  0  0  0  0  0
  -20.5660  -26.2281   23.3584 H   0  0  0  0  0  0
  -21.6645  -26.7463   22.1201 H   0  0  0  0  0  0
  -19.6924  -25.6274   21.1243 H   0  0  0  0  0  0
  -19.6743  -27.3165   20.6700 H   0  0  0  0  0  0
  -17.4211  -26.6697   21.3976 H   0  0  0  0  0  0
  -18.0344  -26.0077   22.8977 H   0  0  0  0  0  0
  -19.7928  -30.7234   24.2320 H   0  0  0  0  0  0
  -17.5012  -31.6263   24.5166 H   0  0  0  0  0  0
  -15.5348  -30.2973   23.7682 H   0  0  0  0  0  0
  -15.8662  -28.0831   22.7055 H   0  0  0  0  0  0
  -24.5930  -30.6878   25.7785 H   0  0  0  0  0  0
  -24.8701  -32.2695   26.4952 H   0  0  0  0  0  0
  -25.7968  -30.8814   27.0261 H   0  0  0  0  0  0
  -26.2868  -29.6756   24.1265 H   0  0  0  0  0  0
  -27.4253  -29.7425   25.4557 H   0  0  0  0  0  0
  -27.8582  -30.4509   23.9155 H   0  0  0  0  0  0
  -27.2910  -33.3588   26.2094 H   0  0  0  0  0  0
  -28.3867  -32.6662   25.0206 H   0  0  0  0  0  0
  -28.0782  -31.8266   26.5289 H   0  0  0  0  0  0
  -28.2599  -38.0096   24.7555 H   0  0  0  0  0  0
  -28.1085  -36.2630   24.6256 H   0  0  0  0  0  0
  -27.2306  -37.1403   25.8864 H   0  0  0  0  0  0
  -20.9234  -29.8757   21.6892 H   0  0  0  0  0  0
  -26.0207  -38.2867   24.1437 H   0  0  0  0  0  0
  -27.6910  -19.1526   24.4090 H   0  0  0  0  0  0
  -27.2642  -19.9738   22.8650 H   0  0  0  0  0  0
  -26.1907  -17.8610   22.2922 H   0  0  0  0  0  0
  -27.1519  -16.9878   23.5255 H   0  0  0  0  0  0
  -29.6757  -18.2508   23.5083 H   0  0  0  0  0  0
  -29.5676  -19.5084   22.2314 H   0  0  0  0  0  0
  -22.5203  -21.1855   19.3052 H   0  0  0  0  0  0
  -23.0223  -22.7414   19.9550 H   0  0  0  0  0  0
  -23.4565  -21.2548   20.7934 H   0  0  0  0  0  0
  -23.6100  -21.8251   17.0766 H   0  0  0  0  0  0
  -25.3451  -22.0620   16.9727 H   0  0  0  0  0  0
  -24.3298  -23.3221   17.6472 H   0  0  0  0  0  0
  -27.5004  -17.3630   19.8121 H   0  0  0  0  0  0
  -28.9583  -18.2622   19.7421 H   0  0  0  0  0  0
  -29.0191  -15.7923   22.6977 H   0  0  0  0  0  0
  -28.1185  -15.6092   21.2299 H   0  0  0  0  0  0
  -26.3513  -19.4780   20.8270 H   0  0  0  0  0  0
  -26.7104  -19.3036   19.1612 H   0  0  0  0  0  0
  -28.7523  -24.0252   20.8941 H   0  0  0  0  0  0
  -27.1627  -24.5140   20.4310 H   0  0  0  0  0  0
  -28.9179  -20.6079   19.6305 H   0  0  0  0  0  0
  -28.1650  -21.1536   21.0928 H   0  0  0  0  0  0
  -29.1410  -22.8304   18.7768 H   0  0  0  0  0  0
  -27.7595  -23.5727   18.0489 H   0  0  0  0  0  0
  -25.7368  -22.0326   20.8332 H   0  0  0  0  0  0
  -25.6286  -23.3343   19.6931 H   0  0  0  0  0  0
  -31.1708  -17.0872   22.5875 H   0  0  0  0  0  0
  -32.3305  -16.3511   21.6046 H   0  0  0  0  0  0
  -28.2656  -25.7397   18.3780 H   0  0  0  0  0  0
  -29.7576  -25.4978   19.2338 H   0  0  0  0  0  0
  -30.0454  -16.3426   19.9271 H   0  0  0  0  0  0
  -24.8560  -20.5533   18.8699 H   0  0  0  0  0  0
  -27.1042  -21.4527   18.2720 H   0  0  0  0  0  0
  -32.4017  -18.6051   21.1992 H   0  0  0  0  0  0
  -30.8133  -18.7503   20.8796 H   0  0  0  0  0  0
  -31.8006  -17.9494   19.8444 H   0  0  0  0  0  0
  1 25  1  0  0  0
  1 30  2  0  0  0
  1 86  1  0  0  0
  2  3  1  0  0  0
  2 25  1  0  0  0
  2 90  1  0  0  0
  2 91  1  0  0  0
  3  4  1  0  0  0
  3 92  1  0  0  0
  3 93  1  0  0  0
  4  5  1  0  0  0
  4 94  1  0  0  0
  4 95  1  0  0  0
  5  6  1  0  0  0
  5 26  1  0  0  0
  5 96  1  0  0  0
  6 25  1  0  0  0
  6 97  1  0  0  0
  6 98  1  0  0  0
  7  8  2  0  0  0
  7 26  1  0  0  0
  7 29  1  0  0  0
  8  9  1  0  0  0
  8 22  1  0  0  0
  9 10  1  0  0  0
  9 27  2  0  0  0
 10 11  2  0  0  0
 10 15  1  0  0  0
 11 12  1  0  0  0
 11 99  1  0  0  0
 12 13  2  0  0  0
 12100  1  0  0  0
 13 14  1  0  0  0
 13 31  1  0  0  0
 14 15  2  0  0  0
 14101  1  0  0  0
 15102  1  0  0  0
 16 17  2  0  0  0
 16 21  1  0  0  0
 16 31  1  0  0  0
 17 18  1  0  0  0
 17103  1  0  0  0
 18 19  2  0  0  0
 18104  1  0  0  0
 19 20  1  0  0  0
 19 24  1  0  0  0
 20 21  2  0  0  0
 20105  1  0  0  0
 21 23  1  0  0  0
 22 28  1  0  0  0
 22 32  2  0  0  0
 26 27  1  0  0  0
 28106  1  0  0  0
 28107  1  0  0  0
 29108  1  0  0  0
 29109  1  0  0  0
 33 34  1  0  0  0
 33 66  1  0  0  0
 33 70  2  0  0  0
 34 36  1  0  0  0
 34 59  1  0  0  0
 34110  1  0  0  0
 35 44  2  0  0  0
 35 45  1  0  0  0
 35 68  1  0  0  0
 36 56  1  0  0  0
 36111  1  0  0  0
 37 39  1  0  0  0
 37 47  1  0  0  0
 37 66  1  0  0  0
 37112  1  0  0  0
 38 43  2  0  0  0
 38 46  1  0  0  0
 38 47  1  0  0  0
 39 64  1  0  0  0
 39 67  2  0  0  0
 40 52  1  0  0  0
 40 53  2  0  0  0
 40 58  1  0  0  0
 41113  1  0  0  0
 41114  1  0  0  0
 41115  1  0  0  0
 41 48  1  0  0  0
 42 43  1  0  0  0
 42 66  1  0  0  0
 42116  1  0  0  0
 42117  1  0  0  0
 43 44  1  0  0  0
 44118  1  0  0  0
 45 46  2  0  0  0
 45119  1  0  0  0
 46120  1  0  0  0
 47121  1  0  0  0
 47122  1  0  0  0
 48 56  1  0  0  0
 48 65  1  0  0  0
 48123  1  0  0  0
 49 50  1  0  0  0
 49 53  1  0  0  0
 49 64  1  0  0  0
 49124  1  0  0  0
 50 51  1  0  0  0
 50125  1  0  0  0
 50126  1  0  0  0
 51 52  1  0  0  0
 51127  1  0  0  0
 51128  1  0  0  0
 52129  1  0  0  0
 52130  1  0  0  0
 53 54  1  0  0  0
 54 55  2  0  0  0
 54131  1  0  0  0
 55 57  1  0  0  0
 55132  1  0  0  0
 56 69  2  0  0  0
 57 58  2  0  0  0
 57133  1  0  0  0
 58134  1  0  0  0
 59 60  1  0  0  0
 59 61  1  0  0  0
 59 62  1  0  0  0
 60135  1  0  0  0
 60136  1  0  0  0
 60137  1  0  0  0
 61138  1  0  0  0
 61139  1  0  0  0
 61140  1  0  0  0
 62141  1  0  0  0
 62142  1  0  0  0
 62143  1  0  0  0
 63 65  1  0  0  0
 63144  1  0  0  0
 63145  1  0  0  0
 63146  1  0  0  0
 64147  1  0  0  0
 65148  1  0  0  0
 68 85  1  0  0  0
 71 72  1  0  0  0
 71 73  1  0  0  0
 71149  1  0  0  0
 71150  1  0  0  0
 72 74  1  0  0  0
 72151  1  0  0  0
 72152  1  0  0  0
 73 74  1  0  0  0
 73153  1  0  0  0
 73154  1  0  0  0
 74 77  1  0  0  0
 74 78  1  0  0  0
 75155  1  0  0  0
 75156  1  0  0  0
 75157  1  0  0  0
 75 87  1  0  0  0
 76 87  1  0  0  0
 76158  1  0  0  0
 76159  1  0  0  0
 76160  1  0  0  0
 77 79  1  0  0  0
 77161  1  0  0  0
 77162  1  0  0  0
 78163  1  0  0  0
 78164  1  0  0  0
 78 86  1  0  0  0
 79 81  1  0  0  0
 79165  1  0  0  0
 79166  1  0  0  0
 80 82  1  0  0  0
 80 85  1  0  0  0
 80167  1  0  0  0
 80168  1  0  0  0
 81169  1  0  0  0
 81170  1  0  0  0
 81 88  1  0  0  0
 82 88  1  0  0  0
 82171  1  0  0  0
 82172  1  0  0  0
 83 87  1  0  0  0
 83 88  1  0  0  0
 83173  1  0  0  0
 83174  1  0  0  0
 84 86  1  0  0  0
 84 89  1  0  0  0
 84175  1  0  0  0
 84176  1  0  0  0
 85177  1  0  0  0
 85178  1  0  0  0
 86179  1  0  0  0
 87180  1  0  0  0
 88181  1  0  0  0
 89182  1  0  0  0
 89183  1  0  0  0
 89184  1  0  0  0
M  CHG  1  89   1
M  ISO  4   1 100  68 101  85 101  86 100
M  END
> <chiral flag>
0

> <version>
0

> <s_m_source_file>
/data/baiqing/PycharmProjects/Reinvent-master-3.2/result/LINK_invent/BTK/process_docking_weight1_custom_sum_contain_oxygen_bond_distance_aromatic_linkinvent_7_9_3/rearranged_h_0102.sdf

> <i_m_source_file_index>
38

> <r_mmod_Potential_Energy-OPLS-2005>
-50.9115943908691

> <r_mmod_Stretch_Energy-OPLS-2005>
52.0182914733887

> <r_mmod_Bend_Energy-OPLS-2005>
194.017730712891

> <r_mmod_Torsional_Energy-OPLS-2005>
264.532440185547

> <r_mmod_Improper_Torsional_Energy-OPLS-2005>
4.86568021774292

> <r_mmod_Van_der_Waal_Energy-OPLS-2005>
140.067581176758

> <r_mmod_Electrostatic_Energy-OPLS-2005>
-287.619171142578

> <r_mmod_Solvation_Energy-OPLS-2005>
-441.937622070312

> <b_mmod_Minimization_Converged-OPLS-2005>
0

> <r_mmod_RMS_Derivative-OPLS-2005>
6.49292039871216

$$$$
38
                    3D
 Structure written by MMmdl.
171179  0  0  1  0            999 V2000
  -30.7259  -14.6733   20.2900 C   0  0  0  0  0  0
  -30.4126  -12.3788   19.4528 C   0  0  0  0  0  0
  -29.4798  -12.3202   18.2266 C   0  0  0  0  0  0
  -27.9919  -12.3123   18.6284 C   0  0  0  0  0  0
  -27.6254  -13.2303   19.8305 C   0  0  2  0  0  0
  -28.7003  -13.2402   20.9321 C   0  0  0  0  0  0
  -25.2466  -13.8182   20.5822 C   0  0  0  0  0  0
  -24.1744  -13.0433   20.9245 C   0  0  0  0  0  0
  -24.6350  -11.6912   20.8798 C   0  0  0  0  0  0
  -23.9042  -10.4288   21.0414 C   0  0  0  0  0  0
  -24.3606   -9.4201   21.9184 C   0  0  0  0  0  0
  -23.6296   -8.2230   22.0744 C   0  0  0  0  0  0
  -22.4280   -8.0265   21.3529 C   0  0  0  0  0  0
  -21.9910   -9.0230   20.4629 C   0  0  0  0  0  0
  -22.7222  -10.2118   20.3045 C   0  0  0  0  0  0
  -21.6852   -6.0733   22.5262 C   0  0  0  0  0  0
  -21.4017   -6.5638   23.8198 C   0  0  0  0  0  0
  -21.3657   -5.6786   24.9155 C   0  0  0  0  0  0
  -21.6044   -4.3050   24.7206 C   0  0  0  0  0  0
  -21.8828   -3.8145   23.4322 C   0  0  0  0  0  0
  -21.9198   -4.6968   22.3386 C   0  0  0  0  0  0
  -22.7765  -13.5193   21.1888 C   0  0  0  0  0  0
  -22.1668   -4.2156   21.0966 F   0  0  0  0  0  0
  -21.5624   -3.4529   25.7719 F   0  0  0  0  0  0
  -29.9909  -13.5143   20.2900 N   0  0  0  0  0  0
  -26.2903  -12.9396   20.3403 N   0  0  0  0  0  0
  -25.9293  -11.6552   20.5898 N   0  0  0  0  0  0
  -22.0414  -12.8160   22.0427 N   0  0  0  0  0  0
  -25.4163  -15.1917   20.4356 N   0  0  0  0  0  0
  -31.9385  -14.5653   20.4488 O   0  0  0  0  0  0
  -21.6638   -6.8872   21.4226 O   0  0  0  0  0  0
  -22.3454  -14.5518   20.6758 O   0  0  0  0  0  0
  -24.6222  -31.8594   23.2076 C   0  0  0  0  0  0
  -25.9105  -32.4750   23.8368 C   0  0  1  0  0  0
  -27.2234  -27.3487   20.1098 C   0  0  0  0  0  0
  -25.5944  -33.8553   24.2287 N   0  0  0  0  0  0
  -23.4117  -30.4899   21.5452 C   0  0  2  0  0  0
  -24.8571  -28.9489   20.1088 C   0  0  0  0  0  0
  -22.7430  -29.4652   22.4916 C   0  0  0  0  0  0
  -18.0275  -28.1375   22.8481 C   0  0  0  0  0  0
  -24.1513  -36.7302   23.2642 C   0  0  0  0  0  0
  -25.9491  -30.8051   21.3684 C   0  0  0  0  0  0
  -26.0236  -29.4341   20.7125 C   0  0  0  0  0  0
  -27.2061  -28.6434   20.7061 C   0  0  0  0  0  0
  -26.0299  -26.9060   19.4906 C   0  0  0  0  0  0
  -24.8610  -27.6885   19.4926 C   0  0  0  0  0  0
  -23.6255  -29.8279   20.1579 C   0  0  0  0  0  0
  -25.4122  -36.3055   24.0325 C   0  0  1  0  0  0
  -20.5873  -28.3682   23.1280 C   0  0  2  0  0  0
  -20.6785  -26.9405   22.5418 C   0  0  0  0  0  0
  -19.5767  -26.6382   21.5220 C   0  0  0  0  0  0
  -18.1926  -26.7923   22.1605 C   0  0  0  0  0  0
  -19.1526  -28.8834   23.2883 C   0  0  0  0  0  0
  -18.9459  -30.1432   23.8902 C   0  0  0  0  0  0
  -17.6466  -30.6580   24.0564 C   0  0  0  0  0  0
  -25.9046  -34.9425   23.5094 C   0  0  0  0  0  0
  -16.5356  -29.9081   23.6334 C   0  0  0  0  0  0
  -16.7267  -28.6504   23.0341 C   0  0  0  0  0  0
  -26.4539  -31.6546   25.0717 C   0  0  0  0  0  0
  -25.3813  -31.3626   26.1466 C   0  0  0  0  0  0
  -27.0396  -30.2985   24.6122 C   0  0  0  0  0  0
  -27.6072  -32.4298   25.7503 C   0  0  0  0  0  0
  -27.5570  -37.1796   24.8447 C   0  0  0  0  0  0
  -21.4146  -29.3055   22.3663 N   0  0  0  0  0  0
  -26.4288  -37.3753   23.9388 N   0  0  0  0  0  0
  -24.6802  -31.0655   22.0988 N   0  0  0  0  0  0
  -23.4172  -28.8177   23.2970 O   0  0  0  0  0  0
  -28.3796  -26.5640   20.1666 O   0  0  0  0  0  0
  -26.5599  -34.8896   22.4650 O   0  0  0  0  0  0
  -23.5407  -32.1377   23.7466 O   0  0  0  0  0  0
  -29.7764  -19.1851   21.7893 C   0  0  0  0  0  0
  -30.0925  -17.8381   21.4678 C   0  0  0  0  0  0
  -29.5313  -17.2312   20.2964 C   0  0  0  0  0  0
  -28.8514  -19.9190   21.0232 C   0  0  0  0  0  0
  -28.4671  -18.0054   19.7037 C   0  0  0  0  0  0
  -31.0368  -17.1082   22.4140 C   0  0  0  0  0  0
  -27.4985  -17.5036   18.6421 C   0  0  0  0  0  0
  -27.2271  -25.1506   22.9386 C   0  0  0  0  0  0
  -31.6171  -16.7709   19.0885 C   0  0  0  0  0  0
  -29.7724  -15.6818   18.1313 C   0  0  0  0  0  0
  -28.4302  -21.3661   21.4159 C   0  0  0  0  0  0
  -27.0318  -24.2011   21.7466 C   0  0  0  0  0  0
  -28.4840  -22.5369   20.3523 C   0  0  0  0  0  0
  -28.4013  -25.1471   19.7722 C   0  0  0  0  0  0
  -28.3125  -24.0273   20.8929 C   0  0  1  0  0  0
  -30.2993  -16.0474   19.5421 C   0  0  0  0  0  0
  -28.1623  -19.2873   20.0536 N   0  0  0  0  0  0
  -31.4490  -12.4678   19.1215 H   0  0  0  0  0  0
  -30.3591  -11.4524   20.0267 H   0  0  0  0  0  0
  -29.6964  -11.4102   17.6650 H   0  0  0  0  0  0
  -29.6777  -13.1162   17.5200 H   0  0  0  0  0  0
  -27.7404  -11.2780   18.8604 H   0  0  0  0  0  0
  -27.3773  -12.5756   17.7669 H   0  0  0  0  0  0
  -27.5730  -14.2411   19.4466 H   0  0  0  0  0  0
  -28.7318  -12.2838   21.4554 H   0  0  0  0  0  0
  -28.4769  -14.0033   21.6800 H   0  0  0  0  0  0
  -25.2744   -9.5692   22.4766 H   0  0  0  0  0  0
  -24.0011   -7.4624   22.7459 H   0  0  0  0  0  0
  -21.0843   -8.8726   19.8932 H   0  0  0  0  0  0
  -22.3663  -10.9653   19.6158 H   0  0  0  0  0  0
  -21.2012   -7.6147   23.9695 H   0  0  0  0  0  0
  -21.1468   -6.0517   25.9059 H   0  0  0  0  0  0
  -22.0618   -2.7611   23.2806 H   0  0  0  0  0  0
  -22.4041  -11.9814   22.4794 H   0  0  0  0  0  0
  -21.1026  -13.1146   22.2659 H   0  0  0  0  0  0
  -24.6600  -15.8518   20.5808 H   0  0  0  0  0  0
  -26.3055  -15.6374   20.2552 H   0  0  0  0  0  0
  -26.7156  -32.5459   23.1101 H   0  0  0  0  0  0
  -25.0130  -33.9699   25.0459 H   0  0  0  0  0  0
  -22.7066  -31.3121   21.4050 H   0  0  0  0  0  0
  -23.3752  -35.9659   23.3284 H   0  0  0  0  0  0
  -24.3594  -36.8949   22.2058 H   0  0  0  0  0  0
  -23.7327  -37.6515   23.6704 H   0  0  0  0  0  0
  -26.0715  -31.5734   20.6032 H   0  0  0  0  0  0
  -26.8323  -30.8566   21.9931 H   0  0  0  0  0  0
  -28.1013  -29.0096   21.1893 H   0  0  0  0  0  0
  -25.9545  -25.9479   19.0047 H   0  0  0  0  0  0
  -23.9656  -27.3105   19.0175 H   0  0  0  0  0  0
  -23.7456  -30.6073   19.4035 H   0  0  0  0  0  0
  -22.7447  -29.2606   19.8530 H   0  0  0  0  0  0
  -25.1317  -36.1878   25.0819 H   0  0  0  0  0  0
  -20.9990  -28.3303   24.1397 H   0  0  0  0  0  0
  -20.5721  -26.2290   23.3626 H   0  0  0  0  0  0
  -21.6646  -26.7463   22.1187 H   0  0  0  0  0  0
  -19.6945  -25.6308   21.1223 H   0  0  0  0  0  0
  -19.6714  -27.3221   20.6774 H   0  0  0  0  0  0
  -17.4215  -26.6682   21.3988 H   0  0  0  0  0  0
  -18.0283  -26.0058   22.8986 H   0  0  0  0  0  0
  -19.7947  -30.7224   24.2295 H   0  0  0  0  0  0
  -17.5038  -31.6264   24.5155 H   0  0  0  0  0  0
  -15.5359  -30.2982   23.7683 H   0  0  0  0  0  0
  -15.8658  -28.0840   22.7039 H   0  0  0  0  0  0
  -24.6034  -30.6909   25.7816 H   0  0  0  0  0  0
  -24.8972  -32.2765   26.4918 H   0  0  0  0  0  0
  -25.8207  -30.8824   27.0218 H   0  0  0  0  0  0
  -26.2948  -29.6667   24.1268 H   0  0  0  0  0  0
  -27.4256  -29.7286   25.4577 H   0  0  0  0  0  0
  -27.8740  -30.4271   23.9220 H   0  0  0  0  0  0
  -27.2665  -33.3611   26.2038 H   0  0  0  0  0  0
  -28.3934  -32.6813   25.0372 H   0  0  0  0  0  0
  -28.0696  -31.8452   26.5467 H   0  0  0  0  0  0
  -28.2551  -38.0125   24.7479 H   0  0  0  0  0  0
  -28.1095  -36.2634   24.6288 H   0  0  0  0  0  0
  -27.2259  -37.1452   25.8843 H   0  0  0  0  0  0
  -20.9301  -29.8789   21.6900 H   0  0  0  0  0  0
  -26.0147  -38.2811   24.1407 H   0  0  0  0  0  0
  -30.2462  -19.6628   22.6389 H   0  0  0  0  0  0
  -31.1561  -17.6639   23.3448 H   0  0  0  0  0  0
  -32.0322  -16.9705   22.0018 H   0  0  0  0  0  0
  -30.6355  -16.1344   22.6912 H   0  0  0  0  0  0
  -27.8724  -17.6650   17.6328 H   0  0  0  0  0  0
  -26.5481  -18.0357   18.7067 H   0  0  0  0  0  0
  -27.2503  -16.4563   18.7816 H   0  0  0  0  0  0
  -26.3058  -25.2456   23.5114 H   0  0  0  0  0  0
  -27.5172  -26.1512   22.6224 H   0  0  0  0  0  0
  -27.9981  -24.7791   23.6150 H   0  0  0  0  0  0
  -31.4062  -17.6546   18.4838 H   0  0  0  0  0  0
  -32.2593  -16.1311   18.4812 H   0  0  0  0  0  0
  -32.2387  -17.1179   19.9081 H   0  0  0  0  0  0
  -29.7109  -16.5438   17.4693 H   0  0  0  0  0  0
  -28.8172  -15.1785   18.1099 H   0  0  0  0  0  0
  -30.4803  -15.0243   17.6292 H   0  0  0  0  0  0
  -29.0502  -21.6620   22.2618 H   0  0  0  0  0  0
  -27.4193  -21.2760   21.8114 H   0  0  0  0  0  0
  -26.2113  -24.5482   21.1195 H   0  0  0  0  0  0
  -26.6892  -23.2534   22.1556 H   0  0  0  0  0  0
  -27.7417  -22.3401   19.5784 H   0  0  0  0  0  0
  -29.4480  -22.4770   19.8462 H   0  0  0  0  0  0
  -27.7030  -24.9251   18.9699 H   0  0  0  0  0  0
  -29.3690  -25.0164   19.2876 H   0  0  0  0  0  0
  -29.1628  -24.1851   21.5583 H   0  0  0  0  0  0
  1 25  1  0  0  0
  1 30  2  0  0  0
  1 86  1  0  0  0
  2  3  1  0  0  0
  2 25  1  0  0  0
  2 88  1  0  0  0
  2 89  1  0  0  0
  3  4  1  0  0  0
  3 90  1  0  0  0
  3 91  1  0  0  0
  4  5  1  0  0  0
  4 92  1  0  0  0
  4 93  1  0  0  0
  5  6  1  0  0  0
  5 26  1  0  0  0
  5 94  1  0  0  0
  6 25  1  0  0  0
  6 95  1  0  0  0
  6 96  1  0  0  0
  7  8  2  0  0  0
  7 26  1  0  0  0
  7 29  1  0  0  0
  8  9  1  0  0  0
  8 22  1  0  0  0
  9 10  1  0  0  0
  9 27  2  0  0  0
 10 11  2  0  0  0
 10 15  1  0  0  0
 11 12  1  0  0  0
 11 97  1  0  0  0
 12 13  2  0  0  0
 12 98  1  0  0  0
 13 14  1  0  0  0
 13 31  1  0  0  0
 14 15  2  0  0  0
 14 99  1  0  0  0
 15100  1  0  0  0
 16 17  2  0  0  0
 16 21  1  0  0  0
 16 31  1  0  0  0
 17 18  1  0  0  0
 17101  1  0  0  0
 18 19  2  0  0  0
 18102  1  0  0  0
 19 20  1  0  0  0
 19 24  1  0  0  0
 20 21  2  0  0  0
 20103  1  0  0  0
 21 23  1  0  0  0
 22 28  1  0  0  0
 22 32  2  0  0  0
 26 27  1  0  0  0
 28104  1  0  0  0
 28105  1  0  0  0
 29106  1  0  0  0
 29107  1  0  0  0
 33 34  1  0  0  0
 33 66  1  0  0  0
 33 70  2  0  0  0
 34 36  1  0  0  0
 34 59  1  0  0  0
 34108  1  0  0  0
 35 44  2  0  0  0
 35 45  1  0  0  0
 35 68  1  0  0  0
 36 56  1  0  0  0
 36109  1  0  0  0
 37 39  1  0  0  0
 37 47  1  0  0  0
 37 66  1  0  0  0
 37110  1  0  0  0
 38 43  2  0  0  0
 38 46  1  0  0  0
 38 47  1  0  0  0
 39 64  1  0  0  0
 39 67  2  0  0  0
 40 52  1  0  0  0
 40 53  2  0  0  0
 40 58  1  0  0  0
 41111  1  0  0  0
 41112  1  0  0  0
 41113  1  0  0  0
 41 48  1  0  0  0
 42 43  1  0  0  0
 42 66  1  0  0  0
 42114  1  0  0  0
 42115  1  0  0  0
 43 44  1  0  0  0
 44116  1  0  0  0
 45 46  2  0  0  0
 45117  1  0  0  0
 46118  1  0  0  0
 47119  1  0  0  0
 47120  1  0  0  0
 48 56  1  0  0  0
 48 65  1  0  0  0
 48121  1  0  0  0
 49 50  1  0  0  0
 49 53  1  0  0  0
 49 64  1  0  0  0
 49122  1  0  0  0
 50 51  1  0  0  0
 50123  1  0  0  0
 50124  1  0  0  0
 51 52  1  0  0  0
 51125  1  0  0  0
 51126  1  0  0  0
 52127  1  0  0  0
 52128  1  0  0  0
 53 54  1  0  0  0
 54 55  2  0  0  0
 54129  1  0  0  0
 55 57  1  0  0  0
 55130  1  0  0  0
 56 69  2  0  0  0
 57 58  2  0  0  0
 57131  1  0  0  0
 58132  1  0  0  0
 59 60  1  0  0  0
 59 61  1  0  0  0
 59 62  1  0  0  0
 60133  1  0  0  0
 60134  1  0  0  0
 60135  1  0  0  0
 61136  1  0  0  0
 61137  1  0  0  0
 61138  1  0  0  0
 62139  1  0  0  0
 62140  1  0  0  0
 62141  1  0  0  0
 63 65  1  0  0  0
 63142  1  0  0  0
 63143  1  0  0  0
 63144  1  0  0  0
 64145  1  0  0  0
 65146  1  0  0  0
 68 84  1  0  0  0
 71 72  2  0  0  0
 71 74  1  0  0  0
 71147  1  0  0  0
 72 73  1  0  0  0
 72 76  1  0  0  0
 73 75  2  0  0  0
 73 86  1  0  0  0
 74 81  1  0  0  0
 74 87  2  0  0  0
 75 77  1  0  0  0
 75 87  1  0  0  0
 76148  1  0  0  0
 76149  1  0  0  0
 76150  1  0  0  0
 77151  1  0  0  0
 77152  1  0  0  0
 77153  1  0  0  0
 78 82  1  0  0  0
 78154  1  0  0  0
 78155  1  0  0  0
 78156  1  0  0  0
 79157  1  0  0  0
 79158  1  0  0  0
 79159  1  0  0  0
 79 86  1  0  0  0
 80 86  1  0  0  0
 80160  1  0  0  0
 80161  1  0  0  0
 80162  1  0  0  0
 81 83  1  0  0  0
 81163  1  0  0  0
 81164  1  0  0  0
 82165  1  0  0  0
 82166  1  0  0  0
 82 85  1  0  0  0
 83 85  1  0  0  0
 83167  1  0  0  0
 83168  1  0  0  0
 84 85  1  0  0  0
 84169  1  0  0  0
 84170  1  0  0  0
 85171  1  0  0  0
M  ISO  4   1 100  68 101  84 101  86 100
M  END
> <chiral flag>
0

> <version>
0

> <s_m_source_file>
/data/baiqing/PycharmProjects/Reinvent-master-3.2/result/LINK_invent/BTK/process_docking_weight1_custom_sum_contain_oxygen_bond_distance_aromatic_linkinvent_7_9_3/rearranged_h_0102.sdf

> <i_m_source_file_index>
39

> <r_mmod_Potential_Energy-OPLS-2005>
201.658309936523

> <r_mmod_Stretch_Energy-OPLS-2005>
90.4527359008789

> <r_mmod_Bend_Energy-OPLS-2005>
203.747787475586

> <r_mmod_Torsional_Energy-OPLS-2005>
270.650054931641

> <r_mmod_Improper_Torsional_Energy-OPLS-2005>
21.1667728424072

> <r_mmod_Van_der_Waal_Energy-OPLS-2005>
171.21647644043

> <r_mmod_Electrostatic_Energy-OPLS-2005>
-460.991882324219

> <r_mmod_Solvation_Energy-OPLS-2005>
-184.78515625

> <b_mmod_Minimization_Converged-OPLS-2005>
0

> <r_mmod_RMS_Derivative-OPLS-2005>
2.32029318809509

$$$$
39
                    3D
 Structure written by MMmdl.
170178  0  0  1  0            999 V2000
  -30.5903  -14.7384   20.4925 C   0  0  0  0  0  0
  -30.4531  -12.4669   19.4714 C   0  0  0  0  0  0
  -29.5165  -12.4983   18.2438 C   0  0  0  0  0  0
  -28.0487  -12.2984   18.6658 C   0  0  0  0  0  0
  -27.6472  -13.2155   19.8500 C   0  0  2  0  0  0
  -28.6866  -13.1444   20.9896 C   0  0  0  0  0  0
  -25.2471  -13.8105   20.5386 C   0  0  0  0  0  0
  -24.1819  -13.0413   20.9194 C   0  0  0  0  0  0
  -24.6415  -11.6881   20.8857 C   0  0  0  0  0  0
  -23.9056  -10.4281   21.0494 C   0  0  0  0  0  0
  -24.3604   -9.4175   21.9230 C   0  0  0  0  0  0
  -23.6282   -8.2209   22.0754 C   0  0  0  0  0  0
  -22.4262   -8.0273   21.3541 C   0  0  0  0  0  0
  -21.9916   -9.0250   20.4643 C   0  0  0  0  0  0
  -22.7240  -10.2126   20.3103 C   0  0  0  0  0  0
  -21.6834   -6.0733   22.5255 C   0  0  0  0  0  0
  -21.4004   -6.5638   23.8202 C   0  0  0  0  0  0
  -21.3664   -5.6783   24.9165 C   0  0  0  0  0  0
  -21.6041   -4.3053   24.7197 C   0  0  0  0  0  0
  -21.8834   -3.8133   23.4320 C   0  0  0  0  0  0
  -21.9201   -4.6956   22.3369 C   0  0  0  0  0  0
  -22.7845  -13.5222   21.1804 C   0  0  0  0  0  0
  -22.1676   -4.2158   21.0949 F   0  0  0  0  0  0
  -21.5624   -3.4534   25.7712 F   0  0  0  0  0  0
  -29.9893  -13.5056   20.4156 N   0  0  0  0  0  0
  -26.2970  -12.9296   20.3234 N   0  0  0  0  0  0
  -25.9351  -11.6494   20.5885 N   0  0  0  0  0  0
  -22.0456  -12.8273   22.0376 N   0  0  0  0  0  0
  -25.4009  -15.1694   20.2914 N   0  0  0  0  0  0
  -31.7666  -14.8809   20.1527 O   0  0  0  0  0  0
  -21.6634   -6.8855   21.4212 O   0  0  0  0  0  0
  -22.3622  -14.5559   20.6623 O   0  0  0  0  0  0
  -24.6284  -31.8543   23.1953 C   0  0  0  0  0  0
  -25.9114  -32.4766   23.8307 C   0  0  1  0  0  0
  -27.2339  -27.2900   20.1126 C   0  0  0  0  0  0
  -25.5946  -33.8579   24.2253 N   0  0  0  0  0  0
  -23.4203  -30.4768   21.5379 C   0  0  2  0  0  0
  -24.8715  -28.9202   20.1054 C   0  0  0  0  0  0
  -22.7485  -29.4570   22.4892 C   0  0  0  0  0  0
  -18.0305  -28.1401   22.8495 C   0  0  0  0  0  0
  -24.1499  -36.7266   23.2643 C   0  0  0  0  0  0
  -25.9614  -30.7776   21.3672 C   0  0  0  0  0  0
  -26.0378  -29.4002   20.7139 C   0  0  0  0  0  0
  -27.2141  -28.5921   20.7147 C   0  0  0  0  0  0
  -26.0452  -26.8652   19.4827 C   0  0  0  0  0  0
  -24.8776  -27.6588   19.4834 C   0  0  0  0  0  0
  -23.6417  -29.8096   20.1546 C   0  0  0  0  0  0
  -25.4108  -36.3047   24.0327 C   0  0  1  0  0  0
  -20.5907  -28.3692   23.1285 C   0  0  2  0  0  0
  -20.6800  -26.9424   22.5386 C   0  0  0  0  0  0
  -19.5774  -26.6398   21.5203 C   0  0  0  0  0  0
  -18.1956  -26.7937   22.1626 C   0  0  0  0  0  0
  -19.1550  -28.8853   23.2899 C   0  0  0  0  0  0
  -18.9496  -30.1477   23.8898 C   0  0  0  0  0  0
  -17.6494  -30.6599   24.0589 C   0  0  0  0  0  0
  -25.9071  -34.9455   23.5074 C   0  0  0  0  0  0
  -16.5395  -29.9101   23.6362 C   0  0  0  0  0  0
  -16.7290  -28.6539   23.0331 C   0  0  0  0  0  0
  -26.4502  -31.6587   25.0695 C   0  0  0  0  0  0
  -25.3729  -31.3722   26.1418 C   0  0  0  0  0  0
  -27.0355  -30.3035   24.6105 C   0  0  0  0  0  0
  -27.6098  -32.4315   25.7427 C   0  0  0  0  0  0
  -27.5567  -37.1754   24.8475 C   0  0  0  0  0  0
  -21.4186  -29.3035   22.3652 N   0  0  0  0  0  0
  -26.4265  -37.3762   23.9440 N   0  0  0  0  0  0
  -24.6892  -31.0514   22.0925 N   0  0  0  0  0  0
  -23.4180  -28.8115   23.2990 O   0  0  0  0  0  0
  -28.3730  -26.4737   20.2179 O   0  0  0  0  0  0
  -26.5624  -34.8911   22.4636 O   0  0  0  0  0  0
  -23.5426  -32.1396   23.7230 O   0  0  0  0  0  0
  -29.0055  -22.6126   20.1805 C   0  0  0  0  0  0
  -27.0652  -21.2144   20.3038 C   0  0  0  0  0  0
  -28.4754  -21.2826   20.3865 C   0  0  0  0  0  0
  -28.1659  -23.7668   19.9287 C   0  0  0  0  0  0
  -26.2864  -22.3699   20.0198 C   0  0  0  0  0  0
  -28.6242  -25.4139   17.9764 C   0  0  0  0  0  0
  -24.0850  -21.0544   20.3083 C   0  0  0  0  0  0
  -24.6589  -22.1826   18.1383 C   0  0  0  0  0  0
  -24.0111  -23.5197   20.1875 C   0  0  0  0  0  0
  -29.3720  -20.0080   20.7704 C   0  0  0  0  0  0
  -30.1255  -17.3238   20.8347 C   0  0  0  0  0  0
  -28.6953  -25.2041   19.4976 C   0  0  1  0  0  0
  -29.0741  -18.4560   20.3397 C   0  0  1  0  0  0
  -24.7845  -22.2786   19.6749 C   0  0  0  0  0  0
  -26.8352  -23.5954   19.8426 N   0  0  0  0  0  0
  -29.7845  -15.8310   20.7677 N   0  0  0  0  0  0
  -27.7106  -18.0239   20.6989 N   0  3  0  0  0  0
  -31.4827  -12.6400   19.1488 H   0  0  0  0  0  0
  -30.4460  -11.4910   19.9569 H   0  0  0  0  0  0
  -29.8168  -11.7353   17.5252 H   0  0  0  0  0  0
  -29.6205  -13.4549   17.7324 H   0  0  0  0  0  0
  -27.9315  -11.2559   18.9666 H   0  0  0  0  0  0
  -27.3826  -12.4592   17.8166 H   0  0  0  0  0  0
  -27.6536  -14.2330   19.4586 H   0  0  0  0  0  0
  -28.7268  -12.1459   21.4278 H   0  0  0  0  0  0
  -28.4134  -13.8243   21.7980 H   0  0  0  0  0  0
  -25.2758   -9.5662   22.4807 H   0  0  0  0  0  0
  -24.0010   -7.4592   22.7467 H   0  0  0  0  0  0
  -21.0856   -8.8747   19.8932 H   0  0  0  0  0  0
  -22.3705  -10.9667   19.6210 H   0  0  0  0  0  0
  -21.1995   -7.6148   23.9703 H   0  0  0  0  0  0
  -21.1482   -6.0517   25.9077 H   0  0  0  0  0  0
  -22.0616   -2.7598   23.2811 H   0  0  0  0  0  0
  -22.4062  -11.9945   22.4796 H   0  0  0  0  0  0
  -21.1051  -13.1318   22.2501 H   0  0  0  0  0  0
  -24.4805  -15.5999   20.2762 H   0  0  0  0  0  0
  -25.8042  -15.2496   19.3630 H   0  0  0  0  0  0
  -26.7160  -32.5465   23.1037 H   0  0  0  0  0  0
  -25.0140  -33.9755   25.0415 H   0  0  0  0  0  0
  -22.7166  -31.3003   21.3905 H   0  0  0  0  0  0
  -23.3798  -35.9581   23.3273 H   0  0  0  0  0  0
  -24.3588  -36.8898   22.2074 H   0  0  0  0  0  0
  -23.7210  -37.6433   23.6684 H   0  0  0  0  0  0
  -26.0776  -31.5326   20.5874 H   0  0  0  0  0  0
  -26.8500  -30.8447   21.9826 H   0  0  0  0  0  0
  -28.1097  -28.9451   21.2070 H   0  0  0  0  0  0
  -25.9951  -25.8906   19.0275 H   0  0  0  0  0  0
  -23.9830  -27.2748   19.0168 H   0  0  0  0  0  0
  -23.7638  -30.5953   19.4066 H   0  0  0  0  0  0
  -22.7595  -29.2461   19.8429 H   0  0  0  0  0  0
  -25.1260  -36.1898   25.0813 H   0  0  0  0  0  0
  -21.0033  -28.3307   24.1391 H   0  0  0  0  0  0
  -20.5765  -26.2308   23.3570 H   0  0  0  0  0  0
  -21.6664  -26.7477   22.1145 H   0  0  0  0  0  0
  -19.6966  -25.6310   21.1224 H   0  0  0  0  0  0
  -19.6752  -27.3242   20.6758 H   0  0  0  0  0  0
  -17.4223  -26.6768   21.4018 H   0  0  0  0  0  0
  -18.0350  -26.0033   22.8982 H   0  0  0  0  0  0
  -19.7983  -30.7301   24.2260 H   0  0  0  0  0  0
  -17.5069  -31.6276   24.5190 H   0  0  0  0  0  0
  -15.5410  -30.3018   23.7654 H   0  0  0  0  0  0
  -15.8700  -28.0872   22.6992 H   0  0  0  0  0  0
  -24.5947  -30.7004   25.7725 H   0  0  0  0  0  0
  -24.8865  -32.2910   26.4771 H   0  0  0  0  0  0
  -25.8043  -30.8953   27.0236 H   0  0  0  0  0  0
  -26.2913  -29.6774   24.1166 H   0  0  0  0  0  0
  -27.4178  -29.7273   25.4547 H   0  0  0  0  0  0
  -27.8709  -30.4371   23.9212 H   0  0  0  0  0  0
  -27.2774  -33.3693   26.1892 H   0  0  0  0  0  0
  -28.3936  -32.6741   25.0233 H   0  0  0  0  0  0
  -28.0735  -31.8501   26.5414 H   0  0  0  0  0  0
  -28.2514  -38.0105   24.7527 H   0  0  0  0  0  0
  -28.1094  -36.2628   24.6248 H   0  0  0  0  0  0
  -27.2294  -37.1290   25.8872 H   0  0  0  0  0  0
  -20.9363  -29.8733   21.6862 H   0  0  0  0  0  0
  -26.0148  -38.2813   24.1540 H   0  0  0  0  0  0
  -30.0774  -22.7532   20.1974 H   0  0  0  0  0  0
  -26.5633  -20.2765   20.4308 H   0  0  0  0  0  0
  -29.1980  -24.6484   17.4552 H   0  0  0  0  0  0
  -29.0317  -26.3832   17.6900 H   0  0  0  0  0  0
  -27.6004  -25.3551   17.6104 H   0  0  0  0  0  0
  -24.5109  -20.1056   19.9890 H   0  0  0  0  0  0
  -23.0343  -21.0189   20.0196 H   0  0  0  0  0  0
  -24.1171  -21.0946   21.3978 H   0  0  0  0  0  0
  -25.1767  -21.2971   17.7605 H   0  0  0  0  0  0
  -25.1050  -23.0505   17.6504 H   0  0  0  0  0  0
  -23.6205  -22.1238   17.8119 H   0  0  0  0  0  0
  -24.1495  -23.6581   21.2619 H   0  0  0  0  0  0
  -22.9404  -23.4353   20.0027 H   0  0  0  0  0  0
  -24.3322  -24.4389   19.6988 H   0  0  0  0  0  0
  -29.4504  -20.0341   21.8595 H   0  0  0  0  0  0
  -30.3766  -20.2396   20.4142 H   0  0  0  0  0  0
  -30.3298  -17.5358   21.8869 H   0  0  0  0  0  0
  -31.0729  -17.4893   20.3220 H   0  0  0  0  0  0
  -29.7642  -25.1296   19.7041 H   0  0  0  0  0  0
  -29.1160  -18.4426   19.2485 H   0  0  0  0  0  0
  -28.8571  -15.5668   21.0517 H   0  0  0  0  0  0
  -27.6078  -17.8746   21.6889 H   0  0  0  0  0  0
  -27.4714  -17.1754   20.2173 H   0  0  0  0  0  0
  -27.0544  -18.7244   20.4088 H   0  0  0  0  0  0
  1 25  1  0  0  0
  1 30  2  0  0  0
  1 86  1  0  0  0
  2  3  1  0  0  0
  2 25  1  0  0  0
  2 88  1  0  0  0
  2 89  1  0  0  0
  3  4  1  0  0  0
  3 90  1  0  0  0
  3 91  1  0  0  0
  4  5  1  0  0  0
  4 92  1  0  0  0
  4 93  1  0  0  0
  5  6  1  0  0  0
  5 26  1  0  0  0
  5 94  1  0  0  0
  6 25  1  0  0  0
  6 95  1  0  0  0
  6 96  1  0  0  0
  7  8  2  0  0  0
  7 26  1  0  0  0
  7 29  1  0  0  0
  8  9  1  0  0  0
  8 22  1  0  0  0
  9 10  1  0  0  0
  9 27  2  0  0  0
 10 11  2  0  0  0
 10 15  1  0  0  0
 11 12  1  0  0  0
 11 97  1  0  0  0
 12 13  2  0  0  0
 12 98  1  0  0  0
 13 14  1  0  0  0
 13 31  1  0  0  0
 14 15  2  0  0  0
 14 99  1  0  0  0
 15100  1  0  0  0
 16 17  2  0  0  0
 16 21  1  0  0  0
 16 31  1  0  0  0
 17 18  1  0  0  0
 17101  1  0  0  0
 18 19  2  0  0  0
 18102  1  0  0  0
 19 20  1  0  0  0
 19 24  1  0  0  0
 20 21  2  0  0  0
 20103  1  0  0  0
 21 23  1  0  0  0
 22 28  1  0  0  0
 22 32  2  0  0  0
 26 27  1  0  0  0
 28104  1  0  0  0
 28105  1  0  0  0
 29106  1  0  0  0
 29107  1  0  0  0
 33 34  1  0  0  0
 33 66  1  0  0  0
 33 70  2  0  0  0
 34 36  1  0  0  0
 34 59  1  0  0  0
 34108  1  0  0  0
 35 44  2  0  0  0
 35 45  1  0  0  0
 35 68  1  0  0  0
 36 56  1  0  0  0
 36109  1  0  0  0
 37 39  1  0  0  0
 37 47  1  0  0  0
 37 66  1  0  0  0
 37110  1  0  0  0
 38 43  2  0  0  0
 38 46  1  0  0  0
 38 47  1  0  0  0
 39 64  1  0  0  0
 39 67  2  0  0  0
 40 52  1  0  0  0
 40 53  2  0  0  0
 40 58  1  0  0  0
 41111  1  0  0  0
 41112  1  0  0  0
 41113  1  0  0  0
 41 48  1  0  0  0
 42 43  1  0  0  0
 42 66  1  0  0  0
 42114  1  0  0  0
 42115  1  0  0  0
 43 44  1  0  0  0
 44116  1  0  0  0
 45 46  2  0  0  0
 45117  1  0  0  0
 46118  1  0  0  0
 47119  1  0  0  0
 47120  1  0  0  0
 48 56  1  0  0  0
 48 65  1  0  0  0
 48121  1  0  0  0
 49 50  1  0  0  0
 49 53  1  0  0  0
 49 64  1  0  0  0
 49122  1  0  0  0
 50 51  1  0  0  0
 50123  1  0  0  0
 50124  1  0  0  0
 51 52  1  0  0  0
 51125  1  0  0  0
 51126  1  0  0  0
 52127  1  0  0  0
 52128  1  0  0  0
 53 54  1  0  0  0
 54 55  2  0  0  0
 54129  1  0  0  0
 55 57  1  0  0  0
 55130  1  0  0  0
 56 69  2  0  0  0
 57 58  2  0  0  0
 57131  1  0  0  0
 58132  1  0  0  0
 59 60  1  0  0  0
 59 61  1  0  0  0
 59 62  1  0  0  0
 60133  1  0  0  0
 60134  1  0  0  0
 60135  1  0  0  0
 61136  1  0  0  0
 61137  1  0  0  0
 61138  1  0  0  0
 62139  1  0  0  0
 62140  1  0  0  0
 62141  1  0  0  0
 63 65  1  0  0  0
 63142  1  0  0  0
 63143  1  0  0  0
 63144  1  0  0  0
 64145  1  0  0  0
 65146  1  0  0  0
 68 82  1  0  0  0
 71 73  2  0  0  0
 71 74  1  0  0  0
 71147  1  0  0  0
 72 73  1  0  0  0
 72 75  2  0  0  0
 72148  1  0  0  0
 73 80  1  0  0  0
 74 82  1  0  0  0
 74 85  2  0  0  0
 75 84  1  0  0  0
 75 85  1  0  0  0
 76149  1  0  0  0
 76150  1  0  0  0
 76151  1  0  0  0
 76 82  1  0  0  0
 77152  1  0  0  0
 77153  1  0  0  0
 77154  1  0  0  0
 77 84  1  0  0  0
 78 84  1  0  0  0
 78155  1  0  0  0
 78156  1  0  0  0
 78157  1  0  0  0
 79 84  1  0  0  0
 79158  1  0  0  0
 79159  1  0  0  0
 79160  1  0  0  0
 80 83  1  0  0  0
 80161  1  0  0  0
 80162  1  0  0  0
 81 83  1  0  0  0
 81 86  1  0  0  0
 81163  1  0  0  0
 81164  1  0  0  0
 82165  1  0  0  0
 83 87  1  0  0  0
 83166  1  0  0  0
 86167  1  0  0  0
 87168  1  0  0  0
 87169  1  0  0  0
 87170  1  0  0  0
M  CHG  1  87   1
M  ISO  4   1 100  68 101  82 101  86 100
M  END
> <chiral flag>
0

> <version>
0

> <s_m_source_file>
/data/baiqing/PycharmProjects/Reinvent-master-3.2/result/LINK_invent/BTK/process_docking_weight1_custom_sum_contain_oxygen_bond_distance_aromatic_linkinvent_7_9_3/rearranged_h_0102.sdf

> <i_m_source_file_index>
40

> <r_mmod_Potential_Energy-OPLS-2005>
-277.986389160156

> <r_mmod_Stretch_Energy-OPLS-2005>
121.886680603027

> <r_mmod_Bend_Energy-OPLS-2005>
201.890090942383

> <r_mmod_Torsional_Energy-OPLS-2005>
243.586166381836

> <r_mmod_Improper_Torsional_Energy-OPLS-2005>
13.4149961471558

> <r_mmod_Van_der_Waal_Energy-OPLS-2005>
136.450119018555

> <r_mmod_Electrostatic_Energy-OPLS-2005>
-556.352661132812

> <r_mmod_Solvation_Energy-OPLS-2005>
-517.027770996094

> <b_mmod_Minimization_Converged-OPLS-2005>
0

> <r_mmod_RMS_Derivative-OPLS-2005>
5.95027685165405

$$$$
41
                    3D
 Structure written by MMmdl.
160168  0  0  1  0            999 V2000
  -30.6651  -14.5308   20.5304 C   0  0  0  0  0  0
  -30.4236  -12.3308   19.4360 C   0  0  0  0  0  0
  -29.4966  -12.5011   18.2137 C   0  0  0  0  0  0
  -28.0187  -12.3503   18.6268 C   0  0  0  0  0  0
  -27.6562  -13.2081   19.8686 C   0  0  2  0  0  0
  -28.6983  -13.0206   20.9947 C   0  0  0  0  0  0
  -25.2573  -13.8155   20.5678 C   0  0  0  0  0  0
  -24.1828  -13.0431   20.9183 C   0  0  0  0  0  0
  -24.6382  -11.6898   20.8746 C   0  0  0  0  0  0
  -23.9047  -10.4285   21.0414 C   0  0  0  0  0  0
  -24.3609   -9.4204   21.9191 C   0  0  0  0  0  0
  -23.6285   -8.2237   22.0760 C   0  0  0  0  0  0
  -22.4269   -8.0277   21.3542 C   0  0  0  0  0  0
  -21.9898   -9.0248   20.4650 C   0  0  0  0  0  0
  -22.7219  -10.2130   20.3062 C   0  0  0  0  0  0
  -21.6847   -6.0740   22.5276 C   0  0  0  0  0  0
  -21.4013   -6.5646   23.8215 C   0  0  0  0  0  0
  -21.3654   -5.6802   24.9173 C   0  0  0  0  0  0
  -21.6044   -4.3063   24.7233 C   0  0  0  0  0  0
  -21.8818   -3.8150   23.4349 C   0  0  0  0  0  0
  -21.9187   -4.6965   22.3406 C   0  0  0  0  0  0
  -22.7855  -13.5223   21.1844 C   0  0  0  0  0  0
  -22.1656   -4.2148   21.0982 F   0  0  0  0  0  0
  -21.5623   -3.4550   25.7743 F   0  0  0  0  0  0
  -30.0240  -13.3320   20.4386 N   0  0  0  0  0  0
  -26.2994  -12.9322   20.3336 N   0  0  0  0  0  0
  -25.9309  -11.6485   20.5771 N   0  0  0  0  0  0
  -22.0504  -12.8222   22.0415 N   0  0  0  0  0  0
  -25.4311  -15.1876   20.4086 N   0  0  0  0  0  0
  -31.8116  -14.7034   20.1081 O   0  0  0  0  0  0
  -21.6631   -6.8874   21.4238 O   0  0  0  0  0  0
  -22.3535  -14.5521   20.6675 O   0  0  0  0  0  0
  -24.6190  -31.8644   23.2074 C   0  0  0  0  0  0
  -25.9075  -32.4800   23.8373 C   0  0  1  0  0  0
  -27.2228  -27.3951   20.1072 C   0  0  0  0  0  0
  -25.5911  -33.8597   24.2296 N   0  0  0  0  0  0
  -23.4088  -30.4884   21.5481 C   0  0  2  0  0  0
  -24.8568  -28.9506   20.1120 C   0  0  0  0  0  0
  -22.7428  -29.4646   22.4967 C   0  0  0  0  0  0
  -18.0279  -28.1381   22.8482 C   0  0  0  0  0  0
  -24.1490  -36.7311   23.2641 C   0  0  0  0  0  0
  -25.9415  -30.8190   21.3669 C   0  0  0  0  0  0
  -26.0193  -29.4501   20.7149 C   0  0  0  0  0  0
  -27.2104  -28.6793   20.7101 C   0  0  0  0  0  0
  -26.0509  -26.9259   19.4832 C   0  0  0  0  0  0
  -24.8684  -27.6898   19.4917 C   0  0  0  0  0  0
  -23.6198  -29.8212   20.1630 C   0  0  0  0  0  0
  -25.4111  -36.3086   24.0329 C   0  0  1  0  0  0
  -20.5868  -28.3670   23.1305 C   0  0  2  0  0  0
  -20.6764  -26.9400   22.5419 C   0  0  0  0  0  0
  -19.5747  -26.6383   21.5210 C   0  0  0  0  0  0
  -18.1926  -26.7927   22.1621 C   0  0  0  0  0  0
  -19.1526  -28.8842   23.2889 C   0  0  0  0  0  0
  -18.9454  -30.1449   23.8898 C   0  0  0  0  0  0
  -17.6454  -30.6584   24.0567 C   0  0  0  0  0  0
  -25.9040  -34.9459   23.5108 C   0  0  0  0  0  0
  -16.5344  -29.9086   23.6328 C   0  0  0  0  0  0
  -16.7266  -28.6507   23.0339 C   0  0  0  0  0  0
  -26.4492  -31.6590   25.0712 C   0  0  0  0  0  0
  -25.3763  -31.3704   26.1462 C   0  0  0  0  0  0
  -27.0321  -30.3022   24.6118 C   0  0  0  0  0  0
  -27.6051  -32.4322   25.7482 C   0  0  0  0  0  0
  -27.5571  -37.1809   24.8464 C   0  0  0  0  0  0
  -21.4152  -29.3034   22.3706 N   0  0  0  0  0  0
  -26.4291  -37.3775   23.9397 N   0  0  0  0  0  0
  -24.6746  -31.0717   22.0992 N   0  0  0  0  0  0
  -23.4182  -28.8195   23.3033 O   0  0  0  0  0  0
  -28.3372  -26.5738   20.0969 O   0  0  0  0  0  0
  -26.5598  -34.8915   22.4667 O   0  0  0  0  0  0
  -23.5372  -32.1414   23.7450 O   0  0  0  0  0  0
  -29.9547  -19.9496   19.4283 C   0  0  0  0  0  0
  -28.5289  -20.5688   21.0112 C   0  0  0  0  0  0
  -29.1878  -19.4587   20.5257 C   0  0  0  0  0  0
  -29.6878  -21.2823   19.2379 C   0  0  0  0  0  0
  -30.1743  -22.1983   18.1602 C   0  0  0  0  0  0
  -27.2606  -25.4161   22.0994 C   0  0  0  0  0  0
  -29.0562  -17.9999   21.0120 C   0  0  0  0  0  0
  -29.1120  -24.2169   20.7346 C   0  0  0  0  0  0
  -28.1623  -23.0288   20.3652 C   0  0  0  0  0  0
  -30.2156  -17.0124   20.6536 C   0  0  0  0  0  0
  -28.4819  -25.5959   21.1682 C   0  0  1  0  0  0
  -28.8004  -21.6921   20.2251 N   0  0  0  0  0  0
  -29.9001  -15.5828   20.9067 N   0  0  0  0  0  0
  -31.4682  -12.4324   19.1361 H   0  0  0  0  0  0
  -30.3284  -11.3266   19.8515 H   0  0  0  0  0  0
  -29.7471  -11.7663   17.4479 H   0  0  0  0  0  0
  -29.6538  -13.4821   17.7613 H   0  0  0  0  0  0
  -27.8454  -11.2955   18.8461 H   0  0  0  0  0  0
  -27.3616  -12.5953   17.7902 H   0  0  0  0  0  0
  -27.6888  -14.2498   19.5483 H   0  0  0  0  0  0
  -28.6825  -11.9923   21.3596 H   0  0  0  0  0  0
  -28.4591  -13.6431   21.8586 H   0  0  0  0  0  0
  -25.2761   -9.5690   22.4762 H   0  0  0  0  0  0
  -23.9998   -7.4637   22.7487 H   0  0  0  0  0  0
  -21.0827   -8.8759   19.8967 H   0  0  0  0  0  0
  -22.3666  -10.9671   19.6176 H   0  0  0  0  0  0
  -21.2007   -7.6154   23.9713 H   0  0  0  0  0  0
  -21.1478   -6.0535   25.9076 H   0  0  0  0  0  0
  -22.0599   -2.7613   23.2850 H   0  0  0  0  0  0
  -22.4100  -11.9868   22.4791 H   0  0  0  0  0  0
  -21.1133  -13.1271   22.2640 H   0  0  0  0  0  0
  -24.6678  -15.8453   20.5268 H   0  0  0  0  0  0
  -26.2782  -15.6252   20.0697 H   0  0  0  0  0  0
  -26.7146  -32.5500   23.1131 H   0  0  0  0  0  0
  -25.0051  -33.9747   25.0436 H   0  0  0  0  0  0
  -22.7002  -31.3073   21.4072 H   0  0  0  0  0  0
  -23.3722  -35.9675   23.3324 H   0  0  0  0  0  0
  -24.3576  -36.8908   22.2051 H   0  0  0  0  0  0
  -23.7282  -37.6539   23.6647 H   0  0  0  0  0  0
  -26.0572  -31.5840   20.5978 H   0  0  0  0  0  0
  -26.8285  -30.8724   21.9866 H   0  0  0  0  0  0
  -28.1085  -29.0548   21.1806 H   0  0  0  0  0  0
  -26.0491  -25.9554   19.0070 H   0  0  0  0  0  0
  -23.9759  -27.3027   19.0194 H   0  0  0  0  0  0
  -23.7293  -30.5959   19.4029 H   0  0  0  0  0  0
  -22.7429  -29.2432   19.8659 H   0  0  0  0  0  0
  -25.1297  -36.1938   25.0823 H   0  0  0  0  0  0
  -20.9963  -28.3240   24.1425 H   0  0  0  0  0  0
  -20.5658  -26.2276   23.3609 H   0  0  0  0  0  0
  -21.6637  -26.7440   22.1215 H   0  0  0  0  0  0
  -19.6907  -25.6296   21.1236 H   0  0  0  0  0  0
  -19.6692  -27.3195   20.6743 H   0  0  0  0  0  0
  -17.4195  -26.6663   21.4029 H   0  0  0  0  0  0
  -18.0336  -26.0072   22.9023 H   0  0  0  0  0  0
  -19.7930  -30.7266   24.2263 H   0  0  0  0  0  0
  -17.5011  -31.6266   24.5170 H   0  0  0  0  0  0
  -15.5345  -30.2989   23.7660 H   0  0  0  0  0  0
  -15.8662  -28.0841   22.7038 H   0  0  0  0  0  0
  -24.5938  -30.7045   25.7804 H   0  0  0  0  0  0
  -24.8960  -32.2865   26.4912 H   0  0  0  0  0  0
  -25.8134  -30.8877   27.0214 H   0  0  0  0  0  0
  -26.2867  -29.6774   24.1183 H   0  0  0  0  0  0
  -27.4075  -29.7269   25.4591 H   0  0  0  0  0  0
  -27.8712  -30.4302   23.9275 H   0  0  0  0  0  0
  -27.2651  -33.3610   26.2074 H   0  0  0  0  0  0
  -28.3863  -32.6911   25.0323 H   0  0  0  0  0  0
  -28.0724  -31.8448   26.5396 H   0  0  0  0  0  0
  -28.2607  -38.0085   24.7466 H   0  0  0  0  0  0
  -28.1042  -36.2611   24.6340 H   0  0  0  0  0  0
  -27.2277  -37.1523   25.8865 H   0  0  0  0  0  0
  -20.9312  -29.8758   21.6925 H   0  0  0  0  0  0
  -26.0168  -38.2851   24.1383 H   0  0  0  0  0  0
  -30.6042  -19.3656   18.7900 H   0  0  0  0  0  0
  -27.8306  -20.6498   21.8358 H   0  0  0  0  0  0
  -30.5518  -21.6282   17.3099 H   0  0  0  0  0  0
  -30.9843  -22.8324   18.5187 H   0  0  0  0  0  0
  -29.3740  -22.8381   17.7871 H   0  0  0  0  0  0
  -26.9727  -26.3545   22.5743 H   0  0  0  0  0  0
  -27.4852  -24.7166   22.9054 H   0  0  0  0  0  0
  -26.3911  -25.0346   21.5642 H   0  0  0  0  0  0
  -28.1248  -17.6167   20.5930 H   0  0  0  0  0  0
  -28.9152  -18.0097   22.0935 H   0  0  0  0  0  0
  -29.8213  -24.3915   19.9278 H   0  0  0  0  0  0
  -29.7163  -23.8713   21.5740 H   0  0  0  0  0  0
  -27.6386  -23.2555   19.4350 H   0  0  0  0  0  0
  -27.3848  -22.9309   21.1218 H   0  0  0  0  0  0
  -31.1161  -17.2897   21.2037 H   0  0  0  0  0  0
  -30.4563  -17.1114   19.5935 H   0  0  0  0  0  0
  -29.2464  -26.0593   21.7936 H   0  0  0  0  0  0
  -28.9683  -15.3663   21.2279 H   0  0  0  0  0  0
  1 25  1  0  0  0
  1 30  2  0  0  0
  1 83  1  0  0  0
  2  3  1  0  0  0
  2 25  1  0  0  0
  2 84  1  0  0  0
  2 85  1  0  0  0
  3  4  1  0  0  0
  3 86  1  0  0  0
  3 87  1  0  0  0
  4  5  1  0  0  0
  4 88  1  0  0  0
  4 89  1  0  0  0
  5  6  1  0  0  0
  5 26  1  0  0  0
  5 90  1  0  0  0
  6 25  1  0  0  0
  6 91  1  0  0  0
  6 92  1  0  0  0
  7  8  2  0  0  0
  7 26  1  0  0  0
  7 29  1  0  0  0
  8  9  1  0  0  0
  8 22  1  0  0  0
  9 10  1  0  0  0
  9 27  2  0  0  0
 10 11  2  0  0  0
 10 15  1  0  0  0
 11 12  1  0  0  0
 11 93  1  0  0  0
 12 13  2  0  0  0
 12 94  1  0  0  0
 13 14  1  0  0  0
 13 31  1  0  0  0
 14 15  2  0  0  0
 14 95  1  0  0  0
 15 96  1  0  0  0
 16 17  2  0  0  0
 16 21  1  0  0  0
 16 31  1  0  0  0
 17 18  1  0  0  0
 17 97  1  0  0  0
 18 19  2  0  0  0
 18 98  1  0  0  0
 19 20  1  0  0  0
 19 24  1  0  0  0
 20 21  2  0  0  0
 20 99  1  0  0  0
 21 23  1  0  0  0
 22 28  1  0  0  0
 22 32  2  0  0  0
 26 27  1  0  0  0
 28100  1  0  0  0
 28101  1  0  0  0
 29102  1  0  0  0
 29103  1  0  0  0
 33 34  1  0  0  0
 33 66  1  0  0  0
 33 70  2  0  0  0
 34 36  1  0  0  0
 34 59  1  0  0  0
 34104  1  0  0  0
 35 44  2  0  0  0
 35 45  1  0  0  0
 35 68  1  0  0  0
 36 56  1  0  0  0
 36105  1  0  0  0
 37 39  1  0  0  0
 37 47  1  0  0  0
 37 66  1  0  0  0
 37106  1  0  0  0
 38 43  2  0  0  0
 38 46  1  0  0  0
 38 47  1  0  0  0
 39 64  1  0  0  0
 39 67  2  0  0  0
 40 52  1  0  0  0
 40 53  2  0  0  0
 40 58  1  0  0  0
 41107  1  0  0  0
 41108  1  0  0  0
 41109  1  0  0  0
 41 48  1  0  0  0
 42 43  1  0  0  0
 42 66  1  0  0  0
 42110  1  0  0  0
 42111  1  0  0  0
 43 44  1  0  0  0
 44112  1  0  0  0
 45 46  2  0  0  0
 45113  1  0  0  0
 46114  1  0  0  0
 47115  1  0  0  0
 47116  1  0  0  0
 48 56  1  0  0  0
 48 65  1  0  0  0
 48117  1  0  0  0
 49 50  1  0  0  0
 49 53  1  0  0  0
 49 64  1  0  0  0
 49118  1  0  0  0
 50 51  1  0  0  0
 50119  1  0  0  0
 50120  1  0  0  0
 51 52  1  0  0  0
 51121  1  0  0  0
 51122  1  0  0  0
 52123  1  0  0  0
 52124  1  0  0  0
 53 54  1  0  0  0
 54 55  2  0  0  0
 54125  1  0  0  0
 55 57  1  0  0  0
 55126  1  0  0  0
 56 69  2  0  0  0
 57 58  2  0  0  0
 57127  1  0  0  0
 58128  1  0  0  0
 59 60  1  0  0  0
 59 61  1  0  0  0
 59 62  1  0  0  0
 60129  1  0  0  0
 60130  1  0  0  0
 60131  1  0  0  0
 61132  1  0  0  0
 61133  1  0  0  0
 61134  1  0  0  0
 62135  1  0  0  0
 62136  1  0  0  0
 62137  1  0  0  0
 63 65  1  0  0  0
 63138  1  0  0  0
 63139  1  0  0  0
 63140  1  0  0  0
 64141  1  0  0  0
 65142  1  0  0  0
 68 81  1  0  0  0
 71 73  1  0  0  0
 71 74  2  0  0  0
 71143  1  0  0  0
 72 73  2  0  0  0
 72 82  1  0  0  0
 72144  1  0  0  0
 73 77  1  0  0  0
 74 75  1  0  0  0
 74 82  1  0  0  0
 75145  1  0  0  0
 75146  1  0  0  0
 75147  1  0  0  0
 76148  1  0  0  0
 76149  1  0  0  0
 76150  1  0  0  0
 76 81  1  0  0  0
 77 80  1  0  0  0
 77151  1  0  0  0
 77152  1  0  0  0
 78 79  1  0  0  0
 78 81  1  0  0  0
 78153  1  0  0  0
 78154  1  0  0  0
 79 82  1  0  0  0
 79155  1  0  0  0
 79156  1  0  0  0
 80 83  1  0  0  0
 80157  1  0  0  0
 80158  1  0  0  0
 81159  1  0  0  0
 83160  1  0  0  0
M  ISO  4   1 100  68 101  81 101  83 100
M  END
> <chiral flag>
0

> <version>
0

> <s_m_source_file>
/data/baiqing/PycharmProjects/Reinvent-master-3.2/result/LINK_invent/BTK/process_docking_weight1_custom_sum_contain_oxygen_bond_distance_aromatic_linkinvent_7_9_3/rearranged_h_0102.sdf

> <i_m_source_file_index>
41

> <r_mmod_Potential_Energy-OPLS-2005>
-53.4693641662598

> <r_mmod_Stretch_Energy-OPLS-2005>
48.1235580444336

> <r_mmod_Bend_Energy-OPLS-2005>
114.703155517578

> <r_mmod_Torsional_Energy-OPLS-2005>
250.184951782227

> <r_mmod_Improper_Torsional_Energy-OPLS-2005>
5.89112281799316

> <r_mmod_Van_der_Waal_Energy-OPLS-2005>
121.30786895752

> <r_mmod_Electrostatic_Energy-OPLS-2005>
-406.127624511719

> <r_mmod_Solvation_Energy-OPLS-2005>
-209.907989501953

> <b_mmod_Minimization_Converged-OPLS-2005>
0

> <r_mmod_RMS_Derivative-OPLS-2005>
1.59794008731842

$$$$
42
                    3D
 Structure written by MMmdl.
171179  0  0  1  0            999 V2000
  -30.6118  -14.7139   20.4672 C   0  0  0  0  0  0
  -30.4332  -12.4354   19.4682 C   0  0  0  0  0  0
  -29.5055  -12.5082   18.2347 C   0  0  0  0  0  0
  -28.0351  -12.3259   18.6551 C   0  0  0  0  0  0
  -27.6445  -13.2251   19.8585 C   0  0  2  0  0  0
  -28.6903  -13.1416   20.9929 C   0  0  0  0  0  0
  -25.2541  -13.8181   20.5797 C   0  0  0  0  0  0
  -24.1802  -13.0427   20.9225 C   0  0  0  0  0  0
  -24.6384  -11.6905   20.8740 C   0  0  0  0  0  0
  -23.9064  -10.4281   21.0398 C   0  0  0  0  0  0
  -24.3613   -9.4201   21.9183 C   0  0  0  0  0  0
  -23.6284   -8.2243   22.0754 C   0  0  0  0  0  0
  -22.4268   -8.0285   21.3544 C   0  0  0  0  0  0
  -21.9905   -9.0258   20.4649 C   0  0  0  0  0  0
  -22.7236  -10.2131   20.3057 C   0  0  0  0  0  0
  -21.6850   -6.0738   22.5278 C   0  0  0  0  0  0
  -21.4010   -6.5640   23.8212 C   0  0  0  0  0  0
  -21.3659   -5.6795   24.9178 C   0  0  0  0  0  0
  -21.6041   -4.3057   24.7225 C   0  0  0  0  0  0
  -21.8820   -3.8153   23.4348 C   0  0  0  0  0  0
  -21.9190   -4.6967   22.3402 C   0  0  0  0  0  0
  -22.7826  -13.5222   21.1880 C   0  0  0  0  0  0
  -22.1660   -4.2157   21.0980 F   0  0  0  0  0  0
  -21.5625   -3.4545   25.7736 F   0  0  0  0  0  0
  -29.9974  -13.4852   20.4143 N   0  0  0  0  0  0
  -26.2945  -12.9377   20.3324 N   0  0  0  0  0  0
  -25.9308  -11.6518   20.5742 N   0  0  0  0  0  0
  -22.0467  -12.8205   22.0425 N   0  0  0  0  0  0
  -25.4270  -15.1907   20.4410 N   0  0  0  0  0  0
  -31.7911  -14.8401   20.1272 O   0  0  0  0  0  0
  -21.6639   -6.8876   21.4237 O   0  0  0  0  0  0
  -22.3517  -14.5537   20.6737 O   0  0  0  0  0  0
  -24.6302  -31.8563   23.2003 C   0  0  0  0  0  0
  -25.9124  -32.4759   23.8344 C   0  0  1  0  0  0
  -27.2173  -27.2671   20.1249 C   0  0  0  0  0  0
  -25.5927  -33.8565   24.2259 N   0  0  0  0  0  0
  -23.4267  -30.4810   21.5441 C   0  0  2  0  0  0
  -24.8741  -28.9353   20.1058 C   0  0  0  0  0  0
  -22.7496  -29.4603   22.4914 C   0  0  0  0  0  0
  -18.0287  -28.1381   22.8477 C   0  0  0  0  0  0
  -24.1490  -36.7296   23.2640 C   0  0  0  0  0  0
  -25.9736  -30.7702   21.3822 C   0  0  0  0  0  0
  -26.0461  -29.3957   20.7197 C   0  0  0  0  0  0
  -27.2192  -28.5737   20.7221 C   0  0  0  0  0  0
  -26.0236  -26.8861   19.4656 C   0  0  0  0  0  0
  -24.8679  -27.6869   19.4683 C   0  0  0  0  0  0
  -23.6436  -29.8201   20.1581 C   0  0  0  0  0  0
  -25.4120  -36.3078   24.0328 C   0  0  1  0  0  0
  -20.5893  -28.3702   23.1271 C   0  0  2  0  0  0
  -20.6793  -26.9422   22.5408 C   0  0  0  0  0  0
  -19.5772  -26.6385   21.5209 C   0  0  0  0  0  0
  -18.1946  -26.7922   22.1616 C   0  0  0  0  0  0
  -19.1540  -28.8858   23.2868 C   0  0  0  0  0  0
  -18.9466  -30.1456   23.8891 C   0  0  0  0  0  0
  -17.6470  -30.6589   24.0560 C   0  0  0  0  0  0
  -25.9060  -34.9446   23.5098 C   0  0  0  0  0  0
  -16.5362  -29.9082   23.6336 C   0  0  0  0  0  0
  -16.7274  -28.6496   23.0358 C   0  0  0  0  0  0
  -26.4486  -31.6581   25.0735 C   0  0  0  0  0  0
  -25.3693  -31.3735   26.1446 C   0  0  0  0  0  0
  -27.0324  -30.2986   24.6237 C   0  0  0  0  0  0
  -27.6038  -32.4339   25.7496 C   0  0  0  0  0  0
  -27.5588  -37.1803   24.8467 C   0  0  0  0  0  0
  -21.4201  -29.3047   22.3655 N   0  0  0  0  0  0
  -26.4298  -37.3773   23.9413 N   0  0  0  0  0  0
  -24.6962  -31.0531   22.0981 N   0  0  0  0  0  0
  -23.4195  -28.8134   23.3010 O   0  0  0  0  0  0
  -28.3014  -26.3576   20.2088 O   0  0  0  0  0  0
  -26.5631  -34.8912   22.4669 O   0  0  0  0  0  0
  -23.5461  -32.1392   23.7305 O   0  0  0  0  0  0
  -27.5634  -18.9086   17.2615 C   0  0  0  0  0  0
  -27.9129  -19.8117   18.2741 C   0  0  0  0  0  0
  -28.8503  -17.2085   18.3753 C   0  0  0  0  0  0
  -28.0695  -17.6073   17.2801 C   0  0  0  0  0  0
  -28.7804  -19.4912   19.3574 C   0  0  0  0  0  0
  -29.2035  -18.0753   19.4451 C   0  0  0  0  0  0
  -28.9620  -15.6442   14.0491 C   0  0  0  0  0  0
  -25.5503  -15.8634   17.0922 C   0  0  0  0  0  0
  -29.1650  -20.7497   20.2656 C   0  0  0  0  0  0
  -30.0469  -17.3184   20.5432 C   0  0  0  0  0  0
  -29.1246  -16.2076   15.4677 C   0  0  0  0  0  0
  -26.9168  -15.4571   16.5257 C   0  0  0  0  0  0
  -28.5785  -22.2141   19.8217 C   0  0  0  0  0  0
  -28.9583  -23.6617   20.4349 C   0  0  0  0  0  0
  -28.0397  -24.9012   19.9414 C   0  0  0  0  0  0
  -27.7985  -16.6558   16.1176 C   0  0  0  0  0  0
  -29.8115  -15.8131   20.6998 N   0  0  0  0  0  0
  -31.4738  -12.5604   19.1643 H   0  0  0  0  0  0
  -30.3749  -11.4524   19.9379 H   0  0  0  0  0  0
  -29.7830  -11.7435   17.5085 H   0  0  0  0  0  0
  -29.6299  -13.4690   17.7316 H   0  0  0  0  0  0
  -27.8985  -11.2766   18.9204 H   0  0  0  0  0  0
  -27.3705  -12.5097   17.8102 H   0  0  0  0  0  0
  -27.6441  -14.2509   19.4910 H   0  0  0  0  0  0
  -28.7172  -12.1406   21.4263 H   0  0  0  0  0  0
  -28.4277  -13.8170   21.8091 H   0  0  0  0  0  0
  -25.2755   -9.5684   22.4761 H   0  0  0  0  0  0
  -24.0001   -7.4632   22.7468 H   0  0  0  0  0  0
  -21.0843   -8.8777   19.8945 H   0  0  0  0  0  0
  -22.3701  -10.9674   19.6173 H   0  0  0  0  0  0
  -21.2001   -7.6146   23.9719 H   0  0  0  0  0  0
  -21.1476   -6.0525   25.9078 H   0  0  0  0  0  0
  -22.0595   -2.7618   23.2849 H   0  0  0  0  0  0
  -22.4087  -11.9866   22.4801 H   0  0  0  0  0  0
  -21.1088  -13.1231   22.2629 H   0  0  0  0  0  0
  -24.6544  -15.8368   20.5552 H   0  0  0  0  0  0
  -26.2632  -15.6349   20.0861 H   0  0  0  0  0  0
  -26.7186  -32.5399   23.1081 H   0  0  0  0  0  0
  -25.0047  -33.9704   25.0388 H   0  0  0  0  0  0
  -22.7228  -31.3033   21.3999 H   0  0  0  0  0  0
  -23.3752  -35.9622   23.3292 H   0  0  0  0  0  0
  -24.3578  -36.8935   22.2055 H   0  0  0  0  0  0
  -23.7248  -37.6500   23.6668 H   0  0  0  0  0  0
  -26.1170  -31.5343   20.6173 H   0  0  0  0  0  0
  -26.8494  -30.8133   22.0180 H   0  0  0  0  0  0
  -28.1111  -28.9156   21.2287 H   0  0  0  0  0  0
  -25.9428  -25.9394   18.9538 H   0  0  0  0  0  0
  -23.9722  -27.3311   18.9772 H   0  0  0  0  0  0
  -23.7616  -30.6004   19.4054 H   0  0  0  0  0  0
  -22.7619  -29.2525   19.8552 H   0  0  0  0  0  0
  -25.1292  -36.1931   25.0819 H   0  0  0  0  0  0
  -20.9989  -28.3286   24.1389 H   0  0  0  0  0  0
  -20.5730  -26.2301   23.3603 H   0  0  0  0  0  0
  -21.6659  -26.7467   22.1183 H   0  0  0  0  0  0
  -19.6960  -25.6292   21.1249 H   0  0  0  0  0  0
  -19.6730  -27.3191   20.6737 H   0  0  0  0  0  0
  -17.4228  -26.6673   21.4007 H   0  0  0  0  0  0
  -18.0341  -26.0046   22.8997 H   0  0  0  0  0  0
  -19.7946  -30.7267   24.2267 H   0  0  0  0  0  0
  -17.5026  -31.6270   24.5158 H   0  0  0  0  0  0
  -15.5366  -30.2992   23.7663 H   0  0  0  0  0  0
  -15.8663  -28.0818   22.7091 H   0  0  0  0  0  0
  -24.5893  -30.7051   25.7782 H   0  0  0  0  0  0
  -24.8841  -32.2890   26.4826 H   0  0  0  0  0  0
  -25.7990  -30.8957   27.0253 H   0  0  0  0  0  0
  -26.2906  -29.6745   24.1241 H   0  0  0  0  0  0
  -27.3960  -29.7244   25.4770 H   0  0  0  0  0  0
  -27.8795  -30.4235   23.9490 H   0  0  0  0  0  0
  -27.2637  -33.3655   26.2021 H   0  0  0  0  0  0
  -28.3841  -32.6889   25.0313 H   0  0  0  0  0  0
  -28.0690  -31.8504   26.5446 H   0  0  0  0  0  0
  -28.2595  -38.0107   24.7511 H   0  0  0  0  0  0
  -28.1090  -36.2640   24.6281 H   0  0  0  0  0  0
  -27.2305  -37.1448   25.8868 H   0  0  0  0  0  0
  -20.9392  -29.8735   21.6824 H   0  0  0  0  0  0
  -26.0181  -38.2851   24.1394 H   0  0  0  0  0  0
  -26.9310  -19.2394   16.4491 H   0  0  0  0  0  0
  -27.4859  -20.7918   18.1474 H   0  0  0  0  0  0
  -29.2046  -16.1898   18.3596 H   0  0  0  0  0  0
  -28.3619  -14.7347   14.0395 H   0  0  0  0  0  0
  -29.9330  -15.3991   13.6182 H   0  0  0  0  0  0
  -28.4846  -16.3697   13.3898 H   0  0  0  0  0  0
  -24.9586  -14.9848   17.3525 H   0  0  0  0  0  0
  -24.9815  -16.4480   16.3691 H   0  0  0  0  0  0
  -25.6573  -16.4663   17.9937 H   0  0  0  0  0  0
  -30.2530  -20.8041   20.3007 H   0  0  0  0  0  0
  -28.8487  -20.5329   21.2858 H   0  0  0  0  0  0
  -29.8572  -17.7946   21.5050 H   0  0  0  0  0  0
  -31.1019  -17.4897   20.3247 H   0  0  0  0  0  0
  -29.7914  -17.0694   15.4009 H   0  0  0  0  0  0
  -29.6363  -15.4830   16.1026 H   0  0  0  0  0  0
  -26.7504  -14.8091   15.6653 H   0  0  0  0  0  0
  -27.4449  -14.8481   17.2567 H   0  0  0  0  0  0
  -27.4927  -22.1440   19.8897 H   0  0  0  0  0  0
  -28.8067  -22.3318   18.7615 H   0  0  0  0  0  0
  -29.9999  -23.8752   20.1942 H   0  0  0  0  0  0
  -28.9116  -23.6085   21.5233 H   0  0  0  0  0  0
  -27.0573  -24.6666   20.3529 H   0  0  0  0  0  0
  -27.9423  -24.8102   18.8592 H   0  0  0  0  0  0
  -27.2481  -17.2226   15.3652 H   0  0  0  0  0  0
  -28.8647  -15.5759   20.9520 H   0  0  0  0  0  0
  1 25  1  0  0  0
  1 30  2  0  0  0
  1 87  1  0  0  0
  2  3  1  0  0  0
  2 25  1  0  0  0
  2 88  1  0  0  0
  2 89  1  0  0  0
  3  4  1  0  0  0
  3 90  1  0  0  0
  3 91  1  0  0  0
  4  5  1  0  0  0
  4 92  1  0  0  0
  4 93  1  0  0  0
  5  6  1  0  0  0
  5 26  1  0  0  0
  5 94  1  0  0  0
  6 25  1  0  0  0
  6 95  1  0  0  0
  6 96  1  0  0  0
  7  8  2  0  0  0
  7 26  1  0  0  0
  7 29  1  0  0  0
  8  9  1  0  0  0
  8 22  1  0  0  0
  9 10  1  0  0  0
  9 27  2  0  0  0
 10 11  2  0  0  0
 10 15  1  0  0  0
 11 12  1  0  0  0
 11 97  1  0  0  0
 12 13  2  0  0  0
 12 98  1  0  0  0
 13 14  1  0  0  0
 13 31  1  0  0  0
 14 15  2  0  0  0
 14 99  1  0  0  0
 15100  1  0  0  0
 16 17  2  0  0  0
 16 21  1  0  0  0
 16 31  1  0  0  0
 17 18  1  0  0  0
 17101  1  0  0  0
 18 19  2  0  0  0
 18102  1  0  0  0
 19 20  1  0  0  0
 19 24  1  0  0  0
 20 21  2  0  0  0
 20103  1  0  0  0
 21 23  1  0  0  0
 22 28  1  0  0  0
 22 32  2  0  0  0
 26 27  1  0  0  0
 28104  1  0  0  0
 28105  1  0  0  0
 29106  1  0  0  0
 29107  1  0  0  0
 33 34  1  0  0  0
 33 66  1  0  0  0
 33 70  2  0  0  0
 34 36  1  0  0  0
 34 59  1  0  0  0
 34108  1  0  0  0
 35 44  2  0  0  0
 35 45  1  0  0  0
 35 68  1  0  0  0
 36 56  1  0  0  0
 36109  1  0  0  0
 37 39  1  0  0  0
 37 47  1  0  0  0
 37 66  1  0  0  0
 37110  1  0  0  0
 38 43  2  0  0  0
 38 46  1  0  0  0
 38 47  1  0  0  0
 39 64  1  0  0  0
 39 67  2  0  0  0
 40 52  1  0  0  0
 40 53  2  0  0  0
 40 58  1  0  0  0
 41111  1  0  0  0
 41112  1  0  0  0
 41113  1  0  0  0
 41 48  1  0  0  0
 42 43  1  0  0  0
 42 66  1  0  0  0
 42114  1  0  0  0
 42115  1  0  0  0
 43 44  1  0  0  0
 44116  1  0  0  0
 45 46  2  0  0  0
 45117  1  0  0  0
 46118  1  0  0  0
 47119  1  0  0  0
 47120  1  0  0  0
 48 56  1  0  0  0
 48 65  1  0  0  0
 48121  1  0  0  0
 49 50  1  0  0  0
 49 53  1  0  0  0
 49 64  1  0  0  0
 49122  1  0  0  0
 50 51  1  0  0  0
 50123  1  0  0  0
 50124  1  0  0  0
 51 52  1  0  0  0
 51125  1  0  0  0
 51126  1  0  0  0
 52127  1  0  0  0
 52128  1  0  0  0
 53 54  1  0  0  0
 54 55  2  0  0  0
 54129  1  0  0  0
 55 57  1  0  0  0
 55130  1  0  0  0
 56 69  2  0  0  0
 57 58  2  0  0  0
 57131  1  0  0  0
 58132  1  0  0  0
 59 60  1  0  0  0
 59 61  1  0  0  0
 59 62  1  0  0  0
 60133  1  0  0  0
 60134  1  0  0  0
 60135  1  0  0  0
 61136  1  0  0  0
 61137  1  0  0  0
 61138  1  0  0  0
 62139  1  0  0  0
 62140  1  0  0  0
 62141  1  0  0  0
 63 65  1  0  0  0
 63142  1  0  0  0
 63143  1  0  0  0
 63144  1  0  0  0
 64145  1  0  0  0
 65146  1  0  0  0
 68 85  1  0  0  0
 71 72  2  0  0  0
 71 74  1  0  0  0
 71147  1  0  0  0
 72 75  1  0  0  0
 72148  1  0  0  0
 73 74  2  0  0  0
 73 76  1  0  0  0
 73149  1  0  0  0
 74 86  1  0  0  0
 75 76  2  0  0  0
 75 79  1  0  0  0
 76 80  1  0  0  0
 77 81  1  0  0  0
 77150  1  0  0  0
 77151  1  0  0  0
 77152  1  0  0  0
 78 82  1  0  0  0
 78153  1  0  0  0
 78154  1  0  0  0
 78155  1  0  0  0
 79 83  1  0  0  0
 79156  1  0  0  0
 79157  1  0  0  0
 80 87  1  0  0  0
 80158  1  0  0  0
 80159  1  0  0  0
 81160  1  0  0  0
 81161  1  0  0  0
 81 86  1  0  0  0
 82 86  1  0  0  0
 82162  1  0  0  0
 82163  1  0  0  0
 83 84  1  0  0  0
 83164  1  0  0  0
 83165  1  0  0  0
 84 85  1  0  0  0
 84166  1  0  0  0
 84167  1  0  0  0
 85168  1  0  0  0
 85169  1  0  0  0
 86170  1  0  0  0
 87171  1  0  0  0
M  ISO  4   1 100  68 101  85 101  87 100
M  END
> <chiral flag>
0

> <version>
0

> <s_m_source_file>
/data/baiqing/PycharmProjects/Reinvent-master-3.2/result/LINK_invent/BTK/process_docking_weight1_custom_sum_contain_oxygen_bond_distance_aromatic_linkinvent_7_9_3/rearranged_h_0102.sdf

> <i_m_source_file_index>
42

> <r_mmod_Potential_Energy-OPLS-2005>
149.100158691406

> <r_mmod_Stretch_Energy-OPLS-2005>
131.806137084961

> <r_mmod_Bend_Energy-OPLS-2005>
193.485885620117

> <r_mmod_Torsional_Energy-OPLS-2005>
208.251098632812

> <r_mmod_Improper_Torsional_Energy-OPLS-2005>
5.01466798782349

> <r_mmod_Van_der_Waal_Energy-OPLS-2005>
138.703750610352

> <r_mmod_Electrostatic_Energy-OPLS-2005>
-413.903717041016

> <r_mmod_Solvation_Energy-OPLS-2005>
-193.907089233398

> <b_mmod_Minimization_Converged-OPLS-2005>
0

> <r_mmod_RMS_Derivative-OPLS-2005>
1.7306170463562

$$$$
43
                    3D
 Structure written by MMmdl.
162170  0  0  1  0            999 V2000
  -30.5278  -14.9625   20.4176 C   0  0  0  0  0  0
  -30.4319  -12.5968   19.5053 C   0  0  0  0  0  0
  -29.5170  -12.5334   18.2600 C   0  0  0  0  0  0
  -28.0547  -12.3064   18.6837 C   0  0  0  0  0  0
  -27.6269  -13.2440   19.8432 C   0  0  2  0  0  0
  -28.6651  -13.2797   20.9849 C   0  0  0  0  0  0
  -25.2459  -13.8194   20.5711 C   0  0  0  0  0  0
  -24.1771  -13.0425   20.9212 C   0  0  0  0  0  0
  -24.6377  -11.6905   20.8740 C   0  0  0  0  0  0
  -23.9070  -10.4277   21.0400 C   0  0  0  0  0  0
  -24.3619   -9.4197   21.9184 C   0  0  0  0  0  0
  -23.6291   -8.2234   22.0762 C   0  0  0  0  0  0
  -22.4277   -8.0268   21.3552 C   0  0  0  0  0  0
  -21.9910   -9.0238   20.4654 C   0  0  0  0  0  0
  -22.7238  -10.2114   20.3058 C   0  0  0  0  0  0
  -21.6855   -6.0730   22.5275 C   0  0  0  0  0  0
  -21.4022   -6.5645   23.8204 C   0  0  0  0  0  0
  -21.3654   -5.6803   24.9169 C   0  0  0  0  0  0
  -21.6039   -4.3064   24.7225 C   0  0  0  0  0  0
  -21.8822   -3.8146   23.4349 C   0  0  0  0  0  0
  -21.9200   -4.6959   22.3401 C   0  0  0  0  0  0
  -22.7797  -13.5204   21.1864 C   0  0  0  0  0  0
  -22.1667   -4.2139   21.0977 F   0  0  0  0  0  0
  -21.5618   -3.4546   25.7736 F   0  0  0  0  0  0
  -29.9381  -13.6977   20.3855 N   0  0  0  0  0  0
  -26.2864  -12.9408   20.3265 N   0  0  0  0  0  0
  -25.9307  -11.6539   20.5741 N   0  0  0  0  0  0
  -22.0470  -12.8184   22.0423 N   0  0  0  0  0  0
  -25.4164  -15.1908   20.4115 N   0  0  0  0  0  0
  -31.7280  -15.0230   20.1304 O   0  0  0  0  0  0
  -21.6657   -6.8858   21.4232 O   0  0  0  0  0  0
  -22.3484  -14.5514   20.6715 O   0  0  0  0  0  0
  -24.6463  -31.8423   23.1856 C   0  0  0  0  0  0
  -25.9216  -32.4681   23.8255 C   0  0  1  0  0  0
  -27.2105  -27.1103   20.1532 C   0  0  0  0  0  0
  -25.5981  -33.8499   24.2177 N   0  0  0  0  0  0
  -23.4517  -30.4605   21.5332 C   0  0  2  0  0  0
  -24.8977  -28.8818   20.1119 C   0  0  0  0  0  0
  -22.7592  -29.4548   22.4865 C   0  0  0  0  0  0
  -18.0309  -28.1399   22.8490 C   0  0  0  0  0  0
  -24.1488  -36.7255   23.2646 C   0  0  0  0  0  0
  -26.0081  -30.7069   21.3867 C   0  0  0  0  0  0
  -26.0769  -29.3139   20.7332 C   0  0  0  0  0  0
  -27.2373  -28.4462   20.7336 C   0  0  0  0  0  0
  -26.0104  -26.7908   19.4833 C   0  0  0  0  0  0
  -24.8810  -27.6347   19.4691 C   0  0  0  0  0  0
  -23.6770  -29.7886   20.1532 C   0  0  0  0  0  0
  -25.4118  -36.3037   24.0317 C   0  0  1  0  0  0
  -20.5920  -28.3726   23.1236 C   0  0  2  0  0  0
  -20.6798  -26.9428   22.5406 C   0  0  0  0  0  0
  -19.5773  -26.6385   21.5225 C   0  0  0  0  0  0
  -18.1946  -26.7943   22.1623 C   0  0  0  0  0  0
  -19.1558  -28.8882   23.2857 C   0  0  0  0  0  0
  -18.9483  -30.1484   23.8882 C   0  0  0  0  0  0
  -17.6475  -30.6598   24.0567 C   0  0  0  0  0  0
  -25.9080  -34.9410   23.5058 C   0  0  0  0  0  0
  -16.5371  -29.9088   23.6342 C   0  0  0  0  0  0
  -16.7289  -28.6505   23.0358 C   0  0  0  0  0  0
  -26.4518  -31.6561   25.0717 C   0  0  0  0  0  0
  -25.3679  -31.3742   26.1403 C   0  0  0  0  0  0
  -27.0370  -30.2955   24.6283 C   0  0  0  0  0  0
  -27.6076  -32.4313   25.7473 C   0  0  0  0  0  0
  -27.5566  -37.1779   24.8468 C   0  0  0  0  0  0
  -21.4272  -29.3059   22.3620 N   0  0  0  0  0  0
  -26.4272  -37.3765   23.9423 N   0  0  0  0  0  0
  -24.7228  -31.0248   22.0907 N   0  0  0  0  0  0
  -23.4226  -28.8104   23.3031 O   0  0  0  0  0  0
  -28.2511  -26.1065   20.1691 O   0  0  0  0  0  0
  -26.5657  -34.8925   22.4628 O   0  0  0  0  0  0
  -23.5576  -32.1320   23.7047 O   0  0  0  0  0  0
  -28.6442  -21.8545   20.4585 C   0  0  0  0  0  0
  -29.7256  -23.4333   18.9834 C   0  0  0  0  0  0
  -28.7900  -23.2688   20.0127 C   0  0  0  0  0  0
  -29.3770  -20.6616   19.9413 C   0  0  0  0  0  0
  -30.4637  -22.3528   18.4235 C   0  0  0  0  0  0
  -30.2888  -20.9982   18.8883 C   0  0  0  0  0  0
  -31.0487  -19.8651   18.2045 C   0  0  0  0  0  0
  -31.9238  -24.1344   17.1931 C   0  0  0  0  0  0
  -30.7369  -22.3291   15.9017 C   0  0  0  0  0  0
  -29.1069  -19.0631   20.4017 C   0  0  0  0  0  0
  -27.9412  -24.6037   20.5005 C   0  0  0  0  0  0
  -30.1138  -17.6809   20.2530 C   0  0  0  0  0  0
  -31.4063  -22.6804   17.2445 C   0  0  0  0  0  0
  -29.7576  -16.1588   20.5530 N   0  0  0  0  0  0
  -31.4678  -12.7502   19.2009 H   0  0  0  0  0  0
  -30.4188  -11.6437   20.0354 H   0  0  0  0  0  0
  -29.8391  -11.7318   17.5943 H   0  0  0  0  0  0
  -29.5974  -13.4612   17.6903 H   0  0  0  0  0  0
  -27.9678  -11.2661   19.0032 H   0  0  0  0  0  0
  -27.3843  -12.4209   17.8312 H   0  0  0  0  0  0
  -27.5904  -14.2445   19.4121 H   0  0  0  0  0  0
  -28.7547  -12.3068   21.4711 H   0  0  0  0  0  0
  -28.3579  -13.9817   21.7617 H   0  0  0  0  0  0
  -25.2760   -9.5682   22.4767 H   0  0  0  0  0  0
  -24.0006   -7.4633   22.7488 H   0  0  0  0  0  0
  -21.0845   -8.8744   19.8957 H   0  0  0  0  0  0
  -22.3686  -10.9650   19.6172 H   0  0  0  0  0  0
  -21.2024   -7.6155   23.9696 H   0  0  0  0  0  0
  -21.1467   -6.0540   25.9068 H   0  0  0  0  0  0
  -22.0606   -2.7604   23.2853 H   0  0  0  0  0  0
  -22.4140  -11.9856   22.4787 H   0  0  0  0  0  0
  -21.1080  -13.1170   22.2641 H   0  0  0  0  0  0
  -24.6477  -15.8432   20.5186 H   0  0  0  0  0  0
  -26.2602  -15.6260   20.0622 H   0  0  0  0  0  0
  -26.7285  -32.5271   23.0981 H   0  0  0  0  0  0
  -25.0152  -33.9623   25.0335 H   0  0  0  0  0  0
  -22.7567  -31.2874   21.3767 H   0  0  0  0  0  0
  -23.3766  -35.9575   23.3280 H   0  0  0  0  0  0
  -24.3593  -36.8911   22.2074 H   0  0  0  0  0  0
  -23.7221  -37.6432   23.6694 H   0  0  0  0  0  0
  -26.1574  -31.4553   20.6082 H   0  0  0  0  0  0
  -26.8831  -30.7653   22.0222 H   0  0  0  0  0  0
  -28.1385  -28.7776   21.2298 H   0  0  0  0  0  0
  -25.9299  -25.8466   18.9632 H   0  0  0  0  0  0
  -23.9876  -27.3048   18.9559 H   0  0  0  0  0  0
  -23.8158  -30.5651   19.4005 H   0  0  0  0  0  0
  -22.7912  -29.2320   19.8427 H   0  0  0  0  0  0
  -25.1288  -36.1868   25.0805 H   0  0  0  0  0  0
  -20.9991  -28.3314   24.1370 H   0  0  0  0  0  0
  -20.5706  -26.2344   23.3623 H   0  0  0  0  0  0
  -21.6659  -26.7466   22.1187 H   0  0  0  0  0  0
  -19.6946  -25.6293   21.1267 H   0  0  0  0  0  0
  -19.6705  -27.3195   20.6755 H   0  0  0  0  0  0
  -17.4217  -26.6708   21.4018 H   0  0  0  0  0  0
  -18.0329  -26.0082   22.9012 H   0  0  0  0  0  0
  -19.7961  -30.7307   24.2229 H   0  0  0  0  0  0
  -17.5033  -31.6277   24.5169 H   0  0  0  0  0  0
  -15.5367  -30.2976   23.7688 H   0  0  0  0  0  0
  -15.8697  -28.0830   22.7060 H   0  0  0  0  0  0
  -24.5918  -30.7018   25.7710 H   0  0  0  0  0  0
  -24.8783  -32.2906   26.4720 H   0  0  0  0  0  0
  -25.7960  -30.9006   27.0248 H   0  0  0  0  0  0
  -26.2975  -29.6687   24.1289 H   0  0  0  0  0  0
  -27.3983  -29.7261   25.4853 H   0  0  0  0  0  0
  -27.8890  -30.4184   23.9589 H   0  0  0  0  0  0
  -27.2732  -33.3704   26.1888 H   0  0  0  0  0  0
  -28.3950  -32.6705   25.0310 H   0  0  0  0  0  0
  -28.0649  -31.8512   26.5496 H   0  0  0  0  0  0
  -28.2560  -38.0093   24.7531 H   0  0  0  0  0  0
  -28.1073  -36.2628   24.6249 H   0  0  0  0  0  0
  -27.2298  -37.1369   25.8872 H   0  0  0  0  0  0
  -20.9485  -29.8765   21.6790 H   0  0  0  0  0  0
  -26.0133  -38.2830   24.1436 H   0  0  0  0  0  0
  -27.8999  -21.6727   21.2218 H   0  0  0  0  0  0
  -29.8380  -24.4353   18.6006 H   0  0  0  0  0  0
  -31.7025  -19.3662   18.9191 H   0  0  0  0  0  0
  -31.6888  -20.1371   17.3724 H   0  0  0  0  0  0
  -30.3352  -19.1615   17.7771 H   0  0  0  0  0  0
  -32.3670  -24.4381   18.1414 H   0  0  0  0  0  0
  -31.1407  -24.8484   16.9365 H   0  0  0  0  0  0
  -32.6945  -24.2392   16.4280 H   0  0  0  0  0  0
  -30.4229  -21.2873   15.8566 H   0  0  0  0  0  0
  -31.4120  -22.4939   15.0619 H   0  0  0  0  0  0
  -29.8483  -22.9395   15.7360 H   0  0  0  0  0  0
  -28.1742  -18.8012   19.9006 H   0  0  0  0  0  0
  -28.8270  -19.1264   21.4542 H   0  0  0  0  0  0
  -27.9592  -24.5552   21.5899 H   0  0  0  0  0  0
  -26.9063  -24.3835   20.2457 H   0  0  0  0  0  0
  -31.0332  -17.8909   20.8002 H   0  0  0  0  0  0
  -30.4109  -17.5926   19.2137 H   0  0  0  0  0  0
  -32.3165  -22.0927   17.3628 H   0  0  0  0  0  0
  -28.7900  -15.9914   20.7880 H   0  0  0  0  0  0
  1 25  1  0  0  0
  1 30  2  0  0  0
  1 84  1  0  0  0
  2  3  1  0  0  0
  2 25  1  0  0  0
  2 85  1  0  0  0
  2 86  1  0  0  0
  3  4  1  0  0  0
  3 87  1  0  0  0
  3 88  1  0  0  0
  4  5  1  0  0  0
  4 89  1  0  0  0
  4 90  1  0  0  0
  5  6  1  0  0  0
  5 26  1  0  0  0
  5 91  1  0  0  0
  6 25  1  0  0  0
  6 92  1  0  0  0
  6 93  1  0  0  0
  7  8  2  0  0  0
  7 26  1  0  0  0
  7 29  1  0  0  0
  8  9  1  0  0  0
  8 22  1  0  0  0
  9 10  1  0  0  0
  9 27  2  0  0  0
 10 11  2  0  0  0
 10 15  1  0  0  0
 11 12  1  0  0  0
 11 94  1  0  0  0
 12 13  2  0  0  0
 12 95  1  0  0  0
 13 14  1  0  0  0
 13 31  1  0  0  0
 14 15  2  0  0  0
 14 96  1  0  0  0
 15 97  1  0  0  0
 16 17  2  0  0  0
 16 21  1  0  0  0
 16 31  1  0  0  0
 17 18  1  0  0  0
 17 98  1  0  0  0
 18 19  2  0  0  0
 18 99  1  0  0  0
 19 20  1  0  0  0
 19 24  1  0  0  0
 20 21  2  0  0  0
 20100  1  0  0  0
 21 23  1  0  0  0
 22 28  1  0  0  0
 22 32  2  0  0  0
 26 27  1  0  0  0
 28101  1  0  0  0
 28102  1  0  0  0
 29103  1  0  0  0
 29104  1  0  0  0
 33 34  1  0  0  0
 33 66  1  0  0  0
 33 70  2  0  0  0
 34 36  1  0  0  0
 34 59  1  0  0  0
 34105  1  0  0  0
 35 44  2  0  0  0
 35 45  1  0  0  0
 35 68  1  0  0  0
 36 56  1  0  0  0
 36106  1  0  0  0
 37 39  1  0  0  0
 37 47  1  0  0  0
 37 66  1  0  0  0
 37107  1  0  0  0
 38 43  2  0  0  0
 38 46  1  0  0  0
 38 47  1  0  0  0
 39 64  1  0  0  0
 39 67  2  0  0  0
 40 52  1  0  0  0
 40 53  2  0  0  0
 40 58  1  0  0  0
 41108  1  0  0  0
 41109  1  0  0  0
 41110  1  0  0  0
 41 48  1  0  0  0
 42 43  1  0  0  0
 42 66  1  0  0  0
 42111  1  0  0  0
 42112  1  0  0  0
 43 44  1  0  0  0
 44113  1  0  0  0
 45 46  2  0  0  0
 45114  1  0  0  0
 46115  1  0  0  0
 47116  1  0  0  0
 47117  1  0  0  0
 48 56  1  0  0  0
 48 65  1  0  0  0
 48118  1  0  0  0
 49 50  1  0  0  0
 49 53  1  0  0  0
 49 64  1  0  0  0
 49119  1  0  0  0
 50 51  1  0  0  0
 50120  1  0  0  0
 50121  1  0  0  0
 51 52  1  0  0  0
 51122  1  0  0  0
 51123  1  0  0  0
 52124  1  0  0  0
 52125  1  0  0  0
 53 54  1  0  0  0
 54 55  2  0  0  0
 54126  1  0  0  0
 55 57  1  0  0  0
 55127  1  0  0  0
 56 69  2  0  0  0
 57 58  2  0  0  0
 57128  1  0  0  0
 58129  1  0  0  0
 59 60  1  0  0  0
 59 61  1  0  0  0
 59 62  1  0  0  0
 60130  1  0  0  0
 60131  1  0  0  0
 60132  1  0  0  0
 61133  1  0  0  0
 61134  1  0  0  0
 61135  1  0  0  0
 62136  1  0  0  0
 62137  1  0  0  0
 62138  1  0  0  0
 63 65  1  0  0  0
 63139  1  0  0  0
 63140  1  0  0  0
 63141  1  0  0  0
 64142  1  0  0  0
 65143  1  0  0  0
 68 81  1  0  0  0
 71 73  2  0  0  0
 71 74  1  0  0  0
 71144  1  0  0  0
 72 73  1  0  0  0
 72 75  2  0  0  0
 72145  1  0  0  0
 73 81  1  0  0  0
 74 76  2  0  0  0
 74 80  1  0  0  0
 75 76  1  0  0  0
 75 83  1  0  0  0
 76 77  1  0  0  0
 77146  1  0  0  0
 77147  1  0  0  0
 77148  1  0  0  0
 78149  1  0  0  0
 78150  1  0  0  0
 78151  1  0  0  0
 78 83  1  0  0  0
 79 83  1  0  0  0
 79152  1  0  0  0
 79153  1  0  0  0
 79154  1  0  0  0
 80 82  1  0  0  0
 80155  1  0  0  0
 80156  1  0  0  0
 81157  1  0  0  0
 81158  1  0  0  0
 82 84  1  0  0  0
 82159  1  0  0  0
 82160  1  0  0  0
 83161  1  0  0  0
 84162  1  0  0  0
M  ISO  4   1 100  68 101  81 101  84 100
M  END
> <chiral flag>
0

> <version>
0

> <s_m_source_file>
/data/baiqing/PycharmProjects/Reinvent-master-3.2/result/LINK_invent/BTK/process_docking_weight1_custom_sum_contain_oxygen_bond_distance_aromatic_linkinvent_7_9_3/rearranged_h_0102.sdf

> <i_m_source_file_index>
43

> <r_mmod_Potential_Energy-OPLS-2005>
542.367980957031

> <r_mmod_Stretch_Energy-OPLS-2005>
295.764434814453

> <r_mmod_Bend_Energy-OPLS-2005>
264.623931884766

> <r_mmod_Torsional_Energy-OPLS-2005>
224.215759277344

> <r_mmod_Improper_Torsional_Energy-OPLS-2005>
5.41268157958984

> <r_mmod_Van_der_Waal_Energy-OPLS-2005>
148.117874145508

> <r_mmod_Electrostatic_Energy-OPLS-2005>
-395.129028320312

> <r_mmod_Solvation_Energy-OPLS-2005>
-208.081192016602

> <b_mmod_Minimization_Converged-OPLS-2005>
0

> <r_mmod_RMS_Derivative-OPLS-2005>
2.7649564743042

$$$$
44
                    3D
 Structure written by MMmdl.
154162  0  0  1  0            999 V2000
  -30.5728  -15.0291   20.3876 C   0  0  0  0  0  0
  -30.4400  -12.6450   19.4983 C   0  0  0  0  0  0
  -29.5158  -12.4914   18.2668 C   0  0  0  0  0  0
  -28.0498  -12.2915   18.6866 C   0  0  0  0  0  0
  -27.6230  -13.2507   19.8261 C   0  0  2  0  0  0
  -28.6727  -13.3494   20.9561 C   0  0  0  0  0  0
  -25.2504  -13.8232   20.5774 C   0  0  0  0  0  0
  -24.1807  -13.0474   20.9241 C   0  0  0  0  0  0
  -24.6387  -11.6940   20.8734 C   0  0  0  0  0  0
  -23.9055  -10.4314   21.0370 C   0  0  0  0  0  0
  -24.3619   -9.4229   21.9154 C   0  0  0  0  0  0
  -23.6329   -8.2241   22.0707 C   0  0  0  0  0  0
  -22.4305   -8.0262   21.3494 C   0  0  0  0  0  0
  -21.9911   -9.0231   20.4600 C   0  0  0  0  0  0
  -22.7213  -10.2146   20.3028 C   0  0  0  0  0  0
  -21.6891   -6.0722   22.5285 C   0  0  0  0  0  0
  -21.4003   -6.5632   23.8200 C   0  0  0  0  0  0
  -21.3672   -5.6794   24.9169 C   0  0  0  0  0  0
  -21.6046   -4.3059   24.7235 C   0  0  0  0  0  0
  -21.8835   -3.8144   23.4356 C   0  0  0  0  0  0
  -21.9210   -4.6943   22.3412 C   0  0  0  0  0  0
  -22.7819  -13.5204   21.1929 C   0  0  0  0  0  0
  -22.1696   -4.2123   21.0987 F   0  0  0  0  0  0
  -21.5620   -3.4550   25.7754 F   0  0  0  0  0  0
  -29.9397  -13.7757   20.3422 N   0  0  0  0  0  0
  -26.2898  -12.9459   20.3277 N   0  0  0  0  0  0
  -25.9320  -11.6588   20.5723 N   0  0  0  0  0  0
  -22.0536  -12.8128   22.0459 N   0  0  0  0  0  0
  -25.4292  -15.1955   20.4235 N   0  0  0  0  0  0
  -31.7770  -15.0336   20.1259 O   0  0  0  0  0  0
  -21.6685   -6.8850   21.4233 O   0  0  0  0  0  0
  -22.3461  -14.5508   20.6774 O   0  0  0  0  0  0
  -24.6496  -31.8380   23.1801 C   0  0  0  0  0  0
  -25.9214  -32.4694   23.8232 C   0  0  1  0  0  0
  -27.2197  -27.0876   20.1470 C   0  0  0  0  0  0
  -25.5909  -33.8491   24.2167 N   0  0  0  0  0  0
  -23.4555  -30.4524   21.5328 C   0  0  2  0  0  0
  -24.9058  -28.8696   20.1160 C   0  0  0  0  0  0
  -22.7607  -29.4490   22.4886 C   0  0  0  0  0  0
  -18.0284  -28.1456   22.8451 C   0  0  0  0  0  0
  -24.1453  -36.7228   23.2643 C   0  0  0  0  0  0
  -26.0135  -30.7039   21.3754 C   0  0  0  0  0  0
  -26.0906  -29.3082   20.7177 C   0  0  0  0  0  0
  -27.2513  -28.4352   20.7070 C   0  0  0  0  0  0
  -25.9992  -26.7542   19.5186 C   0  0  0  0  0  0
  -24.8747  -27.6112   19.5027 C   0  0  0  0  0  0
  -23.6834  -29.7725   20.1570 C   0  0  0  0  0  0
  -25.4092  -36.3023   24.0321 C   0  0  1  0  0  0
  -20.5883  -28.3736   23.1250 C   0  0  2  0  0  0
  -20.6778  -26.9455   22.5424 C   0  0  0  0  0  0
  -19.5777  -26.6411   21.5217 C   0  0  0  0  0  0
  -18.1930  -26.7986   22.1606 C   0  0  0  0  0  0
  -19.1545  -28.8935   23.2808 C   0  0  0  0  0  0
  -18.9460  -30.1502   23.8868 C   0  0  0  0  0  0
  -17.6476  -30.6640   24.0584 C   0  0  0  0  0  0
  -25.9057  -34.9393   23.5074 C   0  0  0  0  0  0
  -16.5365  -29.9154   23.6386 C   0  0  0  0  0  0
  -16.7255  -28.6578   23.0370 C   0  0  0  0  0  0
  -26.4511  -31.6592   25.0717 C   0  0  0  0  0  0
  -25.3659  -31.3768   26.1399 C   0  0  0  0  0  0
  -27.0396  -30.3027   24.6254 C   0  0  0  0  0  0
  -27.6079  -32.4385   25.7448 C   0  0  0  0  0  0
  -27.5543  -37.1735   24.8475 C   0  0  0  0  0  0
  -21.4295  -29.3033   22.3657 N   0  0  0  0  0  0
  -26.4247  -37.3768   23.9443 N   0  0  0  0  0  0
  -24.7288  -31.0141   22.0892 N   0  0  0  0  0  0
  -23.4230  -28.8060   23.3077 O   0  0  0  0  0  0
  -28.2878  -26.1022   20.1718 O   0  0  0  0  0  0
  -26.5679  -34.8895   22.4669 O   0  0  0  0  0  0
  -23.5584  -32.1263   23.6952 O   0  0  0  0  0  0
  -29.6163  -20.5215   19.8031 C   0  0  0  0  0  0
  -29.6542  -19.2858   20.5263 C   0  0  0  0  0  0
  -29.1589  -19.7638   21.7966 C   0  0  0  0  0  0
  -28.9179  -21.1426   21.7768 C   0  0  0  0  0  0
  -28.9993  -18.9050   23.0373 C   0  0  0  0  0  0
  -28.5527  -21.9916   22.9577 C   0  0  0  0  0  0
  -30.2826  -17.7670   20.1105 C   0  0  0  0  0  0
  -29.1595  -23.2601   20.0552 C   0  0  0  0  0  0
  -28.0714  -24.5465   20.3783 C   0  0  0  0  0  0
  -29.1504  -21.7075   20.5131 N   0  0  0  0  0  0
  -29.8596  -16.2733   20.4950 N   0  0  0  0  0  0
  -31.4569  -12.8180   19.1443 H   0  0  0  0  0  0
  -30.4841  -11.7228   20.0791 H   0  0  0  0  0  0
  -29.8314  -11.6394   17.6639 H   0  0  0  0  0  0
  -29.5989  -13.3701   17.6312 H   0  0  0  0  0  0
  -27.9271  -11.2544   19.0031 H   0  0  0  0  0  0
  -27.3909  -12.4112   17.8262 H   0  0  0  0  0  0
  -27.5619  -14.2334   19.3589 H   0  0  0  0  0  0
  -28.7904  -12.3919   21.4645 H   0  0  0  0  0  0
  -28.3538  -14.0678   21.7136 H   0  0  0  0  0  0
  -25.2761   -9.5753   22.4718 H   0  0  0  0  0  0
  -24.0095   -7.4615   22.7378 H   0  0  0  0  0  0
  -21.0846   -8.8688   19.8875 H   0  0  0  0  0  0
  -22.3609  -10.9666   19.6133 H   0  0  0  0  0  0
  -21.1981   -7.6134   23.9687 H   0  0  0  0  0  0
  -21.1477   -6.0522   25.9057 H   0  0  0  0  0  0
  -22.0605   -2.7602   23.2884 H   0  0  0  0  0  0
  -22.4306  -11.9861   22.4879 H   0  0  0  0  0  0
  -21.1086  -13.0959   22.2623 H   0  0  0  0  0  0
  -24.6944  -15.8717   20.5869 H   0  0  0  0  0  0
  -26.2739  -15.6178   20.0670 H   0  0  0  0  0  0
  -26.7321  -32.5319   23.0989 H   0  0  0  0  0  0
  -25.0038  -33.9641   25.0290 H   0  0  0  0  0  0
  -22.7593  -31.2758   21.3693 H   0  0  0  0  0  0
  -23.3763  -35.9521   23.3305 H   0  0  0  0  0  0
  -24.3525  -36.8882   22.2064 H   0  0  0  0  0  0
  -23.7135  -37.6387   23.6699 H   0  0  0  0  0  0
  -26.1472  -31.4499   20.5898 H   0  0  0  0  0  0
  -26.8899  -30.7783   22.0054 H   0  0  0  0  0  0
  -28.1650  -28.7708   21.1804 H   0  0  0  0  0  0
  -25.8694  -25.7943   19.0368 H   0  0  0  0  0  0
  -23.9631  -27.2766   19.0291 H   0  0  0  0  0  0
  -23.8153  -30.5356   19.3912 H   0  0  0  0  0  0
  -22.8005  -29.2047   19.8593 H   0  0  0  0  0  0
  -25.1255  -36.1881   25.0818 H   0  0  0  0  0  0
  -20.9888  -28.3334   24.1391 H   0  0  0  0  0  0
  -20.5700  -26.2333   23.3624 H   0  0  0  0  0  0
  -21.6638  -26.7542   22.1184 H   0  0  0  0  0  0
  -19.6942  -25.6294   21.1300 H   0  0  0  0  0  0
  -19.6739  -27.3171   20.6718 H   0  0  0  0  0  0
  -17.4207  -26.6705   21.4013 H   0  0  0  0  0  0
  -18.0337  -26.0144   22.9026 H   0  0  0  0  0  0
  -19.7927  -30.7308   24.2238 H   0  0  0  0  0  0
  -17.5038  -31.6309   24.5184 H   0  0  0  0  0  0
  -15.5349  -30.3073   23.7700 H   0  0  0  0  0  0
  -15.8638  -28.0887   22.7143 H   0  0  0  0  0  0
  -24.5837  -30.7173   25.7637 H   0  0  0  0  0  0
  -24.8822  -32.2935   26.4809 H   0  0  0  0  0  0
  -25.7851  -30.8907   27.0212 H   0  0  0  0  0  0
  -26.3024  -29.6761   24.1262 H   0  0  0  0  0  0
  -27.4086  -29.7347   25.4783 H   0  0  0  0  0  0
  -27.8864  -30.4351   23.9526 H   0  0  0  0  0  0
  -27.2772  -33.3779   26.1897 H   0  0  0  0  0  0
  -28.3886  -32.6831   25.0227 H   0  0  0  0  0  0
  -28.0768  -31.8615   26.5426 H   0  0  0  0  0  0
  -28.2578  -38.0024   24.7581 H   0  0  0  0  0  0
  -28.1029  -36.2568   24.6256 H   0  0  0  0  0  0
  -27.2287  -37.1343   25.8888 H   0  0  0  0  0  0
  -20.9577  -29.8707   21.6748 H   0  0  0  0  0  0
  -26.0127  -38.2822   24.1578 H   0  0  0  0  0  0
  -29.9632  -20.6925   18.7921 H   0  0  0  0  0  0
  -28.5805  -17.9304   22.7989 H   0  0  0  0  0  0
  -28.3271  -19.3660   23.7628 H   0  0  0  0  0  0
  -29.9568  -18.7476   23.5358 H   0  0  0  0  0  0
  -28.7417  -23.0504   22.7951 H   0  0  0  0  0  0
  -29.1461  -21.7057   23.8292 H   0  0  0  0  0  0
  -27.5068  -21.8609   23.2345 H   0  0  0  0  0  0
  -31.3387  -17.8284   20.3830 H   0  0  0  0  0  0
  -30.3237  -17.7690   19.0213 H   0  0  0  0  0  0
  -30.1310  -23.6310   20.3683 H   0  0  0  0  0  0
  -29.2510  -23.2288   18.9700 H   0  0  0  0  0  0
  -27.8246  -24.4846   21.4343 H   0  0  0  0  0  0
  -27.1486  -24.2711   19.8743 H   0  0  0  0  0  0
  -28.8756  -16.1663   20.6761 H   0  0  0  0  0  0
  1 25  1  0  0  0
  1 30  2  0  0  0
  1 81  1  0  0  0
  2  3  1  0  0  0
  2 25  1  0  0  0
  2 82  1  0  0  0
  2 83  1  0  0  0
  3  4  1  0  0  0
  3 84  1  0  0  0
  3 85  1  0  0  0
  4  5  1  0  0  0
  4 86  1  0  0  0
  4 87  1  0  0  0
  5  6  1  0  0  0
  5 26  1  0  0  0
  5 88  1  0  0  0
  6 25  1  0  0  0
  6 89  1  0  0  0
  6 90  1  0  0  0
  7  8  2  0  0  0
  7 26  1  0  0  0
  7 29  1  0  0  0
  8  9  1  0  0  0
  8 22  1  0  0  0
  9 10  1  0  0  0
  9 27  2  0  0  0
 10 11  2  0  0  0
 10 15  1  0  0  0
 11 12  1  0  0  0
 11 91  1  0  0  0
 12 13  2  0  0  0
 12 92  1  0  0  0
 13 14  1  0  0  0
 13 31  1  0  0  0
 14 15  2  0  0  0
 14 93  1  0  0  0
 15 94  1  0  0  0
 16 17  2  0  0  0
 16 21  1  0  0  0
 16 31  1  0  0  0
 17 18  1  0  0  0
 17 95  1  0  0  0
 18 19  2  0  0  0
 18 96  1  0  0  0
 19 20  1  0  0  0
 19 24  1  0  0  0
 20 21  2  0  0  0
 20 97  1  0  0  0
 21 23  1  0  0  0
 22 28  1  0  0  0
 22 32  2  0  0  0
 26 27  1  0  0  0
 28 98  1  0  0  0
 28 99  1  0  0  0
 29100  1  0  0  0
 29101  1  0  0  0
 33 34  1  0  0  0
 33 66  1  0  0  0
 33 70  2  0  0  0
 34 36  1  0  0  0
 34 59  1  0  0  0
 34102  1  0  0  0
 35 44  2  0  0  0
 35 45  1  0  0  0
 35 68  1  0  0  0
 36 56  1  0  0  0
 36103  1  0  0  0
 37 39  1  0  0  0
 37 47  1  0  0  0
 37 66  1  0  0  0
 37104  1  0  0  0
 38 43  2  0  0  0
 38 46  1  0  0  0
 38 47  1  0  0  0
 39 64  1  0  0  0
 39 67  2  0  0  0
 40 52  1  0  0  0
 40 53  2  0  0  0
 40 58  1  0  0  0
 41105  1  0  0  0
 41106  1  0  0  0
 41107  1  0  0  0
 41 48  1  0  0  0
 42 43  1  0  0  0
 42 66  1  0  0  0
 42108  1  0  0  0
 42109  1  0  0  0
 43 44  1  0  0  0
 44110  1  0  0  0
 45 46  2  0  0  0
 45111  1  0  0  0
 46112  1  0  0  0
 47113  1  0  0  0
 47114  1  0  0  0
 48 56  1  0  0  0
 48 65  1  0  0  0
 48115  1  0  0  0
 49 50  1  0  0  0
 49 53  1  0  0  0
 49 64  1  0  0  0
 49116  1  0  0  0
 50 51  1  0  0  0
 50117  1  0  0  0
 50118  1  0  0  0
 51 52  1  0  0  0
 51119  1  0  0  0
 51120  1  0  0  0
 52121  1  0  0  0
 52122  1  0  0  0
 53 54  1  0  0  0
 54 55  2  0  0  0
 54123  1  0  0  0
 55 57  1  0  0  0
 55124  1  0  0  0
 56 69  2  0  0  0
 57 58  2  0  0  0
 57125  1  0  0  0
 58126  1  0  0  0
 59 60  1  0  0  0
 59 61  1  0  0  0
 59 62  1  0  0  0
 60127  1  0  0  0
 60128  1  0  0  0
 60129  1  0  0  0
 61130  1  0  0  0
 61131  1  0  0  0
 61132  1  0  0  0
 62133  1  0  0  0
 62134  1  0  0  0
 62135  1  0  0  0
 63 65  1  0  0  0
 63136  1  0  0  0
 63137  1  0  0  0
 63138  1  0  0  0
 64139  1  0  0  0
 65140  1  0  0  0
 68 79  1  0  0  0
 71 72  2  0  0  0
 71 80  1  0  0  0
 71141  1  0  0  0
 72 73  1  0  0  0
 72 77  1  0  0  0
 73 74  2  0  0  0
 73 75  1  0  0  0
 74 76  1  0  0  0
 74 80  1  0  0  0
 75142  1  0  0  0
 75143  1  0  0  0
 75144  1  0  0  0
 76145  1  0  0  0
 76146  1  0  0  0
 76147  1  0  0  0
 77 81  1  0  0  0
 77148  1  0  0  0
 77149  1  0  0  0
 78 79  1  0  0  0
 78 80  1  0  0  0
 78150  1  0  0  0
 78151  1  0  0  0
 79152  1  0  0  0
 79153  1  0  0  0
 81154  1  0  0  0
M  ISO  4   1 100  68 101  79 101  81 100
M  END
> <chiral flag>
0

> <version>
0

> <s_m_source_file>
/data/baiqing/PycharmProjects/Reinvent-master-3.2/result/LINK_invent/BTK/process_docking_weight1_custom_sum_contain_oxygen_bond_distance_aromatic_linkinvent_7_9_3/rearranged_h_0102.sdf

> <i_m_source_file_index>
44

> <r_mmod_Potential_Energy-OPLS-2005>
571.156127929688

> <r_mmod_Stretch_Energy-OPLS-2005>
317.641662597656

> <r_mmod_Bend_Energy-OPLS-2005>
306.248565673828

> <r_mmod_Torsional_Energy-OPLS-2005>
228.43669128418

> <r_mmod_Improper_Torsional_Energy-OPLS-2005>
7.90929651260376

> <r_mmod_Van_der_Waal_Energy-OPLS-2005>
108.675827026367

> <r_mmod_Electrostatic_Energy-OPLS-2005>
-419.404541015625

> <r_mmod_Solvation_Energy-OPLS-2005>
-218.867294311523

> <b_mmod_Minimization_Converged-OPLS-2005>
0

> <r_mmod_RMS_Derivative-OPLS-2005>
6.90276575088501

$$$$
45
                    3D
 Structure written by MMmdl.
169177  0  0  1  0            999 V2000
  -30.5708  -14.7354   20.4663 C   0  0  0  0  0  0
  -30.4391  -12.4453   19.4816 C   0  0  0  0  0  0
  -29.5223  -12.5197   18.2391 C   0  0  0  0  0  0
  -28.0411  -12.3506   18.6343 C   0  0  0  0  0  0
  -27.6465  -13.2264   19.8551 C   0  0  2  0  0  0
  -28.6850  -13.1248   20.9958 C   0  0  0  0  0  0
  -25.2538  -13.8183   20.5671 C   0  0  0  0  0  0
  -24.1814  -13.0446   20.9182 C   0  0  0  0  0  0
  -24.6378  -11.6916   20.8697 C   0  0  0  0  0  0
  -23.9049  -10.4300   21.0373 C   0  0  0  0  0  0
  -24.3606   -9.4220   21.9149 C   0  0  0  0  0  0
  -23.6293   -8.2250   22.0735 C   0  0  0  0  0  0
  -22.4275   -8.0277   21.3534 C   0  0  0  0  0  0
  -21.9907   -9.0240   20.4633 C   0  0  0  0  0  0
  -22.7224  -10.2129   20.3023 C   0  0  0  0  0  0
  -21.6864   -6.0727   22.5271 C   0  0  0  0  0  0
  -21.4017   -6.5625   23.8208 C   0  0  0  0  0  0
  -21.3658   -5.6777   24.9165 C   0  0  0  0  0  0
  -21.6051   -4.3040   24.7217 C   0  0  0  0  0  0
  -21.8823   -3.8133   23.4335 C   0  0  0  0  0  0
  -21.9199   -4.6949   22.3393 C   0  0  0  0  0  0
  -22.7840  -13.5241   21.1842 C   0  0  0  0  0  0
  -22.1668   -4.2135   21.0975 F   0  0  0  0  0  0
  -21.5633   -3.4523   25.7723 F   0  0  0  0  0  0
  -29.9918  -13.4870   20.4340 N   0  0  0  0  0  0
  -26.2950  -12.9375   20.3249 N   0  0  0  0  0  0
  -25.9310  -11.6522   20.5683 N   0  0  0  0  0  0
  -22.0471  -12.8242   22.0402 N   0  0  0  0  0  0
  -25.4244  -15.1904   20.4099 N   0  0  0  0  0  0
  -31.7349  -14.8867   20.0824 O   0  0  0  0  0  0
  -21.6645   -6.8871   21.4235 O   0  0  0  0  0  0
  -22.3520  -14.5527   20.6648 O   0  0  0  0  0  0
  -24.6313  -31.8532   23.1949 C   0  0  0  0  0  0
  -25.9133  -32.4742   23.8305 C   0  0  1  0  0  0
  -27.2263  -27.2504   20.1458 C   0  0  0  0  0  0
  -25.5924  -33.8542   24.2237 N   0  0  0  0  0  0
  -23.4284  -30.4718   21.5392 C   0  0  2  0  0  0
  -24.8766  -28.9108   20.1104 C   0  0  0  0  0  0
  -22.7505  -29.4585   22.4922 C   0  0  0  0  0  0
  -18.0289  -28.1376   22.8502 C   0  0  0  0  0  0
  -24.1488  -36.7279   23.2646 C   0  0  0  0  0  0
  -25.9720  -30.7632   21.3735 C   0  0  0  0  0  0
  -26.0442  -29.3829   20.7206 C   0  0  0  0  0  0
  -27.2176  -28.5646   20.7260 C   0  0  0  0  0  0
  -26.0332  -26.8376   19.5121 C   0  0  0  0  0  0
  -24.8770  -27.6472   19.4943 C   0  0  0  0  0  0
  -23.6459  -29.7975   20.1570 C   0  0  0  0  0  0
  -25.4113  -36.3063   24.0334 C   0  0  1  0  0  0
  -20.5896  -28.3690   23.1281 C   0  0  2  0  0  0
  -20.6778  -26.9409   22.5423 C   0  0  0  0  0  0
  -19.5746  -26.6376   21.5231 C   0  0  0  0  0  0
  -18.1924  -26.7919   22.1635 C   0  0  0  0  0  0
  -19.1544  -28.8850   23.2882 C   0  0  0  0  0  0
  -18.9457  -30.1458   23.8889 C   0  0  0  0  0  0
  -17.6458  -30.6583   24.0557 C   0  0  0  0  0  0
  -25.9057  -34.9436   23.5092 C   0  0  0  0  0  0
  -16.5353  -29.9079   23.6330 C   0  0  0  0  0  0
  -16.7275  -28.6494   23.0355 C   0  0  0  0  0  0
  -26.4488  -31.6578   25.0710 C   0  0  0  0  0  0
  -25.3700  -31.3744   26.1428 C   0  0  0  0  0  0
  -27.0339  -30.2995   24.6210 C   0  0  0  0  0  0
  -27.6033  -32.4335   25.7484 C   0  0  0  0  0  0
  -27.5579  -37.1800   24.8463 C   0  0  0  0  0  0
  -21.4211  -29.3032   22.3661 N   0  0  0  0  0  0
  -26.4288  -37.3765   23.9409 N   0  0  0  0  0  0
  -24.6967  -31.0483   22.0923 N   0  0  0  0  0  0
  -23.4204  -28.8137   23.3031 O   0  0  0  0  0  0
  -28.3525  -26.3992   20.2369 O   0  0  0  0  0  0
  -26.5642  -34.8928   22.4672 O   0  0  0  0  0  0
  -23.5468  -32.1356   23.7246 O   0  0  0  0  0  0
  -28.1593  -20.1736   19.3999 C   0  0  0  0  0  0
  -29.1266  -21.2093   21.0714 C   0  0  0  0  0  0
  -28.9496  -19.9158   20.5589 C   0  0  0  0  0  0
  -27.7837  -21.5010   19.3294 C   0  0  0  0  0  0
  -24.9046  -21.9720   20.1975 C   0  0  0  0  0  0
  -27.0702  -21.7710   16.9296 C   0  0  0  0  0  0
  -28.0385  -18.0103   21.8987 C   0  0  0  0  0  0
  -30.4290  -18.6483   22.2250 C   0  0  0  0  0  0
  -25.3194  -21.6553   18.7524 C   0  0  0  0  0  0
  -28.2200  -23.6950   20.7732 C   0  0  0  0  0  0
  -29.7933  -17.2635   20.2051 C   0  0  0  0  0  0
  -28.4093  -24.9646   19.7726 C   0  0  0  0  0  0
  -26.7575  -22.0910   18.3986 C   0  0  1  0  0  0
  -29.3179  -18.4762   21.1746 C   0  0  0  0  0  0
  -28.4177  -22.2181   20.3530 N   0  0  0  0  0  0
  -29.7437  -15.8161   20.7142 N   0  0  0  0  0  0
  -31.4812  -12.5811   19.1882 H   0  0  0  0  0  0
  -30.3888  -11.4574   19.9428 H   0  0  0  0  0  0
  -29.8088  -11.7579   17.5131 H   0  0  0  0  0  0
  -29.6608  -13.4813   17.7417 H   0  0  0  0  0  0
  -27.8811  -11.2974   18.8661 H   0  0  0  0  0  0
  -27.3987  -12.5766   17.7807 H   0  0  0  0  0  0
  -27.6498  -14.2565   19.4978 H   0  0  0  0  0  0
  -28.7144  -12.1134   21.4033 H   0  0  0  0  0  0
  -28.4149  -13.7794   21.8260 H   0  0  0  0  0  0
  -25.2747   -9.5714   22.4721 H   0  0  0  0  0  0
  -24.0010   -7.4652   22.7462 H   0  0  0  0  0  0
  -21.0833   -8.8734   19.8949 H   0  0  0  0  0  0
  -22.3651  -10.9649   19.6123 H   0  0  0  0  0  0
  -21.2007   -7.6132   23.9703 H   0  0  0  0  0  0
  -21.1485   -6.0506   25.9075 H   0  0  0  0  0  0
  -22.0609   -2.7592   23.2828 H   0  0  0  0  0  0
  -22.4083  -11.9924   22.4844 H   0  0  0  0  0  0
  -21.1058  -13.1245   22.2526 H   0  0  0  0  0  0
  -24.6570  -15.8444   20.5174 H   0  0  0  0  0  0
  -26.2683  -15.6279   20.0673 H   0  0  0  0  0  0
  -26.7202  -32.5388   23.1048 H   0  0  0  0  0  0
  -25.0040  -33.9665   25.0363 H   0  0  0  0  0  0
  -22.7262  -31.2942   21.3906 H   0  0  0  0  0  0
  -23.3758  -35.9605   23.3288 H   0  0  0  0  0  0
  -24.3577  -36.8921   22.2066 H   0  0  0  0  0  0
  -23.7238  -37.6478   23.6673 H   0  0  0  0  0  0
  -26.1101  -31.5196   20.5998 H   0  0  0  0  0  0
  -26.8503  -30.8136   22.0056 H   0  0  0  0  0  0
  -28.1122  -28.9218   21.2176 H   0  0  0  0  0  0
  -25.9551  -25.8652   19.0511 H   0  0  0  0  0  0
  -23.9820  -27.2759   19.0164 H   0  0  0  0  0  0
  -23.7680  -30.5696   19.3965 H   0  0  0  0  0  0
  -22.7635  -29.2292   19.8568 H   0  0  0  0  0  0
  -25.1296  -36.1905   25.0828 H   0  0  0  0  0  0
  -20.9995  -28.3277   24.1399 H   0  0  0  0  0  0
  -20.5684  -26.2306   23.3629 H   0  0  0  0  0  0
  -21.6642  -26.7423   22.1208 H   0  0  0  0  0  0
  -19.6900  -25.6285   21.1252 H   0  0  0  0  0  0
  -19.6676  -27.3192   20.6762 H   0  0  0  0  0  0
  -17.4204  -26.6694   21.4026 H   0  0  0  0  0  0
  -18.0295  -26.0056   22.9020 H   0  0  0  0  0  0
  -19.7936  -30.7268   24.2263 H   0  0  0  0  0  0
  -17.5008  -31.6261   24.5159 H   0  0  0  0  0  0
  -15.5346  -30.2965   23.7649 H   0  0  0  0  0  0
  -15.8687  -28.0801   22.7065 H   0  0  0  0  0  0
  -24.5853  -30.7120   25.7749 H   0  0  0  0  0  0
  -24.8913  -32.2923   26.4854 H   0  0  0  0  0  0
  -25.8003  -30.8908   27.0205 H   0  0  0  0  0  0
  -26.2929  -29.6745   24.1215 H   0  0  0  0  0  0
  -27.3989  -29.7261   25.4739 H   0  0  0  0  0  0
  -27.8811  -30.4264   23.9468 H   0  0  0  0  0  0
  -27.2620  -33.3637   26.2037 H   0  0  0  0  0  0
  -28.3846  -32.6901   25.0317 H   0  0  0  0  0  0
  -28.0688  -31.8481   26.5423 H   0  0  0  0  0  0
  -28.2593  -38.0106   24.7517 H   0  0  0  0  0  0
  -28.1080  -36.2637   24.6263 H   0  0  0  0  0  0
  -27.2299  -37.1419   25.8870 H   0  0  0  0  0  0
  -20.9403  -29.8751   21.6861 H   0  0  0  0  0  0
  -26.0165  -38.2842   24.1401 H   0  0  0  0  0  0
  -27.7766  -19.4134   18.7324 H   0  0  0  0  0  0
  -29.6424  -21.4982   21.9782 H   0  0  0  0  0  0
  -23.8470  -21.7583   20.3563 H   0  0  0  0  0  0
  -25.0703  -23.0224   20.4348 H   0  0  0  0  0  0
  -25.4677  -21.3704   20.9121 H   0  0  0  0  0  0
  -28.0649  -22.1225   16.6547 H   0  0  0  0  0  0
  -26.3577  -22.2581   16.2636 H   0  0  0  0  0  0
  -27.0269  -20.6992   16.7304 H   0  0  0  0  0  0
  -27.7032  -18.7557   22.6212 H   0  0  0  0  0  0
  -28.1792  -17.0785   22.4451 H   0  0  0  0  0  0
  -27.2231  -17.8599   21.1897 H   0  0  0  0  0  0
  -30.1317  -19.3194   23.0300 H   0  0  0  0  0  0
  -31.3327  -19.0559   21.7719 H   0  0  0  0  0  0
  -30.6938  -17.6952   22.6833 H   0  0  0  0  0  0
  -24.6222  -22.1497   18.0750 H   0  0  0  0  0  0
  -25.1995  -20.5851   18.5796 H   0  0  0  0  0  0
  -27.2193  -23.7594   21.1989 H   0  0  0  0  0  0
  -28.8830  -23.8595   21.6223 H   0  0  0  0  0  0
  -30.7897  -17.4747   19.8144 H   0  0  0  0  0  0
  -29.1428  -17.2719   19.3294 H   0  0  0  0  0  0
  -27.8078  -24.8714   18.8774 H   0  0  0  0  0  0
  -29.4241  -24.8607   19.3882 H   0  0  0  0  0  0
  -26.7576  -23.1688   18.4860 H   0  0  0  0  0  0
  -28.8487  -15.5510   21.0965 H   0  0  0  0  0  0
  1 25  1  0  0  0
  1 30  2  0  0  0
  1 86  1  0  0  0
  2  3  1  0  0  0
  2 25  1  0  0  0
  2 87  1  0  0  0
  2 88  1  0  0  0
  3  4  1  0  0  0
  3 89  1  0  0  0
  3 90  1  0  0  0
  4  5  1  0  0  0
  4 91  1  0  0  0
  4 92  1  0  0  0
  5  6  1  0  0  0
  5 26  1  0  0  0
  5 93  1  0  0  0
  6 25  1  0  0  0
  6 94  1  0  0  0
  6 95  1  0  0  0
  7  8  2  0  0  0
  7 26  1  0  0  0
  7 29  1  0  0  0
  8  9  1  0  0  0
  8 22  1  0  0  0
  9 10  1  0  0  0
  9 27  2  0  0  0
 10 11  2  0  0  0
 10 15  1  0  0  0
 11 12  1  0  0  0
 11 96  1  0  0  0
 12 13  2  0  0  0
 12 97  1  0  0  0
 13 14  1  0  0  0
 13 31  1  0  0  0
 14 15  2  0  0  0
 14 98  1  0  0  0
 15 99  1  0  0  0
 16 17  2  0  0  0
 16 21  1  0  0  0
 16 31  1  0  0  0
 17 18  1  0  0  0
 17100  1  0  0  0
 18 19  2  0  0  0
 18101  1  0  0  0
 19 20  1  0  0  0
 19 24  1  0  0  0
 20 21  2  0  0  0
 20102  1  0  0  0
 21 23  1  0  0  0
 22 28  1  0  0  0
 22 32  2  0  0  0
 26 27  1  0  0  0
 28103  1  0  0  0
 28104  1  0  0  0
 29105  1  0  0  0
 29106  1  0  0  0
 33 34  1  0  0  0
 33 66  1  0  0  0
 33 70  2  0  0  0
 34 36  1  0  0  0
 34 59  1  0  0  0
 34107  1  0  0  0
 35 44  2  0  0  0
 35 45  1  0  0  0
 35 68  1  0  0  0
 36 56  1  0  0  0
 36108  1  0  0  0
 37 39  1  0  0  0
 37 47  1  0  0  0
 37 66  1  0  0  0
 37109  1  0  0  0
 38 43  2  0  0  0
 38 46  1  0  0  0
 38 47  1  0  0  0
 39 64  1  0  0  0
 39 67  2  0  0  0
 40 52  1  0  0  0
 40 53  2  0  0  0
 40 58  1  0  0  0
 41110  1  0  0  0
 41111  1  0  0  0
 41112  1  0  0  0
 41 48  1  0  0  0
 42 43  1  0  0  0
 42 66  1  0  0  0
 42113  1  0  0  0
 42114  1  0  0  0
 43 44  1  0  0  0
 44115  1  0  0  0
 45 46  2  0  0  0
 45116  1  0  0  0
 46117  1  0  0  0
 47118  1  0  0  0
 47119  1  0  0  0
 48 56  1  0  0  0
 48 65  1  0  0  0
 48120  1  0  0  0
 49 50  1  0  0  0
 49 53  1  0  0  0
 49 64  1  0  0  0
 49121  1  0  0  0
 50 51  1  0  0  0
 50122  1  0  0  0
 50123  1  0  0  0
 51 52  1  0  0  0
 51124  1  0  0  0
 51125  1  0  0  0
 52126  1  0  0  0
 52127  1  0  0  0
 53 54  1  0  0  0
 54 55  2  0  0  0
 54128  1  0  0  0
 55 57  1  0  0  0
 55129  1  0  0  0
 56 69  2  0  0  0
 57 58  2  0  0  0
 57130  1  0  0  0
 58131  1  0  0  0
 59 60  1  0  0  0
 59 61  1  0  0  0
 59 62  1  0  0  0
 60132  1  0  0  0
 60133  1  0  0  0
 60134  1  0  0  0
 61135  1  0  0  0
 61136  1  0  0  0
 61137  1  0  0  0
 62138  1  0  0  0
 62139  1  0  0  0
 62140  1  0  0  0
 63 65  1  0  0  0
 63141  1  0  0  0
 63142  1  0  0  0
 63143  1  0  0  0
 64144  1  0  0  0
 65145  1  0  0  0
 68 82  1  0  0  0
 71 73  1  0  0  0
 71 74  2  0  0  0
 71146  1  0  0  0
 72 73  2  0  0  0
 72 85  1  0  0  0
 72147  1  0  0  0
 73 84  1  0  0  0
 74 83  1  0  0  0
 74 85  1  0  0  0
 75 79  1  0  0  0
 75148  1  0  0  0
 75149  1  0  0  0
 75150  1  0  0  0
 76151  1  0  0  0
 76152  1  0  0  0
 76153  1  0  0  0
 76 83  1  0  0  0
 77154  1  0  0  0
 77155  1  0  0  0
 77156  1  0  0  0
 77 84  1  0  0  0
 78 84  1  0  0  0
 78157  1  0  0  0
 78158  1  0  0  0
 78159  1  0  0  0
 79 83  1  0  0  0
 79160  1  0  0  0
 79161  1  0  0  0
 80 82  1  0  0  0
 80 85  1  0  0  0
 80162  1  0  0  0
 80163  1  0  0  0
 81 84  1  0  0  0
 81 86  1  0  0  0
 81164  1  0  0  0
 81165  1  0  0  0
 82166  1  0  0  0
 82167  1  0  0  0
 83168  1  0  0  0
 86169  1  0  0  0
M  ISO  4   1 100  68 101  82 101  86 100
M  END
> <chiral flag>
0

> <version>
0

> <s_m_source_file>
/data/baiqing/PycharmProjects/Reinvent-master-3.2/result/LINK_invent/BTK/process_docking_weight1_custom_sum_contain_oxygen_bond_distance_aromatic_linkinvent_7_9_3/rearranged_h_0102.sdf

> <i_m_source_file_index>
45

> <r_mmod_Potential_Energy-OPLS-2005>
120.146331787109

> <r_mmod_Stretch_Energy-OPLS-2005>
129.55876159668

> <r_mmod_Bend_Energy-OPLS-2005>
197.855514526367

> <r_mmod_Torsional_Energy-OPLS-2005>
244.368591308594

> <r_mmod_Improper_Torsional_Energy-OPLS-2005>
9.26254558563232

> <r_mmod_Van_der_Waal_Energy-OPLS-2005>
107.581962585449

> <r_mmod_Electrostatic_Energy-OPLS-2005>
-453.960845947266

> <r_mmod_Solvation_Energy-OPLS-2005>
-198.550537109375

> <b_mmod_Minimization_Converged-OPLS-2005>
0

> <r_mmod_RMS_Derivative-OPLS-2005>
2.24081325531006

$$$$
46
                    3D
 Structure written by MMmdl.
152159  0  0  1  0            999 V2000
  -30.3103  -15.5462   20.3756 C   0  0  0  0  0  0
  -30.4293  -13.0203   19.5274 C   0  0  0  0  0  0
  -29.5509  -12.6500   18.2997 C   0  0  0  0  0  0
  -28.1103  -12.3161   18.7265 C   0  0  0  0  0  0
  -27.5978  -13.2988   19.8047 C   0  0  2  0  0  0
  -28.6186  -13.5814   20.9272 C   0  0  0  0  0  0
  -25.2349  -13.8277   20.5718 C   0  0  0  0  0  0
  -24.1737  -13.0440   20.9251 C   0  0  0  0  0  0
  -24.6426  -11.6947   20.8732 C   0  0  0  0  0  0
  -23.9122  -10.4282   21.0390 C   0  0  0  0  0  0
  -24.3671   -9.4199   21.9176 C   0  0  0  0  0  0
  -23.6318   -8.2253   22.0776 C   0  0  0  0  0  0
  -22.4298   -8.0275   21.3556 C   0  0  0  0  0  0
  -21.9938   -9.0258   20.4652 C   0  0  0  0  0  0
  -22.7294  -10.2122   20.3044 C   0  0  0  0  0  0
  -21.6867   -6.0727   22.5261 C   0  0  0  0  0  0
  -21.4025   -6.5634   23.8192 C   0  0  0  0  0  0
  -21.3671   -5.6784   24.9157 C   0  0  0  0  0  0
  -21.6047   -4.3046   24.7220 C   0  0  0  0  0  0
  -21.8832   -3.8131   23.4336 C   0  0  0  0  0  0
  -21.9209   -4.6961   22.3400 C   0  0  0  0  0  0
  -22.7746  -13.5184   21.1892 C   0  0  0  0  0  0
  -22.1677   -4.2140   21.0978 F   0  0  0  0  0  0
  -21.5640   -3.4544   25.7735 F   0  0  0  0  0  0
  -29.7960  -14.1907   20.2728 N   0  0  0  0  0  0
  -26.2773  -12.9576   20.3138 N   0  0  0  0  0  0
  -25.9352  -11.6666   20.5643 N   0  0  0  0  0  0
  -22.0410  -12.8139   22.0439 N   0  0  0  0  0  0
  -25.3975  -15.2010   20.4122 N   0  0  0  0  0  0
  -31.5522  -15.5154   20.3043 O   0  0  0  0  0  0
  -21.6651   -6.8872   21.4233 O   0  0  0  0  0  0
  -22.3409  -14.5475   20.6711 O   0  0  0  0  0  0
  -24.6810  -31.8038   23.1521 C   0  0  0  0  0  0
  -25.9413  -32.4488   23.8056 C   0  0  1  0  0  0
  -27.2123  -26.7166   20.2313 C   0  0  0  0  0  0
  -25.5996  -33.8309   24.1966 N   0  0  0  0  0  0
  -23.5056  -30.4050   21.5076 C   0  0  2  0  0  0
  -24.9556  -28.7443   20.1288 C   0  0  0  0  0  0
  -22.7762  -29.4331   22.4734 C   0  0  0  0  0  0
  -18.0337  -28.1422   22.8446 C   0  0  0  0  0  0
  -24.1491  -36.7160   23.2649 C   0  0  0  0  0  0
  -26.0847  -30.5416   21.4128 C   0  0  0  0  0  0
  -26.1467  -29.1040   20.7731 C   0  0  0  0  0  0
  -27.2656  -28.1209   20.7826 C   0  0  0  0  0  0
  -25.9830  -26.5543   19.5429 C   0  0  0  0  0  0
  -24.9106  -27.4935   19.4912 C   0  0  0  0  0  0
  -23.7563  -29.7017   20.1438 C   0  0  0  0  0  0
  -25.4149  -36.2919   24.0281 C   0  0  1  0  0  0
  -20.5973  -28.3782   23.1148 C   0  0  2  0  0  0
  -20.6805  -26.9445   22.5397 C   0  0  0  0  0  0
  -19.5779  -26.6374   21.5208 C   0  0  0  0  0  0
  -18.1954  -26.7942   22.1608 C   0  0  0  0  0  0
  -19.1601  -28.8927   23.2771 C   0  0  0  0  0  0
  -18.9507  -30.1514   23.8825 C   0  0  0  0  0  0
  -17.6498  -30.6607   24.0550 C   0  0  0  0  0  0
  -25.9125  -34.9304   23.4961 C   0  0  0  0  0  0
  -16.5389  -29.9086   23.6353 C   0  0  0  0  0  0
  -16.7313  -28.6511   23.0367 C   0  0  0  0  0  0
  -26.4600  -31.6498   25.0665 C   0  0  0  0  0  0
  -25.3674  -31.3800   26.1287 C   0  0  0  0  0  0
  -27.0521  -30.2833   24.6540 C   0  0  0  0  0  0
  -27.6059  -32.4345   25.7489 C   0  0  0  0  0  0
  -27.5581  -37.1740   24.8469 C   0  0  0  0  0  0
  -21.4415  -29.3037   22.3475 N   0  0  0  0  0  0
  -26.4285  -37.3672   23.9421 N   0  0  0  0  0  0
  -24.7812  -30.9499   22.0759 N   0  0  0  0  0  0
  -23.4207  -28.7933   23.3077 O   0  0  0  0  0  0
  -28.2146  -25.5436   20.1688 O   0  0  0  0  0  0
  -26.5764  -34.8866   22.4583 O   0  0  0  0  0  0
  -23.5843  -32.1102   23.6484 O   0  0  0  0  0  0
  -27.0831  -21.7439   19.3971 C   0  0  0  0  0  0
  -30.7002  -20.8566   20.6976 C   0  0  0  0  0  0
  -29.5242  -20.1511   18.6488 C   0  0  0  0  0  0
  -29.3142  -18.5568   20.8061 C   0  0  0  0  0  0
  -28.2822  -23.8754   20.6890 C   0  0  0  0  0  0
  -28.2828  -21.9673   20.3300 C   0  0  2  0  0  0
  -29.3451  -20.3651   20.1623 C   0  0  0  0  0  0
  -29.5026  -16.8622   20.3432 N   0  0  0  0  0  0
  -31.4301  -13.2853   19.1879 H   0  0  0  0  0  0
  -30.5643  -12.1550   20.1785 H   0  0  0  0  0  0
  -29.9866  -11.8135   17.7516 H   0  0  0  0  0  0
  -29.5391  -13.4980   17.6115 H   0  0  0  0  0  0
  -28.1000  -11.2964   19.1129 H   0  0  0  0  0  0
  -27.4494  -12.3239   17.8579 H   0  0  0  0  0  0
  -27.4732  -14.2377   19.2654 H   0  0  0  0  0  0
  -28.8613  -12.6789   21.4874 H   0  0  0  0  0  0
  -28.2032  -14.2879   21.6473 H   0  0  0  0  0  0
  -25.2833   -9.5676   22.4734 H   0  0  0  0  0  0
  -24.0027   -7.4648   22.7494 H   0  0  0  0  0  0
  -21.0889   -8.8777   19.8937 H   0  0  0  0  0  0
  -22.3766  -10.9667   19.6125 H   0  0  0  0  0  0
  -21.2008   -7.6131   23.9701 H   0  0  0  0  0  0
  -21.1485   -6.0508   25.9059 H   0  0  0  0  0  0
  -22.0603   -2.7601   23.2844 H   0  0  0  0  0  0
  -22.4073  -11.9836   22.4843 H   0  0  0  0  0  0
  -21.1007  -13.1117   22.2586 H   0  0  0  0  0  0
  -24.6287  -15.8552   20.5110 H   0  0  0  0  0  0
  -26.2266  -15.6249   20.0173 H   0  0  0  0  0  0
  -26.7496  -32.4959   23.0774 H   0  0  0  0  0  0
  -25.0075  -33.9351   25.0074 H   0  0  0  0  0  0
  -22.8292  -31.2410   21.3189 H   0  0  0  0  0  0
  -23.3774  -35.9462   23.3268 H   0  0  0  0  0  0
  -24.3556  -36.8862   22.2068 H   0  0  0  0  0  0
  -23.7217  -37.6317   23.6746 H   0  0  0  0  0  0
  -26.2829  -31.2599   20.6158 H   0  0  0  0  0  0
  -26.9396  -30.6110   22.0742 H   0  0  0  0  0  0
  -28.1769  -28.4130   21.2836 H   0  0  0  0  0  0
  -25.8235  -25.6103   19.0412 H   0  0  0  0  0  0
  -24.0116  -27.2095   18.9591 H   0  0  0  0  0  0
  -23.9334  -30.4586   19.3789 H   0  0  0  0  0  0
  -22.8595  -29.1689   19.8217 H   0  0  0  0  0  0
  -25.1350  -36.1695   25.0765 H   0  0  0  0  0  0
  -21.0040  -28.3402   24.1284 H   0  0  0  0  0  0
  -20.5660  -26.2418   23.3664 H   0  0  0  0  0  0
  -21.6665  -26.7386   22.1234 H   0  0  0  0  0  0
  -19.6941  -25.6259   21.1298 H   0  0  0  0  0  0
  -19.6728  -27.3144   20.6699 H   0  0  0  0  0  0
  -17.4233  -26.6696   21.4004 H   0  0  0  0  0  0
  -18.0344  -26.0110   22.9030 H   0  0  0  0  0  0
  -19.7984  -30.7346   24.2169 H   0  0  0  0  0  0
  -17.5048  -31.6277   24.5158 H   0  0  0  0  0  0
  -15.5385  -30.2971   23.7707 H   0  0  0  0  0  0
  -15.8717  -28.0801   22.7132 H   0  0  0  0  0  0
  -24.5868  -30.7156   25.7575 H   0  0  0  0  0  0
  -24.8855  -32.3008   26.4557 H   0  0  0  0  0  0
  -25.7838  -30.9048   27.0174 H   0  0  0  0  0  0
  -26.3223  -29.6471   24.1518 H   0  0  0  0  0  0
  -27.3944  -29.7252   25.5267 H   0  0  0  0  0  0
  -27.9206  -30.3967   24.0054 H   0  0  0  0  0  0
  -27.2607  -33.3696   26.1902 H   0  0  0  0  0  0
  -28.3945  -32.6827   25.0381 H   0  0  0  0  0  0
  -28.0649  -31.8592   26.5538 H   0  0  0  0  0  0
  -28.2556  -38.0077   24.7536 H   0  0  0  0  0  0
  -28.1117  -36.2597   24.6268 H   0  0  0  0  0  0
  -27.2296  -37.1346   25.8869 H   0  0  0  0  0  0
  -20.9719  -29.8713   21.6562 H   0  0  0  0  0  0
  -26.0116  -38.2721   24.1431 H   0  0  0  0  0  0
  -26.2250  -22.3537   19.6760 H   0  0  0  0  0  0
  -26.7557  -20.7039   19.4251 H   0  0  0  0  0  0
  -27.3476  -21.9822   18.3665 H   0  0  0  0  0  0
  -31.4847  -20.1104   20.5580 H   0  0  0  0  0  0
  -30.6445  -21.0767   21.7631 H   0  0  0  0  0  0
  -31.0237  -21.7689   20.1949 H   0  0  0  0  0  0
  -30.2311  -19.3455   18.4487 H   0  0  0  0  0  0
  -29.8978  -21.0489   18.1545 H   0  0  0  0  0  0
  -28.5891  -19.8712   18.1628 H   0  0  0  0  0  0
  -28.2982  -18.5024   21.2018 H   0  0  0  0  0  0
  -29.9096  -18.5910   21.7209 H   0  0  0  0  0  0
  -29.1290  -23.9458   21.3725 H   0  0  0  0  0  0
  -27.4266  -23.9267   21.3648 H   0  0  0  0  0  0
  -27.8858  -21.6970   21.3102 H   0  0  0  0  0  0
  -28.5637  -16.5460   20.1390 H   0  0  0  0  0  0
  1 25  1  0  0  0
  1 30  2  0  0  0
  1 78  1  0  0  0
  2  3  1  0  0  0
  2 25  1  0  0  0
  2 79  1  0  0  0
  2 80  1  0  0  0
  3  4  1  0  0  0
  3 81  1  0  0  0
  3 82  1  0  0  0
  4  5  1  0  0  0
  4 83  1  0  0  0
  4 84  1  0  0  0
  5  6  1  0  0  0
  5 26  1  0  0  0
  5 85  1  0  0  0
  6 25  1  0  0  0
  6 86  1  0  0  0
  6 87  1  0  0  0
  7  8  2  0  0  0
  7 26  1  0  0  0
  7 29  1  0  0  0
  8  9  1  0  0  0
  8 22  1  0  0  0
  9 10  1  0  0  0
  9 27  2  0  0  0
 10 11  2  0  0  0
 10 15  1  0  0  0
 11 12  1  0  0  0
 11 88  1  0  0  0
 12 13  2  0  0  0
 12 89  1  0  0  0
 13 14  1  0  0  0
 13 31  1  0  0  0
 14 15  2  0  0  0
 14 90  1  0  0  0
 15 91  1  0  0  0
 16 17  2  0  0  0
 16 21  1  0  0  0
 16 31  1  0  0  0
 17 18  1  0  0  0
 17 92  1  0  0  0
 18 19  2  0  0  0
 18 93  1  0  0  0
 19 20  1  0  0  0
 19 24  1  0  0  0
 20 21  2  0  0  0
 20 94  1  0  0  0
 21 23  1  0  0  0
 22 28  1  0  0  0
 22 32  2  0  0  0
 26 27  1  0  0  0
 28 95  1  0  0  0
 28 96  1  0  0  0
 29 97  1  0  0  0
 29 98  1  0  0  0
 33 34  1  0  0  0
 33 66  1  0  0  0
 33 70  2  0  0  0
 34 36  1  0  0  0
 34 59  1  0  0  0
 34 99  1  0  0  0
 35 44  2  0  0  0
 35 45  1  0  0  0
 35 68  1  0  0  0
 36 56  1  0  0  0
 36100  1  0  0  0
 37 39  1  0  0  0
 37 47  1  0  0  0
 37 66  1  0  0  0
 37101  1  0  0  0
 38 43  2  0  0  0
 38 46  1  0  0  0
 38 47  1  0  0  0
 39 64  1  0  0  0
 39 67  2  0  0  0
 40 52  1  0  0  0
 40 53  2  0  0  0
 40 58  1  0  0  0
 41102  1  0  0  0
 41103  1  0  0  0
 41104  1  0  0  0
 41 48  1  0  0  0
 42 43  1  0  0  0
 42 66  1  0  0  0
 42105  1  0  0  0
 42106  1  0  0  0
 43 44  1  0  0  0
 44107  1  0  0  0
 45 46  2  0  0  0
 45108  1  0  0  0
 46109  1  0  0  0
 47110  1  0  0  0
 47111  1  0  0  0
 48 56  1  0  0  0
 48 65  1  0  0  0
 48112  1  0  0  0
 49 50  1  0  0  0
 49 53  1  0  0  0
 49 64  1  0  0  0
 49113  1  0  0  0
 50 51  1  0  0  0
 50114  1  0  0  0
 50115  1  0  0  0
 51 52  1  0  0  0
 51116  1  0  0  0
 51117  1  0  0  0
 52118  1  0  0  0
 52119  1  0  0  0
 53 54  1  0  0  0
 54 55  2  0  0  0
 54120  1  0  0  0
 55 57  1  0  0  0
 55121  1  0  0  0
 56 69  2  0  0  0
 57 58  2  0  0  0
 57122  1  0  0  0
 58123  1  0  0  0
 59 60  1  0  0  0
 59 61  1  0  0  0
 59 62  1  0  0  0
 60124  1  0  0  0
 60125  1  0  0  0
 60126  1  0  0  0
 61127  1  0  0  0
 61128  1  0  0  0
 61129  1  0  0  0
 62130  1  0  0  0
 62131  1  0  0  0
 62132  1  0  0  0
 63 65  1  0  0  0
 63133  1  0  0  0
 63134  1  0  0  0
 63135  1  0  0  0
 64136  1  0  0  0
 65137  1  0  0  0
 68 75  1  0  0  0
 71138  1  0  0  0
 71139  1  0  0  0
 71140  1  0  0  0
 71 76  1  0  0  0
 72141  1  0  0  0
 72142  1  0  0  0
 72143  1  0  0  0
 72 77  1  0  0  0
 73 77  1  0  0  0
 73144  1  0  0  0
 73145  1  0  0  0
 73146  1  0  0  0
 74 77  1  0  0  0
 74 78  1  0  0  0
 74147  1  0  0  0
 74148  1  0  0  0
 75 76  1  0  0  0
 75149  1  0  0  0
 75150  1  0  0  0
 76 77  1  0  0  0
 76151  1  0  0  0
 78152  1  0  0  0
M  ISO  4   1 100  68 101  75 101  78 100
M  END
> <chiral flag>
0

> <version>
0

> <s_m_source_file>
/data/baiqing/PycharmProjects/Reinvent-master-3.2/result/LINK_invent/BTK/process_docking_weight1_custom_sum_contain_oxygen_bond_distance_aromatic_linkinvent_7_9_3/rearranged_h_0102.sdf

> <i_m_source_file_index>
46

> <r_mmod_Potential_Energy-OPLS-2005>
2526.61279296875

> <r_mmod_Stretch_Energy-OPLS-2005>
1110.56701660156

> <r_mmod_Bend_Energy-OPLS-2005>
796.488891601562

> <r_mmod_Torsional_Energy-OPLS-2005>
292.804748535156

> <r_mmod_Improper_Torsional_Energy-OPLS-2005>
6.30609130859375

> <r_mmod_Van_der_Waal_Energy-OPLS-2005>
108.714057922363

> <r_mmod_Electrostatic_Energy-OPLS-2005>
-386.528961181641

> <r_mmod_Solvation_Energy-OPLS-2005>
-208.153366088867

> <b_mmod_Minimization_Converged-OPLS-2005>
0

> <r_mmod_RMS_Derivative-OPLS-2005>
3.57655835151672

$$$$
47
                    3D
 Structure written by MMmdl.
179187  0  0  1  0            999 V2000
  -30.8113  -14.3439   20.6836 C   0  0  0  0  0  0
  -30.4091  -12.2780   19.4123 C   0  0  0  0  0  0
  -29.4860  -12.5184   18.2062 C   0  0  0  0  0  0
  -28.0124  -12.3770   18.6224 C   0  0  0  0  0  0
  -27.6689  -13.2104   19.8857 C   0  0  2  0  0  0
  -28.7067  -12.9845   21.0105 C   0  0  0  0  0  0
  -25.2612  -13.8185   20.5718 C   0  0  0  0  0  0
  -24.1852  -13.0462   20.9190 C   0  0  0  0  0  0
  -24.6412  -11.6925   20.8752 C   0  0  0  0  0  0
  -23.9070  -10.4313   21.0406 C   0  0  0  0  0  0
  -24.3618   -9.4219   21.9181 C   0  0  0  0  0  0
  -23.6297   -8.2252   22.0751 C   0  0  0  0  0  0
  -22.4276   -8.0293   21.3546 C   0  0  0  0  0  0
  -21.9914   -9.0263   20.4640 C   0  0  0  0  0  0
  -22.7244  -10.2144   20.3053 C   0  0  0  0  0  0
  -21.6856   -6.0739   22.5277 C   0  0  0  0  0  0
  -21.4014   -6.5640   23.8208 C   0  0  0  0  0  0
  -21.3659   -5.6793   24.9171 C   0  0  0  0  0  0
  -21.6050   -4.3057   24.7221 C   0  0  0  0  0  0
  -21.8817   -3.8149   23.4343 C   0  0  0  0  0  0
  -21.9193   -4.6967   22.3399 C   0  0  0  0  0  0
  -22.7877  -13.5251   21.1847 C   0  0  0  0  0  0
  -22.1663   -4.2153   21.0977 F   0  0  0  0  0  0
  -21.5628   -3.4540   25.7733 F   0  0  0  0  0  0
  -30.0571  -13.2347   20.4719 N   0  0  0  0  0  0
  -26.3067  -12.9371   20.3431 N   0  0  0  0  0  0
  -25.9339  -11.6521   20.5785 N   0  0  0  0  0  0
  -22.0510  -12.8246   22.0393 N   0  0  0  0  0  0
  -25.4351  -15.1909   20.4140 N   0  0  0  0  0  0
  -31.7895  -14.6359   19.9919 O   0  0  0  0  0  0
  -21.6647   -6.8887   21.4239 O   0  0  0  0  0  0
  -22.3566  -14.5561   20.6695 O   0  0  0  0  0  0
  -24.6092  -31.8714   23.2144 C   0  0  0  0  0  0
  -25.8990  -32.4851   23.8455 C   0  0  1  0  0  0
  -27.2254  -27.4400   20.1202 C   0  0  0  0  0  0
  -25.5843  -33.8645   24.2376 N   0  0  0  0  0  0
  -23.3970  -30.4991   21.5513 C   0  0  2  0  0  0
  -24.8444  -28.9679   20.1172 C   0  0  0  0  0  0
  -22.7388  -29.4675   22.4960 C   0  0  0  0  0  0
  -18.0277  -28.1365   22.8482 C   0  0  0  0  0  0
  -24.1473  -36.7313   23.2662 C   0  0  0  0  0  0
  -25.9262  -30.8446   21.3605 C   0  0  0  0  0  0
  -26.0040  -29.4790   20.7120 C   0  0  0  0  0  0
  -27.1976  -28.7255   20.7081 C   0  0  0  0  0  0
  -26.0500  -26.9463   19.5086 C   0  0  0  0  0  0
  -24.8623  -27.7006   19.5130 C   0  0  0  0  0  0
  -23.6078  -29.8348   20.1638 C   0  0  0  0  0  0
  -25.4104  -36.3140   24.0379 C   0  0  1  0  0  0
  -20.5859  -28.3649   23.1303 C   0  0  2  0  0  0
  -20.6753  -26.9372   22.5390 C   0  0  0  0  0  0
  -19.5738  -26.6378   21.5167 C   0  0  0  0  0  0
  -18.1930  -26.7923   22.1601 C   0  0  0  0  0  0
  -19.1525  -28.8824   23.2916 C   0  0  0  0  0  0
  -18.9459  -30.1432   23.8924 C   0  0  0  0  0  0
  -17.6456  -30.6569   24.0568 C   0  0  0  0  0  0
  -25.9029  -34.9501   23.5191 C   0  0  0  0  0  0
  -16.5344  -29.9074   23.6298 C   0  0  0  0  0  0
  -16.7270  -28.6472   23.0364 C   0  0  0  0  0  0
  -26.4418  -31.6633   25.0758 C   0  0  0  0  0  0
  -25.3713  -31.3694   26.1513 C   0  0  0  0  0  0
  -27.0273  -30.3117   24.6040 C   0  0  0  0  0  0
  -27.6033  -32.4344   25.7471 C   0  0  0  0  0  0
  -27.5587  -37.1812   24.8484 C   0  0  0  0  0  0
  -21.4124  -29.3043   22.3727 N   0  0  0  0  0  0
  -26.4295  -37.3812   23.9418 N   0  0  0  0  0  0
  -24.6633  -31.0842   22.1017 N   0  0  0  0  0  0
  -23.4185  -28.8182   23.2963 O   0  0  0  0  0  0
  -28.4042  -26.7251   20.1327 O   0  0  0  0  0  0
  -26.5594  -34.8935   22.4756 O   0  0  0  0  0  0
  -23.5284  -32.1444   23.7533 O   0  0  0  0  0  0
  -28.4592  -20.4651   23.1160 C   0  0  0  0  0  0
  -26.6338  -21.3205   24.4323 C   0  0  0  0  0  0
  -27.7777  -21.5739   23.6540 C   0  0  0  0  0  0
  -27.9467  -19.1669   23.3204 C   0  0  0  0  0  0
  -26.7683  -19.0186   24.0936 C   0  0  0  0  0  0
  -24.6685  -17.5903   23.9231 C   0  0  0  0  0  0
  -26.2867  -17.2570   25.8677 C   0  0  0  0  0  0
  -31.3989  -15.8559   24.5742 C   0  0  0  0  0  0
  -31.6893  -18.1749   23.6969 C   0  0  0  0  0  0
  -28.6812  -17.9875   22.6956 C   0  0  0  0  0  0
  -28.2650  -23.0056   23.4330 C   0  0  0  0  0  0
  -29.4007  -17.0993   23.7383 C   0  0  0  0  0  0
  -31.2286  -16.2998   22.1011 C   0  0  0  0  0  0
  -28.1627  -24.9415   21.8437 C   0  0  0  0  0  0
  -28.3400  -25.3059   20.3508 C   0  0  0  0  0  0
  -26.1314  -17.6542   24.3898 C   0  0  0  0  0  0
  -30.9125  -16.8571   23.5078 C   0  0  0  0  0  0
  -26.1451  -20.0815   24.6498 N   0  0  0  0  0  0
  -30.4860  -15.0903   21.7467 N   0  0  0  0  0  0
  -28.0666  -23.4707   22.0382 N   0  3  0  0  0  0
  -31.4548  -12.3551   19.1099 H   0  0  0  0  0  0
  -30.2905  -11.2611   19.7896 H   0  0  0  0  0  0
  -29.7187  -11.8110   17.4096 H   0  0  0  0  0  0
  -29.6625  -13.5143   17.7958 H   0  0  0  0  0  0
  -27.8216  -11.3203   18.8132 H   0  0  0  0  0  0
  -27.3587  -12.6590   17.7968 H   0  0  0  0  0  0
  -27.7204  -14.2606   19.5975 H   0  0  0  0  0  0
  -28.6540  -11.9589   21.3776 H   0  0  0  0  0  0
  -28.4603  -13.6143   21.8661 H   0  0  0  0  0  0
  -25.2758   -9.5698   22.4761 H   0  0  0  0  0  0
  -24.0005   -7.4646   22.7470 H   0  0  0  0  0  0
  -21.0850   -8.8783   19.8948 H   0  0  0  0  0  0
  -22.3700  -10.9684   19.6166 H   0  0  0  0  0  0
  -21.2008   -7.6150   23.9714 H   0  0  0  0  0  0
  -21.1483   -6.0523   25.9074 H   0  0  0  0  0  0
  -22.0598   -2.7614   23.2840 H   0  0  0  0  0  0
  -22.4115  -11.9888   22.4768 H   0  0  0  0  0  0
  -21.1118  -13.1254   22.2578 H   0  0  0  0  0  0
  -24.6710  -15.8477   20.5214 H   0  0  0  0  0  0
  -26.2909  -15.6239   20.0914 H   0  0  0  0  0  0
  -26.7046  -32.5572   23.1229 H   0  0  0  0  0  0
  -24.9987  -33.9831   25.0508 H   0  0  0  0  0  0
  -22.6895  -31.3190   21.4147 H   0  0  0  0  0  0
  -23.3744  -35.9638   23.3344 H   0  0  0  0  0  0
  -24.3570  -36.8882   22.2061 H   0  0  0  0  0  0
  -23.7184  -37.6533   23.6634 H   0  0  0  0  0  0
  -26.0341  -31.6083   20.5892 H   0  0  0  0  0  0
  -26.8164  -30.9078   21.9747 H   0  0  0  0  0  0
  -28.0915  -29.1232   21.1672 H   0  0  0  0  0  0
  -26.0249  -25.9951   19.0002 H   0  0  0  0  0  0
  -23.9711  -27.3054   19.0452 H   0  0  0  0  0  0
  -23.7250  -30.6142   19.4101 H   0  0  0  0  0  0
  -22.7292  -29.2623   19.8606 H   0  0  0  0  0  0
  -25.1247  -36.2076   25.0874 H   0  0  0  0  0  0
  -21.0000  -28.3191   24.1414 H   0  0  0  0  0  0
  -20.5616  -26.2230   23.3582 H   0  0  0  0  0  0
  -21.6633  -26.7396   22.1207 H   0  0  0  0  0  0
  -19.6900  -25.6293   21.1200 H   0  0  0  0  0  0
  -19.6709  -27.3192   20.6711 H   0  0  0  0  0  0
  -17.4188  -26.6683   21.4008 H   0  0  0  0  0  0
  -18.0352  -26.0050   22.8999 H   0  0  0  0  0  0
  -19.7937  -30.7229   24.2336 H   0  0  0  0  0  0
  -17.5014  -31.6274   24.5139 H   0  0  0  0  0  0
  -15.5353  -30.3003   23.7609 H   0  0  0  0  0  0
  -15.8667  -28.0810   22.7084 H   0  0  0  0  0  0
  -24.5875  -30.7055   25.7824 H   0  0  0  0  0  0
  -24.8893  -32.2823   26.5036 H   0  0  0  0  0  0
  -25.8067  -30.8800   27.0241 H   0  0  0  0  0  0
  -26.2775  -29.6878   24.1146 H   0  0  0  0  0  0
  -27.4182  -29.7351   25.4439 H   0  0  0  0  0  0
  -27.8555  -30.4529   23.9091 H   0  0  0  0  0  0
  -27.2703  -33.3657   26.2092 H   0  0  0  0  0  0
  -28.3793  -32.6915   25.0235 H   0  0  0  0  0  0
  -28.0784  -31.8462   26.5330 H   0  0  0  0  0  0
  -28.2631  -38.0091   24.7515 H   0  0  0  0  0  0
  -28.1066  -36.2619   24.6342 H   0  0  0  0  0  0
  -27.2316  -37.1501   25.8902 H   0  0  0  0  0  0
  -20.9257  -29.8838   21.7031 H   0  0  0  0  0  0
  -26.0220  -38.2917   24.1410 H   0  0  0  0  0  0
  -29.3593  -20.6144   22.5374 H   0  0  0  0  0  0
  -26.0914  -22.1355   24.8862 H   0  0  0  0  0  0
  -24.5930  -17.8184   22.8596 H   0  0  0  0  0  0
  -24.0444  -18.3023   24.4614 H   0  0  0  0  0  0
  -24.2468  -16.5968   24.0812 H   0  0  0  0  0  0
  -27.3355  -17.2628   26.1653 H   0  0  0  0  0  0
  -25.9006  -16.2550   26.0518 H   0  0  0  0  0  0
  -25.7521  -17.9468   26.5226 H   0  0  0  0  0  0
  -31.1926  -16.2190   25.5808 H   0  0  0  0  0  0
  -32.4749  -15.6860   24.5050 H   0  0  0  0  0  0
  -30.9108  -14.8865   24.4752 H   0  0  0  0  0  0
  -31.5231  -18.6045   24.6851 H   0  0  0  0  0  0
  -31.3997  -18.9272   22.9625 H   0  0  0  0  0  0
  -32.7640  -18.0242   23.5844 H   0  0  0  0  0  0
  -29.3779  -18.3729   21.9542 H   0  0  0  0  0  0
  -27.9799  -17.3885   22.1133 H   0  0  0  0  0  0
  -29.3218  -23.0725   23.6949 H   0  0  0  0  0  0
  -27.7264  -23.6607   24.1209 H   0  0  0  0  0  0
  -28.8825  -16.1422   23.8027 H   0  0  0  0  0  0
  -29.2784  -17.5381   24.7286 H   0  0  0  0  0  0
  -32.3005  -16.0922   22.0441 H   0  0  0  0  0  0
  -31.0425  -17.0503   21.3327 H   0  0  0  0  0  0
  -29.0054  -25.3328   22.4140 H   0  0  0  0  0  0
  -27.2689  -25.4090   22.2606 H   0  0  0  0  0  0
  -27.5870  -24.8167   19.7357 H   0  0  0  0  0  0
  -29.2913  -24.8960   20.0087 H   0  0  0  0  0  0
  -26.6411  -16.8855   23.8172 H   0  0  0  0  0  0
  -29.6979  -14.8136   22.3133 H   0  0  0  0  0  0
  -28.7692  -23.0269   21.4677 H   0  0  0  0  0  0
  -27.1701  -23.1519   21.7068 H   0  0  0  0  0  0
  1 25  1  0  0  0
  1 30  2  0  0  0
  1 89  1  0  0  0
  2  3  1  0  0  0
  2 25  1  0  0  0
  2 91  1  0  0  0
  2 92  1  0  0  0
  3  4  1  0  0  0
  3 93  1  0  0  0
  3 94  1  0  0  0
  4  5  1  0  0  0
  4 95  1  0  0  0
  4 96  1  0  0  0
  5  6  1  0  0  0
  5 26  1  0  0  0
  5 97  1  0  0  0
  6 25  1  0  0  0
  6 98  1  0  0  0
  6 99  1  0  0  0
  7  8  2  0  0  0
  7 26  1  0  0  0
  7 29  1  0  0  0
  8  9  1  0  0  0
  8 22  1  0  0  0
  9 10  1  0  0  0
  9 27  2  0  0  0
 10 11  2  0  0  0
 10 15  1  0  0  0
 11 12  1  0  0  0
 11100  1  0  0  0
 12 13  2  0  0  0
 12101  1  0  0  0
 13 14  1  0  0  0
 13 31  1  0  0  0
 14 15  2  0  0  0
 14102  1  0  0  0
 15103  1  0  0  0
 16 17  2  0  0  0
 16 21  1  0  0  0
 16 31  1  0  0  0
 17 18  1  0  0  0
 17104  1  0  0  0
 18 19  2  0  0  0
 18105  1  0  0  0
 19 20  1  0  0  0
 19 24  1  0  0  0
 20 21  2  0  0  0
 20106  1  0  0  0
 21 23  1  0  0  0
 22 28  1  0  0  0
 22 32  2  0  0  0
 26 27  1  0  0  0
 28107  1  0  0  0
 28108  1  0  0  0
 29109  1  0  0  0
 29110  1  0  0  0
 33 34  1  0  0  0
 33 66  1  0  0  0
 33 70  2  0  0  0
 34 36  1  0  0  0
 34 59  1  0  0  0
 34111  1  0  0  0
 35 44  2  0  0  0
 35 45  1  0  0  0
 35 68  1  0  0  0
 36 56  1  0  0  0
 36112  1  0  0  0
 37 39  1  0  0  0
 37 47  1  0  0  0
 37 66  1  0  0  0
 37113  1  0  0  0
 38 43  2  0  0  0
 38 46  1  0  0  0
 38 47  1  0  0  0
 39 64  1  0  0  0
 39 67  2  0  0  0
 40 52  1  0  0  0
 40 53  2  0  0  0
 40 58  1  0  0  0
 41114  1  0  0  0
 41115  1  0  0  0
 41116  1  0  0  0
 41 48  1  0  0  0
 42 43  1  0  0  0
 42 66  1  0  0  0
 42117  1  0  0  0
 42118  1  0  0  0
 43 44  1  0  0  0
 44119  1  0  0  0
 45 46  2  0  0  0
 45120  1  0  0  0
 46121  1  0  0  0
 47122  1  0  0  0
 47123  1  0  0  0
 48 56  1  0  0  0
 48 65  1  0  0  0
 48124  1  0  0  0
 49 50  1  0  0  0
 49 53  1  0  0  0
 49 64  1  0  0  0
 49125  1  0  0  0
 50 51  1  0  0  0
 50126  1  0  0  0
 50127  1  0  0  0
 51 52  1  0  0  0
 51128  1  0  0  0
 51129  1  0  0  0
 52130  1  0  0  0
 52131  1  0  0  0
 53 54  1  0  0  0
 54 55  2  0  0  0
 54132  1  0  0  0
 55 57  1  0  0  0
 55133  1  0  0  0
 56 69  2  0  0  0
 57 58  2  0  0  0
 57134  1  0  0  0
 58135  1  0  0  0
 59 60  1  0  0  0
 59 61  1  0  0  0
 59 62  1  0  0  0
 60136  1  0  0  0
 60137  1  0  0  0
 60138  1  0  0  0
 61139  1  0  0  0
 61140  1  0  0  0
 61141  1  0  0  0
 62142  1  0  0  0
 62143  1  0  0  0
 62144  1  0  0  0
 63 65  1  0  0  0
 63145  1  0  0  0
 63146  1  0  0  0
 63147  1  0  0  0
 64148  1  0  0  0
 65149  1  0  0  0
 68 85  1  0  0  0
 71 73  2  0  0  0
 71 74  1  0  0  0
 71150  1  0  0  0
 72 73  1  0  0  0
 72 88  2  0  0  0
 72151  1  0  0  0
 73 81  1  0  0  0
 74 75  2  0  0  0
 74 80  1  0  0  0
 75 86  1  0  0  0
 75 88  1  0  0  0
 76152  1  0  0  0
 76153  1  0  0  0
 76154  1  0  0  0
 76 86  1  0  0  0
 77 86  1  0  0  0
 77155  1  0  0  0
 77156  1  0  0  0
 77157  1  0  0  0
 78158  1  0  0  0
 78159  1  0  0  0
 78160  1  0  0  0
 78 87  1  0  0  0
 79 87  1  0  0  0
 79161  1  0  0  0
 79162  1  0  0  0
 79163  1  0  0  0
 80 82  1  0  0  0
 80164  1  0  0  0
 80165  1  0  0  0
 81 90  1  0  0  0
 81166  1  0  0  0
 81167  1  0  0  0
 82 87  1  0  0  0
 82168  1  0  0  0
 82169  1  0  0  0
 83 87  1  0  0  0
 83 89  1  0  0  0
 83170  1  0  0  0
 83171  1  0  0  0
 84 85  1  0  0  0
 84 90  1  0  0  0
 84172  1  0  0  0
 84173  1  0  0  0
 85174  1  0  0  0
 85175  1  0  0  0
 86176  1  0  0  0
 89177  1  0  0  0
 90178  1  0  0  0
 90179  1  0  0  0
M  CHG  1  90   1
M  ISO  4   1 100  68 101  85 101  89 100
M  END
> <chiral flag>
0

> <version>
0

> <s_m_source_file>
/data/baiqing/PycharmProjects/Reinvent-master-3.2/result/LINK_invent/BTK/process_docking_weight1_custom_sum_contain_oxygen_bond_distance_aromatic_linkinvent_7_9_3/rearranged_h_0102.sdf

> <i_m_source_file_index>
47

> <r_mmod_Potential_Energy-OPLS-2005>
-417.34130859375

> <r_mmod_Stretch_Energy-OPLS-2005>
36.5083961486816

> <r_mmod_Bend_Energy-OPLS-2005>
103.902862548828

> <r_mmod_Torsional_Energy-OPLS-2005>
208.956558227539

> <r_mmod_Improper_Torsional_Energy-OPLS-2005>
2.07872915267944

> <r_mmod_Van_der_Waal_Energy-OPLS-2005>
153.230987548828

> <r_mmod_Electrostatic_Energy-OPLS-2005>
-480.822570800781

> <r_mmod_Solvation_Energy-OPLS-2005>
-450.389282226562

> <b_mmod_Minimization_Converged-OPLS-2005>
0

> <r_mmod_RMS_Derivative-OPLS-2005>
4.17947912216187

$$$$
48
                    3D
 Structure written by MMmdl.
147155  0  0  1  0            999 V2000
  -30.4014  -15.3571   20.3566 C   0  0  0  0  0  0
  -30.4355  -12.8758   19.5283 C   0  0  0  0  0  0
  -29.5379  -12.5922   18.2960 C   0  0  0  0  0  0
  -28.0926  -12.2964   18.7292 C   0  0  0  0  0  0
  -27.6061  -13.2820   19.8187 C   0  0  2  0  0  0
  -28.6360  -13.4979   20.9485 C   0  0  0  0  0  0
  -25.2369  -13.8258   20.5764 C   0  0  0  0  0  0
  -24.1729  -13.0438   20.9276 C   0  0  0  0  0  0
  -24.6395  -11.6937   20.8771 C   0  0  0  0  0  0
  -23.9094  -10.4291   21.0407 C   0  0  0  0  0  0
  -24.3637   -9.4205   21.9185 C   0  0  0  0  0  0
  -23.6307   -8.2241   22.0754 C   0  0  0  0  0  0
  -22.4288   -8.0281   21.3546 C   0  0  0  0  0  0
  -21.9931   -9.0256   20.4645 C   0  0  0  0  0  0
  -22.7264  -10.2131   20.3055 C   0  0  0  0  0  0
  -21.6856   -6.0738   22.5280 C   0  0  0  0  0  0
  -21.4014   -6.5643   23.8214 C   0  0  0  0  0  0
  -21.3661   -5.6795   24.9174 C   0  0  0  0  0  0
  -21.6046   -4.3057   24.7224 C   0  0  0  0  0  0
  -21.8820   -3.8150   23.4345 C   0  0  0  0  0  0
  -21.9194   -4.6967   22.3401 C   0  0  0  0  0  0
  -22.7745  -13.5182   21.1925 C   0  0  0  0  0  0
  -22.1662   -4.2152   21.0979 F   0  0  0  0  0  0
  -21.5630   -3.4541   25.7737 F   0  0  0  0  0  0
  -29.8524  -14.0337   20.3124 N   0  0  0  0  0  0
  -26.2795  -12.9540   20.3218 N   0  0  0  0  0  0
  -25.9334  -11.6639   20.5719 N   0  0  0  0  0  0
  -22.0403  -12.8157   22.0473 N   0  0  0  0  0  0
  -25.4007  -15.1991   20.4196 N   0  0  0  0  0  0
  -31.6270  -15.3445   20.1635 O   0  0  0  0  0  0
  -21.6646   -6.8881   21.4242 O   0  0  0  0  0  0
  -22.3423  -14.5482   20.6763 O   0  0  0  0  0  0
  -24.6684  -31.8175   23.1648 C   0  0  0  0  0  0
  -25.9341  -32.4557   23.8137 C   0  0  1  0  0  0
  -27.2193  -26.8673   20.1967 C   0  0  0  0  0  0
  -25.5993  -33.8372   24.2048 N   0  0  0  0  0  0
  -23.4861  -30.4266   21.5148 C   0  0  2  0  0  0
  -24.9401  -28.7995   20.1146 C   0  0  0  0  0  0
  -22.7696  -29.4411   22.4757 C   0  0  0  0  0  0
  -18.0329  -28.1416   22.8467 C   0  0  0  0  0  0
  -24.1493  -36.7188   23.2650 C   0  0  0  0  0  0
  -26.0580  -30.6048   21.4027 C   0  0  0  0  0  0
  -26.1252  -29.1870   20.7513 C   0  0  0  0  0  0
  -27.2571  -28.2442   20.7642 C   0  0  0  0  0  0
  -26.0046  -26.6468   19.5068 C   0  0  0  0  0  0
  -24.9089  -27.5516   19.4704 C   0  0  0  0  0  0
  -23.7301  -29.7360   20.1437 C   0  0  0  0  0  0
  -25.4137  -36.2950   24.0299 C   0  0  1  0  0  0
  -20.5962  -28.3762   23.1179 C   0  0  2  0  0  0
  -20.6807  -26.9439   22.5406 C   0  0  0  0  0  0
  -19.5778  -26.6380   21.5220 C   0  0  0  0  0  0
  -18.1959  -26.7950   22.1625 C   0  0  0  0  0  0
  -19.1594  -28.8911   23.2810 C   0  0  0  0  0  0
  -18.9502  -30.1500   23.8846 C   0  0  0  0  0  0
  -17.6493  -30.6604   24.0560 C   0  0  0  0  0  0
  -25.9108  -34.9334   23.4999 C   0  0  0  0  0  0
  -16.5386  -29.9092   23.6346 C   0  0  0  0  0  0
  -16.7312  -28.6513   23.0363 C   0  0  0  0  0  0
  -26.4570  -31.6517   25.0686 C   0  0  0  0  0  0
  -25.3684  -31.3780   26.1332 C   0  0  0  0  0  0
  -27.0470  -30.2879   24.6450 C   0  0  0  0  0  0
  -27.6052  -32.4331   25.7494 C   0  0  0  0  0  0
  -27.5565  -37.1755   24.8472 C   0  0  0  0  0  0
  -21.4359  -29.3041   22.3514 N   0  0  0  0  0  0
  -26.4276  -37.3692   23.9409 N   0  0  0  0  0  0
  -24.7593  -30.9785   22.0809 N   0  0  0  0  0  0
  -23.4225  -28.7991   23.3023 O   0  0  0  0  0  0
  -28.2230  -25.7426   20.2652 O   0  0  0  0  0  0
  -26.5719  -34.8885   22.4596 O   0  0  0  0  0  0
  -23.5740  -32.1170   23.6706 O   0  0  0  0  0  0
  -28.3667  -22.8665   21.2683 C   0  0  0  0  0  0
  -28.7716  -22.8922   19.2887 C   0  0  0  0  0  0
  -29.0756  -21.6555   20.3662 C   0  0  2  0  0  0
  -28.0225  -24.0719   20.1847 C   0  0  2  0  0  0
  -28.8156  -19.8244   20.3313 C   0  0  0  0  0  0
  -29.8978  -18.3339   20.3533 C   0  0  0  0  0  0
  -29.6343  -16.6514   20.4217 N   0  0  0  0  0  0
  -31.4474  -13.0965   19.1862 H   0  0  0  0  0  0
  -30.5284  -11.9868   20.1546 H   0  0  0  0  0  0
  -29.9354  -11.7571   17.7177 H   0  0  0  0  0  0
  -29.5495  -13.4589   17.6330 H   0  0  0  0  0  0
  -28.0697  -11.2798   19.1231 H   0  0  0  0  0  0
  -27.4219  -12.3084   17.8690 H   0  0  0  0  0  0
  -27.5070  -14.2365   19.3003 H   0  0  0  0  0  0
  -28.8291  -12.5767   21.5005 H   0  0  0  0  0  0
  -28.2572  -14.2205   21.6732 H   0  0  0  0  0  0
  -25.2771   -9.5684   22.4774 H   0  0  0  0  0  0
  -24.0015   -7.4631   22.7474 H   0  0  0  0  0  0
  -21.0864   -8.8775   19.8946 H   0  0  0  0  0  0
  -22.3718  -10.9674   19.6171 H   0  0  0  0  0  0
  -21.2002   -7.6150   23.9718 H   0  0  0  0  0  0
  -21.1484   -6.0523   25.9079 H   0  0  0  0  0  0
  -22.0596   -2.7613   23.2844 H   0  0  0  0  0  0
  -22.4035  -11.9821   22.4851 H   0  0  0  0  0  0
  -21.1014  -13.1159   22.2679 H   0  0  0  0  0  0
  -24.6298  -15.8496   20.5294 H   0  0  0  0  0  0
  -26.2388  -15.6372   20.0615 H   0  0  0  0  0  0
  -26.7413  -32.5077   23.0853 H   0  0  0  0  0  0
  -25.0104  -33.9437   25.0177 H   0  0  0  0  0  0
  -22.8026  -31.2599   21.3386 H   0  0  0  0  0  0
  -23.3773  -35.9501   23.3280 H   0  0  0  0  0  0
  -24.3571  -36.8863   22.2071 H   0  0  0  0  0  0
  -23.7236  -37.6360   23.6724 H   0  0  0  0  0  0
  -26.2419  -31.3385   20.6170 H   0  0  0  0  0  0
  -26.9171  -30.6680   22.0580 H   0  0  0  0  0  0
  -28.1530  -28.5423   21.2904 H   0  0  0  0  0  0
  -25.8682  -25.6996   19.0066 H   0  0  0  0  0  0
  -24.0110  -27.2505   18.9485 H   0  0  0  0  0  0
  -23.8939  -30.5015   19.3841 H   0  0  0  0  0  0
  -22.8378  -29.1956   19.8226 H   0  0  0  0  0  0
  -25.1340  -36.1735   25.0790 H   0  0  0  0  0  0
  -21.0051  -28.3374   24.1303 H   0  0  0  0  0  0
  -20.5691  -26.2380   23.3652 H   0  0  0  0  0  0
  -21.6667  -26.7412   22.1209 H   0  0  0  0  0  0
  -19.6933  -25.6278   21.1279 H   0  0  0  0  0  0
  -19.6715  -27.3169   20.6735 H   0  0  0  0  0  0
  -17.4232  -26.6702   21.4026 H   0  0  0  0  0  0
  -18.0343  -26.0102   22.9030 H   0  0  0  0  0  0
  -19.7977  -30.7333   24.2190 H   0  0  0  0  0  0
  -17.5046  -31.6276   24.5177 H   0  0  0  0  0  0
  -15.5385  -30.2981   23.7692 H   0  0  0  0  0  0
  -15.8714  -28.0818   22.7102 H   0  0  0  0  0  0
  -24.5900  -30.7086   25.7647 H   0  0  0  0  0  0
  -24.8832  -32.2978   26.4601 H   0  0  0  0  0  0
  -25.7908  -30.9060   27.0211 H   0  0  0  0  0  0
  -26.3138  -29.6539   24.1448 H   0  0  0  0  0  0
  -27.3981  -29.7263   25.5115 H   0  0  0  0  0  0
  -27.9094  -30.4050   23.9887 H   0  0  0  0  0  0
  -27.2623  -33.3691   26.1916 H   0  0  0  0  0  0
  -28.3948  -32.6792   25.0382 H   0  0  0  0  0  0
  -28.0625  -31.8558   26.5537 H   0  0  0  0  0  0
  -28.2573  -38.0059   24.7514 H   0  0  0  0  0  0
  -28.1070  -36.2586   24.6308 H   0  0  0  0  0  0
  -27.2278  -37.1410   25.8874 H   0  0  0  0  0  0
  -20.9625  -29.8721   21.6628 H   0  0  0  0  0  0
  -26.0117  -38.2748   24.1417 H   0  0  0  0  0  0
  -29.0416  -23.2189   22.0489 H   0  0  0  0  0  0
  -27.4555  -22.5182   21.7574 H   0  0  0  0  0  0
  -29.7008  -23.2634   18.8537 H   0  0  0  0  0  0
  -28.1331  -22.5601   18.4694 H   0  0  0  0  0  0
  -30.1377  -21.7625   20.5920 H   0  0  0  0  0  0
  -26.9590  -23.9639   19.9717 H   0  0  0  0  0  0
  -28.1704  -19.6526   19.4693 H   0  0  0  0  0  0
  -28.1433  -19.6367   21.1684 H   0  0  0  0  0  0
  -30.5326  -18.4455   19.4739 H   0  0  0  0  0  0
  -30.5816  -18.5062   21.1852 H   0  0  0  0  0  0
  -28.6512  -16.4485   20.5333 H   0  0  0  0  0  0
  1 25  1  0  0  0
  1 30  2  0  0  0
  1 77  1  0  0  0
  2  3  1  0  0  0
  2 25  1  0  0  0
  2 78  1  0  0  0
  2 79  1  0  0  0
  3  4  1  0  0  0
  3 80  1  0  0  0
  3 81  1  0  0  0
  4  5  1  0  0  0
  4 82  1  0  0  0
  4 83  1  0  0  0
  5  6  1  0  0  0
  5 26  1  0  0  0
  5 84  1  0  0  0
  6 25  1  0  0  0
  6 85  1  0  0  0
  6 86  1  0  0  0
  7  8  2  0  0  0
  7 26  1  0  0  0
  7 29  1  0  0  0
  8  9  1  0  0  0
  8 22  1  0  0  0
  9 10  1  0  0  0
  9 27  2  0  0  0
 10 11  2  0  0  0
 10 15  1  0  0  0
 11 12  1  0  0  0
 11 87  1  0  0  0
 12 13  2  0  0  0
 12 88  1  0  0  0
 13 14  1  0  0  0
 13 31  1  0  0  0
 14 15  2  0  0  0
 14 89  1  0  0  0
 15 90  1  0  0  0
 16 17  2  0  0  0
 16 21  1  0  0  0
 16 31  1  0  0  0
 17 18  1  0  0  0
 17 91  1  0  0  0
 18 19  2  0  0  0
 18 92  1  0  0  0
 19 20  1  0  0  0
 19 24  1  0  0  0
 20 21  2  0  0  0
 20 93  1  0  0  0
 21 23  1  0  0  0
 22 28  1  0  0  0
 22 32  2  0  0  0
 26 27  1  0  0  0
 28 94  1  0  0  0
 28 95  1  0  0  0
 29 96  1  0  0  0
 29 97  1  0  0  0
 33 34  1  0  0  0
 33 66  1  0  0  0
 33 70  2  0  0  0
 34 36  1  0  0  0
 34 59  1  0  0  0
 34 98  1  0  0  0
 35 44  2  0  0  0
 35 45  1  0  0  0
 35 68  1  0  0  0
 36 56  1  0  0  0
 36 99  1  0  0  0
 37 39  1  0  0  0
 37 47  1  0  0  0
 37 66  1  0  0  0
 37100  1  0  0  0
 38 43  2  0  0  0
 38 46  1  0  0  0
 38 47  1  0  0  0
 39 64  1  0  0  0
 39 67  2  0  0  0
 40 52  1  0  0  0
 40 53  2  0  0  0
 40 58  1  0  0  0
 41101  1  0  0  0
 41102  1  0  0  0
 41103  1  0  0  0
 41 48  1  0  0  0
 42 43  1  0  0  0
 42 66  1  0  0  0
 42104  1  0  0  0
 42105  1  0  0  0
 43 44  1  0  0  0
 44106  1  0  0  0
 45 46  2  0  0  0
 45107  1  0  0  0
 46108  1  0  0  0
 47109  1  0  0  0
 47110  1  0  0  0
 48 56  1  0  0  0
 48 65  1  0  0  0
 48111  1  0  0  0
 49 50  1  0  0  0
 49 53  1  0  0  0
 49 64  1  0  0  0
 49112  1  0  0  0
 50 51  1  0  0  0
 50113  1  0  0  0
 50114  1  0  0  0
 51 52  1  0  0  0
 51115  1  0  0  0
 51116  1  0  0  0
 52117  1  0  0  0
 52118  1  0  0  0
 53 54  1  0  0  0
 54 55  2  0  0  0
 54119  1  0  0  0
 55 57  1  0  0  0
 55120  1  0  0  0
 56 69  2  0  0  0
 57 58  2  0  0  0
 57121  1  0  0  0
 58122  1  0  0  0
 59 60  1  0  0  0
 59 61  1  0  0  0
 59 62  1  0  0  0
 60123  1  0  0  0
 60124  1  0  0  0
 60125  1  0  0  0
 61126  1  0  0  0
 61127  1  0  0  0
 61128  1  0  0  0
 62129  1  0  0  0
 62130  1  0  0  0
 62131  1  0  0  0
 63 65  1  0  0  0
 63132  1  0  0  0
 63133  1  0  0  0
 63134  1  0  0  0
 64135  1  0  0  0
 65136  1  0  0  0
 68 74  1  0  0  0
 71 73  1  0  0  0
 71 74  1  0  0  0
 71137  1  0  0  0
 71138  1  0  0  0
 72 73  1  0  0  0
 72 74  1  0  0  0
 72139  1  0  0  0
 72140  1  0  0  0
 73 75  1  0  0  0
 73141  1  0  0  0
 74142  1  0  0  0
 75 76  1  0  0  0
 75143  1  0  0  0
 75144  1  0  0  0
 76 77  1  0  0  0
 76145  1  0  0  0
 76146  1  0  0  0
 77147  1  0  0  0
M  ISO  4   1 100  68 101  74 101  77 100
M  END
> <chiral flag>
0

> <version>
0

> <s_m_source_file>
/data/baiqing/PycharmProjects/Reinvent-master-3.2/result/LINK_invent/BTK/process_docking_weight1_custom_sum_contain_oxygen_bond_distance_aromatic_linkinvent_7_9_3/rearranged_h_0102.sdf

> <i_m_source_file_index>
48

> <r_mmod_Potential_Energy-OPLS-2005>
1578.44189453125

> <r_mmod_Stretch_Energy-OPLS-2005>
693.308654785156

> <r_mmod_Bend_Energy-OPLS-2005>
532.806518554688

> <r_mmod_Torsional_Energy-OPLS-2005>
252.645370483398

> <r_mmod_Improper_Torsional_Energy-OPLS-2005>
3.74208545684814

> <r_mmod_Van_der_Waal_Energy-OPLS-2005>
109.440803527832

> <r_mmod_Electrostatic_Energy-OPLS-2005>
-353.457885742188

> <r_mmod_Solvation_Energy-OPLS-2005>
-215.289764404297

> <b_mmod_Minimization_Converged-OPLS-2005>
0

> <r_mmod_RMS_Derivative-OPLS-2005>
0.803235113620758

$$$$
49
                    3D
 Structure written by MMmdl.
166174  0  0  1  0            999 V2000
  -30.6103  -14.7328   20.4431 C   0  0  0  0  0  0
  -30.4307  -12.4359   19.4921 C   0  0  0  0  0  0
  -29.5159  -12.4985   18.2482 C   0  0  0  0  0  0
  -28.0398  -12.3278   18.6554 C   0  0  0  0  0  0
  -27.6447  -13.2297   19.8555 C   0  0  2  0  0  0
  -28.6853  -13.1614   20.9965 C   0  0  0  0  0  0
  -25.2517  -13.8201   20.5688 C   0  0  0  0  0  0
  -24.1805  -13.0444   20.9201 C   0  0  0  0  0  0
  -24.6396  -11.6920   20.8747 C   0  0  0  0  0  0
  -23.9074  -10.4296   21.0409 C   0  0  0  0  0  0
  -24.3624   -9.4207   21.9185 C   0  0  0  0  0  0
  -23.6296   -8.2242   22.0759 C   0  0  0  0  0  0
  -22.4278   -8.0280   21.3544 C   0  0  0  0  0  0
  -21.9914   -9.0256   20.4648 C   0  0  0  0  0  0
  -22.7249  -10.2133   20.3057 C   0  0  0  0  0  0
  -21.6852   -6.0740   22.5282 C   0  0  0  0  0  0
  -21.4019   -6.5645   23.8215 C   0  0  0  0  0  0
  -21.3655   -5.6794   24.9175 C   0  0  0  0  0  0
  -21.6045   -4.3059   24.7226 C   0  0  0  0  0  0
  -21.8817   -3.8151   23.4346 C   0  0  0  0  0  0
  -21.9194   -4.6967   22.3403 C   0  0  0  0  0  0
  -22.7829  -13.5229   21.1865 C   0  0  0  0  0  0
  -22.1660   -4.2153   21.0980 F   0  0  0  0  0  0
  -21.5622   -3.4540   25.7738 F   0  0  0  0  0  0
  -29.9946  -13.5010   20.4254 N   0  0  0  0  0  0
  -26.2945  -12.9400   20.3287 N   0  0  0  0  0  0
  -25.9325  -11.6544   20.5758 N   0  0  0  0  0  0
  -22.0480  -12.8209   22.0417 N   0  0  0  0  0  0
  -25.4215  -15.1921   20.4110 N   0  0  0  0  0  0
  -31.7835  -14.8348   20.0753 O   0  0  0  0  0  0
  -21.6639   -6.8879   21.4242 O   0  0  0  0  0  0
  -22.3506  -14.5530   20.6715 O   0  0  0  0  0  0
  -24.6306  -31.8556   23.1983 C   0  0  0  0  0  0
  -25.9133  -32.4757   23.8330 C   0  0  1  0  0  0
  -27.2144  -27.2640   20.1432 C   0  0  0  0  0  0
  -25.5931  -33.8558   24.2254 N   0  0  0  0  0  0
  -23.4284  -30.4773   21.5408 C   0  0  2  0  0  0
  -24.8780  -28.9281   20.1058 C   0  0  0  0  0  0
  -22.7505  -29.4597   22.4903 C   0  0  0  0  0  0
  -18.0293  -28.1388   22.8481 C   0  0  0  0  0  0
  -24.1489  -36.7282   23.2642 C   0  0  0  0  0  0
  -25.9731  -30.7698   21.3795 C   0  0  0  0  0  0
  -26.0465  -29.3919   20.7246 C   0  0  0  0  0  0
  -27.2193  -28.5708   20.7354 C   0  0  0  0  0  0
  -26.0413  -26.8853   19.4575 C   0  0  0  0  0  0
  -24.8799  -27.6823   19.4592 C   0  0  0  0  0  0
  -23.6469  -29.8125   20.1562 C   0  0  0  0  0  0
  -25.4116  -36.3073   24.0328 C   0  0  1  0  0  0
  -20.5897  -28.3696   23.1262 C   0  0  2  0  0  0
  -20.6780  -26.9413   22.5406 C   0  0  0  0  0  0
  -19.5757  -26.6383   21.5207 C   0  0  0  0  0  0
  -18.1936  -26.7929   22.1620 C   0  0  0  0  0  0
  -19.1549  -28.8858   23.2867 C   0  0  0  0  0  0
  -18.9470  -30.1457   23.8887 C   0  0  0  0  0  0
  -17.6472  -30.6590   24.0560 C   0  0  0  0  0  0
  -25.9056  -34.9441   23.5092 C   0  0  0  0  0  0
  -16.5357  -29.9089   23.6338 C   0  0  0  0  0  0
  -16.7277  -28.6507   23.0356 C   0  0  0  0  0  0
  -26.4501  -31.6582   25.0718 C   0  0  0  0  0  0
  -25.3724  -31.3737   26.1437 C   0  0  0  0  0  0
  -27.0350  -30.3002   24.6207 C   0  0  0  0  0  0
  -27.6057  -32.4328   25.7483 C   0  0  0  0  0  0
  -27.5577  -37.1797   24.8472 C   0  0  0  0  0  0
  -21.4211  -29.3042   22.3649 N   0  0  0  0  0  0
  -26.4286  -37.3773   23.9419 N   0  0  0  0  0  0
  -24.6961  -31.0522   22.0961 N   0  0  0  0  0  0
  -23.4205  -28.8137   23.3001 O   0  0  0  0  0  0
  -28.2865  -26.3427   20.1971 O   0  0  0  0  0  0
  -26.5636  -34.8915   22.4668 O   0  0  0  0  0  0
  -23.5457  -32.1372   23.7290 O   0  0  0  0  0  0
  -28.9144  -19.6840   20.0601 C   0  0  0  0  0  0
  -30.1840  -20.5689   21.6325 C   0  0  0  0  0  0
  -29.7611  -18.6438   20.4638 C   0  0  0  0  0  0
  -30.5582  -19.2451   21.4924 C   0  0  0  0  0  0
  -31.8805  -16.7004   24.0808 C   0  0  0  0  0  0
  -32.7848  -19.4590   22.6780 C   0  0  0  0  0  0
  -26.7094  -24.7146   21.4209 C   0  0  0  0  0  0
  -29.9347  -17.1783   19.8529 C   0  0  0  0  0  0
  -31.0040  -17.8199   23.5033 C   0  0  0  0  0  0
  -28.7921  -23.6273   20.2499 C   0  0  0  0  0  0
  -28.3288  -22.1814   20.8311 C   0  0  0  0  0  0
  -31.6286  -18.5242   22.2836 C   0  0  1  0  0  0
  -28.1297  -24.9892   20.8686 C   0  0  1  0  0  0
  -29.1445  -20.8876   20.7744 N   0  0  0  0  0  0
  -29.8262  -15.8620   20.6183 N   0  0  0  0  0  0
  -31.4755  -12.5440   19.1977 H   0  0  0  0  0  0
  -30.3584  -11.4604   19.9751 H   0  0  0  0  0  0
  -29.7966  -11.7229   17.5343 H   0  0  0  0  0  0
  -29.6489  -13.4524   17.7352 H   0  0  0  0  0  0
  -27.8933  -11.2801   18.9203 H   0  0  0  0  0  0
  -27.3850  -12.5182   17.8040 H   0  0  0  0  0  0
  -27.6414  -14.2508   19.4740 H   0  0  0  0  0  0
  -28.7093  -12.1658   21.4411 H   0  0  0  0  0  0
  -28.4208  -13.8484   21.8021 H   0  0  0  0  0  0
  -25.2766   -9.5680   22.4760 H   0  0  0  0  0  0
  -24.0005   -7.4633   22.7480 H   0  0  0  0  0  0
  -21.0843   -8.8775   19.8952 H   0  0  0  0  0  0
  -22.3707  -10.9670   19.6164 H   0  0  0  0  0  0
  -21.2014   -7.6153   23.9718 H   0  0  0  0  0  0
  -21.1478   -6.0526   25.9076 H   0  0  0  0  0  0
  -22.0600   -2.7614   23.2847 H   0  0  0  0  0  0
  -22.4105  -11.9875   22.4801 H   0  0  0  0  0  0
  -21.1098  -13.1227   22.2634 H   0  0  0  0  0  0
  -24.6559  -15.8467   20.5295 H   0  0  0  0  0  0
  -26.2668  -15.6317   20.0703 H   0  0  0  0  0  0
  -26.7201  -32.5405   23.1076 H   0  0  0  0  0  0
  -25.0074  -33.9699   25.0393 H   0  0  0  0  0  0
  -22.7250  -31.2992   21.3948 H   0  0  0  0  0  0
  -23.3755  -35.9611   23.3302 H   0  0  0  0  0  0
  -24.3579  -36.8910   22.2058 H   0  0  0  0  0  0
  -23.7232  -37.6477   23.6669 H   0  0  0  0  0  0
  -26.1124  -31.5300   20.6088 H   0  0  0  0  0  0
  -26.8508  -30.8194   22.0121 H   0  0  0  0  0  0
  -28.1103  -28.9165   21.2405 H   0  0  0  0  0  0
  -26.0094  -25.9328   18.9478 H   0  0  0  0  0  0
  -23.9904  -27.3278   18.9565 H   0  0  0  0  0  0
  -23.7681  -30.5902   19.4015 H   0  0  0  0  0  0
  -22.7656  -29.2448   19.8516 H   0  0  0  0  0  0
  -25.1297  -36.1916   25.0821 H   0  0  0  0  0  0
  -20.9984  -28.3266   24.1384 H   0  0  0  0  0  0
  -20.5683  -26.2296   23.3610 H   0  0  0  0  0  0
  -21.6643  -26.7436   22.1192 H   0  0  0  0  0  0
  -19.6922  -25.6294   21.1241 H   0  0  0  0  0  0
  -19.6695  -27.3187   20.6735 H   0  0  0  0  0  0
  -17.4204  -26.6675   21.4023 H   0  0  0  0  0  0
  -18.0332  -26.0067   22.9014 H   0  0  0  0  0  0
  -19.7948  -30.7277   24.2241 H   0  0  0  0  0  0
  -17.5032  -31.6271   24.5163 H   0  0  0  0  0  0
  -15.5361  -30.2998   23.7672 H   0  0  0  0  0  0
  -15.8671  -28.0835   22.7075 H   0  0  0  0  0  0
  -24.5904  -30.7081   25.7769 H   0  0  0  0  0  0
  -24.8907  -32.2907   26.4846 H   0  0  0  0  0  0
  -25.8034  -30.8933   27.0227 H   0  0  0  0  0  0
  -26.2936  -29.6746   24.1223 H   0  0  0  0  0  0
  -27.4027  -29.7267   25.4725 H   0  0  0  0  0  0
  -27.8813  -30.4287   23.9456 H   0  0  0  0  0  0
  -27.2670  -33.3637   26.2044 H   0  0  0  0  0  0
  -28.3862  -32.6877   25.0301 H   0  0  0  0  0  0
  -28.0729  -31.8469   26.5412 H   0  0  0  0  0  0
  -28.2596  -38.0091   24.7515 H   0  0  0  0  0  0
  -28.1063  -36.2622   24.6291 H   0  0  0  0  0  0
  -27.2298  -37.1438   25.8874 H   0  0  0  0  0  0
  -20.9400  -29.8755   21.6843 H   0  0  0  0  0  0
  -26.0163  -38.2847   24.1422 H   0  0  0  0  0  0
  -28.1320  -19.6682   19.3123 H   0  0  0  0  0  0
  -30.5482  -21.3207   22.3207 H   0  0  0  0  0  0
  -32.8427  -17.0779   24.4263 H   0  0  0  0  0  0
  -32.0688  -15.9263   23.3357 H   0  0  0  0  0  0
  -31.3901  -16.2254   24.9309 H   0  0  0  0  0  0
  -32.4552  -20.2446   23.3583 H   0  0  0  0  0  0
  -33.2164  -19.9378   21.7984 H   0  0  0  0  0  0
  -33.5871  -18.9124   23.1730 H   0  0  0  0  0  0
  -26.7084  -23.9252   22.1702 H   0  0  0  0  0  0
  -26.0177  -24.4092   20.6369 H   0  0  0  0  0  0
  -26.2950  -25.5828   21.9335 H   0  0  0  0  0  0
  -30.9040  -17.1890   19.3524 H   0  0  0  0  0  0
  -29.2153  -17.1016   19.0367 H   0  0  0  0  0  0
  -30.7559  -18.5514   24.2733 H   0  0  0  0  0  0
  -30.0562  -17.3685   23.2060 H   0  0  0  0  0  0
  -28.6073  -23.6208   19.1760 H   0  0  0  0  0  0
  -29.8749  -23.7073   20.3525 H   0  0  0  0  0  0
  -27.3418  -21.9559   20.4252 H   0  0  0  0  0  0
  -28.1578  -22.3264   21.8964 H   0  0  0  0  0  0
  -32.0386  -17.7616   21.6209 H   0  0  0  0  0  0
  -28.7110  -25.1491   21.7778 H   0  0  0  0  0  0
  -28.9092  -15.6755   20.9938 H   0  0  0  0  0  0
  1 25  1  0  0  0
  1 30  2  0  0  0
  1 85  1  0  0  0
  2  3  1  0  0  0
  2 25  1  0  0  0
  2 86  1  0  0  0
  2 87  1  0  0  0
  3  4  1  0  0  0
  3 88  1  0  0  0
  3 89  1  0  0  0
  4  5  1  0  0  0
  4 90  1  0  0  0
  4 91  1  0  0  0
  5  6  1  0  0  0
  5 26  1  0  0  0
  5 92  1  0  0  0
  6 25  1  0  0  0
  6 93  1  0  0  0
  6 94  1  0  0  0
  7  8  2  0  0  0
  7 26  1  0  0  0
  7 29  1  0  0  0
  8  9  1  0  0  0
  8 22  1  0  0  0
  9 10  1  0  0  0
  9 27  2  0  0  0
 10 11  2  0  0  0
 10 15  1  0  0  0
 11 12  1  0  0  0
 11 95  1  0  0  0
 12 13  2  0  0  0
 12 96  1  0  0  0
 13 14  1  0  0  0
 13 31  1  0  0  0
 14 15  2  0  0  0
 14 97  1  0  0  0
 15 98  1  0  0  0
 16 17  2  0  0  0
 16 21  1  0  0  0
 16 31  1  0  0  0
 17 18  1  0  0  0
 17 99  1  0  0  0
 18 19  2  0  0  0
 18100  1  0  0  0
 19 20  1  0  0  0
 19 24  1  0  0  0
 20 21  2  0  0  0
 20101  1  0  0  0
 21 23  1  0  0  0
 22 28  1  0  0  0
 22 32  2  0  0  0
 26 27  1  0  0  0
 28102  1  0  0  0
 28103  1  0  0  0
 29104  1  0  0  0
 29105  1  0  0  0
 33 34  1  0  0  0
 33 66  1  0  0  0
 33 70  2  0  0  0
 34 36  1  0  0  0
 34 59  1  0  0  0
 34106  1  0  0  0
 35 44  2  0  0  0
 35 45  1  0  0  0
 35 68  1  0  0  0
 36 56  1  0  0  0
 36107  1  0  0  0
 37 39  1  0  0  0
 37 47  1  0  0  0
 37 66  1  0  0  0
 37108  1  0  0  0
 38 43  2  0  0  0
 38 46  1  0  0  0
 38 47  1  0  0  0
 39 64  1  0  0  0
 39 67  2  0  0  0
 40 52  1  0  0  0
 40 53  2  0  0  0
 40 58  1  0  0  0
 41109  1  0  0  0
 41110  1  0  0  0
 41111  1  0  0  0
 41 48  1  0  0  0
 42 43  1  0  0  0
 42 66  1  0  0  0
 42112  1  0  0  0
 42113  1  0  0  0
 43 44  1  0  0  0
 44114  1  0  0  0
 45 46  2  0  0  0
 45115  1  0  0  0
 46116  1  0  0  0
 47117  1  0  0  0
 47118  1  0  0  0
 48 56  1  0  0  0
 48 65  1  0  0  0
 48119  1  0  0  0
 49 50  1  0  0  0
 49 53  1  0  0  0
 49 64  1  0  0  0
 49120  1  0  0  0
 50 51  1  0  0  0
 50121  1  0  0  0
 50122  1  0  0  0
 51 52  1  0  0  0
 51123  1  0  0  0
 51124  1  0  0  0
 52125  1  0  0  0
 52126  1  0  0  0
 53 54  1  0  0  0
 54 55  2  0  0  0
 54127  1  0  0  0
 55 57  1  0  0  0
 55128  1  0  0  0
 56 69  2  0  0  0
 57 58  2  0  0  0
 57129  1  0  0  0
 58130  1  0  0  0
 59 60  1  0  0  0
 59 61  1  0  0  0
 59 62  1  0  0  0
 60131  1  0  0  0
 60132  1  0  0  0
 60133  1  0  0  0
 61134  1  0  0  0
 61135  1  0  0  0
 61136  1  0  0  0
 62137  1  0  0  0
 62138  1  0  0  0
 62139  1  0  0  0
 63 65  1  0  0  0
 63140  1  0  0  0
 63141  1  0  0  0
 63142  1  0  0  0
 64143  1  0  0  0
 65144  1  0  0  0
 68 83  1  0  0  0
 71 73  2  0  0  0
 71 84  1  0  0  0
 71145  1  0  0  0
 72 74  2  0  0  0
 72 84  1  0  0  0
 72146  1  0  0  0
 73 74  1  0  0  0
 73 78  1  0  0  0
 74 82  1  0  0  0
 75 79  1  0  0  0
 75147  1  0  0  0
 75148  1  0  0  0
 75149  1  0  0  0
 76150  1  0  0  0
 76151  1  0  0  0
 76152  1  0  0  0
 76 82  1  0  0  0
 77153  1  0  0  0
 77154  1  0  0  0
 77155  1  0  0  0
 77 83  1  0  0  0
 78 85  1  0  0  0
 78156  1  0  0  0
 78157  1  0  0  0
 79 82  1  0  0  0
 79158  1  0  0  0
 79159  1  0  0  0
 80 81  1  0  0  0
 80 83  1  0  0  0
 80160  1  0  0  0
 80161  1  0  0  0
 81 84  1  0  0  0
 81162  1  0  0  0
 81163  1  0  0  0
 82164  1  0  0  0
 83165  1  0  0  0
 85166  1  0  0  0
M  ISO  4   1 100  68 101  83 101  85 100
M  END
> <chiral flag>
0

> <version>
0

> <s_m_source_file>
/data/baiqing/PycharmProjects/Reinvent-master-3.2/result/LINK_invent/BTK/process_docking_weight1_custom_sum_contain_oxygen_bond_distance_aromatic_linkinvent_7_9_3/rearranged_h_0102.sdf

> <i_m_source_file_index>
49

> <r_mmod_Potential_Energy-OPLS-2005>
155.077667236328

> <r_mmod_Stretch_Energy-OPLS-2005>
123.042854309082

> <r_mmod_Bend_Energy-OPLS-2005>
192.698532104492

> <r_mmod_Torsional_Energy-OPLS-2005>
272.950439453125

> <r_mmod_Improper_Torsional_Energy-OPLS-2005>
9.87182521820068

> <r_mmod_Van_der_Waal_Energy-OPLS-2005>
115.057640075684

> <r_mmod_Electrostatic_Energy-OPLS-2005>
-441.193786621094

> <r_mmod_Solvation_Energy-OPLS-2005>
-202.536315917969

> <b_mmod_Minimization_Converged-OPLS-2005>
0

> <r_mmod_RMS_Derivative-OPLS-2005>
1.20960795879364

$$$$
50
                    3D
 Structure written by MMmdl.
165174  0  0  1  0            999 V2000
  -30.5461  -14.9299   20.4240 C   0  0  0  0  0  0
  -30.4378  -12.5785   19.4921 C   0  0  0  0  0  0
  -29.5159  -12.5195   18.2522 C   0  0  0  0  0  0
  -28.0498  -12.3092   18.6742 C   0  0  0  0  0  0
  -27.6288  -13.2434   19.8386 C   0  0  2  0  0  0
  -28.6719  -13.2681   20.9752 C   0  0  0  0  0  0
  -25.2461  -13.8194   20.5704 C   0  0  0  0  0  0
  -24.1770  -13.0438   20.9228 C   0  0  0  0  0  0
  -24.6379  -11.6921   20.8766 C   0  0  0  0  0  0
  -23.9063  -10.4295   21.0417 C   0  0  0  0  0  0
  -24.3617   -9.4210   21.9191 C   0  0  0  0  0  0
  -23.6292   -8.2245   22.0756 C   0  0  0  0  0  0
  -22.4275   -8.0281   21.3541 C   0  0  0  0  0  0
  -21.9910   -9.0259   20.4647 C   0  0  0  0  0  0
  -22.7238  -10.2139   20.3064 C   0  0  0  0  0  0
  -21.6851   -6.0735   22.5278 C   0  0  0  0  0  0
  -21.4016   -6.5637   23.8212 C   0  0  0  0  0  0
  -21.3660   -5.6791   24.9171 C   0  0  0  0  0  0
  -21.6045   -4.3055   24.7222 C   0  0  0  0  0  0
  -21.8820   -3.8146   23.4344 C   0  0  0  0  0  0
  -21.9193   -4.6963   22.3402 C   0  0  0  0  0  0
  -22.7801  -13.5232   21.1894 C   0  0  0  0  0  0
  -22.1659   -4.2147   21.0979 F   0  0  0  0  0  0
  -21.5631   -3.4539   25.7735 F   0  0  0  0  0  0
  -29.9473  -13.6746   20.3738 N   0  0  0  0  0  0
  -26.2878  -12.9420   20.3260 N   0  0  0  0  0  0
  -25.9310  -11.6553   20.5755 N   0  0  0  0  0  0
  -22.0453  -12.8210   22.0445 N   0  0  0  0  0  0
  -25.4154  -15.1898   20.4106 N   0  0  0  0  0  0
  -31.7514  -14.9960   20.1637 O   0  0  0  0  0  0
  -21.6640   -6.8877   21.4238 O   0  0  0  0  0  0
  -22.3488  -14.5540   20.6748 O   0  0  0  0  0  0
  -24.6426  -31.8444   23.1887 C   0  0  0  0  0  0
  -25.9203  -32.4700   23.8273 C   0  0  1  0  0  0
  -27.2168  -27.1383   20.1510 C   0  0  0  0  0  0
  -25.5960  -33.8507   24.2194 N   0  0  0  0  0  0
  -23.4474  -30.4621   21.5344 C   0  0  2  0  0  0
  -24.8973  -28.8926   20.1089 C   0  0  0  0  0  0
  -22.7568  -29.4531   22.4854 C   0  0  0  0  0  0
  -18.0308  -28.1386   22.8462 C   0  0  0  0  0  0
  -24.1495  -36.7255   23.2640 C   0  0  0  0  0  0
  -26.0021  -30.7206   21.3863 C   0  0  0  0  0  0
  -26.0750  -29.3320   20.7267 C   0  0  0  0  0  0
  -27.2361  -28.4709   20.7300 C   0  0  0  0  0  0
  -26.0111  -26.8010   19.4964 C   0  0  0  0  0  0
  -24.8776  -27.6409   19.4789 C   0  0  0  0  0  0
  -23.6733  -29.7924   20.1526 C   0  0  0  0  0  0
  -25.4127  -36.3032   24.0313 C   0  0  1  0  0  0
  -20.5919  -28.3721   23.1230 C   0  0  2  0  0  0
  -20.6795  -26.9419   22.5402 C   0  0  0  0  0  0
  -19.5777  -26.6375   21.5208 C   0  0  0  0  0  0
  -18.1951  -26.7927   22.1608 C   0  0  0  0  0  0
  -19.1564  -28.8867   23.2836 C   0  0  0  0  0  0
  -18.9484  -30.1459   23.8866 C   0  0  0  0  0  0
  -17.6483  -30.6585   24.0546 C   0  0  0  0  0  0
  -25.9075  -34.9408   23.5061 C   0  0  0  0  0  0
  -16.5369  -29.9080   23.6328 C   0  0  0  0  0  0
  -16.7295  -28.6498   23.0349 C   0  0  0  0  0  0
  -26.4529  -31.6567   25.0708 C   0  0  0  0  0  0
  -25.3709  -31.3763   26.1395 C   0  0  0  0  0  0
  -27.0392  -30.2961   24.6280 C   0  0  0  0  0  0
  -27.6066  -32.4329   25.7493 C   0  0  0  0  0  0
  -27.5577  -37.1779   24.8466 C   0  0  0  0  0  0
  -21.4262  -29.3043   22.3604 N   0  0  0  0  0  0
  -26.4288  -37.3744   23.9415 N   0  0  0  0  0  0
  -24.7172  -31.0300   22.0918 N   0  0  0  0  0  0
  -23.4206  -28.8069   23.3001 O   0  0  0  0  0  0
  -28.2683  -26.1531   20.2240 O   0  0  0  0  0  0
  -26.5651  -34.8909   22.4637 O   0  0  0  0  0  0
  -23.5547  -32.1310   23.7116 O   0  0  0  0  0  0
  -25.3652  -18.4434   21.2343 C   0  0  0  0  0  0
  -26.5423  -18.6646   20.4929 C   0  0  0  0  0  0
  -27.8538  -18.4730   22.5305 C   0  0  0  0  0  0
  -24.7949  -17.8229   24.8490 C   0  0  0  0  0  0
  -25.3855  -18.2225   22.6300 C   0  0  0  0  0  0
  -27.7982  -18.6788   21.1359 C   0  0  0  0  0  0
  -24.3109  -17.9647   23.5697 C   0  0  0  0  0  0
  -26.6700  -18.2494   23.2608 C   0  0  0  0  0  0
  -22.8607  -17.8597   23.2018 C   0  0  0  0  0  0
  -28.9832  -23.3104   20.3810 C   0  0  0  0  0  0
  -30.1555  -17.6465   20.5481 C   0  0  0  0  0  0
  -28.5391  -21.6858   20.2125 C   0  0  0  0  0  0
  -27.9742  -24.6287   20.0837 C   0  0  0  0  0  0
  -29.0753  -18.9302   20.3353 C   0  0  2  0  0  0
  -29.7716  -16.1120   20.5596 N   0  0  0  0  0  0
  -29.5025  -20.4522   20.4871 N   0  3  0  0  0  0
  -26.5203  -17.9742   24.9888 S   0  0  0  0  0  0
  -31.4700  -12.7388   19.1774 H   0  0  0  0  0  0
  -30.4333  -11.6271   20.0266 H   0  0  0  0  0  0
  -29.8318  -11.7166   17.5851 H   0  0  0  0  0  0
  -29.6037  -13.4457   17.6818 H   0  0  0  0  0  0
  -27.9462  -11.2687   18.9842 H   0  0  0  0  0  0
  -27.3841  -12.4405   17.8205 H   0  0  0  0  0  0
  -27.5937  -14.2457   19.4108 H   0  0  0  0  0  0
  -28.7569  -12.2919   21.4553 H   0  0  0  0  0  0
  -28.3742  -13.9717   21.7546 H   0  0  0  0  0  0
  -25.2759   -9.5688   22.4767 H   0  0  0  0  0  0
  -24.0001   -7.4634   22.7474 H   0  0  0  0  0  0
  -21.0843   -8.8779   19.8952 H   0  0  0  0  0  0
  -22.3694  -10.9682   19.6180 H   0  0  0  0  0  0
  -21.2009   -7.6142   23.9712 H   0  0  0  0  0  0
  -21.1480   -6.0519   25.9073 H   0  0  0  0  0  0
  -22.0600   -2.7606   23.2844 H   0  0  0  0  0  0
  -22.4069  -11.9850   22.4785 H   0  0  0  0  0  0
  -21.1082  -13.1242   22.2679 H   0  0  0  0  0  0
  -24.6613  -15.8488   20.5638 H   0  0  0  0  0  0
  -26.2667  -15.6382   20.1031 H   0  0  0  0  0  0
  -26.7262  -32.5311   23.0998 H   0  0  0  0  0  0
  -25.0089  -33.9640   25.0324 H   0  0  0  0  0  0
  -22.7498  -31.2874   21.3795 H   0  0  0  0  0  0
  -23.3764  -35.9575   23.3290 H   0  0  0  0  0  0
  -24.3581  -36.8898   22.2054 H   0  0  0  0  0  0
  -23.7245  -37.6446   23.6688 H   0  0  0  0  0  0
  -26.1509  -31.4777   20.6150 H   0  0  0  0  0  0
  -26.8752  -30.7746   22.0249 H   0  0  0  0  0  0
  -28.1337  -28.7993   21.2353 H   0  0  0  0  0  0
  -25.9067  -25.8441   19.0080 H   0  0  0  0  0  0
  -23.9768  -27.3003   18.9867 H   0  0  0  0  0  0
  -23.8070  -30.5670   19.3970 H   0  0  0  0  0  0
  -22.7898  -29.2311   19.8444 H   0  0  0  0  0  0
  -25.1314  -36.1854   25.0802 H   0  0  0  0  0  0
  -20.9993  -28.3314   24.1360 H   0  0  0  0  0  0
  -20.5706  -26.2330   23.3626 H   0  0  0  0  0  0
  -21.6662  -26.7439   22.1188 H   0  0  0  0  0  0
  -19.6954  -25.6285   21.1250 H   0  0  0  0  0  0
  -19.6718  -27.3169   20.6723 H   0  0  0  0  0  0
  -17.4221  -26.6660   21.4010 H   0  0  0  0  0  0
  -18.0343  -26.0070   22.9007 H   0  0  0  0  0  0
  -19.7964  -30.7261   24.2236 H   0  0  0  0  0  0
  -17.5049  -31.6270   24.5149 H   0  0  0  0  0  0
  -15.5374  -30.2974   23.7686 H   0  0  0  0  0  0
  -15.8686  -28.0816   22.7080 H   0  0  0  0  0  0
  -24.5916  -30.7083   25.7718 H   0  0  0  0  0  0
  -24.8857  -32.2943   26.4721 H   0  0  0  0  0  0
  -25.7970  -30.9008   27.0236 H   0  0  0  0  0  0
  -26.2995  -29.6690   24.1284 H   0  0  0  0  0  0
  -27.4004  -29.7266   25.4855 H   0  0  0  0  0  0
  -27.8911  -30.4207   23.9591 H   0  0  0  0  0  0
  -27.2675  -33.3673   26.1983 H   0  0  0  0  0  0
  -28.3916  -32.6815   25.0343 H   0  0  0  0  0  0
  -28.0682  -31.8506   26.5476 H   0  0  0  0  0  0
  -28.2569  -38.0098   24.7517 H   0  0  0  0  0  0
  -28.1097  -36.2624   24.6280 H   0  0  0  0  0  0
  -27.2302  -37.1406   25.8870 H   0  0  0  0  0  0
  -20.9479  -29.8755   21.6774 H   0  0  0  0  0  0
  -26.0153  -38.2808   24.1429 H   0  0  0  0  0  0
  -24.4134  -18.4351   20.7231 H   0  0  0  0  0  0
  -26.4688  -18.8241   19.4253 H   0  0  0  0  0  0
  -28.7989  -18.4815   23.0555 H   0  0  0  0  0  0
  -24.2201  -17.6294   25.7484 H   0  0  0  0  0  0
  -22.2226  -17.7589   24.0801 H   0  0  0  0  0  0
  -22.6801  -16.9932   22.5645 H   0  0  0  0  0  0
  -22.5253  -18.7424   22.6570 H   0  0  0  0  0  0
  -29.8635  -23.4556   19.7540 H   0  0  0  0  0  0
  -29.3472  -23.4278   21.4020 H   0  0  0  0  0  0
  -30.6416  -17.8083   21.5103 H   0  0  0  0  0  0
  -30.9554  -17.7650   19.8164 H   0  0  0  0  0  0
  -28.1695  -21.5617   19.1944 H   0  0  0  0  0  0
  -27.6644  -21.5332   20.8445 H   0  0  0  0  0  0
  -27.0878  -24.4540   20.6949 H   0  0  0  0  0  0
  -27.6427  -24.4946   19.0540 H   0  0  0  0  0  0
  -28.7860  -18.8593   19.2855 H   0  0  0  0  0  0
  -28.7887  -15.9403   20.7104 H   0  0  0  0  0  0
  -29.8327  -20.5542   21.4312 H   0  0  0  0  0  0
  -30.3077  -20.5787   19.8963 H   0  0  0  0  0  0
  1 25  1  0  0  0
  1 30  2  0  0  0
  1 85  1  0  0  0
  2  3  1  0  0  0
  2 25  1  0  0  0
  2 88  1  0  0  0
  2 89  1  0  0  0
  3  4  1  0  0  0
  3 90  1  0  0  0
  3 91  1  0  0  0
  4  5  1  0  0  0
  4 92  1  0  0  0
  4 93  1  0  0  0
  5  6  1  0  0  0
  5 26  1  0  0  0
  5 94  1  0  0  0
  6 25  1  0  0  0
  6 95  1  0  0  0
  6 96  1  0  0  0
  7  8  2  0  0  0
  7 26  1  0  0  0
  7 29  1  0  0  0
  8  9  1  0  0  0
  8 22  1  0  0  0
  9 10  1  0  0  0
  9 27  2  0  0  0
 10 11  2  0  0  0
 10 15  1  0  0  0
 11 12  1  0  0  0
 11 97  1  0  0  0
 12 13  2  0  0  0
 12 98  1  0  0  0
 13 14  1  0  0  0
 13 31  1  0  0  0
 14 15  2  0  0  0
 14 99  1  0  0  0
 15100  1  0  0  0
 16 17  2  0  0  0
 16 21  1  0  0  0
 16 31  1  0  0  0
 17 18  1  0  0  0
 17101  1  0  0  0
 18 19  2  0  0  0
 18102  1  0  0  0
 19 20  1  0  0  0
 19 24  1  0  0  0
 20 21  2  0  0  0
 20103  1  0  0  0
 21 23  1  0  0  0
 22 28  1  0  0  0
 22 32  2  0  0  0
 26 27  1  0  0  0
 28104  1  0  0  0
 28105  1  0  0  0
 29106  1  0  0  0
 29107  1  0  0  0
 33 34  1  0  0  0
 33 66  1  0  0  0
 33 70  2  0  0  0
 34 36  1  0  0  0
 34 59  1  0  0  0
 34108  1  0  0  0
 35 44  2  0  0  0
 35 45  1  0  0  0
 35 68  1  0  0  0
 36 56  1  0  0  0
 36109  1  0  0  0
 37 39  1  0  0  0
 37 47  1  0  0  0
 37 66  1  0  0  0
 37110  1  0  0  0
 38 43  2  0  0  0
 38 46  1  0  0  0
 38 47  1  0  0  0
 39 64  1  0  0  0
 39 67  2  0  0  0
 40 52  1  0  0  0
 40 53  2  0  0  0
 40 58  1  0  0  0
 41111  1  0  0  0
 41112  1  0  0  0
 41113  1  0  0  0
 41 48  1  0  0  0
 42 43  1  0  0  0
 42 66  1  0  0  0
 42114  1  0  0  0
 42115  1  0  0  0
 43 44  1  0  0  0
 44116  1  0  0  0
 45 46  2  0  0  0
 45117  1  0  0  0
 46118  1  0  0  0
 47119  1  0  0  0
 47120  1  0  0  0
 48 56  1  0  0  0
 48 65  1  0  0  0
 48121  1  0  0  0
 49 50  1  0  0  0
 49 53  1  0  0  0
 49 64  1  0  0  0
 49122  1  0  0  0
 50 51  1  0  0  0
 50123  1  0  0  0
 50124  1  0  0  0
 51 52  1  0  0  0
 51125  1  0  0  0
 51126  1  0  0  0
 52127  1  0  0  0
 52128  1  0  0  0
 53 54  1  0  0  0
 54 55  2  0  0  0
 54129  1  0  0  0
 55 57  1  0  0  0
 55130  1  0  0  0
 56 69  2  0  0  0
 57 58  2  0  0  0
 57131  1  0  0  0
 58132  1  0  0  0
 59 60  1  0  0  0
 59 61  1  0  0  0
 59 62  1  0  0  0
 60133  1  0  0  0
 60134  1  0  0  0
 60135  1  0  0  0
 61136  1  0  0  0
 61137  1  0  0  0
 61138  1  0  0  0
 62139  1  0  0  0
 62140  1  0  0  0
 62141  1  0  0  0
 63 65  1  0  0  0
 63142  1  0  0  0
 63143  1  0  0  0
 63144  1  0  0  0
 64145  1  0  0  0
 65146  1  0  0  0
 68 83  1  0  0  0
 71 72  2  0  0  0
 71 75  1  0  0  0
 71147  1  0  0  0
 72 76  1  0  0  0
 72148  1  0  0  0
 73 76  2  0  0  0
 73 78  1  0  0  0
 73149  1  0  0  0
 74 77  2  0  0  0
 74 87  1  0  0  0
 74150  1  0  0  0
 75 77  1  0  0  0
 75 78  2  0  0  0
 76 84  1  0  0  0
 77 79  1  0  0  0
 78 87  1  0  0  0
 79151  1  0  0  0
 79152  1  0  0  0
 79153  1  0  0  0
 80 82  1  0  0  0
 80 83  1  0  0  0
 80154  1  0  0  0
 80155  1  0  0  0
 81 85  1  0  0  0
 81156  1  0  0  0
 81157  1  0  0  0
 81 84  1  0  0  0
 82 86  1  0  0  0
 82158  1  0  0  0
 82159  1  0  0  0
 83160  1  0  0  0
 83161  1  0  0  0
 84 86  1  0  0  0
 84162  1  0  0  0
 85163  1  0  0  0
 86164  1  0  0  0
 86165  1  0  0  0
M  CHG  1  86   1
M  ISO  4   1 100  68 101  83 101  85 100
M  END
> <chiral flag>
0

> <version>
0

> <s_m_source_file>
/data/baiqing/PycharmProjects/Reinvent-master-3.2/result/LINK_invent/BTK/process_docking_weight1_custom_sum_contain_oxygen_bond_distance_aromatic_linkinvent_7_9_3/rearranged_h_0102.sdf

> <i_m_source_file_index>
50

> <r_mmod_Potential_Energy-OPLS-2005>
190.219436645508

> <r_mmod_Stretch_Energy-OPLS-2005>
261.477142333984

> <r_mmod_Bend_Energy-OPLS-2005>
261.469451904297

> <r_mmod_Torsional_Energy-OPLS-2005>
200.010437011719

> <r_mmod_Improper_Torsional_Energy-OPLS-2005>
4.11182737350464

> <r_mmod_Van_der_Waal_Energy-OPLS-2005>
111.867118835449

> <r_mmod_Electrostatic_Energy-OPLS-2005>
-335.910858154297

> <r_mmod_Solvation_Energy-OPLS-2005>
-498.799102783203

> <b_mmod_Minimization_Converged-OPLS-2005>
0

> <r_mmod_RMS_Derivative-OPLS-2005>
1.34841072559357

$$$$
51
                    3D
 Structure written by MMmdl.
164171  0  0  1  0            999 V2000
  -30.6565  -14.6134   20.5535 C   0  0  0  0  0  0
  -30.4577  -12.3777   19.4819 C   0  0  0  0  0  0
  -29.5453  -12.5342   18.2466 C   0  0  0  0  0  0
  -28.0568  -12.3935   18.6304 C   0  0  0  0  0  0
  -27.6762  -13.2272   19.8887 C   0  0  2  0  0  0
  -28.7147  -13.0375   21.0233 C   0  0  0  0  0  0
  -25.2631  -13.8197   20.5724 C   0  0  0  0  0  0
  -24.1866  -13.0469   20.9182 C   0  0  0  0  0  0
  -24.6454  -11.6942   20.8752 C   0  0  0  0  0  0
  -23.9093  -10.4330   21.0419 C   0  0  0  0  0  0
  -24.3642   -9.4241   21.9203 C   0  0  0  0  0  0
  -23.6296   -8.2271   22.0769 C   0  0  0  0  0  0
  -22.4273   -8.0327   21.3537 C   0  0  0  0  0  0
  -21.9934   -9.0314   20.4644 C   0  0  0  0  0  0
  -22.7279  -10.2171   20.3033 C   0  0  0  0  0  0
  -21.6876   -6.0770   22.5276 C   0  0  0  0  0  0
  -21.4061   -6.5631   23.8213 C   0  0  0  0  0  0
  -21.3670   -5.6765   24.9140 C   0  0  0  0  0  0
  -21.6040   -4.3024   24.7221 C   0  0  0  0  0  0
  -21.8809   -3.8156   23.4316 C   0  0  0  0  0  0
  -21.9194   -4.6998   22.3380 C   0  0  0  0  0  0
  -22.7861  -13.5290   21.1777 C   0  0  0  0  0  0
  -22.1638   -4.2189   21.0954 F   0  0  0  0  0  0
  -21.5598   -3.4486   25.7707 F   0  0  0  0  0  0
  -30.0439  -13.3841   20.4856 N   0  0  0  0  0  0
  -26.3112  -12.9414   20.3415 N   0  0  0  0  0  0
  -25.9385  -11.6551   20.5783 N   0  0  0  0  0  0
  -22.0406  -12.8352   22.0309 N   0  0  0  0  0  0
  -25.4321  -15.1932   20.4162 N   0  0  0  0  0  0
  -31.7507  -14.8151   20.0172 O   0  0  0  0  0  0
  -21.6647   -6.8911   21.4230 O   0  0  0  0  0  0
  -22.3568  -14.5548   20.6524 O   0  0  0  0  0  0
  -24.6250  -31.8618   23.1957 C   0  0  0  0  0  0
  -25.9130  -32.4777   23.8295 C   0  0  1  0  0  0
  -27.2332  -27.3110   20.1486 C   0  0  0  0  0  0
  -25.5917  -33.8552   24.2182 N   0  0  0  0  0  0
  -23.4183  -30.4836   21.5404 C   0  0  2  0  0  0
  -24.8745  -28.9442   20.1035 C   0  0  0  0  0  0
  -22.7489  -29.4654   22.4929 C   0  0  0  0  0  0
  -18.0311  -28.1438   22.8483 C   0  0  0  0  0  0
  -24.1490  -36.7323   23.2639 C   0  0  0  0  0  0
  -25.9593  -30.7970   21.3694 C   0  0  0  0  0  0
  -26.0423  -29.4250   20.7116 C   0  0  0  0  0  0
  -27.2271  -28.6270   20.7144 C   0  0  0  0  0  0
  -26.0489  -26.8993   19.4996 C   0  0  0  0  0  0
  -24.8825  -27.6924   19.4782 C   0  0  0  0  0  0
  -23.6361  -29.8183   20.1558 C   0  0  0  0  0  0
  -25.4106  -36.3052   24.0300 C   0  0  1  0  0  0
  -20.5908  -28.3743   23.1303 C   0  0  2  0  0  0
  -20.6829  -26.9474   22.5442 C   0  0  0  0  0  0
  -19.5792  -26.6409   21.5265 C   0  0  0  0  0  0
  -18.1961  -26.7972   22.1645 C   0  0  0  0  0  0
  -19.1567  -28.8901   23.2878 C   0  0  0  0  0  0
  -18.9490  -30.1504   23.8889 C   0  0  0  0  0  0
  -17.6499  -30.6633   24.0589 C   0  0  0  0  0  0
  -25.9055  -34.9449   23.5057 C   0  0  0  0  0  0
  -16.5381  -29.9142   23.6342 C   0  0  0  0  0  0
  -16.7301  -28.6569   23.0323 C   0  0  0  0  0  0
  -26.4479  -31.6572   25.0659 C   0  0  0  0  0  0
  -25.3631  -31.3851   26.1330 C   0  0  0  0  0  0
  -27.0352  -30.2953   24.6217 C   0  0  0  0  0  0
  -27.5996  -32.4324   25.7482 C   0  0  0  0  0  0
  -27.5564  -37.1820   24.8446 C   0  0  0  0  0  0
  -21.4212  -29.3059   22.3661 N   0  0  0  0  0  0
  -26.4272  -37.3751   23.9400 N   0  0  0  0  0  0
  -24.6852  -31.0663   22.0914 N   0  0  0  0  0  0
  -23.4204  -28.8244   23.3035 O   0  0  0  0  0  0
  -28.3366  -26.4341   20.2130 O   0  0  0  0  0  0
  -26.5683  -34.8935   22.4643 O   0  0  0  0  0  0
  -23.5435  -32.1463   23.7287 O   0  0  0  0  0  0
  -27.5469  -21.9159   19.7543 C   0  0  0  0  0  0
  -28.4792  -19.4635   22.3462 C   0  0  0  0  0  0
  -31.2926  -18.2267   21.9209 C   0  0  0  0  0  0
  -31.0864  -18.6357   19.4977 C   0  0  0  0  0  0
  -29.1364  -23.8348   20.5307 C   0  0  0  0  0  0
  -29.7364  -21.1414   20.8859 C   0  0  0  0  0  0
  -29.5209  -16.9501   20.5232 C   0  0  0  0  0  0
  -28.0617  -25.0285   20.6400 C   0  0  0  0  0  0
  -28.6295  -22.3184   20.7871 C   0  0  2  0  0  0
  -29.2519  -19.6037   21.0107 C   0  0  1  0  0  0
  -30.2707  -18.3545   20.7772 C   0  0  0  0  0  0
  -29.9427  -15.6290   21.1209 N   0  0  0  0  0  0
  -31.5058  -12.4899   19.1993 H   0  0  0  0  0  0
  -30.3749  -11.3710   19.8969 H   0  0  0  0  0  0
  -29.8140  -11.7969   17.4850 H   0  0  0  0  0  0
  -29.7201  -13.5147   17.7925 H   0  0  0  0  0  0
  -27.8605  -11.3359   18.8059 H   0  0  0  0  0  0
  -27.4354  -12.6841   17.7821 H   0  0  0  0  0  0
  -27.7119  -14.2775   19.5931 H   0  0  0  0  0  0
  -28.7114  -11.9972   21.3584 H   0  0  0  0  0  0
  -28.4509  -13.6251   21.9019 H   0  0  0  0  0  0
  -25.2808   -9.5672   22.4755 H   0  0  0  0  0  0
  -24.0007   -7.4644   22.7473 H   0  0  0  0  0  0
  -21.0854   -8.8787   19.8976 H   0  0  0  0  0  0
  -22.3747  -10.9656   19.6077 H   0  0  0  0  0  0
  -21.2067   -7.6154   23.9714 H   0  0  0  0  0  0
  -21.1492   -6.0497   25.9039 H   0  0  0  0  0  0
  -22.0590   -2.7636   23.2764 H   0  0  0  0  0  0
  -22.3983  -12.0136   22.4957 H   0  0  0  0  0  0
  -21.0955  -13.1334   22.2307 H   0  0  0  0  0  0
  -24.6694  -15.8484   20.5399 H   0  0  0  0  0  0
  -26.2823  -15.6335   20.0888 H   0  0  0  0  0  0
  -26.7204  -32.5451   23.1065 H   0  0  0  0  0  0
  -24.9868  -33.9660   25.0199 H   0  0  0  0  0  0
  -22.7089  -31.3020   21.3971 H   0  0  0  0  0  0
  -23.3692  -35.9721   23.3303 H   0  0  0  0  0  0
  -24.3587  -36.8959   22.2054 H   0  0  0  0  0  0
  -23.7336  -37.6554   23.6690 H   0  0  0  0  0  0
  -26.0979  -31.5657   20.6075 H   0  0  0  0  0  0
  -26.8349  -30.8414   22.0043 H   0  0  0  0  0  0
  -28.1192  -29.0055   21.1919 H   0  0  0  0  0  0
  -25.9971  -25.9471   18.9999 H   0  0  0  0  0  0
  -23.9989  -27.3191   18.9787 H   0  0  0  0  0  0
  -23.7468  -30.5950   19.3975 H   0  0  0  0  0  0
  -22.7581  -29.2413   19.8574 H   0  0  0  0  0  0
  -25.1302  -36.1855   25.0792 H   0  0  0  0  0  0
  -21.0003  -28.3365   24.1420 H   0  0  0  0  0  0
  -20.5845  -26.2358   23.3650 H   0  0  0  0  0  0
  -21.6691  -26.7599   22.1174 H   0  0  0  0  0  0
  -19.6972  -25.6313   21.1316 H   0  0  0  0  0  0
  -19.6723  -27.3211   20.6782 H   0  0  0  0  0  0
  -17.4254  -26.6731   21.4013 H   0  0  0  0  0  0
  -18.0331  -26.0130   22.9050 H   0  0  0  0  0  0
  -19.7969  -30.7327   24.2228 H   0  0  0  0  0  0
  -17.5068  -31.6299   24.5230 H   0  0  0  0  0  0
  -15.5393  -30.3061   23.7667 H   0  0  0  0  0  0
  -15.8697  -28.0930   22.6983 H   0  0  0  0  0  0
  -24.5687  -30.7373   25.7609 H   0  0  0  0  0  0
  -24.8963  -32.3108   26.4694 H   0  0  0  0  0  0
  -25.7778  -30.8967   27.0145 H   0  0  0  0  0  0
  -26.3008  -29.6681   24.1129 H   0  0  0  0  0  0
  -27.3891  -29.7232   25.4813 H   0  0  0  0  0  0
  -27.8933  -30.4182   23.9597 H   0  0  0  0  0  0
  -27.2527  -33.3574   26.2113 H   0  0  0  0  0  0
  -28.3797  -32.6980   25.0331 H   0  0  0  0  0  0
  -28.0693  -31.8422   26.5369 H   0  0  0  0  0  0
  -28.2572  -38.0119   24.7442 H   0  0  0  0  0  0
  -28.1057  -36.2641   24.6285 H   0  0  0  0  0  0
  -27.2306  -37.1508   25.8858 H   0  0  0  0  0  0
  -20.9419  -29.8688   21.6787 H   0  0  0  0  0  0
  -26.0119  -38.2824   24.1344 H   0  0  0  0  0  0
  -26.7367  -22.6361   19.6711 H   0  0  0  0  0  0
  -27.0536  -20.9816   20.0247 H   0  0  0  0  0  0
  -27.9714  -21.7730   18.7595 H   0  0  0  0  0  0
  -27.6748  -20.1953   22.4245 H   0  0  0  0  0  0
  -29.1324  -19.6128   23.2103 H   0  0  0  0  0  0
  -28.0176  -18.4834   22.4578 H   0  0  0  0  0  0
  -32.0665  -17.4928   21.6854 H   0  0  0  0  0  0
  -30.8220  -17.9313   22.8580 H   0  0  0  0  0  0
  -31.8218  -19.1660   22.0856 H   0  0  0  0  0  0
  -31.7300  -17.7931   19.2338 H   0  0  0  0  0  0
  -31.7473  -19.4947   19.6095 H   0  0  0  0  0  0
  -30.4343  -18.8239   18.6434 H   0  0  0  0  0  0
  -29.9423  -24.0497   21.2325 H   0  0  0  0  0  0
  -29.6144  -23.8803   19.5509 H   0  0  0  0  0  0
  -30.3716  -21.3450   21.7533 H   0  0  0  0  0  0
  -30.3932  -21.2416   20.0205 H   0  0  0  0  0  0
  -29.3997  -16.7836   19.4505 H   0  0  0  0  0  0
  -28.4909  -17.0583   20.8563 H   0  0  0  0  0  0
  -27.7646  -25.0935   21.6868 H   0  0  0  0  0  0
  -27.1788  -24.6710   20.1251 H   0  0  0  0  0  0
  -28.1270  -22.3448   21.7568 H   0  0  0  0  0  0
  -28.5338  -19.4599   20.2050 H   0  0  0  0  0  0
  -29.2390  -15.2705   21.7490 H   0  0  0  0  0  0
  1 25  1  0  0  0
  1 30  2  0  0  0
  1 82  1  0  0  0
  2  3  1  0  0  0
  2 25  1  0  0  0
  2 83  1  0  0  0
  2 84  1  0  0  0
  3  4  1  0  0  0
  3 85  1  0  0  0
  3 86  1  0  0  0
  4  5  1  0  0  0
  4 87  1  0  0  0
  4 88  1  0  0  0
  5  6  1  0  0  0
  5 26  1  0  0  0
  5 89  1  0  0  0
  6 25  1  0  0  0
  6 90  1  0  0  0
  6 91  1  0  0  0
  7  8  2  0  0  0
  7 26  1  0  0  0
  7 29  1  0  0  0
  8  9  1  0  0  0
  8 22  1  0  0  0
  9 10  1  0  0  0
  9 27  2  0  0  0
 10 11  2  0  0  0
 10 15  1  0  0  0
 11 12  1  0  0  0
 11 92  1  0  0  0
 12 13  2  0  0  0
 12 93  1  0  0  0
 13 14  1  0  0  0
 13 31  1  0  0  0
 14 15  2  0  0  0
 14 94  1  0  0  0
 15 95  1  0  0  0
 16 17  2  0  0  0
 16 21  1  0  0  0
 16 31  1  0  0  0
 17 18  1  0  0  0
 17 96  1  0  0  0
 18 19  2  0  0  0
 18 97  1  0  0  0
 19 20  1  0  0  0
 19 24  1  0  0  0
 20 21  2  0  0  0
 20 98  1  0  0  0
 21 23  1  0  0  0
 22 28  1  0  0  0
 22 32  2  0  0  0
 26 27  1  0  0  0
 28 99  1  0  0  0
 28100  1  0  0  0
 29101  1  0  0  0
 29102  1  0  0  0
 33 34  1  0  0  0
 33 66  1  0  0  0
 33 70  2  0  0  0
 34 36  1  0  0  0
 34 59  1  0  0  0
 34103  1  0  0  0
 35 44  2  0  0  0
 35 45  1  0  0  0
 35 68  1  0  0  0
 36 56  1  0  0  0
 36104  1  0  0  0
 37 39  1  0  0  0
 37 47  1  0  0  0
 37 66  1  0  0  0
 37105  1  0  0  0
 38 43  2  0  0  0
 38 46  1  0  0  0
 38 47  1  0  0  0
 39 64  1  0  0  0
 39 67  2  0  0  0
 40 52  1  0  0  0
 40 53  2  0  0  0
 40 58  1  0  0  0
 41106  1  0  0  0
 41107  1  0  0  0
 41108  1  0  0  0
 41 48  1  0  0  0
 42 43  1  0  0  0
 42 66  1  0  0  0
 42109  1  0  0  0
 42110  1  0  0  0
 43 44  1  0  0  0
 44111  1  0  0  0
 45 46  2  0  0  0
 45112  1  0  0  0
 46113  1  0  0  0
 47114  1  0  0  0
 47115  1  0  0  0
 48 56  1  0  0  0
 48 65  1  0  0  0
 48116  1  0  0  0
 49 50  1  0  0  0
 49 53  1  0  0  0
 49 64  1  0  0  0
 49117  1  0  0  0
 50 51  1  0  0  0
 50118  1  0  0  0
 50119  1  0  0  0
 51 52  1  0  0  0
 51120  1  0  0  0
 51121  1  0  0  0
 52122  1  0  0  0
 52123  1  0  0  0
 53 54  1  0  0  0
 54 55  2  0  0  0
 54124  1  0  0  0
 55 57  1  0  0  0
 55125  1  0  0  0
 56 69  2  0  0  0
 57 58  2  0  0  0
 57126  1  0  0  0
 58127  1  0  0  0
 59 60  1  0  0  0
 59 61  1  0  0  0
 59 62  1  0  0  0
 60128  1  0  0  0
 60129  1  0  0  0
 60130  1  0  0  0
 61131  1  0  0  0
 61132  1  0  0  0
 61133  1  0  0  0
 62134  1  0  0  0
 62135  1  0  0  0
 62136  1  0  0  0
 63 65  1  0  0  0
 63137  1  0  0  0
 63138  1  0  0  0
 63139  1  0  0  0
 64140  1  0  0  0
 65141  1  0  0  0
 68 78  1  0  0  0
 71142  1  0  0  0
 71143  1  0  0  0
 71144  1  0  0  0
 71 79  1  0  0  0
 72145  1  0  0  0
 72146  1  0  0  0
 72147  1  0  0  0
 72 80  1  0  0  0
 73148  1  0  0  0
 73149  1  0  0  0
 73150  1  0  0  0
 73 81  1  0  0  0
 74 81  1  0  0  0
 74151  1  0  0  0
 74152  1  0  0  0
 74153  1  0  0  0
 75 78  1  0  0  0
 75 79  1  0  0  0
 75154  1  0  0  0
 75155  1  0  0  0
 76 79  1  0  0  0
 76 80  1  0  0  0
 76156  1  0  0  0
 76157  1  0  0  0
 77 81  1  0  0  0
 77 82  1  0  0  0
 77158  1  0  0  0
 77159  1  0  0  0
 78160  1  0  0  0
 78161  1  0  0  0
 79162  1  0  0  0
 80 81  1  0  0  0
 80163  1  0  0  0
 82164  1  0  0  0
M  ISO  4   1 100  68 101  78 101  82 100
M  END
> <chiral flag>
0

> <version>
0

> <s_m_source_file>
/data/baiqing/PycharmProjects/Reinvent-master-3.2/result/LINK_invent/BTK/process_docking_weight1_custom_sum_contain_oxygen_bond_distance_aromatic_linkinvent_7_9_3/rearranged_h_0102.sdf

> <i_m_source_file_index>
51

> <r_mmod_Potential_Energy-OPLS-2005>
147.303939819336

> <r_mmod_Stretch_Energy-OPLS-2005>
112.311393737793

> <r_mmod_Bend_Energy-OPLS-2005>
174.211029052734

> <r_mmod_Torsional_Energy-OPLS-2005>
285.675048828125

> <r_mmod_Improper_Torsional_Energy-OPLS-2005>
6.10658121109009

> <r_mmod_Van_der_Waal_Energy-OPLS-2005>
126.706474304199

> <r_mmod_Electrostatic_Energy-OPLS-2005>
-412.0693359375

> <r_mmod_Solvation_Energy-OPLS-2005>
-193.590240478516

> <b_mmod_Minimization_Converged-OPLS-2005>
0

> <r_mmod_RMS_Derivative-OPLS-2005>
6.54979181289673

$$$$
52
                    3D
 Structure written by MMmdl.
158166  0  0  1  0            999 V2000
  -30.7250  -14.4835   20.4949 C   0  0  0  0  0  0
  -30.4019  -12.2956   19.4254 C   0  0  0  0  0  0
  -29.4848  -12.4812   18.2013 C   0  0  0  0  0  0
  -28.0043  -12.3589   18.6119 C   0  0  0  0  0  0
  -27.6488  -13.2174   19.8564 C   0  0  2  0  0  0
  -28.6972  -13.0567   20.9800 C   0  0  0  0  0  0
  -25.2536  -13.8160   20.5672 C   0  0  0  0  0  0
  -24.1807  -13.0427   20.9152 C   0  0  0  0  0  0
  -24.6377  -11.6895   20.8727 C   0  0  0  0  0  0
  -23.9056  -10.4283   21.0402 C   0  0  0  0  0  0
  -24.3607   -9.4194   21.9180 C   0  0  0  0  0  0
  -23.6279   -8.2232   22.0754 C   0  0  0  0  0  0
  -22.4266   -8.0271   21.3544 C   0  0  0  0  0  0
  -21.9900   -9.0240   20.4646 C   0  0  0  0  0  0
  -22.7226  -10.2117   20.3049 C   0  0  0  0  0  0
  -21.6853   -6.0722   22.5273 C   0  0  0  0  0  0
  -21.4016   -6.5632   23.8205 C   0  0  0  0  0  0
  -21.3658   -5.6786   24.9169 C   0  0  0  0  0  0
  -21.6047   -4.3048   24.7228 C   0  0  0  0  0  0
  -21.8813   -3.8135   23.4350 C   0  0  0  0  0  0
  -21.9189   -4.6947   22.3404 C   0  0  0  0  0  0
  -22.7834  -13.5228   21.1835 C   0  0  0  0  0  0
  -22.1657   -4.2131   21.0983 F   0  0  0  0  0  0
  -21.5635   -3.4541   25.7745 F   0  0  0  0  0  0
  -30.0195  -13.3263   20.4015 N   0  0  0  0  0  0
  -26.2969  -12.9357   20.3306 N   0  0  0  0  0  0
  -25.9309  -11.6502   20.5756 N   0  0  0  0  0  0
  -22.0489  -12.8233   22.0402 N   0  0  0  0  0  0
  -25.4220  -15.1883   20.4093 N   0  0  0  0  0  0
  -31.9042  -14.5627   20.1474 O   0  0  0  0  0  0
  -21.6635   -6.8866   21.4241 O   0  0  0  0  0  0
  -22.3520  -14.5526   20.6665 O   0  0  0  0  0  0
  -24.6167  -31.8696   23.2082 C   0  0  0  0  0  0
  -25.9044  -32.4830   23.8391 C   0  0  1  0  0  0
  -27.2288  -27.4191   20.1054 C   0  0  0  0  0  0
  -25.5883  -33.8623   24.2301 N   0  0  0  0  0  0
  -23.4032  -30.4925   21.5493 C   0  0  2  0  0  0
  -24.8504  -28.9528   20.1145 C   0  0  0  0  0  0
  -22.7406  -29.4709   22.5007 C   0  0  0  0  0  0
  -18.0253  -28.1432   22.8587 C   0  0  0  0  0  0
  -24.1483  -36.7307   23.2639 C   0  0  0  0  0  0
  -25.9342  -30.8288   21.3656 C   0  0  0  0  0  0
  -26.0117  -29.4624   20.7123 C   0  0  0  0  0  0
  -27.2068  -28.7028   20.7021 C   0  0  0  0  0  0
  -26.0547  -26.9337   19.4930 C   0  0  0  0  0  0
  -24.8678  -27.6890   19.4989 C   0  0  0  0  0  0
  -23.6075  -29.8133   20.1682 C   0  0  0  0  0  0
  -25.4102  -36.3118   24.0342 C   0  0  1  0  0  0
  -20.5835  -28.3788   23.1355 C   0  0  2  0  0  0
  -20.6789  -26.9557   22.5417 C   0  0  0  0  0  0
  -19.5687  -26.6389   21.5357 C   0  0  0  0  0  0
  -18.1919  -26.7926   22.1829 C   0  0  0  0  0  0
  -19.1490  -28.8937   23.2923 C   0  0  0  0  0  0
  -18.9440  -30.1618   23.8761 C   0  0  0  0  0  0
  -17.6448  -30.6807   24.0316 C   0  0  0  0  0  0
  -25.9038  -34.9487   23.5124 C   0  0  0  0  0  0
  -16.5340  -29.9268   23.6136 C   0  0  0  0  0  0
  -16.7240  -28.6582   23.0379 C   0  0  0  0  0  0
  -26.4461  -31.6603   25.0716 C   0  0  0  0  0  0
  -25.3722  -31.3698   26.1456 C   0  0  0  0  0  0
  -27.0278  -30.3041   24.6091 C   0  0  0  0  0  0
  -27.6033  -32.4328   25.7464 C   0  0  0  0  0  0
  -27.5573  -37.1798   24.8467 C   0  0  0  0  0  0
  -21.4122  -29.3220   22.3847 N   0  0  0  0  0  0
  -26.4282  -37.3795   23.9418 N   0  0  0  0  0  0
  -24.6691  -31.0803   22.0976 N   0  0  0  0  0  0
  -23.4193  -28.8155   23.2951 O   0  0  0  0  0  0
  -28.3743  -26.6502   20.0981 O   0  0  0  0  0  0
  -26.5623  -34.8931   22.4700 O   0  0  0  0  0  0
  -23.5355  -32.1444   23.7470 O   0  0  0  0  0  0
  -29.3449  -18.8871   21.7755 C   0  0  0  0  0  0
  -29.6745  -18.8267   19.3939 C   0  0  0  0  0  0
  -29.8384  -18.2040   20.6485 C   0  0  0  0  0  0
  -28.7374  -20.1543   21.6144 C   0  0  0  0  0  0
  -28.6330  -20.7095   20.3135 C   0  0  0  0  0  0
  -28.2085  -20.8726   22.8452 C   0  0  0  0  0  0
  -30.6887  -16.9360   20.8085 C   0  0  0  0  0  0
  -27.8935  -22.0326   20.0247 C   0  0  0  0  0  0
  -28.7019  -23.1722   19.3320 C   0  0  0  0  0  0
  -29.2687  -24.3091   20.2306 C   0  0  0  0  0  0
  -28.2533  -25.3650   20.7450 C   0  0  0  0  0  0
  -29.0798  -20.0345   19.2282 N   0  0  0  0  0  0
  -30.0356  -15.6095   20.7754 N   0  0  0  0  0  0
  -31.4513  -12.3539   19.1316 H   0  0  0  0  0  0
  -30.2702  -11.3014   19.8566 H   0  0  0  0  0  0
  -29.7202  -11.7392   17.4365 H   0  0  0  0  0  0
  -29.6624  -13.4572   17.7469 H   0  0  0  0  0  0
  -27.8056  -11.3056   18.8159 H   0  0  0  0  0  0
  -27.3585  -12.6275   17.7760 H   0  0  0  0  0  0
  -27.6755  -14.2565   19.5274 H   0  0  0  0  0  0
  -28.6718  -12.0437   21.3854 H   0  0  0  0  0  0
  -28.4789  -13.7250   21.8150 H   0  0  0  0  0  0
  -25.2745   -9.5670   22.4760 H   0  0  0  0  0  0
  -23.9978   -7.4635   22.7475 H   0  0  0  0  0  0
  -21.0830   -8.8750   19.8969 H   0  0  0  0  0  0
  -22.3671  -10.9650   19.6158 H   0  0  0  0  0  0
  -21.2010   -7.6145   23.9701 H   0  0  0  0  0  0
  -21.1492   -6.0528   25.9072 H   0  0  0  0  0  0
  -22.0596   -2.7602   23.2856 H   0  0  0  0  0  0
  -22.4133  -11.9911   22.4797 H   0  0  0  0  0  0
  -21.1120  -13.1260   22.2638 H   0  0  0  0  0  0
  -24.6438  -15.8348   20.4894 H   0  0  0  0  0  0
  -26.2778  -15.6350   20.1035 H   0  0  0  0  0  0
  -26.7129  -32.5547   23.1162 H   0  0  0  0  0  0
  -24.9992  -33.9791   25.0420 H   0  0  0  0  0  0
  -22.6896  -31.3067   21.4032 H   0  0  0  0  0  0
  -23.3752  -35.9632   23.3322 H   0  0  0  0  0  0
  -24.3565  -36.8906   22.2048 H   0  0  0  0  0  0
  -23.7234  -37.6508   23.6645 H   0  0  0  0  0  0
  -26.0513  -31.5948   20.5959 H   0  0  0  0  0  0
  -26.8207  -30.8830   21.9852 H   0  0  0  0  0  0
  -28.1042  -29.0911   21.1642 H   0  0  0  0  0  0
  -26.0546  -25.9668   19.0088 H   0  0  0  0  0  0
  -23.9764  -27.2929   19.0315 H   0  0  0  0  0  0
  -23.6971  -30.5748   19.3936 H   0  0  0  0  0  0
  -22.7356  -29.2143   19.8962 H   0  0  0  0  0  0
  -25.1284  -36.1969   25.0835 H   0  0  0  0  0  0
  -20.9879  -28.3345   24.1495 H   0  0  0  0  0  0
  -20.6017  -26.2393   23.3625 H   0  0  0  0  0  0
  -21.6578  -26.7767   22.0931 H   0  0  0  0  0  0
  -19.6855  -25.6250   21.1529 H   0  0  0  0  0  0
  -19.6487  -27.3113   20.6803 H   0  0  0  0  0  0
  -17.4187  -26.6550   21.4261 H   0  0  0  0  0  0
  -18.0327  -26.0162   22.9326 H   0  0  0  0  0  0
  -19.7977  -30.7463   24.1944 H   0  0  0  0  0  0
  -17.5000  -31.6629   24.4596 H   0  0  0  0  0  0
  -15.5370  -30.3297   23.7248 H   0  0  0  0  0  0
  -15.8628  -28.0903   22.7115 H   0  0  0  0  0  0
  -24.5907  -30.7034   25.7775 H   0  0  0  0  0  0
  -24.8901  -32.2850   26.4905 H   0  0  0  0  0  0
  -25.8088  -30.8857   27.0207 H   0  0  0  0  0  0
  -26.2812  -29.6803   24.1150 H   0  0  0  0  0  0
  -27.4036  -29.7272   25.4552 H   0  0  0  0  0  0
  -27.8667  -30.4332   23.9247 H   0  0  0  0  0  0
  -27.2649  -33.3620   26.2060 H   0  0  0  0  0  0
  -28.3822  -32.6909   25.0276 H   0  0  0  0  0  0
  -28.0730  -31.8450   26.5355 H   0  0  0  0  0  0
  -28.2602  -38.0081   24.7520 H   0  0  0  0  0  0
  -28.1064  -36.2621   24.6302 H   0  0  0  0  0  0
  -27.2298  -37.1461   25.8869 H   0  0  0  0  0  0
  -20.9243  -29.9288   21.7404 H   0  0  0  0  0  0
  -26.0187  -38.2874   24.1412 H   0  0  0  0  0  0
  -29.4659  -18.4551   22.7588 H   0  0  0  0  0  0
  -30.0583  -18.3661   18.4958 H   0  0  0  0  0  0
  -28.4678  -20.3419   23.7616 H   0  0  0  0  0  0
  -27.1212  -20.9388   22.8041 H   0  0  0  0  0  0
  -28.6204  -21.8794   22.9183 H   0  0  0  0  0  0
  -31.4609  -16.9910   20.0367 H   0  0  0  0  0  0
  -31.2280  -17.0046   21.7541 H   0  0  0  0  0  0
  -27.4021  -22.4176   20.9148 H   0  0  0  0  0  0
  -27.0681  -21.7616   19.3633 H   0  0  0  0  0  0
  -28.0493  -23.6408   18.5949 H   0  0  0  0  0  0
  -29.5087  -22.7359   18.7420 H   0  0  0  0  0  0
  -30.0505  -24.8347   19.6830 H   0  0  0  0  0  0
  -29.7754  -23.8551   21.0830 H   0  0  0  0  0  0
  -27.2440  -24.9522   20.7105 H   0  0  0  0  0  0
  -28.4582  -25.5367   21.8017 H   0  0  0  0  0  0
  -29.0461  -15.5400   20.9568 H   0  0  0  0  0  0
  1 25  1  0  0  0
  1 30  2  0  0  0
  1 83  1  0  0  0
  2  3  1  0  0  0
  2 25  1  0  0  0
  2 84  1  0  0  0
  2 85  1  0  0  0
  3  4  1  0  0  0
  3 86  1  0  0  0
  3 87  1  0  0  0
  4  5  1  0  0  0
  4 88  1  0  0  0
  4 89  1  0  0  0
  5  6  1  0  0  0
  5 26  1  0  0  0
  5 90  1  0  0  0
  6 25  1  0  0  0
  6 91  1  0  0  0
  6 92  1  0  0  0
  7  8  2  0  0  0
  7 26  1  0  0  0
  7 29  1  0  0  0
  8  9  1  0  0  0
  8 22  1  0  0  0
  9 10  1  0  0  0
  9 27  2  0  0  0
 10 11  2  0  0  0
 10 15  1  0  0  0
 11 12  1  0  0  0
 11 93  1  0  0  0
 12 13  2  0  0  0
 12 94  1  0  0  0
 13 14  1  0  0  0
 13 31  1  0  0  0
 14 15  2  0  0  0
 14 95  1  0  0  0
 15 96  1  0  0  0
 16 17  2  0  0  0
 16 21  1  0  0  0
 16 31  1  0  0  0
 17 18  1  0  0  0
 17 97  1  0  0  0
 18 19  2  0  0  0
 18 98  1  0  0  0
 19 20  1  0  0  0
 19 24  1  0  0  0
 20 21  2  0  0  0
 20 99  1  0  0  0
 21 23  1  0  0  0
 22 28  1  0  0  0
 22 32  2  0  0  0
 26 27  1  0  0  0
 28100  1  0  0  0
 28101  1  0  0  0
 29102  1  0  0  0
 29103  1  0  0  0
 33 34  1  0  0  0
 33 66  1  0  0  0
 33 70  2  0  0  0
 34 36  1  0  0  0
 34 59  1  0  0  0
 34104  1  0  0  0
 35 44  2  0  0  0
 35 45  1  0  0  0
 35 68  1  0  0  0
 36 56  1  0  0  0
 36105  1  0  0  0
 37 39  1  0  0  0
 37 47  1  0  0  0
 37 66  1  0  0  0
 37106  1  0  0  0
 38 43  2  0  0  0
 38 46  1  0  0  0
 38 47  1  0  0  0
 39 64  1  0  0  0
 39 67  2  0  0  0
 40 52  1  0  0  0
 40 53  2  0  0  0
 40 58  1  0  0  0
 41107  1  0  0  0
 41108  1  0  0  0
 41109  1  0  0  0
 41 48  1  0  0  0
 42 43  1  0  0  0
 42 66  1  0  0  0
 42110  1  0  0  0
 42111  1  0  0  0
 43 44  1  0  0  0
 44112  1  0  0  0
 45 46  2  0  0  0
 45113  1  0  0  0
 46114  1  0  0  0
 47115  1  0  0  0
 47116  1  0  0  0
 48 56  1  0  0  0
 48 65  1  0  0  0
 48117  1  0  0  0
 49 50  1  0  0  0
 49 53  1  0  0  0
 49 64  1  0  0  0
 49118  1  0  0  0
 50 51  1  0  0  0
 50119  1  0  0  0
 50120  1  0  0  0
 51 52  1  0  0  0
 51121  1  0  0  0
 51122  1  0  0  0
 52123  1  0  0  0
 52124  1  0  0  0
 53 54  1  0  0  0
 54 55  2  0  0  0
 54125  1  0  0  0
 55 57  1  0  0  0
 55126  1  0  0  0
 56 69  2  0  0  0
 57 58  2  0  0  0
 57127  1  0  0  0
 58128  1  0  0  0
 59 60  1  0  0  0
 59 61  1  0  0  0
 59 62  1  0  0  0
 60129  1  0  0  0
 60130  1  0  0  0
 60131  1  0  0  0
 61132  1  0  0  0
 61133  1  0  0  0
 61134  1  0  0  0
 62135  1  0  0  0
 62136  1  0  0  0
 62137  1  0  0  0
 63 65  1  0  0  0
 63138  1  0  0  0
 63139  1  0  0  0
 63140  1  0  0  0
 64141  1  0  0  0
 65142  1  0  0  0
 68 81  1  0  0  0
 71 73  2  0  0  0
 71 74  1  0  0  0
 71143  1  0  0  0
 72 73  1  0  0  0
 72 82  2  0  0  0
 72144  1  0  0  0
 73 77  1  0  0  0
 74 75  2  0  0  0
 74 76  1  0  0  0
 75 78  1  0  0  0
 75 82  1  0  0  0
 76145  1  0  0  0
 76146  1  0  0  0
 76147  1  0  0  0
 77 83  1  0  0  0
 77148  1  0  0  0
 77149  1  0  0  0
 78 79  1  0  0  0
 78150  1  0  0  0
 78151  1  0  0  0
 79 80  1  0  0  0
 79152  1  0  0  0
 79153  1  0  0  0
 80 81  1  0  0  0
 80154  1  0  0  0
 80155  1  0  0  0
 81156  1  0  0  0
 81157  1  0  0  0
 83158  1  0  0  0
M  ISO  4   1 100  68 101  81 101  83 100
M  END
> <chiral flag>
0

> <version>
0

> <s_m_source_file>
/data/baiqing/PycharmProjects/Reinvent-master-3.2/result/LINK_invent/BTK/process_docking_weight1_custom_sum_contain_oxygen_bond_distance_aromatic_linkinvent_7_9_3/rearranged_h_0102.sdf

> <i_m_source_file_index>
52

> <r_mmod_Potential_Energy-OPLS-2005>
-147.909317016602

> <r_mmod_Stretch_Energy-OPLS-2005>
39.3058929443359

> <r_mmod_Bend_Energy-OPLS-2005>
105.77725982666

> <r_mmod_Torsional_Energy-OPLS-2005>
244.44921875

> <r_mmod_Improper_Torsional_Energy-OPLS-2005>
5.71784114837646

> <r_mmod_Van_der_Waal_Energy-OPLS-2005>
152.25212097168

> <r_mmod_Electrostatic_Energy-OPLS-2005>
-499.640411376953

> <r_mmod_Solvation_Energy-OPLS-2005>
-216.900665283203

> <b_mmod_Minimization_Converged-OPLS-2005>
0

> <r_mmod_RMS_Derivative-OPLS-2005>
4.01609325408936

$$$$
53
                    3D
 Structure written by MMmdl.
161169  0  0  1  0            999 V2000
  -30.5518  -14.9586   20.3983 C   0  0  0  0  0  0
  -30.4259  -12.5872   19.4939 C   0  0  0  0  0  0
  -29.5150  -12.5360   18.2472 C   0  0  0  0  0  0
  -28.0453  -12.3306   18.6583 C   0  0  0  0  0  0
  -27.6243  -13.2520   19.8326 C   0  0  2  0  0  0
  -28.6692  -13.2889   20.9678 C   0  0  0  0  0  0
  -25.2440  -13.8223   20.5705 C   0  0  0  0  0  0
  -24.1773  -13.0438   20.9229 C   0  0  0  0  0  0
  -24.6390  -11.6923   20.8740 C   0  0  0  0  0  0
  -23.9074  -10.4291   21.0390 C   0  0  0  0  0  0
  -24.3624   -9.4219   21.9174 C   0  0  0  0  0  0
  -23.6307   -8.2250   22.0751 C   0  0  0  0  0  0
  -22.4293   -8.0279   21.3536 C   0  0  0  0  0  0
  -21.9921   -9.0244   20.4633 C   0  0  0  0  0  0
  -22.7242  -10.2129   20.3045 C   0  0  0  0  0  0
  -21.6866   -6.0735   22.5276 C   0  0  0  0  0  0
  -21.4019   -6.5637   23.8213 C   0  0  0  0  0  0
  -21.3665   -5.6791   24.9174 C   0  0  0  0  0  0
  -21.6058   -4.3053   24.7232 C   0  0  0  0  0  0
  -21.8819   -3.8143   23.4352 C   0  0  0  0  0  0
  -21.9199   -4.6955   22.3407 C   0  0  0  0  0  0
  -22.7794  -13.5203   21.1889 C   0  0  0  0  0  0
  -22.1665   -4.2138   21.0982 F   0  0  0  0  0  0
  -21.5630   -3.4542   25.7744 F   0  0  0  0  0  0
  -29.9405  -13.7017   20.3608 N   0  0  0  0  0  0
  -26.2860  -12.9453   20.3223 N   0  0  0  0  0  0
  -25.9324  -11.6580   20.5718 N   0  0  0  0  0  0
  -22.0452  -12.8171   22.0430 N   0  0  0  0  0  0
  -25.4099  -15.1961   20.4129 N   0  0  0  0  0  0
  -31.7651  -14.9652   20.1552 O   0  0  0  0  0  0
  -21.6656   -6.8878   21.4239 O   0  0  0  0  0  0
  -22.3470  -14.5496   20.6725 O   0  0  0  0  0  0
  -24.6434  -31.8429   23.1869 C   0  0  0  0  0  0
  -25.9200  -32.4691   23.8258 C   0  0  1  0  0  0
  -27.2099  -27.1248   20.1490 C   0  0  0  0  0  0
  -25.5940  -33.8498   24.2176 N   0  0  0  0  0  0
  -23.4473  -30.4624   21.5329 C   0  0  2  0  0  0
  -24.8962  -28.8874   20.1082 C   0  0  0  0  0  0
  -22.7556  -29.4559   22.4860 C   0  0  0  0  0  0
  -18.0295  -28.1431   22.8481 C   0  0  0  0  0  0
  -24.1480  -36.7260   23.2643 C   0  0  0  0  0  0
  -26.0045  -30.7112   21.3878 C   0  0  0  0  0  0
  -26.0728  -29.3213   20.7301 C   0  0  0  0  0  0
  -27.2311  -28.4550   20.7348 C   0  0  0  0  0  0
  -26.0112  -26.8004   19.4768 C   0  0  0  0  0  0
  -24.8780  -27.6416   19.4650 C   0  0  0  0  0  0
  -23.6716  -29.7874   20.1542 C   0  0  0  0  0  0
  -25.4117  -36.3031   24.0305 C   0  0  1  0  0  0
  -20.5907  -28.3766   23.1232 C   0  0  2  0  0  0
  -20.6796  -26.9473   22.5400 C   0  0  0  0  0  0
  -19.5768  -26.6411   21.5217 C   0  0  0  0  0  0
  -18.1940  -26.7971   22.1624 C   0  0  0  0  0  0
  -19.1551  -28.8916   23.2847 C   0  0  0  0  0  0
  -18.9468  -30.1506   23.8878 C   0  0  0  0  0  0
  -17.6466  -30.6621   24.0570 C   0  0  0  0  0  0
  -25.9069  -34.9405   23.5055 C   0  0  0  0  0  0
  -16.5355  -29.9112   23.6360 C   0  0  0  0  0  0
  -16.7278  -28.6534   23.0375 C   0  0  0  0  0  0
  -26.4520  -31.6569   25.0714 C   0  0  0  0  0  0
  -25.3690  -31.3759   26.1396 C   0  0  0  0  0  0
  -27.0416  -30.2961   24.6328 C   0  0  0  0  0  0
  -27.6032  -32.4368   25.7513 C   0  0  0  0  0  0
  -27.5566  -37.1779   24.8460 C   0  0  0  0  0  0
  -21.4251  -29.3073   22.3590 N   0  0  0  0  0  0
  -26.4275  -37.3736   23.9399 N   0  0  0  0  0  0
  -24.7186  -31.0274   22.0905 N   0  0  0  0  0  0
  -23.4196  -28.8107   23.3015 O   0  0  0  0  0  0
  -28.2528  -26.1268   20.2319 O   0  0  0  0  0  0
  -26.5661  -34.8897   22.4640 O   0  0  0  0  0  0
  -23.5553  -32.1321   23.7080 O   0  0  0  0  0  0
  -29.2243  -18.8399   20.3495 C   0  0  0  0  0  0
  -29.6208  -20.2793   20.2037 C   0  0  0  0  0  0
  -31.0351  -20.4046   20.0934 C   0  0  0  0  0  0
  -31.8783  -19.2681   20.2371 C   0  0  0  0  0  0
  -30.1442  -17.6663   20.4024 C   0  0  0  0  0  0
  -31.6713  -21.7506   19.7681 C   0  0  0  0  0  0
  -33.3937  -19.3882   20.2301 C   0  0  0  0  0  0
  -26.3180  -20.6537   19.4162 C   0  0  0  0  0  0
  -27.2018  -21.2670   20.5151 C   0  0  0  0  0  0
  -28.9340  -23.2651   20.4250 C   0  0  0  0  0  0
  -27.9680  -24.6021   20.0291 C   0  0  0  0  0  0
  -28.6255  -21.6241   20.0280 C   0  0  1  0  0  0
  -31.4493  -17.9947   20.3768 N   0  0  0  0  0  0
  -29.7878  -16.1700   20.4881 N   0  0  0  0  0  0
  -31.4631  -12.7254   19.1856 H   0  0  0  0  0  0
  -30.3999  -11.6371   20.0297 H   0  0  0  0  0  0
  -29.8288  -11.7380   17.5725 H   0  0  0  0  0  0
  -29.6122  -13.4681   17.6893 H   0  0  0  0  0  0
  -27.9261  -11.2845   18.9402 H   0  0  0  0  0  0
  -27.3908  -12.4923   17.8004 H   0  0  0  0  0  0
  -27.5829  -14.2552   19.4073 H   0  0  0  0  0  0
  -28.7590  -12.3173   21.4553 H   0  0  0  0  0  0
  -28.3689  -13.9963   21.7416 H   0  0  0  0  0  0
  -25.2774   -9.5699   22.4738 H   0  0  0  0  0  0
  -24.0020   -7.4653   22.7477 H   0  0  0  0  0  0
  -21.0859   -8.8749   19.8936 H   0  0  0  0  0  0
  -22.3699  -10.9653   19.6145 H   0  0  0  0  0  0
  -21.1999   -7.6142   23.9702 H   0  0  0  0  0  0
  -21.1489   -6.0526   25.9073 H   0  0  0  0  0  0
  -22.0591   -2.7602   23.2859 H   0  0  0  0  0  0
  -22.4103  -11.9844   22.4804 H   0  0  0  0  0  0
  -21.1050  -13.1147   22.2626 H   0  0  0  0  0  0
  -24.6374  -15.8438   20.5219 H   0  0  0  0  0  0
  -26.2431  -15.6387   20.0488 H   0  0  0  0  0  0
  -26.7266  -32.5279   23.0987 H   0  0  0  0  0  0
  -25.0060  -33.9621   25.0304 H   0  0  0  0  0  0
  -22.7500  -31.2883   21.3750 H   0  0  0  0  0  0
  -23.3741  -35.9593   23.3291 H   0  0  0  0  0  0
  -24.3563  -36.8924   22.2061 H   0  0  0  0  0  0
  -23.7236  -37.6446   23.6707 H   0  0  0  0  0  0
  -26.1601  -31.4604   20.6104 H   0  0  0  0  0  0
  -26.8759  -30.7635   22.0291 H   0  0  0  0  0  0
  -28.1259  -28.7771   21.2474 H   0  0  0  0  0  0
  -25.9144  -25.8518   18.9704 H   0  0  0  0  0  0
  -23.9793  -27.3133   18.9599 H   0  0  0  0  0  0
  -23.7995  -30.5564   19.3922 H   0  0  0  0  0  0
  -22.7880  -29.2221   19.8524 H   0  0  0  0  0  0
  -25.1300  -36.1858   25.0793 H   0  0  0  0  0  0
  -20.9988  -28.3376   24.1357 H   0  0  0  0  0  0
  -20.5729  -26.2380   23.3623 H   0  0  0  0  0  0
  -21.6662  -26.7517   22.1172 H   0  0  0  0  0  0
  -19.6944  -25.6313   21.1280 H   0  0  0  0  0  0
  -19.6708  -27.3199   20.6731 H   0  0  0  0  0  0
  -17.4212  -26.6718   21.4016 H   0  0  0  0  0  0
  -18.0337  -26.0110   22.9023 H   0  0  0  0  0  0
  -19.7934  -30.7330   24.2233 H   0  0  0  0  0  0
  -17.5020  -31.6294   24.5187 H   0  0  0  0  0  0
  -15.5360  -30.3014   23.7707 H   0  0  0  0  0  0
  -15.8674  -28.0846   22.7130 H   0  0  0  0  0  0
  -24.5864  -30.7130   25.7690 H   0  0  0  0  0  0
  -24.8887  -32.2948   26.4765 H   0  0  0  0  0  0
  -25.7939  -30.8945   27.0215 H   0  0  0  0  0  0
  -26.3063  -29.6659   24.1312 H   0  0  0  0  0  0
  -27.3994  -29.7277   25.4928 H   0  0  0  0  0  0
  -27.8974  -30.4189   23.9688 H   0  0  0  0  0  0
  -27.2596  -33.3687   26.2016 H   0  0  0  0  0  0
  -28.3878  -32.6915   25.0376 H   0  0  0  0  0  0
  -28.0668  -31.8559   26.5497 H   0  0  0  0  0  0
  -28.2561  -38.0093   24.7516 H   0  0  0  0  0  0
  -28.1083  -36.2620   24.6280 H   0  0  0  0  0  0
  -27.2283  -37.1419   25.8862 H   0  0  0  0  0  0
  -20.9476  -29.8733   21.6712 H   0  0  0  0  0  0
  -26.0144  -38.2802   24.1406 H   0  0  0  0  0  0
  -28.1678  -18.6213   20.3973 H   0  0  0  0  0  0
  -31.1417  -22.2219   18.9414 H   0  0  0  0  0  0
  -32.7024  -21.6811   19.4280 H   0  0  0  0  0  0
  -31.6661  -22.3993   20.6435 H   0  0  0  0  0  0
  -33.7224  -20.1818   20.9002 H   0  0  0  0  0  0
  -33.7613  -19.6062   19.2272 H   0  0  0  0  0  0
  -33.8725  -18.4685   20.5682 H   0  0  0  0  0  0
  -25.3335  -20.3914   19.8033 H   0  0  0  0  0  0
  -26.7624  -19.7505   18.9976 H   0  0  0  0  0  0
  -26.1701  -21.3557   18.5940 H   0  0  0  0  0  0
  -27.2515  -20.6121   21.3850 H   0  0  0  0  0  0
  -26.6941  -22.1617   20.8724 H   0  0  0  0  0  0
  -29.0959  -23.3048   21.5018 H   0  0  0  0  0  0
  -29.8857  -23.5529   19.9979 H   0  0  0  0  0  0
  -27.0122  -24.4263   20.5235 H   0  0  0  0  0  0
  -27.7588  -24.4987   18.9636 H   0  0  0  0  0  0
  -28.5622  -21.6889   18.9408 H   0  0  0  0  0  0
  -28.8019  -15.9981   20.5969 H   0  0  0  0  0  0
  1 25  1  0  0  0
  1 30  2  0  0  0
  1 84  1  0  0  0
  2  3  1  0  0  0
  2 25  1  0  0  0
  2 85  1  0  0  0
  2 86  1  0  0  0
  3  4  1  0  0  0
  3 87  1  0  0  0
  3 88  1  0  0  0
  4  5  1  0  0  0
  4 89  1  0  0  0
  4 90  1  0  0  0
  5  6  1  0  0  0
  5 26  1  0  0  0
  5 91  1  0  0  0
  6 25  1  0  0  0
  6 92  1  0  0  0
  6 93  1  0  0  0
  7  8  2  0  0  0
  7 26  1  0  0  0
  7 29  1  0  0  0
  8  9  1  0  0  0
  8 22  1  0  0  0
  9 10  1  0  0  0
  9 27  2  0  0  0
 10 11  2  0  0  0
 10 15  1  0  0  0
 11 12  1  0  0  0
 11 94  1  0  0  0
 12 13  2  0  0  0
 12 95  1  0  0  0
 13 14  1  0  0  0
 13 31  1  0  0  0
 14 15  2  0  0  0
 14 96  1  0  0  0
 15 97  1  0  0  0
 16 17  2  0  0  0
 16 21  1  0  0  0
 16 31  1  0  0  0
 17 18  1  0  0  0
 17 98  1  0  0  0
 18 19  2  0  0  0
 18 99  1  0  0  0
 19 20  1  0  0  0
 19 24  1  0  0  0
 20 21  2  0  0  0
 20100  1  0  0  0
 21 23  1  0  0  0
 22 28  1  0  0  0
 22 32  2  0  0  0
 26 27  1  0  0  0
 28101  1  0  0  0
 28102  1  0  0  0
 29103  1  0  0  0
 29104  1  0  0  0
 33 34  1  0  0  0
 33 66  1  0  0  0
 33 70  2  0  0  0
 34 36  1  0  0  0
 34 59  1  0  0  0
 34105  1  0  0  0
 35 44  2  0  0  0
 35 45  1  0  0  0
 35 68  1  0  0  0
 36 56  1  0  0  0
 36106  1  0  0  0
 37 39  1  0  0  0
 37 47  1  0  0  0
 37 66  1  0  0  0
 37107  1  0  0  0
 38 43  2  0  0  0
 38 46  1  0  0  0
 38 47  1  0  0  0
 39 64  1  0  0  0
 39 67  2  0  0  0
 40 52  1  0  0  0
 40 53  2  0  0  0
 40 58  1  0  0  0
 41108  1  0  0  0
 41109  1  0  0  0
 41110  1  0  0  0
 41 48  1  0  0  0
 42 43  1  0  0  0
 42 66  1  0  0  0
 42111  1  0  0  0
 42112  1  0  0  0
 43 44  1  0  0  0
 44113  1  0  0  0
 45 46  2  0  0  0
 45114  1  0  0  0
 46115  1  0  0  0
 47116  1  0  0  0
 47117  1  0  0  0
 48 56  1  0  0  0
 48 65  1  0  0  0
 48118  1  0  0  0
 49 50  1  0  0  0
 49 53  1  0  0  0
 49 64  1  0  0  0
 49119  1  0  0  0
 50 51  1  0  0  0
 50120  1  0  0  0
 50121  1  0  0  0
 51 52  1  0  0  0
 51122  1  0  0  0
 51123  1  0  0  0
 52124  1  0  0  0
 52125  1  0  0  0
 53 54  1  0  0  0
 54 55  2  0  0  0
 54126  1  0  0  0
 55 57  1  0  0  0
 55127  1  0  0  0
 56 69  2  0  0  0
 57 58  2  0  0  0
 57128  1  0  0  0
 58129  1  0  0  0
 59 60  1  0  0  0
 59 61  1  0  0  0
 59 62  1  0  0  0
 60130  1  0  0  0
 60131  1  0  0  0
 60132  1  0  0  0
 61133  1  0  0  0
 61134  1  0  0  0
 61135  1  0  0  0
 62136  1  0  0  0
 62137  1  0  0  0
 62138  1  0  0  0
 63 65  1  0  0  0
 63139  1  0  0  0
 63140  1  0  0  0
 63141  1  0  0  0
 64142  1  0  0  0
 65143  1  0  0  0
 68 81  1  0  0  0
 71 72  2  0  0  0
 71 75  1  0  0  0
 71144  1  0  0  0
 72 73  1  0  0  0
 72 82  1  0  0  0
 73 74  2  0  0  0
 73 76  1  0  0  0
 74 77  1  0  0  0
 74 83  1  0  0  0
 75 83  2  0  0  0
 75 84  1  0  0  0
 76145  1  0  0  0
 76146  1  0  0  0
 76147  1  0  0  0
 77148  1  0  0  0
 77149  1  0  0  0
 77150  1  0  0  0
 78 79  1  0  0  0
 78151  1  0  0  0
 78152  1  0  0  0
 78153  1  0  0  0
 79154  1  0  0  0
 79155  1  0  0  0
 79 82  1  0  0  0
 80 81  1  0  0  0
 80 82  1  0  0  0
 80156  1  0  0  0
 80157  1  0  0  0
 81158  1  0  0  0
 81159  1  0  0  0
 82160  1  0  0  0
 84161  1  0  0  0
M  ISO  4   1 100  68 101  81 101  84 100
M  END
> <chiral flag>
0

> <version>
0

> <s_m_source_file>
/data/baiqing/PycharmProjects/Reinvent-master-3.2/result/LINK_invent/BTK/process_docking_weight1_custom_sum_contain_oxygen_bond_distance_aromatic_linkinvent_7_9_3/rearranged_h_0102.sdf

> <i_m_source_file_index>
53

> <r_mmod_Potential_Energy-OPLS-2005>
391.292205810547

> <r_mmod_Stretch_Energy-OPLS-2005>
294.183258056641

> <r_mmod_Bend_Energy-OPLS-2005>
269.796478271484

> <r_mmod_Torsional_Energy-OPLS-2005>
219.800430297852

> <r_mmod_Improper_Torsional_Energy-OPLS-2005>
5.18542718887329

> <r_mmod_Van_der_Waal_Energy-OPLS-2005>
148.236877441406

> <r_mmod_Electrostatic_Energy-OPLS-2005>
-510.851135253906

> <r_mmod_Solvation_Energy-OPLS-2005>
-235.009185791016

> <b_mmod_Minimization_Converged-OPLS-2005>
0

> <r_mmod_RMS_Derivative-OPLS-2005>
2.11616587638855

$$$$
54
                    3D
 Structure written by MMmdl.
161169  0  0  1  0            999 V2000
  -30.4004  -15.3388   20.3623 C   0  0  0  0  0  0
  -30.4347  -12.8514   19.5622 C   0  0  0  0  0  0
  -29.5505  -12.6092   18.3099 C   0  0  0  0  0  0
  -28.0979  -12.3159   18.7220 C   0  0  0  0  0  0
  -27.6104  -13.2861   19.8274 C   0  0  2  0  0  0
  -28.6319  -13.4771   20.9721 C   0  0  0  0  0  0
  -25.2366  -13.8255   20.5741 C   0  0  0  0  0  0
  -24.1731  -13.0428   20.9241 C   0  0  0  0  0  0
  -24.6390  -11.6927   20.8716 C   0  0  0  0  0  0
  -23.9085  -10.4286   21.0379 C   0  0  0  0  0  0
  -24.3626   -9.4207   21.9166 C   0  0  0  0  0  0
  -23.6292   -8.2250   22.0753 C   0  0  0  0  0  0
  -22.4272   -8.0285   21.3551 C   0  0  0  0  0  0
  -21.9914   -9.0252   20.4650 C   0  0  0  0  0  0
  -22.7248  -10.2123   20.3043 C   0  0  0  0  0  0
  -21.6857   -6.0725   22.5272 C   0  0  0  0  0  0
  -21.4021   -6.5628   23.8206 C   0  0  0  0  0  0
  -21.3667   -5.6777   24.9169 C   0  0  0  0  0  0
  -21.6047   -4.3041   24.7221 C   0  0  0  0  0  0
  -21.8814   -3.8134   23.4337 C   0  0  0  0  0  0
  -21.9193   -4.6956   22.3398 C   0  0  0  0  0  0
  -22.7746  -13.5179   21.1884 C   0  0  0  0  0  0
  -22.1657   -4.2135   21.0974 F   0  0  0  0  0  0
  -21.5634   -3.4532   25.7739 F   0  0  0  0  0  0
  -29.8661  -14.0065   20.3657 N   0  0  0  0  0  0
  -26.2797  -12.9548   20.3191 N   0  0  0  0  0  0
  -25.9331  -11.6638   20.5656 N   0  0  0  0  0  0
  -22.0395  -12.8175   22.0436 N   0  0  0  0  0  0
  -25.3970  -15.1990   20.4184 N   0  0  0  0  0  0
  -31.6026  -15.3373   20.0534 O   0  0  0  0  0  0
  -21.6642   -6.8878   21.4241 O   0  0  0  0  0  0
  -22.3430  -14.5481   20.6726 O   0  0  0  0  0  0
  -24.6669  -31.8211   23.1699 C   0  0  0  0  0  0
  -25.9338  -32.4572   23.8168 C   0  0  1  0  0  0
  -27.2114  -26.8758   20.2043 C   0  0  0  0  0  0
  -25.5997  -33.8389   24.2072 N   0  0  0  0  0  0
  -23.4818  -30.4336   21.5170 C   0  0  2  0  0  0
  -24.9381  -28.8101   20.1144 C   0  0  0  0  0  0
  -22.7679  -29.4429   22.4742 C   0  0  0  0  0  0
  -18.0326  -28.1419   22.8468 C   0  0  0  0  0  0
  -24.1488  -36.7196   23.2645 C   0  0  0  0  0  0
  -26.0543  -30.6056   21.4145 C   0  0  0  0  0  0
  -26.1181  -29.1884   20.7676 C   0  0  0  0  0  0
  -27.2446  -28.2404   20.7958 C   0  0  0  0  0  0
  -26.0194  -26.6844   19.4660 C   0  0  0  0  0  0
  -24.9167  -27.5778   19.4436 C   0  0  0  0  0  0
  -23.7280  -29.7482   20.1437 C   0  0  0  0  0  0
  -25.4126  -36.2960   24.0303 C   0  0  1  0  0  0
  -20.5954  -28.3773   23.1167 C   0  0  2  0  0  0
  -20.6809  -26.9453   22.5395 C   0  0  0  0  0  0
  -19.5783  -26.6389   21.5208 C   0  0  0  0  0  0
  -18.1966  -26.7958   22.1613 C   0  0  0  0  0  0
  -19.1590  -28.8918   23.2804 C   0  0  0  0  0  0
  -18.9491  -30.1504   23.8848 C   0  0  0  0  0  0
  -17.6489  -30.6607   24.0564 C   0  0  0  0  0  0
  -25.9100  -34.9346   23.5006 C   0  0  0  0  0  0
  -16.5379  -29.9100   23.6352 C   0  0  0  0  0  0
  -16.7310  -28.6520   23.0368 C   0  0  0  0  0  0
  -26.4568  -31.6532   25.0714 C   0  0  0  0  0  0
  -25.3684  -31.3798   26.1362 C   0  0  0  0  0  0
  -27.0462  -30.2890   24.6498 C   0  0  0  0  0  0
  -27.6051  -32.4357   25.7510 C   0  0  0  0  0  0
  -27.5569  -37.1756   24.8467 C   0  0  0  0  0  0
  -21.4347  -29.3047   22.3489 N   0  0  0  0  0  0
  -26.4271  -37.3705   23.9416 N   0  0  0  0  0  0
  -24.7550  -30.9836   22.0861 N   0  0  0  0  0  0
  -23.4217  -28.7986   23.2985 O   0  0  0  0  0  0
  -28.1994  -25.7355   20.2510 O   0  0  0  0  0  0
  -26.5699  -34.8893   22.4598 O   0  0  0  0  0  0
  -23.5729  -32.1198   23.6779 O   0  0  0  0  0  0
  -28.8743  -22.9159   20.3270 C   0  0  0  0  0  0
  -26.6797  -23.7545   20.6856 C   0  0  0  0  0  0
  -28.4996  -21.4125   20.5312 C   0  0  0  0  0  0
  -27.9823  -24.1976   20.3815 C   0  0  0  0  0  0
  -27.1121  -21.3862   20.8494 C   0  0  0  0  0  0
  -26.3282  -20.0990   22.8724 C   0  0  0  0  0  0
  -30.8303  -18.3932   19.1294 C   0  0  0  0  0  0
  -28.3875  -18.1669   18.9367 C   0  0  0  0  0  0
  -29.4003  -19.8827   20.7530 C   0  0  0  0  0  0
  -26.4044  -20.1213   21.3345 C   0  0  1  0  0  0
  -29.5415  -18.2277   19.9563 C   0  0  0  0  0  0
  -26.2834  -22.4702   20.8857 N   0  0  0  0  0  0
  -29.6299  -16.6214   20.5289 N   0  0  0  0  0  0
  -25.0645  -20.0780   20.7371 N   0  3  0  0  0  0
  -31.4607  -13.0453   19.2473 H   0  0  0  0  0  0
  -30.4922  -11.9446   20.1681 H   0  0  0  0  0  0
  -29.9496  -11.7878   17.7130 H   0  0  0  0  0  0
  -29.5785  -13.4935   17.6707 H   0  0  0  0  0  0
  -28.0584  -11.2908   19.0933 H   0  0  0  0  0  0
  -27.4391  -12.3553   17.8527 H   0  0  0  0  0  0
  -27.5215  -14.2515   19.3275 H   0  0  0  0  0  0
  -28.8048  -12.5439   21.5113 H   0  0  0  0  0  0
  -28.2503  -14.1899   21.7048 H   0  0  0  0  0  0
  -25.2774   -9.5677   22.4733 H   0  0  0  0  0  0
  -24.0000   -7.4640   22.7471 H   0  0  0  0  0  0
  -21.0851   -8.8763   19.8946 H   0  0  0  0  0  0
  -22.3709  -10.9652   19.6143 H   0  0  0  0  0  0
  -21.2015   -7.6135   23.9700 H   0  0  0  0  0  0
  -21.1499   -6.0514   25.9070 H   0  0  0  0  0  0
  -22.0589   -2.7599   23.2838 H   0  0  0  0  0  0
  -22.4032  -11.9873   22.4875 H   0  0  0  0  0  0
  -21.0996  -13.1179   22.2602 H   0  0  0  0  0  0
  -24.6084  -15.8305   20.5007 H   0  0  0  0  0  0
  -26.2220  -15.6326   20.0268 H   0  0  0  0  0  0
  -26.7412  -32.5110   23.0878 H   0  0  0  0  0  0
  -25.0106  -33.9438   25.0200 H   0  0  0  0  0  0
  -22.7960  -31.2654   21.3429 H   0  0  0  0  0  0
  -23.3770  -35.9507   23.3277 H   0  0  0  0  0  0
  -24.3564  -36.8876   22.2067 H   0  0  0  0  0  0
  -23.7229  -37.6370   23.6717 H   0  0  0  0  0  0
  -26.2439  -31.3358   20.6274 H   0  0  0  0  0  0
  -26.9122  -30.6683   22.0718 H   0  0  0  0  0  0
  -28.1332  -28.5236   21.3420 H   0  0  0  0  0  0
  -25.9056  -25.7599   18.9202 H   0  0  0  0  0  0
  -24.0312  -27.2899   18.8940 H   0  0  0  0  0  0
  -23.8874  -30.5140   19.3833 H   0  0  0  0  0  0
  -22.8373  -29.2059   19.8245 H   0  0  0  0  0  0
  -25.1329  -36.1750   25.0798 H   0  0  0  0  0  0
  -21.0051  -28.3405   24.1286 H   0  0  0  0  0  0
  -20.5675  -26.2402   23.3639 H   0  0  0  0  0  0
  -21.6675  -26.7411   22.1213 H   0  0  0  0  0  0
  -19.6928  -25.6282   21.1288 H   0  0  0  0  0  0
  -19.6734  -27.3146   20.6703 H   0  0  0  0  0  0
  -17.4238  -26.6695   21.4022 H   0  0  0  0  0  0
  -18.0357  -26.0099   22.9009 H   0  0  0  0  0  0
  -19.7955  -30.7339   24.2203 H   0  0  0  0  0  0
  -17.5035  -31.6284   24.5169 H   0  0  0  0  0  0
  -15.5381  -30.2998   23.7704 H   0  0  0  0  0  0
  -15.8694  -28.0832   22.7122 H   0  0  0  0  0  0
  -24.5894  -30.7105   25.7686 H   0  0  0  0  0  0
  -24.8823  -32.2992   26.4644 H   0  0  0  0  0  0
  -25.7914  -30.9078   27.0240 H   0  0  0  0  0  0
  -26.3129  -29.6553   24.1494 H   0  0  0  0  0  0
  -27.3938  -29.7288   25.5186 H   0  0  0  0  0  0
  -27.9116  -30.4042   23.9965 H   0  0  0  0  0  0
  -27.2616  -33.3717   26.1933 H   0  0  0  0  0  0
  -28.3938  -32.6830   25.0388 H   0  0  0  0  0  0
  -28.0635  -31.8589   26.5553 H   0  0  0  0  0  0
  -28.2572  -38.0064   24.7527 H   0  0  0  0  0  0
  -28.1082  -36.2602   24.6283 H   0  0  0  0  0  0
  -27.2294  -37.1395   25.8870 H   0  0  0  0  0  0
  -20.9603  -29.8733   21.6611 H   0  0  0  0  0  0
  -26.0121  -38.2771   24.1417 H   0  0  0  0  0  0
  -29.9242  -23.1089   20.1648 H   0  0  0  0  0  0
  -25.8841  -24.4699   20.8184 H   0  0  0  0  0  0
  -25.7473  -20.9383   23.2564 H   0  0  0  0  0  0
  -27.3232  -20.1637   23.3129 H   0  0  0  0  0  0
  -25.8715  -19.1791   23.2351 H   0  0  0  0  0  0
  -30.8432  -19.3488   18.6022 H   0  0  0  0  0  0
  -30.9429  -17.6144   18.3735 H   0  0  0  0  0  0
  -31.7123  -18.3613   19.7691 H   0  0  0  0  0  0
  -28.2535  -19.1176   18.4187 H   0  0  0  0  0  0
  -27.4409  -17.8990   19.4032 H   0  0  0  0  0  0
  -28.5700  -17.4102   18.1720 H   0  0  0  0  0  0
  -29.1862  -19.6340   21.7919 H   0  0  0  0  0  0
  -30.4279  -20.2397   20.8353 H   0  0  0  0  0  0
  -26.9324  -19.2315   21.0121 H   0  0  0  0  0  0
  -28.7507  -16.3835   20.9660 H   0  0  0  0  0  0
  -24.6613  -20.9824   20.9166 H   0  0  0  0  0  0
  -24.4981  -19.3464   21.1204 H   0  0  0  0  0  0
  -25.1434  -19.9730   19.7427 H   0  0  0  0  0  0
  1 25  1  0  0  0
  1 30  2  0  0  0
  1 83  1  0  0  0
  2  3  1  0  0  0
  2 25  1  0  0  0
  2 85  1  0  0  0
  2 86  1  0  0  0
  3  4  1  0  0  0
  3 87  1  0  0  0
  3 88  1  0  0  0
  4  5  1  0  0  0
  4 89  1  0  0  0
  4 90  1  0  0  0
  5  6  1  0  0  0
  5 26  1  0  0  0
  5 91  1  0  0  0
  6 25  1  0  0  0
  6 92  1  0  0  0
  6 93  1  0  0  0
  7  8  2  0  0  0
  7 26  1  0  0  0
  7 29  1  0  0  0
  8  9  1  0  0  0
  8 22  1  0  0  0
  9 10  1  0  0  0
  9 27  2  0  0  0
 10 11  2  0  0  0
 10 15  1  0  0  0
 11 12  1  0  0  0
 11 94  1  0  0  0
 12 13  2  0  0  0
 12 95  1  0  0  0
 13 14  1  0  0  0
 13 31  1  0  0  0
 14 15  2  0  0  0
 14 96  1  0  0  0
 15 97  1  0  0  0
 16 17  2  0  0  0
 16 21  1  0  0  0
 16 31  1  0  0  0
 17 18  1  0  0  0
 17 98  1  0  0  0
 18 19  2  0  0  0
 18 99  1  0  0  0
 19 20  1  0  0  0
 19 24  1  0  0  0
 20 21  2  0  0  0
 20100  1  0  0  0
 21 23  1  0  0  0
 22 28  1  0  0  0
 22 32  2  0  0  0
 26 27  1  0  0  0
 28101  1  0  0  0
 28102  1  0  0  0
 29103  1  0  0  0
 29104  1  0  0  0
 33 34  1  0  0  0
 33 66  1  0  0  0
 33 70  2  0  0  0
 34 36  1  0  0  0
 34 59  1  0  0  0
 34105  1  0  0  0
 35 44  2  0  0  0
 35 45  1  0  0  0
 35 68  1  0  0  0
 36 56  1  0  0  0
 36106  1  0  0  0
 37 39  1  0  0  0
 37 47  1  0  0  0
 37 66  1  0  0  0
 37107  1  0  0  0
 38 43  2  0  0  0
 38 46  1  0  0  0
 38 47  1  0  0  0
 39 64  1  0  0  0
 39 67  2  0  0  0
 40 52  1  0  0  0
 40 53  2  0  0  0
 40 58  1  0  0  0
 41108  1  0  0  0
 41109  1  0  0  0
 41110  1  0  0  0
 41 48  1  0  0  0
 42 43  1  0  0  0
 42 66  1  0  0  0
 42111  1  0  0  0
 42112  1  0  0  0
 43 44  1  0  0  0
 44113  1  0  0  0
 45 46  2  0  0  0
 45114  1  0  0  0
 46115  1  0  0  0
 47116  1  0  0  0
 47117  1  0  0  0
 48 56  1  0  0  0
 48 65  1  0  0  0
 48118  1  0  0  0
 49 50  1  0  0  0
 49 53  1  0  0  0
 49 64  1  0  0  0
 49119  1  0  0  0
 50 51  1  0  0  0
 50120  1  0  0  0
 50121  1  0  0  0
 51 52  1  0  0  0
 51122  1  0  0  0
 51123  1  0  0  0
 52124  1  0  0  0
 52125  1  0  0  0
 53 54  1  0  0  0
 54 55  2  0  0  0
 54126  1  0  0  0
 55 57  1  0  0  0
 55127  1  0  0  0
 56 69  2  0  0  0
 57 58  2  0  0  0
 57128  1  0  0  0
 58129  1  0  0  0
 59 60  1  0  0  0
 59 61  1  0  0  0
 59 62  1  0  0  0
 60130  1  0  0  0
 60131  1  0  0  0
 60132  1  0  0  0
 61133  1  0  0  0
 61134  1  0  0  0
 61135  1  0  0  0
 62136  1  0  0  0
 62137  1  0  0  0
 62138  1  0  0  0
 63 65  1  0  0  0
 63139  1  0  0  0
 63140  1  0  0  0
 63141  1  0  0  0
 64142  1  0  0  0
 65143  1  0  0  0
 68 74  1  0  0  0
 71 73  2  0  0  0
 71 74  1  0  0  0
 71144  1  0  0  0
 72 74  2  0  0  0
 72 82  1  0  0  0
 72145  1  0  0  0
 73 75  1  0  0  0
 73 79  1  0  0  0
 75 80  1  0  0  0
 75 82  2  0  0  0
 76146  1  0  0  0
 76147  1  0  0  0
 76148  1  0  0  0
 76 80  1  0  0  0
 77149  1  0  0  0
 77150  1  0  0  0
 77151  1  0  0  0
 77 81  1  0  0  0
 78 81  1  0  0  0
 78152  1  0  0  0
 78153  1  0  0  0
 78154  1  0  0  0
 79 81  1  0  0  0
 79155  1  0  0  0
 79156  1  0  0  0
 80 84  1  0  0  0
 80157  1  0  0  0
 81 83  1  0  0  0
 83158  1  0  0  0
 84159  1  0  0  0
 84160  1  0  0  0
 84161  1  0  0  0
M  CHG  1  84   1
M  ISO  4   1 100  68 101  74 101  83 100
M  END
> <chiral flag>
0

> <version>
0

> <s_m_source_file>
/data/baiqing/PycharmProjects/Reinvent-master-3.2/result/LINK_invent/BTK/process_docking_weight1_custom_sum_contain_oxygen_bond_distance_aromatic_linkinvent_7_9_3/rearranged_h_0102.sdf

> <i_m_source_file_index>
54

> <r_mmod_Potential_Energy-OPLS-2005>
957.760192871094

> <r_mmod_Stretch_Energy-OPLS-2005>
677.407531738281

> <r_mmod_Bend_Energy-OPLS-2005>
483.697509765625

> <r_mmod_Torsional_Energy-OPLS-2005>
211.916076660156

> <r_mmod_Improper_Torsional_Energy-OPLS-2005>
7.09294700622559

> <r_mmod_Van_der_Waal_Energy-OPLS-2005>
133.711013793945

> <r_mmod_Electrostatic_Energy-OPLS-2005>
-585.102844238281

> <r_mmod_Solvation_Energy-OPLS-2005>
-507.931457519531

> <b_mmod_Minimization_Converged-OPLS-2005>
0

> <r_mmod_RMS_Derivative-OPLS-2005>
2.25721621513367

$$$$
55
                    3D
 Structure written by MMmdl.
166174  0  0  1  0            999 V2000
  -30.6025  -14.7355   20.4592 C   0  0  0  0  0  0
  -30.4413  -12.4530   19.4622 C   0  0  0  0  0  0
  -29.5206  -12.5046   18.2245 C   0  0  0  0  0  0
  -28.0427  -12.3367   18.6342 C   0  0  0  0  0  0
  -27.6470  -13.2277   19.8449 C   0  0  2  0  0  0
  -28.6924  -13.1664   20.9821 C   0  0  0  0  0  0
  -25.2561  -13.8180   20.5689 C   0  0  0  0  0  0
  -24.1847  -13.0426   20.9191 C   0  0  0  0  0  0
  -24.6425  -11.6908   20.8721 C   0  0  0  0  0  0
  -23.9063  -10.4299   21.0368 C   0  0  0  0  0  0
  -24.3606   -9.4224   21.9157 C   0  0  0  0  0  0
  -23.6288   -8.2254   22.0741 C   0  0  0  0  0  0
  -22.4272   -8.0275   21.3521 C   0  0  0  0  0  0
  -21.9888   -9.0249   20.4636 C   0  0  0  0  0  0
  -22.7210  -10.2130   20.3031 C   0  0  0  0  0  0
  -21.6874   -6.0706   22.5264 C   0  0  0  0  0  0
  -21.4027   -6.5622   23.8186 C   0  0  0  0  0  0
  -21.3658   -5.6779   24.9168 C   0  0  0  0  0  0
  -21.6031   -4.3034   24.7224 C   0  0  0  0  0  0
  -21.8833   -3.8118   23.4356 C   0  0  0  0  0  0
  -21.9211   -4.6936   22.3401 C   0  0  0  0  0  0
  -22.7878  -13.5223   21.1862 C   0  0  0  0  0  0
  -22.1682   -4.2116   21.0984 F   0  0  0  0  0  0
  -21.5627   -3.4525   25.7746 F   0  0  0  0  0  0
  -29.9898  -13.5099   20.3935 N   0  0  0  0  0  0
  -26.2984  -12.9380   20.3243 N   0  0  0  0  0  0
  -25.9347  -11.6516   20.5682 N   0  0  0  0  0  0
  -22.0531  -12.8214   22.0418 N   0  0  0  0  0  0
  -25.4212  -15.1906   20.4082 N   0  0  0  0  0  0
  -31.7972  -14.8473   20.1650 O   0  0  0  0  0  0
  -21.6656   -6.8847   21.4216 O   0  0  0  0  0  0
  -22.3565  -14.5534   20.6713 O   0  0  0  0  0  0
  -24.6246  -31.8579   23.1956 C   0  0  0  0  0  0
  -25.9100  -32.4744   23.8309 C   0  0  1  0  0  0
  -27.2131  -27.2922   20.1088 C   0  0  0  0  0  0
  -25.5939  -33.8555   24.2266 N   0  0  0  0  0  0
  -23.4162  -30.4838   21.5396 C   0  0  2  0  0  0
  -24.8576  -28.9311   20.1045 C   0  0  0  0  0  0
  -22.7453  -29.4630   22.4887 C   0  0  0  0  0  0
  -18.0291  -28.1372   22.8474 C   0  0  0  0  0  0
  -24.1512  -36.7268   23.2641 C   0  0  0  0  0  0
  -25.9593  -30.7777   21.3696 C   0  0  0  0  0  0
  -26.0285  -29.4055   20.7084 C   0  0  0  0  0  0
  -27.2050  -28.5982   20.6966 C   0  0  0  0  0  0
  -26.0133  -26.8718   19.4909 C   0  0  0  0  0  0
  -24.8546  -27.6713   19.4872 C   0  0  0  0  0  0
  -23.6270  -29.8156   20.1553 C   0  0  0  0  0  0
  -25.4135  -36.3065   24.0343 C   0  0  1  0  0  0
  -20.5897  -28.3701   23.1245 C   0  0  2  0  0  0
  -20.6780  -26.9413   22.5405 C   0  0  0  0  0  0
  -19.5752  -26.6379   21.5195 C   0  0  0  0  0  0
  -18.1933  -26.7907   22.1604 C   0  0  0  0  0  0
  -19.1549  -28.8837   23.2865 C   0  0  0  0  0  0
  -18.9481  -30.1439   23.8884 C   0  0  0  0  0  0
  -17.6492  -30.6569   24.0543 C   0  0  0  0  0  0
  -25.9068  -34.9439   23.5094 C   0  0  0  0  0  0
  -16.5372  -29.9081   23.6314 C   0  0  0  0  0  0
  -16.7288  -28.6494   23.0328 C   0  0  0  0  0  0
  -26.4500  -31.6538   25.0682 C   0  0  0  0  0  0
  -25.3758  -31.3664   26.1418 C   0  0  0  0  0  0
  -27.0372  -30.2967   24.6164 C   0  0  0  0  0  0
  -27.6059  -32.4271   25.7442 C   0  0  0  0  0  0
  -27.5588  -37.1797   24.8469 C   0  0  0  0  0  0
  -21.4171  -29.3047   22.3618 N   0  0  0  0  0  0
  -26.4302  -37.3766   23.9403 N   0  0  0  0  0  0
  -24.6848  -31.0617   22.0888 N   0  0  0  0  0  0
  -23.4174  -28.8156   23.2943 O   0  0  0  0  0  0
  -28.3452  -26.4598   20.1806 O   0  0  0  0  0  0
  -26.5639  -34.8918   22.4671 O   0  0  0  0  0  0
  -23.5414  -32.1367   23.7306 O   0  0  0  0  0  0
  -28.5242  -21.0815   20.6074 C   0  0  0  0  0  0
  -29.0389  -22.3308   20.2518 C   0  0  0  0  0  0
  -30.2553  -21.9715   19.5570 C   0  0  0  0  0  0
  -30.4549  -20.5982   19.6369 C   0  0  0  0  0  0
  -31.6239  -19.7848   19.1547 C   0  0  0  0  0  0
  -27.1023  -23.6760   21.3343 C   0  0  0  0  0  0
  -31.7743  -24.0188   19.7838 C   0  0  0  0  0  0
  -30.6172  -23.3999   17.5037 C   0  0  0  0  0  0
  -29.0506  -18.4970   20.4825 C   0  0  0  0  0  0
  -30.1808  -17.3286   20.4613 C   0  0  0  0  0  0
  -28.4174  -25.0671   19.6390 C   0  0  0  0  0  0
  -28.4684  -23.7933   20.6449 C   0  0  1  0  0  0
  -31.2019  -22.9321   18.8514 C   0  0  0  0  0  0
  -29.3625  -19.9913   20.2614 N   0  0  0  0  0  0
  -29.8061  -15.8553   20.6277 N   0  0  0  0  0  0
  -31.4827  -12.5809   19.1607 H   0  0  0  0  0  0
  -30.3866  -11.4767   19.9426 H   0  0  0  0  0  0
  -29.8032  -11.7248   17.5138 H   0  0  0  0  0  0
  -29.6529  -13.4539   17.7016 H   0  0  0  0  0  0
  -27.8842  -11.2849   18.8752 H   0  0  0  0  0  0
  -27.3926  -12.5515   17.7842 H   0  0  0  0  0  0
  -27.6360  -14.2487   19.4593 H   0  0  0  0  0  0
  -28.7375  -12.1783   21.4430 H   0  0  0  0  0  0
  -28.4323  -13.8676   21.7783 H   0  0  0  0  0  0
  -25.2751   -9.5732   22.4732 H   0  0  0  0  0  0
  -24.0010   -7.4656   22.7464 H   0  0  0  0  0  0
  -21.0805   -8.8719   19.8965 H   0  0  0  0  0  0
  -22.3610  -10.9648   19.6139 H   0  0  0  0  0  0
  -21.2012   -7.6130   23.9681 H   0  0  0  0  0  0
  -21.1473   -6.0519   25.9064 H   0  0  0  0  0  0
  -22.0617   -2.7581   23.2868 H   0  0  0  0  0  0
  -22.4141  -11.9861   22.4788 H   0  0  0  0  0  0
  -21.1145  -13.1194   22.2617 H   0  0  0  0  0  0
  -24.6344  -15.8249   20.4994 H   0  0  0  0  0  0
  -26.2420  -15.6345   20.0180 H   0  0  0  0  0  0
  -26.7149  -32.5407   23.1023 H   0  0  0  0  0  0
  -25.0124  -33.9715   25.0432 H   0  0  0  0  0  0
  -22.7106  -31.3061   21.3982 H   0  0  0  0  0  0
  -23.3777  -35.9595   23.3286 H   0  0  0  0  0  0
  -24.3566  -36.8892   22.2046 H   0  0  0  0  0  0
  -23.7276  -37.6477   23.6662 H   0  0  0  0  0  0
  -26.1189  -31.5393   20.6045 H   0  0  0  0  0  0
  -26.8254  -30.8092   22.0183 H   0  0  0  0  0  0
  -28.1054  -28.9619   21.1717 H   0  0  0  0  0  0
  -25.9254  -25.9060   19.0257 H   0  0  0  0  0  0
  -23.9550  -27.2963   19.0199 H   0  0  0  0  0  0
  -23.7479  -30.5880   19.3957 H   0  0  0  0  0  0
  -22.7415  -29.2552   19.8493 H   0  0  0  0  0  0
  -25.1316  -36.1897   25.0842 H   0  0  0  0  0  0
  -21.0038  -28.3309   24.1343 H   0  0  0  0  0  0
  -20.5650  -26.2326   23.3632 H   0  0  0  0  0  0
  -21.6658  -26.7424   22.1211 H   0  0  0  0  0  0
  -19.6918  -25.6295   21.1202 H   0  0  0  0  0  0
  -19.6656  -27.3204   20.6731 H   0  0  0  0  0  0
  -17.4213  -26.6650   21.3998 H   0  0  0  0  0  0
  -18.0334  -26.0051   22.9008 H   0  0  0  0  0  0
  -19.7976  -30.7245   24.2236 H   0  0  0  0  0  0
  -17.5059  -31.6245   24.5168 H   0  0  0  0  0  0
  -15.5372  -30.2972   23.7666 H   0  0  0  0  0  0
  -15.8682  -28.0816   22.7030 H   0  0  0  0  0  0
  -24.5970  -30.6958   25.7745 H   0  0  0  0  0  0
  -24.8923  -32.2834   26.4805 H   0  0  0  0  0  0
  -25.8121  -30.8882   27.0202 H   0  0  0  0  0  0
  -26.2969  -29.6647   24.1251 H   0  0  0  0  0  0
  -27.4125  -29.7265   25.4663 H   0  0  0  0  0  0
  -27.8797  -30.4195   23.9359 H   0  0  0  0  0  0
  -27.2675  -33.3583   26.1979 H   0  0  0  0  0  0
  -28.3890  -32.6785   25.0282 H   0  0  0  0  0  0
  -28.0702  -31.8428   26.5388 H   0  0  0  0  0  0
  -28.2620  -38.0084   24.7521 H   0  0  0  0  0  0
  -28.1095  -36.2623   24.6307 H   0  0  0  0  0  0
  -27.2309  -37.1445   25.8878 H   0  0  0  0  0  0
  -20.9334  -29.8773   21.6841 H   0  0  0  0  0  0
  -26.0178  -38.2851   24.1369 H   0  0  0  0  0  0
  -27.5996  -20.8657   21.1288 H   0  0  0  0  0  0
  -31.3662  -19.1991   18.2739 H   0  0  0  0  0  0
  -31.9916  -19.1125   19.9271 H   0  0  0  0  0  0
  -32.4884  -20.3928   18.9036 H   0  0  0  0  0  0
  -26.3614  -23.2205   20.6765 H   0  0  0  0  0  0
  -26.7297  -24.6606   21.6229 H   0  0  0  0  0  0
  -27.1735  -23.0768   22.2441 H   0  0  0  0  0  0
  -32.4222  -23.5585   20.5303 H   0  0  0  0  0  0
  -31.0281  -24.5764   20.3386 H   0  0  0  0  0  0
  -32.3765  -24.7490   19.2419 H   0  0  0  0  0  0
  -30.6123  -22.5666   16.7962 H   0  0  0  0  0  0
  -31.2050  -24.2029   17.0602 H   0  0  0  0  0  0
  -29.5837  -23.7351   17.5583 H   0  0  0  0  0  0
  -28.5187  -18.4367   21.4346 H   0  0  0  0  0  0
  -28.3061  -18.2305   19.7337 H   0  0  0  0  0  0
  -30.6790  -17.3733   19.4957 H   0  0  0  0  0  0
  -30.9362  -17.5577   21.2148 H   0  0  0  0  0  0
  -27.7130  -24.8957   18.8262 H   0  0  0  0  0  0
  -29.3645  -25.1295   19.1178 H   0  0  0  0  0  0
  -29.1463  -24.0982   21.4424 H   0  0  0  0  0  0
  -32.0916  -22.3819   18.5602 H   0  0  0  0  0  0
  -28.8269  -15.6582   20.7753 H   0  0  0  0  0  0
  1 25  1  0  0  0
  1 30  2  0  0  0
  1 85  1  0  0  0
  2  3  1  0  0  0
  2 25  1  0  0  0
  2 86  1  0  0  0
  2 87  1  0  0  0
  3  4  1  0  0  0
  3 88  1  0  0  0
  3 89  1  0  0  0
  4  5  1  0  0  0
  4 90  1  0  0  0
  4 91  1  0  0  0
  5  6  1  0  0  0
  5 26  1  0  0  0
  5 92  1  0  0  0
  6 25  1  0  0  0
  6 93  1  0  0  0
  6 94  1  0  0  0
  7  8  2  0  0  0
  7 26  1  0  0  0
  7 29  1  0  0  0
  8  9  1  0  0  0
  8 22  1  0  0  0
  9 10  1  0  0  0
  9 27  2  0  0  0
 10 11  2  0  0  0
 10 15  1  0  0  0
 11 12  1  0  0  0
 11 95  1  0  0  0
 12 13  2  0  0  0
 12 96  1  0  0  0
 13 14  1  0  0  0
 13 31  1  0  0  0
 14 15  2  0  0  0
 14 97  1  0  0  0
 15 98  1  0  0  0
 16 17  2  0  0  0
 16 21  1  0  0  0
 16 31  1  0  0  0
 17 18  1  0  0  0
 17 99  1  0  0  0
 18 19  2  0  0  0
 18100  1  0  0  0
 19 20  1  0  0  0
 19 24  1  0  0  0
 20 21  2  0  0  0
 20101  1  0  0  0
 21 23  1  0  0  0
 22 28  1  0  0  0
 22 32  2  0  0  0
 26 27  1  0  0  0
 28102  1  0  0  0
 28103  1  0  0  0
 29104  1  0  0  0
 29105  1  0  0  0
 33 34  1  0  0  0
 33 66  1  0  0  0
 33 70  2  0  0  0
 34 36  1  0  0  0
 34 59  1  0  0  0
 34106  1  0  0  0
 35 44  2  0  0  0
 35 45  1  0  0  0
 35 68  1  0  0  0
 36 56  1  0  0  0
 36107  1  0  0  0
 37 39  1  0  0  0
 37 47  1  0  0  0
 37 66  1  0  0  0
 37108  1  0  0  0
 38 43  2  0  0  0
 38 46  1  0  0  0
 38 47  1  0  0  0
 39 64  1  0  0  0
 39 67  2  0  0  0
 40 52  1  0  0  0
 40 53  2  0  0  0
 40 58  1  0  0  0
 41109  1  0  0  0
 41110  1  0  0  0
 41111  1  0  0  0
 41 48  1  0  0  0
 42 43  1  0  0  0
 42 66  1  0  0  0
 42112  1  0  0  0
 42113  1  0  0  0
 43 44  1  0  0  0
 44114  1  0  0  0
 45 46  2  0  0  0
 45115  1  0  0  0
 46116  1  0  0  0
 47117  1  0  0  0
 47118  1  0  0  0
 48 56  1  0  0  0
 48 65  1  0  0  0
 48119  1  0  0  0
 49 50  1  0  0  0
 49 53  1  0  0  0
 49 64  1  0  0  0
 49120  1  0  0  0
 50 51  1  0  0  0
 50121  1  0  0  0
 50122  1  0  0  0
 51 52  1  0  0  0
 51123  1  0  0  0
 51124  1  0  0  0
 52125  1  0  0  0
 52126  1  0  0  0
 53 54  1  0  0  0
 54 55  2  0  0  0
 54127  1  0  0  0
 55 57  1  0  0  0
 55128  1  0  0  0
 56 69  2  0  0  0
 57 58  2  0  0  0
 57129  1  0  0  0
 58130  1  0  0  0
 59 60  1  0  0  0
 59 61  1  0  0  0
 59 62  1  0  0  0
 60131  1  0  0  0
 60132  1  0  0  0
 60133  1  0  0  0
 61134  1  0  0  0
 61135  1  0  0  0
 61136  1  0  0  0
 62137  1  0  0  0
 62138  1  0  0  0
 62139  1  0  0  0
 63 65  1  0  0  0
 63140  1  0  0  0
 63141  1  0  0  0
 63142  1  0  0  0
 64143  1  0  0  0
 65144  1  0  0  0
 68 81  1  0  0  0
 71 72  2  0  0  0
 71 84  1  0  0  0
 71145  1  0  0  0
 72 73  1  0  0  0
 72 82  1  0  0  0
 73 74  2  0  0  0
 73 83  1  0  0  0
 74 75  1  0  0  0
 74 84  1  0  0  0
 75146  1  0  0  0
 75147  1  0  0  0
 75148  1  0  0  0
 76149  1  0  0  0
 76150  1  0  0  0
 76151  1  0  0  0
 76 82  1  0  0  0
 77152  1  0  0  0
 77153  1  0  0  0
 77154  1  0  0  0
 77 83  1  0  0  0
 78 83  1  0  0  0
 78155  1  0  0  0
 78156  1  0  0  0
 78157  1  0  0  0
 79 80  1  0  0  0
 79 84  1  0  0  0
 79158  1  0  0  0
 79159  1  0  0  0
 80 85  1  0  0  0
 80160  1  0  0  0
 80161  1  0  0  0
 81 82  1  0  0  0
 81162  1  0  0  0
 81163  1  0  0  0
 82164  1  0  0  0
 83165  1  0  0  0
 85166  1  0  0  0
M  ISO  4   1 100  68 101  81 101  85 100
M  END
> <chiral flag>
0

> <version>
0

> <s_m_source_file>
/data/baiqing/PycharmProjects/Reinvent-master-3.2/result/LINK_invent/BTK/process_docking_weight1_custom_sum_contain_oxygen_bond_distance_aromatic_linkinvent_7_9_3/rearranged_h_0102.sdf

> <i_m_source_file_index>
55

> <r_mmod_Potential_Energy-OPLS-2005>
117.40998840332

> <r_mmod_Stretch_Energy-OPLS-2005>
121.578048706055

> <r_mmod_Bend_Energy-OPLS-2005>
200.607757568359

> <r_mmod_Torsional_Energy-OPLS-2005>
219.773559570312

> <r_mmod_Improper_Torsional_Energy-OPLS-2005>
6.09977197647095

> <r_mmod_Van_der_Waal_Energy-OPLS-2005>
127.329399108887

> <r_mmod_Electrostatic_Energy-OPLS-2005>
-420.963134765625

> <r_mmod_Solvation_Energy-OPLS-2005>
-211.753997802734

> <b_mmod_Minimization_Converged-OPLS-2005>
0

> <r_mmod_RMS_Derivative-OPLS-2005>
4.99228715896606

$$$$
56
                    3D
 Structure written by MMmdl.
175183  0  0  1  0            999 V2000
  -30.6632  -14.4789   20.5569 C   0  0  0  0  0  0
  -30.4596  -12.3007   19.4208 C   0  0  0  0  0  0
  -29.5184  -12.4950   18.2141 C   0  0  0  0  0  0
  -28.0320  -12.3749   18.6310 C   0  0  0  0  0  0
  -27.6721  -13.1952   19.9033 C   0  0  2  0  0  0
  -28.7256  -12.9387   21.0045 C   0  0  0  0  0  0
  -25.2594  -13.8057   20.5934 C   0  0  0  0  0  0
  -24.1838  -13.0279   20.9167 C   0  0  0  0  0  0
  -24.6450  -11.6774   20.8732 C   0  0  0  0  0  0
  -23.9167  -10.4131   21.0390 C   0  0  0  0  0  0
  -24.3693   -9.4034   21.9193 C   0  0  0  0  0  0
  -23.6264   -8.2125   22.0744 C   0  0  0  0  0  0
  -22.4216   -8.0215   21.3564 C   0  0  0  0  0  0
  -21.9930   -9.0225   20.4676 C   0  0  0  0  0  0
  -22.7335  -10.2048   20.3042 C   0  0  0  0  0  0
  -21.6777   -6.0705   22.5318 C   0  0  0  0  0  0
  -21.3958   -6.5589   23.8252 C   0  0  0  0  0  0
  -21.3656   -5.6747   24.9221 C   0  0  0  0  0  0
  -21.6049   -4.3015   24.7266 C   0  0  0  0  0  0
  -21.8783   -3.8131   23.4362 C   0  0  0  0  0  0
  -21.9147   -4.6938   22.3425 C   0  0  0  0  0  0
  -22.7824  -13.5023   21.1807 C   0  0  0  0  0  0
  -22.1607   -4.2150   21.0980 F   0  0  0  0  0  0
  -21.5668   -3.4498   25.7784 F   0  0  0  0  0  0
  -30.0463  -13.2732   20.4426 N   0  0  0  0  0  0
  -26.3086  -12.9262   20.3538 N   0  0  0  0  0  0
  -25.9378  -11.6417   20.5806 N   0  0  0  0  0  0
  -22.0526  -12.8068   22.0439 N   0  0  0  0  0  0
  -25.4213  -15.1853   20.4895 N   0  0  0  0  0  0
  -31.8074  -14.6997   20.1533 O   0  0  0  0  0  0
  -21.6524   -6.8853   21.4285 O   0  0  0  0  0  0
  -22.3481  -14.5286   20.6571 O   0  0  0  0  0  0
  -24.6087  -31.8698   23.2055 C   0  0  0  0  0  0
  -25.9006  -32.4820   23.8336 C   0  0  1  0  0  0
  -27.2641  -27.4773   20.0852 C   0  0  0  0  0  0
  -25.5881  -33.8619   24.2271 N   0  0  0  0  0  0
  -23.3951  -30.4858   21.5471 C   0  0  2  0  0  0
  -24.8460  -28.9435   20.1212 C   0  0  0  0  0  0
  -22.7359  -29.4684   22.5035 C   0  0  0  0  0  0
  -18.0274  -28.1403   22.8490 C   0  0  0  0  0  0
  -24.1508  -36.7300   23.2631 C   0  0  0  0  0  0
  -25.9159  -30.8423   21.3584 C   0  0  0  0  0  0
  -25.9979  -29.4775   20.7112 C   0  0  0  0  0  0
  -27.2009  -28.7486   20.6929 C   0  0  0  0  0  0
  -26.0939  -26.9367   19.5074 C   0  0  0  0  0  0
  -24.8867  -27.6693   19.5237 C   0  0  0  0  0  0
  -23.6016  -29.8010   20.1675 C   0  0  0  0  0  0
  -25.4128  -36.3104   24.0325 C   0  0  1  0  0  0
  -20.5855  -28.3684   23.1349 C   0  0  2  0  0  0
  -20.6790  -26.9435   22.5449 C   0  0  0  0  0  0
  -19.5780  -26.6414   21.5239 C   0  0  0  0  0  0
  -18.1938  -26.7964   22.1608 C   0  0  0  0  0  0
  -19.1518  -28.8856   23.2917 C   0  0  0  0  0  0
  -18.9443  -30.1470   23.8923 C   0  0  0  0  0  0
  -17.6443  -30.6608   24.0583 C   0  0  0  0  0  0
  -25.9054  -34.9485   23.5098 C   0  0  0  0  0  0
  -16.5338  -29.9107   23.6341 C   0  0  0  0  0  0
  -16.7263  -28.6531   23.0345 C   0  0  0  0  0  0
  -26.4439  -31.6604   25.0673 C   0  0  0  0  0  0
  -25.3668  -31.3754   26.1395 C   0  0  0  0  0  0
  -27.0266  -30.3030   24.6095 C   0  0  0  0  0  0
  -27.6040  -32.4318   25.7408 C   0  0  0  0  0  0
  -27.5619  -37.1779   24.8438 C   0  0  0  0  0  0
  -21.4108  -29.3025   22.3728 N   0  0  0  0  0  0
  -26.4304  -37.3797   23.9425 N   0  0  0  0  0  0
  -24.6565  -31.0812   22.0950 N   0  0  0  0  0  0
  -23.4131  -28.8286   23.3123 O   0  0  0  0  0  0
  -28.5010  -26.8748   20.0750 O   0  0  0  0  0  0
  -26.5640  -34.8933   22.4675 O   0  0  0  0  0  0
  -23.5304  -32.1461   23.7467 O   0  0  0  0  0  0
  -31.1347  -18.8482   20.0038 C   0  0  0  0  0  0
  -30.7381  -19.6223   18.8822 C   0  0  0  0  0  0
  -30.2387  -17.8194   20.1244 C   0  0  0  0  0  0
  -29.7112  -19.0038   18.2406 C   0  0  0  0  0  0
  -31.4886  -21.8489   19.4007 C   0  0  0  0  0  0
  -28.9881  -19.3705   16.9736 C   0  0  0  0  0  0
  -25.7207  -15.7644   17.1505 C   0  0  0  0  0  0
  -27.3496  -15.6729   15.2268 C   0  0  0  0  0  0
  -30.1665  -16.8579   21.2925 C   0  0  0  0  0  0
  -28.2199  -16.2810   17.5387 C   0  0  0  0  0  0
  -30.2292  -25.4002   19.4562 C   0  0  0  0  0  0
  -28.1180  -17.1602   18.8086 C   0  0  0  0  0  0
  -30.8871  -24.1366   20.0377 C   0  0  0  0  0  0
  -28.6999  -25.5326   19.6524 C   0  0  0  0  0  0
  -27.0148  -16.3508   16.5677 C   0  0  0  0  0  0
  -29.3313  -17.9322   19.0518 N   0  0  0  0  0  0
  -31.2309  -20.8905   18.5050 N   0  0  0  0  0  0
  -29.8571  -15.4554   21.0124 N   0  0  0  0  0  0
  -30.8726  -23.0013   19.1228 N   0  0  0  0  0  0
  -32.2071  -21.6944   20.3925 O   0  0  0  0  0  0
  -31.5034  -12.4341   19.1291 H   0  0  0  0  0  0
  -30.3926  -11.2843   19.8097 H   0  0  0  0  0  0
  -29.7454  -11.7630   17.4367 H   0  0  0  0  0  0
  -29.7163  -13.4731   17.7724 H   0  0  0  0  0  0
  -27.8324  -11.3168   18.8135 H   0  0  0  0  0  0
  -27.3908  -12.6664   17.8003 H   0  0  0  0  0  0
  -27.7149  -14.2479   19.6487 H   0  0  0  0  0  0
  -28.7173  -11.8873   21.2928 H   0  0  0  0  0  0
  -28.5063  -13.4943   21.9195 H   0  0  0  0  0  0
  -25.2884   -9.5369   22.4746 H   0  0  0  0  0  0
  -23.9950   -7.4436   22.7382 H   0  0  0  0  0  0
  -21.0884   -8.8778   19.8965 H   0  0  0  0  0  0
  -22.3903  -10.9589   19.6070 H   0  0  0  0  0  0
  -21.1899   -7.6095   23.9789 H   0  0  0  0  0  0
  -21.1538   -6.0467   25.9127 H   0  0  0  0  0  0
  -22.0579   -2.7602   23.2867 H   0  0  0  0  0  0
  -22.4172  -11.9723   22.4779 H   0  0  0  0  0  0
  -21.1195  -13.1110   22.2813 H   0  0  0  0  0  0
  -24.6552  -15.8127   20.7114 H   0  0  0  0  0  0
  -26.2890  -15.6656   20.3093 H   0  0  0  0  0  0
  -26.7083  -32.5543   23.1108 H   0  0  0  0  0  0
  -25.0000  -33.9781   25.0396 H   0  0  0  0  0  0
  -22.6838  -31.3000   21.3998 H   0  0  0  0  0  0
  -23.3805  -35.9591   23.3221 H   0  0  0  0  0  0
  -24.3623  -36.8997   22.2059 H   0  0  0  0  0  0
  -23.7202  -37.6452   23.6702 H   0  0  0  0  0  0
  -26.0300  -31.6094   20.5910 H   0  0  0  0  0  0
  -26.8014  -30.8927   21.9799 H   0  0  0  0  0  0
  -28.0940  -29.1666   21.1379 H   0  0  0  0  0  0
  -26.1014  -25.9688   19.0304 H   0  0  0  0  0  0
  -24.0020  -27.2457   19.0694 H   0  0  0  0  0  0
  -23.6935  -30.5643   19.3943 H   0  0  0  0  0  0
  -22.7307  -29.2056   19.8867 H   0  0  0  0  0  0
  -25.1315  -36.1944   25.0815 H   0  0  0  0  0  0
  -20.9947  -28.3279   24.1471 H   0  0  0  0  0  0
  -20.5762  -26.2286   23.3626 H   0  0  0  0  0  0
  -21.6656  -26.7554   22.1200 H   0  0  0  0  0  0
  -19.6958  -25.6325   21.1265 H   0  0  0  0  0  0
  -19.6754  -27.3235   20.6778 H   0  0  0  0  0  0
  -17.4245  -26.6763   21.3970 H   0  0  0  0  0  0
  -18.0298  -26.0097   22.8980 H   0  0  0  0  0  0
  -19.7916  -30.7304   24.2297 H   0  0  0  0  0  0
  -17.4993  -31.6299   24.5170 H   0  0  0  0  0  0
  -15.5339  -30.3009   23.7672 H   0  0  0  0  0  0
  -15.8668  -28.0871   22.7031 H   0  0  0  0  0  0
  -24.5843  -30.7118   25.7690 H   0  0  0  0  0  0
  -24.8855  -32.2939   26.4772 H   0  0  0  0  0  0
  -25.7953  -30.8932   27.0188 H   0  0  0  0  0  0
  -26.2828  -29.6781   24.1138 H   0  0  0  0  0  0
  -27.3990  -29.7289   25.4589 H   0  0  0  0  0  0
  -27.8677  -30.4309   23.9275 H   0  0  0  0  0  0
  -27.2696  -33.3633   26.1976 H   0  0  0  0  0  0
  -28.3822  -32.6843   25.0195 H   0  0  0  0  0  0
  -28.0723  -31.8435   26.5304 H   0  0  0  0  0  0
  -28.2562  -38.0157   24.7631 H   0  0  0  0  0  0
  -28.1207  -36.2706   24.6090 H   0  0  0  0  0  0
  -27.2368  -37.1202   25.8842 H   0  0  0  0  0  0
  -20.9281  -29.8590   21.6810 H   0  0  0  0  0  0
  -26.0193  -38.2859   24.1502 H   0  0  0  0  0  0
  -31.9273  -19.0652   20.7056 H   0  0  0  0  0  0
  -29.2348  -20.3809   16.6449 H   0  0  0  0  0  0
  -27.9038  -19.3286   17.0868 H   0  0  0  0  0  0
  -29.2689  -18.6913   16.1648 H   0  0  0  0  0  0
  -24.8847  -15.8886   16.4595 H   0  0  0  0  0  0
  -25.4370  -16.2657   18.0749 H   0  0  0  0  0  0
  -25.8159  -14.6980   17.3572 H   0  0  0  0  0  0
  -26.6096  -15.9121   14.4609 H   0  0  0  0  0  0
  -27.3913  -14.5875   15.3230 H   0  0  0  0  0  0
  -28.3160  -16.0008   14.8438 H   0  0  0  0  0  0
  -29.4053  -17.2218   21.9854 H   0  0  0  0  0  0
  -31.0984  -16.9035   21.8586 H   0  0  0  0  0  0
  -28.4154  -15.2553   17.8307 H   0  0  0  0  0  0
  -29.1103  -16.5714   16.9818 H   0  0  0  0  0  0
  -30.4970  -25.5358   18.4073 H   0  0  0  0  0  0
  -30.7054  -26.2359   19.9692 H   0  0  0  0  0  0
  -27.8734  -16.5667   19.6845 H   0  0  0  0  0  0
  -27.2978  -17.8769   18.7237 H   0  0  0  0  0  0
  -30.4203  -23.8552   20.9841 H   0  0  0  0  0  0
  -31.9312  -24.3616   20.2641 H   0  0  0  0  0  0
  -28.3373  -24.8623   20.4328 H   0  0  0  0  0  0
  -28.1787  -25.2996   18.7250 H   0  0  0  0  0  0
  -26.8171  -17.4019   16.3545 H   0  0  0  0  0  0
  -30.8671  -21.2235   17.6241 H   0  0  0  0  0  0
  -28.9411  -15.1522   21.3023 H   0  0  0  0  0  0
  -30.2843  -23.0626   18.3033 H   0  0  0  0  0  0
  1 25  1  0  0  0
  1 30  2  0  0  0
  1 88  1  0  0  0
  2  3  1  0  0  0
  2 25  1  0  0  0
  2 91  1  0  0  0
  2 92  1  0  0  0
  3  4  1  0  0  0
  3 93  1  0  0  0
  3 94  1  0  0  0
  4  5  1  0  0  0
  4 95  1  0  0  0
  4 96  1  0  0  0
  5  6  1  0  0  0
  5 26  1  0  0  0
  5 97  1  0  0  0
  6 25  1  0  0  0
  6 98  1  0  0  0
  6 99  1  0  0  0
  7  8  2  0  0  0
  7 26  1  0  0  0
  7 29  1  0  0  0
  8  9  1  0  0  0
  8 22  1  0  0  0
  9 10  1  0  0  0
  9 27  2  0  0  0
 10 11  2  0  0  0
 10 15  1  0  0  0
 11 12  1  0  0  0
 11100  1  0  0  0
 12 13  2  0  0  0
 12101  1  0  0  0
 13 14  1  0  0  0
 13 31  1  0  0  0
 14 15  2  0  0  0
 14102  1  0  0  0
 15103  1  0  0  0
 16 17  2  0  0  0
 16 21  1  0  0  0
 16 31  1  0  0  0
 17 18  1  0  0  0
 17104  1  0  0  0
 18 19  2  0  0  0
 18105  1  0  0  0
 19 20  1  0  0  0
 19 24  1  0  0  0
 20 21  2  0  0  0
 20106  1  0  0  0
 21 23  1  0  0  0
 22 28  1  0  0  0
 22 32  2  0  0  0
 26 27  1  0  0  0
 28107  1  0  0  0
 28108  1  0  0  0
 29109  1  0  0  0
 29110  1  0  0  0
 33 34  1  0  0  0
 33 66  1  0  0  0
 33 70  2  0  0  0
 34 36  1  0  0  0
 34 59  1  0  0  0
 34111  1  0  0  0
 35 44  2  0  0  0
 35 45  1  0  0  0
 35 68  1  0  0  0
 36 56  1  0  0  0
 36112  1  0  0  0
 37 39  1  0  0  0
 37 47  1  0  0  0
 37 66  1  0  0  0
 37113  1  0  0  0
 38 43  2  0  0  0
 38 46  1  0  0  0
 38 47  1  0  0  0
 39 64  1  0  0  0
 39 67  2  0  0  0
 40 52  1  0  0  0
 40 53  2  0  0  0
 40 58  1  0  0  0
 41114  1  0  0  0
 41115  1  0  0  0
 41116  1  0  0  0
 41 48  1  0  0  0
 42 43  1  0  0  0
 42 66  1  0  0  0
 42117  1  0  0  0
 42118  1  0  0  0
 43 44  1  0  0  0
 44119  1  0  0  0
 45 46  2  0  0  0
 45120  1  0  0  0
 46121  1  0  0  0
 47122  1  0  0  0
 47123  1  0  0  0
 48 56  1  0  0  0
 48 65  1  0  0  0
 48124  1  0  0  0
 49 50  1  0  0  0
 49 53  1  0  0  0
 49 64  1  0  0  0
 49125  1  0  0  0
 50 51  1  0  0  0
 50126  1  0  0  0
 50127  1  0  0  0
 51 52  1  0  0  0
 51128  1  0  0  0
 51129  1  0  0  0
 52130  1  0  0  0
 52131  1  0  0  0
 53 54  1  0  0  0
 54 55  2  0  0  0
 54132  1  0  0  0
 55 57  1  0  0  0
 55133  1  0  0  0
 56 69  2  0  0  0
 57 58  2  0  0  0
 57134  1  0  0  0
 58135  1  0  0  0
 59 60  1  0  0  0
 59 61  1  0  0  0
 59 62  1  0  0  0
 60136  1  0  0  0
 60137  1  0  0  0
 60138  1  0  0  0
 61139  1  0  0  0
 61140  1  0  0  0
 61141  1  0  0  0
 62142  1  0  0  0
 62143  1  0  0  0
 62144  1  0  0  0
 63 65  1  0  0  0
 63145  1  0  0  0
 63146  1  0  0  0
 63147  1  0  0  0
 64148  1  0  0  0
 65149  1  0  0  0
 68 84  1  0  0  0
 71 72  1  0  0  0
 71 73  2  0  0  0
 71150  1  0  0  0
 72 74  2  0  0  0
 72 87  1  0  0  0
 73 79  1  0  0  0
 73 86  1  0  0  0
 74 76  1  0  0  0
 74 86  1  0  0  0
 75 87  1  0  0  0
 75 89  1  0  0  0
 75 90  2  0  0  0
 76151  1  0  0  0
 76152  1  0  0  0
 76153  1  0  0  0
 77154  1  0  0  0
 77155  1  0  0  0
 77156  1  0  0  0
 77 85  1  0  0  0
 78 85  1  0  0  0
 78157  1  0  0  0
 78158  1  0  0  0
 78159  1  0  0  0
 79 88  1  0  0  0
 79160  1  0  0  0
 79161  1  0  0  0
 80 82  1  0  0  0
 80 85  1  0  0  0
 80162  1  0  0  0
 80163  1  0  0  0
 81 83  1  0  0  0
 81 84  1  0  0  0
 81164  1  0  0  0
 81165  1  0  0  0
 82 86  1  0  0  0
 82166  1  0  0  0
 82167  1  0  0  0
 83 89  1  0  0  0
 83168  1  0  0  0
 83169  1  0  0  0
 84170  1  0  0  0
 84171  1  0  0  0
 85172  1  0  0  0
 87173  1  0  0  0
 88174  1  0  0  0
 89175  1  0  0  0
M  ISO  4   1 100  68 101  84 101  88 100
M  END
> <chiral flag>
0

> <version>
0

> <s_m_source_file>
/data/baiqing/PycharmProjects/Reinvent-master-3.2/result/LINK_invent/BTK/process_docking_weight1_custom_sum_contain_oxygen_bond_distance_aromatic_linkinvent_7_9_3/rearranged_h_0102.sdf

> <i_m_source_file_index>
56

> <r_mmod_Potential_Energy-OPLS-2005>
-186.481781005859

> <r_mmod_Stretch_Energy-OPLS-2005>
35.1012153625488

> <r_mmod_Bend_Energy-OPLS-2005>
135.408981323242

> <r_mmod_Torsional_Energy-OPLS-2005>
272.001831054688

> <r_mmod_Improper_Torsional_Energy-OPLS-2005>
7.69898462295532

> <r_mmod_Van_der_Waal_Energy-OPLS-2005>
118.248031616211

> <r_mmod_Electrostatic_Energy-OPLS-2005>
-505.094390869141

> <r_mmod_Solvation_Energy-OPLS-2005>
-266.731994628906

> <b_mmod_Minimization_Converged-OPLS-2005>
0

> <r_mmod_RMS_Derivative-OPLS-2005>
4.97479772567749

$$$$
57
                    3D
 Structure written by MMmdl.
172180  0  0  1  0            999 V2000
  -30.6176  -14.7265   20.4616 C   0  0  0  0  0  0
  -30.4332  -12.4396   19.4815 C   0  0  0  0  0  0
  -29.5135  -12.5068   18.2420 C   0  0  0  0  0  0
  -28.0391  -12.3336   18.6543 C   0  0  0  0  0  0
  -27.6460  -13.2313   19.8578 C   0  0  2  0  0  0
  -28.6890  -13.1544   20.9952 C   0  0  0  0  0  0
  -25.2515  -13.8196   20.5697 C   0  0  0  0  0  0
  -24.1807  -13.0442   20.9202 C   0  0  0  0  0  0
  -24.6396  -11.6919   20.8751 C   0  0  0  0  0  0
  -23.9069  -10.4296   21.0408 C   0  0  0  0  0  0
  -24.3615   -9.4209   21.9189 C   0  0  0  0  0  0
  -23.6288   -8.2246   22.0759 C   0  0  0  0  0  0
  -22.4272   -8.0284   21.3545 C   0  0  0  0  0  0
  -21.9910   -9.0259   20.4648 C   0  0  0  0  0  0
  -22.7240  -10.2139   20.3059 C   0  0  0  0  0  0
  -21.6850   -6.0732   22.5278 C   0  0  0  0  0  0
  -21.4014   -6.5638   23.8209 C   0  0  0  0  0  0
  -21.3662   -5.6790   24.9174 C   0  0  0  0  0  0
  -21.6044   -4.3054   24.7224 C   0  0  0  0  0  0
  -21.8818   -3.8145   23.4345 C   0  0  0  0  0  0
  -21.9191   -4.6959   22.3401 C   0  0  0  0  0  0
  -22.7826  -13.5227   21.1861 C   0  0  0  0  0  0
  -22.1659   -4.2146   21.0976 F   0  0  0  0  0  0
  -21.5629   -3.4537   25.7736 F   0  0  0  0  0  0
  -29.9955  -13.4992   20.4197 N   0  0  0  0  0  0
  -26.2956  -12.9411   20.3310 N   0  0  0  0  0  0
  -25.9332  -11.6552   20.5769 N   0  0  0  0  0  0
  -22.0467  -12.8222   22.0415 N   0  0  0  0  0  0
  -25.4198  -15.1920   20.4105 N   0  0  0  0  0  0
  -31.7958  -14.8286   20.1083 O   0  0  0  0  0  0
  -21.6639   -6.8881   21.4243 O   0  0  0  0  0  0
  -22.3519  -14.5537   20.6709 O   0  0  0  0  0  0
  -24.6284  -31.8570   23.1977 C   0  0  0  0  0  0
  -25.9121  -32.4762   23.8321 C   0  0  1  0  0  0
  -27.2219  -27.2749   20.1365 C   0  0  0  0  0  0
  -25.5917  -33.8561   24.2248 N   0  0  0  0  0  0
  -23.4250  -30.4769   21.5428 C   0  0  2  0  0  0
  -24.8731  -28.9198   20.1164 C   0  0  0  0  0  0
  -22.7488  -29.4604   22.4935 C   0  0  0  0  0  0
  -18.0284  -28.1370   22.8484 C   0  0  0  0  0  0
  -24.1498  -36.7291   23.2643 C   0  0  0  0  0  0
  -25.9694  -30.7738   21.3755 C   0  0  0  0  0  0
  -26.0444  -29.3961   20.7205 C   0  0  0  0  0  0
  -27.2254  -28.5886   20.7135 C   0  0  0  0  0  0
  -26.0294  -26.8567   19.5104 C   0  0  0  0  0  0
  -24.8699  -27.6584   19.4988 C   0  0  0  0  0  0
  -23.6429  -29.8065   20.1606 C   0  0  0  0  0  0
  -25.4127  -36.3074   24.0322 C   0  0  1  0  0  0
  -20.5890  -28.3689   23.1270 C   0  0  2  0  0  0
  -20.6783  -26.9408   22.5405 C   0  0  0  0  0  0
  -19.5765  -26.6379   21.5202 C   0  0  0  0  0  0
  -18.1944  -26.7915   22.1611 C   0  0  0  0  0  0
  -19.1539  -28.8845   23.2872 C   0  0  0  0  0  0
  -18.9466  -30.1441   23.8895 C   0  0  0  0  0  0
  -17.6467  -30.6582   24.0550 C   0  0  0  0  0  0
  -25.9064  -34.9445   23.5097 C   0  0  0  0  0  0
  -16.5359  -29.9079   23.6328 C   0  0  0  0  0  0
  -16.7275  -28.6483   23.0364 C   0  0  0  0  0  0
  -26.4493  -31.6578   25.0708 C   0  0  0  0  0  0
  -25.3696  -31.3713   26.1412 C   0  0  0  0  0  0
  -27.0355  -30.2997   24.6188 C   0  0  0  0  0  0
  -27.6048  -32.4326   25.7476 C   0  0  0  0  0  0
  -27.5593  -37.1794   24.8460 C   0  0  0  0  0  0
  -21.4197  -29.3034   22.3660 N   0  0  0  0  0  0
  -26.4309  -37.3767   23.9399 N   0  0  0  0  0  0
  -24.6934  -31.0530   22.0958 N   0  0  0  0  0  0
  -23.4190  -28.8153   23.3045 O   0  0  0  0  0  0
  -28.3256  -26.3997   20.1346 O   0  0  0  0  0  0
  -26.5648  -34.8918   22.4674 O   0  0  0  0  0  0
  -23.5431  -32.1390   23.7274 O   0  0  0  0  0  0
  -29.3100  -20.2327   22.6921 C   0  0  0  0  0  0
  -29.3667  -19.8512   21.3187 C   0  0  0  0  0  0
  -29.8634  -19.2847   23.4876 C   0  0  0  0  0  0
  -29.8190  -18.4887   21.3308 C   0  0  0  0  0  0
  -27.6158  -20.5818   19.5746 C   0  0  0  0  0  0
  -29.2184  -18.3171   25.7379 C   0  0  0  0  0  0
  -29.9189  -20.7251   25.5756 C   0  0  0  0  0  0
  -29.4641  -17.5582   18.9319 C   0  0  0  0  0  0
  -30.9503  -17.0546   23.1277 C   0  0  0  0  0  0
  -28.6624  -23.6691   19.9620 C   0  0  0  0  0  0
  -28.1689  -25.0218   20.7119 C   0  0  0  0  0  0
  -28.9451  -20.9655   20.2478 C   0  0  1  0  0  0
  -30.1039  -19.3191   24.9795 C   0  0  0  0  0  0
  -30.1161  -17.3185   20.2974 C   0  0  2  0  0  0
  -30.2261  -18.2353   22.6578 N   0  0  0  0  0  0
  -29.8442  -15.8560   20.6813 N   0  0  0  0  0  0
  -28.8228  -22.3964   20.8227 N   0  3  0  0  0  0
  -31.4766  -12.5541   19.1823 H   0  0  0  0  0  0
  -30.3665  -11.4602   19.9583 H   0  0  0  0  0  0
  -29.7925  -11.7366   17.5216 H   0  0  0  0  0  0
  -29.6453  -13.4645   17.7356 H   0  0  0  0  0  0
  -27.8950  -11.2852   18.9174 H   0  0  0  0  0  0
  -27.3815  -12.5263   17.8058 H   0  0  0  0  0  0
  -27.6452  -14.2545   19.4827 H   0  0  0  0  0  0
  -28.7165  -12.1536   21.4286 H   0  0  0  0  0  0
  -28.4283  -13.8320   21.8096 H   0  0  0  0  0  0
  -25.2757   -9.5684   22.4773 H   0  0  0  0  0  0
  -23.9988   -7.4641   22.7487 H   0  0  0  0  0  0
  -21.0838   -8.8786   19.8957 H   0  0  0  0  0  0
  -22.3698  -10.9681   19.6175 H   0  0  0  0  0  0
  -21.2012   -7.6146   23.9714 H   0  0  0  0  0  0
  -21.1485   -6.0519   25.9076 H   0  0  0  0  0  0
  -22.0597   -2.7606   23.2845 H   0  0  0  0  0  0
  -22.4065  -11.9871   22.4795 H   0  0  0  0  0  0
  -21.1095  -13.1275   22.2632 H   0  0  0  0  0  0
  -24.6490  -15.8422   20.5188 H   0  0  0  0  0  0
  -26.2634  -15.6341   20.0701 H   0  0  0  0  0  0
  -26.7191  -32.5413   23.1064 H   0  0  0  0  0  0
  -24.9999  -33.9689   25.0347 H   0  0  0  0  0  0
  -22.7203  -31.2985   21.3962 H   0  0  0  0  0  0
  -23.3763  -35.9625   23.3299 H   0  0  0  0  0  0
  -24.3579  -36.8933   22.2061 H   0  0  0  0  0  0
  -23.7264  -37.6492   23.6675 H   0  0  0  0  0  0
  -26.1065  -31.5366   20.6084 H   0  0  0  0  0  0
  -26.8466  -30.8218   22.0097 H   0  0  0  0  0  0
  -28.1291  -28.9531   21.1831 H   0  0  0  0  0  0
  -25.9888  -25.8896   19.0297 H   0  0  0  0  0  0
  -23.9739  -27.2915   19.0169 H   0  0  0  0  0  0
  -23.7640  -30.5812   19.4025 H   0  0  0  0  0  0
  -22.7606  -29.2385   19.8599 H   0  0  0  0  0  0
  -25.1314  -36.1927   25.0816 H   0  0  0  0  0  0
  -20.9970  -28.3283   24.1393 H   0  0  0  0  0  0
  -20.5692  -26.2299   23.3608 H   0  0  0  0  0  0
  -21.6655  -26.7456   22.1205 H   0  0  0  0  0  0
  -19.6942  -25.6284   21.1244 H   0  0  0  0  0  0
  -19.6707  -27.3177   20.6717 H   0  0  0  0  0  0
  -17.4216  -26.6649   21.4014 H   0  0  0  0  0  0
  -18.0354  -26.0045   22.8993 H   0  0  0  0  0  0
  -19.7947  -30.7239   24.2283 H   0  0  0  0  0  0
  -17.5033  -31.6268   24.5144 H   0  0  0  0  0  0
  -15.5356  -30.2983   23.7655 H   0  0  0  0  0  0
  -15.8669  -28.0793   22.7105 H   0  0  0  0  0  0
  -24.5889  -30.7061   25.7702 H   0  0  0  0  0  0
  -24.8858  -32.2872   26.4809 H   0  0  0  0  0  0
  -25.8000  -30.8890   27.0196 H   0  0  0  0  0  0
  -26.2943  -29.6717   24.1235 H   0  0  0  0  0  0
  -27.4069  -29.7285   25.4704 H   0  0  0  0  0  0
  -27.8802  -30.4281   23.9422 H   0  0  0  0  0  0
  -27.2676  -33.3642   26.2023 H   0  0  0  0  0  0
  -28.3867  -32.6855   25.0306 H   0  0  0  0  0  0
  -28.0705  -31.8467   26.5405 H   0  0  0  0  0  0
  -28.2593  -38.0107   24.7527 H   0  0  0  0  0  0
  -28.1112  -36.2634   24.6281 H   0  0  0  0  0  0
  -27.2293  -37.1444   25.8857 H   0  0  0  0  0  0
  -20.9383  -29.8731   21.6840 H   0  0  0  0  0  0
  -26.0192  -38.2846   24.1386 H   0  0  0  0  0  0
  -28.9563  -21.1737   23.0862 H   0  0  0  0  0  0
  -27.6644  -19.6041   19.1053 H   0  0  0  0  0  0
  -27.3387  -21.2896   18.7945 H   0  0  0  0  0  0
  -26.8027  -20.5505   20.2996 H   0  0  0  0  0  0
  -29.3944  -17.2911   25.4163 H   0  0  0  0  0  0
  -28.1601  -18.5333   25.5861 H   0  0  0  0  0  0
  -29.4136  -18.3538   26.8103 H   0  0  0  0  0  0
  -30.5710  -21.4492   25.0866 H   0  0  0  0  0  0
  -30.1636  -20.7380   26.6378 H   0  0  0  0  0  0
  -28.8913  -21.0740   25.4710 H   0  0  0  0  0  0
  -29.7347  -18.5333   18.5282 H   0  0  0  0  0  0
  -28.3783  -17.4930   18.9952 H   0  0  0  0  0  0
  -29.7909  -16.8116   18.2076 H   0  0  0  0  0  0
  -31.4794  -17.2436   24.0586 H   0  0  0  0  0  0
  -31.7114  -16.7618   22.4055 H   0  0  0  0  0  0
  -30.2562  -16.2306   23.2907 H   0  0  0  0  0  0
  -29.6274  -23.8629   19.4926 H   0  0  0  0  0  0
  -27.9679  -23.4696   19.1466 H   0  0  0  0  0  0
  -28.7115  -25.0681   21.6563 H   0  0  0  0  0  0
  -27.1305  -24.8758   21.0114 H   0  0  0  0  0  0
  -29.7323  -20.9867   19.4928 H   0  0  0  0  0  0
  -31.1466  -19.0632   25.1702 H   0  0  0  0  0  0
  -31.1904  -17.3713   20.1103 H   0  0  0  0  0  0
  -28.9021  -15.6683   20.9868 H   0  0  0  0  0  0
  -28.0435  -22.3639   21.4613 H   0  0  0  0  0  0
  -29.6487  -22.5322   21.3855 H   0  0  0  0  0  0
  1 25  1  0  0  0
  1 30  2  0  0  0
  1 86  1  0  0  0
  2  3  1  0  0  0
  2 25  1  0  0  0
  2 88  1  0  0  0
  2 89  1  0  0  0
  3  4  1  0  0  0
  3 90  1  0  0  0
  3 91  1  0  0  0
  4  5  1  0  0  0
  4 92  1  0  0  0
  4 93  1  0  0  0
  5  6  1  0  0  0
  5 26  1  0  0  0
  5 94  1  0  0  0
  6 25  1  0  0  0
  6 95  1  0  0  0
  6 96  1  0  0  0
  7  8  2  0  0  0
  7 26  1  0  0  0
  7 29  1  0  0  0
  8  9  1  0  0  0
  8 22  1  0  0  0
  9 10  1  0  0  0
  9 27  2  0  0  0
 10 11  2  0  0  0
 10 15  1  0  0  0
 11 12  1  0  0  0
 11 97  1  0  0  0
 12 13  2  0  0  0
 12 98  1  0  0  0
 13 14  1  0  0  0
 13 31  1  0  0  0
 14 15  2  0  0  0
 14 99  1  0  0  0
 15100  1  0  0  0
 16 17  2  0  0  0
 16 21  1  0  0  0
 16 31  1  0  0  0
 17 18  1  0  0  0
 17101  1  0  0  0
 18 19  2  0  0  0
 18102  1  0  0  0
 19 20  1  0  0  0
 19 24  1  0  0  0
 20 21  2  0  0  0
 20103  1  0  0  0
 21 23  1  0  0  0
 22 28  1  0  0  0
 22 32  2  0  0  0
 26 27  1  0  0  0
 28104  1  0  0  0
 28105  1  0  0  0
 29106  1  0  0  0
 29107  1  0  0  0
 33 34  1  0  0  0
 33 66  1  0  0  0
 33 70  2  0  0  0
 34 36  1  0  0  0
 34 59  1  0  0  0
 34108  1  0  0  0
 35 44  2  0  0  0
 35 45  1  0  0  0
 35 68  1  0  0  0
 36 56  1  0  0  0
 36109  1  0  0  0
 37 39  1  0  0  0
 37 47  1  0  0  0
 37 66  1  0  0  0
 37110  1  0  0  0
 38 43  2  0  0  0
 38 46  1  0  0  0
 38 47  1  0  0  0
 39 64  1  0  0  0
 39 67  2  0  0  0
 40 52  1  0  0  0
 40 53  2  0  0  0
 40 58  1  0  0  0
 41111  1  0  0  0
 41112  1  0  0  0
 41113  1  0  0  0
 41 48  1  0  0  0
 42 43  1  0  0  0
 42 66  1  0  0  0
 42114  1  0  0  0
 42115  1  0  0  0
 43 44  1  0  0  0
 44116  1  0  0  0
 45 46  2  0  0  0
 45117  1  0  0  0
 46118  1  0  0  0
 47119  1  0  0  0
 47120  1  0  0  0
 48 56  1  0  0  0
 48 65  1  0  0  0
 48121  1  0  0  0
 49 50  1  0  0  0
 49 53  1  0  0  0
 49 64  1  0  0  0
 49122  1  0  0  0
 50 51  1  0  0  0
 50123  1  0  0  0
 50124  1  0  0  0
 51 52  1  0  0  0
 51125  1  0  0  0
 51126  1  0  0  0
 52127  1  0  0  0
 52128  1  0  0  0
 53 54  1  0  0  0
 54 55  2  0  0  0
 54129  1  0  0  0
 55 57  1  0  0  0
 55130  1  0  0  0
 56 69  2  0  0  0
 57 58  2  0  0  0
 57131  1  0  0  0
 58132  1  0  0  0
 59 60  1  0  0  0
 59 61  1  0  0  0
 59 62  1  0  0  0
 60133  1  0  0  0
 60134  1  0  0  0
 60135  1  0  0  0
 61136  1  0  0  0
 61137  1  0  0  0
 61138  1  0  0  0
 62139  1  0  0  0
 62140  1  0  0  0
 62141  1  0  0  0
 63 65  1  0  0  0
 63142  1  0  0  0
 63143  1  0  0  0
 63144  1  0  0  0
 64145  1  0  0  0
 65146  1  0  0  0
 68 81  1  0  0  0
 71 72  1  0  0  0
 71 73  2  0  0  0
 71147  1  0  0  0
 72 74  2  0  0  0
 72 82  1  0  0  0
 73 83  1  0  0  0
 73 85  1  0  0  0
 74 84  1  0  0  0
 74 85  1  0  0  0
 75148  1  0  0  0
 75149  1  0  0  0
 75150  1  0  0  0
 75 82  1  0  0  0
 76151  1  0  0  0
 76152  1  0  0  0
 76153  1  0  0  0
 76 83  1  0  0  0
 77 83  1  0  0  0
 77154  1  0  0  0
 77155  1  0  0  0
 77156  1  0  0  0
 78157  1  0  0  0
 78158  1  0  0  0
 78159  1  0  0  0
 78 84  1  0  0  0
 79 85  1  0  0  0
 79160  1  0  0  0
 79161  1  0  0  0
 79162  1  0  0  0
 80 81  1  0  0  0
 80 87  1  0  0  0
 80163  1  0  0  0
 80164  1  0  0  0
 81165  1  0  0  0
 81166  1  0  0  0
 82 87  1  0  0  0
 82167  1  0  0  0
 83168  1  0  0  0
 84 86  1  0  0  0
 84169  1  0  0  0
 86170  1  0  0  0
 87171  1  0  0  0
 87172  1  0  0  0
M  CHG  1  87   1
M  ISO  4   1 100  68 101  81 101  86 100
M  END
> <chiral flag>
0

> <version>
0

> <s_m_source_file>
/data/baiqing/PycharmProjects/Reinvent-master-3.2/result/LINK_invent/BTK/process_docking_weight1_custom_sum_contain_oxygen_bond_distance_aromatic_linkinvent_7_9_3/rearranged_h_0102.sdf

> <i_m_source_file_index>
57

> <r_mmod_Potential_Energy-OPLS-2005>
-63.9537658691406

> <r_mmod_Stretch_Energy-OPLS-2005>
134.338989257812

> <r_mmod_Bend_Energy-OPLS-2005>
185.846054077148

> <r_mmod_Torsional_Energy-OPLS-2005>
234.047561645508

> <r_mmod_Improper_Torsional_Energy-OPLS-2005>
5.93059635162354

> <r_mmod_Van_der_Waal_Energy-OPLS-2005>
122.023101806641

> <r_mmod_Electrostatic_Energy-OPLS-2005>
-395.806335449219

> <r_mmod_Solvation_Energy-OPLS-2005>
-425.164154052734

> <b_mmod_Minimization_Converged-OPLS-2005>
0

> <r_mmod_RMS_Derivative-OPLS-2005>
1.47397816181183

$$$$
58
                    3D
 Structure written by MMmdl.
170177  0  0  1  0            999 V2000
  -30.6278  -14.6912   20.5295 C   0  0  0  0  0  0
  -30.4385  -12.4289   19.4787 C   0  0  0  0  0  0
  -29.5178  -12.5250   18.2418 C   0  0  0  0  0  0
  -28.0392  -12.3534   18.6412 C   0  0  0  0  0  0
  -27.6541  -13.2219   19.8673 C   0  0  2  0  0  0
  -28.6917  -13.0843   21.0000 C   0  0  0  0  0  0
  -25.2572  -13.8179   20.5683 C   0  0  0  0  0  0
  -24.1830  -13.0445   20.9166 C   0  0  0  0  0  0
  -24.6399  -11.6924   20.8728 C   0  0  0  0  0  0
  -23.9070  -10.4301   21.0409 C   0  0  0  0  0  0
  -24.3627   -9.4215   21.9191 C   0  0  0  0  0  0
  -23.6297   -8.2251   22.0767 C   0  0  0  0  0  0
  -22.4282   -8.0289   21.3548 C   0  0  0  0  0  0
  -21.9912   -9.0265   20.4646 C   0  0  0  0  0  0
  -22.7250  -10.2143   20.3057 C   0  0  0  0  0  0
  -21.6853   -6.0743   22.5273 C   0  0  0  0  0  0
  -21.4010   -6.5648   23.8203 C   0  0  0  0  0  0
  -21.3656   -5.6800   24.9167 C   0  0  0  0  0  0
  -21.6045   -4.3060   24.7212 C   0  0  0  0  0  0
  -21.8816   -3.8154   23.4330 C   0  0  0  0  0  0
  -21.9194   -4.6976   22.3394 C   0  0  0  0  0  0
  -22.7847  -13.5243   21.1828 C   0  0  0  0  0  0
  -22.1663   -4.2164   21.0966 F   0  0  0  0  0  0
  -21.5628   -3.4538   25.7717 F   0  0  0  0  0  0
  -30.0028  -13.4610   20.4485 N   0  0  0  0  0  0
  -26.2991  -12.9366   20.3329 N   0  0  0  0  0  0
  -25.9333  -11.6512   20.5765 N   0  0  0  0  0  0
  -22.0490  -12.8232   22.0376 N   0  0  0  0  0  0
  -25.4304  -15.1909   20.4142 N   0  0  0  0  0  0
  -31.7449  -14.8457   20.0280 O   0  0  0  0  0  0
  -21.6639   -6.8891   21.4236 O   0  0  0  0  0  0
  -22.3538  -14.5558   20.6695 O   0  0  0  0  0  0
  -24.6271  -31.8517   23.1920 C   0  0  0  0  0  0
  -25.9091  -32.4745   23.8294 C   0  0  1  0  0  0
  -27.2403  -27.2491   20.1434 C   0  0  0  0  0  0
  -25.5892  -33.8553   24.2225 N   0  0  0  0  0  0
  -23.4278  -30.4667   21.5291 C   0  0  2  0  0  0
  -24.8848  -28.9040   20.1055 C   0  0  0  0  0  0
  -22.7497  -29.4571   22.4861 C   0  0  0  0  0  0
  -18.0287  -28.1350   22.8484 C   0  0  0  0  0  0
  -24.1498  -36.7275   23.2656 C   0  0  0  0  0  0
  -25.9737  -30.7594   21.3758 C   0  0  0  0  0  0
  -26.0479  -29.3785   20.7225 C   0  0  0  0  0  0
  -27.2191  -28.5596   20.7351 C   0  0  0  0  0  0
  -26.0548  -26.8352   19.5026 C   0  0  0  0  0  0
  -24.8921  -27.6389   19.4900 C   0  0  0  0  0  0
  -23.6509  -29.7868   20.1492 C   0  0  0  0  0  0
  -25.4113  -36.3060   24.0339 C   0  0  1  0  0  0
  -20.5895  -28.3669   23.1268 C   0  0  2  0  0  0
  -20.6775  -26.9389   22.5392 C   0  0  0  0  0  0
  -19.5756  -26.6343   21.5210 C   0  0  0  0  0  0
  -18.1934  -26.7894   22.1609 C   0  0  0  0  0  0
  -19.1550  -28.8812   23.2875 C   0  0  0  0  0  0
  -18.9498  -30.1415   23.8887 C   0  0  0  0  0  0
  -17.6507  -30.6569   24.0552 C   0  0  0  0  0  0
  -25.9043  -34.9443   23.5083 C   0  0  0  0  0  0
  -16.5386  -29.9068   23.6317 C   0  0  0  0  0  0
  -16.7275  -28.6469   23.0345 C   0  0  0  0  0  0
  -26.4438  -31.6576   25.0696 C   0  0  0  0  0  0
  -25.3649  -31.3775   26.1428 C   0  0  0  0  0  0
  -27.0309  -30.2991   24.6195 C   0  0  0  0  0  0
  -27.5970  -32.4319   25.7484 C   0  0  0  0  0  0
  -27.5569  -37.1789   24.8471 C   0  0  0  0  0  0
  -21.4190  -29.3040   22.3669 N   0  0  0  0  0  0
  -26.4283  -37.3753   23.9421 N   0  0  0  0  0  0
  -24.6944  -31.0462   22.0900 N   0  0  0  0  0  0
  -23.4232  -28.8103   23.2930 O   0  0  0  0  0  0
  -28.3681  -26.4052   20.2378 O   0  0  0  0  0  0
  -26.5660  -34.8935   22.4675 O   0  0  0  0  0  0
  -23.5409  -32.1337   23.7184 O   0  0  0  0  0  0
  -28.4476  -19.6954   16.2048 C   0  0  0  0  0  0
  -27.5658  -22.9839   23.0208 C   0  0  0  0  0  0
  -29.6027  -15.8814   22.4156 C   0  0  0  0  0  0
  -28.1191  -19.7874   17.7027 C   0  0  0  0  0  0
  -28.1092  -24.0557   22.0581 C   0  0  0  0  0  0
  -29.8697  -18.5414   20.5782 C   0  0  0  0  0  0
  -29.4592  -17.0196   20.1850 C   0  0  0  0  0  0
  -29.0390  -20.7797   18.4471 C   0  0  0  0  0  0
  -28.7431  -19.7044   20.7382 C   0  0  0  0  0  0
  -29.2000  -22.3389   20.4141 C   0  0  0  0  0  0
  -28.4908  -24.9964   19.7095 C   0  0  0  0  0  0
  -28.2084  -23.6397   20.5701 C   0  0  2  0  0  0
  -29.9019  -15.7903   20.9837 N   0  0  0  0  0  0
  -28.6762  -20.9908   19.8764 N   0  3  1  0  0  0
  -31.4822  -12.5497   19.1830 H   0  0  0  0  0  0
  -30.3774  -11.4368   19.9299 H   0  0  0  0  0  0
  -29.7971  -11.7728   17.5030 H   0  0  0  0  0  0
  -29.6552  -13.4943   17.7610 H   0  0  0  0  0  0
  -27.8757  -11.2989   18.8693 H   0  0  0  0  0  0
  -27.3902  -12.5854   17.7965 H   0  0  0  0  0  0
  -27.6724  -14.2589   19.5314 H   0  0  0  0  0  0
  -28.7195  -12.0586   21.3705 H   0  0  0  0  0  0
  -28.3997  -13.6876   21.8555 H   0  0  0  0  0  0
  -25.2772   -9.5675   22.4767 H   0  0  0  0  0  0
  -23.9995   -7.4637   22.7489 H   0  0  0  0  0  0
  -21.0849   -8.8792   19.8942 H   0  0  0  0  0  0
  -22.3729  -10.9684   19.6164 H   0  0  0  0  0  0
  -21.2003   -7.6151   23.9711 H   0  0  0  0  0  0
  -21.1477   -6.0525   25.9070 H   0  0  0  0  0  0
  -22.0601   -2.7612   23.2821 H   0  0  0  0  0  0
  -22.4104  -11.9890   22.4740 H   0  0  0  0  0  0
  -21.1109  -13.1253   22.2608 H   0  0  0  0  0  0
  -24.6667  -15.8486   20.5302 H   0  0  0  0  0  0
  -26.2925  -15.6276   20.1166 H   0  0  0  0  0  0
  -26.7151  -32.5378   23.1028 H   0  0  0  0  0  0
  -25.0002  -33.9693   25.0346 H   0  0  0  0  0  0
  -22.7218  -31.2836   21.3679 H   0  0  0  0  0  0
  -23.3778  -35.9596   23.3320 H   0  0  0  0  0  0
  -24.3586  -36.8890   22.2075 H   0  0  0  0  0  0
  -23.7258  -37.6473   23.6668 H   0  0  0  0  0  0
  -26.1109  -31.5179   20.6044 H   0  0  0  0  0  0
  -26.8527  -30.8101   22.0076 H   0  0  0  0  0  0
  -28.1037  -28.9126   21.2452 H   0  0  0  0  0  0
  -26.0013  -25.8626   19.0395 H   0  0  0  0  0  0
  -24.0010  -27.2579   19.0133 H   0  0  0  0  0  0
  -23.7666  -30.5558   19.3855 H   0  0  0  0  0  0
  -22.7782  -29.2045   19.8494 H   0  0  0  0  0  0
  -25.1293  -36.1883   25.0828 H   0  0  0  0  0  0
  -20.9956  -28.3206   24.1398 H   0  0  0  0  0  0
  -20.5666  -26.2264   23.3575 H   0  0  0  0  0  0
  -21.6643  -26.7385   22.1203 H   0  0  0  0  0  0
  -19.6960  -25.6261   21.1212 H   0  0  0  0  0  0
  -19.6718  -27.3173   20.6775 H   0  0  0  0  0  0
  -17.4201  -26.6630   21.4020 H   0  0  0  0  0  0
  -18.0351  -26.0028   22.8994 H   0  0  0  0  0  0
  -19.8001  -30.7198   24.2262 H   0  0  0  0  0  0
  -17.5090  -31.6269   24.5131 H   0  0  0  0  0  0
  -15.5393  -30.2995   23.7661 H   0  0  0  0  0  0
  -15.8656  -28.0799   22.7093 H   0  0  0  0  0  0
  -24.5842  -30.7074   25.7809 H   0  0  0  0  0  0
  -24.8837  -32.2984   26.4742 H   0  0  0  0  0  0
  -25.7972  -30.9056   27.0275 H   0  0  0  0  0  0
  -26.2941  -29.6738   24.1148 H   0  0  0  0  0  0
  -27.3967  -29.7211   25.4705 H   0  0  0  0  0  0
  -27.8797  -30.4307   23.9481 H   0  0  0  0  0  0
  -27.2560  -33.3658   26.1968 H   0  0  0  0  0  0
  -28.3837  -32.6815   25.0346 H   0  0  0  0  0  0
  -28.0555  -31.8492   26.5492 H   0  0  0  0  0  0
  -28.2549  -38.0107   24.7486 H   0  0  0  0  0  0
  -28.1070  -36.2632   24.6281 H   0  0  0  0  0  0
  -27.2278  -37.1415   25.8864 H   0  0  0  0  0  0
  -20.9325  -29.8809   21.6946 H   0  0  0  0  0  0
  -26.0160  -38.2823   24.1397 H   0  0  0  0  0  0
  -27.7133  -19.0852   15.6769 H   0  0  0  0  0  0
  -29.4292  -19.2493   16.0380 H   0  0  0  0  0  0
  -28.4500  -20.6821   15.7407 H   0  0  0  0  0  0
  -27.3187  -23.4325   23.9850 H   0  0  0  0  0  0
  -28.2940  -22.1983   23.2183 H   0  0  0  0  0  0
  -26.6576  -22.5198   22.6390 H   0  0  0  0  0  0
  -28.5269  -15.9415   22.5794 H   0  0  0  0  0  0
  -30.0667  -16.7550   22.8681 H   0  0  0  0  0  0
  -29.9706  -15.0173   22.9745 H   0  0  0  0  0  0
  -28.1936  -18.7889   18.1317 H   0  0  0  0  0  0
  -27.0793  -20.0969   17.8163 H   0  0  0  0  0  0
  -29.0835  -24.4018   22.4074 H   0  0  0  0  0  0
  -27.4471  -24.9194   22.1366 H   0  0  0  0  0  0
  -30.6422  -18.8718   19.8852 H   0  0  0  0  0  0
  -30.4011  -18.5019   21.5286 H   0  0  0  0  0  0
  -29.7822  -16.8586   19.1555 H   0  0  0  0  0  0
  -28.3713  -16.9593   20.1331 H   0  0  0  0  0  0
  -28.9693  -21.7400   17.9327 H   0  0  0  0  0  0
  -30.0810  -20.4699   18.3688 H   0  0  0  0  0  0
  -28.7037  -20.0059   21.7870 H   0  0  0  0  0  0
  -27.7822  -19.2138   20.5889 H   0  0  0  0  0  0
  -29.6474  -22.1225   21.3828 H   0  0  0  0  0  0
  -30.0677  -22.6334   19.8219 H   0  0  0  0  0  0
  -27.9848  -24.9188   18.7470 H   0  0  0  0  0  0
  -29.5455  -24.9387   19.4396 H   0  0  0  0  0  0
  -27.2107  -23.3110   20.2812 H   0  0  0  0  0  0
  -27.6829  -21.1636   19.8456 H   0  0  0  0  0  0
  1 25  1  0  0  0
  1 30  2  0  0  0
  1 83  1  0  0  0
  2  3  1  0  0  0
  2 25  1  0  0  0
  2 85  1  0  0  0
  2 86  1  0  0  0
  3  4  1  0  0  0
  3 87  1  0  0  0
  3 88  1  0  0  0
  4  5  1  0  0  0
  4 89  1  0  0  0
  4 90  1  0  0  0
  5  6  1  0  0  0
  5 26  1  0  0  0
  5 91  1  0  0  0
  6 25  1  0  0  0
  6 92  1  0  0  0
  6 93  1  0  0  0
  7  8  2  0  0  0
  7 26  1  0  0  0
  7 29  1  0  0  0
  8  9  1  0  0  0
  8 22  1  0  0  0
  9 10  1  0  0  0
  9 27  2  0  0  0
 10 11  2  0  0  0
 10 15  1  0  0  0
 11 12  1  0  0  0
 11 94  1  0  0  0
 12 13  2  0  0  0
 12 95  1  0  0  0
 13 14  1  0  0  0
 13 31  1  0  0  0
 14 15  2  0  0  0
 14 96  1  0  0  0
 15 97  1  0  0  0
 16 17  2  0  0  0
 16 21  1  0  0  0
 16 31  1  0  0  0
 17 18  1  0  0  0
 17 98  1  0  0  0
 18 19  2  0  0  0
 18 99  1  0  0  0
 19 20  1  0  0  0
 19 24  1  0  0  0
 20 21  2  0  0  0
 20100  1  0  0  0
 21 23  1  0  0  0
 22 28  1  0  0  0
 22 32  2  0  0  0
 26 27  1  0  0  0
 28101  1  0  0  0
 28102  1  0  0  0
 29103  1  0  0  0
 29104  1  0  0  0
 33 34  1  0  0  0
 33 66  1  0  0  0
 33 70  2  0  0  0
 34 36  1  0  0  0
 34 59  1  0  0  0
 34105  1  0  0  0
 35 44  2  0  0  0
 35 45  1  0  0  0
 35 68  1  0  0  0
 36 56  1  0  0  0
 36106  1  0  0  0
 37 39  1  0  0  0
 37 47  1  0  0  0
 37 66  1  0  0  0
 37107  1  0  0  0
 38 43  2  0  0  0
 38 46  1  0  0  0
 38 47  1  0  0  0
 39 64  1  0  0  0
 39 67  2  0  0  0
 40 52  1  0  0  0
 40 53  2  0  0  0
 40 58  1  0  0  0
 41108  1  0  0  0
 41109  1  0  0  0
 41110  1  0  0  0
 41 48  1  0  0  0
 42 43  1  0  0  0
 42 66  1  0  0  0
 42111  1  0  0  0
 42112  1  0  0  0
 43 44  1  0  0  0
 44113  1  0  0  0
 45 46  2  0  0  0
 45114  1  0  0  0
 46115  1  0  0  0
 47116  1  0  0  0
 47117  1  0  0  0
 48 56  1  0  0  0
 48 65  1  0  0  0
 48118  1  0  0  0
 49 50  1  0  0  0
 49 53  1  0  0  0
 49 64  1  0  0  0
 49119  1  0  0  0
 50 51  1  0  0  0
 50120  1  0  0  0
 50121  1  0  0  0
 51 52  1  0  0  0
 51122  1  0  0  0
 51123  1  0  0  0
 52124  1  0  0  0
 52125  1  0  0  0
 53 54  1  0  0  0
 54 55  2  0  0  0
 54126  1  0  0  0
 55 57  1  0  0  0
 55127  1  0  0  0
 56 69  2  0  0  0
 57 58  2  0  0  0
 57128  1  0  0  0
 58129  1  0  0  0
 59 60  1  0  0  0
 59 61  1  0  0  0
 59 62  1  0  0  0
 60130  1  0  0  0
 60131  1  0  0  0
 60132  1  0  0  0
 61133  1  0  0  0
 61134  1  0  0  0
 61135  1  0  0  0
 62136  1  0  0  0
 62137  1  0  0  0
 62138  1  0  0  0
 63 65  1  0  0  0
 63139  1  0  0  0
 63140  1  0  0  0
 63141  1  0  0  0
 64142  1  0  0  0
 65143  1  0  0  0
 68 81  1  0  0  0
 71 74  1  0  0  0
 71144  1  0  0  0
 71145  1  0  0  0
 71146  1  0  0  0
 72 75  1  0  0  0
 72147  1  0  0  0
 72148  1  0  0  0
 72149  1  0  0  0
 73 83  1  0  0  0
 73150  1  0  0  0
 73151  1  0  0  0
 73152  1  0  0  0
 74 78  1  0  0  0
 74153  1  0  0  0
 74154  1  0  0  0
 75155  1  0  0  0
 75156  1  0  0  0
 75 82  1  0  0  0
 76 77  1  0  0  0
 76 79  1  0  0  0
 76157  1  0  0  0
 76158  1  0  0  0
 77 83  1  0  0  0
 77159  1  0  0  0
 77160  1  0  0  0
 78161  1  0  0  0
 78162  1  0  0  0
 78 84  1  0  0  0
 79 84  1  0  0  0
 79163  1  0  0  0
 79164  1  0  0  0
 80 82  1  0  0  0
 80 84  1  0  0  0
 80165  1  0  0  0
 80166  1  0  0  0
 81 82  1  0  0  0
 81167  1  0  0  0
 81168  1  0  0  0
 82169  1  0  0  0
 84170  1  0  0  0
M  CHG  1  84   1
M  ISO  4   1 100  68 101  81 101  83 100
M  END
> <chiral flag>
0

> <version>
0

> <s_m_source_file>
/data/baiqing/PycharmProjects/Reinvent-master-3.2/result/LINK_invent/BTK/process_docking_weight1_custom_sum_contain_oxygen_bond_distance_aromatic_linkinvent_7_9_3/rearranged_h_0102.sdf

> <i_m_source_file_index>
58

> <r_mmod_Potential_Energy-OPLS-2005>
376.167846679688

> <r_mmod_Stretch_Energy-OPLS-2005>
140.795944213867

> <r_mmod_Bend_Energy-OPLS-2005>
226.647476196289

> <r_mmod_Torsional_Energy-OPLS-2005>
368.639617919922

> <r_mmod_Improper_Torsional_Energy-OPLS-2005>
4.75441837310791

> <r_mmod_Van_der_Waal_Energy-OPLS-2005>
111.449203491211

> <r_mmod_Electrostatic_Energy-OPLS-2005>
-122.630332946777

> <r_mmod_Solvation_Energy-OPLS-2005>
-425.426177978516

> <b_mmod_Minimization_Converged-OPLS-2005>
0

> <r_mmod_RMS_Derivative-OPLS-2005>
4.13759183883667

$$$$
59
                    3D
 Structure written by MMmdl.
157165  0  0  1  0            999 V2000
  -30.6328  -15.0224   20.3468 C   0  0  0  0  0  0
  -30.3730  -12.6142   19.5770 C   0  0  0  0  0  0
  -29.5549  -12.4596   18.2845 C   0  0  0  0  0  0
  -28.0425  -12.7297   18.5119 C   0  0  0  0  0  0
  -27.6968  -12.7942   20.0114 C   0  0  2  0  0  0
  -28.6276  -13.5559   20.9736 C   0  0  0  0  0  0
  -25.2922  -13.7542   20.5371 C   0  0  0  0  0  0
  -24.1783  -13.0315   20.8889 C   0  0  0  0  0  0
  -24.5765  -11.6625   20.8978 C   0  0  0  0  0  0
  -23.8513  -10.4133   21.0825 C   0  0  0  0  0  0
  -24.3257   -9.4094   21.9487 C   0  0  0  0  0  0
  -23.6073   -8.2052   22.0935 C   0  0  0  0  0  0
  -22.4084   -8.0105   21.3576 C   0  0  0  0  0  0
  -21.9639   -9.0115   20.4735 C   0  0  0  0  0  0
  -22.6916  -10.1964   20.3221 C   0  0  0  0  0  0
  -21.6793   -6.0696   22.5268 C   0  0  0  0  0  0
  -21.4060   -6.5687   23.8193 C   0  0  0  0  0  0
  -21.3583   -5.6834   24.9139 C   0  0  0  0  0  0
  -21.6023   -4.3110   24.7219 C   0  0  0  0  0  0
  -21.8829   -3.8141   23.4340 C   0  0  0  0  0  0
  -21.9165   -4.6927   22.3387 C   0  0  0  0  0  0
  -22.7960  -13.5526   21.1634 C   0  0  0  0  0  0
  -22.1667   -4.2167   21.0968 F   0  0  0  0  0  0
  -21.5539   -3.4559   25.7693 F   0  0  0  0  0  0
  -29.8818  -13.8502   20.2941 N   0  0  0  0  0  0
  -26.2903  -12.7943   20.3615 N   0  0  0  0  0  0
  -25.8408  -11.5506   20.5977 N   0  0  0  0  0  0
  -22.0598  -12.8662   22.0327 N   0  0  0  0  0  0
  -25.5216  -15.1164   20.3670 N   0  0  0  0  0  0
  -31.8448  -14.8591   20.1995 O   0  0  0  0  0  0
  -21.6521   -6.8706   21.4163 O   0  0  0  0  0  0
  -22.3750  -14.5790   20.6363 O   0  0  0  0  0  0
  -24.6542  -31.8371   23.1790 C   0  0  0  0  0  0
  -25.9265  -32.4658   23.8221 C   0  0  1  0  0  0
  -27.1984  -27.0843   20.1112 C   0  0  0  0  0  0
  -25.5975  -33.8467   24.2154 N   0  0  0  0  0  0
  -23.4547  -30.4516   21.5300 C   0  0  2  0  0  0
  -24.8938  -28.8665   20.0965 C   0  0  0  0  0  0
  -22.7612  -29.4467   22.4875 C   0  0  0  0  0  0
  -18.0304  -28.1400   22.8475 C   0  0  0  0  0  0
  -24.1484  -36.7222   23.2641 C   0  0  0  0  0  0
  -26.0123  -30.6880   21.3844 C   0  0  0  0  0  0
  -26.0726  -29.2960   20.7178 C   0  0  0  0  0  0
  -27.2235  -28.4160   20.7072 C   0  0  0  0  0  0
  -26.0022  -26.7660   19.4476 C   0  0  0  0  0  0
  -24.8733  -27.6199   19.4464 C   0  0  0  0  0  0
  -23.6763  -29.7775   20.1488 C   0  0  0  0  0  0
  -25.4132  -36.3032   24.0326 C   0  0  1  0  0  0
  -20.5916  -28.3726   23.1248 C   0  0  2  0  0  0
  -20.6788  -26.9419   22.5427 C   0  0  0  0  0  0
  -19.5758  -26.6380   21.5235 C   0  0  0  0  0  0
  -18.1938  -26.7940   22.1630 C   0  0  0  0  0  0
  -19.1556  -28.8892   23.2850 C   0  0  0  0  0  0
  -18.9467  -30.1495   23.8875 C   0  0  0  0  0  0
  -17.6458  -30.6599   24.0560 C   0  0  0  0  0  0
  -25.9094  -34.9405   23.5063 C   0  0  0  0  0  0
  -16.5352  -29.9089   23.6340 C   0  0  0  0  0  0
  -16.7286  -28.6506   23.0360 C   0  0  0  0  0  0
  -26.4519  -31.6536   25.0695 C   0  0  0  0  0  0
  -25.3639  -31.3727   26.1339 C   0  0  0  0  0  0
  -27.0364  -30.2931   24.6283 C   0  0  0  0  0  0
  -27.6080  -32.4263   25.7470 C   0  0  0  0  0  0
  -27.5589  -37.1776   24.8486 C   0  0  0  0  0  0
  -21.4293  -29.3019   22.3628 N   0  0  0  0  0  0
  -26.4308  -37.3757   23.9405 N   0  0  0  0  0  0
  -24.7276  -31.0167   22.0858 N   0  0  0  0  0  0
  -23.4243  -28.8056   23.3075 O   0  0  0  0  0  0
  -28.2505  -26.0919   20.2225 O   0  0  0  0  0  0
  -26.5696  -34.8901   22.4645 O   0  0  0  0  0  0
  -23.5638  -32.1262   23.6954 O   0  0  0  0  0  0
  -28.7935  -20.3001   20.7053 C   0  0  0  0  0  0
  -28.6752  -20.9201   18.6358 C   0  0  0  0  0  0
  -28.5080  -21.5110   19.8735 C   0  0  0  0  0  0
  -29.0064  -19.0617   20.0171 C   0  0  0  0  0  0
  -27.8811  -23.1750   21.7742 C   0  0  0  0  0  0
  -26.4425  -22.9814   19.7556 C   0  0  0  0  0  0
  -28.8468  -18.6256   17.5379 C   0  0  0  0  0  0
  -29.0481  -17.4417   20.4210 C   0  0  0  0  0  0
  -28.3851  -24.6144   19.6523 C   0  0  0  0  0  0
  -27.9075  -23.0684   20.2433 C   0  0  0  0  0  0
  -28.8679  -19.5131   18.6994 N   0  0  0  0  0  0
  -30.2013  -16.3868   20.1830 N   0  0  0  0  0  0
  -31.4444  -12.6218   19.3696 H   0  0  0  0  0  0
  -30.2067  -11.7524   20.2231 H   0  0  0  0  0  0
  -29.7337  -11.4607   17.8846 H   0  0  0  0  0  0
  -29.9476  -13.1463   17.5287 H   0  0  0  0  0  0
  -27.4433  -11.9638   18.0099 H   0  0  0  0  0  0
  -27.7719  -13.6769   18.0570 H   0  0  0  0  0  0
  -28.0177  -11.7774   20.2556 H   0  0  0  0  0  0
  -28.1326  -14.4763   21.2866 H   0  0  0  0  0  0
  -28.8084  -12.9928   21.8941 H   0  0  0  0  0  0
  -25.2435   -9.5647   22.4955 H   0  0  0  0  0  0
  -23.9851   -7.4543   22.7748 H   0  0  0  0  0  0
  -21.0600   -8.8570   19.9001 H   0  0  0  0  0  0
  -22.3516  -10.9501   19.6276 H   0  0  0  0  0  0
  -21.2177   -7.6213   23.9705 H   0  0  0  0  0  0
  -21.1415   -6.0580   25.9036 H   0  0  0  0  0  0
  -22.0677   -2.7613   23.2815 H   0  0  0  0  0  0
  -22.4088  -12.0190   22.4449 H   0  0  0  0  0  0
  -21.1417  -13.2006   22.2755 H   0  0  0  0  0  0
  -24.7603  -15.7841   20.4446 H   0  0  0  0  0  0
  -26.4011  -15.5397   20.0980 H   0  0  0  0  0  0
  -26.7323  -32.5222   23.0930 H   0  0  0  0  0  0
  -25.0100  -33.9546   25.0292 H   0  0  0  0  0  0
  -22.7606  -31.2824   21.3797 H   0  0  0  0  0  0
  -23.3788  -35.9515   23.3298 H   0  0  0  0  0  0
  -24.3569  -36.8863   22.2063 H   0  0  0  0  0  0
  -23.7199  -37.6396   23.6677 H   0  0  0  0  0  0
  -26.1843  -31.4314   20.6066 H   0  0  0  0  0  0
  -26.8841  -30.7321   22.0270 H   0  0  0  0  0  0
  -28.1314  -28.7360   21.2027 H   0  0  0  0  0  0
  -25.9049  -25.8127   18.9532 H   0  0  0  0  0  0
  -23.9752  -27.3011   18.9351 H   0  0  0  0  0  0
  -23.8078  -30.5530   19.3948 H   0  0  0  0  0  0
  -22.7862  -29.2241   19.8496 H   0  0  0  0  0  0
  -25.1310  -36.1856   25.0830 H   0  0  0  0  0  0
  -20.9997  -28.3300   24.1372 H   0  0  0  0  0  0
  -20.5690  -26.2318   23.3638 H   0  0  0  0  0  0
  -21.6649  -26.7421   22.1205 H   0  0  0  0  0  0
  -19.6897  -25.6285   21.1283 H   0  0  0  0  0  0
  -19.6703  -27.3179   20.6754 H   0  0  0  0  0  0
  -17.4207  -26.6715   21.4030 H   0  0  0  0  0  0
  -18.0303  -26.0102   22.9039 H   0  0  0  0  0  0
  -19.7935  -30.7335   24.2222 H   0  0  0  0  0  0
  -17.4990  -31.6265   24.5174 H   0  0  0  0  0  0
  -15.5339  -30.2970   23.7677 H   0  0  0  0  0  0
  -15.8690  -28.0820   22.7076 H   0  0  0  0  0  0
  -24.5882  -30.7024   25.7600 H   0  0  0  0  0  0
  -24.8730  -32.2892   26.4642 H   0  0  0  0  0  0
  -25.7863  -30.8962   27.0197 H   0  0  0  0  0  0
  -26.2974  -29.6683   24.1254 H   0  0  0  0  0  0
  -27.3932  -29.7225   25.4870 H   0  0  0  0  0  0
  -27.8908  -30.4175   23.9626 H   0  0  0  0  0  0
  -27.2752  -33.3624   26.1955 H   0  0  0  0  0  0
  -28.3926  -32.6703   25.0295 H   0  0  0  0  0  0
  -28.0684  -31.8411   26.5439 H   0  0  0  0  0  0
  -28.2610  -38.0070   24.7541 H   0  0  0  0  0  0
  -28.1072  -36.2605   24.6302 H   0  0  0  0  0  0
  -27.2293  -37.1413   25.8886 H   0  0  0  0  0  0
  -20.9541  -29.8686   21.6742 H   0  0  0  0  0  0
  -26.0168  -38.2819   24.1413 H   0  0  0  0  0  0
  -28.7325  -20.3241   21.7818 H   0  0  0  0  0  0
  -28.5558  -21.3730   17.6632 H   0  0  0  0  0  0
  -27.3031  -22.3625   22.2106 H   0  0  0  0  0  0
  -27.4223  -24.1112   22.0956 H   0  0  0  0  0  0
  -28.8879  -23.1349   22.1845 H   0  0  0  0  0  0
  -25.9475  -22.0795   20.1224 H   0  0  0  0  0  0
  -26.4091  -22.9468   18.6618 H   0  0  0  0  0  0
  -25.8485  -23.8403   20.0740 H   0  0  0  0  0  0
  -28.8729  -19.1905   16.6096 H   0  0  0  0  0  0
  -27.9301  -18.0312   17.5523 H   0  0  0  0  0  0
  -29.6912  -17.9438   17.5648 H   0  0  0  0  0  0
  -28.2075  -16.9845   19.9060 H   0  0  0  0  0  0
  -28.7858  -17.3763   21.4752 H   0  0  0  0  0  0
  -28.1017  -24.6703   18.6007 H   0  0  0  0  0  0
  -29.4733  -24.5327   19.6144 H   0  0  0  0  0  0
  -31.0489  -16.9078   20.0119 H   0  0  0  0  0  0
  1 25  1  0  0  0
  1 30  2  0  0  0
  1 82  1  0  0  0
  2  3  1  0  0  0
  2 25  1  0  0  0
  2 83  1  0  0  0
  2 84  1  0  0  0
  3  4  1  0  0  0
  3 85  1  0  0  0
  3 86  1  0  0  0
  4  5  1  0  0  0
  4 87  1  0  0  0
  4 88  1  0  0  0
  5  6  1  0  0  0
  5 26  1  0  0  0
  5 89  1  0  0  0
  6 25  1  0  0  0
  6 90  1  0  0  0
  6 91  1  0  0  0
  7  8  2  0  0  0
  7 26  1  0  0  0
  7 29  1  0  0  0
  8  9  1  0  0  0
  8 22  1  0  0  0
  9 10  1  0  0  0
  9 27  2  0  0  0
 10 11  2  0  0  0
 10 15  1  0  0  0
 11 12  1  0  0  0
 11 92  1  0  0  0
 12 13  2  0  0  0
 12 93  1  0  0  0
 13 14  1  0  0  0
 13 31  1  0  0  0
 14 15  2  0  0  0
 14 94  1  0  0  0
 15 95  1  0  0  0
 16 17  2  0  0  0
 16 21  1  0  0  0
 16 31  1  0  0  0
 17 18  1  0  0  0
 17 96  1  0  0  0
 18 19  2  0  0  0
 18 97  1  0  0  0
 19 20  1  0  0  0
 19 24  1  0  0  0
 20 21  2  0  0  0
 20 98  1  0  0  0
 21 23  1  0  0  0
 22 28  1  0  0  0
 22 32  2  0  0  0
 26 27  1  0  0  0
 28 99  1  0  0  0
 28100  1  0  0  0
 29101  1  0  0  0
 29102  1  0  0  0
 33 34  1  0  0  0
 33 66  1  0  0  0
 33 70  2  0  0  0
 34 36  1  0  0  0
 34 59  1  0  0  0
 34103  1  0  0  0
 35 44  2  0  0  0
 35 45  1  0  0  0
 35 68  1  0  0  0
 36 56  1  0  0  0
 36104  1  0  0  0
 37 39  1  0  0  0
 37 47  1  0  0  0
 37 66  1  0  0  0
 37105  1  0  0  0
 38 43  2  0  0  0
 38 46  1  0  0  0
 38 47  1  0  0  0
 39 64  1  0  0  0
 39 67  2  0  0  0
 40 52  1  0  0  0
 40 53  2  0  0  0
 40 58  1  0  0  0
 41106  1  0  0  0
 41107  1  0  0  0
 41108  1  0  0  0
 41 48  1  0  0  0
 42 43  1  0  0  0
 42 66  1  0  0  0
 42109  1  0  0  0
 42110  1  0  0  0
 43 44  1  0  0  0
 44111  1  0  0  0
 45 46  2  0  0  0
 45112  1  0  0  0
 46113  1  0  0  0
 47114  1  0  0  0
 47115  1  0  0  0
 48 56  1  0  0  0
 48 65  1  0  0  0
 48116  1  0  0  0
 49 50  1  0  0  0
 49 53  1  0  0  0
 49 64  1  0  0  0
 49117  1  0  0  0
 50 51  1  0  0  0
 50118  1  0  0  0
 50119  1  0  0  0
 51 52  1  0  0  0
 51120  1  0  0  0
 51121  1  0  0  0
 52122  1  0  0  0
 52123  1  0  0  0
 53 54  1  0  0  0
 54 55  2  0  0  0
 54124  1  0  0  0
 55 57  1  0  0  0
 55125  1  0  0  0
 56 69  2  0  0  0
 57 58  2  0  0  0
 57126  1  0  0  0
 58127  1  0  0  0
 59 60  1  0  0  0
 59 61  1  0  0  0
 59 62  1  0  0  0
 60128  1  0  0  0
 60129  1  0  0  0
 60130  1  0  0  0
 61131  1  0  0  0
 61132  1  0  0  0
 61133  1  0  0  0
 62134  1  0  0  0
 62135  1  0  0  0
 62136  1  0  0  0
 63 65  1  0  0  0
 63137  1  0  0  0
 63138  1  0  0  0
 63139  1  0  0  0
 64140  1  0  0  0
 65141  1  0  0  0
 68 79  1  0  0  0
 71 73  1  0  0  0
 71 74  2  0  0  0
 71142  1  0  0  0
 72 73  2  0  0  0
 72 81  1  0  0  0
 72143  1  0  0  0
 73 80  1  0  0  0
 74 78  1  0  0  0
 74 81  1  0  0  0
 75144  1  0  0  0
 75145  1  0  0  0
 75146  1  0  0  0
 75 80  1  0  0  0
 76 80  1  0  0  0
 76147  1  0  0  0
 76148  1  0  0  0
 76149  1  0  0  0
 77 81  1  0  0  0
 77150  1  0  0  0
 77151  1  0  0  0
 77152  1  0  0  0
 78 82  1  0  0  0
 78153  1  0  0  0
 78154  1  0  0  0
 79 80  1  0  0  0
 79155  1  0  0  0
 79156  1  0  0  0
 82157  1  0  0  0
M  ISO  4   1 100  68 101  79 101  82 100
M  END
> <chiral flag>
0

> <version>
0

> <s_m_source_file>
/data/baiqing/PycharmProjects/Reinvent-master-3.2/result/LINK_invent/BTK/process_docking_weight1_custom_sum_contain_oxygen_bond_distance_aromatic_linkinvent_7_9_3/rearranged_h_0102.sdf

> <i_m_source_file_index>
59

> <r_mmod_Potential_Energy-OPLS-2005>
849.506958007812

> <r_mmod_Stretch_Energy-OPLS-2005>
318.795013427734

> <r_mmod_Bend_Energy-OPLS-2005>
445.564727783203

> <r_mmod_Torsional_Energy-OPLS-2005>
280.262237548828

> <r_mmod_Improper_Torsional_Energy-OPLS-2005>
14.2316360473633

> <r_mmod_Van_der_Waal_Energy-OPLS-2005>
115.470985412598

> <r_mmod_Electrostatic_Energy-OPLS-2005>
-432.152770996094

> <r_mmod_Solvation_Energy-OPLS-2005>
-203.841918945312

> <b_mmod_Minimization_Converged-OPLS-2005>
0

> <r_mmod_RMS_Derivative-OPLS-2005>
13.9164800643921

$$$$
60
                    3D
 Structure written by MMmdl.
169177  0  0  1  0            999 V2000
  -30.6237  -14.7197   20.4856 C   0  0  0  0  0  0
  -30.4367  -12.4435   19.4664 C   0  0  0  0  0  0
  -29.5094  -12.4850   18.2320 C   0  0  0  0  0  0
  -28.0412  -12.3043   18.6573 C   0  0  0  0  0  0
  -27.6412  -13.2185   19.8477 C   0  0  2  0  0  0
  -28.6875  -13.1492   20.9826 C   0  0  0  0  0  0
  -25.2446  -13.8070   20.5685 C   0  0  0  0  0  0
  -24.1758  -13.0357   20.9284 C   0  0  0  0  0  0
  -24.6382  -11.6856   20.8822 C   0  0  0  0  0  0
  -23.9031  -10.4267   21.0474 C   0  0  0  0  0  0
  -24.3586   -9.4168   21.9231 C   0  0  0  0  0  0
  -23.6266   -8.2191   22.0759 C   0  0  0  0  0  0
  -22.4245   -8.0253   21.3548 C   0  0  0  0  0  0
  -21.9892   -9.0225   20.4651 C   0  0  0  0  0  0
  -22.7214  -10.2124   20.3078 C   0  0  0  0  0  0
  -21.6848   -6.0703   22.5263 C   0  0  0  0  0  0
  -21.3992   -6.5610   23.8205 C   0  0  0  0  0  0
  -21.3683   -5.6766   24.9161 C   0  0  0  0  0  0
  -21.6057   -4.3016   24.7227 C   0  0  0  0  0  0
  -21.8832   -3.8124   23.4330 C   0  0  0  0  0  0
  -21.9211   -4.6925   22.3393 C   0  0  0  0  0  0
  -22.7783  -13.5192   21.1913 C   0  0  0  0  0  0
  -22.1671   -4.2121   21.0960 F   0  0  0  0  0  0
  -21.5669   -3.4496   25.7739 F   0  0  0  0  0  0
  -29.9860  -13.5049   20.3962 N   0  0  0  0  0  0
  -26.2909  -12.9321   20.3263 N   0  0  0  0  0  0
  -25.9302  -11.6468   20.5763 N   0  0  0  0  0  0
  -22.0356  -12.8232   22.0435 N   0  0  0  0  0  0
  -25.3966  -15.1754   20.4007 N   0  0  0  0  0  0
  -31.8160  -14.8097   20.1831 O   0  0  0  0  0  0
  -21.6618   -6.8835   21.4231 O   0  0  0  0  0  0
  -22.3511  -14.5529   20.6793 O   0  0  0  0  0  0
  -24.6292  -31.8575   23.1949 C   0  0  0  0  0  0
  -25.9149  -32.4767   23.8287 C   0  0  1  0  0  0
  -27.1983  -27.2794   20.1499 C   0  0  0  0  0  0
  -25.5979  -33.8545   24.2274 N   0  0  0  0  0  0
  -23.4190  -30.4841   21.5365 C   0  0  2  0  0  0
  -24.8655  -28.9301   20.0947 C   0  0  0  0  0  0
  -22.7486  -29.4626   22.4881 C   0  0  0  0  0  0
  -18.0312  -28.1304   22.8451 C   0  0  0  0  0  0
  -24.1476  -36.7240   23.2616 C   0  0  0  0  0  0
  -25.9597  -30.7846   21.3624 C   0  0  0  0  0  0
  -26.0333  -29.4055   20.7098 C   0  0  0  0  0  0
  -27.2080  -28.5934   20.7181 C   0  0  0  0  0  0
  -26.0317  -26.8769   19.4742 C   0  0  0  0  0  0
  -24.8708  -27.6788   19.4573 C   0  0  0  0  0  0
  -23.6359  -29.8180   20.1497 C   0  0  0  0  0  0
  -25.4073  -36.3058   24.0351 C   0  0  1  0  0  0
  -20.5912  -28.3641   23.1222 C   0  0  2  0  0  0
  -20.6837  -26.9385   22.5334 C   0  0  0  0  0  0
  -19.5796  -26.6282   21.5171 C   0  0  0  0  0  0
  -18.1946  -26.7859   22.1524 C   0  0  0  0  0  0
  -19.1568  -28.8763   23.2870 C   0  0  0  0  0  0
  -18.9490  -30.1367   23.8919 C   0  0  0  0  0  0
  -17.6490  -30.6504   24.0601 C   0  0  0  0  0  0
  -25.9019  -34.9455   23.5110 C   0  0  0  0  0  0
  -16.5378  -29.9028   23.6301 C   0  0  0  0  0  0
  -16.7301  -28.6447   23.0292 C   0  0  0  0  0  0
  -26.4520  -31.6523   25.0646 C   0  0  0  0  0  0
  -25.3788  -31.3714   26.1430 C   0  0  0  0  0  0
  -27.0332  -30.2949   24.6018 C   0  0  0  0  0  0
  -27.6075  -32.4220   25.7448 C   0  0  0  0  0  0
  -27.5559  -37.1767   24.8475 C   0  0  0  0  0  0
  -21.4193  -29.3054   22.3668 N   0  0  0  0  0  0
  -26.4233  -37.3770   23.9455 N   0  0  0  0  0  0
  -24.6887  -31.0579   22.0893 N   0  0  0  0  0  0
  -23.4242  -28.8191   23.2945 O   0  0  0  0  0  0
  -28.2712  -26.3715   20.2452 O   0  0  0  0  0  0
  -26.5572  -34.8946   22.4664 O   0  0  0  0  0  0
  -23.5460  -32.1373   23.7293 O   0  0  0  0  0  0
  -29.6968  -19.8631   21.2704 C   0  0  0  0  0  0
  -28.4379  -20.2565   19.5089 C   0  0  0  0  0  0
  -29.6328  -18.6300   20.6171 C   0  0  0  0  0  0
  -28.8295  -18.9240   19.4597 C   0  0  0  0  0  0
  -29.7546  -18.8619   16.4022 C   0  0  0  0  0  0
  -26.9756  -26.0195   23.1543 C   0  0  0  0  0  0
  -27.1709  -17.1864   18.8229 C   0  0  0  0  0  0
  -30.3658  -17.2695   21.0523 C   0  0  0  0  0  0
  -28.4009  -18.4058   16.9605 C   0  0  0  0  0  0
  -26.9123  -25.0371   21.9668 C   0  0  0  0  0  0
  -28.3610  -23.6238   20.2441 C   0  0  0  0  0  0
  -28.7652  -22.3267   21.1472 C   0  0  0  0  0  0
  -28.4651  -17.8858   18.4136 C   0  0  1  0  0  0
  -28.1345  -25.0613   20.9900 C   0  0  1  0  0  0
  -28.9754  -20.8962   20.6227 N   0  0  0  0  0  0
  -29.8712  -15.8562   20.7535 N   0  0  0  0  0  0
  -31.4737  -12.5778   19.1606 H   0  0  0  0  0  0
  -30.3934  -11.4651   19.9505 H   0  0  0  0  0  0
  -29.7931  -11.6968   17.5316 H   0  0  0  0  0  0
  -29.6333  -13.4334   17.7075 H   0  0  0  0  0  0
  -27.9339  -11.2620   18.9561 H   0  0  0  0  0  0
  -27.3689  -12.4473   17.8113 H   0  0  0  0  0  0
  -27.6455  -14.2370   19.4637 H   0  0  0  0  0  0
  -28.7266  -12.1526   21.4288 H   0  0  0  0  0  0
  -28.4231  -13.8297   21.7923 H   0  0  0  0  0  0
  -25.2715   -9.5657   22.4824 H   0  0  0  0  0  0
  -23.9981   -7.4597   22.7463 H   0  0  0  0  0  0
  -21.0835   -8.8760   19.8954 H   0  0  0  0  0  0
  -22.3668  -10.9676   19.6195 H   0  0  0  0  0  0
  -21.1904   -7.6110   23.9691 H   0  0  0  0  0  0
  -21.1525   -6.0477   25.9075 H   0  0  0  0  0  0
  -22.0597   -2.7588   23.2824 H   0  0  0  0  0  0
  -22.3888  -11.9894   22.4885 H   0  0  0  0  0  0
  -21.1002  -13.1386   22.2570 H   0  0  0  0  0  0
  -24.5933  -15.7904   20.4459 H   0  0  0  0  0  0
  -26.1779  -15.5878   19.9121 H   0  0  0  0  0  0
  -26.7220  -32.5460   23.1038 H   0  0  0  0  0  0
  -25.0278  -33.9639   25.0545 H   0  0  0  0  0  0
  -22.7127  -31.3050   21.3961 H   0  0  0  0  0  0
  -23.3728  -35.9585   23.3253 H   0  0  0  0  0  0
  -24.3562  -36.8830   22.2022 H   0  0  0  0  0  0
  -23.7222  -37.6433   23.6631 H   0  0  0  0  0  0
  -26.0760  -31.5352   20.5780 H   0  0  0  0  0  0
  -26.8456  -30.8469   21.9853 H   0  0  0  0  0  0
  -28.0967  -28.9416   21.2209 H   0  0  0  0  0  0
  -26.0081  -25.9062   18.9959 H   0  0  0  0  0  0
  -23.9878  -27.3197   18.9479 H   0  0  0  0  0  0
  -23.7635  -30.5971   19.3962 H   0  0  0  0  0  0
  -22.7521  -29.2562   19.8439 H   0  0  0  0  0  0
  -25.1244  -36.1869   25.0833 H   0  0  0  0  0  0
  -21.0033  -28.3213   24.1337 H   0  0  0  0  0  0
  -20.5850  -26.2262   23.3547 H   0  0  0  0  0  0
  -21.6700  -26.7495   22.1070 H   0  0  0  0  0  0
  -19.6934  -25.6178   21.1232 H   0  0  0  0  0  0
  -19.6766  -27.3019   20.6658 H   0  0  0  0  0  0
  -17.4232  -26.6658   21.3886 H   0  0  0  0  0  0
  -18.0254  -25.9939   22.8832 H   0  0  0  0  0  0
  -19.7971  -30.7157   24.2328 H   0  0  0  0  0  0
  -17.5087  -31.6175   24.5240 H   0  0  0  0  0  0
  -15.5378  -30.2957   23.7558 H   0  0  0  0  0  0
  -15.8730  -28.0768   22.6938 H   0  0  0  0  0  0
  -24.5992  -30.6979   25.7868 H   0  0  0  0  0  0
  -24.8950  -32.2900   26.4773 H   0  0  0  0  0  0
  -25.8173  -30.9035   27.0267 H   0  0  0  0  0  0
  -26.2901  -29.6691   24.1050 H   0  0  0  0  0  0
  -27.4075  -29.7178   25.4467 H   0  0  0  0  0  0
  -27.8775  -30.4172   23.9219 H   0  0  0  0  0  0
  -27.2692  -33.3524   26.2017 H   0  0  0  0  0  0
  -28.3961  -32.6705   25.0346 H   0  0  0  0  0  0
  -28.0679  -31.8321   26.5387 H   0  0  0  0  0  0
  -28.2595  -38.0046   24.7528 H   0  0  0  0  0  0
  -28.1033  -36.2571   24.6301 H   0  0  0  0  0  0
  -27.2310  -37.1474   25.8890 H   0  0  0  0  0  0
  -20.9332  -29.8875   21.6997 H   0  0  0  0  0  0
  -26.0094  -38.2836   24.1466 H   0  0  0  0  0  0
  -30.2120  -20.0969   22.1909 H   0  0  0  0  0  0
  -27.8011  -20.8157   18.8376 H   0  0  0  0  0  0
  -29.6586  -19.1533   15.3537 H   0  0  0  0  0  0
  -30.4937  -18.0611   16.4550 H   0  0  0  0  0  0
  -30.1404  -19.7210   16.9539 H   0  0  0  0  0  0
  -27.8983  -25.9219   23.7288 H   0  0  0  0  0  0
  -26.1430  -25.8360   23.8357 H   0  0  0  0  0  0
  -26.8892  -27.0577   22.8407 H   0  0  0  0  0  0
  -27.2267  -16.9145   19.8754 H   0  0  0  0  0  0
  -27.0071  -16.2773   18.2467 H   0  0  0  0  0  0
  -26.2988  -17.8257   18.6944 H   0  0  0  0  0  0
  -30.4572  -17.3069   22.1375 H   0  0  0  0  0  0
  -31.3937  -17.3486   20.6941 H   0  0  0  0  0  0
  -28.0384  -17.5998   16.3227 H   0  0  0  0  0  0
  -27.6681  -19.2084   16.8668 H   0  0  0  0  0  0
  -25.9697  -25.1885   21.4398 H   0  0  0  0  0  0
  -26.8228  -24.0439   22.3986 H   0  0  0  0  0  0
  -27.4692  -23.3969   19.6574 H   0  0  0  0  0  0
  -29.1552  -23.7629   19.5117 H   0  0  0  0  0  0
  -28.0327  -22.2309   21.9482 H   0  0  0  0  0  0
  -29.6902  -22.5915   21.6627 H   0  0  0  0  0  0
  -29.2522  -17.1302   18.4332 H   0  0  0  0  0  0
  -28.9999  -25.1102   21.6505 H   0  0  0  0  0  0
  -28.8842  -15.7053   20.8961 H   0  0  0  0  0  0
  1 25  1  0  0  0
  1 30  2  0  0  0
  1 86  1  0  0  0
  2  3  1  0  0  0
  2 25  1  0  0  0
  2 87  1  0  0  0
  2 88  1  0  0  0
  3  4  1  0  0  0
  3 89  1  0  0  0
  3 90  1  0  0  0
  4  5  1  0  0  0
  4 91  1  0  0  0
  4 92  1  0  0  0
  5  6  1  0  0  0
  5 26  1  0  0  0
  5 93  1  0  0  0
  6 25  1  0  0  0
  6 94  1  0  0  0
  6 95  1  0  0  0
  7  8  2  0  0  0
  7 26  1  0  0  0
  7 29  1  0  0  0
  8  9  1  0  0  0
  8 22  1  0  0  0
  9 10  1  0  0  0
  9 27  2  0  0  0
 10 11  2  0  0  0
 10 15  1  0  0  0
 11 12  1  0  0  0
 11 96  1  0  0  0
 12 13  2  0  0  0
 12 97  1  0  0  0
 13 14  1  0  0  0
 13 31  1  0  0  0
 14 15  2  0  0  0
 14 98  1  0  0  0
 15 99  1  0  0  0
 16 17  2  0  0  0
 16 21  1  0  0  0
 16 31  1  0  0  0
 17 18  1  0  0  0
 17100  1  0  0  0
 18 19  2  0  0  0
 18101  1  0  0  0
 19 20  1  0  0  0
 19 24  1  0  0  0
 20 21  2  0  0  0
 20102  1  0  0  0
 21 23  1  0  0  0
 22 28  1  0  0  0
 22 32  2  0  0  0
 26 27  1  0  0  0
 28103  1  0  0  0
 28104  1  0  0  0
 29105  1  0  0  0
 29106  1  0  0  0
 33 34  1  0  0  0
 33 66  1  0  0  0
 33 70  2  0  0  0
 34 36  1  0  0  0
 34 59  1  0  0  0
 34107  1  0  0  0
 35 44  2  0  0  0
 35 45  1  0  0  0
 35 68  1  0  0  0
 36 56  1  0  0  0
 36108  1  0  0  0
 37 39  1  0  0  0
 37 47  1  0  0  0
 37 66  1  0  0  0
 37109  1  0  0  0
 38 43  2  0  0  0
 38 46  1  0  0  0
 38 47  1  0  0  0
 39 64  1  0  0  0
 39 67  2  0  0  0
 40 52  1  0  0  0
 40 53  2  0  0  0
 40 58  1  0  0  0
 41110  1  0  0  0
 41111  1  0  0  0
 41112  1  0  0  0
 41 48  1  0  0  0
 42 43  1  0  0  0
 42 66  1  0  0  0
 42113  1  0  0  0
 42114  1  0  0  0
 43 44  1  0  0  0
 44115  1  0  0  0
 45 46  2  0  0  0
 45116  1  0  0  0
 46117  1  0  0  0
 47118  1  0  0  0
 47119  1  0  0  0
 48 56  1  0  0  0
 48 65  1  0  0  0
 48120  1  0  0  0
 49 50  1  0  0  0
 49 53  1  0  0  0
 49 64  1  0  0  0
 49121  1  0  0  0
 50 51  1  0  0  0
 50122  1  0  0  0
 50123  1  0  0  0
 51 52  1  0  0  0
 51124  1  0  0  0
 51125  1  0  0  0
 52126  1  0  0  0
 52127  1  0  0  0
 53 54  1  0  0  0
 54 55  2  0  0  0
 54128  1  0  0  0
 55 57  1  0  0  0
 55129  1  0  0  0
 56 69  2  0  0  0
 57 58  2  0  0  0
 57130  1  0  0  0
 58131  1  0  0  0
 59 60  1  0  0  0
 59 61  1  0  0  0
 59 62  1  0  0  0
 60132  1  0  0  0
 60133  1  0  0  0
 60134  1  0  0  0
 61135  1  0  0  0
 61136  1  0  0  0
 61137  1  0  0  0
 62138  1  0  0  0
 62139  1  0  0  0
 62140  1  0  0  0
 63 65  1  0  0  0
 63141  1  0  0  0
 63142  1  0  0  0
 63143  1  0  0  0
 64144  1  0  0  0
 65145  1  0  0  0
 68 84  1  0  0  0
 71 73  2  0  0  0
 71 85  1  0  0  0
 71146  1  0  0  0
 72 74  2  0  0  0
 72 85  1  0  0  0
 72147  1  0  0  0
 73 74  1  0  0  0
 73 78  1  0  0  0
 74 83  1  0  0  0
 75 79  1  0  0  0
 75148  1  0  0  0
 75149  1  0  0  0
 75150  1  0  0  0
 76 80  1  0  0  0
 76151  1  0  0  0
 76152  1  0  0  0
 76153  1  0  0  0
 77154  1  0  0  0
 77155  1  0  0  0
 77156  1  0  0  0
 77 83  1  0  0  0
 78 86  1  0  0  0
 78157  1  0  0  0
 78158  1  0  0  0
 79 83  1  0  0  0
 79159  1  0  0  0
 79160  1  0  0  0
 80161  1  0  0  0
 80162  1  0  0  0
 80 84  1  0  0  0
 81 82  1  0  0  0
 81 84  1  0  0  0
 81163  1  0  0  0
 81164  1  0  0  0
 82 85  1  0  0  0
 82165  1  0  0  0
 82166  1  0  0  0
 83167  1  0  0  0
 84168  1  0  0  0
 86169  1  0  0  0
M  ISO  4   1 100  68 101  84 101  86 100
M  END
> <chiral flag>
0

> <version>
0

> <s_m_source_file>
/data/baiqing/PycharmProjects/Reinvent-master-3.2/result/LINK_invent/BTK/process_docking_weight1_custom_sum_contain_oxygen_bond_distance_aromatic_linkinvent_7_9_3/rearranged_h_0102.sdf

> <i_m_source_file_index>
60

> <r_mmod_Potential_Energy-OPLS-2005>
122.215553283691

> <r_mmod_Stretch_Energy-OPLS-2005>
127.015693664551

> <r_mmod_Bend_Energy-OPLS-2005>
193.679397583008

> <r_mmod_Torsional_Energy-OPLS-2005>
248.67333984375

> <r_mmod_Improper_Torsional_Energy-OPLS-2005>
5.52753782272339

> <r_mmod_Van_der_Waal_Energy-OPLS-2005>
103.36238861084

> <r_mmod_Electrostatic_Energy-OPLS-2005>
-440.551025390625

> <r_mmod_Solvation_Energy-OPLS-2005>
-197.224761962891

> <b_mmod_Minimization_Converged-OPLS-2005>
0

> <r_mmod_RMS_Derivative-OPLS-2005>
6.67940425872803

$$$$
61
                    3D
 Structure written by MMmdl.
169177  0  0  1  0            999 V2000
  -30.5228  -14.9917   20.4174 C   0  0  0  0  0  0
  -30.4538  -12.6272   19.4782 C   0  0  0  0  0  0
  -29.5223  -12.5311   18.2461 C   0  0  0  0  0  0
  -28.0577  -12.3119   18.6726 C   0  0  0  0  0  0
  -27.6314  -13.2484   19.8321 C   0  0  2  0  0  0
  -28.6811  -13.2888   20.9620 C   0  0  0  0  0  0
  -25.2488  -13.8210   20.5715 C   0  0  0  0  0  0
  -24.1796  -13.0435   20.9239 C   0  0  0  0  0  0
  -24.6413  -11.6926   20.8769 C   0  0  0  0  0  0
  -23.9088  -10.4302   21.0418 C   0  0  0  0  0  0
  -24.3632   -9.4212   21.9194 C   0  0  0  0  0  0
  -23.6298   -8.2251   22.0759 C   0  0  0  0  0  0
  -22.4285   -8.0293   21.3547 C   0  0  0  0  0  0
  -21.9924   -9.0273   20.4657 C   0  0  0  0  0  0
  -22.7258  -10.2152   20.3065 C   0  0  0  0  0  0
  -21.6851   -6.0743   22.5279 C   0  0  0  0  0  0
  -21.4014   -6.5641   23.8215 C   0  0  0  0  0  0
  -21.3652   -5.6796   24.9177 C   0  0  0  0  0  0
  -21.6035   -4.3057   24.7227 C   0  0  0  0  0  0
  -21.8821   -3.8149   23.4348 C   0  0  0  0  0  0
  -21.9201   -4.6969   22.3404 C   0  0  0  0  0  0
  -22.7822  -13.5228   21.1871 C   0  0  0  0  0  0
  -22.1667   -4.2147   21.0982 F   0  0  0  0  0  0
  -21.5627   -3.4543   25.7742 F   0  0  0  0  0  0
  -29.9441  -13.7231   20.3499 N   0  0  0  0  0  0
  -26.2913  -12.9437   20.3245 N   0  0  0  0  0  0
  -25.9346  -11.6568   20.5739 N   0  0  0  0  0  0
  -22.0459  -12.8233   22.0425 N   0  0  0  0  0  0
  -25.4152  -15.1935   20.4152 N   0  0  0  0  0  0
  -31.7397  -15.0632   20.2140 O   0  0  0  0  0  0
  -21.6642   -6.8893   21.4241 O   0  0  0  0  0  0
  -22.3521  -14.5529   20.6709 O   0  0  0  0  0  0
  -24.6448  -31.8406   23.1852 C   0  0  0  0  0  0
  -25.9204  -32.4676   23.8236 C   0  0  1  0  0  0
  -27.2239  -27.1086   20.1605 C   0  0  0  0  0  0
  -25.5904  -33.8480   24.2135 N   0  0  0  0  0  0
  -23.4516  -30.4552   21.5328 C   0  0  2  0  0  0
  -24.9043  -28.8745   20.1140 C   0  0  0  0  0  0
  -22.7568  -29.4517   22.4876 C   0  0  0  0  0  0
  -18.0282  -28.1381   22.8450 C   0  0  0  0  0  0
  -24.1496  -36.7267   23.2646 C   0  0  0  0  0  0
  -26.0095  -30.7031   21.3919 C   0  0  0  0  0  0
  -26.0821  -29.3113   20.7341 C   0  0  0  0  0  0
  -27.2436  -28.4463   20.7371 C   0  0  0  0  0  0
  -26.0259  -26.7831   19.4919 C   0  0  0  0  0  0
  -24.8916  -27.6262   19.4728 C   0  0  0  0  0  0
  -23.6809  -29.7786   20.1552 C   0  0  0  0  0  0
  -25.4118  -36.3021   24.0314 C   0  0  1  0  0  0
  -20.5889  -28.3719   23.1215 C   0  0  2  0  0  0
  -20.6771  -26.9411   22.5405 C   0  0  0  0  0  0
  -19.5756  -26.6363   21.5198 C   0  0  0  0  0  0
  -18.1927  -26.7901   22.1614 C   0  0  0  0  0  0
  -19.1540  -28.8865   23.2809 C   0  0  0  0  0  0
  -18.9473  -30.1454   23.8843 C   0  0  0  0  0  0
  -17.6473  -30.6578   24.0532 C   0  0  0  0  0  0
  -25.9068  -34.9403   23.5051 C   0  0  0  0  0  0
  -16.5355  -29.9073   23.6328 C   0  0  0  0  0  0
  -16.7266  -28.6494   23.0341 C   0  0  0  0  0  0
  -26.4510  -31.6554   25.0701 C   0  0  0  0  0  0
  -25.3678  -31.3742   26.1394 C   0  0  0  0  0  0
  -27.0412  -30.2932   24.6353 C   0  0  0  0  0  0
  -27.6011  -32.4374   25.7473 C   0  0  0  0  0  0
  -27.5574  -37.1767   24.8443 C   0  0  0  0  0  0
  -21.4254  -29.3051   22.3611 N   0  0  0  0  0  0
  -26.4276  -37.3736   23.9406 N   0  0  0  0  0  0
  -24.7214  -31.0216   22.0906 N   0  0  0  0  0  0
  -23.4173  -28.8041   23.3034 O   0  0  0  0  0  0
  -28.2813  -26.1179   20.1849 O   0  0  0  0  0  0
  -26.5703  -34.8921   22.4666 O   0  0  0  0  0  0
  -23.5567  -32.1307   23.7057 O   0  0  0  0  0  0
  -30.1309  -18.5307   18.4487 C   0  0  0  0  0  0
  -29.5735  -20.6709   18.2447 C   0  0  0  0  0  0
  -30.0560  -19.6104   17.5406 C   0  0  0  0  0  0
  -29.7330  -18.9032   19.7040 C   0  0  0  0  0  0
  -27.4981  -17.5250   14.4622 C   0  0  0  0  0  0
  -29.7703  -16.6538   15.1225 C   0  0  0  0  0  0
  -27.9591  -24.5674   22.0473 C   0  0  0  0  0  0
  -30.4461  -19.5916   16.0790 C   0  0  0  0  0  0
  -29.8397  -17.7185   20.8167 C   0  0  0  0  0  0
  -29.3105  -19.1731   15.1240 C   0  0  0  0  0  0
  -28.9611  -23.2565   19.9988 C   0  0  0  0  0  0
  -28.8301  -21.5977   20.4596 C   0  0  0  0  0  0
  -28.7278  -17.7609   15.3525 C   0  0  0  0  0  0
  -28.0412  -24.5965   20.5130 C   0  0  2  0  0  0
  -29.3824  -20.3772   19.5953 N   0  0  0  0  0  0
  -29.7006  -16.1548   20.5157 N   0  0  0  0  0  0
  -31.4766  -12.8182   19.1494 H   0  0  0  0  0  0
  -30.4860  -11.6832   20.0240 H   0  0  0  0  0  0
  -29.8466  -11.7211   17.5919 H   0  0  0  0  0  0
  -29.5972  -13.4474   17.6587 H   0  0  0  0  0  0
  -27.9619  -11.2739   18.9887 H   0  0  0  0  0  0
  -27.3904  -12.4332   17.8186 H   0  0  0  0  0  0
  -27.5879  -14.2465   19.3947 H   0  0  0  0  0  0
  -28.7876  -12.3116   21.4349 H   0  0  0  0  0  0
  -28.3781  -13.9835   21.7470 H   0  0  0  0  0  0
  -25.2773   -9.5679   22.4784 H   0  0  0  0  0  0
  -23.9997   -7.4638   22.7487 H   0  0  0  0  0  0
  -21.0846   -8.8806   19.8970 H   0  0  0  0  0  0
  -22.3712  -10.9701   19.6188 H   0  0  0  0  0  0
  -21.1996   -7.6150   23.9712 H   0  0  0  0  0  0
  -21.1468   -6.0529   25.9077 H   0  0  0  0  0  0
  -22.0604   -2.7610   23.2854 H   0  0  0  0  0  0
  -22.4068  -11.9903   22.4828 H   0  0  0  0  0  0
  -21.1082  -13.1285   22.2622 H   0  0  0  0  0  0
  -24.6422  -15.8416   20.5196 H   0  0  0  0  0  0
  -26.2518  -15.6342   20.0560 H   0  0  0  0  0  0
  -26.7267  -32.5264   23.0954 H   0  0  0  0  0  0
  -24.9865  -33.9561   25.0155 H   0  0  0  0  0  0
  -22.7568  -31.2818   21.3740 H   0  0  0  0  0  0
  -23.3764  -35.9593   23.3271 H   0  0  0  0  0  0
  -24.3546  -36.8965   22.2060 H   0  0  0  0  0  0
  -23.7281  -37.6455   23.6739 H   0  0  0  0  0  0
  -26.1760  -31.4579   20.6214 H   0  0  0  0  0  0
  -26.8721  -30.7457   22.0445 H   0  0  0  0  0  0
  -28.1441  -28.7793   21.2352 H   0  0  0  0  0  0
  -25.9478  -25.8364   18.9789 H   0  0  0  0  0  0
  -23.9990  -27.2940   18.9599 H   0  0  0  0  0  0
  -23.8114  -30.5503   19.3952 H   0  0  0  0  0  0
  -22.7974  -29.2156   19.8504 H   0  0  0  0  0  0
  -25.1313  -36.1817   25.0804 H   0  0  0  0  0  0
  -20.9954  -28.3336   24.1349 H   0  0  0  0  0  0
  -20.5654  -26.2327   23.3643 H   0  0  0  0  0  0
  -21.6639  -26.7408   22.1215 H   0  0  0  0  0  0
  -19.6913  -25.6266   21.1253 H   0  0  0  0  0  0
  -19.6696  -27.3163   20.6720 H   0  0  0  0  0  0
  -17.4192  -26.6615   21.4024 H   0  0  0  0  0  0
  -18.0327  -26.0056   22.9033 H   0  0  0  0  0  0
  -19.7956  -30.7244   24.2219 H   0  0  0  0  0  0
  -17.5045  -31.6260   24.5149 H   0  0  0  0  0  0
  -15.5358  -30.2962   23.7709 H   0  0  0  0  0  0
  -15.8657  -28.0813   22.7081 H   0  0  0  0  0  0
  -24.5833  -30.7125   25.7681 H   0  0  0  0  0  0
  -24.8904  -32.2942   26.4786 H   0  0  0  0  0  0
  -25.7944  -30.8899   27.0192 H   0  0  0  0  0  0
  -26.3057  -29.6581   24.1404 H   0  0  0  0  0  0
  -27.4005  -29.7284   25.4966 H   0  0  0  0  0  0
  -27.8972  -30.4110   23.9701 H   0  0  0  0  0  0
  -27.2551  -33.3697   26.1941 H   0  0  0  0  0  0
  -28.3843  -32.6903   25.0314 H   0  0  0  0  0  0
  -28.0659  -31.8596   26.5469 H   0  0  0  0  0  0
  -28.2547  -38.0102   24.7521 H   0  0  0  0  0  0
  -28.1118  -36.2629   24.6235 H   0  0  0  0  0  0
  -27.2278  -37.1360   25.8839 H   0  0  0  0  0  0
  -20.9489  -29.8786   21.6791 H   0  0  0  0  0  0
  -26.0140  -38.2799   24.1431 H   0  0  0  0  0  0
  -30.4726  -17.5341   18.2002 H   0  0  0  0  0  0
  -29.3608  -21.6521   17.8517 H   0  0  0  0  0  0
  -27.0629  -16.5418   14.6470 H   0  0  0  0  0  0
  -27.7513  -17.5808   13.4024 H   0  0  0  0  0  0
  -26.7223  -18.2665   14.6578 H   0  0  0  0  0  0
  -29.3304  -15.6641   15.2514 H   0  0  0  0  0  0
  -30.5970  -16.7305   15.8279 H   0  0  0  0  0  0
  -30.1864  -16.7010   14.1154 H   0  0  0  0  0  0
  -27.6702  -23.5817   22.4111 H   0  0  0  0  0  0
  -27.2208  -25.2761   22.4261 H   0  0  0  0  0  0
  -28.9175  -24.8193   22.5009 H   0  0  0  0  0  0
  -31.3112  -18.9393   15.9543 H   0  0  0  0  0  0
  -30.7903  -20.5896   15.8006 H   0  0  0  0  0  0
  -29.0943  -17.9301   21.5842 H   0  0  0  0  0  0
  -30.7935  -17.8385   21.3331 H   0  0  0  0  0  0
  -29.6728  -19.2447   14.0966 H   0  0  0  0  0  0
  -28.5101  -19.9089   15.2078 H   0  0  0  0  0  0
  -28.8749  -23.3126   18.9169 H   0  0  0  0  0  0
  -30.0011  -23.5234   20.1889 H   0  0  0  0  0  0
  -27.7662  -21.3976   20.5921 H   0  0  0  0  0  0
  -29.2534  -21.4904   21.4591 H   0  0  0  0  0  0
  -28.3856  -17.6927   16.3862 H   0  0  0  0  0  0
  -27.0371  -24.3625   20.1618 H   0  0  0  0  0  0
  -28.7301  -15.8835   20.5326 H   0  0  0  0  0  0
  1 25  1  0  0  0
  1 30  2  0  0  0
  1 86  1  0  0  0
  2  3  1  0  0  0
  2 25  1  0  0  0
  2 87  1  0  0  0
  2 88  1  0  0  0
  3  4  1  0  0  0
  3 89  1  0  0  0
  3 90  1  0  0  0
  4  5  1  0  0  0
  4 91  1  0  0  0
  4 92  1  0  0  0
  5  6  1  0  0  0
  5 26  1  0  0  0
  5 93  1  0  0  0
  6 25  1  0  0  0
  6 94  1  0  0  0
  6 95  1  0  0  0
  7  8  2  0  0  0
  7 26  1  0  0  0
  7 29  1  0  0  0
  8  9  1  0  0  0
  8 22  1  0  0  0
  9 10  1  0  0  0
  9 27  2  0  0  0
 10 11  2  0  0  0
 10 15  1  0  0  0
 11 12  1  0  0  0
 11 96  1  0  0  0
 12 13  2  0  0  0
 12 97  1  0  0  0
 13 14  1  0  0  0
 13 31  1  0  0  0
 14 15  2  0  0  0
 14 98  1  0  0  0
 15 99  1  0  0  0
 16 17  2  0  0  0
 16 21  1  0  0  0
 16 31  1  0  0  0
 17 18  1  0  0  0
 17100  1  0  0  0
 18 19  2  0  0  0
 18101  1  0  0  0
 19 20  1  0  0  0
 19 24  1  0  0  0
 20 21  2  0  0  0
 20102  1  0  0  0
 21 23  1  0  0  0
 22 28  1  0  0  0
 22 32  2  0  0  0
 26 27  1  0  0  0
 28103  1  0  0  0
 28104  1  0  0  0
 29105  1  0  0  0
 29106  1  0  0  0
 33 34  1  0  0  0
 33 66  1  0  0  0
 33 70  2  0  0  0
 34 36  1  0  0  0
 34 59  1  0  0  0
 34107  1  0  0  0
 35 44  2  0  0  0
 35 45  1  0  0  0
 35 68  1  0  0  0
 36 56  1  0  0  0
 36108  1  0  0  0
 37 39  1  0  0  0
 37 47  1  0  0  0
 37 66  1  0  0  0
 37109  1  0  0  0
 38 43  2  0  0  0
 38 46  1  0  0  0
 38 47  1  0  0  0
 39 64  1  0  0  0
 39 67  2  0  0  0
 40 52  1  0  0  0
 40 53  2  0  0  0
 40 58  1  0  0  0
 41110  1  0  0  0
 41111  1  0  0  0
 41112  1  0  0  0
 41 48  1  0  0  0
 42 43  1  0  0  0
 42 66  1  0  0  0
 42113  1  0  0  0
 42114  1  0  0  0
 43 44  1  0  0  0
 44115  1  0  0  0
 45 46  2  0  0  0
 45116  1  0  0  0
 46117  1  0  0  0
 47118  1  0  0  0
 47119  1  0  0  0
 48 56  1  0  0  0
 48 65  1  0  0  0
 48120  1  0  0  0
 49 50  1  0  0  0
 49 53  1  0  0  0
 49 64  1  0  0  0
 49121  1  0  0  0
 50 51  1  0  0  0
 50122  1  0  0  0
 50123  1  0  0  0
 51 52  1  0  0  0
 51124  1  0  0  0
 51125  1  0  0  0
 52126  1  0  0  0
 52127  1  0  0  0
 53 54  1  0  0  0
 54 55  2  0  0  0
 54128  1  0  0  0
 55 57  1  0  0  0
 55129  1  0  0  0
 56 69  2  0  0  0
 57 58  2  0  0  0
 57130  1  0  0  0
 58131  1  0  0  0
 59 60  1  0  0  0
 59 61  1  0  0  0
 59 62  1  0  0  0
 60132  1  0  0  0
 60133  1  0  0  0
 60134  1  0  0  0
 61135  1  0  0  0
 61136  1  0  0  0
 61137  1  0  0  0
 62138  1  0  0  0
 62139  1  0  0  0
 62140  1  0  0  0
 63 65  1  0  0  0
 63141  1  0  0  0
 63142  1  0  0  0
 63143  1  0  0  0
 64144  1  0  0  0
 65145  1  0  0  0
 68 84  1  0  0  0
 71 73  1  0  0  0
 71 74  2  0  0  0
 71146  1  0  0  0
 72 73  2  0  0  0
 72 85  1  0  0  0
 72147  1  0  0  0
 73 78  1  0  0  0
 74 79  1  0  0  0
 74 85  1  0  0  0
 75148  1  0  0  0
 75149  1  0  0  0
 75150  1  0  0  0
 75 83  1  0  0  0
 76 83  1  0  0  0
 76151  1  0  0  0
 76152  1  0  0  0
 76153  1  0  0  0
 77154  1  0  0  0
 77155  1  0  0  0
 77156  1  0  0  0
 77 84  1  0  0  0
 78 80  1  0  0  0
 78157  1  0  0  0
 78158  1  0  0  0
 79 86  1  0  0  0
 79159  1  0  0  0
 79160  1  0  0  0
 80 83  1  0  0  0
 80161  1  0  0  0
 80162  1  0  0  0
 81 82  1  0  0  0
 81 84  1  0  0  0
 81163  1  0  0  0
 81164  1  0  0  0
 82 85  1  0  0  0
 82165  1  0  0  0
 82166  1  0  0  0
 83167  1  0  0  0
 84168  1  0  0  0
 86169  1  0  0  0
M  ISO  4   1 100  68 101  84 101  86 100
M  END
> <chiral flag>
0

> <version>
0

> <s_m_source_file>
/data/baiqing/PycharmProjects/Reinvent-master-3.2/result/LINK_invent/BTK/process_docking_weight1_custom_sum_contain_oxygen_bond_distance_aromatic_linkinvent_7_9_3/rearranged_h_0102.sdf

> <i_m_source_file_index>
61

> <r_mmod_Potential_Energy-OPLS-2005>
590.188415527344

> <r_mmod_Stretch_Energy-OPLS-2005>
319.836395263672

> <r_mmod_Bend_Energy-OPLS-2005>
339.941864013672

> <r_mmod_Torsional_Energy-OPLS-2005>
235.739471435547

> <r_mmod_Improper_Torsional_Energy-OPLS-2005>
4.75061845779419

> <r_mmod_Van_der_Waal_Energy-OPLS-2005>
102.465759277344

> <r_mmod_Electrostatic_Energy-OPLS-2005>
-422.661285400391

> <r_mmod_Solvation_Energy-OPLS-2005>
-210.489181518555

> <b_mmod_Minimization_Converged-OPLS-2005>
0

> <r_mmod_RMS_Derivative-OPLS-2005>
2.65084290504456

$$$$
62
                    3D
 Structure written by MMmdl.
167175  0  0  1  0            999 V2000
  -30.4226  -15.3596   20.3283 C   0  0  0  0  0  0
  -30.4406  -12.8726   19.5413 C   0  0  0  0  0  0
  -29.5438  -12.5962   18.3061 C   0  0  0  0  0  0
  -28.0995  -12.2945   18.7311 C   0  0  0  0  0  0
  -27.6097  -13.2830   19.8156 C   0  0  2  0  0  0
  -28.6373  -13.5072   20.9509 C   0  0  0  0  0  0
  -25.2384  -13.8256   20.5702 C   0  0  0  0  0  0
  -24.1755  -13.0470   20.9232 C   0  0  0  0  0  0
  -24.6407  -11.6950   20.8729 C   0  0  0  0  0  0
  -23.9087  -10.4319   21.0382 C   0  0  0  0  0  0
  -24.3646   -9.4232   21.9158 C   0  0  0  0  0  0
  -23.6314   -8.2259   22.0743 C   0  0  0  0  0  0
  -22.4302   -8.0280   21.3536 C   0  0  0  0  0  0
  -21.9936   -9.0238   20.4627 C   0  0  0  0  0  0
  -22.7260  -10.2133   20.3022 C   0  0  0  0  0  0
  -21.6869   -6.0735   22.5258 C   0  0  0  0  0  0
  -21.4028   -6.5631   23.8191 C   0  0  0  0  0  0
  -21.3685   -5.6785   24.9153 C   0  0  0  0  0  0
  -21.6062   -4.3045   24.7204 C   0  0  0  0  0  0
  -21.8811   -3.8142   23.4309 C   0  0  0  0  0  0
  -21.9200   -4.6959   22.3384 C   0  0  0  0  0  0
  -22.7761  -13.5203   21.1868 C   0  0  0  0  0  0
  -22.1661   -4.2143   21.0956 F   0  0  0  0  0  0
  -21.5649   -3.4536   25.7717 F   0  0  0  0  0  0
  -29.8686  -14.0328   20.3315 N   0  0  0  0  0  0
  -26.2820  -12.9547   20.3181 N   0  0  0  0  0  0
  -25.9348  -11.6654   20.5690 N   0  0  0  0  0  0
  -22.0419  -12.8215   22.0413 N   0  0  0  0  0  0
  -25.4090  -15.1978   20.4093 N   0  0  0  0  0  0
  -31.6314  -15.3423   20.0582 O   0  0  0  0  0  0
  -21.6659   -6.8875   21.4228 O   0  0  0  0  0  0
  -22.3450  -14.5499   20.6662 O   0  0  0  0  0  0
  -24.6747  -31.8183   23.1666 C   0  0  0  0  0  0
  -25.9380  -32.4580   23.8155 C   0  0  1  0  0  0
  -27.1968  -26.8443   20.1658 C   0  0  0  0  0  0
  -25.6020  -33.8405   24.2086 N   0  0  0  0  0  0
  -23.4879  -30.4304   21.5254 C   0  0  2  0  0  0
  -24.9334  -28.8089   20.1129 C   0  0  0  0  0  0
  -22.7720  -29.4399   22.4819 C   0  0  0  0  0  0
  -18.0339  -28.1423   22.8462 C   0  0  0  0  0  0
  -24.1508  -36.7178   23.2630 C   0  0  0  0  0  0
  -26.0635  -30.5987   21.4012 C   0  0  0  0  0  0
  -26.1268  -29.1805   20.7437 C   0  0  0  0  0  0
  -27.2507  -28.2223   20.7429 C   0  0  0  0  0  0
  -25.9876  -26.6710   19.4514 C   0  0  0  0  0  0
  -24.8929  -27.5773   19.4483 C   0  0  0  0  0  0
  -23.7250  -29.7478   20.1533 C   0  0  0  0  0  0
  -25.4155  -36.2972   24.0294 C   0  0  1  0  0  0
  -20.5977  -28.3761   23.1206 C   0  0  2  0  0  0
  -20.6818  -26.9444   22.5417 C   0  0  0  0  0  0
  -19.5795  -26.6371   21.5233 C   0  0  0  0  0  0
  -18.1975  -26.7954   22.1628 C   0  0  0  0  0  0
  -19.1600  -28.8918   23.2813 C   0  0  0  0  0  0
  -18.9506  -30.1518   23.8841 C   0  0  0  0  0  0
  -17.6494  -30.6612   24.0564 C   0  0  0  0  0  0
  -25.9144  -34.9354   23.5013 C   0  0  0  0  0  0
  -16.5388  -29.9096   23.6357 C   0  0  0  0  0  0
  -16.7319  -28.6527   23.0355 C   0  0  0  0  0  0
  -26.4587  -31.6534   25.0713 C   0  0  0  0  0  0
  -25.3672  -31.3814   26.1345 C   0  0  0  0  0  0
  -27.0435  -30.2880   24.6455 C   0  0  0  0  0  0
  -27.6101  -32.4308   25.7515 C   0  0  0  0  0  0
  -27.5595  -37.1752   24.8469 C   0  0  0  0  0  0
  -21.4387  -29.3047   22.3553 N   0  0  0  0  0  0
  -26.4300  -37.3714   23.9412 N   0  0  0  0  0  0
  -24.7673  -30.9753   22.0852 N   0  0  0  0  0  0
  -23.4256  -28.7961   23.3047 O   0  0  0  0  0  0
  -28.1552  -25.6686   20.2647 O   0  0  0  0  0  0
  -26.5755  -34.8882   22.4629 O   0  0  0  0  0  0
  -23.5800  -32.1175   23.6722 O   0  0  0  0  0  0
  -29.7170  -22.6830   21.4809 C   0  0  0  0  0  0
  -30.5162  -21.6367   22.0074 C   0  0  0  0  0  0
  -30.4354  -20.2805   21.5293 C   0  0  0  0  0  0
  -28.8363  -22.5389   20.4098 C   0  0  0  0  0  0
  -29.5360  -19.9195   20.4786 C   0  0  0  0  0  0
  -33.7745  -18.2288   21.9966 C   0  0  0  0  0  0
  -30.6277  -22.0360   24.4771 C   0  0  0  0  0  0
  -32.1842  -23.3846   22.9388 C   0  0  0  0  0  0
  -26.5828  -23.7382   20.8309 C   0  0  0  0  0  0
  -31.3741  -19.2139   22.1188 C   0  0  0  0  0  0
  -29.6665  -18.2525   19.8555 C   0  0  0  0  0  0
  -32.7506  -19.2234   21.4150 C   0  0  0  0  0  0
  -31.4354  -22.0446   23.1711 C   0  0  0  0  0  0
  -27.8770  -24.0060   20.0449 C   0  0  1  0  0  0
  -28.7838  -21.1083   19.9597 N   0  0  0  0  0  0
  -29.6665  -16.6518   20.4401 N   0  0  0  0  0  0
  -31.4510  -13.0928   19.1989 H   0  0  0  0  0  0
  -30.5378  -11.9820   20.1648 H   0  0  0  0  0  0
  -29.9464  -11.7661   17.7245 H   0  0  0  0  0  0
  -29.5513  -13.4672   17.6485 H   0  0  0  0  0  0
  -28.0725  -11.2785   19.1273 H   0  0  0  0  0  0
  -27.4372  -12.3048   17.8648 H   0  0  0  0  0  0
  -27.5105  -14.2335   19.2916 H   0  0  0  0  0  0
  -28.8252  -12.5909   21.5147 H   0  0  0  0  0  0
  -28.2513  -14.2410   21.6591 H   0  0  0  0  0  0
  -25.2790   -9.5726   22.4712 H   0  0  0  0  0  0
  -24.0031   -7.4686   22.7485 H   0  0  0  0  0  0
  -21.0862   -8.8732   19.8949 H   0  0  0  0  0  0
  -22.3692  -10.9643   19.6106 H   0  0  0  0  0  0
  -21.2005   -7.6137   23.9688 H   0  0  0  0  0  0
  -21.1538   -6.0514   25.9059 H   0  0  0  0  0  0
  -22.0576   -2.7595   23.2798 H   0  0  0  0  0  0
  -22.4066  -11.9934   22.4881 H   0  0  0  0  0  0
  -21.1000  -13.1184   22.2527 H   0  0  0  0  0  0
  -24.6462  -15.8592   20.5079 H   0  0  0  0  0  0
  -26.2455  -15.6161   20.0252 H   0  0  0  0  0  0
  -26.7458  -32.5087   23.0869 H   0  0  0  0  0  0
  -25.0041  -33.9485   25.0142 H   0  0  0  0  0  0
  -22.8051  -31.2669   21.3618 H   0  0  0  0  0  0
  -23.3812  -35.9466   23.3265 H   0  0  0  0  0  0
  -24.3560  -36.8851   22.2043 H   0  0  0  0  0  0
  -23.7220  -37.6336   23.6706 H   0  0  0  0  0  0
  -26.2451  -31.3381   20.6185 H   0  0  0  0  0  0
  -26.9261  -30.6620   22.0523 H   0  0  0  0  0  0
  -28.1599  -28.5098   21.2530 H   0  0  0  0  0  0
  -25.8346  -25.7475   18.9132 H   0  0  0  0  0  0
  -23.9821  -27.2983   18.9351 H   0  0  0  0  0  0
  -23.8922  -30.5246   19.4081 H   0  0  0  0  0  0
  -22.8239  -29.2221   19.8285 H   0  0  0  0  0  0
  -25.1358  -36.1754   25.0781 H   0  0  0  0  0  0
  -21.0053  -28.3354   24.1337 H   0  0  0  0  0  0
  -20.5723  -26.2371   23.3643 H   0  0  0  0  0  0
  -21.6673  -26.7421   22.1208 H   0  0  0  0  0  0
  -19.6946  -25.6265   21.1302 H   0  0  0  0  0  0
  -19.6745  -27.3152   20.6738 H   0  0  0  0  0  0
  -17.4242  -26.6715   21.4022 H   0  0  0  0  0  0
  -18.0357  -26.0111   22.9036 H   0  0  0  0  0  0
  -19.7979  -30.7365   24.2154 H   0  0  0  0  0  0
  -17.5047  -31.6281   24.5189 H   0  0  0  0  0  0
  -15.5394  -30.2983   23.7710 H   0  0  0  0  0  0
  -15.8717  -28.0840   22.7073 H   0  0  0  0  0  0
  -24.5869  -30.7179   25.7609 H   0  0  0  0  0  0
  -24.8845  -32.3025   26.4614 H   0  0  0  0  0  0
  -25.7831  -30.9039   27.0228 H   0  0  0  0  0  0
  -26.3068  -29.6574   24.1474 H   0  0  0  0  0  0
  -27.3950  -29.7231   25.5099 H   0  0  0  0  0  0
  -27.9041  -30.4017   23.9862 H   0  0  0  0  0  0
  -27.2728  -33.3658   26.1985 H   0  0  0  0  0  0
  -28.3978  -32.6778   25.0390 H   0  0  0  0  0  0
  -28.0715  -31.8503   26.5508 H   0  0  0  0  0  0
  -28.2600  -38.0062   24.7557 H   0  0  0  0  0  0
  -28.1121  -36.2603   24.6280 H   0  0  0  0  0  0
  -27.2317  -37.1367   25.8870 H   0  0  0  0  0  0
  -20.9659  -29.8730   21.6672 H   0  0  0  0  0  0
  -26.0154  -38.2773   24.1424 H   0  0  0  0  0  0
  -29.7406  -23.6603   21.9295 H   0  0  0  0  0  0
  -34.2526  -18.6293   22.8922 H   0  0  0  0  0  0
  -34.5730  -18.0154   21.2832 H   0  0  0  0  0  0
  -33.3161  -17.2736   22.2546 H   0  0  0  0  0  0
  -30.2043  -21.0441   24.6503 H   0  0  0  0  0  0
  -29.8052  -22.7516   24.4472 H   0  0  0  0  0  0
  -31.2479  -22.2894   25.3345 H   0  0  0  0  0  0
  -32.8781  -23.3109   22.1013 H   0  0  0  0  0  0
  -32.7694  -23.6746   23.8092 H   0  0  0  0  0  0
  -31.5374  -24.2362   22.7401 H   0  0  0  0  0  0
  -26.2565  -22.7106   20.6783 H   0  0  0  0  0  0
  -25.7428  -24.3724   20.5692 H   0  0  0  0  0  0
  -26.7658  -23.8562   21.8982 H   0  0  0  0  0  0
  -30.9413  -18.2192   22.0444 H   0  0  0  0  0  0
  -31.4748  -19.3482   23.1964 H   0  0  0  0  0  0
  -30.6052  -18.2945   19.3028 H   0  0  0  0  0  0
  -28.9156  -18.2311   19.0630 H   0  0  0  0  0  0
  -32.6102  -19.0123   20.3549 H   0  0  0  0  0  0
  -33.1722  -20.2264   21.4507 H   0  0  0  0  0  0
  -32.2333  -21.3193   23.2962 H   0  0  0  0  0  0
  -27.6413  -23.9248   18.9810 H   0  0  0  0  0  0
  -28.7639  -16.4553   20.8448 H   0  0  0  0  0  0
  1 25  1  0  0  0
  1 30  2  0  0  0
  1 86  1  0  0  0
  2  3  1  0  0  0
  2 25  1  0  0  0
  2 87  1  0  0  0
  2 88  1  0  0  0
  3  4  1  0  0  0
  3 89  1  0  0  0
  3 90  1  0  0  0
  4  5  1  0  0  0
  4 91  1  0  0  0
  4 92  1  0  0  0
  5  6  1  0  0  0
  5 26  1  0  0  0
  5 93  1  0  0  0
  6 25  1  0  0  0
  6 94  1  0  0  0
  6 95  1  0  0  0
  7  8  2  0  0  0
  7 26  1  0  0  0
  7 29  1  0  0  0
  8  9  1  0  0  0
  8 22  1  0  0  0
  9 10  1  0  0  0
  9 27  2  0  0  0
 10 11  2  0  0  0
 10 15  1  0  0  0
 11 12  1  0  0  0
 11 96  1  0  0  0
 12 13  2  0  0  0
 12 97  1  0  0  0
 13 14  1  0  0  0
 13 31  1  0  0  0
 14 15  2  0  0  0
 14 98  1  0  0  0
 15 99  1  0  0  0
 16 17  2  0  0  0
 16 21  1  0  0  0
 16 31  1  0  0  0
 17 18  1  0  0  0
 17100  1  0  0  0
 18 19  2  0  0  0
 18101  1  0  0  0
 19 20  1  0  0  0
 19 24  1  0  0  0
 20 21  2  0  0  0
 20102  1  0  0  0
 21 23  1  0  0  0
 22 28  1  0  0  0
 22 32  2  0  0  0
 26 27  1  0  0  0
 28103  1  0  0  0
 28104  1  0  0  0
 29105  1  0  0  0
 29106  1  0  0  0
 33 34  1  0  0  0
 33 66  1  0  0  0
 33 70  2  0  0  0
 34 36  1  0  0  0
 34 59  1  0  0  0
 34107  1  0  0  0
 35 44  2  0  0  0
 35 45  1  0  0  0
 35 68  1  0  0  0
 36 56  1  0  0  0
 36108  1  0  0  0
 37 39  1  0  0  0
 37 47  1  0  0  0
 37 66  1  0  0  0
 37109  1  0  0  0
 38 43  2  0  0  0
 38 46  1  0  0  0
 38 47  1  0  0  0
 39 64  1  0  0  0
 39 67  2  0  0  0
 40 52  1  0  0  0
 40 53  2  0  0  0
 40 58  1  0  0  0
 41110  1  0  0  0
 41111  1  0  0  0
 41112  1  0  0  0
 41 48  1  0  0  0
 42 43  1  0  0  0
 42 66  1  0  0  0
 42113  1  0  0  0
 42114  1  0  0  0
 43 44  1  0  0  0
 44115  1  0  0  0
 45 46  2  0  0  0
 45116  1  0  0  0
 46117  1  0  0  0
 47118  1  0  0  0
 47119  1  0  0  0
 48 56  1  0  0  0
 48 65  1  0  0  0
 48120  1  0  0  0
 49 50  1  0  0  0
 49 53  1  0  0  0
 49 64  1  0  0  0
 49121  1  0  0  0
 50 51  1  0  0  0
 50122  1  0  0  0
 50123  1  0  0  0
 51 52  1  0  0  0
 51124  1  0  0  0
 51125  1  0  0  0
 52126  1  0  0  0
 52127  1  0  0  0
 53 54  1  0  0  0
 54 55  2  0  0  0
 54128  1  0  0  0
 55 57  1  0  0  0
 55129  1  0  0  0
 56 69  2  0  0  0
 57 58  2  0  0  0
 57130  1  0  0  0
 58131  1  0  0  0
 59 60  1  0  0  0
 59 61  1  0  0  0
 59 62  1  0  0  0
 60132  1  0  0  0
 60133  1  0  0  0
 60134  1  0  0  0
 61135  1  0  0  0
 61136  1  0  0  0
 61137  1  0  0  0
 62138  1  0  0  0
 62139  1  0  0  0
 62140  1  0  0  0
 63 65  1  0  0  0
 63141  1  0  0  0
 63142  1  0  0  0
 63143  1  0  0  0
 64144  1  0  0  0
 65145  1  0  0  0
 68 84  1  0  0  0
 71 72  2  0  0  0
 71 74  1  0  0  0
 71146  1  0  0  0
 72 73  1  0  0  0
 72 83  1  0  0  0
 73 75  2  0  0  0
 73 80  1  0  0  0
 74 84  1  0  0  0
 74 85  2  0  0  0
 75 81  1  0  0  0
 75 85  1  0  0  0
 76 82  1  0  0  0
 76147  1  0  0  0
 76148  1  0  0  0
 76149  1  0  0  0
 77150  1  0  0  0
 77151  1  0  0  0
 77152  1  0  0  0
 77 83  1  0  0  0
 78 83  1  0  0  0
 78153  1  0  0  0
 78154  1  0  0  0
 78155  1  0  0  0
 79156  1  0  0  0
 79157  1  0  0  0
 79158  1  0  0  0
 79 84  1  0  0  0
 80 82  1  0  0  0
 80159  1  0  0  0
 80160  1  0  0  0
 81 86  1  0  0  0
 81161  1  0  0  0
 81162  1  0  0  0
 82163  1  0  0  0
 82164  1  0  0  0
 83165  1  0  0  0
 84166  1  0  0  0
 86167  1  0  0  0
M  ISO  4   1 100  68 101  84 101  86 100
M  END
> <chiral flag>
0

> <version>
0

> <s_m_source_file>
/data/baiqing/PycharmProjects/Reinvent-master-3.2/result/LINK_invent/BTK/process_docking_weight1_custom_sum_contain_oxygen_bond_distance_aromatic_linkinvent_7_9_3/rearranged_h_0102.sdf

> <i_m_source_file_index>
62

> <r_mmod_Potential_Energy-OPLS-2005>
1307.19104003906

> <r_mmod_Stretch_Energy-OPLS-2005>
721.979675292969

> <r_mmod_Bend_Energy-OPLS-2005>
498.795867919922

> <r_mmod_Torsional_Energy-OPLS-2005>
221.755065917969

> <r_mmod_Improper_Torsional_Energy-OPLS-2005>
6.79088401794434

> <r_mmod_Van_der_Waal_Energy-OPLS-2005>
133.744430541992

> <r_mmod_Electrostatic_Energy-OPLS-2005>
-628.521850585938

> <r_mmod_Solvation_Energy-OPLS-2005>
-224.313827514648

> <b_mmod_Minimization_Converged-OPLS-2005>
0

> <r_mmod_RMS_Derivative-OPLS-2005>
5.93122291564941

$$$$
63
                    3D
 Structure written by MMmdl.
163171  0  0  1  0            999 V2000
  -30.6027  -14.7561   20.4864 C   0  0  0  0  0  0
  -30.4324  -12.4782   19.4621 C   0  0  0  0  0  0
  -29.5023  -12.5307   18.2316 C   0  0  0  0  0  0
  -28.0372  -12.3324   18.6637 C   0  0  0  0  0  0
  -27.6441  -13.2268   19.8695 C   0  0  2  0  0  0
  -28.6933  -13.1610   21.0019 C   0  0  0  0  0  0
  -25.2497  -13.8172   20.5763 C   0  0  0  0  0  0
  -24.1768  -13.0388   20.9201 C   0  0  0  0  0  0
  -24.6371  -11.6875   20.8755 C   0  0  0  0  0  0
  -23.9041  -10.4251   21.0402 C   0  0  0  0  0  0
  -24.3622   -9.4206   21.9178 C   0  0  0  0  0  0
  -23.6316   -8.2243   22.0777 C   0  0  0  0  0  0
  -22.4294   -8.0275   21.3576 C   0  0  0  0  0  0
  -21.9891   -9.0206   20.4652 C   0  0  0  0  0  0
  -22.7197  -10.2096   20.3062 C   0  0  0  0  0  0
  -21.6859   -6.0748   22.5304 C   0  0  0  0  0  0
  -21.3998   -6.5669   23.8225 C   0  0  0  0  0  0
  -21.3672   -5.6820   24.9202 C   0  0  0  0  0  0
  -21.6042   -4.3077   24.7228 C   0  0  0  0  0  0
  -21.8827   -3.8167   23.4354 C   0  0  0  0  0  0
  -21.9174   -4.6975   22.3407 C   0  0  0  0  0  0
  -22.7789  -13.5154   21.1855 C   0  0  0  0  0  0
  -22.1647   -4.2177   21.0974 F   0  0  0  0  0  0
  -21.5631   -3.4554   25.7730 F   0  0  0  0  0  0
  -29.9834  -13.5281   20.4102 N   0  0  0  0  0  0
  -26.2961  -12.9381   20.3420 N   0  0  0  0  0  0
  -25.9334  -11.6517   20.5818 N   0  0  0  0  0  0
  -22.0462  -12.8063   22.0384 N   0  0  0  0  0  0
  -25.4037  -15.1909   20.4222 N   0  0  0  0  0  0
  -31.7881  -14.8619   20.1610 O   0  0  0  0  0  0
  -21.6691   -6.8870   21.4266 O   0  0  0  0  0  0
  -22.3416  -14.5443   20.6722 O   0  0  0  0  0  0
  -24.6297  -31.8549   23.1951 C   0  0  0  0  0  0
  -25.9144  -32.4744   23.8304 C   0  0  1  0  0  0
  -27.2131  -27.2693   20.1546 C   0  0  0  0  0  0
  -25.5945  -33.8544   24.2218 N   0  0  0  0  0  0
  -23.4247  -30.4776   21.5367 C   0  0  2  0  0  0
  -24.8788  -28.9230   20.1124 C   0  0  0  0  0  0
  -22.7500  -29.4610   22.4886 C   0  0  0  0  0  0
  -18.0316  -28.1386   22.8467 C   0  0  0  0  0  0
  -24.1507  -36.7296   23.2631 C   0  0  0  0  0  0
  -25.9692  -30.7724   21.3761 C   0  0  0  0  0  0
  -26.0482  -29.3937   20.7267 C   0  0  0  0  0  0
  -27.2235  -28.5784   20.7403 C   0  0  0  0  0  0
  -26.0333  -26.8608   19.5080 C   0  0  0  0  0  0
  -24.8755  -27.6636   19.4926 C   0  0  0  0  0  0
  -23.6500  -29.8115   20.1533 C   0  0  0  0  0  0
  -25.4120  -36.3038   24.0311 C   0  0  1  0  0  0
  -20.5910  -28.3710   23.1247 C   0  0  2  0  0  0
  -20.6829  -26.9435   22.5391 C   0  0  0  0  0  0
  -19.5798  -26.6380   21.5207 C   0  0  0  0  0  0
  -18.1965  -26.7929   22.1599 C   0  0  0  0  0  0
  -19.1563  -28.8857   23.2852 C   0  0  0  0  0  0
  -18.9487  -30.1448   23.8882 C   0  0  0  0  0  0
  -17.6487  -30.6590   24.0561 C   0  0  0  0  0  0
  -25.9071  -34.9430   23.5062 C   0  0  0  0  0  0
  -16.5378  -29.9096   23.6321 C   0  0  0  0  0  0
  -16.7304  -28.6512   23.0331 C   0  0  0  0  0  0
  -26.4520  -31.6561   25.0696 C   0  0  0  0  0  0
  -25.3724  -31.3745   26.1400 C   0  0  0  0  0  0
  -27.0380  -30.2966   24.6216 C   0  0  0  0  0  0
  -27.6054  -32.4318   25.7498 C   0  0  0  0  0  0
  -27.5581  -37.1782   24.8435 C   0  0  0  0  0  0
  -21.4224  -29.3044   22.3627 N   0  0  0  0  0  0
  -26.4278  -37.3746   23.9423 N   0  0  0  0  0  0
  -24.6926  -31.0532   22.0926 N   0  0  0  0  0  0
  -23.4180  -28.8178   23.3029 O   0  0  0  0  0  0
  -28.2679  -26.3361   20.1872 O   0  0  0  0  0  0
  -26.5647  -34.8891   22.4631 O   0  0  0  0  0  0
  -23.5456  -32.1396   23.7220 O   0  0  0  0  0  0
  -27.0943  -22.8189   21.3575 C   0  0  0  0  0  0
  -28.1820  -23.6829   20.9728 C   0  0  0  0  0  0
  -27.5060  -21.4995   21.3337 C   0  0  0  0  0  0
  -29.1719  -22.7757   20.5679 C   0  0  0  0  0  0
  -25.7268  -23.2721   21.8329 C   0  0  0  0  0  0
  -26.7573  -20.3028   21.8510 C   0  0  0  0  0  0
  -30.5372  -23.0944   20.0253 C   0  0  0  0  0  0
  -29.2507  -25.6308   22.2856 C   0  0  0  0  0  0
  -29.1790  -18.5926   20.7572 C   0  0  0  0  0  0
  -29.6686  -20.1472   20.5720 C   0  0  0  0  0  0
  -30.2465  -17.3676   20.5849 C   0  0  0  0  0  0
  -28.1849  -25.2779   21.2387 C   0  0  1  0  0  0
  -28.7935  -21.4087   20.7988 N   0  0  0  0  0  0
  -29.8307  -15.8922   20.7128 N   0  0  0  0  0  0
  -31.4697  -12.6174   19.1480 H   0  0  0  0  0  0
  -30.3883  -11.4959   19.9356 H   0  0  0  0  0  0
  -29.7866  -11.7721   17.5021 H   0  0  0  0  0  0
  -29.6077  -13.4936   17.7289 H   0  0  0  0  0  0
  -27.9086  -11.2790   18.9227 H   0  0  0  0  0  0
  -27.3669  -12.5255   17.8252 H   0  0  0  0  0  0
  -27.6290  -14.2499   19.4964 H   0  0  0  0  0  0
  -28.7537  -12.1591   21.4276 H   0  0  0  0  0  0
  -28.4280  -13.8263   21.8265 H   0  0  0  0  0  0
  -25.2796   -9.5692   22.4693 H   0  0  0  0  0  0
  -24.0089   -7.4641   22.7489 H   0  0  0  0  0  0
  -21.0848   -8.8666   19.8906 H   0  0  0  0  0  0
  -22.3681  -10.9614   19.6161 H   0  0  0  0  0  0
  -21.2000   -7.6179   23.9692 H   0  0  0  0  0  0
  -21.1493   -6.0593   25.9083 H   0  0  0  0  0  0
  -22.0581   -2.7630   23.2870 H   0  0  0  0  0  0
  -22.4195  -11.9834   22.4861 H   0  0  0  0  0  0
  -21.1042  -13.0973   22.2560 H   0  0  0  0  0  0
  -24.6214  -15.8203   20.5643 H   0  0  0  0  0  0
  -26.2462  -15.6672   20.1221 H   0  0  0  0  0  0
  -26.7220  -32.5432   23.1044 H   0  0  0  0  0  0
  -25.0127  -33.9739   25.0383 H   0  0  0  0  0  0
  -22.7209  -31.2987   21.3857 H   0  0  0  0  0  0
  -23.3764  -35.9629   23.3227 H   0  0  0  0  0  0
  -24.3593  -36.8984   22.2056 H   0  0  0  0  0  0
  -23.7281  -37.6483   23.6717 H   0  0  0  0  0  0
  -26.1066  -31.5295   20.6025 H   0  0  0  0  0  0
  -26.8456  -30.8238   22.0107 H   0  0  0  0  0  0
  -28.1187  -28.9323   21.2344 H   0  0  0  0  0  0
  -25.9960  -25.8858   19.0420 H   0  0  0  0  0  0
  -23.9810  -27.2933   19.0133 H   0  0  0  0  0  0
  -23.7808  -30.5875   19.3967 H   0  0  0  0  0  0
  -22.7685  -29.2452   19.8489 H   0  0  0  0  0  0
  -25.1296  -36.1852   25.0804 H   0  0  0  0  0  0
  -20.9992  -28.3320   24.1365 H   0  0  0  0  0  0
  -20.5753  -26.2350   23.3607 H   0  0  0  0  0  0
  -21.6710  -26.7504   22.1152 H   0  0  0  0  0  0
  -19.6981  -25.6276   21.1265 H   0  0  0  0  0  0
  -19.6737  -27.3186   20.6724 H   0  0  0  0  0  0
  -17.4254  -26.6666   21.3990 H   0  0  0  0  0  0
  -18.0360  -26.0065   22.8984 H   0  0  0  0  0  0
  -19.7972  -30.7261   24.2250 H   0  0  0  0  0  0
  -17.5060  -31.6283   24.5169 H   0  0  0  0  0  0
  -15.5374  -30.2999   23.7664 H   0  0  0  0  0  0
  -15.8703  -28.0847   22.7023 H   0  0  0  0  0  0
  -24.5892  -30.7104   25.7729 H   0  0  0  0  0  0
  -24.8939  -32.2942   26.4788 H   0  0  0  0  0  0
  -25.7988  -30.8938   27.0211 H   0  0  0  0  0  0
  -26.2993  -29.6684   24.1224 H   0  0  0  0  0  0
  -27.4050  -29.7249   25.4757 H   0  0  0  0  0  0
  -27.8866  -30.4225   23.9476 H   0  0  0  0  0  0
  -27.2642  -33.3618   26.2065 H   0  0  0  0  0  0
  -28.3885  -32.6870   25.0346 H   0  0  0  0  0  0
  -28.0716  -31.8458   26.5432 H   0  0  0  0  0  0
  -28.2498  -38.0170   24.7557 H   0  0  0  0  0  0
  -28.1159  -36.2696   24.6131 H   0  0  0  0  0  0
  -27.2316  -37.1284   25.8834 H   0  0  0  0  0  0
  -20.9427  -29.8774   21.6829 H   0  0  0  0  0  0
  -26.0120  -38.2791   24.1470 H   0  0  0  0  0  0
  -25.7034  -23.3583   22.9219 H   0  0  0  0  0  0
  -24.9427  -22.5735   21.5259 H   0  0  0  0  0  0
  -25.4546  -24.2414   21.4149 H   0  0  0  0  0  0
  -25.8031  -20.5856   22.2941 H   0  0  0  0  0  0
  -27.3147  -19.8096   22.6487 H   0  0  0  0  0  0
  -26.5425  -19.5778   21.0689 H   0  0  0  0  0  0
  -30.5976  -24.1255   19.6763 H   0  0  0  0  0  0
  -30.7875  -22.4613   19.1741 H   0  0  0  0  0  0
  -31.3104  -22.9667   20.7838 H   0  0  0  0  0  0
  -29.1115  -25.0615   23.2077 H   0  0  0  0  0  0
  -29.1956  -26.6869   22.5523 H   0  0  0  0  0  0
  -30.2521  -25.4218   21.9121 H   0  0  0  0  0  0
  -28.3519  -18.4170   20.0640 H   0  0  0  0  0  0
  -28.7752  -18.4798   21.7585 H   0  0  0  0  0  0
  -30.5473  -20.2743   21.2028 H   0  0  0  0  0  0
  -30.0549  -20.2248   19.5557 H   0  0  0  0  0  0
  -31.0418  -17.5143   21.3161 H   0  0  0  0  0  0
  -30.7332  -17.4816   19.6166 H   0  0  0  0  0  0
  -27.2448  -25.4729   21.7538 H   0  0  0  0  0  0
  -28.8639  -15.7127   20.9391 H   0  0  0  0  0  0
  1 25  1  0  0  0
  1 30  2  0  0  0
  1 84  1  0  0  0
  2  3  1  0  0  0
  2 25  1  0  0  0
  2 85  1  0  0  0
  2 86  1  0  0  0
  3  4  1  0  0  0
  3 87  1  0  0  0
  3 88  1  0  0  0
  4  5  1  0  0  0
  4 89  1  0  0  0
  4 90  1  0  0  0
  5  6  1  0  0  0
  5 26  1  0  0  0
  5 91  1  0  0  0
  6 25  1  0  0  0
  6 92  1  0  0  0
  6 93  1  0  0  0
  7  8  2  0  0  0
  7 26  1  0  0  0
  7 29  1  0  0  0
  8  9  1  0  0  0
  8 22  1  0  0  0
  9 10  1  0  0  0
  9 27  2  0  0  0
 10 11  2  0  0  0
 10 15  1  0  0  0
 11 12  1  0  0  0
 11 94  1  0  0  0
 12 13  2  0  0  0
 12 95  1  0  0  0
 13 14  1  0  0  0
 13 31  1  0  0  0
 14 15  2  0  0  0
 14 96  1  0  0  0
 15 97  1  0  0  0
 16 17  2  0  0  0
 16 21  1  0  0  0
 16 31  1  0  0  0
 17 18  1  0  0  0
 17 98  1  0  0  0
 18 19  2  0  0  0
 18 99  1  0  0  0
 19 20  1  0  0  0
 19 24  1  0  0  0
 20 21  2  0  0  0
 20100  1  0  0  0
 21 23  1  0  0  0
 22 28  1  0  0  0
 22 32  2  0  0  0
 26 27  1  0  0  0
 28101  1  0  0  0
 28102  1  0  0  0
 29103  1  0  0  0
 29104  1  0  0  0
 33 34  1  0  0  0
 33 66  1  0  0  0
 33 70  2  0  0  0
 34 36  1  0  0  0
 34 59  1  0  0  0
 34105  1  0  0  0
 35 44  2  0  0  0
 35 45  1  0  0  0
 35 68  1  0  0  0
 36 56  1  0  0  0
 36106  1  0  0  0
 37 39  1  0  0  0
 37 47  1  0  0  0
 37 66  1  0  0  0
 37107  1  0  0  0
 38 43  2  0  0  0
 38 46  1  0  0  0
 38 47  1  0  0  0
 39 64  1  0  0  0
 39 67  2  0  0  0
 40 52  1  0  0  0
 40 53  2  0  0  0
 40 58  1  0  0  0
 41108  1  0  0  0
 41109  1  0  0  0
 41110  1  0  0  0
 41 48  1  0  0  0
 42 43  1  0  0  0
 42 66  1  0  0  0
 42111  1  0  0  0
 42112  1  0  0  0
 43 44  1  0  0  0
 44113  1  0  0  0
 45 46  2  0  0  0
 45114  1  0  0  0
 46115  1  0  0  0
 47116  1  0  0  0
 47117  1  0  0  0
 48 56  1  0  0  0
 48 65  1  0  0  0
 48118  1  0  0  0
 49 50  1  0  0  0
 49 53  1  0  0  0
 49 64  1  0  0  0
 49119  1  0  0  0
 50 51  1  0  0  0
 50120  1  0  0  0
 50121  1  0  0  0
 51 52  1  0  0  0
 51122  1  0  0  0
 51123  1  0  0  0
 52124  1  0  0  0
 52125  1  0  0  0
 53 54  1  0  0  0
 54 55  2  0  0  0
 54126  1  0  0  0
 55 57  1  0  0  0
 55127  1  0  0  0
 56 69  2  0  0  0
 57 58  2  0  0  0
 57128  1  0  0  0
 58129  1  0  0  0
 59 60  1  0  0  0
 59 61  1  0  0  0
 59 62  1  0  0  0
 60130  1  0  0  0
 60131  1  0  0  0
 60132  1  0  0  0
 61133  1  0  0  0
 61134  1  0  0  0
 61135  1  0  0  0
 62136  1  0  0  0
 62137  1  0  0  0
 62138  1  0  0  0
 63 65  1  0  0  0
 63139  1  0  0  0
 63140  1  0  0  0
 63141  1  0  0  0
 64142  1  0  0  0
 65143  1  0  0  0
 68 82  1  0  0  0
 71 72  1  0  0  0
 71 73  2  0  0  0
 71 75  1  0  0  0
 72 74  2  0  0  0
 72 82  1  0  0  0
 73 76  1  0  0  0
 73 83  1  0  0  0
 74 77  1  0  0  0
 74 83  1  0  0  0
 75144  1  0  0  0
 75145  1  0  0  0
 75146  1  0  0  0
 76147  1  0  0  0
 76148  1  0  0  0
 76149  1  0  0  0
 77150  1  0  0  0
 77151  1  0  0  0
 77152  1  0  0  0
 78153  1  0  0  0
 78154  1  0  0  0
 78155  1  0  0  0
 78 82  1  0  0  0
 79 80  1  0  0  0
 79 81  1  0  0  0
 79156  1  0  0  0
 79157  1  0  0  0
 80 83  1  0  0  0
 80158  1  0  0  0
 80159  1  0  0  0
 81 84  1  0  0  0
 81160  1  0  0  0
 81161  1  0  0  0
 82162  1  0  0  0
 84163  1  0  0  0
M  ISO  4   1 100  68 101  82 101  84 100
M  END
> <chiral flag>
0

> <version>
0

> <s_m_source_file>
/data/baiqing/PycharmProjects/Reinvent-master-3.2/result/LINK_invent/BTK/process_docking_weight1_custom_sum_contain_oxygen_bond_distance_aromatic_linkinvent_7_9_3/rearranged_h_0102.sdf

> <i_m_source_file_index>
63

> <r_mmod_Potential_Energy-OPLS-2005>
177.432250976562

> <r_mmod_Stretch_Energy-OPLS-2005>
136.641265869141

> <r_mmod_Bend_Energy-OPLS-2005>
190.902633666992

> <r_mmod_Torsional_Energy-OPLS-2005>
259.230529785156

> <r_mmod_Improper_Torsional_Energy-OPLS-2005>
6.54786014556885

> <r_mmod_Van_der_Waal_Energy-OPLS-2005>
110.065353393555

> <r_mmod_Electrostatic_Energy-OPLS-2005>
-400.986602783203

> <r_mmod_Solvation_Energy-OPLS-2005>
-215.501434326172

> <b_mmod_Minimization_Converged-OPLS-2005>
0

> <r_mmod_RMS_Derivative-OPLS-2005>
5.5424337387085

$$$$
64
                    3D
 Structure written by MMmdl.
171179  0  0  1  0            999 V2000
  -30.5335  -14.9962   20.3680 C   0  0  0  0  0  0
  -30.4250  -12.6096   19.5006 C   0  0  0  0  0  0
  -29.5075  -12.5198   18.2587 C   0  0  0  0  0  0
  -28.0463  -12.2973   18.6872 C   0  0  0  0  0  0
  -27.6146  -13.2459   19.8327 C   0  0  2  0  0  0
  -28.6621  -13.3266   20.9631 C   0  0  0  0  0  0
  -25.2341  -13.7853   20.5885 C   0  0  0  0  0  0
  -24.1679  -13.0140   20.9288 C   0  0  0  0  0  0
  -24.6388  -11.6702   20.8793 C   0  0  0  0  0  0
  -23.9078  -10.4134   21.0423 C   0  0  0  0  0  0
  -24.3625   -9.4061   21.9198 C   0  0  0  0  0  0
  -23.6270   -8.2134   22.0757 C   0  0  0  0  0  0
  -22.4257   -8.0222   21.3534 C   0  0  0  0  0  0
  -21.9905   -9.0194   20.4634 C   0  0  0  0  0  0
  -22.7262  -10.2047   20.3046 C   0  0  0  0  0  0
  -21.6813   -6.0731   22.5274 C   0  0  0  0  0  0
  -21.4008   -6.5646   23.8211 C   0  0  0  0  0  0
  -21.3643   -5.6802   24.9165 C   0  0  0  0  0  0
  -21.6037   -4.3058   24.7214 C   0  0  0  0  0  0
  -21.8828   -3.8153   23.4343 C   0  0  0  0  0  0
  -21.9184   -4.6974   22.3396 C   0  0  0  0  0  0
  -22.7709  -13.4954   21.1884 C   0  0  0  0  0  0
  -22.1673   -4.2173   21.0969 F   0  0  0  0  0  0
  -21.5594   -3.4545   25.7724 F   0  0  0  0  0  0
  -29.9319  -13.7339   20.3476 N   0  0  0  0  0  0
  -26.2824  -12.9262   20.3318 N   0  0  0  0  0  0
  -25.9333  -11.6391   20.5795 N   0  0  0  0  0  0
  -22.0409  -12.7961   22.0485 N   0  0  0  0  0  0
  -25.3776  -15.1436   20.4470 N   0  0  0  0  0  0
  -31.7466  -15.0306   20.1341 O   0  0  0  0  0  0
  -21.6576   -6.8872   21.4246 O   0  0  0  0  0  0
  -22.3408  -14.5277   20.6720 O   0  0  0  0  0  0
  -24.6422  -31.8483   23.1904 C   0  0  0  0  0  0
  -25.9208  -32.4721   23.8284 C   0  0  1  0  0  0
  -27.2310  -27.1679   20.1300 C   0  0  0  0  0  0
  -25.5959  -33.8524   24.2205 N   0  0  0  0  0  0
  -23.4426  -30.4695   21.5346 C   0  0  2  0  0  0
  -24.8938  -28.9014   20.1057 C   0  0  0  0  0  0
  -22.7562  -29.4596   22.4860 C   0  0  0  0  0  0
  -18.0343  -28.1373   22.8487 C   0  0  0  0  0  0
  -24.1499  -36.7263   23.2637 C   0  0  0  0  0  0
  -25.9973  -30.7278   21.3899 C   0  0  0  0  0  0
  -26.0670  -29.3439   20.7264 C   0  0  0  0  0  0
  -27.2287  -28.4887   20.7308 C   0  0  0  0  0  0
  -26.0315  -26.8290   19.4615 C   0  0  0  0  0  0
  -24.8859  -27.6540   19.4655 C   0  0  0  0  0  0
  -23.6657  -29.7968   20.1550 C   0  0  0  0  0  0
  -25.4135  -36.3068   24.0317 C   0  0  1  0  0  0
  -20.5955  -28.3758   23.1272 C   0  0  2  0  0  0
  -20.6868  -26.9459   22.5423 C   0  0  0  0  0  0
  -19.5873  -26.6426   21.5204 C   0  0  0  0  0  0
  -18.2034  -26.7928   22.1613 C   0  0  0  0  0  0
  -19.1599  -28.8866   23.2878 C   0  0  0  0  0  0
  -18.9474  -30.1465   23.8899 C   0  0  0  0  0  0
  -17.6462  -30.6576   24.0567 C   0  0  0  0  0  0
  -25.9083  -34.9431   23.5084 C   0  0  0  0  0  0
  -16.5376  -29.9049   23.6325 C   0  0  0  0  0  0
  -16.7339  -28.6458   23.0366 C   0  0  0  0  0  0
  -26.4532  -31.6572   25.0715 C   0  0  0  0  0  0
  -25.3699  -31.3760   26.1408 C   0  0  0  0  0  0
  -27.0374  -30.2948   24.6313 C   0  0  0  0  0  0
  -27.6089  -32.4321   25.7486 C   0  0  0  0  0  0
  -27.5594  -37.1778   24.8462 C   0  0  0  0  0  0
  -21.4246  -29.3110   22.3630 N   0  0  0  0  0  0
  -26.4306  -37.3777   23.9403 N   0  0  0  0  0  0
  -24.7139  -31.0356   22.0923 N   0  0  0  0  0  0
  -23.4254  -28.8122   23.2957 O   0  0  0  0  0  0
  -28.3184  -26.2244   20.2320 O   0  0  0  0  0  0
  -26.5684  -34.8912   22.4667 O   0  0  0  0  0  0
  -23.5546  -32.1349   23.7124 O   0  0  0  0  0  0
  -27.8755  -18.9756   22.3552 C   0  0  0  0  0  0
  -29.5564  -20.6984   22.0408 C   0  0  0  0  0  0
  -27.9396  -18.6643   20.9752 C   0  0  0  0  0  0
  -29.4490  -20.4737   20.6521 C   0  0  0  0  0  0
  -29.1111  -19.0474   20.3054 C   0  0  0  0  0  0
  -28.7843  -19.9017   22.9108 C   0  0  0  0  0  0
  -26.5723  -21.5516   19.4734 C   0  0  0  0  0  0
  -25.2637  -17.4716   18.3001 C   0  0  0  0  0  0
  -27.5119  -18.2420   17.7232 C   0  0  0  0  0  0
  -26.7209  -18.0364   20.3035 C   0  0  0  0  0  0
  -30.1397  -17.7428   20.2043 C   0  0  0  0  0  0
  -27.9622  -21.6705   18.8300 C   0  0  0  0  0  0
  -28.9043  -23.3922   20.5390 C   0  0  0  0  0  0
  -28.2851  -24.7475   19.7630 C   0  0  0  0  0  0
  -29.1130  -21.8725   19.8278 C   0  0  1  0  0  0
  -26.7147  -17.5149   18.8220 C   0  0  0  0  0  0
  -29.7708  -16.2041   20.4224 N   0  0  0  0  0  0
  -28.7470  -20.1816   24.2356 F   0  0  0  0  0  0
  -31.4606  -12.7633   19.1848 H   0  0  0  0  0  0
  -30.4064  -11.6714   20.0616 H   0  0  0  0  0  0
  -29.8281  -11.7069   17.6089 H   0  0  0  0  0  0
  -29.5859  -13.4374   17.6729 H   0  0  0  0  0  0
  -27.9598  -11.2621   19.0189 H   0  0  0  0  0  0
  -27.3758  -12.3961   17.8329 H   0  0  0  0  0  0
  -27.5540  -14.2335   19.3762 H   0  0  0  0  0  0
  -28.7584  -12.3732   21.4858 H   0  0  0  0  0  0
  -28.3530  -14.0604   21.7089 H   0  0  0  0  0  0
  -25.2779   -9.5518   22.4769 H   0  0  0  0  0  0
  -23.9969   -7.4513   22.7461 H   0  0  0  0  0  0
  -21.0831   -8.8716   19.8942 H   0  0  0  0  0  0
  -22.3738  -10.9615   19.6170 H   0  0  0  0  0  0
  -21.2040   -7.6159   23.9714 H   0  0  0  0  0  0
  -21.1437   -6.0533   25.9062 H   0  0  0  0  0  0
  -22.0626   -2.7619   23.2821 H   0  0  0  0  0  0
  -22.4057  -11.9603   22.4831 H   0  0  0  0  0  0
  -21.1075  -13.1035   22.2821 H   0  0  0  0  0  0
  -24.5615  -15.7443   20.4744 H   0  0  0  0  0  0
  -26.1840  -15.5848   20.0327 H   0  0  0  0  0  0
  -26.7259  -32.5324   23.1003 H   0  0  0  0  0  0
  -24.9965  -33.9661   25.0259 H   0  0  0  0  0  0
  -22.7455  -31.2972   21.3814 H   0  0  0  0  0  0
  -23.3791  -35.9576   23.3303 H   0  0  0  0  0  0
  -24.3562  -36.8899   22.2052 H   0  0  0  0  0  0
  -23.7226  -37.6446   23.6663 H   0  0  0  0  0  0
  -26.1585  -31.4891   20.6261 H   0  0  0  0  0  0
  -26.8650  -30.7695   22.0357 H   0  0  0  0  0  0
  -28.1147  -28.8234   21.2511 H   0  0  0  0  0  0
  -25.9317  -25.8934   18.9356 H   0  0  0  0  0  0
  -23.9856  -27.3104   18.9740 H   0  0  0  0  0  0
  -23.7869  -30.5729   19.3966 H   0  0  0  0  0  0
  -22.7845  -29.2328   19.8502 H   0  0  0  0  0  0
  -25.1325  -36.1925   25.0811 H   0  0  0  0  0  0
  -21.0047  -28.3403   24.1391 H   0  0  0  0  0  0
  -20.5773  -26.2346   23.3628 H   0  0  0  0  0  0
  -21.6772  -26.7511   22.1259 H   0  0  0  0  0  0
  -19.7084  -25.6369   21.1146 H   0  0  0  0  0  0
  -19.6793  -27.3303   20.6761 H   0  0  0  0  0  0
  -17.4306  -26.6687   21.4003 H   0  0  0  0  0  0
  -18.0465  -26.0056   22.8973 H   0  0  0  0  0  0
  -19.7913  -30.7318   24.2300 H   0  0  0  0  0  0
  -17.4948  -31.6267   24.5162 H   0  0  0  0  0  0
  -15.5365  -30.2895   23.7630 H   0  0  0  0  0  0
  -15.8762  -28.0762   22.7085 H   0  0  0  0  0  0
  -24.5906  -30.7102   25.7691 H   0  0  0  0  0  0
  -24.8854  -32.2933   26.4752 H   0  0  0  0  0  0
  -25.7962  -30.8966   27.0225 H   0  0  0  0  0  0
  -26.2981  -29.6673   24.1329 H   0  0  0  0  0  0
  -27.3954  -29.7273   25.4909 H   0  0  0  0  0  0
  -27.8913  -30.4146   23.9646 H   0  0  0  0  0  0
  -27.2719  -33.3632   26.2046 H   0  0  0  0  0  0
  -28.3898  -32.6858   25.0310 H   0  0  0  0  0  0
  -28.0766  -31.8453   26.5407 H   0  0  0  0  0  0
  -28.2618  -38.0066   24.7534 H   0  0  0  0  0  0
  -28.1070  -36.2602   24.6271 H   0  0  0  0  0  0
  -27.2287  -37.1418   25.8851 H   0  0  0  0  0  0
  -20.9441  -29.8810   21.6809 H   0  0  0  0  0  0
  -26.0201  -38.2858   24.1393 H   0  0  0  0  0  0
  -27.0927  -18.5740   22.9810 H   0  0  0  0  0  0
  -29.9492  -21.6254   22.4314 H   0  0  0  0  0  0
  -26.2325  -22.4962   19.8936 H   0  0  0  0  0  0
  -26.5790  -20.8424   20.2951 H   0  0  0  0  0  0
  -25.8314  -21.2246   18.7419 H   0  0  0  0  0  0
  -25.1838  -16.8444   17.4121 H   0  0  0  0  0  0
  -24.9188  -18.4707   18.0304 H   0  0  0  0  0  0
  -24.5568  -17.0934   19.0336 H   0  0  0  0  0  0
  -27.4776  -17.6595   16.8035 H   0  0  0  0  0  0
  -28.5614  -18.3783   17.9530 H   0  0  0  0  0  0
  -27.0632  -19.2032   17.4758 H   0  0  0  0  0  0
  -25.9290  -18.7782   20.3966 H   0  0  0  0  0  0
  -26.4086  -17.2604   20.9888 H   0  0  0  0  0  0
  -30.9662  -17.9557   20.8798 H   0  0  0  0  0  0
  -30.5794  -17.8008   19.2073 H   0  0  0  0  0  0
  -27.9373  -22.4956   18.1191 H   0  0  0  0  0  0
  -28.1906  -20.7998   18.2268 H   0  0  0  0  0  0
  -28.2546  -23.2448   21.4006 H   0  0  0  0  0  0
  -29.8652  -23.6767   20.9676 H   0  0  0  0  0  0
  -27.2598  -24.4777   19.5418 H   0  0  0  0  0  0
  -28.7704  -24.7748   18.7853 H   0  0  0  0  0  0
  -30.0026  -21.9887   19.2066 H   0  0  0  0  0  0
  -27.1164  -16.5023   18.8478 H   0  0  0  0  0  0
  -28.7859  -16.0490   20.5635 H   0  0  0  0  0  0
  1 25  1  0  0  0
  1 30  2  0  0  0
  1 87  1  0  0  0
  2  3  1  0  0  0
  2 25  1  0  0  0
  2 89  1  0  0  0
  2 90  1  0  0  0
  3  4  1  0  0  0
  3 91  1  0  0  0
  3 92  1  0  0  0
  4  5  1  0  0  0
  4 93  1  0  0  0
  4 94  1  0  0  0
  5  6  1  0  0  0
  5 26  1  0  0  0
  5 95  1  0  0  0
  6 25  1  0  0  0
  6 96  1  0  0  0
  6 97  1  0  0  0
  7  8  2  0  0  0
  7 26  1  0  0  0
  7 29  1  0  0  0
  8  9  1  0  0  0
  8 22  1  0  0  0
  9 10  1  0  0  0
  9 27  2  0  0  0
 10 11  2  0  0  0
 10 15  1  0  0  0
 11 12  1  0  0  0
 11 98  1  0  0  0
 12 13  2  0  0  0
 12 99  1  0  0  0
 13 14  1  0  0  0
 13 31  1  0  0  0
 14 15  2  0  0  0
 14100  1  0  0  0
 15101  1  0  0  0
 16 17  2  0  0  0
 16 21  1  0  0  0
 16 31  1  0  0  0
 17 18  1  0  0  0
 17102  1  0  0  0
 18 19  2  0  0  0
 18103  1  0  0  0
 19 20  1  0  0  0
 19 24  1  0  0  0
 20 21  2  0  0  0
 20104  1  0  0  0
 21 23  1  0  0  0
 22 28  1  0  0  0
 22 32  2  0  0  0
 26 27  1  0  0  0
 28105  1  0  0  0
 28106  1  0  0  0
 29107  1  0  0  0
 29108  1  0  0  0
 33 34  1  0  0  0
 33 66  1  0  0  0
 33 70  2  0  0  0
 34 36  1  0  0  0
 34 59  1  0  0  0
 34109  1  0  0  0
 35 44  2  0  0  0
 35 45  1  0  0  0
 35 68  1  0  0  0
 36 56  1  0  0  0
 36110  1  0  0  0
 37 39  1  0  0  0
 37 47  1  0  0  0
 37 66  1  0  0  0
 37111  1  0  0  0
 38 43  2  0  0  0
 38 46  1  0  0  0
 38 47  1  0  0  0
 39 64  1  0  0  0
 39 67  2  0  0  0
 40 52  1  0  0  0
 40 53  2  0  0  0
 40 58  1  0  0  0
 41112  1  0  0  0
 41113  1  0  0  0
 41114  1  0  0  0
 41 48  1  0  0  0
 42 43  1  0  0  0
 42 66  1  0  0  0
 42115  1  0  0  0
 42116  1  0  0  0
 43 44  1  0  0  0
 44117  1  0  0  0
 45 46  2  0  0  0
 45118  1  0  0  0
 46119  1  0  0  0
 47120  1  0  0  0
 47121  1  0  0  0
 48 56  1  0  0  0
 48 65  1  0  0  0
 48122  1  0  0  0
 49 50  1  0  0  0
 49 53  1  0  0  0
 49 64  1  0  0  0
 49123  1  0  0  0
 50 51  1  0  0  0
 50124  1  0  0  0
 50125  1  0  0  0
 51 52  1  0  0  0
 51126  1  0  0  0
 51127  1  0  0  0
 52128  1  0  0  0
 52129  1  0  0  0
 53 54  1  0  0  0
 54 55  2  0  0  0
 54130  1  0  0  0
 55 57  1  0  0  0
 55131  1  0  0  0
 56 69  2  0  0  0
 57 58  2  0  0  0
 57132  1  0  0  0
 58133  1  0  0  0
 59 60  1  0  0  0
 59 61  1  0  0  0
 59 62  1  0  0  0
 60134  1  0  0  0
 60135  1  0  0  0
 60136  1  0  0  0
 61137  1  0  0  0
 61138  1  0  0  0
 61139  1  0  0  0
 62140  1  0  0  0
 62141  1  0  0  0
 62142  1  0  0  0
 63 65  1  0  0  0
 63143  1  0  0  0
 63144  1  0  0  0
 63145  1  0  0  0
 64146  1  0  0  0
 65147  1  0  0  0
 68 84  1  0  0  0
 71 73  2  0  0  0
 71 76  1  0  0  0
 71148  1  0  0  0
 72 74  1  0  0  0
 72 76  2  0  0  0
 72149  1  0  0  0
 73 75  1  0  0  0
 73 80  1  0  0  0
 74 75  2  0  0  0
 74 85  1  0  0  0
 75 81  1  0  0  0
 76 88  1  0  0  0
 77 82  1  0  0  0
 77150  1  0  0  0
 77151  1  0  0  0
 77152  1  0  0  0
 78153  1  0  0  0
 78154  1  0  0  0
 78155  1  0  0  0
 78 86  1  0  0  0
 79 86  1  0  0  0
 79156  1  0  0  0
 79157  1  0  0  0
 79158  1  0  0  0
 80 86  1  0  0  0
 80159  1  0  0  0
 80160  1  0  0  0
 81 87  1  0  0  0
 81161  1  0  0  0
 81162  1  0  0  0
 82163  1  0  0  0
 82164  1  0  0  0
 82 85  1  0  0  0
 83 84  1  0  0  0
 83 85  1  0  0  0
 83165  1  0  0  0
 83166  1  0  0  0
 84167  1  0  0  0
 84168  1  0  0  0
 85169  1  0  0  0
 86170  1  0  0  0
 87171  1  0  0  0
M  ISO  4   1 100  68 101  84 101  87 100
M  END
> <chiral flag>
0

> <version>
0

> <s_m_source_file>
/data/baiqing/PycharmProjects/Reinvent-master-3.2/result/LINK_invent/BTK/process_docking_weight1_custom_sum_contain_oxygen_bond_distance_aromatic_linkinvent_7_9_3/rearranged_h_0102.sdf

> <i_m_source_file_index>
64

> <r_mmod_Potential_Energy-OPLS-2005>
837.574890136719

> <r_mmod_Stretch_Energy-OPLS-2005>
278.557830810547

> <r_mmod_Bend_Energy-OPLS-2005>
305.940856933594

> <r_mmod_Torsional_Energy-OPLS-2005>
469.369567871094

> <r_mmod_Improper_Torsional_Energy-OPLS-2005>
31.4170093536377

> <r_mmod_Van_der_Waal_Energy-OPLS-2005>
142.487442016602

> <r_mmod_Electrostatic_Energy-OPLS-2005>
-402.414367675781

> <r_mmod_Solvation_Energy-OPLS-2005>
-188.181167602539

> <b_mmod_Minimization_Converged-OPLS-2005>
0

> <r_mmod_RMS_Derivative-OPLS-2005>
4.99902439117432

$$$$
65
                    3D
 Structure written by MMmdl.
177185  0  0  1  0            999 V2000
  -30.7733  -14.3894   20.6884 C   0  0  0  0  0  0
  -30.4126  -12.3095   19.4018 C   0  0  0  0  0  0
  -29.4836  -12.5455   18.1982 C   0  0  0  0  0  0
  -28.0151  -12.3619   18.6176 C   0  0  0  0  0  0
  -27.6622  -13.2036   19.8720 C   0  0  2  0  0  0
  -28.6994  -12.9772   20.9960 C   0  0  0  0  0  0
  -25.2600  -13.8162   20.5671 C   0  0  0  0  0  0
  -24.1822  -13.0434   20.9150 C   0  0  0  0  0  0
  -24.6369  -11.6911   20.8682 C   0  0  0  0  0  0
  -23.9040  -10.4306   21.0377 C   0  0  0  0  0  0
  -24.3599   -9.4232   21.9162 C   0  0  0  0  0  0
  -23.6279   -8.2273   22.0748 C   0  0  0  0  0  0
  -22.4265   -8.0292   21.3545 C   0  0  0  0  0  0
  -21.9891   -9.0265   20.4654 C   0  0  0  0  0  0
  -22.7208  -10.2150   20.3040 C   0  0  0  0  0  0
  -21.6853   -6.0749   22.5285 C   0  0  0  0  0  0
  -21.4028   -6.5653   23.8218 C   0  0  0  0  0  0
  -21.3642   -5.6789   24.9174 C   0  0  0  0  0  0
  -21.6036   -4.3058   24.7210 C   0  0  0  0  0  0
  -21.8814   -3.8157   23.4328 C   0  0  0  0  0  0
  -21.9198   -4.6984   22.3394 C   0  0  0  0  0  0
  -22.7869  -13.5267   21.1834 C   0  0  0  0  0  0
  -22.1658   -4.2180   21.0966 F   0  0  0  0  0  0
  -21.5609   -3.4536   25.7717 F   0  0  0  0  0  0
  -30.0422  -13.2645   20.4593 N   0  0  0  0  0  0
  -26.3017  -12.9316   20.3318 N   0  0  0  0  0  0
  -25.9285  -11.6485   20.5690 N   0  0  0  0  0  0
  -22.0499  -12.8267   22.0395 N   0  0  0  0  0  0
  -25.4314  -15.1868   20.4079 N   0  0  0  0  0  0
  -31.8173  -14.6512   20.0873 O   0  0  0  0  0  0
  -21.6620   -6.8898   21.4253 O   0  0  0  0  0  0
  -22.3555  -14.5573   20.6701 O   0  0  0  0  0  0
  -24.6220  -31.8695   23.2159 C   0  0  0  0  0  0
  -25.9098  -32.4848   23.8441 C   0  0  1  0  0  0
  -27.2108  -27.3997   20.0502 C   0  0  0  0  0  0
  -25.5941  -33.8648   24.2372 N   0  0  0  0  0  0
  -23.4145  -30.4970   21.5597 C   0  0  2  0  0  0
  -24.8504  -28.9765   20.1136 C   0  0  0  0  0  0
  -22.7466  -29.4649   22.4986 C   0  0  0  0  0  0
  -18.0286  -28.1410   22.8448 C   0  0  0  0  0  0
  -24.1500  -36.7330   23.2629 C   0  0  0  0  0  0
  -25.9529  -30.8091   21.3919 C   0  0  0  0  0  0
  -26.0169  -29.4450   20.7301 C   0  0  0  0  0  0
  -27.1980  -28.6571   20.7114 C   0  0  0  0  0  0
  -26.0331  -27.0034   19.3870 C   0  0  0  0  0  0
  -24.8535  -27.7520   19.4408 C   0  0  0  0  0  0
  -23.6244  -29.8508   20.1701 C   0  0  0  0  0  0
  -25.4128  -36.3153   24.0335 C   0  0  1  0  0  0
  -20.5876  -28.3708   23.1262 C   0  0  2  0  0  0
  -20.6778  -26.9446   22.5361 C   0  0  0  0  0  0
  -19.5739  -26.6395   21.5196 C   0  0  0  0  0  0
  -18.1945  -26.7930   22.1635 C   0  0  0  0  0  0
  -19.1537  -28.8875   23.2844 C   0  0  0  0  0  0
  -18.9462  -30.1475   23.8861 C   0  0  0  0  0  0
  -17.6467  -30.6587   24.0582 C   0  0  0  0  0  0
  -25.9055  -34.9497   23.5151 C   0  0  0  0  0  0
  -16.5359  -29.9090   23.6320 C   0  0  0  0  0  0
  -16.7286  -28.6532   23.0303 C   0  0  0  0  0  0
  -26.4504  -31.6614   25.0765 C   0  0  0  0  0  0
  -25.3734  -31.3690   26.1471 C   0  0  0  0  0  0
  -27.0311  -30.3029   24.6193 C   0  0  0  0  0  0
  -27.6108  -32.4321   25.7493 C   0  0  0  0  0  0
  -27.5596  -37.1834   24.8461 C   0  0  0  0  0  0
  -21.4183  -29.3086   22.3700 N   0  0  0  0  0  0
  -26.4330  -37.3825   23.9378 N   0  0  0  0  0  0
  -24.6817  -31.0730   22.1115 N   0  0  0  0  0  0
  -23.4185  -28.8139   23.3022 O   0  0  0  0  0  0
  -28.3438  -26.5980   20.0632 O   0  0  0  0  0  0
  -26.5610  -34.8940   22.4707 O   0  0  0  0  0  0
  -23.5386  -32.1486   23.7482 O   0  0  0  0  0  0
  -29.3940  -19.5595   20.3487 C   0  0  0  0  0  0
  -27.8683  -20.6271   21.6077 C   0  0  0  0  0  0
  -29.3666  -18.8976   21.5510 C   0  0  0  0  0  0
  -28.4160  -19.6119   22.3383 C   0  0  0  0  0  0
  -25.6321  -23.6739   18.5407 C   0  0  0  0  0  0
  -27.3502  -20.9563   25.2542 C   0  0  0  0  0  0
  -28.7919  -19.0244   25.9231 C   0  0  0  0  0  0
  -29.7390  -20.8579   24.5080 C   0  0  0  0  0  0
  -30.1639  -17.6562   21.9170 C   0  0  0  0  0  0
  -26.3818  -23.8284   19.8894 C   0  0  0  0  0  0
  -28.6099  -22.8291   19.0622 C   0  0  0  0  0  0
  -28.0682  -21.3726   19.1872 C   0  0  0  0  0  0
  -29.4912  -16.3304   21.4777 C   0  0  0  0  0  0
  -28.4142  -25.3932   19.2475 C   0  0  0  0  0  0
  -27.9226  -24.0066   19.8258 C   0  0  1  0  0  0
  -28.4756  -20.0176   24.7917 C   0  0  0  0  0  0
  -28.4565  -20.5874   20.3554 N   0  0  0  0  0  0
  -28.0135  -19.2491   23.6306 N   0  0  0  0  0  0
  -30.3707  -15.1742   21.6964 N   0  0  0  0  0  0
  -31.4580  -12.4009   19.1024 H   0  0  0  0  0  0
  -30.3007  -11.2895   19.7737 H   0  0  0  0  0  0
  -29.7345  -11.8656   17.3852 H   0  0  0  0  0  0
  -29.6310  -13.5544   17.8067 H   0  0  0  0  0  0
  -27.8652  -11.3016   18.8307 H   0  0  0  0  0  0
  -27.3471  -12.6035   17.7908 H   0  0  0  0  0  0
  -27.7089  -14.2514   19.5718 H   0  0  0  0  0  0
  -28.6608  -11.9417   21.3373 H   0  0  0  0  0  0
  -28.4454  -13.5820   21.8669 H   0  0  0  0  0  0
  -25.2752   -9.5709   22.4721 H   0  0  0  0  0  0
  -23.9987   -7.4672   22.7466 H   0  0  0  0  0  0
  -21.0825   -8.8782   19.8967 H   0  0  0  0  0  0
  -22.3654  -10.9683   19.6143 H   0  0  0  0  0  0
  -21.2031   -7.6165   23.9738 H   0  0  0  0  0  0
  -21.1460   -6.0516   25.9080 H   0  0  0  0  0  0
  -22.0602   -2.7625   23.2807 H   0  0  0  0  0  0
  -22.4090  -11.9915   22.4778 H   0  0  0  0  0  0
  -21.1132  -13.1336   22.2600 H   0  0  0  0  0  0
  -24.6700  -15.8452   20.5304 H   0  0  0  0  0  0
  -26.2927  -15.6301   20.1128 H   0  0  0  0  0  0
  -26.7155  -32.5543   23.1179 H   0  0  0  0  0  0
  -25.0078  -33.9802   25.0509 H   0  0  0  0  0  0
  -22.7066  -31.3177   21.4280 H   0  0  0  0  0  0
  -23.3778  -35.9652   23.3335 H   0  0  0  0  0  0
  -24.3580  -36.8895   22.2033 H   0  0  0  0  0  0
  -23.7233  -37.6538   23.6614 H   0  0  0  0  0  0
  -26.0907  -31.5793   20.6314 H   0  0  0  0  0  0
  -26.8307  -30.8431   22.0249 H   0  0  0  0  0  0
  -28.0986  -29.0086   21.1976 H   0  0  0  0  0  0
  -25.9919  -26.1185   18.7915 H   0  0  0  0  0  0
  -23.9710  -27.4044   18.9222 H   0  0  0  0  0  0
  -23.7484  -30.6354   19.4228 H   0  0  0  0  0  0
  -22.7477  -29.2812   19.8622 H   0  0  0  0  0  0
  -25.1310  -36.2047   25.0835 H   0  0  0  0  0  0
  -20.9921  -28.3260   24.1394 H   0  0  0  0  0  0
  -20.5682  -26.2348   23.3559 H   0  0  0  0  0  0
  -21.6646  -26.7484   22.1164 H   0  0  0  0  0  0
  -19.6904  -25.6295   21.1254 H   0  0  0  0  0  0
  -19.6637  -27.3152   20.6679 H   0  0  0  0  0  0
  -17.4184  -26.6577   21.4093 H   0  0  0  0  0  0
  -18.0417  -26.0119   22.9086 H   0  0  0  0  0  0
  -19.7932  -30.7305   24.2179 H   0  0  0  0  0  0
  -17.5029  -31.6246   24.5217 H   0  0  0  0  0  0
  -15.5356  -30.2975   23.7685 H   0  0  0  0  0  0
  -15.8687  -28.0866   22.6991 H   0  0  0  0  0  0
  -24.5945  -30.7033   25.7736 H   0  0  0  0  0  0
  -24.8888  -32.2818   26.4940 H   0  0  0  0  0  0
  -25.8035  -30.8802   27.0222 H   0  0  0  0  0  0
  -26.2842  -29.6794   24.1273 H   0  0  0  0  0  0
  -27.4032  -29.7271   25.4675 H   0  0  0  0  0  0
  -27.8727  -30.4280   23.9382 H   0  0  0  0  0  0
  -27.2779  -33.3614   26.2125 H   0  0  0  0  0  0
  -28.3865  -32.6898   25.0267 H   0  0  0  0  0  0
  -28.0866  -31.8427   26.5337 H   0  0  0  0  0  0
  -28.2665  -38.0098   24.7531 H   0  0  0  0  0  0
  -28.1063  -36.2632   24.6312 H   0  0  0  0  0  0
  -27.2301  -37.1509   25.8866 H   0  0  0  0  0  0
  -20.9379  -29.8870   21.6951 H   0  0  0  0  0  0
  -26.0244  -38.2923   24.1352 H   0  0  0  0  0  0
  -29.9643  -19.3501   19.4538 H   0  0  0  0  0  0
  -27.0915  -21.3414   21.8405 H   0  0  0  0  0  0
  -25.6443  -22.6554   18.1595 H   0  0  0  0  0  0
  -26.0365  -24.3036   17.7495 H   0  0  0  0  0  0
  -24.5795  -23.9362   18.6599 H   0  0  0  0  0  0
  -27.6466  -21.5339   26.1311 H   0  0  0  0  0  0
  -26.4476  -20.4057   25.5275 H   0  0  0  0  0  0
  -27.0806  -21.6729   24.4799 H   0  0  0  0  0  0
  -29.1402  -19.5326   26.8251 H   0  0  0  0  0  0
  -29.5780  -18.3260   25.6383 H   0  0  0  0  0  0
  -27.9157  -18.4370   26.2000 H   0  0  0  0  0  0
  -30.0872  -21.3571   25.4136 H   0  0  0  0  0  0
  -29.5511  -21.6423   23.7735 H   0  0  0  0  0  0
  -30.5616  -20.2436   24.1416 H   0  0  0  0  0  0
  -31.1457  -17.7394   21.4505 H   0  0  0  0  0  0
  -30.3403  -17.6639   22.9933 H   0  0  0  0  0  0
  -26.1521  -22.9571   20.5012 H   0  0  0  0  0  0
  -25.9588  -24.6476   20.4635 H   0  0  0  0  0  0
  -28.5437  -23.0671   17.9992 H   0  0  0  0  0  0
  -29.6780  -22.8287   19.2795 H   0  0  0  0  0  0
  -28.4071  -20.8186   18.3113 H   0  0  0  0  0  0
  -26.9869  -21.3254   19.1101 H   0  0  0  0  0  0
  -28.5700  -16.1754   22.0387 H   0  0  0  0  0  0
  -29.2019  -16.3938   20.4247 H   0  0  0  0  0  0
  -28.0134  -25.5653   18.2482 H   0  0  0  0  0  0
  -29.4839  -25.2882   19.0660 H   0  0  0  0  0  0
  -28.2786  -23.9495   20.8543 H   0  0  0  0  0  0
  -27.0069  -19.1229   23.6703 H   0  0  0  0  0  0
  -31.1641  -15.4557   22.2536 H   0  0  0  0  0  0
  1 25  1  0  0  0
  1 30  2  0  0  0
  1 89  1  0  0  0
  2  3  1  0  0  0
  2 25  1  0  0  0
  2 90  1  0  0  0
  2 91  1  0  0  0
  3  4  1  0  0  0
  3 92  1  0  0  0
  3 93  1  0  0  0
  4  5  1  0  0  0
  4 94  1  0  0  0
  4 95  1  0  0  0
  5  6  1  0  0  0
  5 26  1  0  0  0
  5 96  1  0  0  0
  6 25  1  0  0  0
  6 97  1  0  0  0
  6 98  1  0  0  0
  7  8  2  0  0  0
  7 26  1  0  0  0
  7 29  1  0  0  0
  8  9  1  0  0  0
  8 22  1  0  0  0
  9 10  1  0  0  0
  9 27  2  0  0  0
 10 11  2  0  0  0
 10 15  1  0  0  0
 11 12  1  0  0  0
 11 99  1  0  0  0
 12 13  2  0  0  0
 12100  1  0  0  0
 13 14  1  0  0  0
 13 31  1  0  0  0
 14 15  2  0  0  0
 14101  1  0  0  0
 15102  1  0  0  0
 16 17  2  0  0  0
 16 21  1  0  0  0
 16 31  1  0  0  0
 17 18  1  0  0  0
 17103  1  0  0  0
 18 19  2  0  0  0
 18104  1  0  0  0
 19 20  1  0  0  0
 19 24  1  0  0  0
 20 21  2  0  0  0
 20105  1  0  0  0
 21 23  1  0  0  0
 22 28  1  0  0  0
 22 32  2  0  0  0
 26 27  1  0  0  0
 28106  1  0  0  0
 28107  1  0  0  0
 29108  1  0  0  0
 29109  1  0  0  0
 33 34  1  0  0  0
 33 66  1  0  0  0
 33 70  2  0  0  0
 34 36  1  0  0  0
 34 59  1  0  0  0
 34110  1  0  0  0
 35 44  2  0  0  0
 35 45  1  0  0  0
 35 68  1  0  0  0
 36 56  1  0  0  0
 36111  1  0  0  0
 37 39  1  0  0  0
 37 47  1  0  0  0
 37 66  1  0  0  0
 37112  1  0  0  0
 38 43  2  0  0  0
 38 46  1  0  0  0
 38 47  1  0  0  0
 39 64  1  0  0  0
 39 67  2  0  0  0
 40 52  1  0  0  0
 40 53  2  0  0  0
 40 58  1  0  0  0
 41113  1  0  0  0
 41114  1  0  0  0
 41115  1  0  0  0
 41 48  1  0  0  0
 42 43  1  0  0  0
 42 66  1  0  0  0
 42116  1  0  0  0
 42117  1  0  0  0
 43 44  1  0  0  0
 44118  1  0  0  0
 45 46  2  0  0  0
 45119  1  0  0  0
 46120  1  0  0  0
 47121  1  0  0  0
 47122  1  0  0  0
 48 56  1  0  0  0
 48 65  1  0  0  0
 48123  1  0  0  0
 49 50  1  0  0  0
 49 53  1  0  0  0
 49 64  1  0  0  0
 49124  1  0  0  0
 50 51  1  0  0  0
 50125  1  0  0  0
 50126  1  0  0  0
 51 52  1  0  0  0
 51127  1  0  0  0
 51128  1  0  0  0
 52129  1  0  0  0
 52130  1  0  0  0
 53 54  1  0  0  0
 54 55  2  0  0  0
 54131  1  0  0  0
 55 57  1  0  0  0
 55132  1  0  0  0
 56 69  2  0  0  0
 57 58  2  0  0  0
 57133  1  0  0  0
 58134  1  0  0  0
 59 60  1  0  0  0
 59 61  1  0  0  0
 59 62  1  0  0  0
 60135  1  0  0  0
 60136  1  0  0  0
 60137  1  0  0  0
 61138  1  0  0  0
 61139  1  0  0  0
 61140  1  0  0  0
 62141  1  0  0  0
 62142  1  0  0  0
 62143  1  0  0  0
 63 65  1  0  0  0
 63144  1  0  0  0
 63145  1  0  0  0
 63146  1  0  0  0
 64147  1  0  0  0
 65148  1  0  0  0
 68 84  1  0  0  0
 71 73  2  0  0  0
 71 87  1  0  0  0
 71149  1  0  0  0
 72 74  2  0  0  0
 72 87  1  0  0  0
 72150  1  0  0  0
 73 74  1  0  0  0
 73 79  1  0  0  0
 74 88  1  0  0  0
 75 80  1  0  0  0
 75151  1  0  0  0
 75152  1  0  0  0
 75153  1  0  0  0
 76154  1  0  0  0
 76155  1  0  0  0
 76156  1  0  0  0
 76 86  1  0  0  0
 77 86  1  0  0  0
 77157  1  0  0  0
 77158  1  0  0  0
 77159  1  0  0  0
 78 86  1  0  0  0
 78160  1  0  0  0
 78161  1  0  0  0
 78162  1  0  0  0
 79 83  1  0  0  0
 79163  1  0  0  0
 79164  1  0  0  0
 80165  1  0  0  0
 80166  1  0  0  0
 80 85  1  0  0  0
 81 82  1  0  0  0
 81 85  1  0  0  0
 81167  1  0  0  0
 81168  1  0  0  0
 82 87  1  0  0  0
 82169  1  0  0  0
 82170  1  0  0  0
 83 89  1  0  0  0
 83171  1  0  0  0
 83172  1  0  0  0
 84 85  1  0  0  0
 84173  1  0  0  0
 84174  1  0  0  0
 85175  1  0  0  0
 86 88  1  0  0  0
 88176  1  0  0  0
 89177  1  0  0  0
M  ISO  4   1 100  68 101  84 101  89 100
M  END
> <chiral flag>
0

> <version>
0

> <s_m_source_file>
/data/baiqing/PycharmProjects/Reinvent-master-3.2/result/LINK_invent/BTK/process_docking_weight1_custom_sum_contain_oxygen_bond_distance_aromatic_linkinvent_7_9_3/rearranged_h_0102.sdf

> <i_m_source_file_index>
65

> <r_mmod_Potential_Energy-OPLS-2005>
-22.8243598937988

> <r_mmod_Stretch_Energy-OPLS-2005>
43.1973037719727

> <r_mmod_Bend_Energy-OPLS-2005>
153.078643798828

> <r_mmod_Torsional_Energy-OPLS-2005>
312.004791259766

> <r_mmod_Improper_Torsional_Energy-OPLS-2005>
13.1119756698608

> <r_mmod_Van_der_Waal_Energy-OPLS-2005>
131.689117431641

> <r_mmod_Electrostatic_Energy-OPLS-2005>
-492.285064697266

> <r_mmod_Solvation_Energy-OPLS-2005>
-200.634902954102

> <b_mmod_Minimization_Converged-OPLS-2005>
0

> <r_mmod_RMS_Derivative-OPLS-2005>
4.2312183380127

$$$$
66
                    3D
 Structure written by MMmdl.
174182  0  0  1  0            999 V2000
  -30.7133  -14.4289   20.6242 C   0  0  0  0  0  0
  -30.4316  -12.3037   19.4139 C   0  0  0  0  0  0
  -29.4865  -12.5153   18.2104 C   0  0  0  0  0  0
  -28.0099  -12.3678   18.6310 C   0  0  0  0  0  0
  -27.6660  -13.1976   19.8977 C   0  0  2  0  0  0
  -28.7118  -12.9446   21.0086 C   0  0  0  0  0  0
  -25.2558  -13.8141   20.5757 C   0  0  0  0  0  0
  -24.1797  -13.0411   20.9228 C   0  0  0  0  0  0
  -24.6344  -11.6877   20.8756 C   0  0  0  0  0  0
  -23.9004  -10.4255   21.0383 C   0  0  0  0  0  0
  -24.3578   -9.4191   21.9159 C   0  0  0  0  0  0
  -23.6272   -8.2215   22.0717 C   0  0  0  0  0  0
  -22.4247   -8.0250   21.3523 C   0  0  0  0  0  0
  -21.9873   -9.0197   20.4609 C   0  0  0  0  0  0
  -22.7163  -10.2096   20.3029 C   0  0  0  0  0  0
  -21.6831   -6.0722   22.5286 C   0  0  0  0  0  0
  -21.4002   -6.5629   23.8214 C   0  0  0  0  0  0
  -21.3679   -5.6776   24.9192 C   0  0  0  0  0  0
  -21.6056   -4.3040   24.7238 C   0  0  0  0  0  0
  -21.8808   -3.8137   23.4349 C   0  0  0  0  0  0
  -21.9172   -4.6959   22.3403 C   0  0  0  0  0  0
  -22.7811  -13.5193   21.1863 C   0  0  0  0  0  0
  -22.1622   -4.2154   21.0979 F   0  0  0  0  0  0
  -21.5660   -3.4514   25.7751 F   0  0  0  0  0  0
  -30.0436  -13.2602   20.4592 N   0  0  0  0  0  0
  -26.3019  -12.9308   20.3523 N   0  0  0  0  0  0
  -25.9285  -11.6460   20.5879 N   0  0  0  0  0  0
  -22.0485  -12.8156   22.0466 N   0  0  0  0  0  0
  -25.4252  -15.1858   20.4112 N   0  0  0  0  0  0
  -31.8101  -14.6676   20.1104 O   0  0  0  0  0  0
  -21.6618   -6.8843   21.4226 O   0  0  0  0  0  0
  -22.3482  -14.5495   20.6730 O   0  0  0  0  0  0
  -24.6094  -31.8722   23.2204 C   0  0  0  0  0  0
  -25.8979  -32.4861   23.8494 C   0  0  1  0  0  0
  -27.2362  -27.5107   20.0543 C   0  0  0  0  0  0
  -25.5884  -33.8693   24.2399 N   0  0  0  0  0  0
  -23.3947  -30.4986   21.5605 C   0  0  2  0  0  0
  -24.8378  -28.9809   20.1110 C   0  0  0  0  0  0
  -22.7371  -29.4697   22.5035 C   0  0  0  0  0  0
  -18.0265  -28.1372   22.8515 C   0  0  0  0  0  0
  -24.1466  -36.7336   23.2640 C   0  0  0  0  0  0
  -25.9171  -30.8631   21.3589 C   0  0  0  0  0  0
  -25.9966  -29.5097   20.6893 C   0  0  0  0  0  0
  -27.2051  -28.7835   20.6548 C   0  0  0  0  0  0
  -26.0630  -26.9808   19.4787 C   0  0  0  0  0  0
  -24.8622  -27.7130   19.5045 C   0  0  0  0  0  0
  -23.5909  -29.8311   20.1740 C   0  0  0  0  0  0
  -25.4101  -36.3170   24.0351 C   0  0  1  0  0  0
  -20.5843  -28.3654   23.1380 C   0  0  2  0  0  0
  -20.6764  -26.9392   22.5469 C   0  0  0  0  0  0
  -19.5728  -26.6292   21.5304 C   0  0  0  0  0  0
  -18.1883  -26.7939   22.1607 C   0  0  0  0  0  0
  -19.1499  -28.8823   23.2946 C   0  0  0  0  0  0
  -18.9427  -30.1441   23.8940 C   0  0  0  0  0  0
  -17.6429  -30.6568   24.0586 C   0  0  0  0  0  0
  -25.9034  -34.9526   23.5188 C   0  0  0  0  0  0
  -16.5314  -29.9058   23.6378 C   0  0  0  0  0  0
  -16.7259  -28.6488   23.0396 C   0  0  0  0  0  0
  -26.4440  -31.6635   25.0797 C   0  0  0  0  0  0
  -25.3759  -31.3695   26.1558 C   0  0  0  0  0  0
  -27.0238  -30.3096   24.6143 C   0  0  0  0  0  0
  -27.6030  -32.4366   25.7485 C   0  0  0  0  0  0
  -27.5594  -37.1795   24.8464 C   0  0  0  0  0  0
  -21.4094  -29.3069   22.3832 N   0  0  0  0  0  0
  -26.4303  -37.3862   23.9420 N   0  0  0  0  0  0
  -24.6600  -31.0876   22.1087 N   0  0  0  0  0  0
  -23.4169  -28.8189   23.3010 O   0  0  0  0  0  0
  -28.3747  -26.7500   20.0996 O   0  0  0  0  0  0
  -26.5572  -34.8947   22.4735 O   0  0  0  0  0  0
  -23.5301  -32.1434   23.7638 O   0  0  0  0  0  0
  -28.8326  -21.2242   20.1940 C   0  0  0  0  0  0
  -29.0374  -19.8356   20.1808 C   0  0  0  0  0  0
  -28.7564  -21.9050   21.4232 C   0  0  0  0  0  0
  -29.1217  -19.1081   21.3877 C   0  0  0  0  0  0
  -29.0501  -21.2239   22.6358 C   0  0  0  0  0  0
  -29.1692  -19.8041   22.6312 C   0  0  0  0  0  0
  -29.1754  -22.0239   23.9366 C   0  0  0  0  0  0
  -26.6870  -18.7034   24.0033 C   0  0  0  0  0  0
  -28.0703  -18.1253   26.0165 C   0  0  0  0  0  0
  -28.8987  -26.3122   22.4207 C   0  0  0  0  0  0
  -28.1548  -23.3048   21.4477 C   0  0  0  0  0  0
  -29.0129  -17.5886   21.2943 C   0  0  0  0  0  0
  -29.2566  -19.0418   23.9623 C   0  0  0  0  0  0
  -28.8701  -24.4173   20.6621 C   0  0  0  0  0  0
  -30.3354  -16.7968   21.3647 C   0  0  0  0  0  0
  -27.9509  -19.0553   24.8035 C   0  0  0  0  0  0
  -28.2814  -25.7642   21.1215 C   0  0  1  0  0  0
  -30.0313  -15.3660   21.2966 N   0  0  0  0  0  0
  -31.4722  -12.4284   19.1037 H   0  0  0  0  0  0
  -30.3573  -11.2872   19.8002 H   0  0  0  0  0  0
  -29.7197  -11.7962   17.4230 H   0  0  0  0  0  0
  -29.6449  -13.5103   17.7889 H   0  0  0  0  0  0
  -27.8169  -11.3113   18.8173 H   0  0  0  0  0  0
  -27.3521  -12.6514   17.8106 H   0  0  0  0  0  0
  -27.7167  -14.2516   19.6279 H   0  0  0  0  0  0
  -28.6978  -11.8967   21.3102 H   0  0  0  0  0  0
  -28.4727  -13.5012   21.9167 H   0  0  0  0  0  0
  -25.2725   -9.5680   22.4746 H   0  0  0  0  0  0
  -24.0001   -7.4584   22.7395 H   0  0  0  0  0  0
  -21.0814   -8.8639   19.8907 H   0  0  0  0  0  0
  -22.3559  -10.9612   19.6138 H   0  0  0  0  0  0
  -21.1968   -7.6128   23.9737 H   0  0  0  0  0  0
  -21.1537   -6.0502   25.9098 H   0  0  0  0  0  0
  -22.0587   -2.7609   23.2828 H   0  0  0  0  0  0
  -22.4106  -11.9832   22.4889 H   0  0  0  0  0  0
  -21.1131  -13.1192   22.2734 H   0  0  0  0  0  0
  -24.6535  -15.8368   20.5088 H   0  0  0  0  0  0
  -26.2739  -15.6239   20.0758 H   0  0  0  0  0  0
  -26.7044  -32.5543   23.1245 H   0  0  0  0  0  0
  -25.0010  -33.9916   25.0523 H   0  0  0  0  0  0
  -22.6798  -31.3150   21.4283 H   0  0  0  0  0  0
  -23.3781  -35.9616   23.3304 H   0  0  0  0  0  0
  -24.3558  -36.8984   22.2063 H   0  0  0  0  0  0
  -23.7142  -37.6513   23.6642 H   0  0  0  0  0  0
  -26.0337  -31.6423   20.6051 H   0  0  0  0  0  0
  -26.8015  -30.9040   21.9804 H   0  0  0  0  0  0
  -28.1012  -29.1892   21.1010 H   0  0  0  0  0  0
  -26.0703  -25.9950   19.0364 H   0  0  0  0  0  0
  -23.9619  -27.2952   19.0777 H   0  0  0  0  0  0
  -23.6778  -30.6057   19.4143 H   0  0  0  0  0  0
  -22.7174  -29.2449   19.8850 H   0  0  0  0  0  0
  -25.1267  -36.2079   25.0856 H   0  0  0  0  0  0
  -20.9945  -28.3230   24.1487 H   0  0  0  0  0  0
  -20.5809  -26.2244   23.3644 H   0  0  0  0  0  0
  -21.6601  -26.7495   22.1151 H   0  0  0  0  0  0
  -19.6867  -25.6169   21.1419 H   0  0  0  0  0  0
  -19.6713  -27.3033   20.6794 H   0  0  0  0  0  0
  -17.4209  -26.6819   21.3915 H   0  0  0  0  0  0
  -18.0141  -26.0079   22.8960 H   0  0  0  0  0  0
  -19.7928  -30.7295   24.2224 H   0  0  0  0  0  0
  -17.4985  -31.6247   24.5210 H   0  0  0  0  0  0
  -15.5316  -30.2933   23.7736 H   0  0  0  0  0  0
  -15.8654  -28.0825   22.7094 H   0  0  0  0  0  0
  -24.5908  -30.7050   25.7930 H   0  0  0  0  0  0
  -24.8929  -32.2808   26.5100 H   0  0  0  0  0  0
  -25.8161  -30.8816   27.0262 H   0  0  0  0  0  0
  -26.2766  -29.6871   24.1189 H   0  0  0  0  0  0
  -27.4008  -29.7312   25.4589 H   0  0  0  0  0  0
  -27.8628  -30.4443   23.9315 H   0  0  0  0  0  0
  -27.2676  -33.3659   26.2101 H   0  0  0  0  0  0
  -28.3759  -32.6962   25.0247 H   0  0  0  0  0  0
  -28.0784  -31.8496   26.5336 H   0  0  0  0  0  0
  -28.2607  -38.0111   24.7609 H   0  0  0  0  0  0
  -28.1089  -36.2633   24.6175 H   0  0  0  0  0  0
  -27.2306  -37.1404   25.8874 H   0  0  0  0  0  0
  -20.9192  -29.8924   21.7205 H   0  0  0  0  0  0
  -26.0198  -38.2937   24.1492 H   0  0  0  0  0  0
  -28.6541  -21.7463   19.2600 H   0  0  0  0  0  0
  -29.0380  -19.3225   19.2298 H   0  0  0  0  0  0
  -29.6905  -22.9691   23.7524 H   0  0  0  0  0  0
  -29.7635  -21.5233   24.7032 H   0  0  0  0  0  0
  -28.1929  -22.2437   24.3558 H   0  0  0  0  0  0
  -25.7976  -18.7868   24.6281 H   0  0  0  0  0  0
  -26.7321  -17.6794   23.6361 H   0  0  0  0  0  0
  -26.5406  -19.3662   23.1497 H   0  0  0  0  0  0
  -27.1849  -18.1922   26.6508 H   0  0  0  0  0  0
  -28.9364  -18.3714   26.6301 H   0  0  0  0  0  0
  -28.1696  -17.0855   25.7012 H   0  0  0  0  0  0
  -28.9167  -25.5574   23.2048 H   0  0  0  0  0  0
  -28.3114  -27.1466   22.8087 H   0  0  0  0  0  0
  -29.9229  -26.6563   22.2751 H   0  0  0  0  0  0
  -28.0005  -23.6329   22.4720 H   0  0  0  0  0  0
  -27.1340  -23.2117   21.0747 H   0  0  0  0  0  0
  -28.5188  -17.3513   20.3519 H   0  0  0  0  0  0
  -28.3157  -17.2443   22.0588 H   0  0  0  0  0  0
  -30.0842  -19.4364   24.5532 H   0  0  0  0  0  0
  -29.5512  -18.0125   23.7960 H   0  0  0  0  0  0
  -28.7088  -24.2673   19.5911 H   0  0  0  0  0  0
  -29.9456  -24.4109   20.8320 H   0  0  0  0  0  0
  -30.8793  -16.9977   22.2879 H   0  0  0  0  0  0
  -30.9847  -17.1033   20.5445 H   0  0  0  0  0  0
  -27.7983  -20.0630   25.1880 H   0  0  0  0  0  0
  -27.2280  -25.5686   21.3485 H   0  0  0  0  0  0
  -29.1400  -15.0726   21.6644 H   0  0  0  0  0  0
  1 25  1  0  0  0
  1 30  2  0  0  0
  1 88  1  0  0  0
  2  3  1  0  0  0
  2 25  1  0  0  0
  2 89  1  0  0  0
  2 90  1  0  0  0
  3  4  1  0  0  0
  3 91  1  0  0  0
  3 92  1  0  0  0
  4  5  1  0  0  0
  4 93  1  0  0  0
  4 94  1  0  0  0
  5  6  1  0  0  0
  5 26  1  0  0  0
  5 95  1  0  0  0
  6 25  1  0  0  0
  6 96  1  0  0  0
  6 97  1  0  0  0
  7  8  2  0  0  0
  7 26  1  0  0  0
  7 29  1  0  0  0
  8  9  1  0  0  0
  8 22  1  0  0  0
  9 10  1  0  0  0
  9 27  2  0  0  0
 10 11  2  0  0  0
 10 15  1  0  0  0
 11 12  1  0  0  0
 11 98  1  0  0  0
 12 13  2  0  0  0
 12 99  1  0  0  0
 13 14  1  0  0  0
 13 31  1  0  0  0
 14 15  2  0  0  0
 14100  1  0  0  0
 15101  1  0  0  0
 16 17  2  0  0  0
 16 21  1  0  0  0
 16 31  1  0  0  0
 17 18  1  0  0  0
 17102  1  0  0  0
 18 19  2  0  0  0
 18103  1  0  0  0
 19 20  1  0  0  0
 19 24  1  0  0  0
 20 21  2  0  0  0
 20104  1  0  0  0
 21 23  1  0  0  0
 22 28  1  0  0  0
 22 32  2  0  0  0
 26 27  1  0  0  0
 28105  1  0  0  0
 28106  1  0  0  0
 29107  1  0  0  0
 29108  1  0  0  0
 33 34  1  0  0  0
 33 66  1  0  0  0
 33 70  2  0  0  0
 34 36  1  0  0  0
 34 59  1  0  0  0
 34109  1  0  0  0
 35 44  2  0  0  0
 35 45  1  0  0  0
 35 68  1  0  0  0
 36 56  1  0  0  0
 36110  1  0  0  0
 37 39  1  0  0  0
 37 47  1  0  0  0
 37 66  1  0  0  0
 37111  1  0  0  0
 38 43  2  0  0  0
 38 46  1  0  0  0
 38 47  1  0  0  0
 39 64  1  0  0  0
 39 67  2  0  0  0
 40 52  1  0  0  0
 40 53  2  0  0  0
 40 58  1  0  0  0
 41112  1  0  0  0
 41113  1  0  0  0
 41114  1  0  0  0
 41 48  1  0  0  0
 42 43  1  0  0  0
 42 66  1  0  0  0
 42115  1  0  0  0
 42116  1  0  0  0
 43 44  1  0  0  0
 44117  1  0  0  0
 45 46  2  0  0  0
 45118  1  0  0  0
 46119  1  0  0  0
 47120  1  0  0  0
 47121  1  0  0  0
 48 56  1  0  0  0
 48 65  1  0  0  0
 48122  1  0  0  0
 49 50  1  0  0  0
 49 53  1  0  0  0
 49 64  1  0  0  0
 49123  1  0  0  0
 50 51  1  0  0  0
 50124  1  0  0  0
 50125  1  0  0  0
 51 52  1  0  0  0
 51126  1  0  0  0
 51127  1  0  0  0
 52128  1  0  0  0
 52129  1  0  0  0
 53 54  1  0  0  0
 54 55  2  0  0  0
 54130  1  0  0  0
 55 57  1  0  0  0
 55131  1  0  0  0
 56 69  2  0  0  0
 57 58  2  0  0  0
 57132  1  0  0  0
 58133  1  0  0  0
 59 60  1  0  0  0
 59 61  1  0  0  0
 59 62  1  0  0  0
 60134  1  0  0  0
 60135  1  0  0  0
 60136  1  0  0  0
 61137  1  0  0  0
 61138  1  0  0  0
 61139  1  0  0  0
 62140  1  0  0  0
 62141  1  0  0  0
 62142  1  0  0  0
 63 65  1  0  0  0
 63143  1  0  0  0
 63144  1  0  0  0
 63145  1  0  0  0
 64146  1  0  0  0
 65147  1  0  0  0
 68 87  1  0  0  0
 71 72  2  0  0  0
 71 73  1  0  0  0
 71148  1  0  0  0
 72 74  1  0  0  0
 72149  1  0  0  0
 73 75  2  0  0  0
 73 81  1  0  0  0
 74 76  2  0  0  0
 74 82  1  0  0  0
 75 76  1  0  0  0
 75 77  1  0  0  0
 76 83  1  0  0  0
 77150  1  0  0  0
 77151  1  0  0  0
 77152  1  0  0  0
 78153  1  0  0  0
 78154  1  0  0  0
 78155  1  0  0  0
 78 86  1  0  0  0
 79 86  1  0  0  0
 79156  1  0  0  0
 79157  1  0  0  0
 79158  1  0  0  0
 80159  1  0  0  0
 80160  1  0  0  0
 80161  1  0  0  0
 80 87  1  0  0  0
 81 84  1  0  0  0
 81162  1  0  0  0
 81163  1  0  0  0
 82 85  1  0  0  0
 82164  1  0  0  0
 82165  1  0  0  0
 83 86  1  0  0  0
 83166  1  0  0  0
 83167  1  0  0  0
 84 87  1  0  0  0
 84168  1  0  0  0
 84169  1  0  0  0
 85 88  1  0  0  0
 85170  1  0  0  0
 85171  1  0  0  0
 86172  1  0  0  0
 87173  1  0  0  0
 88174  1  0  0  0
M  ISO  4   1 100  68 101  87 101  88 100
M  END
> <chiral flag>
0

> <version>
0

> <s_m_source_file>
/data/baiqing/PycharmProjects/Reinvent-master-3.2/result/LINK_invent/BTK/process_docking_weight1_custom_sum_contain_oxygen_bond_distance_aromatic_linkinvent_7_9_3/rearranged_h_0102.sdf

> <i_m_source_file_index>
66

> <r_mmod_Potential_Energy-OPLS-2005>
-46.8378829956055

> <r_mmod_Stretch_Energy-OPLS-2005>
35.7914772033691

> <r_mmod_Bend_Energy-OPLS-2005>
99.4908828735352

> <r_mmod_Torsional_Energy-OPLS-2005>
249.217178344727

> <r_mmod_Improper_Torsional_Energy-OPLS-2005>
4.9963321685791

> <r_mmod_Van_der_Waal_Energy-OPLS-2005>
164.062576293945

> <r_mmod_Electrostatic_Energy-OPLS-2005>
-412.417053222656

> <r_mmod_Solvation_Energy-OPLS-2005>
-197.960968017578

> <b_mmod_Minimization_Converged-OPLS-2005>
0

> <r_mmod_RMS_Derivative-OPLS-2005>
5.59911632537842

$$$$
67
                    3D
 Structure written by MMmdl.
152159  0  0  1  0            999 V2000
  -30.3103  -15.5462   20.3756 C   0  0  0  0  0  0
  -30.4293  -13.0203   19.5274 C   0  0  0  0  0  0
  -29.5509  -12.6500   18.2997 C   0  0  0  0  0  0
  -28.1103  -12.3161   18.7265 C   0  0  0  0  0  0
  -27.5978  -13.2988   19.8047 C   0  0  2  0  0  0
  -28.6186  -13.5814   20.9272 C   0  0  0  0  0  0
  -25.2349  -13.8277   20.5718 C   0  0  0  0  0  0
  -24.1737  -13.0440   20.9251 C   0  0  0  0  0  0
  -24.6426  -11.6947   20.8732 C   0  0  0  0  0  0
  -23.9122  -10.4282   21.0390 C   0  0  0  0  0  0
  -24.3671   -9.4199   21.9176 C   0  0  0  0  0  0
  -23.6318   -8.2253   22.0776 C   0  0  0  0  0  0
  -22.4298   -8.0275   21.3556 C   0  0  0  0  0  0
  -21.9938   -9.0258   20.4652 C   0  0  0  0  0  0
  -22.7294  -10.2122   20.3044 C   0  0  0  0  0  0
  -21.6867   -6.0727   22.5261 C   0  0  0  0  0  0
  -21.4025   -6.5634   23.8192 C   0  0  0  0  0  0
  -21.3671   -5.6784   24.9157 C   0  0  0  0  0  0
  -21.6047   -4.3046   24.7220 C   0  0  0  0  0  0
  -21.8832   -3.8131   23.4336 C   0  0  0  0  0  0
  -21.9209   -4.6961   22.3400 C   0  0  0  0  0  0
  -22.7746  -13.5184   21.1892 C   0  0  0  0  0  0
  -22.1677   -4.2140   21.0978 F   0  0  0  0  0  0
  -21.5640   -3.4544   25.7735 F   0  0  0  0  0  0
  -29.7960  -14.1907   20.2728 N   0  0  0  0  0  0
  -26.2773  -12.9576   20.3138 N   0  0  0  0  0  0
  -25.9352  -11.6666   20.5643 N   0  0  0  0  0  0
  -22.0410  -12.8139   22.0439 N   0  0  0  0  0  0
  -25.3975  -15.2010   20.4122 N   0  0  0  0  0  0
  -31.5522  -15.5154   20.3043 O   0  0  0  0  0  0
  -21.6651   -6.8872   21.4233 O   0  0  0  0  0  0
  -22.3409  -14.5475   20.6711 O   0  0  0  0  0  0
  -24.6810  -31.8038   23.1521 C   0  0  0  0  0  0
  -25.9413  -32.4488   23.8056 C   0  0  1  0  0  0
  -27.2123  -26.7166   20.2313 C   0  0  0  0  0  0
  -25.5996  -33.8309   24.1966 N   0  0  0  0  0  0
  -23.5056  -30.4050   21.5076 C   0  0  2  0  0  0
  -24.9556  -28.7443   20.1288 C   0  0  0  0  0  0
  -22.7762  -29.4331   22.4734 C   0  0  0  0  0  0
  -18.0337  -28.1422   22.8446 C   0  0  0  0  0  0
  -24.1491  -36.7160   23.2649 C   0  0  0  0  0  0
  -26.0847  -30.5416   21.4128 C   0  0  0  0  0  0
  -26.1467  -29.1040   20.7731 C   0  0  0  0  0  0
  -27.2656  -28.1209   20.7826 C   0  0  0  0  0  0
  -25.9830  -26.5543   19.5429 C   0  0  0  0  0  0
  -24.9106  -27.4935   19.4912 C   0  0  0  0  0  0
  -23.7563  -29.7017   20.1438 C   0  0  0  0  0  0
  -25.4149  -36.2919   24.0281 C   0  0  1  0  0  0
  -20.5973  -28.3782   23.1148 C   0  0  2  0  0  0
  -20.6805  -26.9445   22.5397 C   0  0  0  0  0  0
  -19.5779  -26.6374   21.5208 C   0  0  0  0  0  0
  -18.1954  -26.7942   22.1608 C   0  0  0  0  0  0
  -19.1601  -28.8927   23.2771 C   0  0  0  0  0  0
  -18.9507  -30.1514   23.8825 C   0  0  0  0  0  0
  -17.6498  -30.6607   24.0550 C   0  0  0  0  0  0
  -25.9125  -34.9304   23.4961 C   0  0  0  0  0  0
  -16.5389  -29.9086   23.6353 C   0  0  0  0  0  0
  -16.7313  -28.6511   23.0367 C   0  0  0  0  0  0
  -26.4600  -31.6498   25.0665 C   0  0  0  0  0  0
  -25.3674  -31.3800   26.1287 C   0  0  0  0  0  0
  -27.0521  -30.2833   24.6540 C   0  0  0  0  0  0
  -27.6059  -32.4345   25.7489 C   0  0  0  0  0  0
  -27.5581  -37.1740   24.8469 C   0  0  0  0  0  0
  -21.4415  -29.3037   22.3475 N   0  0  0  0  0  0
  -26.4285  -37.3672   23.9421 N   0  0  0  0  0  0
  -24.7812  -30.9499   22.0759 N   0  0  0  0  0  0
  -23.4207  -28.7933   23.3077 O   0  0  0  0  0  0
  -28.2146  -25.5436   20.1688 O   0  0  0  0  0  0
  -26.5764  -34.8866   22.4583 O   0  0  0  0  0  0
  -23.5843  -32.1102   23.6484 O   0  0  0  0  0  0
  -27.0831  -21.7439   19.3971 C   0  0  0  0  0  0
  -30.7002  -20.8566   20.6976 C   0  0  0  0  0  0
  -29.5242  -20.1511   18.6488 C   0  0  0  0  0  0
  -29.3142  -18.5568   20.8061 C   0  0  0  0  0  0
  -28.2822  -23.8754   20.6890 C   0  0  0  0  0  0
  -28.2828  -21.9673   20.3300 C   0  0  2  0  0  0
  -29.3451  -20.3651   20.1623 C   0  0  0  0  0  0
  -29.5026  -16.8622   20.3432 N   0  0  0  0  0  0
  -31.4301  -13.2853   19.1879 H   0  0  0  0  0  0
  -30.5643  -12.1550   20.1785 H   0  0  0  0  0  0
  -29.9866  -11.8135   17.7516 H   0  0  0  0  0  0
  -29.5391  -13.4980   17.6115 H   0  0  0  0  0  0
  -28.1000  -11.2964   19.1129 H   0  0  0  0  0  0
  -27.4494  -12.3239   17.8579 H   0  0  0  0  0  0
  -27.4732  -14.2377   19.2654 H   0  0  0  0  0  0
  -28.8613  -12.6789   21.4874 H   0  0  0  0  0  0
  -28.2032  -14.2879   21.6473 H   0  0  0  0  0  0
  -25.2833   -9.5676   22.4734 H   0  0  0  0  0  0
  -24.0027   -7.4648   22.7494 H   0  0  0  0  0  0
  -21.0889   -8.8777   19.8937 H   0  0  0  0  0  0
  -22.3766  -10.9667   19.6125 H   0  0  0  0  0  0
  -21.2008   -7.6131   23.9701 H   0  0  0  0  0  0
  -21.1485   -6.0508   25.9059 H   0  0  0  0  0  0
  -22.0603   -2.7601   23.2844 H   0  0  0  0  0  0
  -22.4073  -11.9836   22.4843 H   0  0  0  0  0  0
  -21.1007  -13.1117   22.2586 H   0  0  0  0  0  0
  -24.6287  -15.8552   20.5110 H   0  0  0  0  0  0
  -26.2266  -15.6249   20.0173 H   0  0  0  0  0  0
  -26.7496  -32.4959   23.0774 H   0  0  0  0  0  0
  -25.0075  -33.9351   25.0074 H   0  0  0  0  0  0
  -22.8292  -31.2410   21.3189 H   0  0  0  0  0  0
  -23.3774  -35.9462   23.3268 H   0  0  0  0  0  0
  -24.3556  -36.8862   22.2068 H   0  0  0  0  0  0
  -23.7217  -37.6317   23.6746 H   0  0  0  0  0  0
  -26.2829  -31.2599   20.6158 H   0  0  0  0  0  0
  -26.9396  -30.6110   22.0742 H   0  0  0  0  0  0
  -28.1769  -28.4130   21.2836 H   0  0  0  0  0  0
  -25.8235  -25.6103   19.0412 H   0  0  0  0  0  0
  -24.0116  -27.2095   18.9591 H   0  0  0  0  0  0
  -23.9334  -30.4586   19.3789 H   0  0  0  0  0  0
  -22.8595  -29.1689   19.8217 H   0  0  0  0  0  0
  -25.1350  -36.1695   25.0765 H   0  0  0  0  0  0
  -21.0040  -28.3402   24.1284 H   0  0  0  0  0  0
  -20.5660  -26.2418   23.3664 H   0  0  0  0  0  0
  -21.6665  -26.7386   22.1234 H   0  0  0  0  0  0
  -19.6941  -25.6259   21.1298 H   0  0  0  0  0  0
  -19.6728  -27.3144   20.6699 H   0  0  0  0  0  0
  -17.4233  -26.6696   21.4004 H   0  0  0  0  0  0
  -18.0344  -26.0110   22.9030 H   0  0  0  0  0  0
  -19.7984  -30.7346   24.2169 H   0  0  0  0  0  0
  -17.5048  -31.6277   24.5158 H   0  0  0  0  0  0
  -15.5385  -30.2971   23.7707 H   0  0  0  0  0  0
  -15.8717  -28.0801   22.7132 H   0  0  0  0  0  0
  -24.5868  -30.7156   25.7575 H   0  0  0  0  0  0
  -24.8855  -32.3008   26.4557 H   0  0  0  0  0  0
  -25.7838  -30.9048   27.0174 H   0  0  0  0  0  0
  -26.3223  -29.6471   24.1518 H   0  0  0  0  0  0
  -27.3944  -29.7252   25.5267 H   0  0  0  0  0  0
  -27.9206  -30.3967   24.0054 H   0  0  0  0  0  0
  -27.2607  -33.3696   26.1902 H   0  0  0  0  0  0
  -28.3945  -32.6827   25.0381 H   0  0  0  0  0  0
  -28.0649  -31.8592   26.5538 H   0  0  0  0  0  0
  -28.2556  -38.0077   24.7536 H   0  0  0  0  0  0
  -28.1117  -36.2597   24.6268 H   0  0  0  0  0  0
  -27.2296  -37.1346   25.8869 H   0  0  0  0  0  0
  -20.9719  -29.8713   21.6562 H   0  0  0  0  0  0
  -26.0116  -38.2721   24.1431 H   0  0  0  0  0  0
  -26.2250  -22.3537   19.6760 H   0  0  0  0  0  0
  -26.7557  -20.7039   19.4251 H   0  0  0  0  0  0
  -27.3476  -21.9822   18.3665 H   0  0  0  0  0  0
  -31.4847  -20.1104   20.5580 H   0  0  0  0  0  0
  -30.6445  -21.0767   21.7631 H   0  0  0  0  0  0
  -31.0237  -21.7689   20.1949 H   0  0  0  0  0  0
  -30.2311  -19.3455   18.4487 H   0  0  0  0  0  0
  -29.8978  -21.0489   18.1545 H   0  0  0  0  0  0
  -28.5891  -19.8712   18.1628 H   0  0  0  0  0  0
  -28.2982  -18.5024   21.2018 H   0  0  0  0  0  0
  -29.9096  -18.5910   21.7209 H   0  0  0  0  0  0
  -29.1290  -23.9458   21.3725 H   0  0  0  0  0  0
  -27.4266  -23.9267   21.3648 H   0  0  0  0  0  0
  -27.8858  -21.6970   21.3102 H   0  0  0  0  0  0
  -28.5637  -16.5460   20.1390 H   0  0  0  0  0  0
  1 25  1  0  0  0
  1 30  2  0  0  0
  1 78  1  0  0  0
  2  3  1  0  0  0
  2 25  1  0  0  0
  2 79  1  0  0  0
  2 80  1  0  0  0
  3  4  1  0  0  0
  3 81  1  0  0  0
  3 82  1  0  0  0
  4  5  1  0  0  0
  4 83  1  0  0  0
  4 84  1  0  0  0
  5  6  1  0  0  0
  5 26  1  0  0  0
  5 85  1  0  0  0
  6 25  1  0  0  0
  6 86  1  0  0  0
  6 87  1  0  0  0
  7  8  2  0  0  0
  7 26  1  0  0  0
  7 29  1  0  0  0
  8  9  1  0  0  0
  8 22  1  0  0  0
  9 10  1  0  0  0
  9 27  2  0  0  0
 10 11  2  0  0  0
 10 15  1  0  0  0
 11 12  1  0  0  0
 11 88  1  0  0  0
 12 13  2  0  0  0
 12 89  1  0  0  0
 13 14  1  0  0  0
 13 31  1  0  0  0
 14 15  2  0  0  0
 14 90  1  0  0  0
 15 91  1  0  0  0
 16 17  2  0  0  0
 16 21  1  0  0  0
 16 31  1  0  0  0
 17 18  1  0  0  0
 17 92  1  0  0  0
 18 19  2  0  0  0
 18 93  1  0  0  0
 19 20  1  0  0  0
 19 24  1  0  0  0
 20 21  2  0  0  0
 20 94  1  0  0  0
 21 23  1  0  0  0
 22 28  1  0  0  0
 22 32  2  0  0  0
 26 27  1  0  0  0
 28 95  1  0  0  0
 28 96  1  0  0  0
 29 97  1  0  0  0
 29 98  1  0  0  0
 33 34  1  0  0  0
 33 66  1  0  0  0
 33 70  2  0  0  0
 34 36  1  0  0  0
 34 59  1  0  0  0
 34 99  1  0  0  0
 35 44  2  0  0  0
 35 45  1  0  0  0
 35 68  1  0  0  0
 36 56  1  0  0  0
 36100  1  0  0  0
 37 39  1  0  0  0
 37 47  1  0  0  0
 37 66  1  0  0  0
 37101  1  0  0  0
 38 43  2  0  0  0
 38 46  1  0  0  0
 38 47  1  0  0  0
 39 64  1  0  0  0
 39 67  2  0  0  0
 40 52  1  0  0  0
 40 53  2  0  0  0
 40 58  1  0  0  0
 41102  1  0  0  0
 41103  1  0  0  0
 41104  1  0  0  0
 41 48  1  0  0  0
 42 43  1  0  0  0
 42 66  1  0  0  0
 42105  1  0  0  0
 42106  1  0  0  0
 43 44  1  0  0  0
 44107  1  0  0  0
 45 46  2  0  0  0
 45108  1  0  0  0
 46109  1  0  0  0
 47110  1  0  0  0
 47111  1  0  0  0
 48 56  1  0  0  0
 48 65  1  0  0  0
 48112  1  0  0  0
 49 50  1  0  0  0
 49 53  1  0  0  0
 49 64  1  0  0  0
 49113  1  0  0  0
 50 51  1  0  0  0
 50114  1  0  0  0
 50115  1  0  0  0
 51 52  1  0  0  0
 51116  1  0  0  0
 51117  1  0  0  0
 52118  1  0  0  0
 52119  1  0  0  0
 53 54  1  0  0  0
 54 55  2  0  0  0
 54120  1  0  0  0
 55 57  1  0  0  0
 55121  1  0  0  0
 56 69  2  0  0  0
 57 58  2  0  0  0
 57122  1  0  0  0
 58123  1  0  0  0
 59 60  1  0  0  0
 59 61  1  0  0  0
 59 62  1  0  0  0
 60124  1  0  0  0
 60125  1  0  0  0
 60126  1  0  0  0
 61127  1  0  0  0
 61128  1  0  0  0
 61129  1  0  0  0
 62130  1  0  0  0
 62131  1  0  0  0
 62132  1  0  0  0
 63 65  1  0  0  0
 63133  1  0  0  0
 63134  1  0  0  0
 63135  1  0  0  0
 64136  1  0  0  0
 65137  1  0  0  0
 68 75  1  0  0  0
 71138  1  0  0  0
 71139  1  0  0  0
 71140  1  0  0  0
 71 76  1  0  0  0
 72141  1  0  0  0
 72142  1  0  0  0
 72143  1  0  0  0
 72 77  1  0  0  0
 73 77  1  0  0  0
 73144  1  0  0  0
 73145  1  0  0  0
 73146  1  0  0  0
 74 77  1  0  0  0
 74 78  1  0  0  0
 74147  1  0  0  0
 74148  1  0  0  0
 75 76  1  0  0  0
 75149  1  0  0  0
 75150  1  0  0  0
 76 77  1  0  0  0
 76151  1  0  0  0
 78152  1  0  0  0
M  ISO  4   1 100  68 101  75 101  78 100
M  END
> <chiral flag>
0

> <version>
0

> <s_m_source_file>
/data/baiqing/PycharmProjects/Reinvent-master-3.2/result/LINK_invent/BTK/process_docking_weight1_custom_sum_contain_oxygen_bond_distance_aromatic_linkinvent_7_9_3/rearranged_h_0102.sdf

> <i_m_source_file_index>
67

> <r_mmod_Potential_Energy-OPLS-2005>
2526.61279296875

> <r_mmod_Stretch_Energy-OPLS-2005>
1110.56701660156

> <r_mmod_Bend_Energy-OPLS-2005>
796.488891601562

> <r_mmod_Torsional_Energy-OPLS-2005>
292.804748535156

> <r_mmod_Improper_Torsional_Energy-OPLS-2005>
6.30609130859375

> <r_mmod_Van_der_Waal_Energy-OPLS-2005>
108.714057922363

> <r_mmod_Electrostatic_Energy-OPLS-2005>
-386.528961181641

> <r_mmod_Solvation_Energy-OPLS-2005>
-208.153366088867

> <b_mmod_Minimization_Converged-OPLS-2005>
0

> <r_mmod_RMS_Derivative-OPLS-2005>
3.57655835151672

$$$$
68
                    3D
 Structure written by MMmdl.
168176  0  0  1  0            999 V2000
  -30.5339  -14.9706   20.4321 C   0  0  0  0  0  0
  -30.4389  -12.6020   19.5191 C   0  0  0  0  0  0
  -29.5315  -12.5399   18.2691 C   0  0  0  0  0  0
  -28.0654  -12.3136   18.6829 C   0  0  0  0  0  0
  -27.6319  -13.2491   19.8428 C   0  0  2  0  0  0
  -28.6656  -13.2862   20.9890 C   0  0  0  0  0  0
  -25.2460  -13.8218   20.5684 C   0  0  0  0  0  0
  -24.1779  -13.0436   20.9200 C   0  0  0  0  0  0
  -24.6383  -11.6923   20.8741 C   0  0  0  0  0  0
  -23.9067  -10.4297   21.0407 C   0  0  0  0  0  0
  -24.3620   -9.4220   21.9178 C   0  0  0  0  0  0
  -23.6301   -8.2249   22.0756 C   0  0  0  0  0  0
  -22.4275   -8.0287   21.3548 C   0  0  0  0  0  0
  -21.9905   -9.0252   20.4640 C   0  0  0  0  0  0
  -22.7241  -10.2128   20.3057 C   0  0  0  0  0  0
  -21.6854   -6.0732   22.5272 C   0  0  0  0  0  0
  -21.4018   -6.5637   23.8207 C   0  0  0  0  0  0
  -21.3669   -5.6785   24.9174 C   0  0  0  0  0  0
  -21.6047   -4.3052   24.7225 C   0  0  0  0  0  0
  -21.8806   -3.8138   23.4348 C   0  0  0  0  0  0
  -21.9185   -4.6960   22.3399 C   0  0  0  0  0  0
  -22.7788  -13.5221   21.1858 C   0  0  0  0  0  0
  -22.1651   -4.2141   21.0978 F   0  0  0  0  0  0
  -21.5640   -3.4537   25.7747 F   0  0  0  0  0  0
  -29.9446  -13.7040   20.3996 N   0  0  0  0  0  0
  -26.2888  -12.9448   20.3222 N   0  0  0  0  0  0
  -25.9318  -11.6575   20.5717 N   0  0  0  0  0  0
  -22.0410  -12.8237   22.0418 N   0  0  0  0  0  0
  -25.4142  -15.1948   20.4107 N   0  0  0  0  0  0
  -31.7245  -15.0329   20.1037 O   0  0  0  0  0  0
  -21.6643   -6.8881   21.4240 O   0  0  0  0  0  0
  -22.3485  -14.5517   20.6695 O   0  0  0  0  0  0
  -24.6453  -31.8413   23.1836 C   0  0  0  0  0  0
  -25.9217  -32.4668   23.8263 C   0  0  1  0  0  0
  -27.2284  -27.1168   20.1757 C   0  0  0  0  0  0
  -25.5956  -33.8476   24.2186 N   0  0  0  0  0  0
  -23.4519  -30.4572   21.5282 C   0  0  2  0  0  0
  -24.9032  -28.8683   20.1175 C   0  0  0  0  0  0
  -22.7598  -29.4534   22.4854 C   0  0  0  0  0  0
  -18.0329  -28.1364   22.8460 C   0  0  0  0  0  0
  -24.1513  -36.7268   23.2655 C   0  0  0  0  0  0
  -26.0070  -30.7071   21.3872 C   0  0  0  0  0  0
  -26.0785  -29.3121   20.7399 C   0  0  0  0  0  0
  -27.2418  -28.4540   20.7459 C   0  0  0  0  0  0
  -26.0304  -26.7709   19.5191 C   0  0  0  0  0  0
  -24.8935  -27.6115   19.4885 C   0  0  0  0  0  0
  -23.6815  -29.7762   20.1510 C   0  0  0  0  0  0
  -25.4128  -36.3028   24.0332 C   0  0  1  0  0  0
  -20.5933  -28.3706   23.1223 C   0  0  2  0  0  0
  -20.6792  -26.9408   22.5401 C   0  0  0  0  0  0
  -19.5766  -26.6359   21.5198 C   0  0  0  0  0  0
  -18.1945  -26.7908   22.1601 C   0  0  0  0  0  0
  -19.1584  -28.8858   23.2825 C   0  0  0  0  0  0
  -18.9492  -30.1451   23.8854 C   0  0  0  0  0  0
  -17.6477  -30.6550   24.0562 C   0  0  0  0  0  0
  -25.9072  -34.9399   23.5068 C   0  0  0  0  0  0
  -16.5369  -29.9037   23.6319 C   0  0  0  0  0  0
  -16.7312  -28.6463   23.0333 C   0  0  0  0  0  0
  -26.4521  -31.6515   25.0709 C   0  0  0  0  0  0
  -25.3702  -31.3682   26.1401 C   0  0  0  0  0  0
  -27.0388  -30.2914   24.6284 C   0  0  0  0  0  0
  -27.6096  -32.4244   25.7461 C   0  0  0  0  0  0
  -27.5589  -37.1774   24.8443 C   0  0  0  0  0  0
  -21.4293  -29.3031   22.3597 N   0  0  0  0  0  0
  -26.4289  -37.3737   23.9413 N   0  0  0  0  0  0
  -24.7211  -31.0267   22.0872 N   0  0  0  0  0  0
  -23.4230  -28.8139   23.3043 O   0  0  0  0  0  0
  -28.3027  -26.1518   20.1727 O   0  0  0  0  0  0
  -26.5684  -34.8904   22.4658 O   0  0  0  0  0  0
  -23.5564  -32.1305   23.7031 O   0  0  0  0  0  0
  -29.0163  -21.7766   22.0856 C   0  0  0  0  0  0
  -29.2659  -20.6117   22.8428 C   0  0  0  0  0  0
  -29.2687  -20.4000   20.1208 C   0  0  0  0  0  0
  -29.0108  -21.7668   20.6812 C   0  0  0  0  0  0
  -29.5242  -19.3239   22.2913 C   0  0  0  0  0  0
  -29.5377  -19.1307   20.8736 C   0  0  0  0  0  0
  -32.0151  -23.2664   17.5703 C   0  0  0  0  0  0
  -28.8341  -18.0759   24.4240 C   0  0  0  0  0  0
  -31.2849  -18.4295   23.8689 C   0  0  0  0  0  0
  -30.0092  -17.6776   20.1870 C   0  0  0  0  0  0
  -30.8876  -22.6592   18.4078 C   0  0  0  0  0  0
  -30.1722  -23.7012   19.2896 C   0  0  0  0  0  0
  -28.1469  -24.6512   20.6012 C   0  0  0  0  0  0
  -28.8344  -23.2455   19.9146 C   0  0  2  0  0  0
  -29.8757  -18.2168   23.2960 C   0  0  0  0  0  0
  -29.7673  -16.1612   20.6177 N   0  0  0  0  0  0
  -31.4772  -12.7452   19.2169 H   0  0  0  0  0  0
  -30.4225  -11.6501   20.0546 H   0  0  0  0  0  0
  -29.8654  -11.7453   17.5997 H   0  0  0  0  0  0
  -29.6154  -13.4730   17.7087 H   0  0  0  0  0  0
  -27.9715  -11.2749   18.9998 H   0  0  0  0  0  0
  -27.4006  -12.4307   17.8248 H   0  0  0  0  0  0
  -27.5980  -14.2517   19.4128 H   0  0  0  0  0  0
  -28.7530  -12.3146   21.4777 H   0  0  0  0  0  0
  -28.3547  -13.9890   21.7637 H   0  0  0  0  0  0
  -25.2755   -9.5727   22.4761 H   0  0  0  0  0  0
  -24.0012   -7.4661   22.7494 H   0  0  0  0  0  0
  -21.0823   -8.8782   19.8957 H   0  0  0  0  0  0
  -22.3697  -10.9672   19.6177 H   0  0  0  0  0  0
  -21.2026   -7.6142   23.9719 H   0  0  0  0  0  0
  -21.1499   -6.0512   25.9081 H   0  0  0  0  0  0
  -22.0584   -2.7598   23.2831 H   0  0  0  0  0  0
  -22.4007  -11.9933   22.4888 H   0  0  0  0  0  0
  -21.1025  -13.1309   22.2577 H   0  0  0  0  0  0
  -24.6488  -15.8480   20.5448 H   0  0  0  0  0  0
  -26.2506  -15.6354   20.0515 H   0  0  0  0  0  0
  -26.7295  -32.5273   23.1010 H   0  0  0  0  0  0
  -25.0090  -33.9559   25.0325 H   0  0  0  0  0  0
  -22.7539  -31.2824   21.3682 H   0  0  0  0  0  0
  -23.3780  -35.9586   23.3255 H   0  0  0  0  0  0
  -24.3644  -36.8964   22.2086 H   0  0  0  0  0  0
  -23.7247  -37.6443   23.6719 H   0  0  0  0  0  0
  -26.1628  -31.4551   20.6084 H   0  0  0  0  0  0
  -26.8790  -30.7655   22.0275 H   0  0  0  0  0  0
  -28.1412  -28.7931   21.2405 H   0  0  0  0  0  0
  -25.9728  -25.8103   19.0291 H   0  0  0  0  0  0
  -24.0047  -27.2663   18.9803 H   0  0  0  0  0  0
  -23.8226  -30.5470   19.3911 H   0  0  0  0  0  0
  -22.7958  -29.2176   19.8426 H   0  0  0  0  0  0
  -25.1309  -36.1862   25.0822 H   0  0  0  0  0  0
  -21.0018  -28.3295   24.1343 H   0  0  0  0  0  0
  -20.5619  -26.2343   23.3637 H   0  0  0  0  0  0
  -21.6663  -26.7343   22.1248 H   0  0  0  0  0  0
  -19.6914  -25.6261   21.1245 H   0  0  0  0  0  0
  -19.6690  -27.3162   20.6725 H   0  0  0  0  0  0
  -17.4221  -26.6693   21.3991 H   0  0  0  0  0  0
  -18.0310  -26.0028   22.8969 H   0  0  0  0  0  0
  -19.7970  -30.7289   24.2167 H   0  0  0  0  0  0
  -17.5026  -31.6215   24.5204 H   0  0  0  0  0  0
  -15.5361  -30.2918   23.7638 H   0  0  0  0  0  0
  -15.8736  -28.0774   22.7012 H   0  0  0  0  0  0
  -24.5920  -30.6978   25.7729 H   0  0  0  0  0  0
  -24.8826  -32.2835   26.4767 H   0  0  0  0  0  0
  -25.8001  -30.8909   27.0216 H   0  0  0  0  0  0
  -26.2984  -29.6603   24.1346 H   0  0  0  0  0  0
  -27.4082  -29.7245   25.4843 H   0  0  0  0  0  0
  -27.8876  -30.4184   23.9558 H   0  0  0  0  0  0
  -27.2758  -33.3581   26.1998 H   0  0  0  0  0  0
  -28.3908  -32.6709   25.0257 H   0  0  0  0  0  0
  -28.0754  -31.8360   26.5374 H   0  0  0  0  0  0
  -28.2555  -38.0126   24.7547 H   0  0  0  0  0  0
  -28.1138  -36.2652   24.6167 H   0  0  0  0  0  0
  -27.2343  -37.1324   25.8860 H   0  0  0  0  0  0
  -20.9495  -29.8761   21.6801 H   0  0  0  0  0  0
  -26.0165  -38.2814   24.1388 H   0  0  0  0  0  0
  -28.8675  -22.7072   22.6136 H   0  0  0  0  0  0
  -29.2980  -20.7424   23.9148 H   0  0  0  0  0  0
  -29.3139  -20.3216   19.0444 H   0  0  0  0  0  0
  -32.5390  -22.4937   17.0062 H   0  0  0  0  0  0
  -32.7471  -23.7775   18.1963 H   0  0  0  0  0  0
  -31.6213  -23.9884   16.8540 H   0  0  0  0  0  0
  -27.8469  -17.8426   24.0262 H   0  0  0  0  0  0
  -28.7426  -18.9749   25.0338 H   0  0  0  0  0  0
  -29.1010  -17.2689   25.1075 H   0  0  0  0  0  0
  -32.0297  -18.4485   23.0740 H   0  0  0  0  0  0
  -31.5573  -17.6245   24.5522 H   0  0  0  0  0  0
  -31.3610  -19.3668   24.4229 H   0  0  0  0  0  0
  -31.0885  -17.7667   20.0615 H   0  0  0  0  0  0
  -29.6255  -17.7300   19.1679 H   0  0  0  0  0  0
  -31.3049  -21.8664   19.0299 H   0  0  0  0  0  0
  -30.1651  -22.1906   17.7400 H   0  0  0  0  0  0
  -29.9728  -24.5886   18.6871 H   0  0  0  0  0  0
  -30.8511  -24.0297   20.0782 H   0  0  0  0  0  0
  -28.5410  -24.6802   21.6162 H   0  0  0  0  0  0
  -27.0828  -24.4558   20.7420 H   0  0  0  0  0  0
  -28.1866  -23.0115   19.0699 H   0  0  0  0  0  0
  -29.8881  -17.2544   22.8033 H   0  0  0  0  0  0
  -28.8179  -15.9768   20.9057 H   0  0  0  0  0  0
  1 25  1  0  0  0
  1 30  2  0  0  0
  1 86  1  0  0  0
  2  3  1  0  0  0
  2 25  1  0  0  0
  2 87  1  0  0  0
  2 88  1  0  0  0
  3  4  1  0  0  0
  3 89  1  0  0  0
  3 90  1  0  0  0
  4  5  1  0  0  0
  4 91  1  0  0  0
  4 92  1  0  0  0
  5  6  1  0  0  0
  5 26  1  0  0  0
  5 93  1  0  0  0
  6 25  1  0  0  0
  6 94  1  0  0  0
  6 95  1  0  0  0
  7  8  2  0  0  0
  7 26  1  0  0  0
  7 29  1  0  0  0
  8  9  1  0  0  0
  8 22  1  0  0  0
  9 10  1  0  0  0
  9 27  2  0  0  0
 10 11  2  0  0  0
 10 15  1  0  0  0
 11 12  1  0  0  0
 11 96  1  0  0  0
 12 13  2  0  0  0
 12 97  1  0  0  0
 13 14  1  0  0  0
 13 31  1  0  0  0
 14 15  2  0  0  0
 14 98  1  0  0  0
 15 99  1  0  0  0
 16 17  2  0  0  0
 16 21  1  0  0  0
 16 31  1  0  0  0
 17 18  1  0  0  0
 17100  1  0  0  0
 18 19  2  0  0  0
 18101  1  0  0  0
 19 20  1  0  0  0
 19 24  1  0  0  0
 20 21  2  0  0  0
 20102  1  0  0  0
 21 23  1  0  0  0
 22 28  1  0  0  0
 22 32  2  0  0  0
 26 27  1  0  0  0
 28103  1  0  0  0
 28104  1  0  0  0
 29105  1  0  0  0
 29106  1  0  0  0
 33 34  1  0  0  0
 33 66  1  0  0  0
 33 70  2  0  0  0
 34 36  1  0  0  0
 34 59  1  0  0  0
 34107  1  0  0  0
 35 44  2  0  0  0
 35 45  1  0  0  0
 35 68  1  0  0  0
 36 56  1  0  0  0
 36108  1  0  0  0
 37 39  1  0  0  0
 37 47  1  0  0  0
 37 66  1  0  0  0
 37109  1  0  0  0
 38 43  2  0  0  0
 38 46  1  0  0  0
 38 47  1  0  0  0
 39 64  1  0  0  0
 39 67  2  0  0  0
 40 52  1  0  0  0
 40 53  2  0  0  0
 40 58  1  0  0  0
 41110  1  0  0  0
 41111  1  0  0  0
 41112  1  0  0  0
 41 48  1  0  0  0
 42 43  1  0  0  0
 42 66  1  0  0  0
 42113  1  0  0  0
 42114  1  0  0  0
 43 44  1  0  0  0
 44115  1  0  0  0
 45 46  2  0  0  0
 45116  1  0  0  0
 46117  1  0  0  0
 47118  1  0  0  0
 47119  1  0  0  0
 48 56  1  0  0  0
 48 65  1  0  0  0
 48120  1  0  0  0
 49 50  1  0  0  0
 49 53  1  0  0  0
 49 64  1  0  0  0
 49121  1  0  0  0
 50 51  1  0  0  0
 50122  1  0  0  0
 50123  1  0  0  0
 51 52  1  0  0  0
 51124  1  0  0  0
 51125  1  0  0  0
 52126  1  0  0  0
 52127  1  0  0  0
 53 54  1  0  0  0
 54 55  2  0  0  0
 54128  1  0  0  0
 55 57  1  0  0  0
 55129  1  0  0  0
 56 69  2  0  0  0
 57 58  2  0  0  0
 57130  1  0  0  0
 58131  1  0  0  0
 59 60  1  0  0  0
 59 61  1  0  0  0
 59 62  1  0  0  0
 60132  1  0  0  0
 60133  1  0  0  0
 60134  1  0  0  0
 61135  1  0  0  0
 61136  1  0  0  0
 61137  1  0  0  0
 62138  1  0  0  0
 62139  1  0  0  0
 62140  1  0  0  0
 63 65  1  0  0  0
 63141  1  0  0  0
 63142  1  0  0  0
 63143  1  0  0  0
 64144  1  0  0  0
 65145  1  0  0  0
 68 83  1  0  0  0
 71 72  2  0  0  0
 71 74  1  0  0  0
 71146  1  0  0  0
 72 75  1  0  0  0
 72147  1  0  0  0
 73 74  2  0  0  0
 73 76  1  0  0  0
 73148  1  0  0  0
 74 84  1  0  0  0
 75 76  2  0  0  0
 75 85  1  0  0  0
 76 80  1  0  0  0
 77 81  1  0  0  0
 77149  1  0  0  0
 77150  1  0  0  0
 77151  1  0  0  0
 78152  1  0  0  0
 78153  1  0  0  0
 78154  1  0  0  0
 78 85  1  0  0  0
 79 85  1  0  0  0
 79155  1  0  0  0
 79156  1  0  0  0
 79157  1  0  0  0
 80 86  1  0  0  0
 80158  1  0  0  0
 80159  1  0  0  0
 81 82  1  0  0  0
 81160  1  0  0  0
 81161  1  0  0  0
 82162  1  0  0  0
 82163  1  0  0  0
 82 84  1  0  0  0
 83 84  1  0  0  0
 83164  1  0  0  0
 83165  1  0  0  0
 84166  1  0  0  0
 85167  1  0  0  0
 86168  1  0  0  0
M  ISO  4   1 100  68 101  83 101  86 100
M  END
> <chiral flag>
0

> <version>
0

> <s_m_source_file>
/data/baiqing/PycharmProjects/Reinvent-master-3.2/result/LINK_invent/BTK/process_docking_weight1_custom_sum_contain_oxygen_bond_distance_aromatic_linkinvent_7_9_3/rearranged_h_0102.sdf

> <i_m_source_file_index>
68

> <r_mmod_Potential_Energy-OPLS-2005>
548.428344726562

> <r_mmod_Stretch_Energy-OPLS-2005>
297.816650390625

> <r_mmod_Bend_Energy-OPLS-2005>
279.191314697266

> <r_mmod_Torsional_Energy-OPLS-2005>
233.109817504883

> <r_mmod_Improper_Torsional_Energy-OPLS-2005>
6.25349235534668

> <r_mmod_Van_der_Waal_Energy-OPLS-2005>
127.937339782715

> <r_mmod_Electrostatic_Energy-OPLS-2005>
-402.824584960938

> <r_mmod_Solvation_Energy-OPLS-2005>
-196.245574951172

> <b_mmod_Minimization_Converged-OPLS-2005>
0

> <r_mmod_RMS_Derivative-OPLS-2005>
3.62672138214111

$$$$
69
                    3D
 Structure written by MMmdl.
158166  0  0  1  0            999 V2000
  -30.4221  -15.2777   20.3708 C   0  0  0  0  0  0
  -30.4409  -12.8222   19.5073 C   0  0  0  0  0  0
  -29.5330  -12.5694   18.2777 C   0  0  0  0  0  0
  -28.0835  -12.2898   18.7145 C   0  0  0  0  0  0
  -27.6086  -13.2713   19.8147 C   0  0  2  0  0  0
  -28.6454  -13.4536   20.9415 C   0  0  0  0  0  0
  -25.2392  -13.8231   20.5742 C   0  0  0  0  0  0
  -24.1746  -13.0428   20.9274 C   0  0  0  0  0  0
  -24.6397  -11.6924   20.8766 C   0  0  0  0  0  0
  -23.9092  -10.4290   21.0416 C   0  0  0  0  0  0
  -24.3635   -9.4204   21.9193 C   0  0  0  0  0  0
  -23.6297   -8.2245   22.0758 C   0  0  0  0  0  0
  -22.4278   -8.0286   21.3552 C   0  0  0  0  0  0
  -21.9924   -9.0265   20.4656 C   0  0  0  0  0  0
  -22.7264  -10.2138   20.3065 C   0  0  0  0  0  0
  -21.6853   -6.0744   22.5289 C   0  0  0  0  0  0
  -21.4018   -6.5645   23.8224 C   0  0  0  0  0  0
  -21.3653   -5.6797   24.9181 C   0  0  0  0  0  0
  -21.6041   -4.3058   24.7233 C   0  0  0  0  0  0
  -21.8811   -3.8155   23.4353 C   0  0  0  0  0  0
  -21.9192   -4.6972   22.3411 C   0  0  0  0  0  0
  -22.7767  -13.5191   21.1919 C   0  0  0  0  0  0
  -22.1661   -4.2158   21.0988 F   0  0  0  0  0  0
  -21.5626   -3.4537   25.7745 F   0  0  0  0  0  0
  -29.8666  -13.9692   20.2999 N   0  0  0  0  0  0
  -26.2810  -12.9503   20.3188 N   0  0  0  0  0  0
  -25.9329  -11.6612   20.5714 N   0  0  0  0  0  0
  -22.0412  -12.8175   22.0463 N   0  0  0  0  0  0
  -25.3998  -15.1971   20.4186 N   0  0  0  0  0  0
  -31.6548  -15.2814   20.2380 O   0  0  0  0  0  0
  -21.6632   -6.8885   21.4252 O   0  0  0  0  0  0
  -22.3451  -14.5494   20.6756 O   0  0  0  0  0  0
  -24.6627  -31.8234   23.1696 C   0  0  0  0  0  0
  -25.9311  -32.4586   23.8165 C   0  0  1  0  0  0
  -27.2189  -26.9241   20.1959 C   0  0  0  0  0  0
  -25.5979  -33.8400   24.2080 N   0  0  0  0  0  0
  -23.4769  -30.4336   21.5202 C   0  0  2  0  0  0
  -24.9286  -28.8116   20.1238 C   0  0  0  0  0  0
  -22.7661  -29.4444   22.4799 C   0  0  0  0  0  0
  -18.0317  -28.1406   22.8464 C   0  0  0  0  0  0
  -24.1495  -36.7206   23.2648 C   0  0  0  0  0  0
  -26.0457  -30.6304   21.3967 C   0  0  0  0  0  0
  -26.1143  -29.2160   20.7497 C   0  0  0  0  0  0
  -27.2582  -28.2970   20.7506 C   0  0  0  0  0  0
  -25.9992  -26.6637   19.5351 C   0  0  0  0  0  0
  -24.8949  -27.5549   19.4976 C   0  0  0  0  0  0
  -23.7173  -29.7436   20.1495 C   0  0  0  0  0  0
  -25.4134  -36.2962   24.0302 C   0  0  1  0  0  0
  -20.5941  -28.3751   23.1193 C   0  0  2  0  0  0
  -20.6796  -26.9434   22.5402 C   0  0  0  0  0  0
  -19.5770  -26.6376   21.5213 C   0  0  0  0  0  0
  -18.1952  -26.7942   22.1622 C   0  0  0  0  0  0
  -19.1579  -28.8900   23.2817 C   0  0  0  0  0  0
  -18.9491  -30.1492   23.8852 C   0  0  0  0  0  0
  -17.6483  -30.6598   24.0555 C   0  0  0  0  0  0
  -25.9095  -34.9347   23.5012 C   0  0  0  0  0  0
  -16.5373  -29.9084   23.6340 C   0  0  0  0  0  0
  -16.7299  -28.6504   23.0358 C   0  0  0  0  0  0
  -26.4563  -31.6520   25.0686 C   0  0  0  0  0  0
  -25.3696  -31.3774   26.1348 C   0  0  0  0  0  0
  -27.0458  -30.2884   24.6407 C   0  0  0  0  0  0
  -27.6061  -32.4322   25.7489 C   0  0  0  0  0  0
  -27.5568  -37.1761   24.8467 C   0  0  0  0  0  0
  -21.4335  -29.3045   22.3548 N   0  0  0  0  0  0
  -26.4281  -37.3699   23.9406 N   0  0  0  0  0  0
  -24.7499  -30.9898   22.0827 N   0  0  0  0  0  0
  -23.4204  -28.8012   23.3041 O   0  0  0  0  0  0
  -28.2642  -25.8628   20.1488 O   0  0  0  0  0  0
  -26.5709  -34.8884   22.4609 O   0  0  0  0  0  0
  -23.5698  -32.1206   23.6790 O   0  0  0  0  0  0
  -30.6423  -21.5199   20.3642 C   0  0  0  0  0  0
  -30.7758  -20.0673   18.4206 C   0  0  0  0  0  0
  -31.3984  -21.0019   19.2848 C   0  0  0  0  0  0
  -29.2841  -21.1561   20.3876 C   0  0  0  0  0  0
  -29.1941  -19.6415   19.9860 C   0  0  0  0  0  0
  -33.6741  -21.7327   20.1661 C   0  0  0  0  0  0
  -32.6320  -22.8892   18.1606 C   0  0  0  0  0  0
  -28.4276  -22.6163   19.9253 C   0  0  0  0  0  0
  -29.8232  -18.1726   20.7003 C   0  0  0  0  0  0
  -28.2673  -24.2778   20.6272 C   0  0  0  0  0  0
  -32.7680  -21.5694   18.9341 C   0  0  0  0  0  0
  -29.5951  -19.4723   18.7130 N   0  0  0  0  0  0
  -29.6364  -16.5365   20.3958 N   0  0  0  0  0  0
  -31.4535  -13.0447   19.1688 H   0  0  0  0  0  0
  -30.5259  -11.9244   20.1220 H   0  0  0  0  0  0
  -29.9146  -11.7358   17.6858 H   0  0  0  0  0  0
  -29.5563  -13.4441   17.6265 H   0  0  0  0  0  0
  -28.0488  -11.2691   19.0973 H   0  0  0  0  0  0
  -27.4095  -12.3181   17.8573 H   0  0  0  0  0  0
  -27.5177  -14.2341   19.3105 H   0  0  0  0  0  0
  -28.8243  -12.5201   21.4767 H   0  0  0  0  0  0
  -28.2846  -14.1722   21.6796 H   0  0  0  0  0  0
  -25.2780   -9.5672   22.4772 H   0  0  0  0  0  0
  -24.0006   -7.4627   22.7471 H   0  0  0  0  0  0
  -21.0858   -8.8795   19.8956 H   0  0  0  0  0  0
  -22.3730  -10.9682   19.6176 H   0  0  0  0  0  0
  -21.2009   -7.6153   23.9732 H   0  0  0  0  0  0
  -21.1480   -6.0524   25.9084 H   0  0  0  0  0  0
  -22.0589   -2.7618   23.2856 H   0  0  0  0  0  0
  -22.4034  -11.9847   22.4871 H   0  0  0  0  0  0
  -21.1025  -13.1204   22.2653 H   0  0  0  0  0  0
  -24.6225  -15.8395   20.5290 H   0  0  0  0  0  0
  -26.2307  -15.6436   20.0545 H   0  0  0  0  0  0
  -26.7381  -32.5127   23.0880 H   0  0  0  0  0  0
  -25.0072  -33.9476   25.0193 H   0  0  0  0  0  0
  -22.7894  -31.2640   21.3460 H   0  0  0  0  0  0
  -23.3763  -35.9529   23.3288 H   0  0  0  0  0  0
  -24.3566  -36.8870   22.2064 H   0  0  0  0  0  0
  -23.7249  -37.6388   23.6718 H   0  0  0  0  0  0
  -26.2206  -31.3683   20.6119 H   0  0  0  0  0  0
  -26.9079  -30.6931   22.0490 H   0  0  0  0  0  0
  -28.1685  -28.6173   21.2375 H   0  0  0  0  0  0
  -25.8828  -25.7064   19.0472 H   0  0  0  0  0  0
  -23.9932  -27.2374   18.9921 H   0  0  0  0  0  0
  -23.8783  -30.5088   19.3888 H   0  0  0  0  0  0
  -22.8259  -29.1999   19.8308 H   0  0  0  0  0  0
  -25.1331  -36.1761   25.0793 H   0  0  0  0  0  0
  -21.0022  -28.3361   24.1318 H   0  0  0  0  0  0
  -20.5674  -26.2371   23.3641 H   0  0  0  0  0  0
  -21.6659  -26.7409   22.1210 H   0  0  0  0  0  0
  -19.6933  -25.6276   21.1270 H   0  0  0  0  0  0
  -19.6713  -27.3160   20.6722 H   0  0  0  0  0  0
  -17.4222  -26.6680   21.4028 H   0  0  0  0  0  0
  -18.0352  -26.0100   22.9033 H   0  0  0  0  0  0
  -19.7965  -30.7323   24.2197 H   0  0  0  0  0  0
  -17.5032  -31.6268   24.5171 H   0  0  0  0  0  0
  -15.5372  -30.2970   23.7687 H   0  0  0  0  0  0
  -15.8701  -28.0807   22.7095 H   0  0  0  0  0  0
  -24.5889  -30.7109   25.7665 H   0  0  0  0  0  0
  -24.8872  -32.2974   26.4651 H   0  0  0  0  0  0
  -25.7925  -30.9022   27.0204 H   0  0  0  0  0  0
  -26.3117  -29.6566   24.1394 H   0  0  0  0  0  0
  -27.3971  -29.7241   25.5055 H   0  0  0  0  0  0
  -27.9065  -30.4067   23.9826 H   0  0  0  0  0  0
  -27.2634  -33.3668   26.1938 H   0  0  0  0  0  0
  -28.3938  -32.6805   25.0366 H   0  0  0  0  0  0
  -28.0656  -31.8534   26.5507 H   0  0  0  0  0  0
  -28.2570  -38.0072   24.7496 H   0  0  0  0  0  0
  -28.1079  -36.2592   24.6312 H   0  0  0  0  0  0
  -27.2282  -37.1421   25.8871 H   0  0  0  0  0  0
  -20.9596  -29.8718   21.6662 H   0  0  0  0  0  0
  -26.0130  -38.2757   24.1407 H   0  0  0  0  0  0
  -30.9700  -22.4569   20.7916 H   0  0  0  0  0  0
  -31.2373  -19.7791   17.4877 H   0  0  0  0  0  0
  -33.7876  -20.7892   20.7006 H   0  0  0  0  0  0
  -33.2847  -22.4715   20.8677 H   0  0  0  0  0  0
  -34.6720  -22.0607   19.8738 H   0  0  0  0  0  0
  -32.0554  -22.7504   17.2457 H   0  0  0  0  0  0
  -33.6090  -23.2774   17.8711 H   0  0  0  0  0  0
  -32.1338  -23.6563   18.7546 H   0  0  0  0  0  0
  -27.4077  -22.2857   19.7298 H   0  0  0  0  0  0
  -28.8157  -22.8039   18.9230 H   0  0  0  0  0  0
  -29.5440  -18.2675   21.7494 H   0  0  0  0  0  0
  -30.9052  -18.3108   20.7198 H   0  0  0  0  0  0
  -29.1334  -24.3091   21.2879 H   0  0  0  0  0  0
  -27.4344  -24.2104   21.3274 H   0  0  0  0  0  0
  -33.2554  -20.8486   18.2746 H   0  0  0  0  0  0
  -28.6545  -16.3231   20.3156 H   0  0  0  0  0  0
  1 25  1  0  0  0
  1 30  2  0  0  0
  1 83  1  0  0  0
  2  3  1  0  0  0
  2 25  1  0  0  0
  2 84  1  0  0  0
  2 85  1  0  0  0
  3  4  1  0  0  0
  3 86  1  0  0  0
  3 87  1  0  0  0
  4  5  1  0  0  0
  4 88  1  0  0  0
  4 89  1  0  0  0
  5  6  1  0  0  0
  5 26  1  0  0  0
  5 90  1  0  0  0
  6 25  1  0  0  0
  6 91  1  0  0  0
  6 92  1  0  0  0
  7  8  2  0  0  0
  7 26  1  0  0  0
  7 29  1  0  0  0
  8  9  1  0  0  0
  8 22  1  0  0  0
  9 10  1  0  0  0
  9 27  2  0  0  0
 10 11  2  0  0  0
 10 15  1  0  0  0
 11 12  1  0  0  0
 11 93  1  0  0  0
 12 13  2  0  0  0
 12 94  1  0  0  0
 13 14  1  0  0  0
 13 31  1  0  0  0
 14 15  2  0  0  0
 14 95  1  0  0  0
 15 96  1  0  0  0
 16 17  2  0  0  0
 16 21  1  0  0  0
 16 31  1  0  0  0
 17 18  1  0  0  0
 17 97  1  0  0  0
 18 19  2  0  0  0
 18 98  1  0  0  0
 19 20  1  0  0  0
 19 24  1  0  0  0
 20 21  2  0  0  0
 20 99  1  0  0  0
 21 23  1  0  0  0
 22 28  1  0  0  0
 22 32  2  0  0  0
 26 27  1  0  0  0
 28100  1  0  0  0
 28101  1  0  0  0
 29102  1  0  0  0
 29103  1  0  0  0
 33 34  1  0  0  0
 33 66  1  0  0  0
 33 70  2  0  0  0
 34 36  1  0  0  0
 34 59  1  0  0  0
 34104  1  0  0  0
 35 44  2  0  0  0
 35 45  1  0  0  0
 35 68  1  0  0  0
 36 56  1  0  0  0
 36105  1  0  0  0
 37 39  1  0  0  0
 37 47  1  0  0  0
 37 66  1  0  0  0
 37106  1  0  0  0
 38 43  2  0  0  0
 38 46  1  0  0  0
 38 47  1  0  0  0
 39 64  1  0  0  0
 39 67  2  0  0  0
 40 52  1  0  0  0
 40 53  2  0  0  0
 40 58  1  0  0  0
 41107  1  0  0  0
 41108  1  0  0  0
 41109  1  0  0  0
 41 48  1  0  0  0
 42 43  1  0  0  0
 42 66  1  0  0  0
 42110  1  0  0  0
 42111  1  0  0  0
 43 44  1  0  0  0
 44112  1  0  0  0
 45 46  2  0  0  0
 45113  1  0  0  0
 46114  1  0  0  0
 47115  1  0  0  0
 47116  1  0  0  0
 48 56  1  0  0  0
 48 65  1  0  0  0
 48117  1  0  0  0
 49 50  1  0  0  0
 49 53  1  0  0  0
 49 64  1  0  0  0
 49118  1  0  0  0
 50 51  1  0  0  0
 50119  1  0  0  0
 50120  1  0  0  0
 51 52  1  0  0  0
 51121  1  0  0  0
 51122  1  0  0  0
 52123  1  0  0  0
 52124  1  0  0  0
 53 54  1  0  0  0
 54 55  2  0  0  0
 54125  1  0  0  0
 55 57  1  0  0  0
 55126  1  0  0  0
 56 69  2  0  0  0
 57 58  2  0  0  0
 57127  1  0  0  0
 58128  1  0  0  0
 59 60  1  0  0  0
 59 61  1  0  0  0
 59 62  1  0  0  0
 60129  1  0  0  0
 60130  1  0  0  0
 60131  1  0  0  0
 61132  1  0  0  0
 61133  1  0  0  0
 61134  1  0  0  0
 62135  1  0  0  0
 62136  1  0  0  0
 62137  1  0  0  0
 63 65  1  0  0  0
 63138  1  0  0  0
 63139  1  0  0  0
 63140  1  0  0  0
 64141  1  0  0  0
 65142  1  0  0  0
 68 80  1  0  0  0
 71 73  2  0  0  0
 71 74  1  0  0  0
 71143  1  0  0  0
 72 73  1  0  0  0
 72 82  2  0  0  0
 72144  1  0  0  0
 73 81  1  0  0  0
 74 75  2  0  0  0
 74 78  1  0  0  0
 75 79  1  0  0  0
 75 82  1  0  0  0
 76145  1  0  0  0
 76146  1  0  0  0
 76147  1  0  0  0
 76 81  1  0  0  0
 77 81  1  0  0  0
 77148  1  0  0  0
 77149  1  0  0  0
 77150  1  0  0  0
 78 80  1  0  0  0
 78151  1  0  0  0
 78152  1  0  0  0
 79 83  1  0  0  0
 79153  1  0  0  0
 79154  1  0  0  0
 80155  1  0  0  0
 80156  1  0  0  0
 81157  1  0  0  0
 83158  1  0  0  0
M  ISO  4   1 100  68 101  80 101  83 100
M  END
> <chiral flag>
0

> <version>
0

> <s_m_source_file>
/data/baiqing/PycharmProjects/Reinvent-master-3.2/result/LINK_invent/BTK/process_docking_weight1_custom_sum_contain_oxygen_bond_distance_aromatic_linkinvent_7_9_3/rearranged_h_0102.sdf

> <i_m_source_file_index>
69

> <r_mmod_Potential_Energy-OPLS-2005>
1354.74365234375

> <r_mmod_Stretch_Energy-OPLS-2005>
610.888854980469

> <r_mmod_Bend_Energy-OPLS-2005>
516.940856933594

> <r_mmod_Torsional_Energy-OPLS-2005>
429.818969726562

> <r_mmod_Improper_Torsional_Energy-OPLS-2005>
36.0614929199219

> <r_mmod_Van_der_Waal_Energy-OPLS-2005>
134.317092895508

> <r_mmod_Electrostatic_Energy-OPLS-2005>
-605.787109375

> <r_mmod_Solvation_Energy-OPLS-2005>
-227.322845458984

> <b_mmod_Minimization_Converged-OPLS-2005>
0

> <r_mmod_RMS_Derivative-OPLS-2005>
1.37972497940063

$$$$
70
                    3D
 Structure written by MMmdl.
162170  0  0  1  0            999 V2000
  -30.6261  -14.7116   20.4626 C   0  0  0  0  0  0
  -30.4244  -12.4381   19.4771 C   0  0  0  0  0  0
  -29.5159  -12.5242   18.2342 C   0  0  0  0  0  0
  -28.0352  -12.3559   18.6330 C   0  0  0  0  0  0
  -27.6387  -13.2391   19.8499 C   0  0  2  0  0  0
  -28.6783  -13.1637   20.9895 C   0  0  0  0  0  0
  -25.2490  -13.8202   20.5668 C   0  0  0  0  0  0
  -24.1775  -13.0427   20.9139 C   0  0  0  0  0  0
  -24.6359  -11.6919   20.8650 C   0  0  0  0  0  0
  -23.9032  -10.4290   21.0316 C   0  0  0  0  0  0
  -24.3610   -9.4240   21.9120 C   0  0  0  0  0  0
  -23.6310   -8.2266   22.0739 C   0  0  0  0  0  0
  -22.4280   -8.0257   21.3558 C   0  0  0  0  0  0
  -21.9880   -9.0192   20.4643 C   0  0  0  0  0  0
  -22.7177  -10.2087   20.3001 C   0  0  0  0  0  0
  -21.6865   -6.0689   22.5266 C   0  0  0  0  0  0
  -21.4024   -6.5613   23.8182 C   0  0  0  0  0  0
  -21.3672   -5.6780   24.9161 C   0  0  0  0  0  0
  -21.6054   -4.3042   24.7216 C   0  0  0  0  0  0
  -21.8835   -3.8113   23.4353 C   0  0  0  0  0  0
  -21.9224   -4.6916   22.3395 C   0  0  0  0  0  0
  -22.7802  -13.5215   21.1785 C   0  0  0  0  0  0
  -22.1688   -4.2104   21.0974 F   0  0  0  0  0  0
  -21.5626   -3.4523   25.7742 F   0  0  0  0  0  0
  -29.9873  -13.4954   20.4151 N   0  0  0  0  0  0
  -26.2910  -12.9431   20.3227 N   0  0  0  0  0  0
  -25.9304  -11.6571   20.5682 N   0  0  0  0  0  0
  -22.0477  -12.8223   22.0372 N   0  0  0  0  0  0
  -25.4174  -15.1931   20.4153 N   0  0  0  0  0  0
  -31.8072  -14.8042   20.1244 O   0  0  0  0  0  0
  -21.6692   -6.8819   21.4213 O   0  0  0  0  0  0
  -22.3484  -14.5482   20.6590 O   0  0  0  0  0  0
  -24.6292  -31.8544   23.1988 C   0  0  0  0  0  0
  -25.9149  -32.4734   23.8285 C   0  0  1  0  0  0
  -27.2169  -27.2997   20.1282 C   0  0  0  0  0  0
  -25.5959  -33.8549   24.2219 N   0  0  0  0  0  0
  -23.4177  -30.4783   21.5463 C   0  0  2  0  0  0
  -24.8591  -28.9188   20.1197 C   0  0  0  0  0  0
  -22.7447  -29.4615   22.4983 C   0  0  0  0  0  0
  -18.0296  -28.1334   22.8511 C   0  0  0  0  0  0
  -24.1493  -36.7260   23.2644 C   0  0  0  0  0  0
  -25.9579  -30.7846   21.3637 C   0  0  0  0  0  0
  -26.0306  -29.4061   20.7136 C   0  0  0  0  0  0
  -27.2153  -28.6115   20.6988 C   0  0  0  0  0  0
  -26.0275  -26.8594   19.5142 C   0  0  0  0  0  0
  -24.8604  -27.6530   19.5102 C   0  0  0  0  0  0
  -23.6264  -29.8020   20.1661 C   0  0  0  0  0  0
  -25.4124  -36.3052   24.0314 C   0  0  1  0  0  0
  -20.5886  -28.3640   23.1302 C   0  0  2  0  0  0
  -20.6765  -26.9362   22.5425 C   0  0  0  0  0  0
  -19.5755  -26.6358   21.5211 C   0  0  0  0  0  0
  -18.1939  -26.7891   22.1616 C   0  0  0  0  0  0
  -19.1543  -28.8814   23.2893 C   0  0  0  0  0  0
  -18.9462  -30.1432   23.8880 C   0  0  0  0  0  0
  -17.6463  -30.6560   24.0551 C   0  0  0  0  0  0
  -25.9081  -34.9428   23.5068 C   0  0  0  0  0  0
  -16.5354  -29.9041   23.6338 C   0  0  0  0  0  0
  -16.7279  -28.6445   23.0387 C   0  0  0  0  0  0
  -26.4541  -31.6561   25.0662 C   0  0  0  0  0  0
  -25.3772  -31.3679   26.1377 C   0  0  0  0  0  0
  -27.0379  -30.2983   24.6118 C   0  0  0  0  0  0
  -27.6099  -32.4287   25.7433 C   0  0  0  0  0  0
  -27.5576  -37.1780   24.8471 C   0  0  0  0  0  0
  -21.4176  -29.2988   22.3682 N   0  0  0  0  0  0
  -26.4286  -37.3758   23.9411 N   0  0  0  0  0  0
  -24.6880  -31.0560   22.0931 N   0  0  0  0  0  0
  -23.4171  -28.8196   23.3083 O   0  0  0  0  0  0
  -28.3485  -26.4769   20.0838 O   0  0  0  0  0  0
  -26.5655  -34.8917   22.4643 O   0  0  0  0  0  0
  -23.5466  -32.1344   23.7335 O   0  0  0  0  0  0
  -30.3153  -22.8708   19.6598 C   0  0  0  0  0  0
  -28.7497  -21.1501   20.3395 C   0  0  0  0  0  0
  -29.0257  -22.5602   20.1195 C   0  0  0  0  0  0
  -31.2509  -21.8711   19.3340 C   0  0  0  0  0  0
  -29.6921  -20.0729   20.0732 C   0  0  0  0  0  0
  -30.9425  -20.4861   19.5119 C   0  0  0  0  0  0
  -32.5701  -22.3472   18.7258 C   0  0  0  0  0  0
  -31.9394  -19.4518   19.0172 C   0  0  0  0  0  0
  -26.6266  -23.2940   20.7457 C   0  0  0  0  0  0
  -29.2775  -18.5284   20.2911 C   0  0  0  0  0  0
  -30.3288  -17.2914   20.4501 C   0  0  0  0  0  0
  -28.3871  -25.1853   20.8232 C   0  0  0  0  0  0
  -27.9794  -23.7601   20.1807 C   0  0  1  0  0  0
  -29.8699  -15.8528   20.6746 N   0  0  0  0  0  0
  -31.4697  -12.5501   19.1860 H   0  0  0  0  0  0
  -30.3407  -11.4573   19.9473 H   0  0  0  0  0  0
  -29.8033  -11.7686   17.5004 H   0  0  0  0  0  0
  -29.6582  -13.4902   17.7486 H   0  0  0  0  0  0
  -27.8681  -11.3020   18.8606 H   0  0  0  0  0  0
  -27.3976  -12.5925   17.7801 H   0  0  0  0  0  0
  -27.6325  -14.2679   19.4860 H   0  0  0  0  0  0
  -28.6953  -12.1670   21.4315 H   0  0  0  0  0  0
  -28.4106  -13.8496   21.7967 H   0  0  0  0  0  0
  -25.2743   -9.5770   22.4680 H   0  0  0  0  0  0
  -24.0056   -7.4684   22.7472 H   0  0  0  0  0  0
  -21.0814   -8.8640   19.8968 H   0  0  0  0  0  0
  -22.3565  -10.9591   19.6108 H   0  0  0  0  0  0
  -21.1993   -7.6121   23.9649 H   0  0  0  0  0  0
  -21.1492   -6.0531   25.9062 H   0  0  0  0  0  0
  -22.0612   -2.7570   23.2866 H   0  0  0  0  0  0
  -22.4205  -12.0009   22.4891 H   0  0  0  0  0  0
  -21.1034  -13.1144   22.2431 H   0  0  0  0  0  0
  -24.6382  -15.8391   20.5011 H   0  0  0  0  0  0
  -26.2718  -15.6411   20.1066 H   0  0  0  0  0  0
  -26.7202  -32.5384   23.1012 H   0  0  0  0  0  0
  -25.0111  -33.9668   25.0370 H   0  0  0  0  0  0
  -22.7122  -31.2996   21.4034 H   0  0  0  0  0  0
  -23.3761  -35.9591   23.3306 H   0  0  0  0  0  0
  -24.3587  -36.8888   22.2061 H   0  0  0  0  0  0
  -23.7248  -37.6455   23.6682 H   0  0  0  0  0  0
  -26.0850  -31.5455   20.5909 H   0  0  0  0  0  0
  -26.8392  -30.8331   21.9908 H   0  0  0  0  0  0
  -28.1253  -28.9982   21.1364 H   0  0  0  0  0  0
  -25.9989  -25.8957   19.0271 H   0  0  0  0  0  0
  -23.9626  -27.2764   19.0374 H   0  0  0  0  0  0
  -23.7340  -30.5704   19.3999 H   0  0  0  0  0  0
  -22.7439  -29.2290   19.8752 H   0  0  0  0  0  0
  -25.1323  -36.1875   25.0804 H   0  0  0  0  0  0
  -20.9989  -28.3189   24.1417 H   0  0  0  0  0  0
  -20.5650  -26.2230   23.3613 H   0  0  0  0  0  0
  -21.6632  -26.7380   22.1223 H   0  0  0  0  0  0
  -19.6898  -25.6278   21.1219 H   0  0  0  0  0  0
  -19.6680  -27.3179   20.6754 H   0  0  0  0  0  0
  -17.4208  -26.6682   21.4008 H   0  0  0  0  0  0
  -18.0312  -25.9997   22.8967 H   0  0  0  0  0  0
  -19.7949  -30.7266   24.2197 H   0  0  0  0  0  0
  -17.5019  -31.6252   24.5126 H   0  0  0  0  0  0
  -15.5348  -30.2939   23.7661 H   0  0  0  0  0  0
  -15.8682  -28.0745   22.7132 H   0  0  0  0  0  0
  -24.6015  -30.6947   25.7704 H   0  0  0  0  0  0
  -24.8891  -32.2828   26.4744 H   0  0  0  0  0  0
  -25.8113  -30.8918   27.0179 H   0  0  0  0  0  0
  -26.2922  -29.6691   24.1237 H   0  0  0  0  0  0
  -27.4175  -29.7281   25.4613 H   0  0  0  0  0  0
  -27.8756  -30.4245   23.9247 H   0  0  0  0  0  0
  -27.2738  -33.3620   26.1950 H   0  0  0  0  0  0
  -28.3951  -32.6773   25.0282 H   0  0  0  0  0  0
  -28.0717  -31.8434   26.5389 H   0  0  0  0  0  0
  -28.2602  -38.0076   24.7545 H   0  0  0  0  0  0
  -28.1061  -36.2610   24.6272 H   0  0  0  0  0  0
  -27.2292  -37.1396   25.8876 H   0  0  0  0  0  0
  -20.9353  -29.8617   21.6824 H   0  0  0  0  0  0
  -26.0150  -38.2818   24.1450 H   0  0  0  0  0  0
  -30.5740  -23.9062   19.4799 H   0  0  0  0  0  0
  -27.7606  -20.8751   20.6798 H   0  0  0  0  0  0
  -32.6609  -23.4352   18.7248 H   0  0  0  0  0  0
  -32.6561  -22.0273   17.6866 H   0  0  0  0  0  0
  -33.4247  -21.9707   19.2850 H   0  0  0  0  0  0
  -31.4625  -18.8271   18.2610 H   0  0  0  0  0  0
  -32.3047  -18.8402   19.8400 H   0  0  0  0  0  0
  -32.8224  -19.8666   18.5443 H   0  0  0  0  0  0
  -26.1699  -22.5533   20.0893 H   0  0  0  0  0  0
  -25.9210  -24.1205   20.8420 H   0  0  0  0  0  0
  -26.7424  -22.8510   21.7347 H   0  0  0  0  0  0
  -28.6336  -18.2818   19.4477 H   0  0  0  0  0  0
  -28.6183  -18.5123   21.1590 H   0  0  0  0  0  0
  -31.0476  -17.5285   21.2362 H   0  0  0  0  0  0
  -30.8993  -17.2072   19.5315 H   0  0  0  0  0  0
  -29.4171  -25.1031   21.1699 H   0  0  0  0  0  0
  -27.8239  -25.3271   21.7462 H   0  0  0  0  0  0
  -27.8034  -23.9787   19.1288 H   0  0  0  0  0  0
  -28.9126  -15.7150   20.9639 H   0  0  0  0  0  0
  1 25  1  0  0  0
  1 30  2  0  0  0
  1 84  1  0  0  0
  2  3  1  0  0  0
  2 25  1  0  0  0
  2 85  1  0  0  0
  2 86  1  0  0  0
  3  4  1  0  0  0
  3 87  1  0  0  0
  3 88  1  0  0  0
  4  5  1  0  0  0
  4 89  1  0  0  0
  4 90  1  0  0  0
  5  6  1  0  0  0
  5 26  1  0  0  0
  5 91  1  0  0  0
  6 25  1  0  0  0
  6 92  1  0  0  0
  6 93  1  0  0  0
  7  8  2  0  0  0
  7 26  1  0  0  0
  7 29  1  0  0  0
  8  9  1  0  0  0
  8 22  1  0  0  0
  9 10  1  0  0  0
  9 27  2  0  0  0
 10 11  2  0  0  0
 10 15  1  0  0  0
 11 12  1  0  0  0
 11 94  1  0  0  0
 12 13  2  0  0  0
 12 95  1  0  0  0
 13 14  1  0  0  0
 13 31  1  0  0  0
 14 15  2  0  0  0
 14 96  1  0  0  0
 15 97  1  0  0  0
 16 17  2  0  0  0
 16 21  1  0  0  0
 16 31  1  0  0  0
 17 18  1  0  0  0
 17 98  1  0  0  0
 18 19  2  0  0  0
 18 99  1  0  0  0
 19 20  1  0  0  0
 19 24  1  0  0  0
 20 21  2  0  0  0
 20100  1  0  0  0
 21 23  1  0  0  0
 22 28  1  0  0  0
 22 32  2  0  0  0
 26 27  1  0  0  0
 28101  1  0  0  0
 28102  1  0  0  0
 29103  1  0  0  0
 29104  1  0  0  0
 33 34  1  0  0  0
 33 66  1  0  0  0
 33 70  2  0  0  0
 34 36  1  0  0  0
 34 59  1  0  0  0
 34105  1  0  0  0
 35 44  2  0  0  0
 35 45  1  0  0  0
 35 68  1  0  0  0
 36 56  1  0  0  0
 36106  1  0  0  0
 37 39  1  0  0  0
 37 47  1  0  0  0
 37 66  1  0  0  0
 37107  1  0  0  0
 38 43  2  0  0  0
 38 46  1  0  0  0
 38 47  1  0  0  0
 39 64  1  0  0  0
 39 67  2  0  0  0
 40 52  1  0  0  0
 40 53  2  0  0  0
 40 58  1  0  0  0
 41108  1  0  0  0
 41109  1  0  0  0
 41110  1  0  0  0
 41 48  1  0  0  0
 42 43  1  0  0  0
 42 66  1  0  0  0
 42111  1  0  0  0
 42112  1  0  0  0
 43 44  1  0  0  0
 44113  1  0  0  0
 45 46  2  0  0  0
 45114  1  0  0  0
 46115  1  0  0  0
 47116  1  0  0  0
 47117  1  0  0  0
 48 56  1  0  0  0
 48 65  1  0  0  0
 48118  1  0  0  0
 49 50  1  0  0  0
 49 53  1  0  0  0
 49 64  1  0  0  0
 49119  1  0  0  0
 50 51  1  0  0  0
 50120  1  0  0  0
 50121  1  0  0  0
 51 52  1  0  0  0
 51122  1  0  0  0
 51123  1  0  0  0
 52124  1  0  0  0
 52125  1  0  0  0
 53 54  1  0  0  0
 54 55  2  0  0  0
 54126  1  0  0  0
 55 57  1  0  0  0
 55127  1  0  0  0
 56 69  2  0  0  0
 57 58  2  0  0  0
 57128  1  0  0  0
 58129  1  0  0  0
 59 60  1  0  0  0
 59 61  1  0  0  0
 59 62  1  0  0  0
 60130  1  0  0  0
 60131  1  0  0  0
 60132  1  0  0  0
 61133  1  0  0  0
 61134  1  0  0  0
 61135  1  0  0  0
 62136  1  0  0  0
 62137  1  0  0  0
 62138  1  0  0  0
 63 65  1  0  0  0
 63139  1  0  0  0
 63140  1  0  0  0
 63141  1  0  0  0
 64142  1  0  0  0
 65143  1  0  0  0
 68 82  1  0  0  0
 71 73  2  0  0  0
 71 74  1  0  0  0
 71144  1  0  0  0
 72 73  1  0  0  0
 72 75  2  0  0  0
 72145  1  0  0  0
 73 83  1  0  0  0
 74 76  2  0  0  0
 74 77  1  0  0  0
 75 76  1  0  0  0
 75 80  1  0  0  0
 76 78  1  0  0  0
 77146  1  0  0  0
 77147  1  0  0  0
 77148  1  0  0  0
 78149  1  0  0  0
 78150  1  0  0  0
 78151  1  0  0  0
 79152  1  0  0  0
 79153  1  0  0  0
 79154  1  0  0  0
 79 83  1  0  0  0
 80 81  1  0  0  0
 80155  1  0  0  0
 80156  1  0  0  0
 81 84  1  0  0  0
 81157  1  0  0  0
 81158  1  0  0  0
 82 83  1  0  0  0
 82159  1  0  0  0
 82160  1  0  0  0
 83161  1  0  0  0
 84162  1  0  0  0
M  ISO  4   1 100  68 101  82 101  84 100
M  END
> <chiral flag>
0

> <version>
0

> <s_m_source_file>
/data/baiqing/PycharmProjects/Reinvent-master-3.2/result/LINK_invent/BTK/process_docking_weight1_custom_sum_contain_oxygen_bond_distance_aromatic_linkinvent_7_9_3/rearranged_h_0102.sdf

> <i_m_source_file_index>
70

> <r_mmod_Potential_Energy-OPLS-2005>
150.837158203125

> <r_mmod_Stretch_Energy-OPLS-2005>
119.587471008301

> <r_mmod_Bend_Energy-OPLS-2005>
175.214340209961

> <r_mmod_Torsional_Energy-OPLS-2005>
239.946319580078

> <r_mmod_Improper_Torsional_Energy-OPLS-2005>
6.23166275024414

> <r_mmod_Van_der_Waal_Energy-OPLS-2005>
149.841171264648

> <r_mmod_Electrostatic_Energy-OPLS-2005>
-398.346374511719

> <r_mmod_Solvation_Energy-OPLS-2005>
-205.768997192383

> <b_mmod_Minimization_Converged-OPLS-2005>
0

> <r_mmod_RMS_Derivative-OPLS-2005>
5.16761159896851

$$$$
71
                    3D
 Structure written by MMmdl.
167175  0  0  1  0            999 V2000
  -30.5896  -15.0140   20.3896 C   0  0  0  0  0  0
  -30.4208  -12.6580   19.4589 C   0  0  0  0  0  0
  -29.4986  -12.4999   18.2368 C   0  0  0  0  0  0
  -28.0455  -12.2723   18.6897 C   0  0  0  0  0  0
  -27.6085  -13.2391   19.8170 C   0  0  2  0  0  0
  -28.6632  -13.3736   20.9327 C   0  0  0  0  0  0
  -25.2464  -13.8206   20.5732 C   0  0  0  0  0  0
  -24.1718  -13.0503   20.9140 C   0  0  0  0  0  0
  -24.6336  -11.6957   20.8715 C   0  0  0  0  0  0
  -23.9048  -10.4300   21.0341 C   0  0  0  0  0  0
  -24.3676   -9.4175   21.9007 C   0  0  0  0  0  0
  -23.6405   -8.2178   22.0563 C   0  0  0  0  0  0
  -22.4301   -8.0243   21.3493 C   0  0  0  0  0  0
  -21.9867   -9.0232   20.4642 C   0  0  0  0  0  0
  -22.7184  -10.2133   20.3051 C   0  0  0  0  0  0
  -21.6834   -6.0791   22.5307 C   0  0  0  0  0  0
  -21.3999   -6.5755   23.8209 C   0  0  0  0  0  0
  -21.3693   -5.6944   24.9180 C   0  0  0  0  0  0
  -21.6055   -4.3191   24.7245 C   0  0  0  0  0  0
  -21.8772   -3.8214   23.4366 C   0  0  0  0  0  0
  -21.9199   -4.7019   22.3419 C   0  0  0  0  0  0
  -22.7730  -13.5320   21.1748 C   0  0  0  0  0  0
  -22.1696   -4.2211   21.0995 F   0  0  0  0  0  0
  -21.5642   -3.4670   25.7737 F   0  0  0  0  0  0
  -29.9138  -13.7931   20.2875 N   0  0  0  0  0  0
  -26.2829  -12.9366   20.3310 N   0  0  0  0  0  0
  -25.9287  -11.6538   20.5888 N   0  0  0  0  0  0
  -22.0425  -12.8334   22.0323 N   0  0  0  0  0  0
  -25.4243  -15.1931   20.4104 N   0  0  0  0  0  0
  -31.8099  -14.9520   20.1883 O   0  0  0  0  0  0
  -21.6645   -6.8888   21.4245 O   0  0  0  0  0  0
  -22.3414  -14.5633   20.6600 O   0  0  0  0  0  0
  -24.6488  -31.8436   23.1854 C   0  0  0  0  0  0
  -25.9253  -32.4672   23.8240 C   0  0  1  0  0  0
  -27.1876  -27.0936   20.1614 C   0  0  0  0  0  0
  -25.5981  -33.8482   24.2139 N   0  0  0  0  0  0
  -23.4513  -30.4650   21.5329 C   0  0  2  0  0  0
  -24.8914  -28.8841   20.1074 C   0  0  0  0  0  0
  -22.7581  -29.4547   22.4841 C   0  0  0  0  0  0
  -18.0322  -28.1394   22.8476 C   0  0  0  0  0  0
  -24.1499  -36.7238   23.2640 C   0  0  0  0  0  0
  -26.0106  -30.7055   21.3874 C   0  0  0  0  0  0
  -26.0721  -29.3115   20.7302 C   0  0  0  0  0  0
  -27.2252  -28.4335   20.7324 C   0  0  0  0  0  0
  -25.9859  -26.7750   19.5020 C   0  0  0  0  0  0
  -24.8653  -27.6320   19.4772 C   0  0  0  0  0  0
  -23.6725  -29.7953   20.1496 C   0  0  0  0  0  0
  -25.4133  -36.3000   24.0291 C   0  0  1  0  0  0
  -20.5938  -28.3718   23.1215 C   0  0  2  0  0  0
  -20.6789  -26.9417   22.5383 C   0  0  0  0  0  0
  -19.5753  -26.6381   21.5204 C   0  0  0  0  0  0
  -18.1950  -26.7936   22.1622 C   0  0  0  0  0  0
  -19.1579  -28.8880   23.2842 C   0  0  0  0  0  0
  -18.9476  -30.1475   23.8876 C   0  0  0  0  0  0
  -17.6470  -30.6588   24.0561 C   0  0  0  0  0  0
  -25.9085  -34.9393   23.5025 C   0  0  0  0  0  0
  -16.5368  -29.9073   23.6337 C   0  0  0  0  0  0
  -16.7301  -28.6488   23.0364 C   0  0  0  0  0  0
  -26.4546  -31.6570   25.0724 C   0  0  0  0  0  0
  -25.3679  -31.3782   26.1369 C   0  0  0  0  0  0
  -27.0414  -30.2959   24.6337 C   0  0  0  0  0  0
  -27.6038  -32.4364   25.7528 C   0  0  0  0  0  0
  -27.5568  -37.1784   24.8461 C   0  0  0  0  0  0
  -21.4270  -29.3065   22.3591 N   0  0  0  0  0  0
  -26.4276  -37.3722   23.9401 N   0  0  0  0  0  0
  -24.7230  -31.0300   22.0878 N   0  0  0  0  0  0
  -23.4219  -28.8106   23.2989 O   0  0  0  0  0  0
  -28.2171  -26.0763   20.1799 O   0  0  0  0  0  0
  -26.5673  -34.8907   22.4609 O   0  0  0  0  0  0
  -23.5588  -32.1286   23.7076 O   0  0  0  0  0  0
  -28.0040  -19.1210   18.5470 C   0  0  0  0  0  0
  -27.6950  -16.8727   17.8266 C   0  0  0  0  0  0
  -27.4410  -18.2318   17.6126 C   0  0  0  0  0  0
  -28.8487  -18.7105   19.6132 C   0  0  0  0  0  0
  -29.1308  -17.2020   19.6917 C   0  0  0  0  0  0
  -30.1246  -23.4147   19.6559 C   0  0  0  0  0  0
  -26.8124  -17.7844   15.1642 C   0  0  0  0  0  0
  -27.0013  -20.1305   15.9549 C   0  0  0  0  0  0
  -25.1138  -18.7442   16.7547 C   0  0  0  0  0  0
  -29.3383  -20.0765   20.3950 C   0  0  0  0  0  0
  -28.4593  -21.5553   20.5566 C   0  0  0  0  0  0
  -27.9292  -24.5608   20.5116 C   0  0  0  0  0  0
  -28.6416  -23.1301   19.8966 C   0  0  1  0  0  0
  -26.6105  -18.7067   16.3948 C   0  0  0  0  0  0
  -28.4940  -16.4155   18.7943 N   0  0  0  0  0  0
  -30.0019  -16.3163   20.5621 N   0  0  0  0  0  0
  -31.4343  -12.8273   19.0947 H   0  0  0  0  0  0
  -30.4458  -11.7444   20.0497 H   0  0  0  0  0  0
  -29.8341  -11.6561   17.6288 H   0  0  0  0  0  0
  -29.5633  -13.3852   17.6006 H   0  0  0  0  0  0
  -27.9734  -11.2505   19.0611 H   0  0  0  0  0  0
  -27.3661  -12.3360   17.8391 H   0  0  0  0  0  0
  -27.5166  -14.2033   19.3341 H   0  0  0  0  0  0
  -28.7952  -12.4377   21.4842 H   0  0  0  0  0  0
  -28.3473  -14.1298   21.6542 H   0  0  0  0  0  0
  -25.2945   -9.5649   22.4374 H   0  0  0  0  0  0
  -24.0329   -7.4508   22.7077 H   0  0  0  0  0  0
  -21.0827   -8.8698   19.8886 H   0  0  0  0  0  0
  -22.3594  -10.9668   19.6173 H   0  0  0  0  0  0
  -21.1968   -7.6285   23.9639 H   0  0  0  0  0  0
  -21.1603   -6.0751   25.9075 H   0  0  0  0  0  0
  -22.0455   -2.7672   23.2879 H   0  0  0  0  0  0
  -22.4207  -12.0129   22.4784 H   0  0  0  0  0  0
  -21.1075  -13.1391   22.2635 H   0  0  0  0  0  0
  -24.6421  -15.8371   20.4389 H   0  0  0  0  0  0
  -26.2955  -15.6159   20.1086 H   0  0  0  0  0  0
  -26.7344  -32.5265   23.0967 H   0  0  0  0  0  0
  -25.0119  -33.9574   25.0283 H   0  0  0  0  0  0
  -22.7546  -31.2925   21.3796 H   0  0  0  0  0  0
  -23.3752  -35.9577   23.3277 H   0  0  0  0  0  0
  -24.3568  -36.8907   22.2057 H   0  0  0  0  0  0
  -23.7271  -37.6432   23.6703 H   0  0  0  0  0  0
  -26.1761  -31.4577   20.6144 H   0  0  0  0  0  0
  -26.8774  -30.7471   22.0358 H   0  0  0  0  0  0
  -28.1315  -28.7618   21.2209 H   0  0  0  0  0  0
  -25.8920  -25.8196   19.0081 H   0  0  0  0  0  0
  -23.9656  -27.3011   18.9816 H   0  0  0  0  0  0
  -23.8202  -30.5705   19.3943 H   0  0  0  0  0  0
  -22.7814  -29.2427   19.8410 H   0  0  0  0  0  0
  -25.1341  -36.1788   25.0776 H   0  0  0  0  0  0
  -21.0036  -28.3314   24.1335 H   0  0  0  0  0  0
  -20.5669  -26.2350   23.3615 H   0  0  0  0  0  0
  -21.6657  -26.7426   22.1202 H   0  0  0  0  0  0
  -19.6905  -25.6286   21.1260 H   0  0  0  0  0  0
  -19.6678  -27.3174   20.6722 H   0  0  0  0  0  0
  -17.4214  -26.6693   21.4030 H   0  0  0  0  0  0
  -18.0337  -26.0081   22.9015 H   0  0  0  0  0  0
  -19.7950  -30.7302   24.2229 H   0  0  0  0  0  0
  -17.5017  -31.6261   24.5161 H   0  0  0  0  0  0
  -15.5358  -30.2959   23.7667 H   0  0  0  0  0  0
  -15.8706  -28.0795   22.7090 H   0  0  0  0  0  0
  -24.5897  -30.7091   25.7677 H   0  0  0  0  0  0
  -24.8813  -32.2967   26.4654 H   0  0  0  0  0  0
  -25.7908  -30.9053   27.0231 H   0  0  0  0  0  0
  -26.3047  -29.6671   24.1316 H   0  0  0  0  0  0
  -27.3973  -29.7280   25.4940 H   0  0  0  0  0  0
  -27.8974  -30.4182   23.9692 H   0  0  0  0  0  0
  -27.2602  -33.3697   26.1983 H   0  0  0  0  0  0
  -28.3909  -32.6862   25.0412 H   0  0  0  0  0  0
  -28.0613  -31.8568   26.5538 H   0  0  0  0  0  0
  -28.2577  -38.0093   24.7513 H   0  0  0  0  0  0
  -28.1077  -36.2620   24.6288 H   0  0  0  0  0  0
  -27.2281  -37.1442   25.8864 H   0  0  0  0  0  0
  -20.9472  -29.8771   21.6777 H   0  0  0  0  0  0
  -26.0125  -38.2781   24.1397 H   0  0  0  0  0  0
  -27.8085  -20.1755   18.4232 H   0  0  0  0  0  0
  -27.2787  -16.1059   17.1898 H   0  0  0  0  0  0
  -30.5690  -22.6449   19.0260 H   0  0  0  0  0  0
  -30.6861  -23.4656   20.5879 H   0  0  0  0  0  0
  -30.2433  -24.3638   19.1330 H   0  0  0  0  0  0
  -26.3701  -18.2084   14.2604 H   0  0  0  0  0  0
  -26.3533  -16.8031   15.2869 H   0  0  0  0  0  0
  -27.8716  -17.6374   14.9534 H   0  0  0  0  0  0
  -28.0691  -20.2235   15.7567 H   0  0  0  0  0  0
  -26.7226  -20.8777   16.6979 H   0  0  0  0  0  0
  -26.4777  -20.4127   15.0426 H   0  0  0  0  0  0
  -24.5209  -19.1435   15.9293 H   0  0  0  0  0  0
  -24.9249  -19.3834   17.6180 H   0  0  0  0  0  0
  -24.7173  -17.7556   16.9871 H   0  0  0  0  0  0
  -30.3377  -20.3190   20.0254 H   0  0  0  0  0  0
  -29.5110  -19.7276   21.4134 H   0  0  0  0  0  0
  -28.6201  -21.7670   21.6146 H   0  0  0  0  0  0
  -27.4005  -21.2956   20.5269 H   0  0  0  0  0  0
  -28.1068  -24.5118   21.5846 H   0  0  0  0  0  0
  -26.8528  -24.4026   20.4507 H   0  0  0  0  0  0
  -28.2125  -23.0453   18.8932 H   0  0  0  0  0  0
  -30.6583  -16.8959   21.0646 H   0  0  0  0  0  0
  1 25  1  0  0  0
  1 30  2  0  0  0
  1 86  1  0  0  0
  2  3  1  0  0  0
  2 25  1  0  0  0
  2 87  1  0  0  0
  2 88  1  0  0  0
  3  4  1  0  0  0
  3 89  1  0  0  0
  3 90  1  0  0  0
  4  5  1  0  0  0
  4 91  1  0  0  0
  4 92  1  0  0  0
  5  6  1  0  0  0
  5 26  1  0  0  0
  5 93  1  0  0  0
  6 25  1  0  0  0
  6 94  1  0  0  0
  6 95  1  0  0  0
  7  8  2  0  0  0
  7 26  1  0  0  0
  7 29  1  0  0  0
  8  9  1  0  0  0
  8 22  1  0  0  0
  9 10  1  0  0  0
  9 27  2  0  0  0
 10 11  2  0  0  0
 10 15  1  0  0  0
 11 12  1  0  0  0
 11 96  1  0  0  0
 12 13  2  0  0  0
 12 97  1  0  0  0
 13 14  1  0  0  0
 13 31  1  0  0  0
 14 15  2  0  0  0
 14 98  1  0  0  0
 15 99  1  0  0  0
 16 17  2  0  0  0
 16 21  1  0  0  0
 16 31  1  0  0  0
 17 18  1  0  0  0
 17100  1  0  0  0
 18 19  2  0  0  0
 18101  1  0  0  0
 19 20  1  0  0  0
 19 24  1  0  0  0
 20 21  2  0  0  0
 20102  1  0  0  0
 21 23  1  0  0  0
 22 28  1  0  0  0
 22 32  2  0  0  0
 26 27  1  0  0  0
 28103  1  0  0  0
 28104  1  0  0  0
 29105  1  0  0  0
 29106  1  0  0  0
 33 34  1  0  0  0
 33 66  1  0  0  0
 33 70  2  0  0  0
 34 36  1  0  0  0
 34 59  1  0  0  0
 34107  1  0  0  0
 35 44  2  0  0  0
 35 45  1  0  0  0
 35 68  1  0  0  0
 36 56  1  0  0  0
 36108  1  0  0  0
 37 39  1  0  0  0
 37 47  1  0  0  0
 37 66  1  0  0  0
 37109  1  0  0  0
 38 43  2  0  0  0
 38 46  1  0  0  0
 38 47  1  0  0  0
 39 64  1  0  0  0
 39 67  2  0  0  0
 40 52  1  0  0  0
 40 53  2  0  0  0
 40 58  1  0  0  0
 41110  1  0  0  0
 41111  1  0  0  0
 41112  1  0  0  0
 41 48  1  0  0  0
 42 43  1  0  0  0
 42 66  1  0  0  0
 42113  1  0  0  0
 42114  1  0  0  0
 43 44  1  0  0  0
 44115  1  0  0  0
 45 46  2  0  0  0
 45116  1  0  0  0
 46117  1  0  0  0
 47118  1  0  0  0
 47119  1  0  0  0
 48 56  1  0  0  0
 48 65  1  0  0  0
 48120  1  0  0  0
 49 50  1  0  0  0
 49 53  1  0  0  0
 49 64  1  0  0  0
 49121  1  0  0  0
 50 51  1  0  0  0
 50122  1  0  0  0
 50123  1  0  0  0
 51 52  1  0  0  0
 51124  1  0  0  0
 51125  1  0  0  0
 52126  1  0  0  0
 52127  1  0  0  0
 53 54  1  0  0  0
 54 55  2  0  0  0
 54128  1  0  0  0
 55 57  1  0  0  0
 55129  1  0  0  0
 56 69  2  0  0  0
 57 58  2  0  0  0
 57130  1  0  0  0
 58131  1  0  0  0
 59 60  1  0  0  0
 59 61  1  0  0  0
 59 62  1  0  0  0
 60132  1  0  0  0
 60133  1  0  0  0
 60134  1  0  0  0
 61135  1  0  0  0
 61136  1  0  0  0
 61137  1  0  0  0
 62138  1  0  0  0
 62139  1  0  0  0
 62140  1  0  0  0
 63 65  1  0  0  0
 63141  1  0  0  0
 63142  1  0  0  0
 63143  1  0  0  0
 64144  1  0  0  0
 65145  1  0  0  0
 68 82  1  0  0  0
 71 73  2  0  0  0
 71 74  1  0  0  0
 71146  1  0  0  0
 72 73  1  0  0  0
 72 85  2  0  0  0
 72147  1  0  0  0
 73 84  1  0  0  0
 74 75  2  0  0  0
 74 80  1  0  0  0
 75 85  1  0  0  0
 75 86  1  0  0  0
 76148  1  0  0  0
 76149  1  0  0  0
 76150  1  0  0  0
 76 83  1  0  0  0
 77151  1  0  0  0
 77152  1  0  0  0
 77153  1  0  0  0
 77 84  1  0  0  0
 78 84  1  0  0  0
 78154  1  0  0  0
 78155  1  0  0  0
 78156  1  0  0  0
 79 84  1  0  0  0
 79157  1  0  0  0
 79158  1  0  0  0
 79159  1  0  0  0
 80 81  1  0  0  0
 80160  1  0  0  0
 80161  1  0  0  0
 81 83  1  0  0  0
 81162  1  0  0  0
 81163  1  0  0  0
 82 83  1  0  0  0
 82164  1  0  0  0
 82165  1  0  0  0
 83166  1  0  0  0
 86167  1  0  0  0
M  ISO  4   1 100  68 101  82 101  86 100
M  END
> <chiral flag>
0

> <version>
0

> <s_m_source_file>
/data/baiqing/PycharmProjects/Reinvent-master-3.2/result/LINK_invent/BTK/process_docking_weight1_custom_sum_contain_oxygen_bond_distance_aromatic_linkinvent_7_9_3/rearranged_h_0102.sdf

> <i_m_source_file_index>
71

> <r_mmod_Potential_Energy-OPLS-2005>
684.460083007812

> <r_mmod_Stretch_Energy-OPLS-2005>
333.379669189453

> <r_mmod_Bend_Energy-OPLS-2005>
403.352416992188

> <r_mmod_Torsional_Energy-OPLS-2005>
273.203460693359

> <r_mmod_Improper_Torsional_Energy-OPLS-2005>
6.10878753662109

> <r_mmod_Van_der_Waal_Energy-OPLS-2005>
133.457061767578

> <r_mmod_Electrostatic_Energy-OPLS-2005>
-518.621948242188

> <r_mmod_Solvation_Energy-OPLS-2005>
-190.373077392578

> <b_mmod_Minimization_Converged-OPLS-2005>
0

> <r_mmod_RMS_Derivative-OPLS-2005>
7.073570728302

$$$$
72
                    3D
 Structure written by MMmdl.
165173  0  0  1  0            999 V2000
  -30.5491  -15.1237   20.4067 C   0  0  0  0  0  0
  -30.4251  -12.7178   19.5109 C   0  0  0  0  0  0
  -29.5194  -12.5473   18.2707 C   0  0  0  0  0  0
  -28.0651  -12.2995   18.7037 C   0  0  0  0  0  0
  -27.6141  -13.2699   19.8262 C   0  0  2  0  0  0
  -28.6557  -13.4129   20.9573 C   0  0  0  0  0  0
  -25.2422  -13.8268   20.5764 C   0  0  0  0  0  0
  -24.1755  -13.0459   20.9240 C   0  0  0  0  0  0
  -24.6389  -11.6948   20.8752 C   0  0  0  0  0  0
  -23.9086  -10.4301   21.0394 C   0  0  0  0  0  0
  -24.3634   -9.4211   21.9168 C   0  0  0  0  0  0
  -23.6302   -8.2251   22.0749 C   0  0  0  0  0  0
  -22.4282   -8.0288   21.3542 C   0  0  0  0  0  0
  -21.9918   -9.0255   20.4643 C   0  0  0  0  0  0
  -22.7256  -10.2134   20.3045 C   0  0  0  0  0  0
  -21.6861   -6.0736   22.5277 C   0  0  0  0  0  0
  -21.4014   -6.5641   23.8208 C   0  0  0  0  0  0
  -21.3661   -5.6794   24.9173 C   0  0  0  0  0  0
  -21.6048   -4.3055   24.7228 C   0  0  0  0  0  0
  -21.8821   -3.8143   23.4352 C   0  0  0  0  0  0
  -21.9191   -4.6960   22.3405 C   0  0  0  0  0  0
  -22.7773  -13.5212   21.1882 C   0  0  0  0  0  0
  -22.1660   -4.2143   21.0980 F   0  0  0  0  0  0
  -21.5630   -3.4542   25.7741 F   0  0  0  0  0  0
  -29.8987  -13.8724   20.3204 N   0  0  0  0  0  0
  -26.2830  -12.9524   20.3253 N   0  0  0  0  0  0
  -25.9331  -11.6632   20.5748 N   0  0  0  0  0  0
  -22.0436  -12.8182   22.0439 N   0  0  0  0  0  0
  -25.4110  -15.1999   20.4260 N   0  0  0  0  0  0
  -31.7670  -15.0500   20.1910 O   0  0  0  0  0  0
  -21.6650   -6.8881   21.4239 O   0  0  0  0  0  0
  -22.3437  -14.5509   20.6722 O   0  0  0  0  0  0
  -24.6537  -31.8327   23.1802 C   0  0  0  0  0  0
  -25.9268  -32.4629   23.8224 C   0  0  1  0  0  0
  -27.2222  -27.0305   20.1661 C   0  0  0  0  0  0
  -25.5984  -33.8439   24.2144 N   0  0  0  0  0  0
  -23.4636  -30.4484   21.5262 C   0  0  2  0  0  0
  -24.9172  -28.8542   20.1109 C   0  0  0  0  0  0
  -22.7618  -29.4475   22.4797 C   0  0  0  0  0  0
  -18.0318  -28.1401   22.8447 C   0  0  0  0  0  0
  -24.1467  -36.7206   23.2643 C   0  0  0  0  0  0
  -26.0260  -30.6722   21.3958 C   0  0  0  0  0  0
  -26.0968  -29.2729   20.7388 C   0  0  0  0  0  0
  -27.2464  -28.3793   20.7457 C   0  0  0  0  0  0
  -26.0155  -26.7402   19.4910 C   0  0  0  0  0  0
  -24.8954  -27.6062   19.4706 C   0  0  0  0  0  0
  -23.6988  -29.7696   20.1500 C   0  0  0  0  0  0
  -25.4111  -36.2971   24.0297 C   0  0  1  0  0  0
  -20.5929  -28.3723   23.1186 C   0  0  2  0  0  0
  -20.6779  -26.9408   22.5388 C   0  0  0  0  0  0
  -19.5769  -26.6366   21.5178 C   0  0  0  0  0  0
  -18.1949  -26.7942   22.1580 C   0  0  0  0  0  0
  -19.1577  -28.8885   23.2800 C   0  0  0  0  0  0
  -18.9500  -30.1474   23.8829 C   0  0  0  0  0  0
  -17.6497  -30.6584   24.0545 C   0  0  0  0  0  0
  -25.9070  -34.9357   23.5023 C   0  0  0  0  0  0
  -16.5384  -29.9078   23.6348 C   0  0  0  0  0  0
  -16.7305  -28.6504   23.0339 C   0  0  0  0  0  0
  -26.4564  -31.6557   25.0722 C   0  0  0  0  0  0
  -25.3707  -31.3774   26.1390 C   0  0  0  0  0  0
  -27.0477  -30.2950   24.6401 C   0  0  0  0  0  0
  -27.6070  -32.4376   25.7506 C   0  0  0  0  0  0
  -27.5554  -37.1737   24.8459 C   0  0  0  0  0  0
  -21.4292  -29.3039   22.3546 N   0  0  0  0  0  0
  -26.4249  -37.3710   23.9424 N   0  0  0  0  0  0
  -24.7352  -31.0068   22.0897 N   0  0  0  0  0  0
  -23.4205  -28.8022   23.2977 O   0  0  0  0  0  0
  -28.2511  -25.9855   20.2508 O   0  0  0  0  0  0
  -26.5641  -34.8870   22.4592 O   0  0  0  0  0  0
  -23.5626  -32.1261   23.6945 O   0  0  0  0  0  0
  -29.9091  -19.0503   19.2480 C   0  0  0  0  0  0
  -28.5900  -18.7972   21.1320 C   0  0  0  0  0  0
  -30.6125  -17.5937   19.5649 C   0  0  0  0  0  0
  -29.2660  -17.2996   21.4142 C   0  0  0  0  0  0
  -29.3834  -20.0241   20.4151 C   0  0  0  0  0  0
  -31.1737  -24.2397   20.9984 C   0  0  0  0  0  0
  -31.3827  -22.3429   19.3608 C   0  0  0  0  0  0
  -27.1741  -21.2801   20.0335 C   0  0  0  0  0  0
  -28.0119  -24.4066   20.0467 C   0  0  0  0  0  0
  -30.4429  -23.4288   19.9121 C   0  0  0  0  0  0
  -29.0165  -22.9996   20.3927 C   0  0  2  0  0  0
  -29.9191  -16.4540   20.3164 N   0  0  0  0  0  0
  -28.6433  -21.4443   19.9897 N   0  3  1  0  0  0
  -31.4532  -12.8757   19.1827 H   0  0  0  0  0  0
  -30.4460  -11.8035   20.1065 H   0  0  0  0  0  0
  -29.8738  -11.7216   17.6526 H   0  0  0  0  0  0
  -29.5715  -13.4431   17.6494 H   0  0  0  0  0  0
  -28.0032  -11.2721   19.0642 H   0  0  0  0  0  0
  -27.3932  -12.3630   17.8472 H   0  0  0  0  0  0
  -27.5408  -14.2453   19.3432 H   0  0  0  0  0  0
  -28.7980  -12.4719   21.4918 H   0  0  0  0  0  0
  -28.3231  -14.1465   21.6931 H   0  0  0  0  0  0
  -25.2775   -9.5698   22.4748 H   0  0  0  0  0  0
  -24.0016   -7.4647   22.7477 H   0  0  0  0  0  0
  -21.0854   -8.8781   19.8951 H   0  0  0  0  0  0
  -22.3703  -10.9678   19.6161 H   0  0  0  0  0  0
  -21.2004   -7.6143   23.9714 H   0  0  0  0  0  0
  -21.1479   -6.0520   25.9078 H   0  0  0  0  0  0
  -22.0595   -2.7607   23.2854 H   0  0  0  0  0  0
  -22.4090  -11.9854   22.4815 H   0  0  0  0  0  0
  -21.1049  -13.1169   22.2656 H   0  0  0  0  0  0
  -24.6510  -15.8591   20.5578 H   0  0  0  0  0  0
  -26.2762  -15.6428   20.1413 H   0  0  0  0  0  0
  -26.7329  -32.5204   23.0930 H   0  0  0  0  0  0
  -25.0150  -33.9549   25.0311 H   0  0  0  0  0  0
  -22.7705  -31.2761   21.3609 H   0  0  0  0  0  0
  -23.3739  -35.9527   23.3290 H   0  0  0  0  0  0
  -24.3532  -36.8886   22.2061 H   0  0  0  0  0  0
  -23.7228  -37.6389   23.6715 H   0  0  0  0  0  0
  -26.1875  -31.4207   20.6174 H   0  0  0  0  0  0
  -26.8929  -30.7299   22.0431 H   0  0  0  0  0  0
  -28.1400  -28.6954   21.2654 H   0  0  0  0  0  0
  -25.9044  -25.7891   18.9932 H   0  0  0  0  0  0
  -23.9965  -27.2822   18.9639 H   0  0  0  0  0  0
  -23.8436  -30.5411   19.3932 H   0  0  0  0  0  0
  -22.8115  -29.2168   19.8348 H   0  0  0  0  0  0
  -25.1296  -36.1763   25.0787 H   0  0  0  0  0  0
  -21.0007  -28.3331   24.1307 H   0  0  0  0  0  0
  -20.5631  -26.2333   23.3614 H   0  0  0  0  0  0
  -21.6647  -26.7371   22.1209 H   0  0  0  0  0  0
  -19.6916  -25.6259   21.1250 H   0  0  0  0  0  0
  -19.6744  -27.3120   20.6668 H   0  0  0  0  0  0
  -17.4219  -26.6675   21.3984 H   0  0  0  0  0  0
  -18.0352  -26.0095   22.8988 H   0  0  0  0  0  0
  -19.7980  -30.7302   24.2159 H   0  0  0  0  0  0
  -17.5062  -31.6263   24.5152 H   0  0  0  0  0  0
  -15.5377  -30.2957   23.7737 H   0  0  0  0  0  0
  -15.8695  -28.0824   22.7072 H   0  0  0  0  0  0
  -24.5925  -30.7065   25.7718 H   0  0  0  0  0  0
  -24.8823  -32.2947   26.4686 H   0  0  0  0  0  0
  -25.7964  -30.9063   27.0257 H   0  0  0  0  0  0
  -26.3145  -29.6616   24.1395 H   0  0  0  0  0  0
  -27.4038  -29.7321   25.5042 H   0  0  0  0  0  0
  -27.9064  -30.4179   23.9798 H   0  0  0  0  0  0
  -27.2669  -33.3752   26.1916 H   0  0  0  0  0  0
  -28.3954  -32.6840   25.0374 H   0  0  0  0  0  0
  -28.0643  -31.8621   26.5558 H   0  0  0  0  0  0
  -28.2521  -38.0079   24.7544 H   0  0  0  0  0  0
  -28.1104  -36.2606   24.6244 H   0  0  0  0  0  0
  -27.2267  -37.1327   25.8858 H   0  0  0  0  0  0
  -20.9518  -29.8794   21.6748 H   0  0  0  0  0  0
  -26.0095  -38.2746   24.1533 H   0  0  0  0  0  0
  -29.0712  -18.8566   18.5772 H   0  0  0  0  0  0
  -30.6174  -19.6108   18.6399 H   0  0  0  0  0  0
  -28.2249  -19.1728   22.0888 H   0  0  0  0  0  0
  -27.6864  -18.5913   20.5580 H   0  0  0  0  0  0
  -31.5419  -17.7938   20.1006 H   0  0  0  0  0  0
  -30.9330  -17.1807   18.6074 H   0  0  0  0  0  0
  -28.5073  -16.6766   21.8878 H   0  0  0  0  0  0
  -30.0320  -17.4307   22.1815 H   0  0  0  0  0  0
  -30.2163  -20.2815   21.0691 H   0  0  0  0  0  0
  -32.0993  -24.6690   20.6137 H   0  0  0  0  0  0
  -31.4352  -23.6156   21.8534 H   0  0  0  0  0  0
  -30.5663  -25.0667   21.3673 H   0  0  0  0  0  0
  -32.3252  -22.7879   19.0389 H   0  0  0  0  0  0
  -30.9624  -21.8566   18.4808 H   0  0  0  0  0  0
  -31.6443  -21.5916   20.1031 H   0  0  0  0  0  0
  -26.8590  -20.3600   19.5453 H   0  0  0  0  0  0
  -26.6685  -22.0853   19.5035 H   0  0  0  0  0  0
  -26.8152  -21.2720   21.0627 H   0  0  0  0  0  0
  -27.0636  -24.2146   20.5484 H   0  0  0  0  0  0
  -27.7771  -24.3268   18.9859 H   0  0  0  0  0  0
  -30.2974  -24.1100   19.0712 H   0  0  0  0  0  0
  -29.0475  -22.9478   21.4815 H   0  0  0  0  0  0
  -28.8215  -21.4622   18.9963 H   0  0  0  0  0  0
  1 25  1  0  0  0
  1 30  2  0  0  0
  1 82  1  0  0  0
  2  3  1  0  0  0
  2 25  1  0  0  0
  2 84  1  0  0  0
  2 85  1  0  0  0
  3  4  1  0  0  0
  3 86  1  0  0  0
  3 87  1  0  0  0
  4  5  1  0  0  0
  4 88  1  0  0  0
  4 89  1  0  0  0
  5  6  1  0  0  0
  5 26  1  0  0  0
  5 90  1  0  0  0
  6 25  1  0  0  0
  6 91  1  0  0  0
  6 92  1  0  0  0
  7  8  2  0  0  0
  7 26  1  0  0  0
  7 29  1  0  0  0
  8  9  1  0  0  0
  8 22  1  0  0  0
  9 10  1  0  0  0
  9 27  2  0  0  0
 10 11  2  0  0  0
 10 15  1  0  0  0
 11 12  1  0  0  0
 11 93  1  0  0  0
 12 13  2  0  0  0
 12 94  1  0  0  0
 13 14  1  0  0  0
 13 31  1  0  0  0
 14 15  2  0  0  0
 14 95  1  0  0  0
 15 96  1  0  0  0
 16 17  2  0  0  0
 16 21  1  0  0  0
 16 31  1  0  0  0
 17 18  1  0  0  0
 17 97  1  0  0  0
 18 19  2  0  0  0
 18 98  1  0  0  0
 19 20  1  0  0  0
 19 24  1  0  0  0
 20 21  2  0  0  0
 20 99  1  0  0  0
 21 23  1  0  0  0
 22 28  1  0  0  0
 22 32  2  0  0  0
 26 27  1  0  0  0
 28100  1  0  0  0
 28101  1  0  0  0
 29102  1  0  0  0
 29103  1  0  0  0
 33 34  1  0  0  0
 33 66  1  0  0  0
 33 70  2  0  0  0
 34 36  1  0  0  0
 34 59  1  0  0  0
 34104  1  0  0  0
 35 44  2  0  0  0
 35 45  1  0  0  0
 35 68  1  0  0  0
 36 56  1  0  0  0
 36105  1  0  0  0
 37 39  1  0  0  0
 37 47  1  0  0  0
 37 66  1  0  0  0
 37106  1  0  0  0
 38 43  2  0  0  0
 38 46  1  0  0  0
 38 47  1  0  0  0
 39 64  1  0  0  0
 39 67  2  0  0  0
 40 52  1  0  0  0
 40 53  2  0  0  0
 40 58  1  0  0  0
 41107  1  0  0  0
 41108  1  0  0  0
 41109  1  0  0  0
 41 48  1  0  0  0
 42 43  1  0  0  0
 42 66  1  0  0  0
 42110  1  0  0  0
 42111  1  0  0  0
 43 44  1  0  0  0
 44112  1  0  0  0
 45 46  2  0  0  0
 45113  1  0  0  0
 46114  1  0  0  0
 47115  1  0  0  0
 47116  1  0  0  0
 48 56  1  0  0  0
 48 65  1  0  0  0
 48117  1  0  0  0
 49 50  1  0  0  0
 49 53  1  0  0  0
 49 64  1  0  0  0
 49118  1  0  0  0
 50 51  1  0  0  0
 50119  1  0  0  0
 50120  1  0  0  0
 51 52  1  0  0  0
 51121  1  0  0  0
 51122  1  0  0  0
 52123  1  0  0  0
 52124  1  0  0  0
 53 54  1  0  0  0
 54 55  2  0  0  0
 54125  1  0  0  0
 55 57  1  0  0  0
 55126  1  0  0  0
 56 69  2  0  0  0
 57 58  2  0  0  0
 57127  1  0  0  0
 58128  1  0  0  0
 59 60  1  0  0  0
 59 61  1  0  0  0
 59 62  1  0  0  0
 60129  1  0  0  0
 60130  1  0  0  0
 60131  1  0  0  0
 61132  1  0  0  0
 61133  1  0  0  0
 61134  1  0  0  0
 62135  1  0  0  0
 62136  1  0  0  0
 62137  1  0  0  0
 63 65  1  0  0  0
 63138  1  0  0  0
 63139  1  0  0  0
 63140  1  0  0  0
 64141  1  0  0  0
 65142  1  0  0  0
 68 79  1  0  0  0
 71 73  1  0  0  0
 71143  1  0  0  0
 71144  1  0  0  0
 71 75  1  0  0  0
 72 74  1  0  0  0
 72 75  1  0  0  0
 72145  1  0  0  0
 72146  1  0  0  0
 73 82  1  0  0  0
 73147  1  0  0  0
 73148  1  0  0  0
 74 82  1  0  0  0
 74149  1  0  0  0
 74150  1  0  0  0
 75 83  1  0  0  0
 75151  1  0  0  0
 76152  1  0  0  0
 76153  1  0  0  0
 76154  1  0  0  0
 76 80  1  0  0  0
 77 80  1  0  0  0
 77155  1  0  0  0
 77156  1  0  0  0
 77157  1  0  0  0
 78158  1  0  0  0
 78159  1  0  0  0
 78160  1  0  0  0
 78 83  1  0  0  0
 79161  1  0  0  0
 79162  1  0  0  0
 79 81  1  0  0  0
 80 81  1  0  0  0
 80163  1  0  0  0
 81 83  1  0  0  0
 81164  1  0  0  0
 83165  1  0  0  0
M  CHG  1  83   1
M  ISO  4   1 100  68 101  79 101  82 100
M  END
> <chiral flag>
0

> <version>
0

> <s_m_source_file>
/data/baiqing/PycharmProjects/Reinvent-master-3.2/result/LINK_invent/BTK/process_docking_weight1_custom_sum_contain_oxygen_bond_distance_aromatic_linkinvent_7_9_3/rearranged_h_0102.sdf

> <i_m_source_file_index>
72

> <r_mmod_Potential_Energy-OPLS-2005>
1123.68872070312

> <r_mmod_Stretch_Energy-OPLS-2005>
419.346496582031

> <r_mmod_Bend_Energy-OPLS-2005>
422.127044677734

> <r_mmod_Torsional_Energy-OPLS-2005>
358.449645996094

> <r_mmod_Improper_Torsional_Energy-OPLS-2005>
16.1719169616699

> <r_mmod_Van_der_Waal_Energy-OPLS-2005>
120.955238342285

> <r_mmod_Electrostatic_Energy-OPLS-2005>
-116.7021484375

> <r_mmod_Solvation_Energy-OPLS-2005>
-414.400451660156

> <b_mmod_Minimization_Converged-OPLS-2005>
0

> <r_mmod_RMS_Derivative-OPLS-2005>
2.21306967735291

$$$$
73
                    3D
 Structure written by MMmdl.
184192  0  0  1  0            999 V2000
  -29.3441  -15.6960   20.7636 C   0  0  0  0  0  0
  -30.2601  -13.2758   19.7319 C   0  0  0  0  0  0
  -29.5262  -12.7648   18.4399 C   0  0  0  0  0  0
  -28.0983  -12.2883   18.7641 C   0  0  0  0  0  0
  -27.4921  -13.2233   19.8285 C   0  0  2  0  0  0
  -28.3555  -13.3698   21.0732 C   0  0  0  0  0  0
  -25.1783  -13.7994   20.5526 C   0  0  0  0  0  0
  -24.1271  -13.0267   20.9332 C   0  0  0  0  0  0
  -24.5901  -11.6753   20.8772 C   0  0  0  0  0  0
  -23.8730  -10.4178   21.0506 C   0  0  0  0  0  0
  -24.3419   -9.4135   21.9239 C   0  0  0  0  0  0
  -23.6186   -8.2129   22.0752 C   0  0  0  0  0  0
  -22.4176   -8.0165   21.3527 C   0  0  0  0  0  0
  -21.9734   -9.0109   20.4639 C   0  0  0  0  0  0
  -22.6970  -10.2017   20.3096 C   0  0  0  0  0  0
  -21.6802   -6.0655   22.5297 C   0  0  0  0  0  0
  -21.3991   -6.5605   23.8221 C   0  0  0  0  0  0
  -21.3646   -5.6774   24.9194 C   0  0  0  0  0  0
  -21.6040   -4.3039   24.7255 C   0  0  0  0  0  0
  -21.8817   -3.8106   23.4391 C   0  0  0  0  0  0
  -21.9178   -4.6896   22.3433 C   0  0  0  0  0  0
  -22.7420  -13.5147   21.2086 C   0  0  0  0  0  0
  -22.1651   -4.2104   21.1002 F   0  0  0  0  0  0
  -21.5622   -3.4535   25.7765 F   0  0  0  0  0  0
  -29.3717  -14.2397   20.5865 N   0  0  0  0  0  0
  -26.1813  -12.9032   20.2635 N   0  0  0  0  0  0
  -25.8663  -11.6251   20.5398 N   0  0  0  0  0  0
  -22.0073  -12.8176   22.0645 N   0  0  0  0  0  0
  -25.3655  -15.1715   20.3962 N   0  0  0  0  0  0
  -30.5475  -15.9834   20.4645 O   0  0  0  0  0  0
  -21.6574   -6.8755   21.4234 O   0  0  0  0  0  0
  -22.3235  -14.5499   20.6928 O   0  0  0  0  0  0
  -24.6433  -31.9208   23.2301 C   0  0  0  0  0  0
  -25.9336  -32.5058   23.8639 C   0  0  1  0  0  0
  -27.1669  -27.4809   20.0279 C   0  0  0  0  0  0
  -25.6187  -33.8811   24.2574 N   0  0  0  0  0  0
  -23.4453  -30.5674   21.5903 C   0  0  2  0  0  0
  -24.8460  -29.0779   20.0973 C   0  0  0  0  0  0
  -22.9505  -29.4932   22.5611 C   0  0  0  0  0  0
  -18.2824  -27.3514   23.1560 C   0  0  0  0  0  0
  -24.1496  -36.7367   23.2611 C   0  0  0  0  0  0
  -25.9721  -30.8597   21.4098 C   0  0  0  0  0  0
  -26.0102  -29.5028   20.7509 C   0  0  0  0  0  0
  -27.1672  -28.6833   20.7698 C   0  0  0  0  0  0
  -26.0631  -27.2369   19.1930 C   0  0  0  0  0  0
  -24.8682  -27.9362   19.3062 C   0  0  0  0  0  0
  -23.6174  -29.9430   20.1850 C   0  0  0  0  0  0
  -25.4110  -36.3208   24.0342 C   0  0  1  0  0  0
  -21.1703  -27.9782   22.9866 C   0  0  2  0  0  0
  -21.6687  -26.7764   21.4329 C   0  0  0  0  0  0
  -20.0063  -25.5567   20.8226 C   0  0  0  0  0  0
  -18.3724  -25.9601   21.9863 C   0  0  0  0  0  0
  -19.4999  -28.2314   23.5687 C   0  0  0  0  0  0
  -19.1863  -29.5914   24.0075 C   0  0  0  0  0  0
  -17.8961  -30.1856   24.0303 C   0  0  0  0  0  0
  -25.9082  -34.9588   23.5188 C   0  0  0  0  0  0
  -16.8026  -29.4217   23.6084 C   0  0  0  0  0  0
  -17.0072  -28.0704   23.1949 C   0  0  0  0  0  0
  -26.4571  -31.6670   25.0914 C   0  0  0  0  0  0
  -25.3748  -31.3750   26.1564 C   0  0  0  0  0  0
  -27.0324  -30.3095   24.6230 C   0  0  0  0  0  0
  -27.6156  -32.4280   25.7751 C   0  0  0  0  0  0
  -27.5589  -37.1868   24.8466 C   0  0  0  0  0  0
  -21.6581  -29.2901   22.6135 N   0  0  0  0  0  0
  -26.4299  -37.3878   23.9415 N   0  0  0  0  0  0
  -24.7055  -31.1521   22.1130 N   0  0  0  0  0  0
  -23.7230  -28.8239   23.2458 O   0  0  0  0  0  0
  -28.2010  -26.5707   20.0616 O   0  0  0  0  0  0
  -26.5511  -34.8975   22.4667 O   0  0  0  0  0  0
  -23.5604  -32.1877   23.7714 O   0  0  0  0  0  0
  -25.2068  -22.5996   20.3265 C   0  0  0  0  0  0
  -23.8748  -23.0783   20.5741 C   0  0  0  0  0  0
  -24.8916  -21.3097   20.3547 C   0  0  0  0  0  0
  -23.4661  -22.6200   21.8326 C   0  0  0  0  0  0
  -25.2611  -20.2212   19.3719 C   0  0  0  0  0  0
  -23.1223  -25.1640   19.2349 C   0  0  0  0  0  0
  -21.6877  -22.9857   19.2395 C   0  0  0  0  0  0
  -19.2903  -29.3101   19.0844 C   0  0  0  0  0  0
  -17.9261  -27.2493   19.1552 C   0  0  0  0  0  0
  -26.4624  -23.0223   19.5577 C   0  0  0  0  0  0
  -22.0771  -23.8926   22.7851 C   0  0  0  0  0  0
  -26.7456  -24.5070   19.4478 C   0  0  0  0  0  0
  -20.5994  -25.5726   22.9924 C   0  0  0  0  0  0
  -19.6477  -27.7494   21.1870 C   0  0  0  0  0  0
  -25.5486  -19.5475   22.0438 C   0  0  0  0  0  0
  -27.1820  -18.3869   21.2925 C   0  0  0  0  0  0
  -27.7970  -25.2011   20.3806 C   0  0  0  0  0  0
  -23.0551  -23.6600   19.4335 C   0  0  0  0  0  0
  -19.2887  -27.8391   19.5997 C   0  0  0  0  0  0
  -24.5593  -21.1750   21.6785 N   0  0  0  0  0  0
  -28.0527  -16.6762   21.1388 N   0  0  0  0  0  0
  -31.1872  -13.7756   19.4461 H   0  0  0  0  0  0
  -30.5765  -12.4242   20.3351 H   0  0  0  0  0  0
  -30.0945  -11.9777   17.9424 H   0  0  0  0  0  0
  -29.4661  -13.5935   17.7335 H   0  0  0  0  0  0
  -28.1416  -11.2674   19.1510 H   0  0  0  0  0  0
  -27.4820  -12.2606   17.8646 H   0  0  0  0  0  0
  -27.3985  -14.1820   19.3150 H   0  0  0  0  0  0
  -28.7174  -12.4173   21.4603 H   0  0  0  0  0  0
  -27.8222  -13.8625   21.8905 H   0  0  0  0  0  0
  -25.2542   -9.5692   22.4830 H   0  0  0  0  0  0
  -23.9927   -7.4519   22.7464 H   0  0  0  0  0  0
  -21.0657   -8.8565   19.8974 H   0  0  0  0  0  0
  -22.3377  -10.9554   19.6243 H   0  0  0  0  0  0
  -21.1988   -7.6124   23.9710 H   0  0  0  0  0  0
  -21.1469   -6.0517   25.9089 H   0  0  0  0  0  0
  -22.0616   -2.7583   23.2902 H   0  0  0  0  0  0
  -22.3580  -11.9785   22.5008 H   0  0  0  0  0  0
  -21.0760  -13.1306   22.2951 H   0  0  0  0  0  0
  -24.5032  -15.7052   20.3820 H   0  0  0  0  0  0
  -25.9736  -15.4474   19.6375 H   0  0  0  0  0  0
  -26.7477  -32.5723   23.1470 H   0  0  0  0  0  0
  -25.0458  -33.9999   25.0799 H   0  0  0  0  0  0
  -22.6867  -31.3497   21.5149 H   0  0  0  0  0  0
  -23.3765  -35.9696   23.3293 H   0  0  0  0  0  0
  -24.3601  -36.8951   22.2024 H   0  0  0  0  0  0
  -23.7239  -37.6581   23.6586 H   0  0  0  0  0  0
  -26.1248  -31.6191   20.6431 H   0  0  0  0  0  0
  -26.8513  -30.8804   22.0392 H   0  0  0  0  0  0
  -28.0334  -28.9613   21.3539 H   0  0  0  0  0  0
  -26.1037  -26.5326   18.3823 H   0  0  0  0  0  0
  -24.0240  -27.6826   18.6813 H   0  0  0  0  0  0
  -23.7160  -30.7401   19.4468 H   0  0  0  0  0  0
  -22.7261  -29.3860   19.8937 H   0  0  0  0  0  0
  -25.1262  -36.2106   25.0832 H   0  0  0  0  0  0
  -21.7299  -27.7017   23.8846 H   0  0  0  0  0  0
  -22.5561  -26.2052   21.7056 H   0  0  0  0  0  0
  -22.0390  -27.3547   20.5871 H   0  0  0  0  0  0
  -20.2161  -24.4995   20.9545 H   0  0  0  0  0  0
  -19.8394  -25.4824   19.7526 H   0  0  0  0  0  0
  -17.5057  -26.0784   21.3453 H   0  0  0  0  0  0
  -18.0292  -25.0602   22.5023 H   0  0  0  0  0  0
  -20.0100  -30.2353   24.2839 H   0  0  0  0  0  0
  -17.7668  -31.2131   24.3396 H   0  0  0  0  0  0
  -15.8126  -29.8573   23.5754 H   0  0  0  0  0  0
  -16.1443  -27.5499   22.8068 H   0  0  0  0  0  0
  -24.5957  -30.7106   25.7813 H   0  0  0  0  0  0
  -24.8916  -32.2898   26.5003 H   0  0  0  0  0  0
  -25.8030  -30.8892   27.0343 H   0  0  0  0  0  0
  -26.2883  -29.7008   24.1089 H   0  0  0  0  0  0
  -27.3875  -29.7171   25.4671 H   0  0  0  0  0  0
  -27.8846  -30.4387   23.9553 H   0  0  0  0  0  0
  -27.2825  -33.3578   26.2368 H   0  0  0  0  0  0
  -28.4023  -32.6826   25.0638 H   0  0  0  0  0  0
  -28.0753  -31.8344   26.5663 H   0  0  0  0  0  0
  -28.2607  -38.0166   24.7517 H   0  0  0  0  0  0
  -28.1089  -36.2698   24.6288 H   0  0  0  0  0  0
  -27.2302  -37.1517   25.8869 H   0  0  0  0  0  0
  -21.0315  -29.8989   22.1062 H   0  0  0  0  0  0
  -26.0198  -38.2952   24.1446 H   0  0  0  0  0  0
  -26.3217  -20.2574   19.1218 H   0  0  0  0  0  0
  -24.7197  -20.3749   18.4356 H   0  0  0  0  0  0
  -24.9818  -19.2154   19.6812 H   0  0  0  0  0  0
  -23.6999  -25.6284   20.0264 H   0  0  0  0  0  0
  -22.1354  -25.6107   19.1742 H   0  0  0  0  0  0
  -23.6160  -25.3977   18.2913 H   0  0  0  0  0  0
  -21.1575  -22.8346   20.1763 H   0  0  0  0  0  0
  -21.8164  -21.9906   18.8090 H   0  0  0  0  0  0
  -21.0500  -23.5515   18.5587 H   0  0  0  0  0  0
  -19.0059  -29.3725   18.0330 H   0  0  0  0  0  0
  -20.2773  -29.7712   19.1554 H   0  0  0  0  0  0
  -18.5908  -29.9351   19.6425 H   0  0  0  0  0  0
  -17.1070  -27.6544   19.7495 H   0  0  0  0  0  0
  -17.8811  -26.1647   19.2114 H   0  0  0  0  0  0
  -17.7111  -27.4870   18.1131 H   0  0  0  0  0  0
  -26.4155  -22.5948   18.5540 H   0  0  0  0  0  0
  -27.3192  -22.5442   20.0371 H   0  0  0  0  0  0
  -22.7516  -24.2878   23.5446 H   0  0  0  0  0  0
  -21.5103  -23.1470   23.3386 H   0  0  0  0  0  0
  -25.7555  -24.9193   19.5879 H   0  0  0  0  0  0
  -27.0603  -24.6861   18.4198 H   0  0  0  0  0  0
  -20.7997  -25.9136   24.0092 H   0  0  0  0  0  0
  -19.8193  -24.9275   23.3893 H   0  0  0  0  0  0
  -20.3320  -28.5564   20.9656 H   0  0  0  0  0  0
  -18.8331  -28.4553   21.3663 H   0  0  0  0  0  0
  -25.7683  -19.6256   23.1086 H   0  0  0  0  0  0
  -24.7460  -18.8097   22.0366 H   0  0  0  0  0  0
  -28.0324  -19.0085   21.5775 H   0  0  0  0  0  0
  -27.1067  -18.5675   20.2266 H   0  0  0  0  0  0
  -28.7143  -24.6117   20.3589 H   0  0  0  0  0  0
  -27.4345  -25.1735   21.4106 H   0  0  0  0  0  0
  -23.5971  -23.3009   18.5573 H   0  0  0  0  0  0
  -20.0835  -27.3846   19.0091 H   0  0  0  0  0  0
  -27.2971  -16.0100   21.2586 H   0  0  0  0  0  0
  1 25  1  0  0  0
  1 30  2  0  0  0
  1 91  1  0  0  0
  2  3  1  0  0  0
  2 25  1  0  0  0
  2 92  1  0  0  0
  2 93  1  0  0  0
  3  4  1  0  0  0
  3 94  1  0  0  0
  3 95  1  0  0  0
  4  5  1  0  0  0
  4 96  1  0  0  0
  4 97  1  0  0  0
  5  6  1  0  0  0
  5 26  1  0  0  0
  5 98  1  0  0  0
  6 25  1  0  0  0
  6 99  1  0  0  0
  6100  1  0  0  0
  7  8  2  0  0  0
  7 26  1  0  0  0
  7 29  1  0  0  0
  8  9  1  0  0  0
  8 22  1  0  0  0
  9 10  1  0  0  0
  9 27  2  0  0  0
 10 11  2  0  0  0
 10 15  1  0  0  0
 11 12  1  0  0  0
 11101  1  0  0  0
 12 13  2  0  0  0
 12102  1  0  0  0
 13 14  1  0  0  0
 13 31  1  0  0  0
 14 15  2  0  0  0
 14103  1  0  0  0
 15104  1  0  0  0
 16 17  2  0  0  0
 16 21  1  0  0  0
 16 31  1  0  0  0
 17 18  1  0  0  0
 17105  1  0  0  0
 18 19  2  0  0  0
 18106  1  0  0  0
 19 20  1  0  0  0
 19 24  1  0  0  0
 20 21  2  0  0  0
 20107  1  0  0  0
 21 23  1  0  0  0
 22 28  1  0  0  0
 22 32  2  0  0  0
 26 27  1  0  0  0
 28108  1  0  0  0
 28109  1  0  0  0
 29110  1  0  0  0
 29111  1  0  0  0
 33 34  1  0  0  0
 33 66  1  0  0  0
 33 70  2  0  0  0
 34 36  1  0  0  0
 34 59  1  0  0  0
 34112  1  0  0  0
 35 44  2  0  0  0
 35 45  1  0  0  0
 35 68  1  0  0  0
 36 56  1  0  0  0
 36113  1  0  0  0
 37 39  1  0  0  0
 37 47  1  0  0  0
 37 66  1  0  0  0
 37114  1  0  0  0
 38 43  2  0  0  0
 38 46  1  0  0  0
 38 47  1  0  0  0
 39 64  1  0  0  0
 39 67  2  0  0  0
 40 52  1  0  0  0
 40 53  2  0  0  0
 40 58  1  0  0  0
 41115  1  0  0  0
 41116  1  0  0  0
 41117  1  0  0  0
 41 48  1  0  0  0
 42 43  1  0  0  0
 42 66  1  0  0  0
 42118  1  0  0  0
 42119  1  0  0  0
 43 44  1  0  0  0
 44120  1  0  0  0
 45 46  2  0  0  0
 45121  1  0  0  0
 46122  1  0  0  0
 47123  1  0  0  0
 47124  1  0  0  0
 48 56  1  0  0  0
 48 65  1  0  0  0
 48125  1  0  0  0
 49 50  1  0  0  0
 49 53  1  0  0  0
 49 64  1  0  0  0
 49126  1  0  0  0
 50 51  1  0  0  0
 50127  1  0  0  0
 50128  1  0  0  0
 51 52  1  0  0  0
 51129  1  0  0  0
 51130  1  0  0  0
 52131  1  0  0  0
 52132  1  0  0  0
 53 54  1  0  0  0
 54 55  2  0  0  0
 54133  1  0  0  0
 55 57  1  0  0  0
 55134  1  0  0  0
 56 69  2  0  0  0
 57 58  2  0  0  0
 57135  1  0  0  0
 58136  1  0  0  0
 59 60  1  0  0  0
 59 61  1  0  0  0
 59 62  1  0  0  0
 60137  1  0  0  0
 60138  1  0  0  0
 60139  1  0  0  0
 61140  1  0  0  0
 61141  1  0  0  0
 61142  1  0  0  0
 62143  1  0  0  0
 62144  1  0  0  0
 62145  1  0  0  0
 63 65  1  0  0  0
 63146  1  0  0  0
 63147  1  0  0  0
 63148  1  0  0  0
 64149  1  0  0  0
 65150  1  0  0  0
 68 87  1  0  0  0
 71 72  1  0  0  0
 71 73  2  0  0  0
 71 80  1  0  0  0
 72 74  2  0  0  0
 72 88  1  0  0  0
 73 75  1  0  0  0
 73 90  1  0  0  0
 74 81  1  0  0  0
 74 90  1  0  0  0
 75151  1  0  0  0
 75152  1  0  0  0
 75153  1  0  0  0
 76154  1  0  0  0
 76155  1  0  0  0
 76156  1  0  0  0
 76 88  1  0  0  0
 77 88  1  0  0  0
 77157  1  0  0  0
 77158  1  0  0  0
 77159  1  0  0  0
 78160  1  0  0  0
 78161  1  0  0  0
 78162  1  0  0  0
 78 89  1  0  0  0
 79 89  1  0  0  0
 79163  1  0  0  0
 79164  1  0  0  0
 79165  1  0  0  0
 80 82  1  0  0  0
 80166  1  0  0  0
 80167  1  0  0  0
 81 83  1  0  0  0
 81168  1  0  0  0
 81169  1  0  0  0
 82 87  1  0  0  0
 82170  1  0  0  0
 82171  1  0  0  0
 83 84  1  0  0  0
 83172  1  0  0  0
 83173  1  0  0  0
 84 89  1  0  0  0
 84174  1  0  0  0
 84175  1  0  0  0
 85 86  1  0  0  0
 85 90  1  0  0  0
 85176  1  0  0  0
 85177  1  0  0  0
 86 91  1  0  0  0
 86178  1  0  0  0
 86179  1  0  0  0
 87180  1  0  0  0
 87181  1  0  0  0
 88182  1  0  0  0
 89183  1  0  0  0
 91184  1  0  0  0
M  ISO  4   1 100  68 101  87 101  91 100
M  END
> <chiral flag>
0

> <version>
0

> <s_m_source_file>
/data/baiqing/PycharmProjects/Reinvent-master-3.2/result/LINK_invent/BTK/process_docking_weight1_custom_sum_contain_oxygen_bond_distance_aromatic_linkinvent_7_9_3/rearranged_h_0102.sdf

> <i_m_source_file_index>
73

> <r_mmod_Potential_Energy-OPLS-2005>
11598.3349609375

> <r_mmod_Stretch_Energy-OPLS-2005>
6477.130859375

> <r_mmod_Bend_Energy-OPLS-2005>
1438.06420898438

> <r_mmod_Torsional_Energy-OPLS-2005>
599.298400878906

> <r_mmod_Improper_Torsional_Energy-OPLS-2005>
40.4538803100586

> <r_mmod_Van_der_Waal_Energy-OPLS-2005>
1753.91186523438

> <r_mmod_Electrostatic_Energy-OPLS-2005>
-449.922912597656

> <r_mmod_Solvation_Energy-OPLS-2005>
-205.84553527832

> <b_mmod_Minimization_Converged-OPLS-2005>
0

> <r_mmod_RMS_Derivative-OPLS-2005>
8.09920215606689

$$$$
74
                    3D
 Structure written by MMmdl.
172180  0  0  1  0            999 V2000
  -30.7117  -14.4333   20.5014 C   0  0  0  0  0  0
  -30.4125  -12.2628   19.4222 C   0  0  0  0  0  0
  -29.4919  -12.4839   18.2037 C   0  0  0  0  0  0
  -28.0123  -12.3575   18.6167 C   0  0  0  0  0  0
  -27.6627  -13.1976   19.8761 C   0  0  2  0  0  0
  -28.7084  -12.9917   20.9971 C   0  0  0  0  0  0
  -25.2608  -13.8138   20.5692 C   0  0  0  0  0  0
  -24.1843  -13.0421   20.9156 C   0  0  0  0  0  0
  -24.6385  -11.6882   20.8741 C   0  0  0  0  0  0
  -23.9035  -10.4282   21.0405 C   0  0  0  0  0  0
  -24.3594   -9.4201   21.9179 C   0  0  0  0  0  0
  -23.6276   -8.2234   22.0758 C   0  0  0  0  0  0
  -22.4254   -8.0263   21.3549 C   0  0  0  0  0  0
  -21.9883   -9.0231   20.4646 C   0  0  0  0  0  0
  -22.7212  -10.2112   20.3054 C   0  0  0  0  0  0
  -21.6841   -6.0721   22.5273 C   0  0  0  0  0  0
  -21.4003   -6.5631   23.8203 C   0  0  0  0  0  0
  -21.3669   -5.6793   24.9171 C   0  0  0  0  0  0
  -21.6045   -4.3053   24.7224 C   0  0  0  0  0  0
  -21.8823   -3.8140   23.4346 C   0  0  0  0  0  0
  -21.9188   -4.6953   22.3401 C   0  0  0  0  0  0
  -22.7875  -13.5222   21.1815 C   0  0  0  0  0  0
  -22.1659   -4.2136   21.0979 F   0  0  0  0  0  0
  -21.5635   -3.4541   25.7741 F   0  0  0  0  0  0
  -30.0404  -13.2598   20.4331 N   0  0  0  0  0  0
  -26.3037  -12.9287   20.3387 N   0  0  0  0  0  0
  -25.9307  -11.6453   20.5774 N   0  0  0  0  0  0
  -22.0495  -12.8239   22.0382 N   0  0  0  0  0  0
  -25.4319  -15.1856   20.4135 N   0  0  0  0  0  0
  -31.8789  -14.5748   20.1263 O   0  0  0  0  0  0
  -21.6630   -6.8854   21.4233 O   0  0  0  0  0  0
  -22.3568  -14.5536   20.6665 O   0  0  0  0  0  0
  -24.6120  -31.8684   23.2076 C   0  0  0  0  0  0
  -25.9034  -32.4810   23.8382 C   0  0  1  0  0  0
  -27.2372  -27.4588   20.0969 C   0  0  0  0  0  0
  -25.5899  -33.8602   24.2318 N   0  0  0  0  0  0
  -23.3979  -30.4904   21.5470 C   0  0  2  0  0  0
  -24.8492  -28.9585   20.1095 C   0  0  0  0  0  0
  -22.7396  -29.4687   22.5005 C   0  0  0  0  0  0
  -18.0304  -28.1351   22.8502 C   0  0  0  0  0  0
  -24.1493  -36.7326   23.2642 C   0  0  0  0  0  0
  -25.9234  -30.8392   21.3585 C   0  0  0  0  0  0
  -26.0036  -29.4729   20.7140 C   0  0  0  0  0  0
  -27.2009  -28.7262   20.7140 C   0  0  0  0  0  0
  -26.0754  -26.9533   19.4803 C   0  0  0  0  0  0
  -24.8770  -27.6947   19.4909 C   0  0  0  0  0  0
  -23.6066  -29.8186   20.1623 C   0  0  0  0  0  0
  -25.4103  -36.3098   24.0338 C   0  0  1  0  0  0
  -20.5891  -28.3710   23.1390 C   0  0  2  0  0  0
  -20.6817  -26.9405   22.5550 C   0  0  0  0  0  0
  -19.5823  -26.6363   21.5302 C   0  0  0  0  0  0
  -18.1995  -26.7877   22.1699 C   0  0  0  0  0  0
  -19.1524  -28.8823   23.2949 C   0  0  0  0  0  0
  -18.9410  -30.1419   23.8985 C   0  0  0  0  0  0
  -17.6397  -30.6534   24.0586 C   0  0  0  0  0  0
  -25.9018  -34.9472   23.5110 C   0  0  0  0  0  0
  -16.5329  -29.9030   23.6264 C   0  0  0  0  0  0
  -16.7294  -28.6455   23.0286 C   0  0  0  0  0  0
  -26.4476  -31.6564   25.0693 C   0  0  0  0  0  0
  -25.3766  -31.3649   26.1450 C   0  0  0  0  0  0
  -27.0312  -30.3019   24.6027 C   0  0  0  0  0  0
  -27.6034  -32.4291   25.7476 C   0  0  0  0  0  0
  -27.5573  -37.1814   24.8464 C   0  0  0  0  0  0
  -21.4110  -29.3101   22.3789 N   0  0  0  0  0  0
  -26.4286  -37.3783   23.9402 N   0  0  0  0  0  0
  -24.6611  -31.0812   22.0962 N   0  0  0  0  0  0
  -23.4178  -28.8213   23.3012 O   0  0  0  0  0  0
  -28.3749  -26.6907   20.1083 O   0  0  0  0  0  0
  -26.5589  -34.8921   22.4683 O   0  0  0  0  0  0
  -23.5321  -32.1415   23.7519 O   0  0  0  0  0  0
  -28.9478  -18.4871   21.4810 C   0  0  0  0  0  0
  -27.5503  -19.3346   19.9595 C   0  0  0  0  0  0
  -29.1987  -17.8404   20.3059 C   0  0  0  0  0  0
  -28.2971  -18.3759   19.3261 C   0  0  0  0  0  0
  -27.7692  -19.1924   16.9803 C   0  0  0  0  0  0
  -27.2792  -16.8014   17.6386 C   0  0  0  0  0  0
  -27.6979  -22.6679   24.1640 C   0  0  0  0  0  0
  -30.2791  -16.8037   20.1301 C   0  0  0  0  0  0
  -29.1238  -24.5463   21.0511 C   0  0  0  0  0  0
  -29.1392  -23.6297   22.3012 C   0  0  0  0  0  0
  -27.3763  -21.8388   21.7089 C   0  0  0  0  0  0
  -27.5275  -20.4022   22.2622 C   0  0  0  0  0  0
  -28.5129  -25.9376   21.3157 C   0  0  0  0  0  0
  -28.2023  -18.0056   17.8578 C   0  0  0  0  0  0
  -27.7647  -23.0065   22.6602 C   0  0  1  0  0  0
  -27.9860  -19.4496   21.2647 N   0  0  0  0  0  0
  -29.9393  -15.5056   20.7029 N   0  0  0  0  0  0
  -31.4623  -12.3306   19.1301 H   0  0  0  0  0  0
  -30.2787  -11.2577   19.8250 H   0  0  0  0  0  0
  -29.7253  -11.7610   17.4218 H   0  0  0  0  0  0
  -29.6702  -13.4695   17.7694 H   0  0  0  0  0  0
  -27.8166  -11.3025   18.8105 H   0  0  0  0  0  0
  -27.3636  -12.6383   17.7855 H   0  0  0  0  0  0
  -27.7008  -14.2419   19.5765 H   0  0  0  0  0  0
  -28.6750  -11.9670   21.3693 H   0  0  0  0  0  0
  -28.4953  -13.6294   21.8567 H   0  0  0  0  0  0
  -25.2730   -9.5676   22.4752 H   0  0  0  0  0  0
  -23.9983   -7.4631   22.7483 H   0  0  0  0  0  0
  -21.0814   -8.8731   19.8961 H   0  0  0  0  0  0
  -22.3654  -10.9642   19.6163 H   0  0  0  0  0  0
  -21.1991   -7.6135   23.9697 H   0  0  0  0  0  0
  -21.1493   -6.0526   25.9070 H   0  0  0  0  0  0
  -22.0597   -2.7597   23.2850 H   0  0  0  0  0  0
  -22.4104  -11.9913   22.4816 H   0  0  0  0  0  0
  -21.1104  -13.1277   22.2541 H   0  0  0  0  0  0
  -24.6616  -15.8349   20.5215 H   0  0  0  0  0  0
  -26.2869  -15.6383   20.1164 H   0  0  0  0  0  0
  -26.7112  -32.5529   23.1157 H   0  0  0  0  0  0
  -25.0065  -33.9740   25.0474 H   0  0  0  0  0  0
  -22.6846  -31.3050   21.4055 H   0  0  0  0  0  0
  -23.3720  -35.9693   23.3322 H   0  0  0  0  0  0
  -24.3586  -36.8920   22.2050 H   0  0  0  0  0  0
  -23.7280  -37.6557   23.6640 H   0  0  0  0  0  0
  -26.0265  -31.5997   20.5836 H   0  0  0  0  0  0
  -26.8150  -30.8996   21.9691 H   0  0  0  0  0  0
  -28.0887  -29.1135   21.1911 H   0  0  0  0  0  0
  -26.1036  -25.9835   19.0038 H   0  0  0  0  0  0
  -23.9918  -27.2904   19.0184 H   0  0  0  0  0  0
  -23.7037  -30.5888   19.3969 H   0  0  0  0  0  0
  -22.7336  -29.2299   19.8766 H   0  0  0  0  0  0
  -25.1282  -36.1951   25.0828 H   0  0  0  0  0  0
  -21.0005  -28.3283   24.1510 H   0  0  0  0  0  0
  -20.5653  -26.2308   23.3765 H   0  0  0  0  0  0
  -21.6712  -26.7437   22.1424 H   0  0  0  0  0  0
  -19.7003  -25.6265   21.1357 H   0  0  0  0  0  0
  -19.6719  -27.3174   20.6829 H   0  0  0  0  0  0
  -17.4249  -26.6510   21.4143 H   0  0  0  0  0  0
  -18.0494  -26.0057   22.9149 H   0  0  0  0  0  0
  -19.7855  -30.7254   24.2416 H   0  0  0  0  0  0
  -17.4913  -31.6226   24.5179 H   0  0  0  0  0  0
  -15.5307  -30.2878   23.7472 H   0  0  0  0  0  0
  -15.8739  -28.0754   22.6948 H   0  0  0  0  0  0
  -24.5918  -30.7005   25.7809 H   0  0  0  0  0  0
  -24.8985  -32.2806   26.4942 H   0  0  0  0  0  0
  -25.8151  -30.8799   27.0181 H   0  0  0  0  0  0
  -26.2840  -29.6758   24.1124 H   0  0  0  0  0  0
  -27.4167  -29.7251   25.4447 H   0  0  0  0  0  0
  -27.8640  -30.4369   23.9117 H   0  0  0  0  0  0
  -27.2613  -33.3545   26.2125 H   0  0  0  0  0  0
  -28.3825  -32.6920   25.0307 H   0  0  0  0  0  0
  -28.0731  -31.8375   26.5342 H   0  0  0  0  0  0
  -28.2606  -38.0098   24.7474 H   0  0  0  0  0  0
  -28.1054  -36.2621   24.6326 H   0  0  0  0  0  0
  -27.2296  -37.1523   25.8874 H   0  0  0  0  0  0
  -20.9228  -29.8894   21.7096 H   0  0  0  0  0  0
  -26.0172  -38.2866   24.1373 H   0  0  0  0  0  0
  -29.4167  -18.3776   22.4505 H   0  0  0  0  0  0
  -26.7738  -19.9872   19.5767 H   0  0  0  0  0  0
  -28.4316  -20.0464   17.1204 H   0  0  0  0  0  0
  -26.7539  -19.5205   17.2066 H   0  0  0  0  0  0
  -27.8007  -18.9223   15.9241 H   0  0  0  0  0  0
  -27.6477  -15.9299   18.1741 H   0  0  0  0  0  0
  -27.2267  -16.5265   16.5834 H   0  0  0  0  0  0
  -26.2639  -17.0089   17.9786 H   0  0  0  0  0  0
  -27.7819  -23.5733   24.7663 H   0  0  0  0  0  0
  -28.5138  -22.0152   24.4782 H   0  0  0  0  0  0
  -26.7553  -22.1857   24.4264 H   0  0  0  0  0  0
  -31.1885  -17.1837   20.6033 H   0  0  0  0  0  0
  -30.5093  -16.6893   19.0692 H   0  0  0  0  0  0
  -28.5911  -24.0606   20.2340 H   0  0  0  0  0  0
  -30.1458  -24.6755   20.6975 H   0  0  0  0  0  0
  -29.5157  -24.2110   23.1447 H   0  0  0  0  0  0
  -29.8695  -22.8286   22.1618 H   0  0  0  0  0  0
  -26.3395  -21.9617   21.3909 H   0  0  0  0  0  0
  -27.9556  -21.9370   20.7909 H   0  0  0  0  0  0
  -26.5830  -20.0483   22.6788 H   0  0  0  0  0  0
  -28.2576  -20.3734   23.0667 H   0  0  0  0  0  0
  -29.1436  -26.5002   22.0065 H   0  0  0  0  0  0
  -27.5448  -25.8180   21.8088 H   0  0  0  0  0  0
  -29.2065  -17.7271   17.5361 H   0  0  0  0  0  0
  -27.0074  -23.7757   22.5119 H   0  0  0  0  0  0
  -28.9860  -15.3591   20.9925 H   0  0  0  0  0  0
  1 25  1  0  0  0
  1 30  2  0  0  0
  1 87  1  0  0  0
  2  3  1  0  0  0
  2 25  1  0  0  0
  2 88  1  0  0  0
  2 89  1  0  0  0
  3  4  1  0  0  0
  3 90  1  0  0  0
  3 91  1  0  0  0
  4  5  1  0  0  0
  4 92  1  0  0  0
  4 93  1  0  0  0
  5  6  1  0  0  0
  5 26  1  0  0  0
  5 94  1  0  0  0
  6 25  1  0  0  0
  6 95  1  0  0  0
  6 96  1  0  0  0
  7  8  2  0  0  0
  7 26  1  0  0  0
  7 29  1  0  0  0
  8  9  1  0  0  0
  8 22  1  0  0  0
  9 10  1  0  0  0
  9 27  2  0  0  0
 10 11  2  0  0  0
 10 15  1  0  0  0
 11 12  1  0  0  0
 11 97  1  0  0  0
 12 13  2  0  0  0
 12 98  1  0  0  0
 13 14  1  0  0  0
 13 31  1  0  0  0
 14 15  2  0  0  0
 14 99  1  0  0  0
 15100  1  0  0  0
 16 17  2  0  0  0
 16 21  1  0  0  0
 16 31  1  0  0  0
 17 18  1  0  0  0
 17101  1  0  0  0
 18 19  2  0  0  0
 18102  1  0  0  0
 19 20  1  0  0  0
 19 24  1  0  0  0
 20 21  2  0  0  0
 20103  1  0  0  0
 21 23  1  0  0  0
 22 28  1  0  0  0
 22 32  2  0  0  0
 26 27  1  0  0  0
 28104  1  0  0  0
 28105  1  0  0  0
 29106  1  0  0  0
 29107  1  0  0  0
 33 34  1  0  0  0
 33 66  1  0  0  0
 33 70  2  0  0  0
 34 36  1  0  0  0
 34 59  1  0  0  0
 34108  1  0  0  0
 35 44  2  0  0  0
 35 45  1  0  0  0
 35 68  1  0  0  0
 36 56  1  0  0  0
 36109  1  0  0  0
 37 39  1  0  0  0
 37 47  1  0  0  0
 37 66  1  0  0  0
 37110  1  0  0  0
 38 43  2  0  0  0
 38 46  1  0  0  0
 38 47  1  0  0  0
 39 64  1  0  0  0
 39 67  2  0  0  0
 40 52  1  0  0  0
 40 53  2  0  0  0
 40 58  1  0  0  0
 41111  1  0  0  0
 41112  1  0  0  0
 41113  1  0  0  0
 41 48  1  0  0  0
 42 43  1  0  0  0
 42 66  1  0  0  0
 42114  1  0  0  0
 42115  1  0  0  0
 43 44  1  0  0  0
 44116  1  0  0  0
 45 46  2  0  0  0
 45117  1  0  0  0
 46118  1  0  0  0
 47119  1  0  0  0
 47120  1  0  0  0
 48 56  1  0  0  0
 48 65  1  0  0  0
 48121  1  0  0  0
 49 50  1  0  0  0
 49 53  1  0  0  0
 49 64  1  0  0  0
 49122  1  0  0  0
 50 51  1  0  0  0
 50123  1  0  0  0
 50124  1  0  0  0
 51 52  1  0  0  0
 51125  1  0  0  0
 51126  1  0  0  0
 52127  1  0  0  0
 52128  1  0  0  0
 53 54  1  0  0  0
 54 55  2  0  0  0
 54129  1  0  0  0
 55 57  1  0  0  0
 55130  1  0  0  0
 56 69  2  0  0  0
 57 58  2  0  0  0
 57131  1  0  0  0
 58132  1  0  0  0
 59 60  1  0  0  0
 59 61  1  0  0  0
 59 62  1  0  0  0
 60133  1  0  0  0
 60134  1  0  0  0
 60135  1  0  0  0
 61136  1  0  0  0
 61137  1  0  0  0
 61138  1  0  0  0
 62139  1  0  0  0
 62140  1  0  0  0
 62141  1  0  0  0
 63 65  1  0  0  0
 63142  1  0  0  0
 63143  1  0  0  0
 63144  1  0  0  0
 64145  1  0  0  0
 65146  1  0  0  0
 68 83  1  0  0  0
 71 73  2  0  0  0
 71 86  1  0  0  0
 71147  1  0  0  0
 72 74  2  0  0  0
 72 86  1  0  0  0
 72148  1  0  0  0
 73 74  1  0  0  0
 73 78  1  0  0  0
 74 84  1  0  0  0
 75149  1  0  0  0
 75150  1  0  0  0
 75151  1  0  0  0
 75 84  1  0  0  0
 76 84  1  0  0  0
 76152  1  0  0  0
 76153  1  0  0  0
 76154  1  0  0  0
 77155  1  0  0  0
 77156  1  0  0  0
 77157  1  0  0  0
 77 85  1  0  0  0
 78 87  1  0  0  0
 78158  1  0  0  0
 78159  1  0  0  0
 79 80  1  0  0  0
 79 83  1  0  0  0
 79160  1  0  0  0
 79161  1  0  0  0
 80 85  1  0  0  0
 80162  1  0  0  0
 80163  1  0  0  0
 81 82  1  0  0  0
 81 85  1  0  0  0
 81164  1  0  0  0
 81165  1  0  0  0
 82 86  1  0  0  0
 82166  1  0  0  0
 82167  1  0  0  0
 83168  1  0  0  0
 83169  1  0  0  0
 84170  1  0  0  0
 85171  1  0  0  0
 87172  1  0  0  0
M  ISO  4   1 100  68 101  83 101  87 100
M  END
> <chiral flag>
0

> <version>
0

> <s_m_source_file>
/data/baiqing/PycharmProjects/Reinvent-master-3.2/result/LINK_invent/BTK/process_docking_weight1_custom_sum_contain_oxygen_bond_distance_aromatic_linkinvent_7_9_3/rearranged_h_0102.sdf

> <i_m_source_file_index>
74

> <r_mmod_Potential_Energy-OPLS-2005>
-76.7170486450195

> <r_mmod_Stretch_Energy-OPLS-2005>
32.1761093139648

> <r_mmod_Bend_Energy-OPLS-2005>
95.5516662597656

> <r_mmod_Torsional_Energy-OPLS-2005>
286.487609863281

> <r_mmod_Improper_Torsional_Energy-OPLS-2005>
8.88225078582764

> <r_mmod_Van_der_Waal_Energy-OPLS-2005>
122.743728637695

> <r_mmod_Electrostatic_Energy-OPLS-2005>
-447.580322265625

> <r_mmod_Solvation_Energy-OPLS-2005>
-189.18132019043

> <b_mmod_Minimization_Converged-OPLS-2005>
0

> <r_mmod_RMS_Derivative-OPLS-2005>
3.76328206062317

$$$$
75
                    3D
 Structure written by MMmdl.
163171  0  0  1  0            999 V2000
  -30.6566  -14.5105   20.5735 C   0  0  0  0  0  0
  -30.4320  -12.3276   19.4494 C   0  0  0  0  0  0
  -29.4987  -12.4964   18.2310 C   0  0  0  0  0  0
  -28.0210  -12.3526   18.6427 C   0  0  0  0  0  0
  -27.6619  -13.1974   19.8913 C   0  0  2  0  0  0
  -28.6997  -12.9906   21.0175 C   0  0  0  0  0  0
  -25.2577  -13.8139   20.5672 C   0  0  0  0  0  0
  -24.1832  -13.0448   20.9153 C   0  0  0  0  0  0
  -24.6372  -11.6899   20.8783 C   0  0  0  0  0  0
  -23.9033  -10.4292   21.0435 C   0  0  0  0  0  0
  -24.3596   -9.4209   21.9205 C   0  0  0  0  0  0
  -23.6266   -8.2249   22.0783 C   0  0  0  0  0  0
  -22.4240   -8.0280   21.3568 C   0  0  0  0  0  0
  -21.9890   -9.0262   20.4668 C   0  0  0  0  0  0
  -22.7211  -10.2138   20.3082 C   0  0  0  0  0  0
  -21.6842   -6.0719   22.5262 C   0  0  0  0  0  0
  -21.4005   -6.5628   23.8200 C   0  0  0  0  0  0
  -21.3664   -5.6792   24.9164 C   0  0  0  0  0  0
  -21.6044   -4.3053   24.7226 C   0  0  0  0  0  0
  -21.8825   -3.8132   23.4349 C   0  0  0  0  0  0
  -21.9196   -4.6937   22.3381 C   0  0  0  0  0  0
  -22.7859  -13.5238   21.1850 C   0  0  0  0  0  0
  -22.1664   -4.2125   21.0949 F   0  0  0  0  0  0
  -21.5648   -3.4522   25.7743 F   0  0  0  0  0  0
  -30.0240  -13.3119   20.4658 N   0  0  0  0  0  0
  -26.3020  -12.9300   20.3445 N   0  0  0  0  0  0
  -25.9299  -11.6472   20.5848 N   0  0  0  0  0  0
  -22.0542  -12.8232   22.0434 N   0  0  0  0  0  0
  -25.4356  -15.1854   20.3982 N   0  0  0  0  0  0
  -31.7925  -14.7054   20.1322 O   0  0  0  0  0  0
  -21.6651   -6.8856   21.4221 O   0  0  0  0  0  0
  -22.3569  -14.5585   20.6730 O   0  0  0  0  0  0
  -24.6145  -31.8672   23.2117 C   0  0  0  0  0  0
  -25.8995  -32.4812   23.8520 C   0  0  1  0  0  0
  -27.2586  -27.4069   20.1047 C   0  0  0  0  0  0
  -25.5824  -33.8607   24.2413 N   0  0  0  0  0  0
  -23.4126  -30.4803   21.5573 C   0  0  2  0  0  0
  -24.8667  -28.9354   20.1297 C   0  0  0  0  0  0
  -22.7472  -29.4599   22.5095 C   0  0  0  0  0  0
  -18.0308  -28.1303   22.8588 C   0  0  0  0  0  0
  -24.1450  -36.7301   23.2677 C   0  0  0  0  0  0
  -25.9453  -30.8148   21.3832 C   0  0  0  0  0  0
  -26.0228  -29.4473   20.7283 C   0  0  0  0  0  0
  -27.2158  -28.6859   20.7175 C   0  0  0  0  0  0
  -26.0780  -26.9112   19.5062 C   0  0  0  0  0  0
  -24.8872  -27.6709   19.5186 C   0  0  0  0  0  0
  -23.6262  -29.8012   20.1787 C   0  0  0  0  0  0
  -25.4070  -36.3111   24.0378 C   0  0  1  0  0  0
  -20.5919  -28.3579   23.1393 C   0  0  2  0  0  0
  -20.6733  -26.9319   22.5458 C   0  0  0  0  0  0
  -19.5659  -26.6329   21.5273 C   0  0  0  0  0  0
  -18.1880  -26.7861   22.1702 C   0  0  0  0  0  0
  -19.1570  -28.8764   23.2958 C   0  0  0  0  0  0
  -18.9461  -30.1410   23.8899 C   0  0  0  0  0  0
  -17.6441  -30.6529   24.0573 C   0  0  0  0  0  0
  -25.8998  -34.9443   23.5205 C   0  0  0  0  0  0
  -16.5343  -29.9015   23.6346 C   0  0  0  0  0  0
  -16.7295  -28.6426   23.0409 C   0  0  0  0  0  0
  -26.4400  -31.6635   25.0876 C   0  0  0  0  0  0
  -25.3631  -31.3665   26.1591 C   0  0  0  0  0  0
  -27.0366  -30.3111   24.6292 C   0  0  0  0  0  0
  -27.6000  -32.4402   25.7550 C   0  0  0  0  0  0
  -27.5589  -37.1743   24.8484 C   0  0  0  0  0  0
  -21.4208  -29.2966   22.3814 N   0  0  0  0  0  0
  -26.4285  -37.3781   23.9448 N   0  0  0  0  0  0
  -24.6755  -31.0705   22.1075 N   0  0  0  0  0  0
  -23.4222  -28.8175   23.3188 O   0  0  0  0  0  0
  -28.4572  -26.7104   20.1429 O   0  0  0  0  0  0
  -26.5603  -34.8890   22.4797 O   0  0  0  0  0  0
  -23.5299  -32.1517   23.7384 O   0  0  0  0  0  0
  -28.6956  -20.9759   19.1369 C   0  0  0  0  0  0
  -29.5324  -20.5854   21.1576 C   0  0  0  0  0  0
  -29.3030  -21.6088   20.2561 C   0  0  0  0  0  0
  -28.5811  -19.6336   19.3634 C   0  0  0  0  0  0
  -27.9340  -18.5987   18.4930 C   0  0  0  0  0  0
  -30.8673  -23.3656   21.2561 C   0  0  0  0  0  0
  -28.2539  -24.5572   21.9304 C   0  0  0  0  0  0
  -29.1933  -18.0182   21.2683 C   0  0  0  0  0  0
  -30.1004  -16.9454   20.5623 C   0  0  0  0  0  0
  -28.6405  -25.4110   19.5361 C   0  0  0  0  0  0
  -29.6781  -23.1071   20.3126 C   0  0  2  0  0  0
  -28.4932  -24.1442   20.4641 C   0  0  1  0  0  0
  -29.1381  -19.3548   20.6099 N   0  0  0  0  0  0
  -29.8757  -15.5418   20.9740 N   0  0  0  0  0  0
  -31.4719  -12.4495   19.1461 H   0  0  0  0  0  0
  -30.3607  -11.3186   19.8583 H   0  0  0  0  0  0
  -29.7432  -11.7560   17.4689 H   0  0  0  0  0  0
  -29.6556  -13.4726   17.7702 H   0  0  0  0  0  0
  -27.8343  -11.2979   18.8470 H   0  0  0  0  0  0
  -27.3672  -12.6202   17.8144 H   0  0  0  0  0  0
  -27.7071  -14.2422   19.5886 H   0  0  0  0  0  0
  -28.6868  -11.9580   21.3732 H   0  0  0  0  0  0
  -28.4597  -13.5968   21.8932 H   0  0  0  0  0  0
  -25.2738   -9.5683   22.4804 H   0  0  0  0  0  0
  -23.9967   -7.4649   22.7540 H   0  0  0  0  0  0
  -21.0829   -8.8780   19.8989 H   0  0  0  0  0  0
  -22.3661  -10.9691   19.6232 H   0  0  0  0  0  0
  -21.2004   -7.6138   23.9678 H   0  0  0  0  0  0
  -21.1484   -6.0521   25.9060 H   0  0  0  0  0  0
  -22.0611   -2.7582   23.2840 H   0  0  0  0  0  0
  -22.4175  -11.9816   22.4668 H   0  0  0  0  0  0
  -21.1246  -13.1338   22.2869 H   0  0  0  0  0  0
  -24.6681  -15.8417   20.4849 H   0  0  0  0  0  0
  -26.2800  -15.6067   20.0342 H   0  0  0  0  0  0
  -26.7094  -32.5491   23.1330 H   0  0  0  0  0  0
  -24.9787  -33.9807   25.0404 H   0  0  0  0  0  0
  -22.6996  -31.2932   21.4091 H   0  0  0  0  0  0
  -23.3734  -35.9623   23.3338 H   0  0  0  0  0  0
  -24.3524  -36.8944   22.2106 H   0  0  0  0  0  0
  -23.7182  -37.6468   23.6706 H   0  0  0  0  0  0
  -26.0747  -31.5832   20.6199 H   0  0  0  0  0  0
  -26.8228  -30.8596   22.0194 H   0  0  0  0  0  0
  -28.1095  -29.0677   21.1920 H   0  0  0  0  0  0
  -26.0462  -25.9419   19.0347 H   0  0  0  0  0  0
  -23.9916  -27.2705   19.0650 H   0  0  0  0  0  0
  -23.7368  -30.5666   19.4132 H   0  0  0  0  0  0
  -22.7535  -29.2147   19.8888 H   0  0  0  0  0  0
  -25.1229  -36.2001   25.0874 H   0  0  0  0  0  0
  -21.0022  -28.3106   24.1511 H   0  0  0  0  0  0
  -20.5657  -26.2167   23.3632 H   0  0  0  0  0  0
  -21.6568  -26.7335   22.1214 H   0  0  0  0  0  0
  -19.6747  -25.6234   21.1282 H   0  0  0  0  0  0
  -19.6536  -27.3154   20.6817 H   0  0  0  0  0  0
  -17.4153  -26.6765   21.4100 H   0  0  0  0  0  0
  -18.0154  -25.9960   22.9036 H   0  0  0  0  0  0
  -19.7931  -30.7282   24.2224 H   0  0  0  0  0  0
  -17.4975  -31.6217   24.5145 H   0  0  0  0  0  0
  -15.5311  -30.2866   23.7617 H   0  0  0  0  0  0
  -15.8748  -28.0705   22.7107 H   0  0  0  0  0  0
  -24.5799  -30.7037   25.7868 H   0  0  0  0  0  0
  -24.8749  -32.2742   26.5133 H   0  0  0  0  0  0
  -25.7908  -30.8743   27.0335 H   0  0  0  0  0  0
  -26.2993  -29.6640   24.1489 H   0  0  0  0  0  0
  -27.4372  -29.7534   25.4777 H   0  0  0  0  0  0
  -27.8669  -30.4562   23.9382 H   0  0  0  0  0  0
  -27.2724  -33.3759   26.2089 H   0  0  0  0  0  0
  -28.3696  -32.6882   25.0240 H   0  0  0  0  0  0
  -28.0758  -31.8568   26.5437 H   0  0  0  0  0  0
  -28.2560  -38.0087   24.7637 H   0  0  0  0  0  0
  -28.1143  -36.2615   24.6201 H   0  0  0  0  0  0
  -27.2302  -37.1279   25.8885 H   0  0  0  0  0  0
  -20.9385  -29.8756   21.7074 H   0  0  0  0  0  0
  -26.0188  -38.2868   24.1447 H   0  0  0  0  0  0
  -28.3690  -21.4748   18.2356 H   0  0  0  0  0  0
  -29.9638  -20.6246   22.1508 H   0  0  0  0  0  0
  -27.5989  -19.0314   17.5498 H   0  0  0  0  0  0
  -27.0620  -18.1852   18.9982 H   0  0  0  0  0  0
  -28.5962  -17.7849   18.2157 H   0  0  0  0  0  0
  -31.7226  -22.7439   20.9875 H   0  0  0  0  0  0
  -30.6135  -23.1419   22.2926 H   0  0  0  0  0  0
  -31.1907  -24.4058   21.2058 H   0  0  0  0  0  0
  -27.3193  -25.1129   22.0222 H   0  0  0  0  0  0
  -29.0510  -25.2032   22.2965 H   0  0  0  0  0  0
  -28.1985  -23.6924   22.5929 H   0  0  0  0  0  0
  -29.5132  -18.1379   22.3077 H   0  0  0  0  0  0
  -28.1662  -17.6548   21.3350 H   0  0  0  0  0  0
  -31.1504  -17.2256   20.6536 H   0  0  0  0  0  0
  -29.9171  -16.9139   19.4964 H   0  0  0  0  0  0
  -28.0542  -25.2956   18.6262 H   0  0  0  0  0  0
  -29.6674  -25.4539   19.1754 H   0  0  0  0  0  0
  -30.0773  -23.2718   19.3106 H   0  0  0  0  0  0
  -27.5869  -23.6340   20.1295 H   0  0  0  0  0  0
  -28.9406  -15.2918   21.2591 H   0  0  0  0  0  0
  1 25  1  0  0  0
  1 30  2  0  0  0
  1 84  1  0  0  0
  2  3  1  0  0  0
  2 25  1  0  0  0
  2 85  1  0  0  0
  2 86  1  0  0  0
  3  4  1  0  0  0
  3 87  1  0  0  0
  3 88  1  0  0  0
  4  5  1  0  0  0
  4 89  1  0  0  0
  4 90  1  0  0  0
  5  6  1  0  0  0
  5 26  1  0  0  0
  5 91  1  0  0  0
  6 25  1  0  0  0
  6 92  1  0  0  0
  6 93  1  0  0  0
  7  8  2  0  0  0
  7 26  1  0  0  0
  7 29  1  0  0  0
  8  9  1  0  0  0
  8 22  1  0  0  0
  9 10  1  0  0  0
  9 27  2  0  0  0
 10 11  2  0  0  0
 10 15  1  0  0  0
 11 12  1  0  0  0
 11 94  1  0  0  0
 12 13  2  0  0  0
 12 95  1  0  0  0
 13 14  1  0  0  0
 13 31  1  0  0  0
 14 15  2  0  0  0
 14 96  1  0  0  0
 15 97  1  0  0  0
 16 17  2  0  0  0
 16 21  1  0  0  0
 16 31  1  0  0  0
 17 18  1  0  0  0
 17 98  1  0  0  0
 18 19  2  0  0  0
 18 99  1  0  0  0
 19 20  1  0  0  0
 19 24  1  0  0  0
 20 21  2  0  0  0
 20100  1  0  0  0
 21 23  1  0  0  0
 22 28  1  0  0  0
 22 32  2  0  0  0
 26 27  1  0  0  0
 28101  1  0  0  0
 28102  1  0  0  0
 29103  1  0  0  0
 29104  1  0  0  0
 33 34  1  0  0  0
 33 66  1  0  0  0
 33 70  2  0  0  0
 34 36  1  0  0  0
 34 59  1  0  0  0
 34105  1  0  0  0
 35 44  2  0  0  0
 35 45  1  0  0  0
 35 68  1  0  0  0
 36 56  1  0  0  0
 36106  1  0  0  0
 37 39  1  0  0  0
 37 47  1  0  0  0
 37 66  1  0  0  0
 37107  1  0  0  0
 38 43  2  0  0  0
 38 46  1  0  0  0
 38 47  1  0  0  0
 39 64  1  0  0  0
 39 67  2  0  0  0
 40 52  1  0  0  0
 40 53  2  0  0  0
 40 58  1  0  0  0
 41108  1  0  0  0
 41109  1  0  0  0
 41110  1  0  0  0
 41 48  1  0  0  0
 42 43  1  0  0  0
 42 66  1  0  0  0
 42111  1  0  0  0
 42112  1  0  0  0
 43 44  1  0  0  0
 44113  1  0  0  0
 45 46  2  0  0  0
 45114  1  0  0  0
 46115  1  0  0  0
 47116  1  0  0  0
 47117  1  0  0  0
 48 56  1  0  0  0
 48 65  1  0  0  0
 48118  1  0  0  0
 49 50  1  0  0  0
 49 53  1  0  0  0
 49 64  1  0  0  0
 49119  1  0  0  0
 50 51  1  0  0  0
 50120  1  0  0  0
 50121  1  0  0  0
 51 52  1  0  0  0
 51122  1  0  0  0
 51123  1  0  0  0
 52124  1  0  0  0
 52125  1  0  0  0
 53 54  1  0  0  0
 54 55  2  0  0  0
 54126  1  0  0  0
 55 57  1  0  0  0
 55127  1  0  0  0
 56 69  2  0  0  0
 57 58  2  0  0  0
 57128  1  0  0  0
 58129  1  0  0  0
 59 60  1  0  0  0
 59 61  1  0  0  0
 59 62  1  0  0  0
 60130  1  0  0  0
 60131  1  0  0  0
 60132  1  0  0  0
 61133  1  0  0  0
 61134  1  0  0  0
 61135  1  0  0  0
 62136  1  0  0  0
 62137  1  0  0  0
 62138  1  0  0  0
 63 65  1  0  0  0
 63139  1  0  0  0
 63140  1  0  0  0
 63141  1  0  0  0
 64142  1  0  0  0
 65143  1  0  0  0
 68 80  1  0  0  0
 71 73  1  0  0  0
 71 74  2  0  0  0
 71144  1  0  0  0
 72 73  2  0  0  0
 72 83  1  0  0  0
 72145  1  0  0  0
 73 81  1  0  0  0
 74 75  1  0  0  0
 74 83  1  0  0  0
 75146  1  0  0  0
 75147  1  0  0  0
 75148  1  0  0  0
 76149  1  0  0  0
 76150  1  0  0  0
 76151  1  0  0  0
 76 81  1  0  0  0
 77152  1  0  0  0
 77153  1  0  0  0
 77154  1  0  0  0
 77 82  1  0  0  0
 78 79  1  0  0  0
 78 83  1  0  0  0
 78155  1  0  0  0
 78156  1  0  0  0
 79 84  1  0  0  0
 79157  1  0  0  0
 79158  1  0  0  0
 80 82  1  0  0  0
 80159  1  0  0  0
 80160  1  0  0  0
 81 82  1  0  0  0
 81161  1  0  0  0
 82162  1  0  0  0
 84163  1  0  0  0
M  ISO  4   1 100  68 101  80 101  84 100
M  END
> <chiral flag>
0

> <version>
0

> <s_m_source_file>
/data/baiqing/PycharmProjects/Reinvent-master-3.2/result/LINK_invent/BTK/process_docking_weight1_custom_sum_contain_oxygen_bond_distance_aromatic_linkinvent_7_9_3/rearranged_h_0102.sdf

> <i_m_source_file_index>
75

> <r_mmod_Potential_Energy-OPLS-2005>
-42.0524787902832

> <r_mmod_Stretch_Energy-OPLS-2005>
50.2877807617188

> <r_mmod_Bend_Energy-OPLS-2005>
129.307342529297

> <r_mmod_Torsional_Energy-OPLS-2005>
236.880447387695

> <r_mmod_Improper_Torsional_Energy-OPLS-2005>
7.6006441116333

> <r_mmod_Van_der_Waal_Energy-OPLS-2005>
127.473564147949

> <r_mmod_Electrostatic_Energy-OPLS-2005>
-403.843780517578

> <r_mmod_Solvation_Energy-OPLS-2005>
-209.130142211914

> <b_mmod_Minimization_Converged-OPLS-2005>
0

> <r_mmod_RMS_Derivative-OPLS-2005>
7.12249708175659

$$$$
76
                    3D
 Structure written by MMmdl.
155163  0  0  1  0            999 V2000
  -30.5786  -14.7879   20.4548 C   0  0  0  0  0  0
  -30.4402  -12.4761   19.4901 C   0  0  0  0  0  0
  -29.5195  -12.5115   18.2485 C   0  0  0  0  0  0
  -28.0451  -12.3294   18.6569 C   0  0  0  0  0  0
  -27.6443  -13.2323   19.8532 C   0  0  2  0  0  0
  -28.6849  -13.1721   20.9935 C   0  0  0  0  0  0
  -25.2519  -13.8196   20.5685 C   0  0  0  0  0  0
  -24.1808  -13.0444   20.9196 C   0  0  0  0  0  0
  -24.6397  -11.6920   20.8732 C   0  0  0  0  0  0
  -23.9076  -10.4297   21.0398 C   0  0  0  0  0  0
  -24.3629   -9.4212   21.9173 C   0  0  0  0  0  0
  -23.6302   -8.2249   22.0751 C   0  0  0  0  0  0
  -22.4281   -8.0288   21.3543 C   0  0  0  0  0  0
  -21.9919   -9.0264   20.4645 C   0  0  0  0  0  0
  -22.7250  -10.2139   20.3048 C   0  0  0  0  0  0
  -21.6858   -6.0731   22.5277 C   0  0  0  0  0  0
  -21.4020   -6.5637   23.8207 C   0  0  0  0  0  0
  -21.3658   -5.6788   24.9170 C   0  0  0  0  0  0
  -21.6045   -4.3052   24.7224 C   0  0  0  0  0  0
  -21.8820   -3.8141   23.4347 C   0  0  0  0  0  0
  -21.9197   -4.6960   22.3400 C   0  0  0  0  0  0
  -22.7831  -13.5230   21.1857 C   0  0  0  0  0  0
  -22.1669   -4.2149   21.0978 F   0  0  0  0  0  0
  -21.5631   -3.4536   25.7737 F   0  0  0  0  0  0
  -29.9869  -13.5394   20.4214 N   0  0  0  0  0  0
  -26.2947  -12.9404   20.3272 N   0  0  0  0  0  0
  -25.9328  -11.6545   20.5734 N   0  0  0  0  0  0
  -22.0475  -12.8225   22.0419 N   0  0  0  0  0  0
  -25.4209  -15.1922   20.4115 N   0  0  0  0  0  0
  -31.7494  -14.9129   20.0848 O   0  0  0  0  0  0
  -21.6648   -6.8885   21.4239 O   0  0  0  0  0  0
  -22.3520  -14.5541   20.6712 O   0  0  0  0  0  0
  -24.6355  -31.8521   23.1946 C   0  0  0  0  0  0
  -25.9166  -32.4730   23.8307 C   0  0  1  0  0  0
  -27.2178  -27.2158   20.1318 C   0  0  0  0  0  0
  -25.5954  -33.8532   24.2228 N   0  0  0  0  0  0
  -23.4339  -30.4754   21.5384 C   0  0  2  0  0  0
  -24.8825  -28.9185   20.1060 C   0  0  0  0  0  0
  -22.7533  -29.4586   22.4881 C   0  0  0  0  0  0
  -18.0305  -28.1384   22.8481 C   0  0  0  0  0  0
  -24.1493  -36.7268   23.2635 C   0  0  0  0  0  0
  -25.9850  -30.7471   21.3871 C   0  0  0  0  0  0
  -26.0545  -29.3673   20.7273 C   0  0  0  0  0  0
  -27.2196  -28.5269   20.7331 C   0  0  0  0  0  0
  -26.0287  -26.8646   19.4503 C   0  0  0  0  0  0
  -24.8787  -27.6776   19.4552 C   0  0  0  0  0  0
  -23.6553  -29.8098   20.1547 C   0  0  0  0  0  0
  -25.4121  -36.3053   24.0320 C   0  0  1  0  0  0
  -20.5909  -28.3704   23.1252 C   0  0  2  0  0  0
  -20.6788  -26.9414   22.5400 C   0  0  0  0  0  0
  -19.5760  -26.6374   21.5207 C   0  0  0  0  0  0
  -18.1941  -26.7929   22.1618 C   0  0  0  0  0  0
  -19.1556  -28.8864   23.2864 C   0  0  0  0  0  0
  -18.9473  -30.1465   23.8882 C   0  0  0  0  0  0
  -17.6466  -30.6583   24.0562 C   0  0  0  0  0  0
  -25.9072  -34.9427   23.5079 C   0  0  0  0  0  0
  -16.5364  -29.9074   23.6326 C   0  0  0  0  0  0
  -16.7287  -28.6494   23.0348 C   0  0  0  0  0  0
  -26.4512  -31.6572   25.0720 C   0  0  0  0  0  0
  -25.3717  -31.3773   26.1435 C   0  0  0  0  0  0
  -27.0349  -30.2963   24.6268 C   0  0  0  0  0  0
  -27.6058  -32.4322   25.7495 C   0  0  0  0  0  0
  -27.5580  -37.1796   24.8463 C   0  0  0  0  0  0
  -21.4234  -29.3047   22.3637 N   0  0  0  0  0  0
  -26.4295  -37.3753   23.9407 N   0  0  0  0  0  0
  -24.7033  -31.0448   22.0946 N   0  0  0  0  0  0
  -23.4224  -28.8129   23.2991 O   0  0  0  0  0  0
  -28.2954  -26.2853   20.2332 O   0  0  0  0  0  0
  -26.5634  -34.8909   22.4645 O   0  0  0  0  0  0
  -23.5490  -32.1367   23.7215 O   0  0  0  0  0  0
  -29.0622  -22.1336   19.8050 C   0  0  0  0  0  0
  -28.5188  -19.5364   19.4001 C   0  0  0  0  0  0
  -30.3818  -19.9813   20.9182 C   0  0  0  0  0  0
  -28.5096  -18.0109   19.8456 C   0  0  0  0  0  0
  -30.3685  -18.4383   21.3647 C   0  0  0  0  0  0
  -29.0228  -20.6254   20.4297 C   0  0  1  0  0  0
  -29.8792  -17.3907   20.2941 C   0  0  1  0  0  0
  -28.8427  -23.5280   20.5958 C   0  0  0  0  0  0
  -28.1504  -24.8155   19.8415 C   0  0  0  0  0  0
  -29.7724  -15.9000   20.6986 N   0  0  0  0  0  0
  -29.2943  -22.2256   18.5963 O   0  0  0  0  0  0
  -31.4805  -12.6096   19.1894 H   0  0  0  0  0  0
  -30.3967  -11.5014   19.9785 H   0  0  0  0  0  0
  -29.8086  -11.7336   17.5406 H   0  0  0  0  0  0
  -29.6431  -13.4615   17.7261 H   0  0  0  0  0  0
  -27.9056  -11.2816   18.9246 H   0  0  0  0  0  0
  -27.3922  -12.5145   17.8037 H   0  0  0  0  0  0
  -27.6376  -14.2524   19.4680 H   0  0  0  0  0  0
  -28.7247  -12.1732   21.4298 H   0  0  0  0  0  0
  -28.4090  -13.8483   21.8038 H   0  0  0  0  0  0
  -25.2769   -9.5688   22.4752 H   0  0  0  0  0  0
  -24.0008   -7.4644   22.7476 H   0  0  0  0  0  0
  -21.0844   -8.8786   19.8956 H   0  0  0  0  0  0
  -22.3702  -10.9683   19.6165 H   0  0  0  0  0  0
  -21.2009   -7.6142   23.9715 H   0  0  0  0  0  0
  -21.1479   -6.0513   25.9073 H   0  0  0  0  0  0
  -22.0597   -2.7605   23.2846 H   0  0  0  0  0  0
  -22.4097  -11.9897   22.4817 H   0  0  0  0  0  0
  -21.1093  -13.1248   22.2620 H   0  0  0  0  0  0
  -24.6517  -15.8439   20.5221 H   0  0  0  0  0  0
  -26.2630  -15.6312   20.0631 H   0  0  0  0  0  0
  -26.7234  -32.5360   23.1044 H   0  0  0  0  0  0
  -25.0116  -33.9658   25.0387 H   0  0  0  0  0  0
  -22.7311  -31.2983   21.3908 H   0  0  0  0  0  0
  -23.3754  -35.9601   23.3298 H   0  0  0  0  0  0
  -24.3578  -36.8892   22.2048 H   0  0  0  0  0  0
  -23.7258  -37.6477   23.6658 H   0  0  0  0  0  0
  -26.1378  -31.5066   20.6188 H   0  0  0  0  0  0
  -26.8566  -30.7896   22.0286 H   0  0  0  0  0  0
  -28.1100  -28.8606   21.2469 H   0  0  0  0  0  0
  -25.9429  -25.9365   18.9087 H   0  0  0  0  0  0
  -23.9883  -27.3356   18.9460 H   0  0  0  0  0  0
  -23.7841  -30.5866   19.3999 H   0  0  0  0  0  0
  -22.7727  -29.2467   19.8461 H   0  0  0  0  0  0
  -25.1306  -36.1890   25.0813 H   0  0  0  0  0  0
  -21.0007  -28.3287   24.1370 H   0  0  0  0  0  0
  -20.5665  -26.2316   23.3611 H   0  0  0  0  0  0
  -21.6659  -26.7415   22.1206 H   0  0  0  0  0  0
  -19.6917  -25.6281   21.1242 H   0  0  0  0  0  0
  -19.6696  -27.3181   20.6736 H   0  0  0  0  0  0
  -17.4209  -26.6679   21.4024 H   0  0  0  0  0  0
  -18.0342  -26.0070   22.9012 H   0  0  0  0  0  0
  -19.7950  -30.7293   24.2232 H   0  0  0  0  0  0
  -17.5017  -31.6256   24.5173 H   0  0  0  0  0  0
  -15.5360  -30.2965   23.7656 H   0  0  0  0  0  0
  -15.8692  -28.0807   22.7060 H   0  0  0  0  0  0
  -24.5900  -30.7102   25.7785 H   0  0  0  0  0  0
  -24.8904  -32.2962   26.4795 H   0  0  0  0  0  0
  -25.8015  -30.9009   27.0254 H   0  0  0  0  0  0
  -26.2944  -29.6712   24.1257 H   0  0  0  0  0  0
  -27.3952  -29.7236   25.4827 H   0  0  0  0  0  0
  -27.8866  -30.4196   23.9573 H   0  0  0  0  0  0
  -27.2658  -33.3627   26.2056 H   0  0  0  0  0  0
  -28.3875  -32.6878   25.0327 H   0  0  0  0  0  0
  -28.0715  -31.8465   26.5435 H   0  0  0  0  0  0
  -28.2605  -38.0085   24.7490 H   0  0  0  0  0  0
  -28.1074  -36.2618   24.6306 H   0  0  0  0  0  0
  -27.2297  -37.1464   25.8868 H   0  0  0  0  0  0
  -20.9426  -29.8769   21.6837 H   0  0  0  0  0  0
  -26.0168  -38.2832   24.1392 H   0  0  0  0  0  0
  -27.5127  -19.8087   19.0792 H   0  0  0  0  0  0
  -29.1314  -19.6008   18.4998 H   0  0  0  0  0  0
  -31.1182  -20.0934   20.1209 H   0  0  0  0  0  0
  -30.7657  -20.5775   21.7468 H   0  0  0  0  0  0
  -28.1143  -17.4158   19.0208 H   0  0  0  0  0  0
  -27.7878  -17.8977   20.6561 H   0  0  0  0  0  0
  -29.7436  -18.3489   22.2547 H   0  0  0  0  0  0
  -31.3730  -18.1623   21.6879 H   0  0  0  0  0  0
  -28.3304  -20.6545   21.2717 H   0  0  0  0  0  0
  -30.5647  -17.4324   19.4459 H   0  0  0  0  0  0
  -29.8368  -23.8298   20.9230 H   0  0  0  0  0  0
  -28.2902  -23.3138   21.5104 H   0  0  0  0  0  0
  -27.0982  -24.5458   19.8622 H   0  0  0  0  0  0
  -28.4350  -24.7753   18.7895 H   0  0  0  0  0  0
  -28.8600  -15.6386   21.0428 H   0  0  0  0  0  0
  1 25  1  0  0  0
  1 30  2  0  0  0
  1 80  1  0  0  0
  2  3  1  0  0  0
  2 25  1  0  0  0
  2 82  1  0  0  0
  2 83  1  0  0  0
  3  4  1  0  0  0
  3 84  1  0  0  0
  3 85  1  0  0  0
  4  5  1  0  0  0
  4 86  1  0  0  0
  4 87  1  0  0  0
  5  6  1  0  0  0
  5 26  1  0  0  0
  5 88  1  0  0  0
  6 25  1  0  0  0
  6 89  1  0  0  0
  6 90  1  0  0  0
  7  8  2  0  0  0
  7 26  1  0  0  0
  7 29  1  0  0  0
  8  9  1  0  0  0
  8 22  1  0  0  0
  9 10  1  0  0  0
  9 27  2  0  0  0
 10 11  2  0  0  0
 10 15  1  0  0  0
 11 12  1  0  0  0
 11 91  1  0  0  0
 12 13  2  0  0  0
 12 92  1  0  0  0
 13 14  1  0  0  0
 13 31  1  0  0  0
 14 15  2  0  0  0
 14 93  1  0  0  0
 15 94  1  0  0  0
 16 17  2  0  0  0
 16 21  1  0  0  0
 16 31  1  0  0  0
 17 18  1  0  0  0
 17 95  1  0  0  0
 18 19  2  0  0  0
 18 96  1  0  0  0
 19 20  1  0  0  0
 19 24  1  0  0  0
 20 21  2  0  0  0
 20 97  1  0  0  0
 21 23  1  0  0  0
 22 28  1  0  0  0
 22 32  2  0  0  0
 26 27  1  0  0  0
 28 98  1  0  0  0
 28 99  1  0  0  0
 29100  1  0  0  0
 29101  1  0  0  0
 33 34  1  0  0  0
 33 66  1  0  0  0
 33 70  2  0  0  0
 34 36  1  0  0  0
 34 59  1  0  0  0
 34102  1  0  0  0
 35 44  2  0  0  0
 35 45  1  0  0  0
 35 68  1  0  0  0
 36 56  1  0  0  0
 36103  1  0  0  0
 37 39  1  0  0  0
 37 47  1  0  0  0
 37 66  1  0  0  0
 37104  1  0  0  0
 38 43  2  0  0  0
 38 46  1  0  0  0
 38 47  1  0  0  0
 39 64  1  0  0  0
 39 67  2  0  0  0
 40 52  1  0  0  0
 40 53  2  0  0  0
 40 58  1  0  0  0
 41105  1  0  0  0
 41106  1  0  0  0
 41107  1  0  0  0
 41 48  1  0  0  0
 42 43  1  0  0  0
 42 66  1  0  0  0
 42108  1  0  0  0
 42109  1  0  0  0
 43 44  1  0  0  0
 44110  1  0  0  0
 45 46  2  0  0  0
 45111  1  0  0  0
 46112  1  0  0  0
 47113  1  0  0  0
 47114  1  0  0  0
 48 56  1  0  0  0
 48 65  1  0  0  0
 48115  1  0  0  0
 49 50  1  0  0  0
 49 53  1  0  0  0
 49 64  1  0  0  0
 49116  1  0  0  0
 50 51  1  0  0  0
 50117  1  0  0  0
 50118  1  0  0  0
 51 52  1  0  0  0
 51119  1  0  0  0
 51120  1  0  0  0
 52121  1  0  0  0
 52122  1  0  0  0
 53 54  1  0  0  0
 54 55  2  0  0  0
 54123  1  0  0  0
 55 57  1  0  0  0
 55124  1  0  0  0
 56 69  2  0  0  0
 57 58  2  0  0  0
 57125  1  0  0  0
 58126  1  0  0  0
 59 60  1  0  0  0
 59 61  1  0  0  0
 59 62  1  0  0  0
 60127  1  0  0  0
 60128  1  0  0  0
 60129  1  0  0  0
 61130  1  0  0  0
 61131  1  0  0  0
 61132  1  0  0  0
 62133  1  0  0  0
 62134  1  0  0  0
 62135  1  0  0  0
 63 65  1  0  0  0
 63136  1  0  0  0
 63137  1  0  0  0
 63138  1  0  0  0
 64139  1  0  0  0
 65140  1  0  0  0
 68 79  1  0  0  0
 71 78  1  0  0  0
 71 81  2  0  0  0
 71 76  1  0  0  0
 72 74  1  0  0  0
 72 76  1  0  0  0
 72141  1  0  0  0
 72142  1  0  0  0
 73 75  1  0  0  0
 73 76  1  0  0  0
 73143  1  0  0  0
 73144  1  0  0  0
 74 77  1  0  0  0
 74145  1  0  0  0
 74146  1  0  0  0
 75 77  1  0  0  0
 75147  1  0  0  0
 75148  1  0  0  0
 76149  1  0  0  0
 77 80  1  0  0  0
 77150  1  0  0  0
 78 79  1  0  0  0
 78151  1  0  0  0
 78152  1  0  0  0
 79153  1  0  0  0
 79154  1  0  0  0
 80155  1  0  0  0
M  ISO  4   1 100  68 101  79 101  80 100
M  END
> <chiral flag>
0

> <version>
0

> <s_m_source_file>
/data/baiqing/PycharmProjects/Reinvent-master-3.2/result/LINK_invent/BTK/process_docking_weight1_custom_sum_contain_oxygen_bond_distance_aromatic_linkinvent_7_9_3/rearranged_h_0102.sdf

> <i_m_source_file_index>
76

> <r_mmod_Potential_Energy-OPLS-2005>
245.767181396484

> <r_mmod_Stretch_Energy-OPLS-2005>
153.633407592773

> <r_mmod_Bend_Energy-OPLS-2005>
205.382202148438

> <r_mmod_Torsional_Energy-OPLS-2005>
232.99919128418

> <r_mmod_Improper_Torsional_Energy-OPLS-2005>
5.41425943374634

> <r_mmod_Van_der_Waal_Energy-OPLS-2005>
122.099349975586

> <r_mmod_Electrostatic_Energy-OPLS-2005>
-364.680999755859

> <r_mmod_Solvation_Energy-OPLS-2005>
-220.701049804688

> <b_mmod_Minimization_Converged-OPLS-2005>
0

> <r_mmod_RMS_Derivative-OPLS-2005>
1.3484228849411

$$$$
77
                    3D
 Structure written by MMmdl.
155163  0  0  1  0            999 V2000
  -30.6868  -14.7457   20.4985 C   0  0  0  0  0  0
  -30.4314  -12.4731   19.4964 C   0  0  0  0  0  0
  -29.5213  -12.5119   18.2495 C   0  0  0  0  0  0
  -28.0431  -12.3424   18.6500 C   0  0  0  0  0  0
  -27.6431  -13.2437   19.8492 C   0  0  2  0  0  0
  -28.6870  -13.2150   20.9894 C   0  0  0  0  0  0
  -25.2511  -13.8228   20.5709 C   0  0  0  0  0  0
  -24.1830  -13.0473   20.9195 C   0  0  0  0  0  0
  -24.6410  -11.6925   20.8739 C   0  0  0  0  0  0
  -23.9112  -10.4297   21.0395 C   0  0  0  0  0  0
  -24.3655   -9.4200   21.9167 C   0  0  0  0  0  0
  -23.6299   -8.2250   22.0761 C   0  0  0  0  0  0
  -22.4272   -8.0277   21.3548 C   0  0  0  0  0  0
  -21.9930   -9.0267   20.4652 C   0  0  0  0  0  0
  -22.7286  -10.2131   20.3041 C   0  0  0  0  0  0
  -21.6852   -6.0759   22.5274 C   0  0  0  0  0  0
  -21.4030   -6.5651   23.8218 C   0  0  0  0  0  0
  -21.3664   -5.6783   24.9161 C   0  0  0  0  0  0
  -21.6041   -4.3047   24.7198 C   0  0  0  0  0  0
  -21.8818   -3.8151   23.4314 C   0  0  0  0  0  0
  -21.9209   -4.6990   22.3389 C   0  0  0  0  0  0
  -22.7829  -13.5208   21.1807 C   0  0  0  0  0  0
  -22.1670   -4.2163   21.0979 F   0  0  0  0  0  0
  -21.5626   -3.4540   25.7728 F   0  0  0  0  0  0
  -29.9964  -13.5526   20.4136 N   0  0  0  0  0  0
  -26.2947  -12.9463   20.3272 N   0  0  0  0  0  0
  -25.9348  -11.6595   20.5769 N   0  0  0  0  0  0
  -22.0499  -12.8241   22.0370 N   0  0  0  0  0  0
  -25.4189  -15.1991   20.4120 N   0  0  0  0  0  0
  -31.8629  -14.7970   20.1312 O   0  0  0  0  0  0
  -21.6639   -6.8883   21.4224 O   0  0  0  0  0  0
  -22.3529  -14.5489   20.6585 O   0  0  0  0  0  0
  -24.6262  -31.8560   23.2024 C   0  0  0  0  0  0
  -25.9090  -32.4763   23.8342 C   0  0  1  0  0  0
  -27.2582  -27.3062   20.1640 C   0  0  0  0  0  0
  -25.5903  -33.8583   24.2245 N   0  0  0  0  0  0
  -23.4218  -30.4769   21.5381 C   0  0  2  0  0  0
  -24.8830  -28.9299   20.1121 C   0  0  0  0  0  0
  -22.7457  -29.4581   22.4880 C   0  0  0  0  0  0
  -18.0270  -28.1393   22.8446 C   0  0  0  0  0  0
  -24.1484  -36.7287   23.2643 C   0  0  0  0  0  0
  -25.9632  -30.7900   21.3773 C   0  0  0  0  0  0
  -26.0452  -29.4148   20.7221 C   0  0  0  0  0  0
  -27.2267  -28.6142   20.7423 C   0  0  0  0  0  0
  -26.0749  -26.8953   19.4930 C   0  0  0  0  0  0
  -24.9029  -27.6756   19.4864 C   0  0  0  0  0  0
  -23.6446  -29.8031   20.1559 C   0  0  0  0  0  0
  -25.4116  -36.3090   24.0325 C   0  0  1  0  0  0
  -20.5866  -28.3681   23.1254 C   0  0  2  0  0  0
  -20.6754  -26.9400   22.5384 C   0  0  0  0  0  0
  -19.5746  -26.6368   21.5183 C   0  0  0  0  0  0
  -18.1922  -26.7927   22.1597 C   0  0  0  0  0  0
  -19.1523  -28.8854   23.2835 C   0  0  0  0  0  0
  -18.9466  -30.1458   23.8862 C   0  0  0  0  0  0
  -17.6469  -30.6591   24.0559 C   0  0  0  0  0  0
  -25.9030  -34.9451   23.5089 C   0  0  0  0  0  0
  -16.5348  -29.9093   23.6344 C   0  0  0  0  0  0
  -16.7254  -28.6505   23.0349 C   0  0  0  0  0  0
  -26.4476  -31.6616   25.0735 C   0  0  0  0  0  0
  -25.3692  -31.3807   26.1454 C   0  0  0  0  0  0
  -27.0328  -30.3028   24.6264 C   0  0  0  0  0  0
  -27.5999  -32.4368   25.7515 C   0  0  0  0  0  0
  -27.5562  -37.1821   24.8461 C   0  0  0  0  0  0
  -21.4164  -29.3045   22.3644 N   0  0  0  0  0  0
  -26.4281  -37.3773   23.9388 N   0  0  0  0  0  0
  -24.6840  -31.0581   22.0941 N   0  0  0  0  0  0
  -23.4148  -28.8123   23.2956 O   0  0  0  0  0  0
  -28.3887  -26.4648   20.3110 O   0  0  0  0  0  0
  -26.5601  -34.8903   22.4656 O   0  0  0  0  0  0
  -23.5394  -32.1338   23.7341 O   0  0  0  0  0  0
  -29.5745  -22.6652   20.2708 C   0  0  0  0  0  0
  -28.8402  -22.8585   22.8838 C   0  0  0  0  0  0
  -29.8120  -21.4926   21.0853 C   0  0  0  0  0  0
  -29.5157  -21.6912   22.4557 C   0  0  0  0  0  0
  -28.9331  -23.8599   20.7812 C   0  0  0  0  0  0
  -29.9944  -20.6889   23.4854 C   0  0  0  0  0  0
  -30.3935  -20.1056   20.5419 C   0  0  0  0  0  0
  -28.4093  -25.0414   19.8616 C   0  0  0  0  0  0
  -29.9625  -18.6539   21.1416 C   0  0  0  0  0  0
  -30.5587  -17.3332   20.4502 C   0  0  0  0  0  0
  -28.5421  -23.9033   22.0731 N   0  0  0  0  0  0
  -30.0311  -15.9328   20.7729 N   0  0  0  0  0  0
  -31.4739  -12.5841   19.1964 H   0  0  0  0  0  0
  -30.3646  -11.5068   19.9973 H   0  0  0  0  0  0
  -29.8062  -11.7248   17.5493 H   0  0  0  0  0  0
  -29.6562  -13.4614   17.7254 H   0  0  0  0  0  0
  -27.8867  -11.2928   18.9020 H   0  0  0  0  0  0
  -27.3927  -12.5486   17.7999 H   0  0  0  0  0  0
  -27.6268  -14.2591   19.4540 H   0  0  0  0  0  0
  -28.7237  -12.2299   21.4562 H   0  0  0  0  0  0
  -28.4076  -13.9205   21.7724 H   0  0  0  0  0  0
  -25.2808   -9.5701   22.4716 H   0  0  0  0  0  0
  -24.0021   -7.4678   22.7476 H   0  0  0  0  0  0
  -21.0868   -8.8756   19.8966 H   0  0  0  0  0  0
  -22.3713  -10.9650   19.6128 H   0  0  0  0  0  0
  -21.2015   -7.6158   23.9712 H   0  0  0  0  0  0
  -21.1493   -6.0525   25.9066 H   0  0  0  0  0  0
  -22.0595   -2.7609   23.2814 H   0  0  0  0  0  0
  -22.4140  -11.9944   22.4850 H   0  0  0  0  0  0
  -21.1091  -13.1211   22.2510 H   0  0  0  0  0  0
  -24.6449  -15.8433   20.5305 H   0  0  0  0  0  0
  -26.2635  -15.6430   20.0779 H   0  0  0  0  0  0
  -26.7164  -32.5420   23.1077 H   0  0  0  0  0  0
  -25.0086  -33.9724   25.0423 H   0  0  0  0  0  0
  -22.7181  -31.2973   21.3854 H   0  0  0  0  0  0
  -23.3731  -35.9629   23.3341 H   0  0  0  0  0  0
  -24.3535  -36.8871   22.2042 H   0  0  0  0  0  0
  -23.7269  -37.6517   23.6636 H   0  0  0  0  0  0
  -26.1014  -31.5547   20.6124 H   0  0  0  0  0  0
  -26.8401  -30.8351   22.0126 H   0  0  0  0  0  0
  -28.1067  -28.9901   21.2502 H   0  0  0  0  0  0
  -26.0013  -25.9543   18.9779 H   0  0  0  0  0  0
  -24.0151  -27.2963   19.0020 H   0  0  0  0  0  0
  -23.7655  -30.5750   19.3947 H   0  0  0  0  0  0
  -22.7701  -29.2266   19.8501 H   0  0  0  0  0  0
  -25.1320  -36.1924   25.0815 H   0  0  0  0  0  0
  -20.9953  -28.3283   24.1380 H   0  0  0  0  0  0
  -20.5650  -26.2310   23.3585 H   0  0  0  0  0  0
  -21.6645  -26.7427   22.1221 H   0  0  0  0  0  0
  -19.6938  -25.6276   21.1244 H   0  0  0  0  0  0
  -19.6744  -27.3155   20.6700 H   0  0  0  0  0  0
  -17.4203  -26.6616   21.3999 H   0  0  0  0  0  0
  -18.0373  -26.0079   22.9022 H   0  0  0  0  0  0
  -19.7946  -30.7258   24.2242 H   0  0  0  0  0  0
  -17.5040  -31.6287   24.5153 H   0  0  0  0  0  0
  -15.5361  -30.3011   23.7705 H   0  0  0  0  0  0
  -15.8622  -28.0833   22.7118 H   0  0  0  0  0  0
  -24.5861  -30.7148   25.7819 H   0  0  0  0  0  0
  -24.8893  -32.3006   26.4807 H   0  0  0  0  0  0
  -25.8005  -30.9051   27.0276 H   0  0  0  0  0  0
  -26.2963  -29.6776   24.1220 H   0  0  0  0  0  0
  -27.3915  -29.7289   25.4824 H   0  0  0  0  0  0
  -27.8853  -30.4267   23.9580 H   0  0  0  0  0  0
  -27.2591  -33.3672   26.2055 H   0  0  0  0  0  0
  -28.3852  -32.6940   25.0399 H   0  0  0  0  0  0
  -28.0624  -31.8536   26.5483 H   0  0  0  0  0  0
  -28.2635  -38.0065   24.7458 H   0  0  0  0  0  0
  -28.1012  -36.2608   24.6380 H   0  0  0  0  0  0
  -27.2247  -37.1581   25.8851 H   0  0  0  0  0  0
  -20.9341  -29.8772   21.6864 H   0  0  0  0  0  0
  -26.0165  -38.2839   24.1388 H   0  0  0  0  0  0
  -29.8758  -22.6479   19.2317 H   0  0  0  0  0  0
  -28.5181  -22.9681   23.9110 H   0  0  0  0  0  0
  -29.2798  -19.8701   23.5898 H   0  0  0  0  0  0
  -30.1835  -21.1485   24.4549 H   0  0  0  0  0  0
  -30.9584  -20.2941   23.1623 H   0  0  0  0  0  0
  -31.4816  -20.1516   20.6348 H   0  0  0  0  0  0
  -30.1612  -20.0781   19.4735 H   0  0  0  0  0  0
  -27.4082  -24.6965   19.6442 H   0  0  0  0  0  0
  -28.9576  -25.0130   18.9225 H   0  0  0  0  0  0
  -28.8714  -18.6258   21.2154 H   0  0  0  0  0  0
  -30.3535  -18.5421   22.1518 H   0  0  0  0  0  0
  -31.6251  -17.3441   20.6760 H   0  0  0  0  0  0
  -30.4807  -17.4592   19.3725 H   0  0  0  0  0  0
  -29.0511  -15.8712   21.0170 H   0  0  0  0  0  0
  1 25  1  0  0  0
  1 30  2  0  0  0
  1 82  1  0  0  0
  2  3  1  0  0  0
  2 25  1  0  0  0
  2 83  1  0  0  0
  2 84  1  0  0  0
  3  4  1  0  0  0
  3 85  1  0  0  0
  3 86  1  0  0  0
  4  5  1  0  0  0
  4 87  1  0  0  0
  4 88  1  0  0  0
  5  6  1  0  0  0
  5 26  1  0  0  0
  5 89  1  0  0  0
  6 25  1  0  0  0
  6 90  1  0  0  0
  6 91  1  0  0  0
  7  8  2  0  0  0
  7 26  1  0  0  0
  7 29  1  0  0  0
  8  9  1  0  0  0
  8 22  1  0  0  0
  9 10  1  0  0  0
  9 27  2  0  0  0
 10 11  2  0  0  0
 10 15  1  0  0  0
 11 12  1  0  0  0
 11 92  1  0  0  0
 12 13  2  0  0  0
 12 93  1  0  0  0
 13 14  1  0  0  0
 13 31  1  0  0  0
 14 15  2  0  0  0
 14 94  1  0  0  0
 15 95  1  0  0  0
 16 17  2  0  0  0
 16 21  1  0  0  0
 16 31  1  0  0  0
 17 18  1  0  0  0
 17 96  1  0  0  0
 18 19  2  0  0  0
 18 97  1  0  0  0
 19 20  1  0  0  0
 19 24  1  0  0  0
 20 21  2  0  0  0
 20 98  1  0  0  0
 21 23  1  0  0  0
 22 28  1  0  0  0
 22 32  2  0  0  0
 26 27  1  0  0  0
 28 99  1  0  0  0
 28100  1  0  0  0
 29101  1  0  0  0
 29102  1  0  0  0
 33 34  1  0  0  0
 33 66  1  0  0  0
 33 70  2  0  0  0
 34 36  1  0  0  0
 34 59  1  0  0  0
 34103  1  0  0  0
 35 44  2  0  0  0
 35 45  1  0  0  0
 35 68  1  0  0  0
 36 56  1  0  0  0
 36104  1  0  0  0
 37 39  1  0  0  0
 37 47  1  0  0  0
 37 66  1  0  0  0
 37105  1  0  0  0
 38 43  2  0  0  0
 38 46  1  0  0  0
 38 47  1  0  0  0
 39 64  1  0  0  0
 39 67  2  0  0  0
 40 52  1  0  0  0
 40 53  2  0  0  0
 40 58  1  0  0  0
 41106  1  0  0  0
 41107  1  0  0  0
 41108  1  0  0  0
 41 48  1  0  0  0
 42 43  1  0  0  0
 42 66  1  0  0  0
 42109  1  0  0  0
 42110  1  0  0  0
 43 44  1  0  0  0
 44111  1  0  0  0
 45 46  2  0  0  0
 45112  1  0  0  0
 46113  1  0  0  0
 47114  1  0  0  0
 47115  1  0  0  0
 48 56  1  0  0  0
 48 65  1  0  0  0
 48116  1  0  0  0
 49 50  1  0  0  0
 49 53  1  0  0  0
 49 64  1  0  0  0
 49117  1  0  0  0
 50 51  1  0  0  0
 50118  1  0  0  0
 50119  1  0  0  0
 51 52  1  0  0  0
 51120  1  0  0  0
 51121  1  0  0  0
 52122  1  0  0  0
 52123  1  0  0  0
 53 54  1  0  0  0
 54 55  2  0  0  0
 54124  1  0  0  0
 55 57  1  0  0  0
 55125  1  0  0  0
 56 69  2  0  0  0
 57 58  2  0  0  0
 57126  1  0  0  0
 58127  1  0  0  0
 59 60  1  0  0  0
 59 61  1  0  0  0
 59 62  1  0  0  0
 60128  1  0  0  0
 60129  1  0  0  0
 60130  1  0  0  0
 61131  1  0  0  0
 61132  1  0  0  0
 61133  1  0  0  0
 62134  1  0  0  0
 62135  1  0  0  0
 62136  1  0  0  0
 63 65  1  0  0  0
 63137  1  0  0  0
 63138  1  0  0  0
 63139  1  0  0  0
 64140  1  0  0  0
 65141  1  0  0  0
 68 78  1  0  0  0
 71 73  2  0  0  0
 71 75  1  0  0  0
 71142  1  0  0  0
 72 74  2  0  0  0
 72 81  1  0  0  0
 72143  1  0  0  0
 73 74  1  0  0  0
 73 77  1  0  0  0
 74 76  1  0  0  0
 75 78  1  0  0  0
 75 81  2  0  0  0
 76144  1  0  0  0
 76145  1  0  0  0
 76146  1  0  0  0
 77 79  1  0  0  0
 77147  1  0  0  0
 77148  1  0  0  0
 78149  1  0  0  0
 78150  1  0  0  0
 79 80  1  0  0  0
 79151  1  0  0  0
 79152  1  0  0  0
 80 82  1  0  0  0
 80153  1  0  0  0
 80154  1  0  0  0
 82155  1  0  0  0
M  ISO  4   1 100  68 101  78 101  82 100
M  END
> <chiral flag>
0

> <version>
0

> <s_m_source_file>
/data/baiqing/PycharmProjects/Reinvent-master-3.2/result/LINK_invent/BTK/process_docking_weight1_custom_sum_contain_oxygen_bond_distance_aromatic_linkinvent_7_9_3/rearranged_h_0102.sdf

> <i_m_source_file_index>
77

> <r_mmod_Potential_Energy-OPLS-2005>
25.5193481445312

> <r_mmod_Stretch_Energy-OPLS-2005>
113.543746948242

> <r_mmod_Bend_Energy-OPLS-2005>
174.462203979492

> <r_mmod_Torsional_Energy-OPLS-2005>
214.831329345703

> <r_mmod_Improper_Torsional_Energy-OPLS-2005>
6.60706233978271

> <r_mmod_Van_der_Waal_Energy-OPLS-2005>
153.981903076172

> <r_mmod_Electrostatic_Energy-OPLS-2005>
-483.876129150391

> <r_mmod_Solvation_Energy-OPLS-2005>
-234.464233398438

> <b_mmod_Minimization_Converged-OPLS-2005>
0

> <r_mmod_RMS_Derivative-OPLS-2005>
9.57075977325439

$$$$
78
                    3D
 Structure written by MMmdl.
151159  0  0  1  0            999 V2000
  -30.5252  -14.9134   20.3871 C   0  0  0  0  0  0
  -30.4263  -12.5596   19.4849 C   0  0  0  0  0  0
  -29.5054  -12.5046   18.2468 C   0  0  0  0  0  0
  -28.0429  -12.2914   18.6730 C   0  0  0  0  0  0
  -27.6174  -13.2360   19.8289 C   0  0  2  0  0  0
  -28.6576  -13.2680   20.9665 C   0  0  0  0  0  0
  -25.2431  -13.8194   20.5670 C   0  0  0  0  0  0
  -24.1778  -13.0428   20.9258 C   0  0  0  0  0  0
  -24.6375  -11.6900   20.8753 C   0  0  0  0  0  0
  -23.9068  -10.4275   21.0422 C   0  0  0  0  0  0
  -24.3628   -9.4184   21.9194 C   0  0  0  0  0  0
  -23.6303   -8.2223   22.0753 C   0  0  0  0  0  0
  -22.4284   -8.0269   21.3535 C   0  0  0  0  0  0
  -21.9923   -9.0252   20.4643 C   0  0  0  0  0  0
  -22.7254  -10.2121   20.3064 C   0  0  0  0  0  0
  -21.6861   -6.0735   22.5276 C   0  0  0  0  0  0
  -21.4013   -6.5634   23.8211 C   0  0  0  0  0  0
  -21.3659   -5.6794   24.9173 C   0  0  0  0  0  0
  -21.6044   -4.3057   24.7223 C   0  0  0  0  0  0
  -21.8824   -3.8139   23.4348 C   0  0  0  0  0  0
  -21.9188   -4.6961   22.3390 C   0  0  0  0  0  0
  -22.7784  -13.5186   21.1891 C   0  0  0  0  0  0
  -22.1663   -4.2143   21.0983 F   0  0  0  0  0  0
  -21.5628   -3.4538   25.7739 F   0  0  0  0  0  0
  -29.9351  -13.6570   20.3618 N   0  0  0  0  0  0
  -26.2798  -12.9378   20.3184 N   0  0  0  0  0  0
  -25.9294  -11.6509   20.5727 N   0  0  0  0  0  0
  -22.0474  -12.8157   22.0465 N   0  0  0  0  0  0
  -25.4126  -15.1924   20.4127 N   0  0  0  0  0  0
  -31.7349  -14.9736   20.1647 O   0  0  0  0  0  0
  -21.6632   -6.8871   21.4247 O   0  0  0  0  0  0
  -22.3435  -14.5501   20.6763 O   0  0  0  0  0  0
  -24.6339  -31.8427   23.1891 C   0  0  0  0  0  0
  -25.9122  -32.4685   23.8274 C   0  0  1  0  0  0
  -27.2376  -27.1758   20.1310 C   0  0  0  0  0  0
  -25.5880  -33.8507   24.2186 N   0  0  0  0  0  0
  -23.4437  -30.4544   21.5323 C   0  0  2  0  0  0
  -24.8968  -28.8864   20.1050 C   0  0  0  0  0  0
  -22.7574  -29.4493   22.4892 C   0  0  0  0  0  0
  -18.0303  -28.1359   22.8469 C   0  0  0  0  0  0
  -24.1489  -36.7275   23.2651 C   0  0  0  0  0  0
  -25.9936  -30.7283   21.3831 C   0  0  0  0  0  0
  -26.0669  -29.3422   20.7219 C   0  0  0  0  0  0
  -27.2337  -28.5002   20.7169 C   0  0  0  0  0  0
  -26.0413  -26.7997   19.4923 C   0  0  0  0  0  0
  -24.8945  -27.6290   19.4746 C   0  0  0  0  0  0
  -23.6660  -29.7755   20.1509 C   0  0  0  0  0  0
  -25.4124  -36.3059   24.0312 C   0  0  1  0  0  0
  -20.5906  -28.3663   23.1252 C   0  0  2  0  0  0
  -20.6787  -26.9366   22.5407 C   0  0  0  0  0  0
  -19.5767  -26.6357   21.5211 C   0  0  0  0  0  0
  -18.1949  -26.7902   22.1625 C   0  0  0  0  0  0
  -19.1556  -28.8850   23.2843 C   0  0  0  0  0  0
  -18.9463  -30.1450   23.8862 C   0  0  0  0  0  0
  -17.6461  -30.6552   24.0544 C   0  0  0  0  0  0
  -25.9058  -34.9415   23.5100 C   0  0  0  0  0  0
  -16.5358  -29.9042   23.6311 C   0  0  0  0  0  0
  -16.7292  -28.6460   23.0344 C   0  0  0  0  0  0
  -26.4498  -31.6569   25.0716 C   0  0  0  0  0  0
  -25.3722  -31.3696   26.1428 C   0  0  0  0  0  0
  -27.0363  -30.2984   24.6267 C   0  0  0  0  0  0
  -27.6029  -32.4366   25.7462 C   0  0  0  0  0  0
  -27.5592  -37.1800   24.8461 C   0  0  0  0  0  0
  -21.4274  -29.2990   22.3639 N   0  0  0  0  0  0
  -26.4304  -37.3759   23.9387 N   0  0  0  0  0  0
  -24.7103  -31.0309   22.0894 N   0  0  0  0  0  0
  -23.4221  -28.8089   23.3074 O   0  0  0  0  0  0
  -28.3530  -26.2855   20.2294 O   0  0  0  0  0  0
  -26.5690  -34.8896   22.4685 O   0  0  0  0  0  0
  -23.5471  -32.1295   23.7124 O   0  0  0  0  0  0
  -28.4262  -20.9728   19.2369 C   0  0  0  0  0  0
  -29.6797  -19.9519   21.3671 C   0  0  0  0  0  0
  -28.6824  -21.8925   20.3193 C   0  0  0  0  0  0
  -29.4319  -19.0301   20.2880 C   0  0  0  0  0  0
  -28.4459  -24.7553   18.2141 C   0  0  0  0  0  0
  -28.0839  -23.4217   20.4896 C   0  0  0  0  0  0
  -30.1929  -17.5686   20.1228 C   0  0  0  0  0  0
  -28.5735  -24.8275   19.7476 C   0  0  1  0  0  0
  -29.3171  -21.2964   21.3901 N   0  0  0  0  0  0
  -28.7916  -19.6216   19.2150 N   0  0  0  0  0  0
  -29.7411  -16.0957   20.4213 N   0  0  0  0  0  0
  -31.4589  -12.7198   19.1755 H   0  0  0  0  0  0
  -30.4153  -11.6079   20.0245 H   0  0  0  0  0  0
  -29.8232  -11.7041   17.5782 H   0  0  0  0  0  0
  -29.5909  -13.4308   17.6790 H   0  0  0  0  0  0
  -27.9517  -11.2532   18.9984 H   0  0  0  0  0  0
  -27.3731  -12.4038   17.8193 H   0  0  0  0  0  0
  -27.5861  -14.2307   19.3878 H   0  0  0  0  0  0
  -28.7359  -12.2986   21.4640 H   0  0  0  0  0  0
  -28.3568  -13.9857   21.7322 H   0  0  0  0  0  0
  -25.2785   -9.5638   22.4754 H   0  0  0  0  0  0
  -24.0009   -7.4601   22.7454 H   0  0  0  0  0  0
  -21.0858   -8.8773   19.8937 H   0  0  0  0  0  0
  -22.3742  -10.9663   19.6153 H   0  0  0  0  0  0
  -21.2024   -7.6151   23.9711 H   0  0  0  0  0  0
  -21.1477   -6.0527   25.9078 H   0  0  0  0  0  0
  -22.0608   -2.7607   23.2847 H   0  0  0  0  0  0
  -22.4137  -11.9814   22.4796 H   0  0  0  0  0  0
  -21.1095  -13.1115   22.2731 H   0  0  0  0  0  0
  -24.6443  -15.8421   20.5352 H   0  0  0  0  0  0
  -26.2509  -15.6351   20.0625 H   0  0  0  0  0  0
  -26.7214  -32.5338   23.1016 H   0  0  0  0  0  0
  -24.9941  -33.9619   25.0292 H   0  0  0  0  0  0
  -22.7447  -31.2783   21.3766 H   0  0  0  0  0  0
  -23.3751  -35.9610   23.3301 H   0  0  0  0  0  0
  -24.3594  -36.8927   22.2078 H   0  0  0  0  0  0
  -23.7228  -37.6456   23.6707 H   0  0  0  0  0  0
  -26.1522  -31.4869   20.6150 H   0  0  0  0  0  0
  -26.8594  -30.7748   22.0297 H   0  0  0  0  0  0
  -28.1303  -28.8487   21.2123 H   0  0  0  0  0  0
  -25.9702  -25.8286   19.0297 H   0  0  0  0  0  0
  -24.0008  -27.2731   18.9750 H   0  0  0  0  0  0
  -23.7870  -30.5405   19.3801 H   0  0  0  0  0  0
  -22.7913  -29.1935   19.8544 H   0  0  0  0  0  0
  -25.1324  -36.1915   25.0816 H   0  0  0  0  0  0
  -20.9992  -28.3238   24.1378 H   0  0  0  0  0  0
  -20.5671  -26.2284   23.3617 H   0  0  0  0  0  0
  -21.6652  -26.7379   22.1217 H   0  0  0  0  0  0
  -19.6917  -25.6274   21.1231 H   0  0  0  0  0  0
  -19.6684  -27.3178   20.6752 H   0  0  0  0  0  0
  -17.4215  -26.6623   21.4024 H   0  0  0  0  0  0
  -18.0335  -26.0043   22.9031 H   0  0  0  0  0  0
  -19.7943  -30.7265   24.2212 H   0  0  0  0  0  0
  -17.5004  -31.6223   24.5149 H   0  0  0  0  0  0
  -15.5343  -30.2924   23.7643 H   0  0  0  0  0  0
  -15.8706  -28.0760   22.7074 H   0  0  0  0  0  0
  -24.5857  -30.7101   25.7730 H   0  0  0  0  0  0
  -24.8937  -32.2846   26.4949 H   0  0  0  0  0  0
  -25.8015  -30.8778   27.0163 H   0  0  0  0  0  0
  -26.2964  -29.6697   24.1284 H   0  0  0  0  0  0
  -27.4035  -29.7279   25.4813 H   0  0  0  0  0  0
  -27.8859  -30.4243   23.9538 H   0  0  0  0  0  0
  -27.2595  -33.3634   26.2061 H   0  0  0  0  0  0
  -28.3765  -32.7004   25.0243 H   0  0  0  0  0  0
  -28.0793  -31.8508   26.5331 H   0  0  0  0  0  0
  -28.2609  -38.0107   24.7524 H   0  0  0  0  0  0
  -28.1091  -36.2628   24.6271 H   0  0  0  0  0  0
  -27.2313  -37.1442   25.8872 H   0  0  0  0  0  0
  -20.9510  -29.8658   21.6761 H   0  0  0  0  0  0
  -26.0178  -38.2835   24.1373 H   0  0  0  0  0  0
  -27.9005  -21.3206   18.3567 H   0  0  0  0  0  0
  -30.2609  -19.6255   22.2156 H   0  0  0  0  0  0
  -28.9533  -23.8741   17.8203 H   0  0  0  0  0  0
  -28.8993  -25.6280   17.7441 H   0  0  0  0  0  0
  -27.4119  -24.7102   17.8844 H   0  0  0  0  0  0
  -28.1077  -23.6175   21.5640 H   0  0  0  0  0  0
  -27.0254  -23.3320   20.2643 H   0  0  0  0  0  0
  -31.1414  -17.6865   20.6516 H   0  0  0  0  0  0
  -30.4711  -17.5458   19.0695 H   0  0  0  0  0  0
  -29.6522  -24.7828   19.9041 H   0  0  0  0  0  0
  -28.7447  -15.9521   20.4677 H   0  0  0  0  0  0
  1 25  1  0  0  0
  1 30  2  0  0  0
  1 81  1  0  0  0
  2  3  1  0  0  0
  2 25  1  0  0  0
  2 82  1  0  0  0
  2 83  1  0  0  0
  3  4  1  0  0  0
  3 84  1  0  0  0
  3 85  1  0  0  0
  4  5  1  0  0  0
  4 86  1  0  0  0
  4 87  1  0  0  0
  5  6  1  0  0  0
  5 26  1  0  0  0
  5 88  1  0  0  0
  6 25  1  0  0  0
  6 89  1  0  0  0
  6 90  1  0  0  0
  7  8  2  0  0  0
  7 26  1  0  0  0
  7 29  1  0  0  0
  8  9  1  0  0  0
  8 22  1  0  0  0
  9 10  1  0  0  0
  9 27  2  0  0  0
 10 11  2  0  0  0
 10 15  1  0  0  0
 11 12  1  0  0  0
 11 91  1  0  0  0
 12 13  2  0  0  0
 12 92  1  0  0  0
 13 14  1  0  0  0
 13 31  1  0  0  0
 14 15  2  0  0  0
 14 93  1  0  0  0
 15 94  1  0  0  0
 16 17  2  0  0  0
 16 21  1  0  0  0
 16 31  1  0  0  0
 17 18  1  0  0  0
 17 95  1  0  0  0
 18 19  2  0  0  0
 18 96  1  0  0  0
 19 20  1  0  0  0
 19 24  1  0  0  0
 20 21  2  0  0  0
 20 97  1  0  0  0
 21 23  1  0  0  0
 22 28  1  0  0  0
 22 32  2  0  0  0
 26 27  1  0  0  0
 28 98  1  0  0  0
 28 99  1  0  0  0
 29100  1  0  0  0
 29101  1  0  0  0
 33 34  1  0  0  0
 33 66  1  0  0  0
 33 70  2  0  0  0
 34 36  1  0  0  0
 34 59  1  0  0  0
 34102  1  0  0  0
 35 44  2  0  0  0
 35 45  1  0  0  0
 35 68  1  0  0  0
 36 56  1  0  0  0
 36103  1  0  0  0
 37 39  1  0  0  0
 37 47  1  0  0  0
 37 66  1  0  0  0
 37104  1  0  0  0
 38 43  2  0  0  0
 38 46  1  0  0  0
 38 47  1  0  0  0
 39 64  1  0  0  0
 39 67  2  0  0  0
 40 52  1  0  0  0
 40 53  2  0  0  0
 40 58  1  0  0  0
 41105  1  0  0  0
 41106  1  0  0  0
 41107  1  0  0  0
 41 48  1  0  0  0
 42 43  1  0  0  0
 42 66  1  0  0  0
 42108  1  0  0  0
 42109  1  0  0  0
 43 44  1  0  0  0
 44110  1  0  0  0
 45 46  2  0  0  0
 45111  1  0  0  0
 46112  1  0  0  0
 47113  1  0  0  0
 47114  1  0  0  0
 48 56  1  0  0  0
 48 65  1  0  0  0
 48115  1  0  0  0
 49 50  1  0  0  0
 49 53  1  0  0  0
 49 64  1  0  0  0
 49116  1  0  0  0
 50 51  1  0  0  0
 50117  1  0  0  0
 50118  1  0  0  0
 51 52  1  0  0  0
 51119  1  0  0  0
 51120  1  0  0  0
 52121  1  0  0  0
 52122  1  0  0  0
 53 54  1  0  0  0
 54 55  2  0  0  0
 54123  1  0  0  0
 55 57  1  0  0  0
 55124  1  0  0  0
 56 69  2  0  0  0
 57 58  2  0  0  0
 57125  1  0  0  0
 58126  1  0  0  0
 59 60  1  0  0  0
 59 61  1  0  0  0
 59 62  1  0  0  0
 60127  1  0  0  0
 60128  1  0  0  0
 60129  1  0  0  0
 61130  1  0  0  0
 61131  1  0  0  0
 61132  1  0  0  0
 62133  1  0  0  0
 62134  1  0  0  0
 62135  1  0  0  0
 63 65  1  0  0  0
 63136  1  0  0  0
 63137  1  0  0  0
 63138  1  0  0  0
 64139  1  0  0  0
 65140  1  0  0  0
 68 78  1  0  0  0
 71 73  2  0  0  0
 71 80  1  0  0  0
 71141  1  0  0  0
 72 74  1  0  0  0
 72 79  2  0  0  0
 72142  1  0  0  0
 73 76  1  0  0  0
 73 79  1  0  0  0
 74 77  1  0  0  0
 74 80  2  0  0  0
 75143  1  0  0  0
 75144  1  0  0  0
 75145  1  0  0  0
 75 78  1  0  0  0
 76 78  1  0  0  0
 76146  1  0  0  0
 76147  1  0  0  0
 77 81  1  0  0  0
 77148  1  0  0  0
 77149  1  0  0  0
 78150  1  0  0  0
 81151  1  0  0  0
M  ISO  4   1 100  68 101  78 101  81 100
M  END
> <chiral flag>
0

> <version>
0

> <s_m_source_file>
/data/baiqing/PycharmProjects/Reinvent-master-3.2/result/LINK_invent/BTK/process_docking_weight1_custom_sum_contain_oxygen_bond_distance_aromatic_linkinvent_7_9_3/rearranged_h_0102.sdf

> <i_m_source_file_index>
78

> <r_mmod_Potential_Energy-OPLS-2005>
444.265319824219

> <r_mmod_Stretch_Energy-OPLS-2005>
218.176284790039

> <r_mmod_Bend_Energy-OPLS-2005>
292.614959716797

> <r_mmod_Torsional_Energy-OPLS-2005>
205.177581787109

> <r_mmod_Improper_Torsional_Energy-OPLS-2005>
9.58122825622559

> <r_mmod_Van_der_Waal_Energy-OPLS-2005>
130.063247680664

> <r_mmod_Electrostatic_Energy-OPLS-2005>
-346.198852539062

> <r_mmod_Solvation_Energy-OPLS-2005>
-228.204849243164

> <b_mmod_Minimization_Converged-OPLS-2005>
0

> <r_mmod_RMS_Derivative-OPLS-2005>
7.1421594619751

$$$$
79
                    3D
 Structure written by MMmdl.
170178  0  0  1  0            999 V2000
  -30.6618  -14.6523   20.4975 C   0  0  0  0  0  0
  -30.4313  -12.4013   19.4712 C   0  0  0  0  0  0
  -29.5201  -12.5222   18.2333 C   0  0  0  0  0  0
  -28.0403  -12.3640   18.6325 C   0  0  0  0  0  0
  -27.6579  -13.2259   19.8675 C   0  0  2  0  0  0
  -28.7027  -13.1052   21.0032 C   0  0  0  0  0  0
  -25.2642  -13.8181   20.5651 C   0  0  0  0  0  0
  -24.1906  -13.0409   20.9152 C   0  0  0  0  0  0
  -24.6502  -11.6894   20.8729 C   0  0  0  0  0  0
  -23.9178  -10.4263   21.0412 C   0  0  0  0  0  0
  -24.3714   -9.4176   21.9193 C   0  0  0  0  0  0
  -23.6336   -8.2239   22.0791 C   0  0  0  0  0  0
  -22.4324   -8.0276   21.3551 C   0  0  0  0  0  0
  -21.9989   -9.0269   20.4678 C   0  0  0  0  0  0
  -22.7349  -10.2130   20.3081 C   0  0  0  0  0  0
  -21.6877   -6.0763   22.5255 C   0  0  0  0  0  0
  -21.4019   -6.5663   23.8181 C   0  0  0  0  0  0
  -21.3665   -5.6815   24.9135 C   0  0  0  0  0  0
  -21.6055   -4.3076   24.7189 C   0  0  0  0  0  0
  -21.8824   -3.8180   23.4316 C   0  0  0  0  0  0
  -21.9220   -4.6992   22.3380 C   0  0  0  0  0  0
  -22.7949  -13.5218   21.1749 C   0  0  0  0  0  0
  -22.1670   -4.2179   21.0936 F   0  0  0  0  0  0
  -21.5646   -3.4538   25.7703 F   0  0  0  0  0  0
  -30.0154  -13.4418   20.4359 N   0  0  0  0  0  0
  -26.3063  -12.9364   20.3353 N   0  0  0  0  0  0
  -25.9443  -11.6495   20.5787 N   0  0  0  0  0  0
  -22.0626  -12.8203   22.0310 N   0  0  0  0  0  0
  -25.4351  -15.1885   20.3983 N   0  0  0  0  0  0
  -31.8321  -14.7506   20.1201 O   0  0  0  0  0  0
  -21.6655   -6.8908   21.4228 O   0  0  0  0  0  0
  -22.3607  -14.5470   20.6556 O   0  0  0  0  0  0
  -24.6201  -31.8623   23.2109 C   0  0  0  0  0  0
  -25.9064  -32.4795   23.8415 C   0  0  1  0  0  0
  -27.2083  -27.3603   20.0791 C   0  0  0  0  0  0
  -25.5874  -33.8598   24.2294 N   0  0  0  0  0  0
  -23.4103  -30.4942   21.5518 C   0  0  2  0  0  0
  -24.8510  -28.9541   20.1077 C   0  0  0  0  0  0
  -22.7421  -29.4657   22.4948 C   0  0  0  0  0  0
  -18.0256  -28.1399   22.8507 C   0  0  0  0  0  0
  -24.1487  -36.7334   23.2643 C   0  0  0  0  0  0
  -25.9504  -30.7978   21.3796 C   0  0  0  0  0  0
  -26.0175  -29.4291   20.7191 C   0  0  0  0  0  0
  -27.1942  -28.6339   20.7146 C   0  0  0  0  0  0
  -26.0238  -26.9270   19.4453 C   0  0  0  0  0  0
  -24.8505  -27.7024   19.4731 C   0  0  0  0  0  0
  -23.6227  -29.8368   20.1630 C   0  0  0  0  0  0
  -25.4112  -36.3105   24.0333 C   0  0  1  0  0  0
  -20.5858  -28.3684   23.1312 C   0  0  2  0  0  0
  -20.6770  -26.9429   22.5420 C   0  0  0  0  0  0
  -19.5753  -26.6406   21.5219 C   0  0  0  0  0  0
  -18.1916  -26.7952   22.1635 C   0  0  0  0  0  0
  -19.1515  -28.8863   23.2917 C   0  0  0  0  0  0
  -18.9441  -30.1460   23.8945 C   0  0  0  0  0  0
  -17.6454  -30.6611   24.0576 C   0  0  0  0  0  0
  -25.9042  -34.9462   23.5119 C   0  0  0  0  0  0
  -16.5341  -29.9109   23.6329 C   0  0  0  0  0  0
  -16.7265  -28.6524   23.0358 C   0  0  0  0  0  0
  -26.4449  -31.6597   25.0780 C   0  0  0  0  0  0
  -25.3666  -31.3703   26.1491 C   0  0  0  0  0  0
  -27.0280  -30.3029   24.6205 C   0  0  0  0  0  0
  -27.6034  -32.4310   25.7507 C   0  0  0  0  0  0
  -27.5587  -37.1817   24.8458 C   0  0  0  0  0  0
  -21.4140  -29.3057   22.3705 N   0  0  0  0  0  0
  -26.4300  -37.3790   23.9397 N   0  0  0  0  0  0
  -24.6795  -31.0663   22.1041 N   0  0  0  0  0  0
  -23.4196  -28.8162   23.2976 O   0  0  0  0  0  0
  -28.3396  -26.5488   20.1310 O   0  0  0  0  0  0
  -26.5644  -34.8920   22.4707 O   0  0  0  0  0  0
  -23.5389  -32.1421   23.7470 O   0  0  0  0  0  0
  -29.0288  -21.9075   20.4065 C   0  0  0  0  0  0
  -27.4994  -23.2911   21.6803 C   0  0  0  0  0  0
  -28.2071  -23.0782   20.4932 C   0  0  0  0  0  0
  -29.1693  -21.0129   21.5234 C   0  0  0  0  0  0
  -28.3372  -21.3356   22.6457 C   0  0  0  0  0  0
  -28.2026  -20.5071   23.9133 C   0  0  0  0  0  0
  -31.1893  -17.5350   19.4089 C   0  0  0  0  0  0
  -32.0418  -21.6675   21.5067 C   0  0  0  0  0  0
  -32.7528  -19.3903   21.7223 C   0  0  0  0  0  0
  -27.9087  -24.0166   19.3033 C   0  0  0  0  0  0
  -29.9101  -18.2881   21.6076 C   0  0  0  0  0  0
  -28.5425  -25.4619   19.1780 C   0  0  0  0  0  0
  -30.2788  -19.8704   21.6042 C   0  0  1  0  0  0
  -30.0400  -17.2432   20.3987 C   0  0  2  0  0  0
  -27.5496  -22.4335   22.7101 N   0  0  0  0  0  0
  -29.8966  -15.7645   20.7703 N   0  0  0  0  0  0
  -31.6758  -20.2620   21.1745 N   0  3  0  0  0  0
  -31.4746  -12.5031   19.1715 H   0  0  0  0  0  0
  -30.3451  -11.4144   19.9238 H   0  0  0  0  0  0
  -29.7912  -11.7745   17.4893 H   0  0  0  0  0  0
  -29.6742  -13.4953   17.7623 H   0  0  0  0  0  0
  -27.8765  -11.3092   18.8550 H   0  0  0  0  0  0
  -27.3980  -12.6084   17.7848 H   0  0  0  0  0  0
  -27.6722  -14.2607   19.5205 H   0  0  0  0  0  0
  -28.7284  -12.0918   21.4141 H   0  0  0  0  0  0
  -28.4534  -13.7678   21.8343 H   0  0  0  0  0  0
  -25.2908   -9.5611   22.4721 H   0  0  0  0  0  0
  -24.0051   -7.4646   22.7534 H   0  0  0  0  0  0
  -21.0939   -8.8849   19.8957 H   0  0  0  0  0  0
  -22.3890  -10.9692   19.6168 H   0  0  0  0  0  0
  -21.1985   -7.6150   23.9679 H   0  0  0  0  0  0
  -21.1489   -6.0525   25.9034 H   0  0  0  0  0  0
  -22.0616   -2.7629   23.2785 H   0  0  0  0  0  0
  -22.4314  -11.9923   22.4758 H   0  0  0  0  0  0
  -21.1218  -13.1182   22.2419 H   0  0  0  0  0  0
  -24.6618  -15.8424   20.4785 H   0  0  0  0  0  0
  -26.2659  -15.6167   20.0088 H   0  0  0  0  0  0
  -26.7118  -32.5449   23.1157 H   0  0  0  0  0  0
  -24.9926  -33.9750   25.0365 H   0  0  0  0  0  0
  -22.7046  -31.3173   21.4177 H   0  0  0  0  0  0
  -23.3740  -35.9675   23.3291 H   0  0  0  0  0  0
  -24.3608  -36.8971   22.2070 H   0  0  0  0  0  0
  -23.7244  -37.6530   23.6678 H   0  0  0  0  0  0
  -26.0812  -31.5636   20.6133 H   0  0  0  0  0  0
  -26.8312  -30.8455   22.0085 H   0  0  0  0  0  0
  -28.0924  -28.9891   21.2009 H   0  0  0  0  0  0
  -25.9689  -25.9804   18.9376 H   0  0  0  0  0  0
  -23.9521  -27.3328   18.9991 H   0  0  0  0  0  0
  -23.7531  -30.6221   19.4179 H   0  0  0  0  0  0
  -22.7356  -29.2831   19.8482 H   0  0  0  0  0  0
  -25.1284  -36.1983   25.0835 H   0  0  0  0  0  0
  -20.9977  -28.3280   24.1429 H   0  0  0  0  0  0
  -20.5648  -26.2323   23.3608 H   0  0  0  0  0  0
  -21.6626  -26.7475   22.1219 H   0  0  0  0  0  0
  -19.6900  -25.6294   21.1263 H   0  0  0  0  0  0
  -19.6680  -27.3202   20.6724 H   0  0  0  0  0  0
  -17.4177  -26.6705   21.4035 H   0  0  0  0  0  0
  -18.0354  -26.0077   22.9029 H   0  0  0  0  0  0
  -19.7905  -30.7263   24.2373 H   0  0  0  0  0  0
  -17.4987  -31.6286   24.5156 H   0  0  0  0  0  0
  -15.5330  -30.3024   23.7613 H   0  0  0  0  0  0
  -15.8672  -28.0844   22.7064 H   0  0  0  0  0  0
  -24.5865  -30.7038   25.7780 H   0  0  0  0  0  0
  -24.8828  -32.2846   26.4932 H   0  0  0  0  0  0
  -25.7987  -30.8858   27.0253 H   0  0  0  0  0  0
  -26.2855  -29.6809   24.1202 H   0  0  0  0  0  0
  -27.3929  -29.7274   25.4708 H   0  0  0  0  0  0
  -27.8736  -30.4320   23.9459 H   0  0  0  0  0  0
  -27.2681  -33.3597   26.2134 H   0  0  0  0  0  0
  -28.3803  -32.6879   25.0292 H   0  0  0  0  0  0
  -28.0744  -31.8403   26.5368 H   0  0  0  0  0  0
  -28.2579  -38.0133   24.7518 H   0  0  0  0  0  0
  -28.1099  -36.2662   24.6244 H   0  0  0  0  0  0
  -27.2329  -37.1447   25.8867 H   0  0  0  0  0  0
  -20.9300  -29.8834   21.6959 H   0  0  0  0  0  0
  -26.0189  -38.2866   24.1384 H   0  0  0  0  0  0
  -29.5852  -21.7269   19.4957 H   0  0  0  0  0  0
  -26.8179  -24.1247   21.7909 H   0  0  0  0  0  0
  -29.1230  -20.0393   24.2446 H   0  0  0  0  0  0
  -27.4407  -19.7418   23.7702 H   0  0  0  0  0  0
  -27.8641  -21.1383   24.7384 H   0  0  0  0  0  0
  -31.2100  -18.5876   19.1296 H   0  0  0  0  0  0
  -31.0760  -16.9725   18.4844 H   0  0  0  0  0  0
  -32.1654  -17.2667   19.8027 H   0  0  0  0  0  0
  -33.0788  -21.8771   21.2404 H   0  0  0  0  0  0
  -31.9423  -21.8465   22.5780 H   0  0  0  0  0  0
  -31.4535  -22.4169   20.9813 H   0  0  0  0  0  0
  -33.7232  -19.6775   21.3132 H   0  0  0  0  0  0
  -32.6316  -18.3356   21.5051 H   0  0  0  0  0  0
  -32.8166  -19.4763   22.8092 H   0  0  0  0  0  0
  -26.8235  -24.0711   19.2312 H   0  0  0  0  0  0
  -28.2022  -23.4685   18.4090 H   0  0  0  0  0  0
  -28.8938  -18.2077   21.9959 H   0  0  0  0  0  0
  -30.5168  -17.8574   22.4058 H   0  0  0  0  0  0
  -28.2674  -25.8478   18.1962 H   0  0  0  0  0  0
  -29.6182  -25.3167   19.1115 H   0  0  0  0  0  0
  -30.4795  -19.9864   22.6659 H   0  0  0  0  0  0
  -29.1470  -17.4362   19.7990 H   0  0  0  0  0  0
  -28.9788  -15.5207   21.1208 H   0  0  0  0  0  0
  -31.7273  -20.1771   20.1691 H   0  0  0  0  0  0
  1 25  1  0  0  0
  1 30  2  0  0  0
  1 86  1  0  0  0
  2  3  1  0  0  0
  2 25  1  0  0  0
  2 88  1  0  0  0
  2 89  1  0  0  0
  3  4  1  0  0  0
  3 90  1  0  0  0
  3 91  1  0  0  0
  4  5  1  0  0  0
  4 92  1  0  0  0
  4 93  1  0  0  0
  5  6  1  0  0  0
  5 26  1  0  0  0
  5 94  1  0  0  0
  6 25  1  0  0  0
  6 95  1  0  0  0
  6 96  1  0  0  0
  7  8  2  0  0  0
  7 26  1  0  0  0
  7 29  1  0  0  0
  8  9  1  0  0  0
  8 22  1  0  0  0
  9 10  1  0  0  0
  9 27  2  0  0  0
 10 11  2  0  0  0
 10 15  1  0  0  0
 11 12  1  0  0  0
 11 97  1  0  0  0
 12 13  2  0  0  0
 12 98  1  0  0  0
 13 14  1  0  0  0
 13 31  1  0  0  0
 14 15  2  0  0  0
 14 99  1  0  0  0
 15100  1  0  0  0
 16 17  2  0  0  0
 16 21  1  0  0  0
 16 31  1  0  0  0
 17 18  1  0  0  0
 17101  1  0  0  0
 18 19  2  0  0  0
 18102  1  0  0  0
 19 20  1  0  0  0
 19 24  1  0  0  0
 20 21  2  0  0  0
 20103  1  0  0  0
 21 23  1  0  0  0
 22 28  1  0  0  0
 22 32  2  0  0  0
 26 27  1  0  0  0
 28104  1  0  0  0
 28105  1  0  0  0
 29106  1  0  0  0
 29107  1  0  0  0
 33 34  1  0  0  0
 33 66  1  0  0  0
 33 70  2  0  0  0
 34 36  1  0  0  0
 34 59  1  0  0  0
 34108  1  0  0  0
 35 44  2  0  0  0
 35 45  1  0  0  0
 35 68  1  0  0  0
 36 56  1  0  0  0
 36109  1  0  0  0
 37 39  1  0  0  0
 37 47  1  0  0  0
 37 66  1  0  0  0
 37110  1  0  0  0
 38 43  2  0  0  0
 38 46  1  0  0  0
 38 47  1  0  0  0
 39 64  1  0  0  0
 39 67  2  0  0  0
 40 52  1  0  0  0
 40 53  2  0  0  0
 40 58  1  0  0  0
 41111  1  0  0  0
 41112  1  0  0  0
 41113  1  0  0  0
 41 48  1  0  0  0
 42 43  1  0  0  0
 42 66  1  0  0  0
 42114  1  0  0  0
 42115  1  0  0  0
 43 44  1  0  0  0
 44116  1  0  0  0
 45 46  2  0  0  0
 45117  1  0  0  0
 46118  1  0  0  0
 47119  1  0  0  0
 47120  1  0  0  0
 48 56  1  0  0  0
 48 65  1  0  0  0
 48121  1  0  0  0
 49 50  1  0  0  0
 49 53  1  0  0  0
 49 64  1  0  0  0
 49122  1  0  0  0
 50 51  1  0  0  0
 50123  1  0  0  0
 50124  1  0  0  0
 51 52  1  0  0  0
 51125  1  0  0  0
 51126  1  0  0  0
 52127  1  0  0  0
 52128  1  0  0  0
 53 54  1  0  0  0
 54 55  2  0  0  0
 54129  1  0  0  0
 55 57  1  0  0  0
 55130  1  0  0  0
 56 69  2  0  0  0
 57 58  2  0  0  0
 57131  1  0  0  0
 58132  1  0  0  0
 59 60  1  0  0  0
 59 61  1  0  0  0
 59 62  1  0  0  0
 60133  1  0  0  0
 60134  1  0  0  0
 60135  1  0  0  0
 61136  1  0  0  0
 61137  1  0  0  0
 61138  1  0  0  0
 62139  1  0  0  0
 62140  1  0  0  0
 62141  1  0  0  0
 63 65  1  0  0  0
 63142  1  0  0  0
 63143  1  0  0  0
 63144  1  0  0  0
 64145  1  0  0  0
 65146  1  0  0  0
 68 82  1  0  0  0
 71 73  2  0  0  0
 71 74  1  0  0  0
 71147  1  0  0  0
 72 73  1  0  0  0
 72 85  2  0  0  0
 72148  1  0  0  0
 73 80  1  0  0  0
 74 75  2  0  0  0
 74 83  1  0  0  0
 75 76  1  0  0  0
 75 85  1  0  0  0
 76149  1  0  0  0
 76150  1  0  0  0
 76151  1  0  0  0
 77152  1  0  0  0
 77153  1  0  0  0
 77154  1  0  0  0
 77 84  1  0  0  0
 78155  1  0  0  0
 78156  1  0  0  0
 78157  1  0  0  0
 78 87  1  0  0  0
 79 87  1  0  0  0
 79158  1  0  0  0
 79159  1  0  0  0
 79160  1  0  0  0
 80 82  1  0  0  0
 80161  1  0  0  0
 80162  1  0  0  0
 81 84  1  0  0  0
 81163  1  0  0  0
 81164  1  0  0  0
 81 83  1  0  0  0
 82165  1  0  0  0
 82166  1  0  0  0
 83 87  1  0  0  0
 83167  1  0  0  0
 84 86  1  0  0  0
 84168  1  0  0  0
 86169  1  0  0  0
 87170  1  0  0  0
M  CHG  1  87   1
M  ISO  4   1 100  68 101  82 101  86 100
M  END
> <chiral flag>
0

> <version>
0

> <s_m_source_file>
/data/baiqing/PycharmProjects/Reinvent-master-3.2/result/LINK_invent/BTK/process_docking_weight1_custom_sum_contain_oxygen_bond_distance_aromatic_linkinvent_7_9_3/rearranged_h_0102.sdf

> <i_m_source_file_index>
79

> <r_mmod_Potential_Energy-OPLS-2005>
-56.4570960998535

> <r_mmod_Stretch_Energy-OPLS-2005>
93.8818435668945

> <r_mmod_Bend_Energy-OPLS-2005>
232.391387939453

> <r_mmod_Torsional_Energy-OPLS-2005>
221.962219238281

> <r_mmod_Improper_Torsional_Energy-OPLS-2005>
7.35969686508179

> <r_mmod_Van_der_Waal_Energy-OPLS-2005>
160.812088012695

> <r_mmod_Electrostatic_Energy-OPLS-2005>
-363.209991455078

> <r_mmod_Solvation_Energy-OPLS-2005>
-453.277038574219

> <b_mmod_Minimization_Converged-OPLS-2005>
0

> <r_mmod_RMS_Derivative-OPLS-2005>
6.11525821685791

$$$$
80
                    3D
 Structure written by MMmdl.
169178  0  0  1  0            999 V2000
  -30.7136  -14.4452   20.5881 C   0  0  0  0  0  0
  -30.4157  -12.3015   19.4024 C   0  0  0  0  0  0
  -29.4828  -12.5051   18.1921 C   0  0  0  0  0  0
  -28.0048  -12.3722   18.6110 C   0  0  0  0  0  0
  -27.6584  -13.2087   19.8729 C   0  0  2  0  0  0
  -28.7023  -12.9756   20.9857 C   0  0  0  0  0  0
  -25.2552  -13.8156   20.5658 C   0  0  0  0  0  0
  -24.1800  -13.0423   20.9109 C   0  0  0  0  0  0
  -24.6376  -11.6900   20.8711 C   0  0  0  0  0  0
  -23.9050  -10.4287   21.0383 C   0  0  0  0  0  0
  -24.3610   -9.4211   21.9170 C   0  0  0  0  0  0
  -23.6286   -8.2250   22.0751 C   0  0  0  0  0  0
  -22.4270   -8.0278   21.3544 C   0  0  0  0  0  0
  -21.9898   -9.0246   20.4641 C   0  0  0  0  0  0
  -22.7223  -10.2122   20.3037 C   0  0  0  0  0  0
  -21.6856   -6.0731   22.5279 C   0  0  0  0  0  0
  -21.4012   -6.5636   23.8211 C   0  0  0  0  0  0
  -21.3659   -5.6789   24.9173 C   0  0  0  0  0  0
  -21.6045   -4.3053   24.7226 C   0  0  0  0  0  0
  -21.8821   -3.8143   23.4349 C   0  0  0  0  0  0
  -21.9193   -4.6957   22.3405 C   0  0  0  0  0  0
  -22.7834  -13.5230   21.1815 C   0  0  0  0  0  0
  -22.1660   -4.2143   21.0981 F   0  0  0  0  0  0
  -21.5632   -3.4537   25.7738 F   0  0  0  0  0  0
  -30.0293  -13.2812   20.4266 N   0  0  0  0  0  0
  -26.3012  -12.9343   20.3395 N   0  0  0  0  0  0
  -25.9311  -11.6493   20.5770 N   0  0  0  0  0  0
  -22.0497  -12.8207   22.0380 N   0  0  0  0  0  0
  -25.4231  -15.1877   20.4142 N   0  0  0  0  0  0
  -31.8399  -14.6341   20.1202 O   0  0  0  0  0  0
  -21.6642   -6.8871   21.4244 O   0  0  0  0  0  0
  -22.3511  -14.5555   20.6713 O   0  0  0  0  0  0
  -24.6139  -31.8645   23.2072 C   0  0  0  0  0  0
  -25.9022  -32.4804   23.8376 C   0  0  1  0  0  0
  -27.2355  -27.4198   20.0877 C   0  0  0  0  0  0
  -25.5895  -33.8603   24.2297 N   0  0  0  0  0  0
  -23.4016  -30.4887   21.5468 C   0  0  2  0  0  0
  -24.8465  -28.9499   20.1102 C   0  0  0  0  0  0
  -22.7390  -29.4637   22.4970 C   0  0  0  0  0  0
  -18.0278  -28.1353   22.8493 C   0  0  0  0  0  0
  -24.1504  -36.7301   23.2645 C   0  0  0  0  0  0
  -25.9301  -30.8263   21.3603 C   0  0  0  0  0  0
  -26.0057  -29.4584   20.7078 C   0  0  0  0  0  0
  -27.1987  -28.6989   20.6954 C   0  0  0  0  0  0
  -26.0555  -26.9270   19.4870 C   0  0  0  0  0  0
  -24.8675  -27.6835   19.5001 C   0  0  0  0  0  0
  -23.6070  -29.8164   20.1624 C   0  0  0  0  0  0
  -25.4119  -36.3091   24.0340 C   0  0  1  0  0  0
  -20.5869  -28.3635   23.1314 C   0  0  2  0  0  0
  -20.6762  -26.9376   22.5397 C   0  0  0  0  0  0
  -19.5754  -26.6358   21.5196 C   0  0  0  0  0  0
  -18.1935  -26.7904   22.1602 C   0  0  0  0  0  0
  -19.1530  -28.8808   23.2909 C   0  0  0  0  0  0
  -18.9458  -30.1423   23.8915 C   0  0  0  0  0  0
  -17.6462  -30.6564   24.0562 C   0  0  0  0  0  0
  -25.9039  -34.9458   23.5107 C   0  0  0  0  0  0
  -16.5349  -29.9060   23.6323 C   0  0  0  0  0  0
  -16.7269  -28.6468   23.0350 C   0  0  0  0  0  0
  -26.4451  -31.6594   25.0711 C   0  0  0  0  0  0
  -25.3699  -31.3691   26.1451 C   0  0  0  0  0  0
  -27.0293  -30.3051   24.6076 C   0  0  0  0  0  0
  -27.6051  -32.4301   25.7453 C   0  0  0  0  0  0
  -27.5587  -37.1806   24.8465 C   0  0  0  0  0  0
  -21.4121  -29.3012   22.3718 N   0  0  0  0  0  0
  -26.4300  -37.3775   23.9412 N   0  0  0  0  0  0
  -24.6667  -31.0753   22.0969 N   0  0  0  0  0  0
  -23.4171  -28.8174   23.3006 O   0  0  0  0  0  0
  -28.4231  -26.7130   20.1185 O   0  0  0  0  0  0
  -26.5581  -34.8917   22.4662 O   0  0  0  0  0  0
  -23.5324  -32.1394   23.7458 O   0  0  0  0  0  0
  -30.6257  -19.0729   20.6969 C   0  0  0  0  0  0
  -30.0473  -20.3107   20.3574 C   0  0  0  0  0  0
  -27.8264  -19.3797   20.7485 C   0  0  0  0  0  0
  -29.8383  -17.9876   21.1312 C   0  0  0  0  0  0
  -28.4275  -18.1474   21.1587 C   0  0  0  0  0  0
  -28.6462  -20.5019   20.4196 C   0  0  0  0  0  0
  -24.7587  -21.0871   19.5441 C   0  0  0  0  0  0
  -24.3473  -20.8898   21.0033 C   0  0  0  0  0  0
  -25.7791  -19.9771   19.2621 C   0  0  0  0  0  0
  -25.6259  -20.4047   21.6885 C   0  0  0  0  0  0
  -26.2933  -19.5011   20.6394 C   0  0  0  0  0  0
  -30.5755  -16.7280   21.6287 C   0  0  0  0  0  0
  -28.0305  -24.2025   20.1771 C   0  0  0  0  0  0
  -28.5759  -25.4546   19.4357 C   0  0  0  0  0  0
  -28.7886  -22.8948   19.8204 C   0  0  0  0  0  0
  -27.6368  -17.0996   21.6418 N   0  0  0  0  0  0
  -30.0440  -15.4228   21.2154 N   0  0  0  0  0  0
  -28.0335  -21.7339   20.2037 O   0  0  0  0  0  0
  -31.4600  -12.3985   19.0998 H   0  0  0  0  0  0
  -30.3140  -11.2894   19.7967 H   0  0  0  0  0  0
  -29.7141  -11.7794   17.4112 H   0  0  0  0  0  0
  -29.6545  -13.4899   17.7539 H   0  0  0  0  0  0
  -27.8105  -11.3166   18.8017 H   0  0  0  0  0  0
  -27.3525  -12.6535   17.7838 H   0  0  0  0  0  0
  -27.7025  -14.2601   19.5841 H   0  0  0  0  0  0
  -28.6772  -11.9352   21.3135 H   0  0  0  0  0  0
  -28.4670  -13.5634   21.8736 H   0  0  0  0  0  0
  -25.2757   -9.5695   22.4737 H   0  0  0  0  0  0
  -23.9999   -7.4644   22.7474 H   0  0  0  0  0  0
  -21.0829   -8.8757   19.8946 H   0  0  0  0  0  0
  -22.3683  -10.9655   19.6140 H   0  0  0  0  0  0
  -21.2001   -7.6145   23.9713 H   0  0  0  0  0  0
  -21.1477   -6.0519   25.9074 H   0  0  0  0  0  0
  -22.0602   -2.7608   23.2853 H   0  0  0  0  0  0
  -22.4114  -11.9852   22.4727 H   0  0  0  0  0  0
  -21.1125  -13.1223   22.2620 H   0  0  0  0  0  0
  -24.6591  -15.8351   20.5660 H   0  0  0  0  0  0
  -26.3267  -15.6505   20.3541 H   0  0  0  0  0  0
  -26.7083  -32.5518   23.1129 H   0  0  0  0  0  0
  -25.0100  -33.9780   25.0476 H   0  0  0  0  0  0
  -22.6917  -31.3065   21.4051 H   0  0  0  0  0  0
  -23.3768  -35.9634   23.3300 H   0  0  0  0  0  0
  -24.3615  -36.8894   22.2057 H   0  0  0  0  0  0
  -23.7242  -37.6507   23.6649 H   0  0  0  0  0  0
  -26.0449  -31.5929   20.5922 H   0  0  0  0  0  0
  -26.8172  -30.8774   21.9803 H   0  0  0  0  0  0
  -28.0947  -29.0890   21.1583 H   0  0  0  0  0  0
  -26.0319  -25.9590   19.0107 H   0  0  0  0  0  0
  -23.9762  -27.2841   19.0365 H   0  0  0  0  0  0
  -23.7054  -30.5879   19.3984 H   0  0  0  0  0  0
  -22.7325  -29.2307   19.8726 H   0  0  0  0  0  0
  -25.1295  -36.1945   25.0832 H   0  0  0  0  0  0
  -20.9994  -28.3181   24.1422 H   0  0  0  0  0  0
  -20.5650  -26.2237   23.3571 H   0  0  0  0  0  0
  -21.6639  -26.7393   22.1219 H   0  0  0  0  0  0
  -19.6931  -25.6269   21.1229 H   0  0  0  0  0  0
  -19.6725  -27.3164   20.6731 H   0  0  0  0  0  0
  -17.4210  -26.6664   21.3999 H   0  0  0  0  0  0
  -18.0344  -26.0021   22.8972 H   0  0  0  0  0  0
  -19.7937  -30.7233   24.2296 H   0  0  0  0  0  0
  -17.5016  -31.6272   24.5116 H   0  0  0  0  0  0
  -15.5356  -30.2971   23.7640 H   0  0  0  0  0  0
  -15.8662  -28.0795   22.7061 H   0  0  0  0  0  0
  -24.5939  -30.6959   25.7787 H   0  0  0  0  0  0
  -24.8823  -32.2835   26.4851 H   0  0  0  0  0  0
  -25.8051  -30.8917   27.0238 H   0  0  0  0  0  0
  -26.2837  -29.6818   24.1130 H   0  0  0  0  0  0
  -27.4076  -29.7286   25.4524 H   0  0  0  0  0  0
  -27.8661  -30.4407   23.9215 H   0  0  0  0  0  0
  -27.2725  -33.3631   26.2019 H   0  0  0  0  0  0
  -28.3867  -32.6783   25.0256 H   0  0  0  0  0  0
  -28.0713  -31.8409   26.5360 H   0  0  0  0  0  0
  -28.2582  -38.0125   24.7518 H   0  0  0  0  0  0
  -28.1083  -36.2644   24.6260 H   0  0  0  0  0  0
  -27.2303  -37.1406   25.8866 H   0  0  0  0  0  0
  -20.9250  -29.8730   21.6960 H   0  0  0  0  0  0
  -26.0177  -38.2845   24.1428 H   0  0  0  0  0  0
  -31.7015  -18.9775   20.6615 H   0  0  0  0  0  0
  -30.7198  -21.1023   20.0653 H   0  0  0  0  0  0
  -25.2464  -22.0556   19.4297 H   0  0  0  0  0  0
  -23.9094  -21.0614   18.8588 H   0  0  0  0  0  0
  -23.5777  -20.1176   21.0655 H   0  0  0  0  0  0
  -23.9460  -21.7975   21.4554 H   0  0  0  0  0  0
  -26.5715  -20.3416   18.6079 H   0  0  0  0  0  0
  -25.3084  -19.1455   18.7363 H   0  0  0  0  0  0
  -25.4341  -19.8833   22.6274 H   0  0  0  0  0  0
  -26.2523  -21.2662   21.9183 H   0  0  0  0  0  0
  -25.8374  -18.5203   20.7646 H   0  0  0  0  0  0
  -30.5493  -16.7495   22.7183 H   0  0  0  0  0  0
  -31.6308  -16.8057   21.3628 H   0  0  0  0  0  0
  -26.9707  -24.0849   19.9571 H   0  0  0  0  0  0
  -28.1009  -24.3531   21.2547 H   0  0  0  0  0  0
  -28.1833  -25.5041   18.4199 H   0  0  0  0  0  0
  -29.6530  -25.3290   19.3185 H   0  0  0  0  0  0
  -29.7558  -22.9444   20.3166 H   0  0  0  0  0  0
  -28.9706  -22.8416   18.7466 H   0  0  0  0  0  0
  -26.6700  -17.3390   21.8273 H   0  0  0  0  0  0
  -28.0222  -16.6060   22.4378 H   0  0  0  0  0  0
  -29.0764  -15.2459   21.4382 H   0  0  0  0  0  0
  1 25  1  0  0  0
  1 30  2  0  0  0
  1 87  1  0  0  0
  2  3  1  0  0  0
  2 25  1  0  0  0
  2 89  1  0  0  0
  2 90  1  0  0  0
  3  4  1  0  0  0
  3 91  1  0  0  0
  3 92  1  0  0  0
  4  5  1  0  0  0
  4 93  1  0  0  0
  4 94  1  0  0  0
  5  6  1  0  0  0
  5 26  1  0  0  0
  5 95  1  0  0  0
  6 25  1  0  0  0
  6 96  1  0  0  0
  6 97  1  0  0  0
  7  8  2  0  0  0
  7 26  1  0  0  0
  7 29  1  0  0  0
  8  9  1  0  0  0
  8 22  1  0  0  0
  9 10  1  0  0  0
  9 27  2  0  0  0
 10 11  2  0  0  0
 10 15  1  0  0  0
 11 12  1  0  0  0
 11 98  1  0  0  0
 12 13  2  0  0  0
 12 99  1  0  0  0
 13 14  1  0  0  0
 13 31  1  0  0  0
 14 15  2  0  0  0
 14100  1  0  0  0
 15101  1  0  0  0
 16 17  2  0  0  0
 16 21  1  0  0  0
 16 31  1  0  0  0
 17 18  1  0  0  0
 17102  1  0  0  0
 18 19  2  0  0  0
 18103  1  0  0  0
 19 20  1  0  0  0
 19 24  1  0  0  0
 20 21  2  0  0  0
 20104  1  0  0  0
 21 23  1  0  0  0
 22 28  1  0  0  0
 22 32  2  0  0  0
 26 27  1  0  0  0
 28105  1  0  0  0
 28106  1  0  0  0
 29107  1  0  0  0
 29108  1  0  0  0
 33 34  1  0  0  0
 33 66  1  0  0  0
 33 70  2  0  0  0
 34 36  1  0  0  0
 34 59  1  0  0  0
 34109  1  0  0  0
 35 44  2  0  0  0
 35 45  1  0  0  0
 35 68  1  0  0  0
 36 56  1  0  0  0
 36110  1  0  0  0
 37 39  1  0  0  0
 37 47  1  0  0  0
 37 66  1  0  0  0
 37111  1  0  0  0
 38 43  2  0  0  0
 38 46  1  0  0  0
 38 47  1  0  0  0
 39 64  1  0  0  0
 39 67  2  0  0  0
 40 52  1  0  0  0
 40 53  2  0  0  0
 40 58  1  0  0  0
 41112  1  0  0  0
 41113  1  0  0  0
 41114  1  0  0  0
 41 48  1  0  0  0
 42 43  1  0  0  0
 42 66  1  0  0  0
 42115  1  0  0  0
 42116  1  0  0  0
 43 44  1  0  0  0
 44117  1  0  0  0
 45 46  2  0  0  0
 45118  1  0  0  0
 46119  1  0  0  0
 47120  1  0  0  0
 47121  1  0  0  0
 48 56  1  0  0  0
 48 65  1  0  0  0
 48122  1  0  0  0
 49 50  1  0  0  0
 49 53  1  0  0  0
 49 64  1  0  0  0
 49123  1  0  0  0
 50 51  1  0  0  0
 50124  1  0  0  0
 50125  1  0  0  0
 51 52  1  0  0  0
 51126  1  0  0  0
 51127  1  0  0  0
 52128  1  0  0  0
 52129  1  0  0  0
 53 54  1  0  0  0
 54 55  2  0  0  0
 54130  1  0  0  0
 55 57  1  0  0  0
 55131  1  0  0  0
 56 69  2  0  0  0
 57 58  2  0  0  0
 57132  1  0  0  0
 58133  1  0  0  0
 59 60  1  0  0  0
 59 61  1  0  0  0
 59 62  1  0  0  0
 60134  1  0  0  0
 60135  1  0  0  0
 60136  1  0  0  0
 61137  1  0  0  0
 61138  1  0  0  0
 61139  1  0  0  0
 62140  1  0  0  0
 62141  1  0  0  0
 62142  1  0  0  0
 63 65  1  0  0  0
 63143  1  0  0  0
 63144  1  0  0  0
 63145  1  0  0  0
 64146  1  0  0  0
 65147  1  0  0  0
 68 84  1  0  0  0
 71 72  2  0  0  0
 71 74  1  0  0  0
 71148  1  0  0  0
 72 76  1  0  0  0
 72149  1  0  0  0
 73 75  1  0  0  0
 73 76  2  0  0  0
 73 81  1  0  0  0
 74 75  2  0  0  0
 74 82  1  0  0  0
 75 86  1  0  0  0
 76 88  1  0  0  0
 77 78  1  0  0  0
 77 79  1  0  0  0
 77150  1  0  0  0
 77151  1  0  0  0
 78 80  1  0  0  0
 78152  1  0  0  0
 78153  1  0  0  0
 79 81  1  0  0  0
 79154  1  0  0  0
 79155  1  0  0  0
 80 81  1  0  0  0
 80156  1  0  0  0
 80157  1  0  0  0
 81158  1  0  0  0
 82 87  1  0  0  0
 82159  1  0  0  0
 82160  1  0  0  0
 83 84  1  0  0  0
 83 85  1  0  0  0
 83161  1  0  0  0
 83162  1  0  0  0
 84163  1  0  0  0
 84164  1  0  0  0
 85 88  1  0  0  0
 85165  1  0  0  0
 85166  1  0  0  0
 86167  1  0  0  0
 86168  1  0  0  0
 87169  1  0  0  0
M  ISO  4   1 100  68 101  84 101  87 100
M  END
> <chiral flag>
0

> <version>
0

> <s_m_source_file>
/data/baiqing/PycharmProjects/Reinvent-master-3.2/result/LINK_invent/BTK/process_docking_weight1_custom_sum_contain_oxygen_bond_distance_aromatic_linkinvent_7_9_3/rearranged_h_0102.sdf

> <i_m_source_file_index>
80

> <r_mmod_Potential_Energy-OPLS-2005>
24.0043754577637

> <r_mmod_Stretch_Energy-OPLS-2005>
43.7319793701172

> <r_mmod_Bend_Energy-OPLS-2005>
145.165710449219

> <r_mmod_Torsional_Energy-OPLS-2005>
259.658355712891

> <r_mmod_Improper_Torsional_Energy-OPLS-2005>
7.93713331222534

> <r_mmod_Van_der_Waal_Energy-OPLS-2005>
157.422210693359

> <r_mmod_Electrostatic_Energy-OPLS-2005>
-398.148986816406

> <r_mmod_Solvation_Energy-OPLS-2005>
-204.386260986328

> <b_mmod_Minimization_Converged-OPLS-2005>
0

> <r_mmod_RMS_Derivative-OPLS-2005>
2.2175567150116

$$$$
81
                    3D
 Structure written by MMmdl.
152160  0  0  1  0            999 V2000
  -30.5585  -14.9742   20.3858 C   0  0  0  0  0  0
  -30.4510  -12.6035   19.5038 C   0  0  0  0  0  0
  -29.5347  -12.5334   18.2623 C   0  0  0  0  0  0
  -28.0670  -12.3230   18.6761 C   0  0  0  0  0  0
  -27.6357  -13.2547   19.8381 C   0  0  2  0  0  0
  -28.6820  -13.2992   20.9730 C   0  0  0  0  0  0
  -25.2504  -13.8235   20.5718 C   0  0  0  0  0  0
  -24.1810  -13.0464   20.9212 C   0  0  0  0  0  0
  -24.6423  -11.6961   20.8762 C   0  0  0  0  0  0
  -23.9104  -10.4328   21.0408 C   0  0  0  0  0  0
  -24.3665   -9.4243   21.9165 C   0  0  0  0  0  0
  -23.6330   -8.2273   22.0740 C   0  0  0  0  0  0
  -22.4292   -8.0315   21.3544 C   0  0  0  0  0  0
  -21.9942   -9.0280   20.4632 C   0  0  0  0  0  0
  -22.7281  -10.2162   20.3046 C   0  0  0  0  0  0
  -21.6851   -6.0751   22.5268 C   0  0  0  0  0  0
  -21.4001   -6.5637   23.8216 C   0  0  0  0  0  0
  -21.3676   -5.6782   24.9168 C   0  0  0  0  0  0
  -21.6071   -4.3045   24.7189 C   0  0  0  0  0  0
  -21.8826   -3.8145   23.4296 C   0  0  0  0  0  0
  -21.9211   -4.6977   22.3376 C   0  0  0  0  0  0
  -22.7822  -13.5255   21.1853 C   0  0  0  0  0  0
  -22.1670   -4.2181   21.0939 F   0  0  0  0  0  0
  -21.5664   -3.4520   25.7687 F   0  0  0  0  0  0
  -29.9546  -13.7154   20.3637 N   0  0  0  0  0  0
  -26.2935  -12.9470   20.3244 N   0  0  0  0  0  0
  -25.9362  -11.6607   20.5736 N   0  0  0  0  0  0
  -22.0444  -12.8255   22.0402 N   0  0  0  0  0  0
  -25.4201  -15.1959   20.4154 N   0  0  0  0  0  0
  -31.7662  -15.0162   20.1360 O   0  0  0  0  0  0
  -21.6658   -6.8899   21.4232 O   0  0  0  0  0  0
  -22.3528  -14.5555   20.6699 O   0  0  0  0  0  0
  -24.6481  -31.8417   23.1879 C   0  0  0  0  0  0
  -25.9217  -32.4703   23.8293 C   0  0  1  0  0  0
  -27.2186  -27.1065   20.1382 C   0  0  0  0  0  0
  -25.5952  -33.8520   24.2202 N   0  0  0  0  0  0
  -23.4531  -30.4568   21.5378 C   0  0  2  0  0  0
  -24.9005  -28.8797   20.1148 C   0  0  0  0  0  0
  -22.7604  -29.4509   22.4900 C   0  0  0  0  0  0
  -18.0308  -28.1390   22.8473 C   0  0  0  0  0  0
  -24.1481  -36.7254   23.2642 C   0  0  0  0  0  0
  -26.0132  -30.6987   21.3945 C   0  0  0  0  0  0
  -26.0816  -29.3079   20.7350 C   0  0  0  0  0  0
  -27.2416  -28.4388   20.7272 C   0  0  0  0  0  0
  -26.0093  -26.7927   19.4773 C   0  0  0  0  0  0
  -24.8798  -27.6366   19.4698 C   0  0  0  0  0  0
  -23.6787  -29.7843   20.1585 C   0  0  0  0  0  0
  -25.4123  -36.3061   24.0321 C   0  0  1  0  0  0
  -20.5921  -28.3703   23.1247 C   0  0  2  0  0  0
  -20.6781  -26.9412   22.5395 C   0  0  0  0  0  0
  -19.5764  -26.6369   21.5202 C   0  0  0  0  0  0
  -18.1949  -26.7928   22.1619 C   0  0  0  0  0  0
  -19.1569  -28.8874   23.2842 C   0  0  0  0  0  0
  -18.9477  -30.1462   23.8872 C   0  0  0  0  0  0
  -17.6474  -30.6584   24.0548 C   0  0  0  0  0  0
  -25.9071  -34.9423   23.5081 C   0  0  0  0  0  0
  -16.5364  -29.9068   23.6335 C   0  0  0  0  0  0
  -16.7295  -28.6482   23.0377 C   0  0  0  0  0  0
  -26.4507  -31.6599   25.0756 C   0  0  0  0  0  0
  -25.3667  -31.3780   26.1441 C   0  0  0  0  0  0
  -27.0365  -30.3000   24.6336 C   0  0  0  0  0  0
  -27.6056  -32.4367   25.7519 C   0  0  0  0  0  0
  -27.5587  -37.1791   24.8479 C   0  0  0  0  0  0
  -21.4297  -29.3033   22.3641 N   0  0  0  0  0  0
  -26.4301  -37.3762   23.9414 N   0  0  0  0  0  0
  -24.7247  -31.0229   22.0937 N   0  0  0  0  0  0
  -23.4227  -28.8063   23.3072 O   0  0  0  0  0  0
  -28.2654  -26.1027   20.1582 O   0  0  0  0  0  0
  -26.5666  -34.8914   22.4662 O   0  0  0  0  0  0
  -23.5587  -32.1319   23.7056 O   0  0  0  0  0  0
  -30.6721  -21.0663   19.5623 C   0  0  0  0  0  0
  -28.5649  -21.8263   20.3844 C   0  0  0  0  0  0
  -29.4433  -20.6570   20.1255 C   0  0  0  0  0  0
  -30.9578  -22.4351   19.2996 C   0  0  0  0  0  0
  -28.8999  -23.2491   20.1027 C   0  0  0  0  0  0
  -32.2854  -22.8237   18.6657 C   0  0  0  0  0  0
  -29.1165  -19.0426   20.3707 C   0  0  0  0  0  0
  -27.9182  -24.5757   20.3070 C   0  0  0  0  0  0
  -30.1793  -17.7175   20.2602 C   0  0  0  0  0  0
  -30.1176  -23.4775   19.5546 N   0  0  0  0  0  0
  -29.8000  -16.1797   20.4631 N   0  0  0  0  0  0
  -31.4850  -12.7588   19.1941 H   0  0  0  0  0  0
  -30.4481  -11.6597   20.0516 H   0  0  0  0  0  0
  -29.8605  -11.7354   17.5968 H   0  0  0  0  0  0
  -29.6259  -13.4610   17.6949 H   0  0  0  0  0  0
  -27.9619  -11.2811   18.9800 H   0  0  0  0  0  0
  -27.4139  -12.4606   17.8127 H   0  0  0  0  0  0
  -27.5967  -14.2566   19.4099 H   0  0  0  0  0  0
  -28.7763  -12.3295   21.4643 H   0  0  0  0  0  0
  -28.3827  -14.0085   21.7467 H   0  0  0  0  0  0
  -25.2818   -9.5715   22.4740 H   0  0  0  0  0  0
  -24.0055   -7.4659   22.7456 H   0  0  0  0  0  0
  -21.0876   -8.8799   19.8930 H   0  0  0  0  0  0
  -22.3740  -10.9698   19.6162 H   0  0  0  0  0  0
  -21.1944   -7.6133   23.9711 H   0  0  0  0  0  0
  -21.1515   -6.0496   25.9083 H   0  0  0  0  0  0
  -22.0593   -2.7599   23.2768 H   0  0  0  0  0  0
  -22.4053  -11.9957   22.4859 H   0  0  0  0  0  0
  -21.1034  -13.1287   22.2542 H   0  0  0  0  0  0
  -24.6514  -15.8484   20.5298 H   0  0  0  0  0  0
  -26.2598  -15.6321   20.0593 H   0  0  0  0  0  0
  -26.7277  -32.5273   23.1017 H   0  0  0  0  0  0
  -25.0091  -33.9643   25.0351 H   0  0  0  0  0  0
  -22.7563  -31.2829   21.3824 H   0  0  0  0  0  0
  -23.3769  -35.9560   23.3313 H   0  0  0  0  0  0
  -24.3553  -36.8879   22.2053 H   0  0  0  0  0  0
  -23.7198  -37.6439   23.6664 H   0  0  0  0  0  0
  -26.1785  -31.4454   20.6170 H   0  0  0  0  0  0
  -26.8824  -30.7482   22.0388 H   0  0  0  0  0  0
  -28.1419  -28.7655   21.2262 H   0  0  0  0  0  0
  -25.8959  -25.8613   18.9465 H   0  0  0  0  0  0
  -23.9850  -27.3093   18.9584 H   0  0  0  0  0  0
  -23.8205  -30.5592   19.4043 H   0  0  0  0  0  0
  -22.7916  -29.2284   19.8469 H   0  0  0  0  0  0
  -25.1305  -36.1904   25.0811 H   0  0  0  0  0  0
  -20.9991  -28.3261   24.1381 H   0  0  0  0  0  0
  -20.5676  -26.2318   23.3599 H   0  0  0  0  0  0
  -21.6644  -26.7414   22.1201 H   0  0  0  0  0  0
  -19.6928  -25.6271   21.1261 H   0  0  0  0  0  0
  -19.6709  -27.3151   20.6707 H   0  0  0  0  0  0
  -17.4211  -26.6670   21.4024 H   0  0  0  0  0  0
  -18.0359  -26.0072   22.9023 H   0  0  0  0  0  0
  -19.7952  -30.7280   24.2251 H   0  0  0  0  0  0
  -17.5025  -31.6271   24.5134 H   0  0  0  0  0  0
  -15.5368  -30.2969   23.7665 H   0  0  0  0  0  0
  -15.8690  -28.0770   22.7153 H   0  0  0  0  0  0
  -24.5856  -30.7131   25.7736 H   0  0  0  0  0  0
  -24.8833  -32.2950   26.4824 H   0  0  0  0  0  0
  -25.7925  -30.8967   27.0258 H   0  0  0  0  0  0
  -26.2971  -29.6756   24.1305 H   0  0  0  0  0  0
  -27.3946  -29.7277   25.4908 H   0  0  0  0  0  0
  -27.8908  -30.4276   23.9680 H   0  0  0  0  0  0
  -27.2682  -33.3715   26.2020 H   0  0  0  0  0  0
  -28.3883  -32.6866   25.0337 H   0  0  0  0  0  0
  -28.0707  -31.8543   26.5491 H   0  0  0  0  0  0
  -28.2615  -38.0081   24.7527 H   0  0  0  0  0  0
  -28.1079  -36.2616   24.6312 H   0  0  0  0  0  0
  -27.2306  -37.1440   25.8883 H   0  0  0  0  0  0
  -20.9535  -29.8746   21.6797 H   0  0  0  0  0  0
  -26.0188  -38.2842   24.1403 H   0  0  0  0  0  0
  -31.4131  -20.3183   19.3111 H   0  0  0  0  0  0
  -27.5884  -21.6235   20.8034 H   0  0  0  0  0  0
  -32.9644  -23.2464   19.4067 H   0  0  0  0  0  0
  -32.1508  -23.5585   17.8694 H   0  0  0  0  0  0
  -32.7742  -21.9548   18.2253 H   0  0  0  0  0  0
  -28.2949  -18.8226   19.6856 H   0  0  0  0  0  0
  -28.6630  -18.9929   21.3590 H   0  0  0  0  0  0
  -27.5165  -24.4826   21.3167 H   0  0  0  0  0  0
  -27.0794  -24.3404   19.6584 H   0  0  0  0  0  0
  -31.0038  -17.9149   20.9488 H   0  0  0  0  0  0
  -30.6379  -17.7746   19.2722 H   0  0  0  0  0  0
  -28.8190  -16.0148   20.6327 H   0  0  0  0  0  0
  1 25  1  0  0  0
  1 30  2  0  0  0
  1 81  1  0  0  0
  2  3  1  0  0  0
  2 25  1  0  0  0
  2 82  1  0  0  0
  2 83  1  0  0  0
  3  4  1  0  0  0
  3 84  1  0  0  0
  3 85  1  0  0  0
  4  5  1  0  0  0
  4 86  1  0  0  0
  4 87  1  0  0  0
  5  6  1  0  0  0
  5 26  1  0  0  0
  5 88  1  0  0  0
  6 25  1  0  0  0
  6 89  1  0  0  0
  6 90  1  0  0  0
  7  8  2  0  0  0
  7 26  1  0  0  0
  7 29  1  0  0  0
  8  9  1  0  0  0
  8 22  1  0  0  0
  9 10  1  0  0  0
  9 27  2  0  0  0
 10 11  2  0  0  0
 10 15  1  0  0  0
 11 12  1  0  0  0
 11 91  1  0  0  0
 12 13  2  0  0  0
 12 92  1  0  0  0
 13 14  1  0  0  0
 13 31  1  0  0  0
 14 15  2  0  0  0
 14 93  1  0  0  0
 15 94  1  0  0  0
 16 17  2  0  0  0
 16 21  1  0  0  0
 16 31  1  0  0  0
 17 18  1  0  0  0
 17 95  1  0  0  0
 18 19  2  0  0  0
 18 96  1  0  0  0
 19 20  1  0  0  0
 19 24  1  0  0  0
 20 21  2  0  0  0
 20 97  1  0  0  0
 21 23  1  0  0  0
 22 28  1  0  0  0
 22 32  2  0  0  0
 26 27  1  0  0  0
 28 98  1  0  0  0
 28 99  1  0  0  0
 29100  1  0  0  0
 29101  1  0  0  0
 33 34  1  0  0  0
 33 66  1  0  0  0
 33 70  2  0  0  0
 34 36  1  0  0  0
 34 59  1  0  0  0
 34102  1  0  0  0
 35 44  2  0  0  0
 35 45  1  0  0  0
 35 68  1  0  0  0
 36 56  1  0  0  0
 36103  1  0  0  0
 37 39  1  0  0  0
 37 47  1  0  0  0
 37 66  1  0  0  0
 37104  1  0  0  0
 38 43  2  0  0  0
 38 46  1  0  0  0
 38 47  1  0  0  0
 39 64  1  0  0  0
 39 67  2  0  0  0
 40 52  1  0  0  0
 40 53  2  0  0  0
 40 58  1  0  0  0
 41105  1  0  0  0
 41106  1  0  0  0
 41107  1  0  0  0
 41 48  1  0  0  0
 42 43  1  0  0  0
 42 66  1  0  0  0
 42108  1  0  0  0
 42109  1  0  0  0
 43 44  1  0  0  0
 44110  1  0  0  0
 45 46  2  0  0  0
 45111  1  0  0  0
 46112  1  0  0  0
 47113  1  0  0  0
 47114  1  0  0  0
 48 56  1  0  0  0
 48 65  1  0  0  0
 48115  1  0  0  0
 49 50  1  0  0  0
 49 53  1  0  0  0
 49 64  1  0  0  0
 49116  1  0  0  0
 50 51  1  0  0  0
 50117  1  0  0  0
 50118  1  0  0  0
 51 52  1  0  0  0
 51119  1  0  0  0
 51120  1  0  0  0
 52121  1  0  0  0
 52122  1  0  0  0
 53 54  1  0  0  0
 54 55  2  0  0  0
 54123  1  0  0  0
 55 57  1  0  0  0
 55124  1  0  0  0
 56 69  2  0  0  0
 57 58  2  0  0  0
 57125  1  0  0  0
 58126  1  0  0  0
 59 60  1  0  0  0
 59 61  1  0  0  0
 59 62  1  0  0  0
 60127  1  0  0  0
 60128  1  0  0  0
 60129  1  0  0  0
 61130  1  0  0  0
 61131  1  0  0  0
 61132  1  0  0  0
 62133  1  0  0  0
 62134  1  0  0  0
 62135  1  0  0  0
 63 65  1  0  0  0
 63136  1  0  0  0
 63137  1  0  0  0
 63138  1  0  0  0
 64139  1  0  0  0
 65140  1  0  0  0
 68 78  1  0  0  0
 71 73  2  0  0  0
 71 74  1  0  0  0
 71141  1  0  0  0
 72 73  1  0  0  0
 72 75  2  0  0  0
 72142  1  0  0  0
 73 77  1  0  0  0
 74 76  1  0  0  0
 74 80  2  0  0  0
 75 78  1  0  0  0
 75 80  1  0  0  0
 76143  1  0  0  0
 76144  1  0  0  0
 76145  1  0  0  0
 77 79  1  0  0  0
 77146  1  0  0  0
 77147  1  0  0  0
 78148  1  0  0  0
 78149  1  0  0  0
 79 81  1  0  0  0
 79150  1  0  0  0
 79151  1  0  0  0
 81152  1  0  0  0
M  ISO  4   1 100  68 101  78 101  81 100
M  END
> <chiral flag>
0

> <version>
0

> <s_m_source_file>
/data/baiqing/PycharmProjects/Reinvent-master-3.2/result/LINK_invent/BTK/process_docking_weight1_custom_sum_contain_oxygen_bond_distance_aromatic_linkinvent_7_9_3/rearranged_h_0102.sdf

> <i_m_source_file_index>
81

> <r_mmod_Potential_Energy-OPLS-2005>
381.577941894531

> <r_mmod_Stretch_Energy-OPLS-2005>
279.7998046875

> <r_mmod_Bend_Energy-OPLS-2005>
252.08186340332

> <r_mmod_Torsional_Energy-OPLS-2005>
208.052017211914

> <r_mmod_Improper_Torsional_Energy-OPLS-2005>
4.84266519546509

> <r_mmod_Van_der_Waal_Energy-OPLS-2005>
132.324798583984

> <r_mmod_Electrostatic_Energy-OPLS-2005>
-469.997253417969

> <r_mmod_Solvation_Energy-OPLS-2005>
-239.070419311523

> <b_mmod_Minimization_Converged-OPLS-2005>
0

> <r_mmod_RMS_Derivative-OPLS-2005>
3.63735198974609

$$$$
82
                    3D
 Structure written by MMmdl.
170178  0  0  1  0            999 V2000
  -30.7577  -14.4613   20.5352 C   0  0  0  0  0  0
  -30.4097  -12.2976   19.4249 C   0  0  0  0  0  0
  -29.4842  -12.4707   18.2064 C   0  0  0  0  0  0
  -28.0103  -12.3384   18.6303 C   0  0  0  0  0  0
  -27.6553  -13.2161   19.8586 C   0  0  2  0  0  0
  -28.7026  -13.0597   20.9842 C   0  0  0  0  0  0
  -25.2564  -13.8197   20.5640 C   0  0  0  0  0  0
  -24.1800  -13.0471   20.9167 C   0  0  0  0  0  0
  -24.6386  -11.6946   20.8752 C   0  0  0  0  0  0
  -23.9066  -10.4321   21.0409 C   0  0  0  0  0  0
  -24.3617   -9.4230   21.9189 C   0  0  0  0  0  0
  -23.6315   -8.2249   22.0738 C   0  0  0  0  0  0
  -22.4312   -8.0285   21.3519 C   0  0  0  0  0  0
  -21.9917   -9.0266   20.4641 C   0  0  0  0  0  0
  -22.7226  -10.2166   20.3067 C   0  0  0  0  0  0
  -21.6869   -6.0748   22.5283 C   0  0  0  0  0  0
  -21.4021   -6.5639   23.8217 C   0  0  0  0  0  0
  -21.3650   -5.6790   24.9172 C   0  0  0  0  0  0
  -21.6046   -4.3056   24.7228 C   0  0  0  0  0  0
  -21.8819   -3.8148   23.4347 C   0  0  0  0  0  0
  -21.9196   -4.6970   22.3401 C   0  0  0  0  0  0
  -22.7815  -13.5249   21.1858 C   0  0  0  0  0  0
  -22.1674   -4.2148   21.0987 F   0  0  0  0  0  0
  -21.5619   -3.4530   25.7737 F   0  0  0  0  0  0
  -30.0316  -13.3205   20.4100 N   0  0  0  0  0  0
  -26.2996  -12.9378   20.3330 N   0  0  0  0  0  0
  -25.9323  -11.6551   20.5837 N   0  0  0  0  0  0
  -22.0458  -12.8238   22.0445 N   0  0  0  0  0  0
  -25.4316  -15.1890   20.3976 N   0  0  0  0  0  0
  -31.9178  -14.5528   20.1331 O   0  0  0  0  0  0
  -21.6673   -6.8890   21.4234 O   0  0  0  0  0  0
  -22.3493  -14.5571   20.6758 O   0  0  0  0  0  0
  -24.6124  -31.8692   23.2118 C   0  0  0  0  0  0
  -25.9023  -32.4834   23.8406 C   0  0  1  0  0  0
  -27.2445  -27.4563   20.1022 C   0  0  0  0  0  0
  -25.5896  -33.8632   24.2339 N   0  0  0  0  0  0
  -23.4002  -30.4913   21.5499 C   0  0  2  0  0  0
  -24.8502  -28.9556   20.1217 C   0  0  0  0  0  0
  -22.7387  -29.4673   22.4998 C   0  0  0  0  0  0
  -18.0261  -28.1383   22.8490 C   0  0  0  0  0  0
  -24.1482  -36.7310   23.2634 C   0  0  0  0  0  0
  -25.9243  -30.8430   21.3603 C   0  0  0  0  0  0
  -26.0068  -29.4743   20.7179 C   0  0  0  0  0  0
  -27.2060  -28.7304   20.7092 C   0  0  0  0  0  0
  -26.0764  -26.9503   19.4964 C   0  0  0  0  0  0
  -24.8777  -27.6892   19.5112 C   0  0  0  0  0  0
  -23.6111  -29.8216   20.1661 C   0  0  0  0  0  0
  -25.4100  -36.3111   24.0338 C   0  0  1  0  0  0
  -20.5849  -28.3667   23.1309 C   0  0  2  0  0  0
  -20.6760  -26.9403   22.5425 C   0  0  0  0  0  0
  -19.5758  -26.6392   21.5213 C   0  0  0  0  0  0
  -18.1930  -26.7937   22.1620 C   0  0  0  0  0  0
  -19.1512  -28.8840   23.2902 C   0  0  0  0  0  0
  -18.9447  -30.1438   23.8929 C   0  0  0  0  0  0
  -17.6456  -30.6591   24.0561 C   0  0  0  0  0  0
  -25.9019  -34.9475   23.5128 C   0  0  0  0  0  0
  -16.5334  -29.9102   23.6322 C   0  0  0  0  0  0
  -16.7253  -28.6513   23.0346 C   0  0  0  0  0  0
  -26.4483  -31.6605   25.0713 C   0  0  0  0  0  0
  -25.3762  -31.3709   26.1461 C   0  0  0  0  0  0
  -27.0295  -30.3044   24.6063 C   0  0  0  0  0  0
  -27.6066  -32.4314   25.7475 C   0  0  0  0  0  0
  -27.5577  -37.1810   24.8462 C   0  0  0  0  0  0
  -21.4121  -29.3032   22.3709 N   0  0  0  0  0  0
  -26.4282  -37.3791   23.9418 N   0  0  0  0  0  0
  -24.6629  -31.0809   22.0999 N   0  0  0  0  0  0
  -23.4157  -28.8204   23.3029 O   0  0  0  0  0  0
  -28.4301  -26.7636   20.0269 O   0  0  0  0  0  0
  -26.5566  -34.8925   22.4680 O   0  0  0  0  0  0
  -23.5317  -32.1427   23.7522 O   0  0  0  0  0  0
  -29.4454  -20.1650   19.6072 C   0  0  0  0  0  0
  -30.1985  -18.9760   19.7410 C   0  0  0  0  0  0
  -29.9215  -18.1261   20.8591 C   0  0  0  0  0  0
  -28.4623  -20.4980   20.5516 C   0  0  0  0  0  0
  -28.8996  -18.5510   21.7493 C   0  0  0  0  0  0
  -28.4842  -17.7324   22.9578 C   0  0  0  0  0  0
  -32.6999  -19.0218   19.0889 C   0  0  0  0  0  0
  -31.1009  -17.3770   17.9288 C   0  0  0  0  0  0
  -26.2352  -21.6662   21.0117 C   0  0  0  0  0  0
  -30.7441  -16.8654   21.2089 C   0  0  0  0  0  0
  -27.8590  -24.3824   20.4099 C   0  0  0  0  0  0
  -28.4026  -23.0455   20.9731 C   0  0  0  0  0  0
  -28.5940  -25.6453   20.9037 C   0  0  0  0  0  0
  -31.2559  -18.7183   18.6558 C   0  0  0  0  0  0
  -27.6571  -21.8013   20.4232 C   0  0  1  0  0  0
  -28.2215  -19.7119   21.6175 N   0  0  0  0  0  0
  -30.1095  -15.5511   20.9813 N   0  0  0  0  0  0
  -31.4522  -12.3749   19.1106 H   0  0  0  0  0  0
  -30.3108  -11.3020   19.8609 H   0  0  0  0  0  0
  -29.7192  -11.7207   17.4488 H   0  0  0  0  0  0
  -29.6530  -13.4445   17.7432 H   0  0  0  0  0  0
  -27.8358  -11.2884   18.8698 H   0  0  0  0  0  0
  -27.3528  -12.5718   17.7934 H   0  0  0  0  0  0
  -27.6833  -14.2536   19.5186 H   0  0  0  0  0  0
  -28.6745  -12.0534   21.4030 H   0  0  0  0  0  0
  -28.4799  -13.7357   21.8118 H   0  0  0  0  0  0
  -25.2744   -9.5709   22.4789 H   0  0  0  0  0  0
  -24.0045   -7.4631   22.7425 H   0  0  0  0  0  0
  -21.0862   -8.8780   19.8939 H   0  0  0  0  0  0
  -22.3659  -10.9731   19.6203 H   0  0  0  0  0  0
  -21.2018   -7.6148   23.9722 H   0  0  0  0  0  0
  -21.1469   -6.0513   25.9084 H   0  0  0  0  0  0
  -22.0612   -2.7613   23.2850 H   0  0  0  0  0  0
  -22.4122  -11.9955   22.4913 H   0  0  0  0  0  0
  -21.1096  -13.1283   22.2751 H   0  0  0  0  0  0
  -24.6654  -15.8482   20.4773 H   0  0  0  0  0  0
  -26.2802  -15.6147   20.0448 H   0  0  0  0  0  0
  -26.7090  -32.5576   23.1180 H   0  0  0  0  0  0
  -25.0104  -33.9800   25.0517 H   0  0  0  0  0  0
  -22.6867  -31.3067   21.4094 H   0  0  0  0  0  0
  -23.3735  -35.9653   23.3323 H   0  0  0  0  0  0
  -24.3563  -36.8898   22.2042 H   0  0  0  0  0  0
  -23.7267  -37.6536   23.6627 H   0  0  0  0  0  0
  -26.0212  -31.6047   20.5849 H   0  0  0  0  0  0
  -26.8142  -30.9069   21.9735 H   0  0  0  0  0  0
  -28.1015  -29.1345   21.1565 H   0  0  0  0  0  0
  -26.0946  -25.9951   18.9942 H   0  0  0  0  0  0
  -23.9921  -27.2863   19.0402 H   0  0  0  0  0  0
  -23.7241  -30.5946   19.4054 H   0  0  0  0  0  0
  -22.7362  -29.2418   19.8672 H   0  0  0  0  0  0
  -25.1288  -36.1975   25.0833 H   0  0  0  0  0  0
  -20.9938  -28.3262   24.1427 H   0  0  0  0  0  0
  -20.5669  -26.2278   23.3607 H   0  0  0  0  0  0
  -21.6635  -26.7471   22.1215 H   0  0  0  0  0  0
  -19.6915  -25.6313   21.1230 H   0  0  0  0  0  0
  -19.6705  -27.3199   20.6743 H   0  0  0  0  0  0
  -17.4197  -26.6656   21.4018 H   0  0  0  0  0  0
  -18.0338  -26.0077   22.9021 H   0  0  0  0  0  0
  -19.7912  -30.7235   24.2333 H   0  0  0  0  0  0
  -17.5006  -31.6281   24.5149 H   0  0  0  0  0  0
  -15.5338  -30.3018   23.7635 H   0  0  0  0  0  0
  -15.8640  -28.0841   22.7061 H   0  0  0  0  0  0
  -24.5932  -30.7056   25.7823 H   0  0  0  0  0  0
  -24.8945  -32.2856   26.4923 H   0  0  0  0  0  0
  -25.8113  -30.8896   27.0225 H   0  0  0  0  0  0
  -26.2816  -29.6811   24.1133 H   0  0  0  0  0  0
  -27.4088  -29.7287   25.4527 H   0  0  0  0  0  0
  -27.8656  -30.4369   23.9180 H   0  0  0  0  0  0
  -27.2683  -33.3598   26.2099 H   0  0  0  0  0  0
  -28.3847  -32.6903   25.0279 H   0  0  0  0  0  0
  -28.0756  -31.8407   26.5357 H   0  0  0  0  0  0
  -28.2605  -38.0097   24.7497 H   0  0  0  0  0  0
  -28.1070  -36.2632   24.6302 H   0  0  0  0  0  0
  -27.2285  -37.1471   25.8860 H   0  0  0  0  0  0
  -20.9261  -29.8762   21.6942 H   0  0  0  0  0  0
  -26.0177  -38.2870   24.1440 H   0  0  0  0  0  0
  -29.6300  -20.8478   18.7900 H   0  0  0  0  0  0
  -28.4682  -16.6629   22.7474 H   0  0  0  0  0  0
  -27.4804  -18.0019   23.2855 H   0  0  0  0  0  0
  -29.1650  -17.9138   23.7886 H   0  0  0  0  0  0
  -32.7924  -20.0574   19.4192 H   0  0  0  0  0  0
  -33.3857  -18.8908   18.2483 H   0  0  0  0  0  0
  -33.0517  -18.3837   19.8958 H   0  0  0  0  0  0
  -30.1122  -17.2905   17.4789 H   0  0  0  0  0  0
  -31.2438  -16.5247   18.5814 H   0  0  0  0  0  0
  -31.8305  -17.2856   17.1247 H   0  0  0  0  0  0
  -25.6367  -22.5638   20.8708 H   0  0  0  0  0  0
  -26.2750  -21.4775   22.0858 H   0  0  0  0  0  0
  -25.6964  -20.8396   20.5477 H   0  0  0  0  0  0
  -30.9699  -16.9173   22.2765 H   0  0  0  0  0  0
  -31.7235  -16.9151   20.7442 H   0  0  0  0  0  0
  -26.8038  -24.4885   20.6538 H   0  0  0  0  0  0
  -27.9242  -24.3519   19.3211 H   0  0  0  0  0  0
  -28.3871  -23.0434   22.0640 H   0  0  0  0  0  0
  -29.4529  -22.9755   20.6858 H   0  0  0  0  0  0
  -29.6654  -25.4456   20.9465 H   0  0  0  0  0  0
  -28.2908  -25.9056   21.9202 H   0  0  0  0  0  0
  -31.0622  -19.4520   17.8723 H   0  0  0  0  0  0
  -27.5346  -21.9501   19.3495 H   0  0  0  0  0  0
  -29.1412  -15.4308   21.2320 H   0  0  0  0  0  0
  1 25  1  0  0  0
  1 30  2  0  0  0
  1 87  1  0  0  0
  2  3  1  0  0  0
  2 25  1  0  0  0
  2 88  1  0  0  0
  2 89  1  0  0  0
  3  4  1  0  0  0
  3 90  1  0  0  0
  3 91  1  0  0  0
  4  5  1  0  0  0
  4 92  1  0  0  0
  4 93  1  0  0  0
  5  6  1  0  0  0
  5 26  1  0  0  0
  5 94  1  0  0  0
  6 25  1  0  0  0
  6 95  1  0  0  0
  6 96  1  0  0  0
  7  8  2  0  0  0
  7 26  1  0  0  0
  7 29  1  0  0  0
  8  9  1  0  0  0
  8 22  1  0  0  0
  9 10  1  0  0  0
  9 27  2  0  0  0
 10 11  2  0  0  0
 10 15  1  0  0  0
 11 12  1  0  0  0
 11 97  1  0  0  0
 12 13  2  0  0  0
 12 98  1  0  0  0
 13 14  1  0  0  0
 13 31  1  0  0  0
 14 15  2  0  0  0
 14 99  1  0  0  0
 15100  1  0  0  0
 16 17  2  0  0  0
 16 21  1  0  0  0
 16 31  1  0  0  0
 17 18  1  0  0  0
 17101  1  0  0  0
 18 19  2  0  0  0
 18102  1  0  0  0
 19 20  1  0  0  0
 19 24  1  0  0  0
 20 21  2  0  0  0
 20103  1  0  0  0
 21 23  1  0  0  0
 22 28  1  0  0  0
 22 32  2  0  0  0
 26 27  1  0  0  0
 28104  1  0  0  0
 28105  1  0  0  0
 29106  1  0  0  0
 29107  1  0  0  0
 33 34  1  0  0  0
 33 66  1  0  0  0
 33 70  2  0  0  0
 34 36  1  0  0  0
 34 59  1  0  0  0
 34108  1  0  0  0
 35 44  2  0  0  0
 35 45  1  0  0  0
 35 68  1  0  0  0
 36 56  1  0  0  0
 36109  1  0  0  0
 37 39  1  0  0  0
 37 47  1  0  0  0
 37 66  1  0  0  0
 37110  1  0  0  0
 38 43  2  0  0  0
 38 46  1  0  0  0
 38 47  1  0  0  0
 39 64  1  0  0  0
 39 67  2  0  0  0
 40 52  1  0  0  0
 40 53  2  0  0  0
 40 58  1  0  0  0
 41111  1  0  0  0
 41112  1  0  0  0
 41113  1  0  0  0
 41 48  1  0  0  0
 42 43  1  0  0  0
 42 66  1  0  0  0
 42114  1  0  0  0
 42115  1  0  0  0
 43 44  1  0  0  0
 44116  1  0  0  0
 45 46  2  0  0  0
 45117  1  0  0  0
 46118  1  0  0  0
 47119  1  0  0  0
 47120  1  0  0  0
 48 56  1  0  0  0
 48 65  1  0  0  0
 48121  1  0  0  0
 49 50  1  0  0  0
 49 53  1  0  0  0
 49 64  1  0  0  0
 49122  1  0  0  0
 50 51  1  0  0  0
 50123  1  0  0  0
 50124  1  0  0  0
 51 52  1  0  0  0
 51125  1  0  0  0
 51126  1  0  0  0
 52127  1  0  0  0
 52128  1  0  0  0
 53 54  1  0  0  0
 54 55  2  0  0  0
 54129  1  0  0  0
 55 57  1  0  0  0
 55130  1  0  0  0
 56 69  2  0  0  0
 57 58  2  0  0  0
 57131  1  0  0  0
 58132  1  0  0  0
 59 60  1  0  0  0
 59 61  1  0  0  0
 59 62  1  0  0  0
 60133  1  0  0  0
 60134  1  0  0  0
 60135  1  0  0  0
 61136  1  0  0  0
 61137  1  0  0  0
 61138  1  0  0  0
 62139  1  0  0  0
 62140  1  0  0  0
 62141  1  0  0  0
 63 65  1  0  0  0
 63142  1  0  0  0
 63143  1  0  0  0
 63144  1  0  0  0
 64145  1  0  0  0
 65146  1  0  0  0
 68 83  1  0  0  0
 71 72  2  0  0  0
 71 74  1  0  0  0
 71147  1  0  0  0
 72 73  1  0  0  0
 72 84  1  0  0  0
 73 75  2  0  0  0
 73 80  1  0  0  0
 74 85  1  0  0  0
 74 86  2  0  0  0
 75 76  1  0  0  0
 75 86  1  0  0  0
 76148  1  0  0  0
 76149  1  0  0  0
 76150  1  0  0  0
 77151  1  0  0  0
 77152  1  0  0  0
 77153  1  0  0  0
 77 84  1  0  0  0
 78 84  1  0  0  0
 78154  1  0  0  0
 78155  1  0  0  0
 78156  1  0  0  0
 79157  1  0  0  0
 79158  1  0  0  0
 79159  1  0  0  0
 79 85  1  0  0  0
 80 87  1  0  0  0
 80160  1  0  0  0
 80161  1  0  0  0
 81 82  1  0  0  0
 81 83  1  0  0  0
 81162  1  0  0  0
 81163  1  0  0  0
 82 85  1  0  0  0
 82164  1  0  0  0
 82165  1  0  0  0
 83166  1  0  0  0
 83167  1  0  0  0
 84168  1  0  0  0
 85169  1  0  0  0
 87170  1  0  0  0
M  ISO  4   1 100  68 101  83 101  87 100
M  END
> <chiral flag>
0

> <version>
0

> <s_m_source_file>
/data/baiqing/PycharmProjects/Reinvent-master-3.2/result/LINK_invent/BTK/process_docking_weight1_custom_sum_contain_oxygen_bond_distance_aromatic_linkinvent_7_9_3/rearranged_h_0102.sdf

> <i_m_source_file_index>
82

> <r_mmod_Potential_Energy-OPLS-2005>
-217.159042358398

> <r_mmod_Stretch_Energy-OPLS-2005>
38.8950996398926

> <r_mmod_Bend_Energy-OPLS-2005>
111.587265014648

> <r_mmod_Torsional_Energy-OPLS-2005>
227.538833618164

> <r_mmod_Improper_Torsional_Energy-OPLS-2005>
3.86611413955688

> <r_mmod_Van_der_Waal_Energy-OPLS-2005>
153.847930908203

> <r_mmod_Electrostatic_Energy-OPLS-2005>
-568.122924804688

> <r_mmod_Solvation_Energy-OPLS-2005>
-201.507507324219

> <b_mmod_Minimization_Converged-OPLS-2005>
0

> <r_mmod_RMS_Derivative-OPLS-2005>
3.98539519309998

$$$$
83
                    3D
 Structure written by MMmdl.
159167  0  0  1  0            999 V2000
  -30.5710  -14.8233   20.5348 C   0  0  0  0  0  0
  -30.4501  -12.5256   19.4716 C   0  0  0  0  0  0
  -29.5158  -12.5486   18.2396 C   0  0  0  0  0  0
  -28.0443  -12.3487   18.6535 C   0  0  0  0  0  0
  -27.6482  -13.2330   19.8652 C   0  0  2  0  0  0
  -28.6966  -13.1332   20.9945 C   0  0  0  0  0  0
  -25.2505  -13.8165   20.5654 C   0  0  0  0  0  0
  -24.1806  -13.0419   20.9201 C   0  0  0  0  0  0
  -24.6410  -11.6902   20.8755 C   0  0  0  0  0  0
  -23.9081  -10.4283   21.0410 C   0  0  0  0  0  0
  -24.3626   -9.4197   21.9188 C   0  0  0  0  0  0
  -23.6295   -8.2237   22.0756 C   0  0  0  0  0  0
  -22.4277   -8.0279   21.3545 C   0  0  0  0  0  0
  -21.9917   -9.0255   20.4647 C   0  0  0  0  0  0
  -22.7253  -10.2130   20.3057 C   0  0  0  0  0  0
  -21.6852   -6.0735   22.5279 C   0  0  0  0  0  0
  -21.4014   -6.5639   23.8213 C   0  0  0  0  0  0
  -21.3659   -5.6792   24.9175 C   0  0  0  0  0  0
  -21.6044   -4.3055   24.7225 C   0  0  0  0  0  0
  -21.8819   -3.8146   23.4346 C   0  0  0  0  0  0
  -21.9192   -4.6963   22.3402 C   0  0  0  0  0  0
  -22.7827  -13.5206   21.1857 C   0  0  0  0  0  0
  -22.1661   -4.2149   21.0980 F   0  0  0  0  0  0
  -21.5629   -3.4538   25.7738 F   0  0  0  0  0  0
  -29.9853  -13.5658   20.4286 N   0  0  0  0  0  0
  -26.2972  -12.9392   20.3341 N   0  0  0  0  0  0
  -25.9353  -11.6532   20.5789 N   0  0  0  0  0  0
  -22.0474  -12.8202   22.0420 N   0  0  0  0  0  0
  -25.4132  -15.1868   20.3941 N   0  0  0  0  0  0
  -31.6915  -14.9757   20.0349 O   0  0  0  0  0  0
  -21.6637   -6.8879   21.4242 O   0  0  0  0  0  0
  -22.3510  -14.5512   20.6704 O   0  0  0  0  0  0
  -24.6378  -31.8497   23.1943 C   0  0  0  0  0  0
  -25.9177  -32.4725   23.8307 C   0  0  1  0  0  0
  -27.2211  -27.1955   20.1289 C   0  0  0  0  0  0
  -25.5948  -33.8530   24.2224 N   0  0  0  0  0  0
  -23.4380  -30.4721   21.5388 C   0  0  2  0  0  0
  -24.8864  -28.9128   20.1080 C   0  0  0  0  0  0
  -22.7538  -29.4575   22.4882 C   0  0  0  0  0  0
  -18.0300  -28.1392   22.8480 C   0  0  0  0  0  0
  -24.1491  -36.7268   23.2641 C   0  0  0  0  0  0
  -25.9906  -30.7396   21.3874 C   0  0  0  0  0  0
  -26.0610  -29.3575   20.7267 C   0  0  0  0  0  0
  -27.2260  -28.5115   20.7285 C   0  0  0  0  0  0
  -26.0204  -26.8477   19.4650 C   0  0  0  0  0  0
  -24.8756  -27.6682   19.4652 C   0  0  0  0  0  0
  -23.6605  -29.8072   20.1554 C   0  0  0  0  0  0
  -25.4121  -36.3050   24.0320 C   0  0  1  0  0  0
  -20.5909  -28.3712   23.1249 C   0  0  2  0  0  0
  -20.6786  -26.9421   22.5404 C   0  0  0  0  0  0
  -19.5759  -26.6382   21.5212 C   0  0  0  0  0  0
  -18.1941  -26.7932   22.1624 C   0  0  0  0  0  0
  -19.1555  -28.8870   23.2858 C   0  0  0  0  0  0
  -18.9474  -30.1468   23.8881 C   0  0  0  0  0  0
  -17.6471  -30.6591   24.0561 C   0  0  0  0  0  0
  -25.9067  -34.9424   23.5076 C   0  0  0  0  0  0
  -16.5362  -29.9085   23.6335 C   0  0  0  0  0  0
  -16.7285  -28.6504   23.0355 C   0  0  0  0  0  0
  -26.4517  -31.6575   25.0727 C   0  0  0  0  0  0
  -25.3715  -31.3750   26.1430 C   0  0  0  0  0  0
  -27.0379  -30.2978   24.6277 C   0  0  0  0  0  0
  -27.6053  -32.4335   25.7508 C   0  0  0  0  0  0
  -27.5576  -37.1793   24.8467 C   0  0  0  0  0  0
  -21.4237  -29.3048   22.3629 N   0  0  0  0  0  0
  -26.4290  -37.3756   23.9406 N   0  0  0  0  0  0
  -24.7081  -31.0402   22.0954 N   0  0  0  0  0  0
  -23.4208  -28.8115   23.3005 O   0  0  0  0  0  0
  -28.2977  -26.2508   20.2199 O   0  0  0  0  0  0
  -26.5645  -34.8910   22.4650 O   0  0  0  0  0  0
  -23.5510  -32.1351   23.7195 O   0  0  0  0  0  0
  -28.2899  -19.7509   21.0915 C   0  0  0  0  0  0
  -30.4695  -18.4675   20.0725 C   0  0  0  0  0  0
  -28.5007  -18.3587   21.3783 C   0  0  0  0  0  0
  -29.6235  -17.6213   20.8593 C   0  0  0  0  0  0
  -29.1718  -20.5136   20.2899 C   0  0  0  0  0  0
  -27.4784  -17.6918   22.2858 C   0  0  0  0  0  0
  -30.6968  -16.1732   22.6773 C   0  0  0  0  0  0
  -28.4929  -24.8465   18.2563 C   0  0  0  0  0  0
  -28.7688  -21.9841   19.7221 C   0  0  0  0  0  0
  -28.9338  -23.4737   20.4217 C   0  0  0  0  0  0
  -29.9180  -16.0834   21.3505 C   0  0  2  0  0  0
  -28.1704  -24.7913   19.7589 C   0  0  1  0  0  0
  -30.2533  -19.8185   19.7988 N   0  0  0  0  0  0
  -31.4826  -12.6864   19.1582 H   0  0  0  0  0  0
  -30.4400  -11.5415   19.9430 H   0  0  0  0  0  0
  -29.8123  -11.7800   17.5248 H   0  0  0  0  0  0
  -29.6217  -13.5040   17.7234 H   0  0  0  0  0  0
  -27.9119  -11.2964   18.9076 H   0  0  0  0  0  0
  -27.3826  -12.5432   17.8086 H   0  0  0  0  0  0
  -27.6503  -14.2633   19.5084 H   0  0  0  0  0  0
  -28.7649  -12.1061   21.3565 H   0  0  0  0  0  0
  -28.4006  -13.7153   21.8652 H   0  0  0  0  0  0
  -25.2770   -9.5669   22.4765 H   0  0  0  0  0  0
  -23.9999   -7.4626   22.7476 H   0  0  0  0  0  0
  -21.0848   -8.8779   19.8952 H   0  0  0  0  0  0
  -22.3716  -10.9671   19.6166 H   0  0  0  0  0  0
  -21.2006   -7.6147   23.9716 H   0  0  0  0  0  0
  -21.1481   -6.0522   25.9078 H   0  0  0  0  0  0
  -22.0599   -2.7609   23.2847 H   0  0  0  0  0  0
  -22.4093  -11.9867   22.4811 H   0  0  0  0  0  0
  -21.1092  -13.1228   22.2627 H   0  0  0  0  0  0
  -24.6358  -15.8323   20.4790 H   0  0  0  0  0  0
  -26.2501  -15.6200   20.0258 H   0  0  0  0  0  0
  -26.7240  -32.5348   23.1037 H   0  0  0  0  0  0
  -25.0089  -33.9657   25.0365 H   0  0  0  0  0  0
  -22.7376  -31.2966   21.3900 H   0  0  0  0  0  0
  -23.3755  -35.9599   23.3302 H   0  0  0  0  0  0
  -24.3575  -36.8896   22.2056 H   0  0  0  0  0  0
  -23.7245  -37.6466   23.6673 H   0  0  0  0  0  0
  -26.1421  -31.4981   20.6180 H   0  0  0  0  0  0
  -26.8631  -30.7859   22.0275 H   0  0  0  0  0  0
  -28.1189  -28.8448   21.2387 H   0  0  0  0  0  0
  -25.9176  -25.9096   18.9438 H   0  0  0  0  0  0
  -23.9803  -27.3251   18.9651 H   0  0  0  0  0  0
  -23.7916  -30.5845   19.4016 H   0  0  0  0  0  0
  -22.7768  -29.2462   19.8458 H   0  0  0  0  0  0
  -25.1307  -36.1887   25.0813 H   0  0  0  0  0  0
  -21.0002  -28.3297   24.1370 H   0  0  0  0  0  0
  -20.5685  -26.2324   23.3617 H   0  0  0  0  0  0
  -21.6652  -26.7436   22.1198 H   0  0  0  0  0  0
  -19.6922  -25.6288   21.1253 H   0  0  0  0  0  0
  -19.6696  -27.3184   20.6736 H   0  0  0  0  0  0
  -17.4209  -26.6678   21.4028 H   0  0  0  0  0  0
  -18.0342  -26.0078   22.9025 H   0  0  0  0  0  0
  -19.7950  -30.7290   24.2240 H   0  0  0  0  0  0
  -17.5025  -31.6269   24.5166 H   0  0  0  0  0  0
  -15.5362  -30.2983   23.7669 H   0  0  0  0  0  0
  -15.8685  -28.0818   22.7079 H   0  0  0  0  0  0
  -24.5902  -30.7087   25.7755 H   0  0  0  0  0  0
  -24.8895  -32.2928   26.4809 H   0  0  0  0  0  0
  -25.8011  -30.8959   27.0237 H   0  0  0  0  0  0
  -26.2989  -29.6708   24.1276 H   0  0  0  0  0  0
  -27.3999  -29.7266   25.4836 H   0  0  0  0  0  0
  -27.8894  -30.4226   23.9583 H   0  0  0  0  0  0
  -27.2647  -33.3648   26.2044 H   0  0  0  0  0  0
  -28.3885  -32.6875   25.0352 H   0  0  0  0  0  0
  -28.0698  -31.8489   26.5458 H   0  0  0  0  0  0
  -28.2594  -38.0089   24.7503 H   0  0  0  0  0  0
  -28.1070  -36.2617   24.6307 H   0  0  0  0  0  0
  -27.2291  -37.1457   25.8870 H   0  0  0  0  0  0
  -20.9436  -29.8768   21.6822 H   0  0  0  0  0  0
  -26.0161  -38.2828   24.1402 H   0  0  0  0  0  0
  -27.4025  -20.2419   21.4690 H   0  0  0  0  0  0
  -31.3797  -18.0583   19.6594 H   0  0  0  0  0  0
  -26.6948  -18.3861   22.5893 H   0  0  0  0  0  0
  -27.9432  -17.3154   23.1959 H   0  0  0  0  0  0
  -26.9915  -16.8631   21.7772 H   0  0  0  0  0  0
  -30.1560  -16.7481   23.4275 H   0  0  0  0  0  0
  -31.6637  -16.6552   22.5298 H   0  0  0  0  0  0
  -30.8841  -15.1880   23.1076 H   0  0  0  0  0  0
  -28.2278  -23.9178   17.7523 H   0  0  0  0  0  0
  -29.5564  -25.0227   18.0941 H   0  0  0  0  0  0
  -27.9507  -25.6452   17.7513 H   0  0  0  0  0  0
  -27.7099  -21.8926   19.4795 H   0  0  0  0  0  0
  -29.2551  -22.0489   18.7490 H   0  0  0  0  0  0
  -29.9996  -23.6895   20.4962 H   0  0  0  0  0  0
  -28.5866  -23.3886   21.4514 H   0  0  0  0  0  0
  -28.9317  -15.7156   21.5999 H   0  0  0  0  0  0
  -27.1243  -24.5149   19.8722 H   0  0  0  0  0  0
  1 25  1  0  0  0
  1 30  2  0  0  0
  1 81  1  0  0  0
  2  3  1  0  0  0
  2 25  1  0  0  0
  2 84  1  0  0  0
  2 85  1  0  0  0
  3  4  1  0  0  0
  3 86  1  0  0  0
  3 87  1  0  0  0
  4  5  1  0  0  0
  4 88  1  0  0  0
  4 89  1  0  0  0
  5  6  1  0  0  0
  5 26  1  0  0  0
  5 90  1  0  0  0
  6 25  1  0  0  0
  6 91  1  0  0  0
  6 92  1  0  0  0
  7  8  2  0  0  0
  7 26  1  0  0  0
  7 29  1  0  0  0
  8  9  1  0  0  0
  8 22  1  0  0  0
  9 10  1  0  0  0
  9 27  2  0  0  0
 10 11  2  0  0  0
 10 15  1  0  0  0
 11 12  1  0  0  0
 11 93  1  0  0  0
 12 13  2  0  0  0
 12 94  1  0  0  0
 13 14  1  0  0  0
 13 31  1  0  0  0
 14 15  2  0  0  0
 14 95  1  0  0  0
 15 96  1  0  0  0
 16 17  2  0  0  0
 16 21  1  0  0  0
 16 31  1  0  0  0
 17 18  1  0  0  0
 17 97  1  0  0  0
 18 19  2  0  0  0
 18 98  1  0  0  0
 19 20  1  0  0  0
 19 24  1  0  0  0
 20 21  2  0  0  0
 20 99  1  0  0  0
 21 23  1  0  0  0
 22 28  1  0  0  0
 22 32  2  0  0  0
 26 27  1  0  0  0
 28100  1  0  0  0
 28101  1  0  0  0
 29102  1  0  0  0
 29103  1  0  0  0
 33 34  1  0  0  0
 33 66  1  0  0  0
 33 70  2  0  0  0
 34 36  1  0  0  0
 34 59  1  0  0  0
 34104  1  0  0  0
 35 44  2  0  0  0
 35 45  1  0  0  0
 35 68  1  0  0  0
 36 56  1  0  0  0
 36105  1  0  0  0
 37 39  1  0  0  0
 37 47  1  0  0  0
 37 66  1  0  0  0
 37106  1  0  0  0
 38 43  2  0  0  0
 38 46  1  0  0  0
 38 47  1  0  0  0
 39 64  1  0  0  0
 39 67  2  0  0  0
 40 52  1  0  0  0
 40 53  2  0  0  0
 40 58  1  0  0  0
 41107  1  0  0  0
 41108  1  0  0  0
 41109  1  0  0  0
 41 48  1  0  0  0
 42 43  1  0  0  0
 42 66  1  0  0  0
 42110  1  0  0  0
 42111  1  0  0  0
 43 44  1  0  0  0
 44112  1  0  0  0
 45 46  2  0  0  0
 45113  1  0  0  0
 46114  1  0  0  0
 47115  1  0  0  0
 47116  1  0  0  0
 48 56  1  0  0  0
 48 65  1  0  0  0
 48117  1  0  0  0
 49 50  1  0  0  0
 49 53  1  0  0  0
 49 64  1  0  0  0
 49118  1  0  0  0
 50 51  1  0  0  0
 50119  1  0  0  0
 50120  1  0  0  0
 51 52  1  0  0  0
 51121  1  0  0  0
 51122  1  0  0  0
 52123  1  0  0  0
 52124  1  0  0  0
 53 54  1  0  0  0
 54 55  2  0  0  0
 54125  1  0  0  0
 55 57  1  0  0  0
 55126  1  0  0  0
 56 69  2  0  0  0
 57 58  2  0  0  0
 57127  1  0  0  0
 58128  1  0  0  0
 59 60  1  0  0  0
 59 61  1  0  0  0
 59 62  1  0  0  0
 60129  1  0  0  0
 60130  1  0  0  0
 60131  1  0  0  0
 61132  1  0  0  0
 61133  1  0  0  0
 61134  1  0  0  0
 62135  1  0  0  0
 62136  1  0  0  0
 62137  1  0  0  0
 63 65  1  0  0  0
 63138  1  0  0  0
 63139  1  0  0  0
 63140  1  0  0  0
 64141  1  0  0  0
 65142  1  0  0  0
 68 82  1  0  0  0
 71 73  2  0  0  0
 71 75  1  0  0  0
 71143  1  0  0  0
 72 74  2  0  0  0
 72 83  1  0  0  0
 72144  1  0  0  0
 73 74  1  0  0  0
 73 76  1  0  0  0
 74 81  1  0  0  0
 75 79  1  0  0  0
 75 83  2  0  0  0
 76145  1  0  0  0
 76146  1  0  0  0
 76147  1  0  0  0
 77148  1  0  0  0
 77149  1  0  0  0
 77150  1  0  0  0
 77 81  1  0  0  0
 78151  1  0  0  0
 78152  1  0  0  0
 78153  1  0  0  0
 78 82  1  0  0  0
 79 80  1  0  0  0
 79154  1  0  0  0
 79155  1  0  0  0
 80 82  1  0  0  0
 80156  1  0  0  0
 80157  1  0  0  0
 81158  1  0  0  0
 82159  1  0  0  0
M  ISO  4   1 100  68 101  81 100  82 101
M  END
> <chiral flag>
0

> <version>
0

> <s_m_source_file>
/data/baiqing/PycharmProjects/Reinvent-master-3.2/result/LINK_invent/BTK/process_docking_weight1_custom_sum_contain_oxygen_bond_distance_aromatic_linkinvent_7_9_3/rearranged_h_0102.sdf

> <i_m_source_file_index>
83

> <r_mmod_Potential_Energy-OPLS-2005>
192.95198059082

> <r_mmod_Stretch_Energy-OPLS-2005>
189.717758178711

> <r_mmod_Bend_Energy-OPLS-2005>
252.523773193359

> <r_mmod_Torsional_Energy-OPLS-2005>
172.787734985352

> <r_mmod_Improper_Torsional_Energy-OPLS-2005>
5.05697917938232

> <r_mmod_Van_der_Waal_Energy-OPLS-2005>
142.251663208008

> <r_mmod_Electrostatic_Energy-OPLS-2005>
-486.86279296875

> <r_mmod_Solvation_Energy-OPLS-2005>
-206.834930419922

> <b_mmod_Minimization_Converged-OPLS-2005>
0

> <r_mmod_RMS_Derivative-OPLS-2005>
0.117499746382236

$$$$
84
                    3D
 Structure written by MMmdl.
167174  0  0  1  0            999 V2000
  -30.5253  -14.9431   20.4161 C   0  0  0  0  0  0
  -30.4327  -12.5864   19.4760 C   0  0  0  0  0  0
  -29.5083  -12.5222   18.2392 C   0  0  0  0  0  0
  -28.0419  -12.3157   18.6680 C   0  0  0  0  0  0
  -27.6263  -13.2423   19.8412 C   0  0  2  0  0  0
  -28.6762  -13.2706   20.9703 C   0  0  0  0  0  0
  -25.2430  -13.8184   20.5722 C   0  0  0  0  0  0
  -24.1753  -13.0396   20.9252 C   0  0  0  0  0  0
  -24.6372  -11.6902   20.8801 C   0  0  0  0  0  0
  -23.9087  -10.4263   21.0394 C   0  0  0  0  0  0
  -24.3656   -9.4191   21.9159 C   0  0  0  0  0  0
  -23.6345   -8.2212   22.0724 C   0  0  0  0  0  0
  -22.4324   -8.0235   21.3527 C   0  0  0  0  0  0
  -21.9953   -9.0193   20.4631 C   0  0  0  0  0  0
  -22.7242  -10.2091   20.3024 C   0  0  0  0  0  0
  -21.6865   -6.0691   22.5268 C   0  0  0  0  0  0
  -21.4019   -6.5611   23.8192 C   0  0  0  0  0  0
  -21.3683   -5.6778   24.9176 C   0  0  0  0  0  0
  -21.6025   -4.3028   24.7233 C   0  0  0  0  0  0
  -21.8835   -3.8117   23.4370 C   0  0  0  0  0  0
  -21.9204   -4.6924   22.3416 C   0  0  0  0  0  0
  -22.7792  -13.5131   21.1950 C   0  0  0  0  0  0
  -22.1654   -4.2093   21.0996 F   0  0  0  0  0  0
  -21.5662   -3.4532   25.7767 F   0  0  0  0  0  0
  -29.9373  -13.6845   20.3507 N   0  0  0  0  0  0
  -26.2863  -12.9411   20.3335 N   0  0  0  0  0  0
  -25.9303  -11.6545   20.5842 N   0  0  0  0  0  0
  -22.0523  -12.8062   22.0542 N   0  0  0  0  0  0
  -25.4063  -15.1915   20.4123 N   0  0  0  0  0  0
  -31.7446  -15.0157   20.2192 O   0  0  0  0  0  0
  -21.6668   -6.8842   21.4230 O   0  0  0  0  0  0
  -22.3458  -14.5437   20.6841 O   0  0  0  0  0  0
  -24.6405  -31.8447   23.1868 C   0  0  0  0  0  0
  -25.9186  -32.4679   23.8172 C   0  0  1  0  0  0
  -27.2271  -27.1475   20.1448 C   0  0  0  0  0  0
  -25.6018  -33.8495   24.2122 N   0  0  0  0  0  0
  -23.4378  -30.4664   21.5317 C   0  0  2  0  0  0
  -24.8797  -28.8777   20.1149 C   0  0  0  0  0  0
  -22.7490  -29.4605   22.4886 C   0  0  0  0  0  0
  -18.0300  -28.1366   22.8474 C   0  0  0  0  0  0
  -24.1512  -36.7235   23.2657 C   0  0  0  0  0  0
  -25.9920  -30.7169   21.3747 C   0  0  0  0  0  0
  -26.0605  -29.3327   20.7181 C   0  0  0  0  0  0
  -27.2287  -28.4842   20.7080 C   0  0  0  0  0  0
  -26.0112  -26.7754   19.5251 C   0  0  0  0  0  0
  -24.8671  -27.6094   19.5125 C   0  0  0  0  0  0
  -23.6561  -29.7839   20.1571 C   0  0  0  0  0  0
  -25.4148  -36.3015   24.0315 C   0  0  1  0  0  0
  -20.5901  -28.3689   23.1275 C   0  0  2  0  0  0
  -20.6807  -26.9405   22.5411 C   0  0  0  0  0  0
  -19.5808  -26.6359   21.5201 C   0  0  0  0  0  0
  -18.1955  -26.7921   22.1574 C   0  0  0  0  0  0
  -19.1538  -28.8841   23.2864 C   0  0  0  0  0  0
  -18.9484  -30.1452   23.8863 C   0  0  0  0  0  0
  -17.6497  -30.6607   24.0545 C   0  0  0  0  0  0
  -25.9094  -34.9412   23.5029 C   0  0  0  0  0  0
  -16.5379  -29.9081   23.6353 C   0  0  0  0  0  0
  -16.7268  -28.6510   23.0382 C   0  0  0  0  0  0
  -26.4487  -31.6602   25.0642 C   0  0  0  0  0  0
  -25.3738  -31.3798   26.1407 C   0  0  0  0  0  0
  -27.0349  -30.3041   24.6187 C   0  0  0  0  0  0
  -27.6018  -32.4375   25.7410 C   0  0  0  0  0  0
  -27.5565  -37.1790   24.8479 C   0  0  0  0  0  0
  -21.4195  -29.3066   22.3643 N   0  0  0  0  0  0
  -26.4291  -37.3751   23.9415 N   0  0  0  0  0  0
  -24.7101  -31.0304   22.0843 N   0  0  0  0  0  0
  -23.4144  -28.8163   23.3014 O   0  0  0  0  0  0
  -28.3332  -26.2274   20.2630 O   0  0  0  0  0  0
  -26.5643  -34.8942   22.4568 O   0  0  0  0  0  0
  -23.5572  -32.1302   23.7157 O   0  0  0  0  0  0
  -28.2321  -24.8116   18.1953 C   0  0  0  0  0  0
  -30.6210  -19.9715   23.1685 C   0  0  0  0  0  0
  -31.9673  -20.7113   21.1951 C   0  0  0  0  0  0
  -30.6694  -22.3272   22.5710 C   0  0  0  0  0  0
  -28.6532  -21.4666   18.6639 C   0  0  0  0  0  0
  -29.4437  -19.0435   20.2720 C   0  0  0  0  0  0
  -29.9753  -17.5985   20.9777 C   0  0  0  0  0  0
  -28.3767  -23.2562   20.4434 C   0  0  0  0  0  0
  -29.3958  -20.6372   20.9392 C   0  0  1  0  0  0
  -28.5620  -24.7852   19.7058 C   0  0  2  0  0  0
  -30.6256  -20.9107   21.9319 C   0  0  0  0  0  0
  -29.7235  -16.1131   20.4968 N   0  0  0  0  0  0
  -29.1479  -21.9125   19.9903 N   0  3  1  0  0  0
  -31.4585  -12.7633   19.1575 H   0  0  0  0  0  0
  -30.4334  -11.6333   20.0067 H   0  0  0  0  0  0
  -29.8227  -11.7094   17.5860 H   0  0  0  0  0  0
  -29.5964  -13.4400   17.6551 H   0  0  0  0  0  0
  -27.9585  -11.2792   18.9917 H   0  0  0  0  0  0
  -27.3663  -12.4240   17.8174 H   0  0  0  0  0  0
  -27.5873  -14.2500   19.4236 H   0  0  0  0  0  0
  -28.7846  -12.2991   21.4582 H   0  0  0  0  0  0
  -28.3895  -13.9751   21.7513 H   0  0  0  0  0  0
  -25.2779   -9.5674   22.4767 H   0  0  0  0  0  0
  -24.0042   -7.4607   22.7436 H   0  0  0  0  0  0
  -21.0851   -8.8663   19.8976 H   0  0  0  0  0  0
  -22.3612  -10.9618   19.6166 H   0  0  0  0  0  0
  -21.1974   -7.6115   23.9685 H   0  0  0  0  0  0
  -21.1505   -6.0519   25.9077 H   0  0  0  0  0  0
  -22.0600   -2.7566   23.2890 H   0  0  0  0  0  0
  -22.4213  -11.9677   22.4786 H   0  0  0  0  0  0
  -21.1142  -13.0988   22.2852 H   0  0  0  0  0  0
  -24.6479  -15.8511   20.5431 H   0  0  0  0  0  0
  -26.2524  -15.6328   20.0839 H   0  0  0  0  0  0
  -26.7198  -32.5246   23.0826 H   0  0  0  0  0  0
  -25.0316  -33.9580   25.0373 H   0  0  0  0  0  0
  -22.7422  -31.2933   21.3762 H   0  0  0  0  0  0
  -23.3811  -35.9530   23.3293 H   0  0  0  0  0  0
  -24.3636  -36.8881   22.2086 H   0  0  0  0  0  0
  -23.7219  -37.6414   23.6681 H   0  0  0  0  0  0
  -26.1536  -31.4640   20.6001 H   0  0  0  0  0  0
  -26.8665  -30.7593   22.0111 H   0  0  0  0  0  0
  -28.1305  -28.8371   21.1887 H   0  0  0  0  0  0
  -25.9093  -25.7953   19.0852 H   0  0  0  0  0  0
  -23.9549  -27.2323   19.0679 H   0  0  0  0  0  0
  -23.7893  -30.5546   19.3999 H   0  0  0  0  0  0
  -22.7638  -29.2321   19.8529 H   0  0  0  0  0  0
  -25.1328  -36.1795   25.0803 H   0  0  0  0  0  0
  -20.9971  -28.3240   24.1400 H   0  0  0  0  0  0
  -20.5749  -26.2238   23.3573 H   0  0  0  0  0  0
  -21.6668  -26.7454   22.1176 H   0  0  0  0  0  0
  -19.7004  -25.6250   21.1269 H   0  0  0  0  0  0
  -19.6838  -27.3133   20.6709 H   0  0  0  0  0  0
  -17.4245  -26.6675   21.3958 H   0  0  0  0  0  0
  -18.0377  -26.0011   22.8923 H   0  0  0  0  0  0
  -19.7980  -30.7275   24.2192 H   0  0  0  0  0  0
  -17.5082  -31.6316   24.5094 H   0  0  0  0  0  0
  -15.5396  -30.3015   23.7776 H   0  0  0  0  0  0
  -15.8633  -28.0874   22.7130 H   0  0  0  0  0  0
  -24.5886  -30.7123   25.7804 H   0  0  0  0  0  0
  -24.8951  -32.2984   26.4822 H   0  0  0  0  0  0
  -25.8119  -30.9018   27.0180 H   0  0  0  0  0  0
  -26.2921  -29.6797   24.1213 H   0  0  0  0  0  0
  -27.4039  -29.7308   25.4684 H   0  0  0  0  0  0
  -27.8767  -30.4361   23.9406 H   0  0  0  0  0  0
  -27.2609  -33.3747   26.1832 H   0  0  0  0  0  0
  -28.3895  -32.6851   25.0275 H   0  0  0  0  0  0
  -28.0559  -31.8587   26.5465 H   0  0  0  0  0  0
  -28.2592  -38.0088   24.7505 H   0  0  0  0  0  0
  -28.1042  -36.2613   24.6280 H   0  0  0  0  0  0
  -27.2282  -37.1368   25.8890 H   0  0  0  0  0  0
  -20.9318  -29.8698   21.6823 H   0  0  0  0  0  0
  -26.0143  -38.2807   24.1449 H   0  0  0  0  0  0
  -27.4842  -24.0683   17.9289 H   0  0  0  0  0  0
  -29.1180  -24.6499   17.5766 H   0  0  0  0  0  0
  -27.8384  -25.7748   17.8746 H   0  0  0  0  0  0
  -31.3646  -20.2662   23.9139 H   0  0  0  0  0  0
  -30.9037  -18.9536   22.9369 H   0  0  0  0  0  0
  -29.6556  -19.9456   23.6825 H   0  0  0  0  0  0
  -32.8080  -20.9814   21.8378 H   0  0  0  0  0  0
  -32.0362  -21.3167   20.2968 H   0  0  0  0  0  0
  -32.1276  -19.6778   20.9005 H   0  0  0  0  0  0
  -31.5159  -22.4073   23.2594 H   0  0  0  0  0  0
  -29.7894  -22.5465   23.1792 H   0  0  0  0  0  0
  -30.8250  -23.1284   21.8506 H   0  0  0  0  0  0
  -27.6156  -21.1363   18.7333 H   0  0  0  0  0  0
  -29.2362  -20.6542   18.2387 H   0  0  0  0  0  0
  -28.7252  -22.2534   17.9218 H   0  0  0  0  0  0
  -28.4309  -18.8417   19.9107 H   0  0  0  0  0  0
  -30.0570  -19.0924   19.3739 H   0  0  0  0  0  0
  -29.5463  -17.5824   21.9786 H   0  0  0  0  0  0
  -31.0510  -17.6710   21.1276 H   0  0  0  0  0  0
  -27.3120  -23.0231   20.4363 H   0  0  0  0  0  0
  -28.5793  -23.4111   21.4971 H   0  0  0  0  0  0
  -28.5021  -20.6338   21.5623 H   0  0  0  0  0  0
  -29.6492  -24.8368   19.7103 H   0  0  0  0  0  0
  -28.7419  -15.9017   20.4081 H   0  0  0  0  0  0
  -30.0898  -22.2203   19.7950 H   0  0  0  0  0  0
  1 25  1  0  0  0
  1 30  2  0  0  0
  1 82  1  0  0  0
  2  3  1  0  0  0
  2 25  1  0  0  0
  2 84  1  0  0  0
  2 85  1  0  0  0
  3  4  1  0  0  0
  3 86  1  0  0  0
  3 87  1  0  0  0
  4  5  1  0  0  0
  4 88  1  0  0  0
  4 89  1  0  0  0
  5  6  1  0  0  0
  5 26  1  0  0  0
  5 90  1  0  0  0
  6 25  1  0  0  0
  6 91  1  0  0  0
  6 92  1  0  0  0
  7  8  2  0  0  0
  7 26  1  0  0  0
  7 29  1  0  0  0
  8  9  1  0  0  0
  8 22  1  0  0  0
  9 10  1  0  0  0
  9 27  2  0  0  0
 10 11  2  0  0  0
 10 15  1  0  0  0
 11 12  1  0  0  0
 11 93  1  0  0  0
 12 13  2  0  0  0
 12 94  1  0  0  0
 13 14  1  0  0  0
 13 31  1  0  0  0
 14 15  2  0  0  0
 14 95  1  0  0  0
 15 96  1  0  0  0
 16 17  2  0  0  0
 16 21  1  0  0  0
 16 31  1  0  0  0
 17 18  1  0  0  0
 17 97  1  0  0  0
 18 19  2  0  0  0
 18 98  1  0  0  0
 19 20  1  0  0  0
 19 24  1  0  0  0
 20 21  2  0  0  0
 20 99  1  0  0  0
 21 23  1  0  0  0
 22 28  1  0  0  0
 22 32  2  0  0  0
 26 27  1  0  0  0
 28100  1  0  0  0
 28101  1  0  0  0
 29102  1  0  0  0
 29103  1  0  0  0
 33 34  1  0  0  0
 33 66  1  0  0  0
 33 70  2  0  0  0
 34 36  1  0  0  0
 34 59  1  0  0  0
 34104  1  0  0  0
 35 44  2  0  0  0
 35 45  1  0  0  0
 35 68  1  0  0  0
 36 56  1  0  0  0
 36105  1  0  0  0
 37 39  1  0  0  0
 37 47  1  0  0  0
 37 66  1  0  0  0
 37106  1  0  0  0
 38 43  2  0  0  0
 38 46  1  0  0  0
 38 47  1  0  0  0
 39 64  1  0  0  0
 39 67  2  0  0  0
 40 52  1  0  0  0
 40 53  2  0  0  0
 40 58  1  0  0  0
 41107  1  0  0  0
 41108  1  0  0  0
 41109  1  0  0  0
 41 48  1  0  0  0
 42 43  1  0  0  0
 42 66  1  0  0  0
 42110  1  0  0  0
 42111  1  0  0  0
 43 44  1  0  0  0
 44112  1  0  0  0
 45 46  2  0  0  0
 45113  1  0  0  0
 46114  1  0  0  0
 47115  1  0  0  0
 47116  1  0  0  0
 48 56  1  0  0  0
 48 65  1  0  0  0
 48117  1  0  0  0
 49 50  1  0  0  0
 49 53  1  0  0  0
 49 64  1  0  0  0
 49118  1  0  0  0
 50 51  1  0  0  0
 50119  1  0  0  0
 50120  1  0  0  0
 51 52  1  0  0  0
 51121  1  0  0  0
 51122  1  0  0  0
 52123  1  0  0  0
 52124  1  0  0  0
 53 54  1  0  0  0
 54 55  2  0  0  0
 54125  1  0  0  0
 55 57  1  0  0  0
 55126  1  0  0  0
 56 69  2  0  0  0
 57 58  2  0  0  0
 57127  1  0  0  0
 58128  1  0  0  0
 59 60  1  0  0  0
 59 61  1  0  0  0
 59 62  1  0  0  0
 60129  1  0  0  0
 60130  1  0  0  0
 60131  1  0  0  0
 61132  1  0  0  0
 61133  1  0  0  0
 61134  1  0  0  0
 62135  1  0  0  0
 62136  1  0  0  0
 62137  1  0  0  0
 63 65  1  0  0  0
 63138  1  0  0  0
 63139  1  0  0  0
 63140  1  0  0  0
 64141  1  0  0  0
 65142  1  0  0  0
 68 80  1  0  0  0
 71143  1  0  0  0
 71144  1  0  0  0
 71145  1  0  0  0
 71 80  1  0  0  0
 72146  1  0  0  0
 72147  1  0  0  0
 72148  1  0  0  0
 72 81  1  0  0  0
 73 81  1  0  0  0
 73149  1  0  0  0
 73150  1  0  0  0
 73151  1  0  0  0
 74 81  1  0  0  0
 74152  1  0  0  0
 74153  1  0  0  0
 74154  1  0  0  0
 75155  1  0  0  0
 75156  1  0  0  0
 75157  1  0  0  0
 75 83  1  0  0  0
 76 77  1  0  0  0
 76158  1  0  0  0
 76159  1  0  0  0
 76 79  1  0  0  0
 77 82  1  0  0  0
 77160  1  0  0  0
 77161  1  0  0  0
 78 80  1  0  0  0
 78 83  1  0  0  0
 78162  1  0  0  0
 78163  1  0  0  0
 79 81  1  0  0  0
 79 83  1  0  0  0
 79164  1  0  0  0
 80165  1  0  0  0
 82166  1  0  0  0
 83167  1  0  0  0
M  CHG  1  83   1
M  ISO  4   1 100  68 101  80 101  82 100
M  END
> <chiral flag>
0

> <version>
0

> <s_m_source_file>
/data/baiqing/PycharmProjects/Reinvent-master-3.2/result/LINK_invent/BTK/process_docking_weight1_custom_sum_contain_oxygen_bond_distance_aromatic_linkinvent_7_9_3/rearranged_h_0102.sdf

> <i_m_source_file_index>
84

> <r_mmod_Potential_Energy-OPLS-2005>
577.504577636719

> <r_mmod_Stretch_Energy-OPLS-2005>
310.658752441406

> <r_mmod_Bend_Energy-OPLS-2005>
342.939910888672

> <r_mmod_Torsional_Energy-OPLS-2005>
269.155426025391

> <r_mmod_Improper_Torsional_Energy-OPLS-2005>
4.75793123245239

> <r_mmod_Van_der_Waal_Energy-OPLS-2005>
128.838165283203

> <r_mmod_Electrostatic_Energy-OPLS-2005>
-238.910903930664

> <r_mmod_Solvation_Energy-OPLS-2005>
-424.832855224609

> <b_mmod_Minimization_Converged-OPLS-2005>
0

> <r_mmod_RMS_Derivative-OPLS-2005>
7.74730348587036

$$$$
85
                    3D
 Structure written by MMmdl.
161169  0  0  1  0            999 V2000
  -30.6989  -14.6899   20.5500 C   0  0  0  0  0  0
  -30.4190  -12.4411   19.4862 C   0  0  0  0  0  0
  -29.5124  -12.5347   18.2390 C   0  0  0  0  0  0
  -28.0351  -12.3751   18.6353 C   0  0  0  0  0  0
  -27.6462  -13.2504   19.8588 C   0  0  2  0  0  0
  -28.6860  -13.1662   21.0007 C   0  0  0  0  0  0
  -25.2501  -13.8289   20.5657 C   0  0  0  0  0  0
  -24.1821  -13.0479   20.9194 C   0  0  0  0  0  0
  -24.6465  -11.6953   20.8783 C   0  0  0  0  0  0
  -23.9155  -10.4301   21.0398 C   0  0  0  0  0  0
  -24.3691   -9.4196   21.9164 C   0  0  0  0  0  0
  -23.6363   -8.2230   22.0745 C   0  0  0  0  0  0
  -22.4335   -8.0274   21.3550 C   0  0  0  0  0  0
  -21.9985   -9.0263   20.4664 C   0  0  0  0  0  0
  -22.7346  -10.2124   20.3044 C   0  0  0  0  0  0
  -21.6878   -6.0749   22.5301 C   0  0  0  0  0  0
  -21.4040   -6.5632   23.8258 C   0  0  0  0  0  0
  -21.3645   -5.6768   24.9210 C   0  0  0  0  0  0
  -21.6015   -4.3029   24.7248 C   0  0  0  0  0  0
  -21.8820   -3.8134   23.4374 C   0  0  0  0  0  0
  -21.9210   -4.6966   22.3429 C   0  0  0  0  0  0
  -22.7821  -13.5198   21.1843 C   0  0  0  0  0  0
  -22.1658   -4.2153   21.1018 F   0  0  0  0  0  0
  -21.5623   -3.4503   25.7757 F   0  0  0  0  0  0
  -30.0010  -13.4998   20.4366 N   0  0  0  0  0  0
  -26.2963  -12.9515   20.3308 N   0  0  0  0  0  0
  -25.9410  -11.6627   20.5797 N   0  0  0  0  0  0
  -22.0506  -12.8185   22.0415 N   0  0  0  0  0  0
  -25.4214  -15.2018   20.4010 N   0  0  0  0  0  0
  -31.8549  -14.7468   20.1161 O   0  0  0  0  0  0
  -21.6680   -6.8886   21.4257 O   0  0  0  0  0  0
  -22.3431  -14.5448   20.6659 O   0  0  0  0  0  0
  -24.6289  -31.8590   23.2012 C   0  0  0  0  0  0
  -25.9132  -32.4746   23.8328 C   0  0  1  0  0  0
  -27.2145  -27.2892   20.0970 C   0  0  0  0  0  0
  -25.5972  -33.8567   24.2246 N   0  0  0  0  0  0
  -23.4209  -30.4891   21.5413 C   0  0  2  0  0  0
  -24.8629  -28.9391   20.1064 C   0  0  0  0  0  0
  -22.7461  -29.4661   22.4879 C   0  0  0  0  0  0
  -18.0296  -28.1415   22.8454 C   0  0  0  0  0  0
  -24.1487  -36.7271   23.2629 C   0  0  0  0  0  0
  -25.9645  -30.7746   21.3793 C   0  0  0  0  0  0
  -26.0313  -29.4011   20.7197 C   0  0  0  0  0  0
  -27.2054  -28.5834   20.7148 C   0  0  0  0  0  0
  -26.0206  -26.9011   19.4423 C   0  0  0  0  0  0
  -24.8602  -27.6943   19.4640 C   0  0  0  0  0  0
  -23.6360  -29.8261   20.1555 C   0  0  0  0  0  0
  -25.4119  -36.3038   24.0307 C   0  0  1  0  0  0
  -20.5885  -28.3736   23.1233 C   0  0  2  0  0  0
  -20.6776  -26.9464   22.5378 C   0  0  0  0  0  0
  -19.5771  -26.6397   21.5175 C   0  0  0  0  0  0
  -18.1951  -26.7949   22.1596 C   0  0  0  0  0  0
  -19.1552  -28.8900   23.2836 C   0  0  0  0  0  0
  -18.9485  -30.1478   23.8886 C   0  0  0  0  0  0
  -17.6494  -30.6612   24.0589 C   0  0  0  0  0  0
  -25.9077  -34.9426   23.5050 C   0  0  0  0  0  0
  -16.5374  -29.9136   23.6315 C   0  0  0  0  0  0
  -16.7289  -28.6550   23.0338 C   0  0  0  0  0  0
  -26.4514  -31.6600   25.0729 C   0  0  0  0  0  0
  -25.3756  -31.3795   26.1463 C   0  0  0  0  0  0
  -27.0352  -30.3004   24.6235 C   0  0  0  0  0  0
  -27.6066  -32.4350   25.7504 C   0  0  0  0  0  0
  -27.5575  -37.1781   24.8459 C   0  0  0  0  0  0
  -21.4182  -29.3096   22.3617 N   0  0  0  0  0  0
  -26.4264  -37.3768   23.9430 N   0  0  0  0  0  0
  -24.6891  -31.0585   22.0974 N   0  0  0  0  0  0
  -23.4193  -28.8186   23.2959 O   0  0  0  0  0  0
  -28.3409  -26.4389   20.1632 O   0  0  0  0  0  0
  -26.5632  -34.8912   22.4604 O   0  0  0  0  0  0
  -23.5441  -32.1401   23.7334 O   0  0  0  0  0  0
  -29.8231  -19.5172   18.7993 C   0  0  0  0  0  0
  -29.7285  -18.4102   20.9357 C   0  0  0  0  0  0
  -29.6553  -19.6485   20.1882 C   0  0  0  0  0  0
  -30.0690  -18.2491   18.2434 C   0  0  0  0  0  0
  -29.9833  -17.1181   20.3144 C   0  0  0  0  0  0
  -30.3248  -18.1097   16.7595 C   0  0  0  0  0  0
  -28.0901  -23.8040   21.8605 C   0  0  0  0  0  0
  -30.0975  -15.9290   22.5355 C   0  0  0  0  0  0
  -29.4892  -21.0938   20.8235 C   0  0  0  0  0  0
  -29.0458  -22.3677   19.9309 C   0  0  0  0  0  0
  -28.3309  -25.0277   19.6659 C   0  0  0  0  0  0
  -28.9232  -23.8492   20.5779 C   0  0  1  0  0  0
  -30.1262  -17.1094   18.9656 N   0  0  0  0  0  0
  -30.1018  -15.8371   21.0645 N   0  0  0  0  0  0
  -31.4660  -12.5356   19.1955 H   0  0  0  0  0  0
  -30.3377  -11.4590   19.9546 H   0  0  0  0  0  0
  -29.7977  -11.7737   17.5105 H   0  0  0  0  0  0
  -29.6611  -13.4944   17.7428 H   0  0  0  0  0  0
  -27.8572  -11.3242   18.8538 H   0  0  0  0  0  0
  -27.3937  -12.6118   17.7839 H   0  0  0  0  0  0
  -27.6516  -14.2866   19.5154 H   0  0  0  0  0  0
  -28.7053  -12.1715   21.4466 H   0  0  0  0  0  0
  -28.4095  -13.8531   21.8017 H   0  0  0  0  0  0
  -25.2849   -9.5631   22.4733 H   0  0  0  0  0  0
  -24.0084   -7.4602   22.7422 H   0  0  0  0  0  0
  -21.0929   -8.8788   19.8977 H   0  0  0  0  0  0
  -22.3826  -10.9641   19.6116 H   0  0  0  0  0  0
  -21.2038   -7.6140   23.9771 H   0  0  0  0  0  0
  -21.1464   -6.0500   25.9125 H   0  0  0  0  0  0
  -22.0631   -2.7595   23.2895 H   0  0  0  0  0  0
  -22.4164  -11.9875   22.4808 H   0  0  0  0  0  0
  -21.1106  -13.1150   22.2632 H   0  0  0  0  0  0
  -24.6654  -15.8704   20.5047 H   0  0  0  0  0  0
  -26.2883  -15.6271   20.0947 H   0  0  0  0  0  0
  -26.7170  -32.5371   23.1052 H   0  0  0  0  0  0
  -25.0195  -33.9709   25.0429 H   0  0  0  0  0  0
  -22.7140  -31.3109   21.3964 H   0  0  0  0  0  0
  -23.3741  -35.9609   23.3263 H   0  0  0  0  0  0
  -24.3590  -36.8928   22.2049 H   0  0  0  0  0  0
  -23.7244  -37.6461   23.6688 H   0  0  0  0  0  0
  -26.0969  -31.5359   20.6086 H   0  0  0  0  0  0
  -26.8422  -30.8203   22.0112 H   0  0  0  0  0  0
  -28.0973  -28.9302   21.2177 H   0  0  0  0  0  0
  -25.9261  -25.9792   18.8934 H   0  0  0  0  0  0
  -23.9635  -27.3420   18.9711 H   0  0  0  0  0  0
  -23.7660  -30.5999   19.3981 H   0  0  0  0  0  0
  -22.7527  -29.2638   19.8476 H   0  0  0  0  0  0
  -25.1305  -36.1837   25.0801 H   0  0  0  0  0  0
  -20.9999  -28.3304   24.1344 H   0  0  0  0  0  0
  -20.5620  -26.2391   23.3590 H   0  0  0  0  0  0
  -21.6659  -26.7467   22.1224 H   0  0  0  0  0  0
  -19.6949  -25.6291   21.1243 H   0  0  0  0  0  0
  -19.6694  -27.3166   20.6669 H   0  0  0  0  0  0
  -17.4207  -26.6654   21.4004 H   0  0  0  0  0  0
  -18.0399  -26.0104   22.9024 H   0  0  0  0  0  0
  -19.7989  -30.7279   24.2238 H   0  0  0  0  0  0
  -17.5087  -31.6283   24.5225 H   0  0  0  0  0  0
  -15.5395  -30.3083   23.7639 H   0  0  0  0  0  0
  -15.8666  -28.0888   22.7063 H   0  0  0  0  0  0
  -24.5932  -30.7127   25.7831 H   0  0  0  0  0  0
  -24.8947  -32.2987   26.4829 H   0  0  0  0  0  0
  -25.8070  -30.9037   27.0279 H   0  0  0  0  0  0
  -26.2931  -29.6750   24.1250 H   0  0  0  0  0  0
  -27.4005  -29.7285   25.4779 H   0  0  0  0  0  0
  -27.8833  -30.4257   23.9494 H   0  0  0  0  0  0
  -27.2695  -33.3714   26.1985 H   0  0  0  0  0  0
  -28.3947  -32.6815   25.0369 H   0  0  0  0  0  0
  -28.0668  -31.8540   26.5510 H   0  0  0  0  0  0
  -28.2548  -38.0120   24.7546 H   0  0  0  0  0  0
  -28.1095  -36.2643   24.6199 H   0  0  0  0  0  0
  -27.2310  -37.1344   25.8864 H   0  0  0  0  0  0
  -20.9338  -29.8888   21.6867 H   0  0  0  0  0  0
  -26.0096  -38.2805   24.1503 H   0  0  0  0  0  0
  -29.7979  -20.3828   18.1551 H   0  0  0  0  0  0
  -29.6124  -18.4757   22.0089 H   0  0  0  0  0  0
  -29.5468  -18.6151   16.1885 H   0  0  0  0  0  0
  -30.3581  -17.0667   16.4425 H   0  0  0  0  0  0
  -31.2821  -18.5659   16.5071 H   0  0  0  0  0  0
  -28.6629  -23.3751   22.6810 H   0  0  0  0  0  0
  -27.1881  -23.2116   21.7190 H   0  0  0  0  0  0
  -27.7898  -24.8074   22.1692 H   0  0  0  0  0  0
  -29.1853  -16.4009   22.8944 H   0  0  0  0  0  0
  -30.9475  -16.5239   22.8801 H   0  0  0  0  0  0
  -30.1618  -14.9547   23.0314 H   0  0  0  0  0  0
  -30.4495  -21.3335   21.2815 H   0  0  0  0  0  0
  -28.7929  -20.9993   21.6553 H   0  0  0  0  0  0
  -28.0860  -22.1273   19.4739 H   0  0  0  0  0  0
  -29.7424  -22.4505   19.0936 H   0  0  0  0  0  0
  -27.3444  -24.6743   19.3869 H   0  0  0  0  0  0
  -28.8907  -25.0466   18.7315 H   0  0  0  0  0  0
  -29.9260  -24.1647   20.8730 H   0  0  0  0  0  0
  1 25  1  0  0  0
  1 30  2  0  0  0
  1 84  1  0  0  0
  2  3  1  0  0  0
  2 25  1  0  0  0
  2 85  1  0  0  0
  2 86  1  0  0  0
  3  4  1  0  0  0
  3 87  1  0  0  0
  3 88  1  0  0  0
  4  5  1  0  0  0
  4 89  1  0  0  0
  4 90  1  0  0  0
  5  6  1  0  0  0
  5 26  1  0  0  0
  5 91  1  0  0  0
  6 25  1  0  0  0
  6 92  1  0  0  0
  6 93  1  0  0  0
  7  8  2  0  0  0
  7 26  1  0  0  0
  7 29  1  0  0  0
  8  9  1  0  0  0
  8 22  1  0  0  0
  9 10  1  0  0  0
  9 27  2  0  0  0
 10 11  2  0  0  0
 10 15  1  0  0  0
 11 12  1  0  0  0
 11 94  1  0  0  0
 12 13  2  0  0  0
 12 95  1  0  0  0
 13 14  1  0  0  0
 13 31  1  0  0  0
 14 15  2  0  0  0
 14 96  1  0  0  0
 15 97  1  0  0  0
 16 17  2  0  0  0
 16 21  1  0  0  0
 16 31  1  0  0  0
 17 18  1  0  0  0
 17 98  1  0  0  0
 18 19  2  0  0  0
 18 99  1  0  0  0
 19 20  1  0  0  0
 19 24  1  0  0  0
 20 21  2  0  0  0
 20100  1  0  0  0
 21 23  1  0  0  0
 22 28  1  0  0  0
 22 32  2  0  0  0
 26 27  1  0  0  0
 28101  1  0  0  0
 28102  1  0  0  0
 29103  1  0  0  0
 29104  1  0  0  0
 33 34  1  0  0  0
 33 66  1  0  0  0
 33 70  2  0  0  0
 34 36  1  0  0  0
 34 59  1  0  0  0
 34105  1  0  0  0
 35 44  2  0  0  0
 35 45  1  0  0  0
 35 68  1  0  0  0
 36 56  1  0  0  0
 36106  1  0  0  0
 37 39  1  0  0  0
 37 47  1  0  0  0
 37 66  1  0  0  0
 37107  1  0  0  0
 38 43  2  0  0  0
 38 46  1  0  0  0
 38 47  1  0  0  0
 39 64  1  0  0  0
 39 67  2  0  0  0
 40 52  1  0  0  0
 40 53  2  0  0  0
 40 58  1  0  0  0
 41108  1  0  0  0
 41109  1  0  0  0
 41110  1  0  0  0
 41 48  1  0  0  0
 42 43  1  0  0  0
 42 66  1  0  0  0
 42111  1  0  0  0
 42112  1  0  0  0
 43 44  1  0  0  0
 44113  1  0  0  0
 45 46  2  0  0  0
 45114  1  0  0  0
 46115  1  0  0  0
 47116  1  0  0  0
 47117  1  0  0  0
 48 56  1  0  0  0
 48 65  1  0  0  0
 48118  1  0  0  0
 49 50  1  0  0  0
 49 53  1  0  0  0
 49 64  1  0  0  0
 49119  1  0  0  0
 50 51  1  0  0  0
 50120  1  0  0  0
 50121  1  0  0  0
 51 52  1  0  0  0
 51122  1  0  0  0
 51123  1  0  0  0
 52124  1  0  0  0
 52125  1  0  0  0
 53 54  1  0  0  0
 54 55  2  0  0  0
 54126  1  0  0  0
 55 57  1  0  0  0
 55127  1  0  0  0
 56 69  2  0  0  0
 57 58  2  0  0  0
 57128  1  0  0  0
 58129  1  0  0  0
 59 60  1  0  0  0
 59 61  1  0  0  0
 59 62  1  0  0  0
 60130  1  0  0  0
 60131  1  0  0  0
 60132  1  0  0  0
 61133  1  0  0  0
 61134  1  0  0  0
 61135  1  0  0  0
 62136  1  0  0  0
 62137  1  0  0  0
 62138  1  0  0  0
 63 65  1  0  0  0
 63139  1  0  0  0
 63140  1  0  0  0
 63141  1  0  0  0
 64142  1  0  0  0
 65143  1  0  0  0
 68 81  1  0  0  0
 71 73  2  0  0  0
 71 74  1  0  0  0
 71144  1  0  0  0
 72 73  1  0  0  0
 72 75  2  0  0  0
 72145  1  0  0  0
 73 79  1  0  0  0
 74 76  1  0  0  0
 74 83  2  0  0  0
 75 83  1  0  0  0
 75 84  1  0  0  0
 76146  1  0  0  0
 76147  1  0  0  0
 76148  1  0  0  0
 77149  1  0  0  0
 77150  1  0  0  0
 77151  1  0  0  0
 77 82  1  0  0  0
 78 84  1  0  0  0
 78152  1  0  0  0
 78153  1  0  0  0
 78154  1  0  0  0
 79 80  1  0  0  0
 79155  1  0  0  0
 79156  1  0  0  0
 80 82  1  0  0  0
 80157  1  0  0  0
 80158  1  0  0  0
 81 82  1  0  0  0
 81159  1  0  0  0
 81160  1  0  0  0
 82161  1  0  0  0
M  ISO  4   1 100  68 101  81 101  84 100
M  END
> <chiral flag>
0

> <version>
0

> <s_m_source_file>
/data/baiqing/PycharmProjects/Reinvent-master-3.2/result/LINK_invent/BTK/process_docking_weight1_custom_sum_contain_oxygen_bond_distance_aromatic_linkinvent_7_9_3/rearranged_h_0102.sdf

> <i_m_source_file_index>
85

> <r_mmod_Potential_Energy-OPLS-2005>
144.536209106445

> <r_mmod_Stretch_Energy-OPLS-2005>
116.212860107422

> <r_mmod_Bend_Energy-OPLS-2005>
168.004928588867

> <r_mmod_Torsional_Energy-OPLS-2005>
268.6513671875

> <r_mmod_Improper_Torsional_Energy-OPLS-2005>
3.56633615493774

> <r_mmod_Van_der_Waal_Energy-OPLS-2005>
146.691116333008

> <r_mmod_Electrostatic_Energy-OPLS-2005>
-424.421630859375

> <r_mmod_Solvation_Energy-OPLS-2005>
-198.171524047852

> <b_mmod_Minimization_Converged-OPLS-2005>
0

> <r_mmod_RMS_Derivative-OPLS-2005>
5.75119686126709

$$$$
86
                    3D
 Structure written by MMmdl.
165173  0  0  1  0            999 V2000
  -30.6152  -14.8437   20.5179 C   0  0  0  0  0  0
  -30.4412  -12.5343   19.5006 C   0  0  0  0  0  0
  -29.5166  -12.5436   18.2584 C   0  0  0  0  0  0
  -28.0472  -12.3391   18.6635 C   0  0  0  0  0  0
  -27.6441  -13.2386   19.8544 C   0  0  2  0  0  0
  -28.6813  -13.1826   20.9940 C   0  0  0  0  0  0
  -25.2513  -13.8211   20.5718 C   0  0  0  0  0  0
  -24.1820  -13.0451   20.9211 C   0  0  0  0  0  0
  -24.6436  -11.6922   20.8766 C   0  0  0  0  0  0
  -23.9104  -10.4296   21.0418 C   0  0  0  0  0  0
  -24.3655   -9.4196   21.9180 C   0  0  0  0  0  0
  -23.6311   -8.2250   22.0761 C   0  0  0  0  0  0
  -22.4285   -8.0290   21.3556 C   0  0  0  0  0  0
  -21.9940   -9.0277   20.4657 C   0  0  0  0  0  0
  -22.7280  -10.2151   20.3062 C   0  0  0  0  0  0
  -21.6859   -6.0737   22.5279 C   0  0  0  0  0  0
  -21.4030   -6.5655   23.8208 C   0  0  0  0  0  0
  -21.3653   -5.6813   24.9177 C   0  0  0  0  0  0
  -21.6049   -4.3073   24.7224 C   0  0  0  0  0  0
  -21.8826   -3.8159   23.4356 C   0  0  0  0  0  0
  -21.9196   -4.6968   22.3409 C   0  0  0  0  0  0
  -22.7816  -13.5188   21.1882 C   0  0  0  0  0  0
  -22.1662   -4.2144   21.0977 F   0  0  0  0  0  0
  -21.5613   -3.4564   25.7735 F   0  0  0  0  0  0
  -29.9868  -13.5992   20.4426 N   0  0  0  0  0  0
  -26.2941  -12.9439   20.3277 N   0  0  0  0  0  0
  -25.9361  -11.6577   20.5765 N   0  0  0  0  0  0
  -22.0508  -12.8153   22.0438 N   0  0  0  0  0  0
  -25.4253  -15.1937   20.4202 N   0  0  0  0  0  0
  -31.7311  -14.9566   20.0017 O   0  0  0  0  0  0
  -21.6640   -6.8887   21.4245 O   0  0  0  0  0  0
  -22.3461  -14.5480   20.6726 O   0  0  0  0  0  0
  -24.6429  -31.8493   23.1934 C   0  0  0  0  0  0
  -25.9215  -32.4729   23.8299 C   0  0  1  0  0  0
  -27.2082  -27.1613   20.1276 C   0  0  0  0  0  0
  -25.5970  -33.8538   24.2212 N   0  0  0  0  0  0
  -23.4434  -30.4736   21.5432 C   0  0  2  0  0  0
  -24.8880  -28.9158   20.1116 C   0  0  0  0  0  0
  -22.7553  -29.4576   22.4899 C   0  0  0  0  0  0
  -18.0302  -28.1396   22.8483 C   0  0  0  0  0  0
  -24.1493  -36.7265   23.2627 C   0  0  0  0  0  0
  -26.0024  -30.7307   21.3878 C   0  0  0  0  0  0
  -26.0731  -29.3485   20.7216 C   0  0  0  0  0  0
  -27.2379  -28.4903   20.7112 C   0  0  0  0  0  0
  -25.9883  -26.8357   19.4838 C   0  0  0  0  0  0
  -24.8570  -27.6702   19.4805 C   0  0  0  0  0  0
  -23.6669  -29.8162   20.1588 C   0  0  0  0  0  0
  -25.4127  -36.3057   24.0311 C   0  0  1  0  0  0
  -20.5900  -28.3714   23.1268 C   0  0  2  0  0  0
  -20.6785  -26.9418   22.5439 C   0  0  0  0  0  0
  -19.5786  -26.6378   21.5225 C   0  0  0  0  0  0
  -18.1943  -26.7946   22.1599 C   0  0  0  0  0  0
  -19.1548  -28.8878   23.2860 C   0  0  0  0  0  0
  -18.9463  -30.1469   23.8896 C   0  0  0  0  0  0
  -17.6460  -30.6585   24.0571 C   0  0  0  0  0  0
  -25.9090  -34.9427   23.5070 C   0  0  0  0  0  0
  -16.5352  -29.9090   23.6326 C   0  0  0  0  0  0
  -16.7282  -28.6502   23.0366 C   0  0  0  0  0  0
  -26.4529  -31.6588   25.0733 C   0  0  0  0  0  0
  -25.3700  -31.3805   26.1424 C   0  0  0  0  0  0
  -27.0341  -30.2967   24.6306 C   0  0  0  0  0  0
  -27.6092  -32.4320   25.7501 C   0  0  0  0  0  0
  -27.5612  -37.1768   24.8430 C   0  0  0  0  0  0
  -21.4249  -29.3039   22.3634 N   0  0  0  0  0  0
  -26.4284  -37.3780   23.9433 N   0  0  0  0  0  0
  -24.7167  -31.0355   22.0978 N   0  0  0  0  0  0
  -23.4206  -28.8094   23.3008 O   0  0  0  0  0  0
  -28.2405  -26.1522   20.1940 O   0  0  0  0  0  0
  -26.5657  -34.8925   22.4641 O   0  0  0  0  0  0
  -23.5548  -32.1364   23.7159 O   0  0  0  0  0  0
  -29.8578  -22.9269   20.6335 C   0  0  0  0  0  0
  -30.3522  -21.5661   20.7490 C   0  0  0  0  0  0
  -27.8521  -22.0379   19.7869 C   0  0  0  0  0  0
  -28.5584  -23.2400   20.1461 C   0  0  0  0  0  0
  -29.6493  -20.3475   20.3975 C   0  0  0  0  0  0
  -28.3437  -20.6737   19.8855 C   0  0  0  0  0  0
  -27.4150  -19.5748   19.3964 C   0  0  0  0  0  0
  -32.6897  -19.6861   19.6085 C   0  0  0  0  0  0
  -30.9332  -18.8396   22.0293 C   0  0  0  0  0  0
  -29.6462  -15.9426   22.4751 C   0  0  0  0  0  0
  -27.8101  -24.6880   19.9513 C   0  0  0  0  0  0
  -31.5215  -18.6866   19.5816 C   0  0  0  0  0  0
  -29.5571  -17.3799   20.4107 C   0  0  0  0  0  0
  -30.3505  -18.8460   20.5991 C   0  0  2  0  0  0
  -29.9552  -15.9849   21.0356 N   0  0  0  0  0  0
  -31.4793  -12.6689   19.1895 H   0  0  0  0  0  0
  -30.4139  -11.5616   19.9936 H   0  0  0  0  0  0
  -29.8185  -11.7673   17.5540 H   0  0  0  0  0  0
  -29.6192  -13.4934   17.7322 H   0  0  0  0  0  0
  -27.9226  -11.2913   18.9345 H   0  0  0  0  0  0
  -27.3870  -12.5246   17.8141 H   0  0  0  0  0  0
  -27.6407  -14.2615   19.4793 H   0  0  0  0  0  0
  -28.7447  -12.1837   21.4274 H   0  0  0  0  0  0
  -28.3269  -13.8200   21.7987 H   0  0  0  0  0  0
  -25.2828   -9.5641   22.4717 H   0  0  0  0  0  0
  -24.0021   -7.4638   22.7484 H   0  0  0  0  0  0
  -21.0884   -8.8831   19.8945 H   0  0  0  0  0  0
  -22.3787  -10.9701   19.6162 H   0  0  0  0  0  0
  -21.2056   -7.6172   23.9709 H   0  0  0  0  0  0
  -21.1446   -6.0547   25.9075 H   0  0  0  0  0  0
  -22.0613   -2.7612   23.2857 H   0  0  0  0  0  0
  -22.4219  -11.9818   22.4764 H   0  0  0  0  0  0
  -21.1128  -13.1117   22.2723 H   0  0  0  0  0  0
  -24.6690  -15.8545   20.5568 H   0  0  0  0  0  0
  -26.2864  -15.6304   20.1166 H   0  0  0  0  0  0
  -26.7280  -32.5346   23.1029 H   0  0  0  0  0  0
  -25.0109  -33.9668   25.0354 H   0  0  0  0  0  0
  -22.7453  -31.3000   21.3969 H   0  0  0  0  0  0
  -23.3812  -35.9538   23.3200 H   0  0  0  0  0  0
  -24.3581  -36.9002   22.2061 H   0  0  0  0  0  0
  -23.7186  -37.6405   23.6731 H   0  0  0  0  0  0
  -26.1514  -31.4901   20.6185 H   0  0  0  0  0  0
  -26.8753  -30.7781   22.0271 H   0  0  0  0  0  0
  -28.1424  -28.8197   21.2019 H   0  0  0  0  0  0
  -25.8415  -25.8894   18.9894 H   0  0  0  0  0  0
  -23.9477  -27.3295   19.0037 H   0  0  0  0  0  0
  -23.8085  -30.6001   19.4135 H   0  0  0  0  0  0
  -22.7800  -29.2653   19.8410 H   0  0  0  0  0  0
  -25.1308  -36.1885   25.0802 H   0  0  0  0  0  0
  -20.9983  -28.3312   24.1392 H   0  0  0  0  0  0
  -20.5669  -26.2329   23.3647 H   0  0  0  0  0  0
  -21.6667  -26.7427   22.1265 H   0  0  0  0  0  0
  -19.6951  -25.6285   21.1283 H   0  0  0  0  0  0
  -19.6762  -27.3166   20.6738 H   0  0  0  0  0  0
  -17.4244  -26.6740   21.3958 H   0  0  0  0  0  0
  -18.0284  -26.0067   22.8958 H   0  0  0  0  0  0
  -19.7941  -30.7280   24.2281 H   0  0  0  0  0  0
  -17.5017  -31.6264   24.5172 H   0  0  0  0  0  0
  -15.5355  -30.2992   23.7656 H   0  0  0  0  0  0
  -15.8681  -28.0804   22.7117 H   0  0  0  0  0  0
  -24.5947  -30.7060   25.7771 H   0  0  0  0  0  0
  -24.8794  -32.2986   26.4666 H   0  0  0  0  0  0
  -25.7985  -30.9148   27.0308 H   0  0  0  0  0  0
  -26.2928  -29.6734   24.1300 H   0  0  0  0  0  0
  -27.3904  -29.7245   25.4879 H   0  0  0  0  0  0
  -27.8871  -30.4163   23.9625 H   0  0  0  0  0  0
  -27.2728  -33.3634   26.2063 H   0  0  0  0  0  0
  -28.3910  -32.6860   25.0330 H   0  0  0  0  0  0
  -28.0756  -31.8449   26.5424 H   0  0  0  0  0  0
  -28.2552  -38.0135   24.7595 H   0  0  0  0  0  0
  -28.1183  -36.2688   24.6098 H   0  0  0  0  0  0
  -27.2350  -37.1226   25.8824 H   0  0  0  0  0  0
  -20.9443  -29.8776   21.6845 H   0  0  0  0  0  0
  -26.0156  -38.2829   24.1546 H   0  0  0  0  0  0
  -30.5062  -23.7387   20.9303 H   0  0  0  0  0  0
  -31.3572  -21.4841   21.1319 H   0  0  0  0  0  0
  -26.8507  -22.1739   19.4013 H   0  0  0  0  0  0
  -26.4993  -19.9767   18.9636 H   0  0  0  0  0  0
  -27.1010  -18.9264   20.2113 H   0  0  0  0  0  0
  -27.9023  -18.9786   18.6253 H   0  0  0  0  0  0
  -33.5193  -19.3051   19.0131 H   0  0  0  0  0  0
  -33.0779  -19.8446   20.6135 H   0  0  0  0  0  0
  -32.4150  -20.6493   19.1831 H   0  0  0  0  0  0
  -31.5266  -19.7169   22.2759 H   0  0  0  0  0  0
  -31.6081  -17.9981   22.1750 H   0  0  0  0  0  0
  -30.1336  -18.7871   22.7684 H   0  0  0  0  0  0
  -28.6732  -16.3848   22.6918 H   0  0  0  0  0  0
  -30.3908  -16.4774   23.0574 H   0  0  0  0  0  0
  -29.6601  -14.9435   22.9063 H   0  0  0  0  0  0
  -26.9006  -24.5600   20.5375 H   0  0  0  0  0  0
  -27.5161  -24.6450   18.9025 H   0  0  0  0  0  0
  -31.9644  -17.6985   19.7117 H   0  0  0  0  0  0
  -31.1093  -18.6837   18.5702 H   0  0  0  0  0  0
  -29.4133  -17.2015   19.3434 H   0  0  0  0  0  0
  -28.5482  -17.5231   20.7793 H   0  0  0  0  0  0
  1 25  1  0  0  0
  1 30  2  0  0  0
  1 85  1  0  0  0
  2  3  1  0  0  0
  2 25  1  0  0  0
  2 86  1  0  0  0
  2 87  1  0  0  0
  3  4  1  0  0  0
  3 88  1  0  0  0
  3 89  1  0  0  0
  4  5  1  0  0  0
  4 90  1  0  0  0
  4 91  1  0  0  0
  5  6  1  0  0  0
  5 26  1  0  0  0
  5 92  1  0  0  0
  6 25  1  0  0  0
  6 93  1  0  0  0
  6 94  1  0  0  0
  7  8  2  0  0  0
  7 26  1  0  0  0
  7 29  1  0  0  0
  8  9  1  0  0  0
  8 22  1  0  0  0
  9 10  1  0  0  0
  9 27  2  0  0  0
 10 11  2  0  0  0
 10 15  1  0  0  0
 11 12  1  0  0  0
 11 95  1  0  0  0
 12 13  2  0  0  0
 12 96  1  0  0  0
 13 14  1  0  0  0
 13 31  1  0  0  0
 14 15  2  0  0  0
 14 97  1  0  0  0
 15 98  1  0  0  0
 16 17  2  0  0  0
 16 21  1  0  0  0
 16 31  1  0  0  0
 17 18  1  0  0  0
 17 99  1  0  0  0
 18 19  2  0  0  0
 18100  1  0  0  0
 19 20  1  0  0  0
 19 24  1  0  0  0
 20 21  2  0  0  0
 20101  1  0  0  0
 21 23  1  0  0  0
 22 28  1  0  0  0
 22 32  2  0  0  0
 26 27  1  0  0  0
 28102  1  0  0  0
 28103  1  0  0  0
 29104  1  0  0  0
 29105  1  0  0  0
 33 34  1  0  0  0
 33 66  1  0  0  0
 33 70  2  0  0  0
 34 36  1  0  0  0
 34 59  1  0  0  0
 34106  1  0  0  0
 35 44  2  0  0  0
 35 45  1  0  0  0
 35 68  1  0  0  0
 36 56  1  0  0  0
 36107  1  0  0  0
 37 39  1  0  0  0
 37 47  1  0  0  0
 37 66  1  0  0  0
 37108  1  0  0  0
 38 43  2  0  0  0
 38 46  1  0  0  0
 38 47  1  0  0  0
 39 64  1  0  0  0
 39 67  2  0  0  0
 40 52  1  0  0  0
 40 53  2  0  0  0
 40 58  1  0  0  0
 41109  1  0  0  0
 41110  1  0  0  0
 41111  1  0  0  0
 41 48  1  0  0  0
 42 43  1  0  0  0
 42 66  1  0  0  0
 42112  1  0  0  0
 42113  1  0  0  0
 43 44  1  0  0  0
 44114  1  0  0  0
 45 46  2  0  0  0
 45115  1  0  0  0
 46116  1  0  0  0
 47117  1  0  0  0
 47118  1  0  0  0
 48 56  1  0  0  0
 48 65  1  0  0  0
 48119  1  0  0  0
 49 50  1  0  0  0
 49 53  1  0  0  0
 49 64  1  0  0  0
 49120  1  0  0  0
 50 51  1  0  0  0
 50121  1  0  0  0
 50122  1  0  0  0
 51 52  1  0  0  0
 51123  1  0  0  0
 51124  1  0  0  0
 52125  1  0  0  0
 52126  1  0  0  0
 53 54  1  0  0  0
 54 55  2  0  0  0
 54127  1  0  0  0
 55 57  1  0  0  0
 55128  1  0  0  0
 56 69  2  0  0  0
 57 58  2  0  0  0
 57129  1  0  0  0
 58130  1  0  0  0
 59 60  1  0  0  0
 59 61  1  0  0  0
 59 62  1  0  0  0
 60131  1  0  0  0
 60132  1  0  0  0
 60133  1  0  0  0
 61134  1  0  0  0
 61135  1  0  0  0
 61136  1  0  0  0
 62137  1  0  0  0
 62138  1  0  0  0
 62139  1  0  0  0
 63 65  1  0  0  0
 63140  1  0  0  0
 63141  1  0  0  0
 63142  1  0  0  0
 64143  1  0  0  0
 65144  1  0  0  0
 68 81  1  0  0  0
 71 72  2  0  0  0
 71 74  1  0  0  0
 71145  1  0  0  0
 72 75  1  0  0  0
 72146  1  0  0  0
 73 74  2  0  0  0
 73 76  1  0  0  0
 73147  1  0  0  0
 74 81  1  0  0  0
 75 76  2  0  0  0
 75 84  1  0  0  0
 76 77  1  0  0  0
 77148  1  0  0  0
 77149  1  0  0  0
 77150  1  0  0  0
 78 82  1  0  0  0
 78151  1  0  0  0
 78152  1  0  0  0
 78153  1  0  0  0
 79154  1  0  0  0
 79155  1  0  0  0
 79156  1  0  0  0
 79 84  1  0  0  0
 80 85  1  0  0  0
 80157  1  0  0  0
 80158  1  0  0  0
 80159  1  0  0  0
 81160  1  0  0  0
 81161  1  0  0  0
 82 84  1  0  0  0
 82162  1  0  0  0
 82163  1  0  0  0
 83 84  1  0  0  0
 83 85  1  0  0  0
 83164  1  0  0  0
 83165  1  0  0  0
M  ISO  4   1 100  68 101  81 101  85 100
M  END
> <chiral flag>
0

> <version>
0

> <s_m_source_file>
/data/baiqing/PycharmProjects/Reinvent-master-3.2/result/LINK_invent/BTK/process_docking_weight1_custom_sum_contain_oxygen_bond_distance_aromatic_linkinvent_7_9_3/rearranged_h_0102.sdf

> <i_m_source_file_index>
86

> <r_mmod_Potential_Energy-OPLS-2005>
642.843383789062

> <r_mmod_Stretch_Energy-OPLS-2005>
231.914306640625

> <r_mmod_Bend_Energy-OPLS-2005>
303.499725341797

> <r_mmod_Torsional_Energy-OPLS-2005>
310.550262451172

> <r_mmod_Improper_Torsional_Energy-OPLS-2005>
3.05694031715393

> <r_mmod_Van_der_Waal_Energy-OPLS-2005>
160.240493774414

> <r_mmod_Electrostatic_Energy-OPLS-2005>
-326.344879150391

> <r_mmod_Solvation_Energy-OPLS-2005>
-186.746887207031

> <b_mmod_Minimization_Converged-OPLS-2005>
0

> <r_mmod_RMS_Derivative-OPLS-2005>
3.71750545501709

$$$$
87
                    3D
 Structure written by MMmdl.
171179  0  0  1  0            999 V2000
  -30.7485  -14.5635   20.6445 C   0  0  0  0  0  0
  -30.3977  -12.3861   19.4913 C   0  0  0  0  0  0
  -29.4979  -12.5270   18.2527 C   0  0  0  0  0  0
  -28.0323  -12.3024   18.6530 C   0  0  0  0  0  0
  -27.6349  -13.2122   19.8323 C   0  0  2  0  0  0
  -28.6525  -13.1377   20.9796 C   0  0  0  0  0  0
  -25.2462  -13.8153   20.5564 C   0  0  0  0  0  0
  -24.1791  -13.0463   20.9202 C   0  0  0  0  0  0
  -24.6353  -11.6916   20.8752 C   0  0  0  0  0  0
  -23.9023  -10.4343   21.0426 C   0  0  0  0  0  0
  -24.3563   -9.4232   21.9186 C   0  0  0  0  0  0
  -23.6304   -8.2249   22.0719 C   0  0  0  0  0  0
  -22.4308   -8.0253   21.3492 C   0  0  0  0  0  0
  -21.9941   -9.0240   20.4613 C   0  0  0  0  0  0
  -22.7204  -10.2159   20.3061 C   0  0  0  0  0  0
  -21.6846   -6.0747   22.5313 C   0  0  0  0  0  0
  -21.4058   -6.5678   23.8248 C   0  0  0  0  0  0
  -21.3653   -5.6845   24.9205 C   0  0  0  0  0  0
  -21.6028   -4.3100   24.7305 C   0  0  0  0  0  0
  -21.8796   -3.8167   23.4422 C   0  0  0  0  0  0
  -21.9228   -4.6986   22.3448 C   0  0  0  0  0  0
  -22.7817  -13.5187   21.1912 C   0  0  0  0  0  0
  -22.1670   -4.2135   21.1012 F   0  0  0  0  0  0
  -21.5569   -3.4620   25.7819 F   0  0  0  0  0  0
  -30.0030  -13.4256   20.4658 N   0  0  0  0  0  0
  -26.2882  -12.9347   20.3126 N   0  0  0  0  0  0
  -25.9269  -11.6500   20.5734 N   0  0  0  0  0  0
  -22.0483  -12.8181   22.0444 N   0  0  0  0  0  0
  -25.4119  -15.1846   20.3800 N   0  0  0  0  0  0
  -31.8119  -14.7026   20.0303 O   0  0  0  0  0  0
  -21.6607   -6.8884   21.4255 O   0  0  0  0  0  0
  -22.3540  -14.5542   20.6768 O   0  0  0  0  0  0
  -24.6231  -31.8646   23.2023 C   0  0  0  0  0  0
  -25.9087  -32.4828   23.8356 C   0  0  1  0  0  0
  -27.2569  -27.3852   20.0805 C   0  0  0  0  0  0
  -25.5879  -33.8627   24.2273 N   0  0  0  0  0  0
  -23.4177  -30.4840   21.5420 C   0  0  2  0  0  0
  -24.8680  -28.9324   20.1198 C   0  0  0  0  0  0
  -22.7538  -29.4622   22.4950 C   0  0  0  0  0  0
  -18.0399  -28.1375   22.8487 C   0  0  0  0  0  0
  -24.1474  -36.7354   23.2632 C   0  0  0  0  0  0
  -25.9538  -30.8050   21.3745 C   0  0  0  0  0  0
  -26.0299  -29.4331   20.7223 C   0  0  0  0  0  0
  -27.2201  -28.6574   20.7142 C   0  0  0  0  0  0
  -26.0717  -26.9134   19.4766 C   0  0  0  0  0  0
  -24.8824  -27.6688   19.5027 C   0  0  0  0  0  0
  -23.6317  -29.8082   20.1608 C   0  0  0  0  0  0
  -25.4085  -36.3107   24.0319 C   0  0  1  0  0  0
  -20.5961  -28.3796   23.1422 C   0  0  2  0  0  0
  -20.6951  -26.9535   22.5547 C   0  0  0  0  0  0
  -19.6004  -26.6563   21.5240 C   0  0  0  0  0  0
  -18.2168  -26.7923   22.1637 C   0  0  0  0  0  0
  -19.1596  -28.8918   23.2890 C   0  0  0  0  0  0
  -18.9421  -30.1515   23.8869 C   0  0  0  0  0  0
  -17.6398  -30.6598   24.0521 C   0  0  0  0  0  0
  -25.9033  -34.9480   23.5085 C   0  0  0  0  0  0
  -16.5333  -29.8998   23.6343 C   0  0  0  0  0  0
  -16.7348  -28.6411   23.0383 C   0  0  0  0  0  0
  -26.4492  -31.6667   25.0749 C   0  0  0  0  0  0
  -25.3774  -31.3864   26.1544 C   0  0  0  0  0  0
  -27.0352  -30.3056   24.6259 C   0  0  0  0  0  0
  -27.6003  -32.4467   25.7530 C   0  0  0  0  0  0
  -27.5579  -37.1822   24.8436 C   0  0  0  0  0  0
  -21.4233  -29.3157   22.3811 N   0  0  0  0  0  0
  -26.4294  -37.3774   23.9393 N   0  0  0  0  0  0
  -24.6825  -31.0685   22.0961 N   0  0  0  0  0  0
  -23.4287  -28.8096   23.2975 O   0  0  0  0  0  0
  -28.4262  -26.6305   20.1003 O   0  0  0  0  0  0
  -26.5627  -34.8918   22.4654 O   0  0  0  0  0  0
  -23.5398  -32.1413   23.7371 O   0  0  0  0  0  0
  -29.0415  -23.0268   19.8559 C   0  0  0  0  0  0
  -27.6240  -23.5092   18.0035 C   0  0  0  0  0  0
  -28.1057  -24.1550   19.3152 C   0  0  1  0  0  0
  -28.2748  -21.7108   19.5005 C   0  0  1  0  0  0
  -29.5652  -20.4664   22.0132 C   0  0  0  0  0  0
  -30.0276  -14.2222   23.6357 C   0  0  0  0  0  0
  -30.5589  -16.6341   23.8372 C   0  0  0  0  0  0
  -28.6670  -25.6106   19.0932 C   0  0  0  0  0  0
  -28.9652  -20.2657   19.4899 C   0  0  0  0  0  0
  -29.3464  -18.0632   21.0556 C   0  0  0  0  0  0
  -30.5263  -17.0048   20.9439 C   0  0  0  0  0  0
  -29.6805  -19.6020   20.7445 C   0  0  2  0  0  0
  -30.7014  -15.4100   22.9050 C   0  0  0  0  0  0
  -30.2944  -15.5861   21.4609 N   0  0  0  0  0  0
  -27.6637  -22.0353   18.1813 N   0  3  0  0  0  0
  -31.4470  -12.4485   19.2068 H   0  0  0  0  0  0
  -30.2756  -11.4074   19.9495 H   0  0  0  0  0  0
  -29.7954  -11.8106   17.4836 H   0  0  0  0  0  0
  -29.6094  -13.5271   17.8306 H   0  0  0  0  0  0
  -27.9039  -11.2621   18.9590 H   0  0  0  0  0  0
  -27.3716  -12.4456   17.8028 H   0  0  0  0  0  0
  -27.6392  -14.2333   19.4491 H   0  0  0  0  0  0
  -28.6317  -12.1735   21.4816 H   0  0  0  0  0  0
  -28.3166  -13.8813   21.6939 H   0  0  0  0  0  0
  -25.2632   -9.5791   22.4823 H   0  0  0  0  0  0
  -23.9989   -7.4706   22.7480 H   0  0  0  0  0  0
  -21.0849   -8.8767   19.8990 H   0  0  0  0  0  0
  -22.3538  -10.9726   19.6241 H   0  0  0  0  0  0
  -21.2019   -7.6174   23.9777 H   0  0  0  0  0  0
  -21.1468   -6.0528   25.9095 H   0  0  0  0  0  0
  -22.0554   -2.7638   23.2937 H   0  0  0  0  0  0
  -22.4104  -11.9826   22.4815 H   0  0  0  0  0  0
  -21.1150  -13.1293   22.2763 H   0  0  0  0  0  0
  -24.6109  -15.8059   20.3887 H   0  0  0  0  0  0
  -26.2358  -15.6095   19.9807 H   0  0  0  0  0  0
  -26.7174  -32.5473   23.1125 H   0  0  0  0  0  0
  -24.9988  -33.9771   25.0390 H   0  0  0  0  0  0
  -22.7075  -31.2998   21.3905 H   0  0  0  0  0  0
  -23.3711  -35.9717   23.3280 H   0  0  0  0  0  0
  -24.3583  -36.9010   22.2062 H   0  0  0  0  0  0
  -23.7286  -37.6559   23.6687 H   0  0  0  0  0  0
  -26.0920  -31.5612   20.6016 H   0  0  0  0  0  0
  -26.8343  -30.8506   22.0032 H   0  0  0  0  0  0
  -28.1118  -29.0311   21.1968 H   0  0  0  0  0  0
  -26.0425  -25.9455   18.9965 H   0  0  0  0  0  0
  -23.9893  -27.2672   19.0437 H   0  0  0  0  0  0
  -23.7570  -30.5747   19.3974 H   0  0  0  0  0  0
  -22.7583  -29.2298   19.8589 H   0  0  0  0  0  0
  -25.1277  -36.1949   25.0829 H   0  0  0  0  0  0
  -21.0008  -28.3417   24.1549 H   0  0  0  0  0  0
  -20.5798  -26.2418   23.3735 H   0  0  0  0  0  0
  -21.6892  -26.7600   22.1494 H   0  0  0  0  0  0
  -19.7347  -25.6574   21.1106 H   0  0  0  0  0  0
  -19.7017  -27.3568   20.6933 H   0  0  0  0  0  0
  -17.4451  -26.6556   21.4062 H   0  0  0  0  0  0
  -18.0740  -26.0060   22.9068 H   0  0  0  0  0  0
  -19.7855  -30.7395   24.2231 H   0  0  0  0  0  0
  -17.4824  -31.6304   24.5051 H   0  0  0  0  0  0
  -15.5290  -30.2814   23.7617 H   0  0  0  0  0  0
  -15.8763  -28.0653   22.7163 H   0  0  0  0  0  0
  -24.5811  -30.7342   25.7955 H   0  0  0  0  0  0
  -24.9157  -32.3100   26.5064 H   0  0  0  0  0  0
  -25.8163  -30.8986   27.0272 H   0  0  0  0  0  0
  -26.2953  -29.6804   24.1240 H   0  0  0  0  0  0
  -27.3982  -29.7330   25.4832 H   0  0  0  0  0  0
  -27.8852  -30.4322   23.9535 H   0  0  0  0  0  0
  -27.2473  -33.3662   26.2217 H   0  0  0  0  0  0
  -28.3738  -32.7260   25.0365 H   0  0  0  0  0  0
  -28.0776  -31.8602   26.5393 H   0  0  0  0  0  0
  -28.2569  -38.0133   24.7468 H   0  0  0  0  0  0
  -28.1100  -36.2675   24.6247 H   0  0  0  0  0  0
  -27.2330  -37.1466   25.8844 H   0  0  0  0  0  0
  -20.9352  -29.9121   21.7264 H   0  0  0  0  0  0
  -26.0172  -38.2866   24.1319 H   0  0  0  0  0  0
  -29.2055  -23.1771   20.9206 H   0  0  0  0  0  0
  -30.0147  -23.0367   19.3569 H   0  0  0  0  0  0
  -28.2996  -23.7686   17.1877 H   0  0  0  0  0  0
  -26.6334  -23.8592   17.7059 H   0  0  0  0  0  0
  -27.2405  -24.2195   19.9780 H   0  0  0  0  0  0
  -27.4492  -21.6531   20.2099 H   0  0  0  0  0  0
  -28.5288  -20.6571   22.3040 H   0  0  0  0  0  0
  -30.0563  -21.4286   21.8764 H   0  0  0  0  0  0
  -30.0733  -20.0036   22.8581 H   0  0  0  0  0  0
  -30.3009  -14.1945   24.6907 H   0  0  0  0  0  0
  -30.3192  -13.2527   23.2334 H   0  0  0  0  0  0
  -28.9382  -14.3009   23.6411 H   0  0  0  0  0  0
  -29.5258  -16.9500   23.9499 H   0  0  0  0  0  0
  -31.1645  -17.4948   23.5502 H   0  0  0  0  0  0
  -30.9020  -16.3658   24.8394 H   0  0  0  0  0  0
  -28.3003  -26.0082   18.1475 H   0  0  0  0  0  0
  -29.7426  -25.5432   18.9370 H   0  0  0  0  0  0
  -29.6714  -20.2262   18.6568 H   0  0  0  0  0  0
  -28.1702  -19.5749   19.2036 H   0  0  0  0  0  0
  -28.9508  -18.0071   22.0643 H   0  0  0  0  0  0
  -28.5165  -17.7255   20.4371 H   0  0  0  0  0  0
  -30.7976  -16.9830   19.8879 H   0  0  0  0  0  0
  -31.4268  -17.4024   21.4112 H   0  0  0  0  0  0
  -30.7448  -19.6238   20.5121 H   0  0  0  0  0  0
  -31.7698  -15.1859   22.8903 H   0  0  0  0  0  0
  -28.2282  -21.6600   17.4343 H   0  0  0  0  0  0
  -26.7343  -21.6482   18.0769 H   0  0  0  0  0  0
  1 25  1  0  0  0
  1 30  2  0  0  0
  1 84  1  0  0  0
  2  3  1  0  0  0
  2 25  1  0  0  0
  2 86  1  0  0  0
  2 87  1  0  0  0
  3  4  1  0  0  0
  3 88  1  0  0  0
  3 89  1  0  0  0
  4  5  1  0  0  0
  4 90  1  0  0  0
  4 91  1  0  0  0
  5  6  1  0  0  0
  5 26  1  0  0  0
  5 92  1  0  0  0
  6 25  1  0  0  0
  6 93  1  0  0  0
  6 94  1  0  0  0
  7  8  2  0  0  0
  7 26  1  0  0  0
  7 29  1  0  0  0
  8  9  1  0  0  0
  8 22  1  0  0  0
  9 10  1  0  0  0
  9 27  2  0  0  0
 10 11  2  0  0  0
 10 15  1  0  0  0
 11 12  1  0  0  0
 11 95  1  0  0  0
 12 13  2  0  0  0
 12 96  1  0  0  0
 13 14  1  0  0  0
 13 31  1  0  0  0
 14 15  2  0  0  0
 14 97  1  0  0  0
 15 98  1  0  0  0
 16 17  2  0  0  0
 16 21  1  0  0  0
 16 31  1  0  0  0
 17 18  1  0  0  0
 17 99  1  0  0  0
 18 19  2  0  0  0
 18100  1  0  0  0
 19 20  1  0  0  0
 19 24  1  0  0  0
 20 21  2  0  0  0
 20101  1  0  0  0
 21 23  1  0  0  0
 22 28  1  0  0  0
 22 32  2  0  0  0
 26 27  1  0  0  0
 28102  1  0  0  0
 28103  1  0  0  0
 29104  1  0  0  0
 29105  1  0  0  0
 33 34  1  0  0  0
 33 66  1  0  0  0
 33 70  2  0  0  0
 34 36  1  0  0  0
 34 59  1  0  0  0
 34106  1  0  0  0
 35 44  2  0  0  0
 35 45  1  0  0  0
 35 68  1  0  0  0
 36 56  1  0  0  0
 36107  1  0  0  0
 37 39  1  0  0  0
 37 47  1  0  0  0
 37 66  1  0  0  0
 37108  1  0  0  0
 38 43  2  0  0  0
 38 46  1  0  0  0
 38 47  1  0  0  0
 39 64  1  0  0  0
 39 67  2  0  0  0
 40 52  1  0  0  0
 40 53  2  0  0  0
 40 58  1  0  0  0
 41109  1  0  0  0
 41110  1  0  0  0
 41111  1  0  0  0
 41 48  1  0  0  0
 42 43  1  0  0  0
 42 66  1  0  0  0
 42112  1  0  0  0
 42113  1  0  0  0
 43 44  1  0  0  0
 44114  1  0  0  0
 45 46  2  0  0  0
 45115  1  0  0  0
 46116  1  0  0  0
 47117  1  0  0  0
 47118  1  0  0  0
 48 56  1  0  0  0
 48 65  1  0  0  0
 48119  1  0  0  0
 49 50  1  0  0  0
 49 53  1  0  0  0
 49 64  1  0  0  0
 49120  1  0  0  0
 50 51  1  0  0  0
 50121  1  0  0  0
 50122  1  0  0  0
 51 52  1  0  0  0
 51123  1  0  0  0
 51124  1  0  0  0
 52125  1  0  0  0
 52126  1  0  0  0
 53 54  1  0  0  0
 54 55  2  0  0  0
 54127  1  0  0  0
 55 57  1  0  0  0
 55128  1  0  0  0
 56 69  2  0  0  0
 57 58  2  0  0  0
 57129  1  0  0  0
 58130  1  0  0  0
 59 60  1  0  0  0
 59 61  1  0  0  0
 59 62  1  0  0  0
 60131  1  0  0  0
 60132  1  0  0  0
 60133  1  0  0  0
 61134  1  0  0  0
 61135  1  0  0  0
 61136  1  0  0  0
 62137  1  0  0  0
 62138  1  0  0  0
 62139  1  0  0  0
 63 65  1  0  0  0
 63140  1  0  0  0
 63141  1  0  0  0
 63142  1  0  0  0
 64143  1  0  0  0
 65144  1  0  0  0
 68 78  1  0  0  0
 71 73  1  0  0  0
 71 74  1  0  0  0
 71145  1  0  0  0
 71146  1  0  0  0
 72 73  1  0  0  0
 72 85  1  0  0  0
 72147  1  0  0  0
 72148  1  0  0  0
 73 78  1  0  0  0
 73149  1  0  0  0
 74 79  1  0  0  0
 74 85  1  0  0  0
 74150  1  0  0  0
 75151  1  0  0  0
 75152  1  0  0  0
 75153  1  0  0  0
 75 82  1  0  0  0
 76154  1  0  0  0
 76155  1  0  0  0
 76156  1  0  0  0
 76 83  1  0  0  0
 77 83  1  0  0  0
 77157  1  0  0  0
 77158  1  0  0  0
 77159  1  0  0  0
 78160  1  0  0  0
 78161  1  0  0  0
 79 82  1  0  0  0
 79162  1  0  0  0
 79163  1  0  0  0
 80 81  1  0  0  0
 80 82  1  0  0  0
 80164  1  0  0  0
 80165  1  0  0  0
 81 84  1  0  0  0
 81166  1  0  0  0
 81167  1  0  0  0
 82168  1  0  0  0
 83 84  1  0  0  0
 83169  1  0  0  0
 85170  1  0  0  0
 85171  1  0  0  0
M  CHG  1  85   1
M  ISO  4   1 100  68 101  78 101  84 100
M  END
> <chiral flag>
0

> <version>
0

> <s_m_source_file>
/data/baiqing/PycharmProjects/Reinvent-master-3.2/result/LINK_invent/BTK/process_docking_weight1_custom_sum_contain_oxygen_bond_distance_aromatic_linkinvent_7_9_3/rearranged_h_0102.sdf

> <i_m_source_file_index>
87

> <r_mmod_Potential_Energy-OPLS-2005>
255.08332824707

> <r_mmod_Stretch_Energy-OPLS-2005>
83.1605911254883

> <r_mmod_Bend_Energy-OPLS-2005>
210.413299560547

> <r_mmod_Torsional_Energy-OPLS-2005>
375.706237792969

> <r_mmod_Improper_Torsional_Energy-OPLS-2005>
7.07500123977661

> <r_mmod_Van_der_Waal_Energy-OPLS-2005>
141.921325683594

> <r_mmod_Electrostatic_Energy-OPLS-2005>
-153.753326416016

> <r_mmod_Solvation_Energy-OPLS-2005>
-441.472473144531

> <b_mmod_Minimization_Converged-OPLS-2005>
0

> <r_mmod_RMS_Derivative-OPLS-2005>
9.27531242370605

$$$$
88
                    3D
 Structure written by MMmdl.
168176  0  0  1  0            999 V2000
  -30.6379  -14.6713   20.4506 C   0  0  0  0  0  0
  -30.4137  -12.4039   19.4631 C   0  0  0  0  0  0
  -29.4954  -12.4999   18.2255 C   0  0  0  0  0  0
  -28.0230  -12.3283   18.6427 C   0  0  0  0  0  0
  -27.6389  -13.2247   19.8503 C   0  0  2  0  0  0
  -28.6831  -13.1438   20.9864 C   0  0  0  0  0  0
  -25.2515  -13.8194   20.5693 C   0  0  0  0  0  0
  -24.1792  -13.0449   20.9209 C   0  0  0  0  0  0
  -24.6379  -11.6920   20.8754 C   0  0  0  0  0  0
  -23.9063  -10.4300   21.0418 C   0  0  0  0  0  0
  -24.3629   -9.4205   21.9188 C   0  0  0  0  0  0
  -23.6308   -8.2232   22.0758 C   0  0  0  0  0  0
  -22.4288   -8.0273   21.3540 C   0  0  0  0  0  0
  -21.9916   -9.0248   20.4648 C   0  0  0  0  0  0
  -22.7239  -10.2132   20.3066 C   0  0  0  0  0  0
  -21.6857   -6.0744   22.5279 C   0  0  0  0  0  0
  -21.4014   -6.5644   23.8212 C   0  0  0  0  0  0
  -21.3662   -5.6790   24.9166 C   0  0  0  0  0  0
  -21.6055   -4.3057   24.7212 C   0  0  0  0  0  0
  -21.8823   -3.8154   23.4329 C   0  0  0  0  0  0
  -21.9200   -4.6972   22.3391 C   0  0  0  0  0  0
  -22.7824  -13.5221   21.1916 C   0  0  0  0  0  0
  -22.1660   -4.2168   21.0960 F   0  0  0  0  0  0
  -21.5631   -3.4539   25.7717 F   0  0  0  0  0  0
  -29.9940  -13.4622   20.4044 N   0  0  0  0  0  0
  -26.2914  -12.9377   20.3284 N   0  0  0  0  0  0
  -25.9299  -11.6519   20.5745 N   0  0  0  0  0  0
  -22.0494  -12.8166   22.0456 N   0  0  0  0  0  0
  -25.4239  -15.1923   20.4094 N   0  0  0  0  0  0
  -31.8232  -14.7676   20.1247 O   0  0  0  0  0  0
  -21.6637   -6.8886   21.4242 O   0  0  0  0  0  0
  -22.3478  -14.5546   20.6808 O   0  0  0  0  0  0
  -24.6293  -31.8555   23.2014 C   0  0  0  0  0  0
  -25.9129  -32.4751   23.8342 C   0  0  1  0  0  0
  -27.2145  -27.2769   20.1105 C   0  0  0  0  0  0
  -25.5930  -33.8559   24.2266 N   0  0  0  0  0  0
  -23.4236  -30.4825   21.5439 C   0  0  2  0  0  0
  -24.8663  -28.9345   20.1080 C   0  0  0  0  0  0
  -22.7479  -29.4623   22.4912 C   0  0  0  0  0  0
  -18.0287  -28.1395   22.8482 C   0  0  0  0  0  0
  -24.1493  -36.7286   23.2637 C   0  0  0  0  0  0
  -25.9688  -30.7726   21.3794 C   0  0  0  0  0  0
  -26.0368  -29.3981   20.7179 C   0  0  0  0  0  0
  -27.2083  -28.5795   20.7120 C   0  0  0  0  0  0
  -26.0119  -26.8723   19.4839 C   0  0  0  0  0  0
  -24.8590  -27.6783   19.4840 C   0  0  0  0  0  0
  -23.6377  -29.8207   20.1581 C   0  0  0  0  0  0
  -25.4115  -36.3068   24.0322 C   0  0  1  0  0  0
  -20.5886  -28.3709   23.1271 C   0  0  2  0  0  0
  -20.6778  -26.9424   22.5429 C   0  0  0  0  0  0
  -19.5768  -26.6393   21.5215 C   0  0  0  0  0  0
  -18.1936  -26.7940   22.1601 C   0  0  0  0  0  0
  -19.1538  -28.8864   23.2873 C   0  0  0  0  0  0
  -18.9457  -30.1459   23.8903 C   0  0  0  0  0  0
  -17.6459  -30.6598   24.0568 C   0  0  0  0  0  0
  -25.9053  -34.9438   23.5093 C   0  0  0  0  0  0
  -16.5353  -29.9093   23.6333 C   0  0  0  0  0  0
  -16.7273  -28.6509   23.0356 C   0  0  0  0  0  0
  -26.4503  -31.6575   25.0729 C   0  0  0  0  0  0
  -25.3742  -31.3724   26.1458 C   0  0  0  0  0  0
  -27.0331  -30.2983   24.6225 C   0  0  0  0  0  0
  -27.6062  -32.4311   25.7496 C   0  0  0  0  0  0
  -27.5592  -37.1784   24.8447 C   0  0  0  0  0  0
  -21.4192  -29.3048   22.3651 N   0  0  0  0  0  0
  -26.4285  -37.3773   23.9416 N   0  0  0  0  0  0
  -24.6930  -31.0545   22.0977 N   0  0  0  0  0  0
  -23.4175  -28.8151   23.3003 O   0  0  0  0  0  0
  -28.3409  -26.4290   20.1941 O   0  0  0  0  0  0
  -26.5633  -34.8917   22.4670 O   0  0  0  0  0  0
  -23.5454  -32.1361   23.7343 O   0  0  0  0  0  0
  -29.5533  -19.7535   20.1421 C   0  0  0  0  0  0
  -28.2461  -20.8804   21.8299 C   0  0  0  0  0  0
  -28.9363  -20.9719   20.6107 C   0  0  0  0  0  0
  -29.5409  -18.5053   20.8760 C   0  0  0  0  0  0
  -28.1830  -19.6783   22.5759 C   0  0  0  0  0  0
  -28.8918  -18.5156   22.1451 C   0  0  0  0  0  0
  -28.9951  -17.3074   23.0743 C   0  0  0  0  0  0
  -25.9524  -20.3256   23.6655 C   0  0  0  0  0  0
  -28.1070  -20.3056   25.0303 C   0  0  0  0  0  0
  -29.5695  -25.2127   18.5636 C   0  0  0  0  0  0
  -28.9225  -22.3338   19.7985 C   0  0  0  0  0  0
  -30.2995  -17.2277   20.3154 C   0  0  0  0  0  0
  -28.6672  -23.7669   20.5070 C   0  0  0  0  0  0
  -27.3388  -19.6779   23.8569 C   0  0  0  0  0  0
  -28.4329  -25.0658   19.5804 C   0  0  1  0  0  0
  -29.8767  -15.8038   20.6222 N   0  0  0  0  0  0
  -31.4599  -12.4973   19.1675 H   0  0  0  0  0  0
  -30.3176  -11.4248   19.9354 H   0  0  0  0  0  0
  -29.7665  -11.7379   17.4935 H   0  0  0  0  0  0
  -29.6313  -13.4629   17.7303 H   0  0  0  0  0  0
  -27.8787  -11.2785   18.9005 H   0  0  0  0  0  0
  -27.3623  -12.5246   17.7977 H   0  0  0  0  0  0
  -27.6390  -14.2481   19.4754 H   0  0  0  0  0  0
  -28.6959  -12.1490   21.4345 H   0  0  0  0  0  0
  -28.4279  -13.8385   21.7874 H   0  0  0  0  0  0
  -25.2783   -9.5674   22.4748 H   0  0  0  0  0  0
  -24.0042   -7.4608   22.7454 H   0  0  0  0  0  0
  -21.0863   -8.8743   19.8931 H   0  0  0  0  0  0
  -22.3702  -10.9663   19.6165 H   0  0  0  0  0  0
  -21.1997   -7.6151   23.9723 H   0  0  0  0  0  0
  -21.1490   -6.0512   25.9076 H   0  0  0  0  0  0
  -22.0616   -2.7617   23.2810 H   0  0  0  0  0  0
  -22.4137  -11.9786   22.4729 H   0  0  0  0  0  0
  -21.1141  -13.1182   22.2794 H   0  0  0  0  0  0
  -24.6580  -15.8489   20.5120 H   0  0  0  0  0  0
  -26.2737  -15.6281   20.0784 H   0  0  0  0  0  0
  -26.7196  -32.5393   23.1076 H   0  0  0  0  0  0
  -25.0063  -33.9694   25.0403 H   0  0  0  0  0  0
  -22.7203  -31.3055   21.4026 H   0  0  0  0  0  0
  -23.3765  -35.9605   23.3254 H   0  0  0  0  0  0
  -24.3602  -36.8960   22.2065 H   0  0  0  0  0  0
  -23.7226  -37.6466   23.6689 H   0  0  0  0  0  0
  -26.1098  -31.5359   20.6130 H   0  0  0  0  0  0
  -26.8463  -30.8150   22.0134 H   0  0  0  0  0  0
  -28.1050  -28.9276   21.2054 H   0  0  0  0  0  0
  -25.8985  -25.9147   19.0057 H   0  0  0  0  0  0
  -23.9587  -27.3150   19.0076 H   0  0  0  0  0  0
  -23.7615  -30.5991   19.4043 H   0  0  0  0  0  0
  -22.7548  -29.2561   19.8527 H   0  0  0  0  0  0
  -25.1302  -36.1912   25.0812 H   0  0  0  0  0  0
  -20.9982  -28.3300   24.1385 H   0  0  0  0  0  0
  -20.5659  -26.2321   23.3635 H   0  0  0  0  0  0
  -21.6650  -26.7440   22.1234 H   0  0  0  0  0  0
  -19.6930  -25.6294   21.1263 H   0  0  0  0  0  0
  -19.6728  -27.3193   20.6736 H   0  0  0  0  0  0
  -17.4217  -26.6702   21.3989 H   0  0  0  0  0  0
  -18.0319  -26.0080   22.8993 H   0  0  0  0  0  0
  -19.7928  -30.7275   24.2280 H   0  0  0  0  0  0
  -17.5009  -31.6274   24.5174 H   0  0  0  0  0  0
  -15.5352  -30.2997   23.7659 H   0  0  0  0  0  0
  -15.8671  -28.0835   22.7073 H   0  0  0  0  0  0
  -24.5950  -30.7018   25.7809 H   0  0  0  0  0  0
  -24.8891  -32.2888   26.4836 H   0  0  0  0  0  0
  -25.8085  -30.8963   27.0260 H   0  0  0  0  0  0
  -26.2901  -29.6737   24.1251 H   0  0  0  0  0  0
  -27.3982  -29.7248   25.4755 H   0  0  0  0  0  0
  -27.8803  -30.4227   23.9477 H   0  0  0  0  0  0
  -27.2668  -33.3603   26.2090 H   0  0  0  0  0  0
  -28.3867  -32.6886   25.0320 H   0  0  0  0  0  0
  -28.0739  -31.8426   26.5402 H   0  0  0  0  0  0
  -28.2569  -38.0124   24.7554 H   0  0  0  0  0  0
  -28.1134  -36.2657   24.6189 H   0  0  0  0  0  0
  -27.2329  -37.1343   25.8855 H   0  0  0  0  0  0
  -20.9364  -29.8754   21.6856 H   0  0  0  0  0  0
  -26.0161  -38.2834   24.1471 H   0  0  0  0  0  0
  -30.0638  -19.7744   19.1889 H   0  0  0  0  0  0
  -27.7433  -21.7563   22.2034 H   0  0  0  0  0  0
  -29.9403  -16.7831   22.9489 H   0  0  0  0  0  0
  -28.1732  -16.6110   22.9083 H   0  0  0  0  0  0
  -28.9944  -17.5955   24.1254 H   0  0  0  0  0  0
  -25.4097  -19.8523   22.8454 H   0  0  0  0  0  0
  -26.0023  -21.3952   23.4630 H   0  0  0  0  0  0
  -25.3454  -20.2033   24.5621 H   0  0  0  0  0  0
  -29.0271  -19.7574   25.2365 H   0  0  0  0  0  0
  -27.5083  -20.2912   25.9410 H   0  0  0  0  0  0
  -28.3792  -21.3423   24.8281 H   0  0  0  0  0  0
  -29.6799  -24.3180   17.9516 H   0  0  0  0  0  0
  -30.5213  -25.4034   19.0601 H   0  0  0  0  0  0
  -29.3715  -26.0434   17.8858 H   0  0  0  0  0  0
  -28.1640  -22.2125   19.0242 H   0  0  0  0  0  0
  -29.8717  -22.3834   19.2636 H   0  0  0  0  0  0
  -31.3424  -17.3371   20.6176 H   0  0  0  0  0  0
  -30.3068  -17.3129   19.2279 H   0  0  0  0  0  0
  -29.4961  -23.9646   21.1872 H   0  0  0  0  0  0
  -27.7846  -23.6850   21.1394 H   0  0  0  0  0  0
  -27.1068  -18.6490   24.1267 H   0  0  0  0  0  0
  -27.5587  -24.8277   18.9850 H   0  0  0  0  0  0
  -28.9033  -15.6636   20.8425 H   0  0  0  0  0  0
  1 25  1  0  0  0
  1 30  2  0  0  0
  1 86  1  0  0  0
  2  3  1  0  0  0
  2 25  1  0  0  0
  2 87  1  0  0  0
  2 88  1  0  0  0
  3  4  1  0  0  0
  3 89  1  0  0  0
  3 90  1  0  0  0
  4  5  1  0  0  0
  4 91  1  0  0  0
  4 92  1  0  0  0
  5  6  1  0  0  0
  5 26  1  0  0  0
  5 93  1  0  0  0
  6 25  1  0  0  0
  6 94  1  0  0  0
  6 95  1  0  0  0
  7  8  2  0  0  0
  7 26  1  0  0  0
  7 29  1  0  0  0
  8  9  1  0  0  0
  8 22  1  0  0  0
  9 10  1  0  0  0
  9 27  2  0  0  0
 10 11  2  0  0  0
 10 15  1  0  0  0
 11 12  1  0  0  0
 11 96  1  0  0  0
 12 13  2  0  0  0
 12 97  1  0  0  0
 13 14  1  0  0  0
 13 31  1  0  0  0
 14 15  2  0  0  0
 14 98  1  0  0  0
 15 99  1  0  0  0
 16 17  2  0  0  0
 16 21  1  0  0  0
 16 31  1  0  0  0
 17 18  1  0  0  0
 17100  1  0  0  0
 18 19  2  0  0  0
 18101  1  0  0  0
 19 20  1  0  0  0
 19 24  1  0  0  0
 20 21  2  0  0  0
 20102  1  0  0  0
 21 23  1  0  0  0
 22 28  1  0  0  0
 22 32  2  0  0  0
 26 27  1  0  0  0
 28103  1  0  0  0
 28104  1  0  0  0
 29105  1  0  0  0
 29106  1  0  0  0
 33 34  1  0  0  0
 33 66  1  0  0  0
 33 70  2  0  0  0
 34 36  1  0  0  0
 34 59  1  0  0  0
 34107  1  0  0  0
 35 44  2  0  0  0
 35 45  1  0  0  0
 35 68  1  0  0  0
 36 56  1  0  0  0
 36108  1  0  0  0
 37 39  1  0  0  0
 37 47  1  0  0  0
 37 66  1  0  0  0
 37109  1  0  0  0
 38 43  2  0  0  0
 38 46  1  0  0  0
 38 47  1  0  0  0
 39 64  1  0  0  0
 39 67  2  0  0  0
 40 52  1  0  0  0
 40 53  2  0  0  0
 40 58  1  0  0  0
 41110  1  0  0  0
 41111  1  0  0  0
 41112  1  0  0  0
 41 48  1  0  0  0
 42 43  1  0  0  0
 42 66  1  0  0  0
 42113  1  0  0  0
 42114  1  0  0  0
 43 44  1  0  0  0
 44115  1  0  0  0
 45 46  2  0  0  0
 45116  1  0  0  0
 46117  1  0  0  0
 47118  1  0  0  0
 47119  1  0  0  0
 48 56  1  0  0  0
 48 65  1  0  0  0
 48120  1  0  0  0
 49 50  1  0  0  0
 49 53  1  0  0  0
 49 64  1  0  0  0
 49121  1  0  0  0
 50 51  1  0  0  0
 50122  1  0  0  0
 50123  1  0  0  0
 51 52  1  0  0  0
 51124  1  0  0  0
 51125  1  0  0  0
 52126  1  0  0  0
 52127  1  0  0  0
 53 54  1  0  0  0
 54 55  2  0  0  0
 54128  1  0  0  0
 55 57  1  0  0  0
 55129  1  0  0  0
 56 69  2  0  0  0
 57 58  2  0  0  0
 57130  1  0  0  0
 58131  1  0  0  0
 59 60  1  0  0  0
 59 61  1  0  0  0
 59 62  1  0  0  0
 60132  1  0  0  0
 60133  1  0  0  0
 60134  1  0  0  0
 61135  1  0  0  0
 61136  1  0  0  0
 61137  1  0  0  0
 62138  1  0  0  0
 62139  1  0  0  0
 62140  1  0  0  0
 63 65  1  0  0  0
 63141  1  0  0  0
 63142  1  0  0  0
 63143  1  0  0  0
 64144  1  0  0  0
 65145  1  0  0  0
 68 85  1  0  0  0
 71 73  2  0  0  0
 71 74  1  0  0  0
 71146  1  0  0  0
 72 73  1  0  0  0
 72 75  2  0  0  0
 72147  1  0  0  0
 73 81  1  0  0  0
 74 76  2  0  0  0
 74 82  1  0  0  0
 75 76  1  0  0  0
 75 84  1  0  0  0
 76 77  1  0  0  0
 77148  1  0  0  0
 77149  1  0  0  0
 77150  1  0  0  0
 78151  1  0  0  0
 78152  1  0  0  0
 78153  1  0  0  0
 78 84  1  0  0  0
 79 84  1  0  0  0
 79154  1  0  0  0
 79155  1  0  0  0
 79156  1  0  0  0
 80157  1  0  0  0
 80158  1  0  0  0
 80159  1  0  0  0
 80 85  1  0  0  0
 81 83  1  0  0  0
 81160  1  0  0  0
 81161  1  0  0  0
 82 86  1  0  0  0
 82162  1  0  0  0
 82163  1  0  0  0
 83 85  1  0  0  0
 83164  1  0  0  0
 83165  1  0  0  0
 84166  1  0  0  0
 85167  1  0  0  0
 86168  1  0  0  0
M  ISO  4   1 100  68 101  85 101  86 100
M  END
> <chiral flag>
0

> <version>
0

> <s_m_source_file>
/data/baiqing/PycharmProjects/Reinvent-master-3.2/result/LINK_invent/BTK/process_docking_weight1_custom_sum_contain_oxygen_bond_distance_aromatic_linkinvent_7_9_3/rearranged_h_0102.sdf

> <i_m_source_file_index>
88

> <r_mmod_Potential_Energy-OPLS-2005>
49.3207511901855

> <r_mmod_Stretch_Energy-OPLS-2005>
105.765068054199

> <r_mmod_Bend_Energy-OPLS-2005>
162.923400878906

> <r_mmod_Torsional_Energy-OPLS-2005>
204.697448730469

> <r_mmod_Improper_Torsional_Energy-OPLS-2005>
6.28837585449219

> <r_mmod_Van_der_Waal_Energy-OPLS-2005>
149.934280395508

> <r_mmod_Electrostatic_Energy-OPLS-2005>
-450.779510498047

> <r_mmod_Solvation_Energy-OPLS-2005>
-195.148056030273

> <b_mmod_Minimization_Converged-OPLS-2005>
0

> <r_mmod_RMS_Derivative-OPLS-2005>
2.35420727729797

$$$$
89
                    3D
 Structure written by MMmdl.
160168  0  0  1  0            999 V2000
  -30.6791  -14.5597   20.5175 C   0  0  0  0  0  0
  -30.4367  -12.3504   19.4570 C   0  0  0  0  0  0
  -29.5213  -12.5144   18.2236 C   0  0  0  0  0  0
  -28.0352  -12.3667   18.6160 C   0  0  0  0  0  0
  -27.6598  -13.2257   19.8626 C   0  0  2  0  0  0
  -28.6982  -13.0595   20.9951 C   0  0  0  0  0  0
  -25.2570  -13.8184   20.5698 C   0  0  0  0  0  0
  -24.1841  -13.0435   20.9174 C   0  0  0  0  0  0
  -24.6392  -11.6931   20.8616 C   0  0  0  0  0  0
  -23.9063  -10.4295   21.0280 C   0  0  0  0  0  0
  -24.3623   -9.4233   21.9059 C   0  0  0  0  0  0
  -23.6310   -8.2260   22.0696 C   0  0  0  0  0  0
  -22.4280   -8.0276   21.3539 C   0  0  0  0  0  0
  -21.9894   -9.0233   20.4623 C   0  0  0  0  0  0
  -22.7209  -10.2114   20.2965 C   0  0  0  0  0  0
  -21.6891   -6.0733   22.5263 C   0  0  0  0  0  0
  -21.4029   -6.5630   23.8193 C   0  0  0  0  0  0
  -21.3684   -5.6751   24.9142 C   0  0  0  0  0  0
  -21.6061   -4.3033   24.7182 C   0  0  0  0  0  0
  -21.8832   -3.8127   23.4305 C   0  0  0  0  0  0
  -21.9206   -4.6964   22.3361 C   0  0  0  0  0  0
  -22.7783  -13.5277   21.1762 C   0  0  0  0  0  0
  -22.1651   -4.2151   21.0933 F   0  0  0  0  0  0
  -21.5630   -3.4523   25.7702 F   0  0  0  0  0  0
  -30.0330  -13.3606   20.4494 N   0  0  0  0  0  0
  -26.3013  -12.9394   20.3238 N   0  0  0  0  0  0
  -25.9341  -11.6550   20.5613 N   0  0  0  0  0  0
  -22.0441  -12.8335   22.0361 N   0  0  0  0  0  0
  -25.4265  -15.1879   20.4036 N   0  0  0  0  0  0
  -31.8193  -14.7205   20.0738 O   0  0  0  0  0  0
  -21.6661   -6.8876   21.4228 O   0  0  0  0  0  0
  -22.3518  -14.5584   20.6597 O   0  0  0  0  0  0
  -24.6142  -31.8644   23.2048 C   0  0  0  0  0  0
  -25.9017  -32.4807   23.8378 C   0  0  1  0  0  0
  -27.2509  -27.3979   20.1597 C   0  0  0  0  0  0
  -25.5854  -33.8611   24.2290 N   0  0  0  0  0  0
  -23.4107  -30.4842   21.5344 C   0  0  2  0  0  0
  -24.8714  -28.9355   20.1259 C   0  0  0  0  0  0
  -22.7421  -29.4658   22.4851 C   0  0  0  0  0  0
  -18.0285  -28.1417   22.8470 C   0  0  0  0  0  0
  -24.1472  -36.7312   23.2635 C   0  0  0  0  0  0
  -25.9403  -30.8243   21.3627 C   0  0  0  0  0  0
  -26.0232  -29.4465   20.7327 C   0  0  0  0  0  0
  -27.2187  -28.6860   20.7474 C   0  0  0  0  0  0
  -26.0880  -26.9056   19.5377 C   0  0  0  0  0  0
  -24.8976  -27.6649   19.5208 C   0  0  0  0  0  0
  -23.6330  -29.8069   20.1541 C   0  0  0  0  0  0
  -25.4079  -36.3087   24.0327 C   0  0  1  0  0  0
  -20.5887  -28.3710   23.1265 C   0  0  2  0  0  0
  -20.6754  -26.9425   22.5403 C   0  0  0  0  0  0
  -19.5743  -26.6415   21.5191 C   0  0  0  0  0  0
  -18.1933  -26.7966   22.1605 C   0  0  0  0  0  0
  -19.1539  -28.8872   23.2900 C   0  0  0  0  0  0
  -18.9469  -30.1469   23.8908 C   0  0  0  0  0  0
  -17.6482  -30.6626   24.0565 C   0  0  0  0  0  0
  -25.9010  -34.9462   23.5109 C   0  0  0  0  0  0
  -16.5362  -29.9121   23.6347 C   0  0  0  0  0  0
  -16.7279  -28.6545   23.0349 C   0  0  0  0  0  0
  -26.4497  -31.6609   25.0713 C   0  0  0  0  0  0
  -25.3837  -31.3746   26.1515 C   0  0  0  0  0  0
  -27.0263  -30.3006   24.6106 C   0  0  0  0  0  0
  -27.6016  -32.4392   25.7496 C   0  0  0  0  0  0
  -27.5576  -37.1787   24.8448 C   0  0  0  0  0  0
  -21.4148  -29.3080   22.3629 N   0  0  0  0  0  0
  -26.4247  -37.3776   23.9449 N   0  0  0  0  0  0
  -24.6726  -31.0741   22.0914 N   0  0  0  0  0  0
  -23.4160  -28.8208   23.2928 O   0  0  0  0  0  0
  -28.4109  -26.6534   20.0830 O   0  0  0  0  0  0
  -26.5587  -34.8907   22.4681 O   0  0  0  0  0  0
  -23.5335  -32.1389   23.7434 O   0  0  0  0  0  0
  -31.1899  -18.9798   20.8673 C   0  0  0  0  0  0
  -28.9837  -19.1816   20.7817 C   0  0  0  0  0  0
  -29.9864  -18.2638   20.5850 C   0  0  0  0  0  0
  -30.8915  -20.2996   21.1340 C   0  0  0  0  0  0
  -31.8687  -21.3974   21.4190 C   0  0  0  0  0  0
  -26.7747  -24.1415   21.7697 C   0  0  0  0  0  0
  -29.8243  -16.8365   20.0166 C   0  0  0  0  0  0
  -29.1634  -23.1109   21.3037 C   0  0  0  0  0  0
  -28.5990  -21.6509   21.1451 C   0  0  0  0  0  0
  -28.7072  -25.7050   21.1380 C   0  0  0  0  0  0
  -28.1124  -24.2601   20.9751 C   0  0  2  0  0  0
  -29.5002  -20.4568   21.0360 N   0  0  0  0  0  0
  -29.9211  -15.6251   20.8687 N   0  0  0  0  0  0
  -31.4842  -12.4519   19.1611 H   0  0  0  0  0  0
  -30.3411  -11.3509   19.8859 H   0  0  0  0  0  0
  -29.7884  -11.7801   17.4610 H   0  0  0  0  0  0
  -29.6761  -13.5004   17.7749 H   0  0  0  0  0  0
  -27.8452  -11.3099   18.8130 H   0  0  0  0  0  0
  -27.3998  -12.6323   17.7723 H   0  0  0  0  0  0
  -27.6902  -14.2678   19.5475 H   0  0  0  0  0  0
  -28.6719  -12.0465   21.3982 H   0  0  0  0  0  0
  -28.4471  -13.7097   21.8350 H   0  0  0  0  0  0
  -25.2735   -9.5809   22.4622 H   0  0  0  0  0  0
  -24.0069   -7.4711   22.7427 H   0  0  0  0  0  0
  -21.0846   -8.8765   19.8949 H   0  0  0  0  0  0
  -22.3618  -10.9655   19.6114 H   0  0  0  0  0  0
  -21.2014   -7.6132   23.9751 H   0  0  0  0  0  0
  -21.1490   -6.0431   25.9082 H   0  0  0  0  0  0
  -22.0594   -2.7620   23.2761 H   0  0  0  0  0  0
  -22.4126  -12.0132   22.4934 H   0  0  0  0  0  0
  -21.1021  -13.1343   22.2471 H   0  0  0  0  0  0
  -24.6449  -15.8276   20.5066 H   0  0  0  0  0  0
  -26.2683  -15.6437   20.0732 H   0  0  0  0  0  0
  -26.7089  -32.5541   23.1149 H   0  0  0  0  0  0
  -24.9994  -33.9783   25.0422 H   0  0  0  0  0  0
  -22.7017  -31.3003   21.3849 H   0  0  0  0  0  0
  -23.3724  -35.9660   23.3283 H   0  0  0  0  0  0
  -24.3561  -36.8957   22.2057 H   0  0  0  0  0  0
  -23.7254  -37.6508   23.6686 H   0  0  0  0  0  0
  -26.0539  -31.5778   20.5812 H   0  0  0  0  0  0
  -26.8236  -30.8878   21.9847 H   0  0  0  0  0  0
  -28.1129  -29.0867   21.2032 H   0  0  0  0  0  0
  -26.1108  -25.9344   19.0633 H   0  0  0  0  0  0
  -24.0159  -27.2608   19.0466 H   0  0  0  0  0  0
  -23.7548  -30.5749   19.3889 H   0  0  0  0  0  0
  -22.7613  -29.2247   19.8543 H   0  0  0  0  0  0
  -25.1278  -36.1903   25.0811 H   0  0  0  0  0  0
  -21.0043  -28.3315   24.1362 H   0  0  0  0  0  0
  -20.5611  -26.2346   23.3619 H   0  0  0  0  0  0
  -21.6620  -26.7422   22.1251 H   0  0  0  0  0  0
  -19.6890  -25.6336   21.1224 H   0  0  0  0  0  0
  -19.6693  -27.3206   20.6707 H   0  0  0  0  0  0
  -17.4206  -26.6742   21.3998 H   0  0  0  0  0  0
  -18.0304  -26.0104   22.9005 H   0  0  0  0  0  0
  -19.7947  -30.7270   24.2270 H   0  0  0  0  0  0
  -17.5044  -31.6274   24.5221 H   0  0  0  0  0  0
  -15.5379  -30.3030   23.7645 H   0  0  0  0  0  0
  -15.8681  -28.0863   22.7045 H   0  0  0  0  0  0
  -24.5954  -30.7110   25.7960 H   0  0  0  0  0  0
  -24.9102  -32.2911   26.5027 H   0  0  0  0  0  0
  -25.8269  -30.8934   27.0236 H   0  0  0  0  0  0
  -26.2736  -29.6805   24.1194 H   0  0  0  0  0  0
  -27.4000  -29.7220   25.4573 H   0  0  0  0  0  0
  -27.8634  -30.4245   23.9223 H   0  0  0  0  0  0
  -27.2509  -33.3627   26.2115 H   0  0  0  0  0  0
  -28.3791  -32.7090   25.0348 H   0  0  0  0  0  0
  -28.0721  -31.8537   26.5402 H   0  0  0  0  0  0
  -28.2560  -38.0120   24.7517 H   0  0  0  0  0  0
  -28.1102  -36.2645   24.6214 H   0  0  0  0  0  0
  -27.2319  -37.1377   25.8854 H   0  0  0  0  0  0
  -20.9278  -29.8810   21.6872 H   0  0  0  0  0  0
  -26.0126  -38.2834   24.1501 H   0  0  0  0  0  0
  -32.1984  -18.5950   20.8118 H   0  0  0  0  0  0
  -27.9118  -19.0526   20.6776 H   0  0  0  0  0  0
  -32.8727  -20.9940   21.5822 H   0  0  0  0  0  0
  -31.5906  -21.9448   22.3189 H   0  0  0  0  0  0
  -31.9502  -22.0875   20.5779 H   0  0  0  0  0  0
  -26.2434  -23.2084   21.5735 H   0  0  0  0  0  0
  -26.0761  -24.9400   21.5034 H   0  0  0  0  0  0
  -26.9176  -24.2094   22.8523 H   0  0  0  0  0  0
  -30.4722  -16.7512   19.1412 H   0  0  0  0  0  0
  -28.8232  -16.7923   19.5909 H   0  0  0  0  0  0
  -30.0181  -23.2668   20.6401 H   0  0  0  0  0  0
  -29.5642  -23.2308   22.3176 H   0  0  0  0  0  0
  -27.9531  -21.6369   20.2591 H   0  0  0  0  0  0
  -27.9323  -21.4634   21.9887 H   0  0  0  0  0  0
  -29.7938  -25.6290   21.1260 H   0  0  0  0  0  0
  -28.4743  -26.1209   22.1222 H   0  0  0  0  0  0
  -27.8756  -24.1436   19.9116 H   0  0  0  0  0  0
  -29.0712  -15.3710   21.3501 H   0  0  0  0  0  0
  1 25  1  0  0  0
  1 30  2  0  0  0
  1 83  1  0  0  0
  2  3  1  0  0  0
  2 25  1  0  0  0
  2 84  1  0  0  0
  2 85  1  0  0  0
  3  4  1  0  0  0
  3 86  1  0  0  0
  3 87  1  0  0  0
  4  5  1  0  0  0
  4 88  1  0  0  0
  4 89  1  0  0  0
  5  6  1  0  0  0
  5 26  1  0  0  0
  5 90  1  0  0  0
  6 25  1  0  0  0
  6 91  1  0  0  0
  6 92  1  0  0  0
  7  8  2  0  0  0
  7 26  1  0  0  0
  7 29  1  0  0  0
  8  9  1  0  0  0
  8 22  1  0  0  0
  9 10  1  0  0  0
  9 27  2  0  0  0
 10 11  2  0  0  0
 10 15  1  0  0  0
 11 12  1  0  0  0
 11 93  1  0  0  0
 12 13  2  0  0  0
 12 94  1  0  0  0
 13 14  1  0  0  0
 13 31  1  0  0  0
 14 15  2  0  0  0
 14 95  1  0  0  0
 15 96  1  0  0  0
 16 17  2  0  0  0
 16 21  1  0  0  0
 16 31  1  0  0  0
 17 18  1  0  0  0
 17 97  1  0  0  0
 18 19  2  0  0  0
 18 98  1  0  0  0
 19 20  1  0  0  0
 19 24  1  0  0  0
 20 21  2  0  0  0
 20 99  1  0  0  0
 21 23  1  0  0  0
 22 28  1  0  0  0
 22 32  2  0  0  0
 26 27  1  0  0  0
 28100  1  0  0  0
 28101  1  0  0  0
 29102  1  0  0  0
 29103  1  0  0  0
 33 34  1  0  0  0
 33 66  1  0  0  0
 33 70  2  0  0  0
 34 36  1  0  0  0
 34 59  1  0  0  0
 34104  1  0  0  0
 35 44  2  0  0  0
 35 45  1  0  0  0
 35 68  1  0  0  0
 36 56  1  0  0  0
 36105  1  0  0  0
 37 39  1  0  0  0
 37 47  1  0  0  0
 37 66  1  0  0  0
 37106  1  0  0  0
 38 43  2  0  0  0
 38 46  1  0  0  0
 38 47  1  0  0  0
 39 64  1  0  0  0
 39 67  2  0  0  0
 40 52  1  0  0  0
 40 53  2  0  0  0
 40 58  1  0  0  0
 41107  1  0  0  0
 41108  1  0  0  0
 41109  1  0  0  0
 41 48  1  0  0  0
 42 43  1  0  0  0
 42 66  1  0  0  0
 42110  1  0  0  0
 42111  1  0  0  0
 43 44  1  0  0  0
 44112  1  0  0  0
 45 46  2  0  0  0
 45113  1  0  0  0
 46114  1  0  0  0
 47115  1  0  0  0
 47116  1  0  0  0
 48 56  1  0  0  0
 48 65  1  0  0  0
 48117  1  0  0  0
 49 50  1  0  0  0
 49 53  1  0  0  0
 49 64  1  0  0  0
 49118  1  0  0  0
 50 51  1  0  0  0
 50119  1  0  0  0
 50120  1  0  0  0
 51 52  1  0  0  0
 51121  1  0  0  0
 51122  1  0  0  0
 52123  1  0  0  0
 52124  1  0  0  0
 53 54  1  0  0  0
 54 55  2  0  0  0
 54125  1  0  0  0
 55 57  1  0  0  0
 55126  1  0  0  0
 56 69  2  0  0  0
 57 58  2  0  0  0
 57127  1  0  0  0
 58128  1  0  0  0
 59 60  1  0  0  0
 59 61  1  0  0  0
 59 62  1  0  0  0
 60129  1  0  0  0
 60130  1  0  0  0
 60131  1  0  0  0
 61132  1  0  0  0
 61133  1  0  0  0
 61134  1  0  0  0
 62135  1  0  0  0
 62136  1  0  0  0
 62137  1  0  0  0
 63 65  1  0  0  0
 63138  1  0  0  0
 63139  1  0  0  0
 63140  1  0  0  0
 64141  1  0  0  0
 65142  1  0  0  0
 68 80  1  0  0  0
 71 73  1  0  0  0
 71 74  2  0  0  0
 71143  1  0  0  0
 72 73  2  0  0  0
 72 82  1  0  0  0
 72144  1  0  0  0
 73 77  1  0  0  0
 74 75  1  0  0  0
 74 82  1  0  0  0
 75145  1  0  0  0
 75146  1  0  0  0
 75147  1  0  0  0
 76148  1  0  0  0
 76149  1  0  0  0
 76150  1  0  0  0
 76 81  1  0  0  0
 77 83  1  0  0  0
 77151  1  0  0  0
 77152  1  0  0  0
 78 79  1  0  0  0
 78 81  1  0  0  0
 78153  1  0  0  0
 78154  1  0  0  0
 79 82  1  0  0  0
 79155  1  0  0  0
 79156  1  0  0  0
 80 81  1  0  0  0
 80157  1  0  0  0
 80158  1  0  0  0
 81159  1  0  0  0
 83160  1  0  0  0
M  ISO  4   1 100  68 101  80 101  83 100
M  END
> <chiral flag>
0

> <version>
0

> <s_m_source_file>
/data/baiqing/PycharmProjects/Reinvent-master-3.2/result/LINK_invent/BTK/process_docking_weight1_custom_sum_contain_oxygen_bond_distance_aromatic_linkinvent_7_9_3/rearranged_h_0102.sdf

> <i_m_source_file_index>
89

> <r_mmod_Potential_Energy-OPLS-2005>
-6.18160438537598

> <r_mmod_Stretch_Energy-OPLS-2005>
55.5709266662598

> <r_mmod_Bend_Energy-OPLS-2005>
138.617797851562

> <r_mmod_Torsional_Energy-OPLS-2005>
280.150451660156

> <r_mmod_Improper_Torsional_Energy-OPLS-2005>
9.98408794403076

> <r_mmod_Van_der_Waal_Energy-OPLS-2005>
113.650848388672

> <r_mmod_Electrostatic_Energy-OPLS-2005>
-411.805969238281

> <r_mmod_Solvation_Energy-OPLS-2005>
-215.776962280273

> <b_mmod_Minimization_Converged-OPLS-2005>
0

> <r_mmod_RMS_Derivative-OPLS-2005>
10.2370586395264

$$$$
90
                    3D
 Structure written by MMmdl.
163171  0  0  1  0            999 V2000
  -30.6261  -14.7280   20.4730 C   0  0  0  0  0  0
  -30.4295  -12.4502   19.4653 C   0  0  0  0  0  0
  -29.5062  -12.5072   18.2296 C   0  0  0  0  0  0
  -28.0330  -12.3319   18.6458 C   0  0  0  0  0  0
  -27.6405  -13.2322   19.8477 C   0  0  2  0  0  0
  -28.6860  -13.1644   20.9814 C   0  0  0  0  0  0
  -25.2507  -13.8200   20.5686 C   0  0  0  0  0  0
  -24.1802  -13.0442   20.9204 C   0  0  0  0  0  0
  -24.6393  -11.6920   20.8745 C   0  0  0  0  0  0
  -23.9070  -10.4296   21.0405 C   0  0  0  0  0  0
  -24.3621   -9.4211   21.9183 C   0  0  0  0  0  0
  -23.6296   -8.2246   22.0754 C   0  0  0  0  0  0
  -22.4278   -8.0283   21.3545 C   0  0  0  0  0  0
  -21.9912   -9.0256   20.4646 C   0  0  0  0  0  0
  -22.7241  -10.2136   20.3055 C   0  0  0  0  0  0
  -21.6854   -6.0736   22.5279 C   0  0  0  0  0  0
  -21.4016   -6.5640   23.8213 C   0  0  0  0  0  0
  -21.3660   -5.6792   24.9174 C   0  0  0  0  0  0
  -21.6044   -4.3055   24.7225 C   0  0  0  0  0  0
  -21.8820   -3.8146   23.4346 C   0  0  0  0  0  0
  -21.9194   -4.6964   22.3402 C   0  0  0  0  0  0
  -22.7823  -13.5222   21.1865 C   0  0  0  0  0  0
  -22.1661   -4.2149   21.0980 F   0  0  0  0  0  0
  -21.5628   -3.4539   25.7738 F   0  0  0  0  0  0
  -29.9853  -13.5129   20.3951 N   0  0  0  0  0  0
  -26.2932  -12.9408   20.3268 N   0  0  0  0  0  0
  -25.9323  -11.6549   20.5745 N   0  0  0  0  0  0
  -22.0472  -12.8213   22.0424 N   0  0  0  0  0  0
  -25.4186  -15.1925   20.4104 N   0  0  0  0  0  0
  -31.8190  -14.8100   20.1700 O   0  0  0  0  0  0
  -21.6643   -6.8879   21.4241 O   0  0  0  0  0  0
  -22.3503  -14.5522   20.6706 O   0  0  0  0  0  0
  -24.6306  -31.8554   23.1981 C   0  0  0  0  0  0
  -25.9131  -32.4757   23.8329 C   0  0  1  0  0  0
  -27.2188  -27.2704   20.1363 C   0  0  0  0  0  0
  -25.5929  -33.8559   24.2255 N   0  0  0  0  0  0
  -23.4273  -30.4774   21.5413 C   0  0  2  0  0  0
  -24.8752  -28.9220   20.1131 C   0  0  0  0  0  0
  -22.7498  -29.4604   22.4914 C   0  0  0  0  0  0
  -18.0291  -28.1388   22.8485 C   0  0  0  0  0  0
  -24.1488  -36.7282   23.2641 C   0  0  0  0  0  0
  -25.9719  -30.7721   21.3758 C   0  0  0  0  0  0
  -26.0467  -29.3940   20.7206 C   0  0  0  0  0  0
  -27.2255  -28.5820   20.7174 C   0  0  0  0  0  0
  -26.0288  -26.8613   19.5009 C   0  0  0  0  0  0
  -24.8704  -27.6628   19.4916 C   0  0  0  0  0  0
  -23.6458  -29.8088   20.1584 C   0  0  0  0  0  0
  -25.4115  -36.3071   24.0327 C   0  0  1  0  0  0
  -20.5895  -28.3698   23.1269 C   0  0  2  0  0  0
  -20.6778  -26.9416   22.5407 C   0  0  0  0  0  0
  -19.5754  -26.6383   21.5211 C   0  0  0  0  0  0
  -18.1935  -26.7930   22.1625 C   0  0  0  0  0  0
  -19.1545  -28.8860   23.2872 C   0  0  0  0  0  0
  -18.9468  -30.1460   23.8892 C   0  0  0  0  0  0
  -17.6467  -30.6590   24.0563 C   0  0  0  0  0  0
  -25.9055  -34.9441   23.5094 C   0  0  0  0  0  0
  -16.5358  -29.9088   23.6332 C   0  0  0  0  0  0
  -16.7277  -28.6505   23.0354 C   0  0  0  0  0  0
  -26.4501  -31.6581   25.0717 C   0  0  0  0  0  0
  -25.3724  -31.3730   26.1438 C   0  0  0  0  0  0
  -27.0353  -30.2999   24.6199 C   0  0  0  0  0  0
  -27.6051  -32.4325   25.7493 C   0  0  0  0  0  0
  -27.5577  -37.1797   24.8466 C   0  0  0  0  0  0
  -21.4206  -29.3046   22.3657 N   0  0  0  0  0  0
  -26.4289  -37.3770   23.9410 N   0  0  0  0  0  0
  -24.6957  -31.0528   22.0951 N   0  0  0  0  0  0
  -23.4199  -28.8149   23.3017 O   0  0  0  0  0  0
  -28.3070  -26.3723   20.1438 O   0  0  0  0  0  0
  -26.5629  -34.8917   22.4665 O   0  0  0  0  0  0
  -23.5457  -32.1371   23.7282 O   0  0  0  0  0  0
  -29.6499  -19.8519   21.1943 C   0  0  0  0  0  0
  -28.5264  -20.2740   19.3490 C   0  0  0  0  0  0
  -29.6502  -18.6367   20.5047 C   0  0  0  0  0  0
  -28.9084  -18.9404   19.3122 C   0  0  0  0  0  0
  -29.8287  -17.8465   17.2492 C   0  0  0  0  0  0
  -27.3387  -18.2992   17.4201 C   0  0  0  0  0  0
  -28.5942  -25.2300   22.2160 C   0  0  0  0  0  0
  -30.4075  -17.2901   20.9153 C   0  0  0  0  0  0
  -28.7432  -23.6529   20.1488 C   0  0  0  0  0  0
  -28.6356  -22.2903   21.0252 C   0  0  0  0  0  0
  -28.6234  -17.9601   18.1918 C   0  0  0  0  0  0
  -28.1120  -25.0211   20.7722 C   0  0  2  0  0  0
  -28.9693  -20.8875   20.5100 N   0  0  0  0  0  0
  -29.8830  -15.8729   20.7120 N   0  0  0  0  0  0
  -31.4701  -12.5736   19.1605 H   0  0  0  0  0  0
  -30.3733  -11.4733   19.9479 H   0  0  0  0  0  0
  -29.7867  -11.7360   17.5110 H   0  0  0  0  0  0
  -29.6327  -13.4631   17.7187 H   0  0  0  0  0  0
  -27.8905  -11.2832   18.9090 H   0  0  0  0  0  0
  -27.3742  -12.5238   17.7980 H   0  0  0  0  0  0
  -27.6350  -14.2541   19.4677 H   0  0  0  0  0  0
  -28.7206  -12.1668   21.4216 H   0  0  0  0  0  0
  -28.4245  -13.8480   21.7907 H   0  0  0  0  0  0
  -25.2766   -9.5688   22.4758 H   0  0  0  0  0  0
  -24.0005   -7.4638   22.7473 H   0  0  0  0  0  0
  -21.0843   -8.8774   19.8953 H   0  0  0  0  0  0
  -22.3696  -10.9674   19.6164 H   0  0  0  0  0  0
  -21.2010   -7.6149   23.9715 H   0  0  0  0  0  0
  -21.1479   -6.0523   25.9077 H   0  0  0  0  0  0
  -22.0599   -2.7608   23.2847 H   0  0  0  0  0  0
  -22.4091  -11.9878   22.4816 H   0  0  0  0  0  0
  -21.1088  -13.1234   22.2626 H   0  0  0  0  0  0
  -24.6490  -15.8435   20.5222 H   0  0  0  0  0  0
  -26.2627  -15.6358   20.0723 H   0  0  0  0  0  0
  -26.7199  -32.5412   23.1073 H   0  0  0  0  0  0
  -25.0070  -33.9695   25.0397 H   0  0  0  0  0  0
  -22.7237  -31.2993   21.3938 H   0  0  0  0  0  0
  -23.3752  -35.9613   23.3303 H   0  0  0  0  0  0
  -24.3577  -36.8905   22.2055 H   0  0  0  0  0  0
  -23.7239  -37.6482   23.6667 H   0  0  0  0  0  0
  -26.1083  -31.5321   20.6054 H   0  0  0  0  0  0
  -26.8502  -30.8227   22.0078 H   0  0  0  0  0  0
  -28.1256  -28.9389   21.1981 H   0  0  0  0  0  0
  -25.9881  -25.8942   19.0198 H   0  0  0  0  0  0
  -23.9744  -27.2963   19.0097 H   0  0  0  0  0  0
  -23.7708  -30.5835   19.4010 H   0  0  0  0  0  0
  -22.7643  -29.2417   19.8536 H   0  0  0  0  0  0
  -25.1298  -36.1917   25.0820 H   0  0  0  0  0  0
  -20.9989  -28.3278   24.1389 H   0  0  0  0  0  0
  -20.5674  -26.2312   23.3614 H   0  0  0  0  0  0
  -21.6647  -26.7438   22.1205 H   0  0  0  0  0  0
  -19.6917  -25.6292   21.1246 H   0  0  0  0  0  0
  -19.6691  -27.3190   20.6738 H   0  0  0  0  0  0
  -17.4204  -26.6675   21.4028 H   0  0  0  0  0  0
  -18.0338  -26.0074   22.9023 H   0  0  0  0  0  0
  -19.7944  -30.7275   24.2261 H   0  0  0  0  0  0
  -17.5024  -31.6270   24.5164 H   0  0  0  0  0  0
  -15.5359  -30.2991   23.7658 H   0  0  0  0  0  0
  -15.8677  -28.0822   22.7075 H   0  0  0  0  0  0
  -24.5901  -30.7078   25.7766 H   0  0  0  0  0  0
  -24.8915  -32.2900   26.4853 H   0  0  0  0  0  0
  -25.8041  -30.8914   27.0221 H   0  0  0  0  0  0
  -26.2940  -29.6743   24.1214 H   0  0  0  0  0  0
  -27.4031  -29.7265   25.4717 H   0  0  0  0  0  0
  -27.8815  -30.4279   23.9446 H   0  0  0  0  0  0
  -27.2656  -33.3628   26.2058 H   0  0  0  0  0  0
  -28.3869  -32.6880   25.0327 H   0  0  0  0  0  0
  -28.0713  -31.8460   26.5420 H   0  0  0  0  0  0
  -28.2596  -38.0093   24.7511 H   0  0  0  0  0  0
  -28.1072  -36.2624   24.6295 H   0  0  0  0  0  0
  -27.2295  -37.1450   25.8870 H   0  0  0  0  0  0
  -20.9392  -29.8768   21.6860 H   0  0  0  0  0  0
  -26.0167  -38.2843   24.1411 H   0  0  0  0  0  0
  -30.0921  -20.0770   22.1566 H   0  0  0  0  0  0
  -27.9460  -20.8484   18.6386 H   0  0  0  0  0  0
  -30.7217  -17.5290   17.7888 H   0  0  0  0  0  0
  -30.0510  -18.8022   16.7732 H   0  0  0  0  0  0
  -29.6459  -17.1157   16.4611 H   0  0  0  0  0  0
  -26.4794  -18.3498   18.0898 H   0  0  0  0  0  0
  -27.1226  -17.5382   16.6698 H   0  0  0  0  0  0
  -27.4177  -19.2552   16.9018 H   0  0  0  0  0  0
  -28.3451  -24.3829   22.8545 H   0  0  0  0  0  0
  -28.1281  -26.1082   22.6639 H   0  0  0  0  0  0
  -29.6743  -25.3738   22.2529 H   0  0  0  0  0  0
  -30.6343  -17.3739   21.9787 H   0  0  0  0  0  0
  -31.3787  -17.3521   20.4223 H   0  0  0  0  0  0
  -28.2694  -23.4775   19.1831 H   0  0  0  0  0  0
  -29.7962  -23.8260   19.9275 H   0  0  0  0  0  0
  -27.6090  -22.2304   21.3877 H   0  0  0  0  0  0
  -29.2374  -22.4340   21.9226 H   0  0  0  0  0  0
  -28.4675  -16.9841   18.6520 H   0  0  0  0  0  0
  -27.0405  -24.8307   20.8397 H   0  0  0  0  0  0
  -28.8988  -15.7364   20.8825 H   0  0  0  0  0  0
  1 25  1  0  0  0
  1 30  2  0  0  0
  1 84  1  0  0  0
  2  3  1  0  0  0
  2 25  1  0  0  0
  2 85  1  0  0  0
  2 86  1  0  0  0
  3  4  1  0  0  0
  3 87  1  0  0  0
  3 88  1  0  0  0
  4  5  1  0  0  0
  4 89  1  0  0  0
  4 90  1  0  0  0
  5  6  1  0  0  0
  5 26  1  0  0  0
  5 91  1  0  0  0
  6 25  1  0  0  0
  6 92  1  0  0  0
  6 93  1  0  0  0
  7  8  2  0  0  0
  7 26  1  0  0  0
  7 29  1  0  0  0
  8  9  1  0  0  0
  8 22  1  0  0  0
  9 10  1  0  0  0
  9 27  2  0  0  0
 10 11  2  0  0  0
 10 15  1  0  0  0
 11 12  1  0  0  0
 11 94  1  0  0  0
 12 13  2  0  0  0
 12 95  1  0  0  0
 13 14  1  0  0  0
 13 31  1  0  0  0
 14 15  2  0  0  0
 14 96  1  0  0  0
 15 97  1  0  0  0
 16 17  2  0  0  0
 16 21  1  0  0  0
 16 31  1  0  0  0
 17 18  1  0  0  0
 17 98  1  0  0  0
 18 19  2  0  0  0
 18 99  1  0  0  0
 19 20  1  0  0  0
 19 24  1  0  0  0
 20 21  2  0  0  0
 20100  1  0  0  0
 21 23  1  0  0  0
 22 28  1  0  0  0
 22 32  2  0  0  0
 26 27  1  0  0  0
 28101  1  0  0  0
 28102  1  0  0  0
 29103  1  0  0  0
 29104  1  0  0  0
 33 34  1  0  0  0
 33 66  1  0  0  0
 33 70  2  0  0  0
 34 36  1  0  0  0
 34 59  1  0  0  0
 34105  1  0  0  0
 35 44  2  0  0  0
 35 45  1  0  0  0
 35 68  1  0  0  0
 36 56  1  0  0  0
 36106  1  0  0  0
 37 39  1  0  0  0
 37 47  1  0  0  0
 37 66  1  0  0  0
 37107  1  0  0  0
 38 43  2  0  0  0
 38 46  1  0  0  0
 38 47  1  0  0  0
 39 64  1  0  0  0
 39 67  2  0  0  0
 40 52  1  0  0  0
 40 53  2  0  0  0
 40 58  1  0  0  0
 41108  1  0  0  0
 41109  1  0  0  0
 41110  1  0  0  0
 41 48  1  0  0  0
 42 43  1  0  0  0
 42 66  1  0  0  0
 42111  1  0  0  0
 42112  1  0  0  0
 43 44  1  0  0  0
 44113  1  0  0  0
 45 46  2  0  0  0
 45114  1  0  0  0
 46115  1  0  0  0
 47116  1  0  0  0
 47117  1  0  0  0
 48 56  1  0  0  0
 48 65  1  0  0  0
 48118  1  0  0  0
 49 50  1  0  0  0
 49 53  1  0  0  0
 49 64  1  0  0  0
 49119  1  0  0  0
 50 51  1  0  0  0
 50120  1  0  0  0
 50121  1  0  0  0
 51 52  1  0  0  0
 51122  1  0  0  0
 51123  1  0  0  0
 52124  1  0  0  0
 52125  1  0  0  0
 53 54  1  0  0  0
 54 55  2  0  0  0
 54126  1  0  0  0
 55 57  1  0  0  0
 55127  1  0  0  0
 56 69  2  0  0  0
 57 58  2  0  0  0
 57128  1  0  0  0
 58129  1  0  0  0
 59 60  1  0  0  0
 59 61  1  0  0  0
 59 62  1  0  0  0
 60130  1  0  0  0
 60131  1  0  0  0
 60132  1  0  0  0
 61133  1  0  0  0
 61134  1  0  0  0
 61135  1  0  0  0
 62136  1  0  0  0
 62137  1  0  0  0
 62138  1  0  0  0
 63 65  1  0  0  0
 63139  1  0  0  0
 63140  1  0  0  0
 63141  1  0  0  0
 64142  1  0  0  0
 65143  1  0  0  0
 68 82  1  0  0  0
 71 73  2  0  0  0
 71 83  1  0  0  0
 71144  1  0  0  0
 72 74  2  0  0  0
 72 83  1  0  0  0
 72145  1  0  0  0
 73 74  1  0  0  0
 73 78  1  0  0  0
 74 81  1  0  0  0
 75146  1  0  0  0
 75147  1  0  0  0
 75148  1  0  0  0
 75 81  1  0  0  0
 76 81  1  0  0  0
 76149  1  0  0  0
 76150  1  0  0  0
 76151  1  0  0  0
 77152  1  0  0  0
 77153  1  0  0  0
 77154  1  0  0  0
 77 82  1  0  0  0
 78 84  1  0  0  0
 78155  1  0  0  0
 78156  1  0  0  0
 79 80  1  0  0  0
 79 82  1  0  0  0
 79157  1  0  0  0
 79158  1  0  0  0
 80 83  1  0  0  0
 80159  1  0  0  0
 80160  1  0  0  0
 81161  1  0  0  0
 82162  1  0  0  0
 84163  1  0  0  0
M  ISO  4   1 100  68 101  82 101  84 100
M  END
> <chiral flag>
0

> <version>
0

> <s_m_source_file>
/data/baiqing/PycharmProjects/Reinvent-master-3.2/result/LINK_invent/BTK/process_docking_weight1_custom_sum_contain_oxygen_bond_distance_aromatic_linkinvent_7_9_3/rearranged_h_0102.sdf

> <i_m_source_file_index>
90

> <r_mmod_Potential_Energy-OPLS-2005>
63.4054832458496

> <r_mmod_Stretch_Energy-OPLS-2005>
115.026390075684

> <r_mmod_Bend_Energy-OPLS-2005>
175.712219238281

> <r_mmod_Torsional_Energy-OPLS-2005>
235.941970825195

> <r_mmod_Improper_Torsional_Energy-OPLS-2005>
5.16597127914429

> <r_mmod_Van_der_Waal_Energy-OPLS-2005>
106.020652770996

> <r_mmod_Electrostatic_Energy-OPLS-2005>
-449.328704833984

> <r_mmod_Solvation_Energy-OPLS-2005>
-204.731750488281

> <b_mmod_Minimization_Converged-OPLS-2005>
0

> <r_mmod_RMS_Derivative-OPLS-2005>
0.271709233522415

$$$$
91
                    3D
 Structure written by MMmdl.
171179  0  0  1  0            999 V2000
  -30.5466  -14.9479   20.4249 C   0  0  0  0  0  0
  -30.4239  -12.5862   19.5147 C   0  0  0  0  0  0
  -29.5181  -12.5433   18.2636 C   0  0  0  0  0  0
  -28.0455  -12.3463   18.6636 C   0  0  0  0  0  0
  -27.6247  -13.2609   19.8433 C   0  0  2  0  0  0
  -28.6617  -13.2817   20.9860 C   0  0  0  0  0  0
  -25.2435  -13.8242   20.5725 C   0  0  0  0  0  0
  -24.1755  -13.0436   20.9208 C   0  0  0  0  0  0
  -24.6401  -11.6932   20.8743 C   0  0  0  0  0  0
  -23.9090  -10.4302   21.0413 C   0  0  0  0  0  0
  -24.3649   -9.4212   21.9180 C   0  0  0  0  0  0
  -23.6328   -8.2239   22.0753 C   0  0  0  0  0  0
  -22.4300   -8.0285   21.3552 C   0  0  0  0  0  0
  -21.9944   -9.0246   20.4630 C   0  0  0  0  0  0
  -22.7278  -10.2124   20.3059 C   0  0  0  0  0  0
  -21.6864   -6.0750   22.5283 C   0  0  0  0  0  0
  -21.4010   -6.5641   23.8211 C   0  0  0  0  0  0
  -21.3662   -5.6805   24.9179 C   0  0  0  0  0  0
  -21.6054   -4.3070   24.7230 C   0  0  0  0  0  0
  -21.8830   -3.8160   23.4352 C   0  0  0  0  0  0
  -21.9189   -4.6972   22.3414 C   0  0  0  0  0  0
  -22.7790  -13.5165   21.1901 C   0  0  0  0  0  0
  -22.1677   -4.2162   21.0995 F   0  0  0  0  0  0
  -21.5622   -3.4548   25.7735 F   0  0  0  0  0  0
  -29.9406  -13.6899   20.3958 N   0  0  0  0  0  0
  -26.2847  -12.9496   20.3235 N   0  0  0  0  0  0
  -25.9327  -11.6605   20.5725 N   0  0  0  0  0  0
  -22.0493  -12.8090   22.0461 N   0  0  0  0  0  0
  -25.4066  -15.1973   20.4212 N   0  0  0  0  0  0
  -31.7408  -14.9751   20.1138 O   0  0  0  0  0  0
  -21.6655   -6.8888   21.4248 O   0  0  0  0  0  0
  -22.3440  -14.5474   20.6789 O   0  0  0  0  0  0
  -24.6464  -31.8430   23.1876 C   0  0  0  0  0  0
  -25.9228  -32.4669   23.8278 C   0  0  1  0  0  0
  -27.2024  -27.1115   20.1592 C   0  0  0  0  0  0
  -25.5984  -33.8475   24.2203 N   0  0  0  0  0  0
  -23.4490  -30.4661   21.5311 C   0  0  2  0  0  0
  -24.8984  -28.8927   20.1037 C   0  0  0  0  0  0
  -22.7571  -29.4563   22.4827 C   0  0  0  0  0  0
  -18.0323  -28.1391   22.8483 C   0  0  0  0  0  0
  -24.1501  -36.7255   23.2641 C   0  0  0  0  0  0
  -26.0062  -30.7102   21.3880 C   0  0  0  0  0  0
  -26.0754  -29.3189   20.7323 C   0  0  0  0  0  0
  -27.2276  -28.4431   20.7473 C   0  0  0  0  0  0
  -26.0056  -26.8023   19.4731 C   0  0  0  0  0  0
  -24.8786  -27.6493   19.4571 C   0  0  0  0  0  0
  -23.6767  -29.7974   20.1497 C   0  0  0  0  0  0
  -25.4124  -36.3008   24.0321 C   0  0  1  0  0  0
  -20.5930  -28.3725   23.1226 C   0  0  2  0  0  0
  -20.6806  -26.9428   22.5402 C   0  0  0  0  0  0
  -19.5774  -26.6378   21.5217 C   0  0  0  0  0  0
  -18.1956  -26.7929   22.1629 C   0  0  0  0  0  0
  -19.1575  -28.8882   23.2849 C   0  0  0  0  0  0
  -18.9485  -30.1467   23.8888 C   0  0  0  0  0  0
  -17.6475  -30.6581   24.0558 C   0  0  0  0  0  0
  -25.9082  -34.9386   23.5060 C   0  0  0  0  0  0
  -16.5369  -29.9072   23.6323 C   0  0  0  0  0  0
  -16.7302  -28.6488   23.0356 C   0  0  0  0  0  0
  -26.4570  -31.6513   25.0699 C   0  0  0  0  0  0
  -25.3765  -31.3682   26.1394 C   0  0  0  0  0  0
  -27.0434  -30.2908   24.6253 C   0  0  0  0  0  0
  -27.6097  -32.4269   25.7495 C   0  0  0  0  0  0
  -27.5577  -37.1784   24.8462 C   0  0  0  0  0  0
  -21.4266  -29.3050   22.3581 N   0  0  0  0  0  0
  -26.4285  -37.3722   23.9407 N   0  0  0  0  0  0
  -24.7206  -31.0284   22.0904 N   0  0  0  0  0  0
  -23.4215  -28.8110   23.2976 O   0  0  0  0  0  0
  -28.2256  -26.0914   20.2548 O   0  0  0  0  0  0
  -26.5653  -34.8889   22.4628 O   0  0  0  0  0  0
  -23.5580  -32.1327   23.7084 O   0  0  0  0  0  0
  -27.3060  -21.7481   18.7975 C   0  0  0  0  0  0
  -26.8967  -20.4355   18.4913 C   0  0  0  0  0  0
  -28.2514  -21.6732   19.7903 C   0  0  0  0  0  0
  -27.4233  -19.0989   15.7494 C   0  0  0  0  0  0
  -23.9149  -20.9678   19.0247 C   0  0  0  0  0  0
  -31.5016  -18.0062   20.2385 C   0  0  0  0  0  0
  -29.7051  -17.5937   18.5836 C   0  0  0  0  0  0
  -28.7510  -23.1254   20.3627 C   0  0  0  0  0  0
  -26.2050  -18.8185   16.6428 C   0  0  0  0  0  0
  -24.4867  -19.7204   18.3288 C   0  0  0  0  0  0
  -29.2539  -19.0648   20.7691 C   0  0  0  0  0  0
  -27.9097  -24.5740   20.0047 C   0  0  0  0  0  0
  -25.7907  -20.0014   17.5524 C   0  0  0  0  0  0
  -30.0029  -17.6676   20.0926 C   0  0  0  0  0  0
  -27.5305  -19.5566   19.2267 N   0  0  0  0  0  0
  -28.4871  -20.1845   19.9520 N   0  0  0  0  0  0
  -29.7936  -16.1574   20.5866 N   0  0  0  0  0  0
  -31.4630  -12.7212   19.2121 H   0  0  0  0  0  0
  -30.3950  -11.6322   20.0413 H   0  0  0  0  0  0
  -29.8358  -11.7483   17.5867 H   0  0  0  0  0  0
  -29.6215  -13.4778   17.7101 H   0  0  0  0  0  0
  -27.9072  -11.2989   18.9359 H   0  0  0  0  0  0
  -27.3977  -12.5308   17.8045 H   0  0  0  0  0  0
  -27.5885  -14.2685   19.4282 H   0  0  0  0  0  0
  -28.7381  -12.3058   21.4657 H   0  0  0  0  0  0
  -28.3592  -13.9836   21.7647 H   0  0  0  0  0  0
  -25.2809   -9.5662   22.4738 H   0  0  0  0  0  0
  -24.0050   -7.4614   22.7462 H   0  0  0  0  0  0
  -21.0891   -8.8760   19.8914 H   0  0  0  0  0  0
  -22.3756  -10.9661   19.6169 H   0  0  0  0  0  0
  -21.2004   -7.6156   23.9701 H   0  0  0  0  0  0
  -21.1481   -6.0550   25.9076 H   0  0  0  0  0  0
  -22.0604   -2.7628   23.2849 H   0  0  0  0  0  0
  -22.4215  -11.9761   22.4788 H   0  0  0  0  0  0
  -21.1093  -13.1006   22.2697 H   0  0  0  0  0  0
  -24.6327  -15.8442   20.5312 H   0  0  0  0  0  0
  -26.2449  -15.6436   20.0731 H   0  0  0  0  0  0
  -26.7284  -32.5297   23.1003 H   0  0  0  0  0  0
  -25.0128  -33.9577   25.0352 H   0  0  0  0  0  0
  -22.7525  -31.2943   21.3771 H   0  0  0  0  0  0
  -23.3758  -35.9591   23.3261 H   0  0  0  0  0  0
  -24.3601  -36.8927   22.2065 H   0  0  0  0  0  0
  -23.7265  -37.6445   23.6705 H   0  0  0  0  0  0
  -26.1624  -31.4614   20.6135 H   0  0  0  0  0  0
  -26.8764  -30.7639   22.0291 H   0  0  0  0  0  0
  -28.1180  -28.7570   21.2747 H   0  0  0  0  0  0
  -25.9001  -25.8588   18.9602 H   0  0  0  0  0  0
  -23.9826  -27.3236   18.9461 H   0  0  0  0  0  0
  -23.8129  -30.5730   19.3956 H   0  0  0  0  0  0
  -22.7903  -29.2431   19.8360 H   0  0  0  0  0  0
  -25.1309  -36.1834   25.0816 H   0  0  0  0  0  0
  -21.0053  -28.3337   24.1333 H   0  0  0  0  0  0
  -20.5705  -26.2356   23.3632 H   0  0  0  0  0  0
  -21.6671  -26.7433   22.1194 H   0  0  0  0  0  0
  -19.6934  -25.6290   21.1248 H   0  0  0  0  0  0
  -19.6693  -27.3190   20.6744 H   0  0  0  0  0  0
  -17.4230  -26.6695   21.4020 H   0  0  0  0  0  0
  -18.0336  -26.0067   22.9021 H   0  0  0  0  0  0
  -19.7957  -30.7281   24.2266 H   0  0  0  0  0  0
  -17.5020  -31.6254   24.5164 H   0  0  0  0  0  0
  -15.5357  -30.2959   23.7639 H   0  0  0  0  0  0
  -15.8717  -28.0777   22.7082 H   0  0  0  0  0  0
  -24.5973  -30.6988   25.7733 H   0  0  0  0  0  0
  -24.8931  -32.2847   26.4771 H   0  0  0  0  0  0
  -25.8077  -30.8911   27.0200 H   0  0  0  0  0  0
  -26.3042  -29.6604   24.1292 H   0  0  0  0  0  0
  -27.4100  -29.7213   25.4805 H   0  0  0  0  0  0
  -27.8931  -30.4144   23.9534 H   0  0  0  0  0  0
  -27.2692  -33.3603   26.1987 H   0  0  0  0  0  0
  -28.3964  -32.6750   25.0356 H   0  0  0  0  0  0
  -28.0687  -31.8427   26.5482 H   0  0  0  0  0  0
  -28.2564  -38.0108   24.7510 H   0  0  0  0  0  0
  -28.1101  -36.2633   24.6277 H   0  0  0  0  0  0
  -27.2296  -37.1410   25.8864 H   0  0  0  0  0  0
  -20.9487  -29.8777   21.6770 H   0  0  0  0  0  0
  -26.0146  -38.2791   24.1392 H   0  0  0  0  0  0
  -26.8882  -22.6396   18.3555 H   0  0  0  0  0  0
  -27.6748  -18.2256   15.1469 H   0  0  0  0  0  0
  -28.3027  -19.3463   16.3437 H   0  0  0  0  0  0
  -27.2329  -19.9284   15.0685 H   0  0  0  0  0  0
  -22.9820  -20.7425   19.5409 H   0  0  0  0  0  0
  -23.7148  -21.7591   18.3017 H   0  0  0  0  0  0
  -24.6117  -21.3636   19.7645 H   0  0  0  0  0  0
  -31.7081  -19.0288   19.9167 H   0  0  0  0  0  0
  -32.1482  -17.3710   19.6363 H   0  0  0  0  0  0
  -31.8187  -17.9255   21.2788 H   0  0  0  0  0  0
  -29.9050  -18.5438   18.0859 H   0  0  0  0  0  0
  -28.6626  -17.3336   18.3978 H   0  0  0  0  0  0
  -30.3113  -16.8341   18.0876 H   0  0  0  0  0  0
  -29.7724  -23.2636   20.0104 H   0  0  0  0  0  0
  -28.8407  -23.0478   21.4460 H   0  0  0  0  0  0
  -26.4135  -17.9433   17.2589 H   0  0  0  0  0  0
  -25.3651  -18.5412   16.0043 H   0  0  0  0  0  0
  -23.7303  -19.3319   17.6461 H   0  0  0  0  0  0
  -24.6592  -18.9365   19.0676 H   0  0  0  0  0  0
  -29.9657  -19.5898   21.4078 H   0  0  0  0  0  0
  -28.5243  -18.6882   21.4849 H   0  0  0  0  0  0
  -26.9217  -24.4130   20.4394 H   0  0  0  0  0  0
  -27.7560  -24.5500   18.9271 H   0  0  0  0  0  0
  -25.5748  -20.8361   16.8832 H   0  0  0  0  0  0
  -28.8501  -15.9776   20.8980 H   0  0  0  0  0  0
  1 25  1  0  0  0
  1 30  2  0  0  0
  1 87  1  0  0  0
  2  3  1  0  0  0
  2 25  1  0  0  0
  2 88  1  0  0  0
  2 89  1  0  0  0
  3  4  1  0  0  0
  3 90  1  0  0  0
  3 91  1  0  0  0
  4  5  1  0  0  0
  4 92  1  0  0  0
  4 93  1  0  0  0
  5  6  1  0  0  0
  5 26  1  0  0  0
  5 94  1  0  0  0
  6 25  1  0  0  0
  6 95  1  0  0  0
  6 96  1  0  0  0
  7  8  2  0  0  0
  7 26  1  0  0  0
  7 29  1  0  0  0
  8  9  1  0  0  0
  8 22  1  0  0  0
  9 10  1  0  0  0
  9 27  2  0  0  0
 10 11  2  0  0  0
 10 15  1  0  0  0
 11 12  1  0  0  0
 11 97  1  0  0  0
 12 13  2  0  0  0
 12 98  1  0  0  0
 13 14  1  0  0  0
 13 31  1  0  0  0
 14 15  2  0  0  0
 14 99  1  0  0  0
 15100  1  0  0  0
 16 17  2  0  0  0
 16 21  1  0  0  0
 16 31  1  0  0  0
 17 18  1  0  0  0
 17101  1  0  0  0
 18 19  2  0  0  0
 18102  1  0  0  0
 19 20  1  0  0  0
 19 24  1  0  0  0
 20 21  2  0  0  0
 20103  1  0  0  0
 21 23  1  0  0  0
 22 28  1  0  0  0
 22 32  2  0  0  0
 26 27  1  0  0  0
 28104  1  0  0  0
 28105  1  0  0  0
 29106  1  0  0  0
 29107  1  0  0  0
 33 34  1  0  0  0
 33 66  1  0  0  0
 33 70  2  0  0  0
 34 36  1  0  0  0
 34 59  1  0  0  0
 34108  1  0  0  0
 35 44  2  0  0  0
 35 45  1  0  0  0
 35 68  1  0  0  0
 36 56  1  0  0  0
 36109  1  0  0  0
 37 39  1  0  0  0
 37 47  1  0  0  0
 37 66  1  0  0  0
 37110  1  0  0  0
 38 43  2  0  0  0
 38 46  1  0  0  0
 38 47  1  0  0  0
 39 64  1  0  0  0
 39 67  2  0  0  0
 40 52  1  0  0  0
 40 53  2  0  0  0
 40 58  1  0  0  0
 41111  1  0  0  0
 41112  1  0  0  0
 41113  1  0  0  0
 41 48  1  0  0  0
 42 43  1  0  0  0
 42 66  1  0  0  0
 42114  1  0  0  0
 42115  1  0  0  0
 43 44  1  0  0  0
 44116  1  0  0  0
 45 46  2  0  0  0
 45117  1  0  0  0
 46118  1  0  0  0
 47119  1  0  0  0
 47120  1  0  0  0
 48 56  1  0  0  0
 48 65  1  0  0  0
 48121  1  0  0  0
 49 50  1  0  0  0
 49 53  1  0  0  0
 49 64  1  0  0  0
 49122  1  0  0  0
 50 51  1  0  0  0
 50123  1  0  0  0
 50124  1  0  0  0
 51 52  1  0  0  0
 51125  1  0  0  0
 51126  1  0  0  0
 52127  1  0  0  0
 52128  1  0  0  0
 53 54  1  0  0  0
 54 55  2  0  0  0
 54129  1  0  0  0
 55 57  1  0  0  0
 55130  1  0  0  0
 56 69  2  0  0  0
 57 58  2  0  0  0
 57131  1  0  0  0
 58132  1  0  0  0
 59 60  1  0  0  0
 59 61  1  0  0  0
 59 62  1  0  0  0
 60133  1  0  0  0
 60134  1  0  0  0
 60135  1  0  0  0
 61136  1  0  0  0
 61137  1  0  0  0
 61138  1  0  0  0
 62139  1  0  0  0
 62140  1  0  0  0
 62141  1  0  0  0
 63 65  1  0  0  0
 63142  1  0  0  0
 63143  1  0  0  0
 63144  1  0  0  0
 64145  1  0  0  0
 65146  1  0  0  0
 68 82  1  0  0  0
 71 72  1  0  0  0
 71 73  2  0  0  0
 71147  1  0  0  0
 72 83  1  0  0  0
 72 85  2  0  0  0
 73 78  1  0  0  0
 73 86  1  0  0  0
 74 79  1  0  0  0
 74148  1  0  0  0
 74149  1  0  0  0
 74150  1  0  0  0
 75 80  1  0  0  0
 75151  1  0  0  0
 75152  1  0  0  0
 75153  1  0  0  0
 76154  1  0  0  0
 76155  1  0  0  0
 76156  1  0  0  0
 76 84  1  0  0  0
 77 84  1  0  0  0
 77157  1  0  0  0
 77158  1  0  0  0
 77159  1  0  0  0
 78 82  1  0  0  0
 78160  1  0  0  0
 78161  1  0  0  0
 79162  1  0  0  0
 79163  1  0  0  0
 79 83  1  0  0  0
 80 83  1  0  0  0
 80164  1  0  0  0
 80165  1  0  0  0
 81 84  1  0  0  0
 81 86  1  0  0  0
 81166  1  0  0  0
 81167  1  0  0  0
 82168  1  0  0  0
 82169  1  0  0  0
 83170  1  0  0  0
 84 87  1  0  0  0
 85 86  1  0  0  0
 87171  1  0  0  0
M  ISO  4   1 100  68 101  82 101  87 100
M  END
> <chiral flag>
0

> <version>
0

> <s_m_source_file>
/data/baiqing/PycharmProjects/Reinvent-master-3.2/result/LINK_invent/BTK/process_docking_weight1_custom_sum_contain_oxygen_bond_distance_aromatic_linkinvent_7_9_3/rearranged_h_0102.sdf

> <i_m_source_file_index>
91

> <r_mmod_Potential_Energy-OPLS-2005>
678.713928222656

> <r_mmod_Stretch_Energy-OPLS-2005>
321.701232910156

> <r_mmod_Bend_Energy-OPLS-2005>
352.896118164062

> <r_mmod_Torsional_Energy-OPLS-2005>
214.057418823242

> <r_mmod_Improper_Torsional_Energy-OPLS-2005>
6.19302129745483

> <r_mmod_Van_der_Waal_Energy-OPLS-2005>
113.513191223145

> <r_mmod_Electrostatic_Energy-OPLS-2005>
-334.002746582031

> <r_mmod_Solvation_Energy-OPLS-2005>
-200.078689575195

> <b_mmod_Minimization_Converged-OPLS-2005>
0

> <r_mmod_RMS_Derivative-OPLS-2005>
2.84026265144348

$$$$
92
                    3D
 Structure written by MMmdl.
177185  0  0  1  0            999 V2000
  -30.6382  -14.6844   20.4645 C   0  0  0  0  0  0
  -30.4293  -12.4134   19.4726 C   0  0  0  0  0  0
  -29.5093  -12.4991   18.2352 C   0  0  0  0  0  0
  -28.0331  -12.3384   18.6464 C   0  0  0  0  0  0
  -27.6476  -13.2295   19.8578 C   0  0  2  0  0  0
  -28.6921  -13.1376   20.9937 C   0  0  0  0  0  0
  -25.2522  -13.8193   20.5700 C   0  0  0  0  0  0
  -24.1807  -13.0438   20.9208 C   0  0  0  0  0  0
  -24.6397  -11.6920   20.8745 C   0  0  0  0  0  0
  -23.9071  -10.4293   21.0403 C   0  0  0  0  0  0
  -24.3619   -9.4208   21.9184 C   0  0  0  0  0  0
  -23.6295   -8.2243   22.0752 C   0  0  0  0  0  0
  -22.4280   -8.0281   21.3540 C   0  0  0  0  0  0
  -21.9913   -9.0254   20.4642 C   0  0  0  0  0  0
  -22.7240  -10.2136   20.3052 C   0  0  0  0  0  0
  -21.6851   -6.0734   22.5279 C   0  0  0  0  0  0
  -21.4015   -6.5638   23.8214 C   0  0  0  0  0  0
  -21.3659   -5.6788   24.9173 C   0  0  0  0  0  0
  -21.6045   -4.3052   24.7223 C   0  0  0  0  0  0
  -21.8821   -3.8146   23.4345 C   0  0  0  0  0  0
  -21.9196   -4.6961   22.3400 C   0  0  0  0  0  0
  -22.7829  -13.5220   21.1873 C   0  0  0  0  0  0
  -22.1662   -4.2149   21.0979 F   0  0  0  0  0  0
  -21.5628   -3.4538   25.7737 F   0  0  0  0  0  0
  -30.0029  -13.4675   20.4192 N   0  0  0  0  0  0
  -26.2964  -12.9406   20.3315 N   0  0  0  0  0  0
  -25.9333  -11.6549   20.5764 N   0  0  0  0  0  0
  -22.0474  -12.8199   22.0422 N   0  0  0  0  0  0
  -25.4199  -15.1911   20.4107 N   0  0  0  0  0  0
  -31.8121  -14.7907   20.1017 O   0  0  0  0  0  0
  -21.6641   -6.8880   21.4242 O   0  0  0  0  0  0
  -22.3516  -14.5525   20.6725 O   0  0  0  0  0  0
  -24.6284  -31.8577   23.2008 C   0  0  0  0  0  0
  -25.9128  -32.4765   23.8336 C   0  0  1  0  0  0
  -27.2226  -27.2908   20.1142 C   0  0  0  0  0  0
  -25.5938  -33.8563   24.2264 N   0  0  0  0  0  0
  -23.4227  -30.4819   21.5434 C   0  0  2  0  0  0
  -24.8692  -28.9363   20.1076 C   0  0  0  0  0  0
  -22.7484  -29.4606   22.4913 C   0  0  0  0  0  0
  -18.0291  -28.1375   22.8468 C   0  0  0  0  0  0
  -24.1494  -36.7288   23.2635 C   0  0  0  0  0  0
  -25.9665  -30.7786   21.3782 C   0  0  0  0  0  0
  -26.0378  -29.4043   20.7187 C   0  0  0  0  0  0
  -27.2134  -28.5922   20.7160 C   0  0  0  0  0  0
  -26.0332  -26.8936   19.4600 C   0  0  0  0  0  0
  -24.8710  -27.6879   19.4687 C   0  0  0  0  0  0
  -23.6385  -29.8193   20.1576 C   0  0  0  0  0  0
  -25.4122  -36.3063   24.0310 C   0  0  1  0  0  0
  -20.5889  -28.3685   23.1256 C   0  0  2  0  0  0
  -20.6779  -26.9402   22.5399 C   0  0  0  0  0  0
  -19.5763  -26.6372   21.5191 C   0  0  0  0  0  0
  -18.1941  -26.7918   22.1597 C   0  0  0  0  0  0
  -19.1544  -28.8845   23.2858 C   0  0  0  0  0  0
  -18.9470  -30.1446   23.8880 C   0  0  0  0  0  0
  -17.6469  -30.6574   24.0558 C   0  0  0  0  0  0
  -25.9055  -34.9431   23.5086 C   0  0  0  0  0  0
  -16.5356  -29.9076   23.6326 C   0  0  0  0  0  0
  -16.7277  -28.6497   23.0336 C   0  0  0  0  0  0
  -26.4507  -31.6578   25.0714 C   0  0  0  0  0  0
  -25.3728  -31.3728   26.1430 C   0  0  0  0  0  0
  -27.0350  -30.2991   24.6201 C   0  0  0  0  0  0
  -27.6055  -32.4324   25.7492 C   0  0  0  0  0  0
  -27.5580  -37.1799   24.8465 C   0  0  0  0  0  0
  -21.4196  -29.3039   22.3649 N   0  0  0  0  0  0
  -26.4298  -37.3757   23.9396 N   0  0  0  0  0  0
  -24.6908  -31.0569   22.0972 N   0  0  0  0  0  0
  -23.4194  -28.8143   23.2995 O   0  0  0  0  0  0
  -28.3438  -26.4379   20.2000 O   0  0  0  0  0  0
  -26.5622  -34.8898   22.4649 O   0  0  0  0  0  0
  -23.5441  -32.1394   23.7321 O   0  0  0  0  0  0
  -29.8806  -22.4093   18.6917 C   0  0  0  0  0  0
  -30.0491  -19.9607   18.7542 C   0  0  0  0  0  0
  -29.1612  -21.1781   20.6563 C   0  0  0  0  0  0
  -30.2197  -21.1864   18.0738 C   0  0  0  0  0  0
  -29.3255  -22.4527   19.9862 C   0  0  0  0  0  0
  -29.5300  -19.8991   20.0691 C   0  0  0  0  0  0
  -30.3797  -24.4271   21.1793 C   0  0  0  0  0  0
  -27.8275  -18.1046   20.5525 C   0  0  0  0  0  0
  -29.5703  -18.5886   22.2746 C   0  0  0  0  0  0
  -28.3780  -21.7426   15.9013 C   0  0  0  0  0  0
  -30.3183  -22.1932   14.3964 C   0  0  0  0  0  0
  -29.6291  -19.8376   14.8769 C   0  0  0  0  0  0
  -30.8037  -21.1916   16.6650 C   0  0  0  0  0  0
  -30.2004  -17.2286   20.2317 C   0  0  0  0  0  0
  -28.3050  -25.0043   19.7701 C   0  0  0  0  0  0
  -29.0527  -23.8735   20.6394 C   0  0  1  0  0  0
  -29.3074  -18.4727   20.7597 C   0  0  0  0  0  0
  -29.7799  -21.2448   15.4858 C   0  0  0  0  0  0
  -29.8771  -15.8111   20.6799 N   0  0  0  0  0  0
  -31.4739  -12.5181   19.1745 H   0  0  0  0  0  0
  -30.3524  -11.4323   19.9425 H   0  0  0  0  0  0
  -29.7799  -11.7290   17.5111 H   0  0  0  0  0  0
  -29.6515  -13.4571   17.7325 H   0  0  0  0  0  0
  -27.8772  -11.2883   18.8972 H   0  0  0  0  0  0
  -27.3786  -12.5482   17.7992 H   0  0  0  0  0  0
  -27.6505  -14.2563   19.4913 H   0  0  0  0  0  0
  -28.7104  -12.1346   21.4231 H   0  0  0  0  0  0
  -28.4388  -13.8151   21.8109 H   0  0  0  0  0  0
  -25.2763   -9.5686   22.4760 H   0  0  0  0  0  0
  -24.0003   -7.4636   22.7469 H   0  0  0  0  0  0
  -21.0849   -8.8773   19.8943 H   0  0  0  0  0  0
  -22.3702  -10.9675   19.6159 H   0  0  0  0  0  0
  -21.2006   -7.6148   23.9716 H   0  0  0  0  0  0
  -21.1477   -6.0520   25.9079 H   0  0  0  0  0  0
  -22.0602   -2.7610   23.2845 H   0  0  0  0  0  0
  -22.4098  -11.9857   22.4793 H   0  0  0  0  0  0
  -21.1093  -13.1217   22.2629 H   0  0  0  0  0  0
  -24.6508  -15.8419   20.5253 H   0  0  0  0  0  0
  -26.2595  -15.6303   20.0577 H   0  0  0  0  0  0
  -26.7191  -32.5429   23.1066 H   0  0  0  0  0  0
  -25.0102  -33.9717   25.0420 H   0  0  0  0  0  0
  -22.7155  -31.3013   21.4001 H   0  0  0  0  0  0
  -23.3739  -35.9635   23.3309 H   0  0  0  0  0  0
  -24.3594  -36.8917   22.2050 H   0  0  0  0  0  0
  -23.7261  -37.6490   23.6666 H   0  0  0  0  0  0
  -26.1035  -31.5425   20.6119 H   0  0  0  0  0  0
  -26.8432  -30.8230   22.0124 H   0  0  0  0  0  0
  -28.1073  -28.9467   21.2080 H   0  0  0  0  0  0
  -25.9560  -25.9584   18.9299 H   0  0  0  0  0  0
  -23.9798  -27.3297   18.9725 H   0  0  0  0  0  0
  -23.7596  -30.5973   19.4025 H   0  0  0  0  0  0
  -22.7578  -29.2518   19.8524 H   0  0  0  0  0  0
  -25.1306  -36.1908   25.0797 H   0  0  0  0  0  0
  -20.9977  -28.3266   24.1380 H   0  0  0  0  0  0
  -20.5671  -26.2291   23.3599 H   0  0  0  0  0  0
  -21.6654  -26.7432   22.1202 H   0  0  0  0  0  0
  -19.6935  -25.6281   21.1231 H   0  0  0  0  0  0
  -19.6715  -27.3163   20.6700 H   0  0  0  0  0  0
  -17.4213  -26.6637   21.3999 H   0  0  0  0  0  0
  -18.0366  -26.0061   22.8999 H   0  0  0  0  0  0
  -19.7951  -30.7252   24.2243 H   0  0  0  0  0  0
  -17.5032  -31.6256   24.5159 H   0  0  0  0  0  0
  -15.5359  -30.2972   23.7662 H   0  0  0  0  0  0
  -15.8678  -28.0817   22.7045 H   0  0  0  0  0  0
  -24.5915  -30.7058   25.7770 H   0  0  0  0  0  0
  -24.8898  -32.2894   26.4821 H   0  0  0  0  0  0
  -25.8041  -30.8943   27.0230 H   0  0  0  0  0  0
  -26.2930  -29.6731   24.1229 H   0  0  0  0  0  0
  -27.4028  -29.7261   25.4718 H   0  0  0  0  0  0
  -27.8809  -30.4257   23.9437 H   0  0  0  0  0  0
  -27.2659  -33.3635   26.2038 H   0  0  0  0  0  0
  -28.3883  -32.6873   25.0336 H   0  0  0  0  0  0
  -28.0694  -31.8472   26.5440 H   0  0  0  0  0  0
  -28.2588  -38.0103   24.7511 H   0  0  0  0  0  0
  -28.1079  -36.2629   24.6296 H   0  0  0  0  0  0
  -27.2300  -37.1468   25.8869 H   0  0  0  0  0  0
  -20.9358  -29.8787   21.6895 H   0  0  0  0  0  0
  -26.0169  -38.2821   24.1411 H   0  0  0  0  0  0
  -30.0648  -23.3294   18.1557 H   0  0  0  0  0  0
  -30.3212  -19.0592   18.2298 H   0  0  0  0  0  0
  -28.7450  -21.1935   21.6524 H   0  0  0  0  0  0
  -30.8510  -23.7191   21.8615 H   0  0  0  0  0  0
  -30.2226  -25.3534   21.7318 H   0  0  0  0  0  0
  -31.0820  -24.6357   20.3713 H   0  0  0  0  0  0
  -27.1663  -18.8789   20.9438 H   0  0  0  0  0  0
  -27.5625  -17.1761   21.0572 H   0  0  0  0  0  0
  -27.6001  -17.9870   19.4921 H   0  0  0  0  0  0
  -28.8986  -19.2944   22.7619 H   0  0  0  0  0  0
  -30.5910  -18.9160   22.4722 H   0  0  0  0  0  0
  -29.4339  -17.6318   22.7791 H   0  0  0  0  0  0
  -27.6986  -21.7710   15.0489 H   0  0  0  0  0  0
  -28.4151  -22.7526   16.3112 H   0  0  0  0  0  0
  -27.9187  -21.0950   16.6488 H   0  0  0  0  0  0
  -29.6587  -22.2268   13.5284 H   0  0  0  0  0  0
  -31.3025  -21.8819   14.0443 H   0  0  0  0  0  0
  -30.4140  -23.2143   14.7696 H   0  0  0  0  0  0
  -28.9162  -19.8336   14.0513 H   0  0  0  0  0  0
  -29.2742  -19.1210   15.6191 H   0  0  0  0  0  0
  -30.5764  -19.4644   14.4860 H   0  0  0  0  0  0
  -31.4732  -20.3371   16.5506 H   0  0  0  0  0  0
  -31.4662  -22.0576   16.6163 H   0  0  0  0  0  0
  -31.2514  -17.4319   20.4451 H   0  0  0  0  0  0
  -30.1288  -17.1765   19.1467 H   0  0  0  0  0  0
  -27.2904  -24.6302   19.6687 H   0  0  0  0  0  0
  -28.7171  -25.0062   18.7622 H   0  0  0  0  0  0
  -28.4189  -23.6895   21.5074 H   0  0  0  0  0  0
  -28.9277  -15.6475   20.9770 H   0  0  0  0  0  0
  1 25  1  0  0  0
  1 30  2  0  0  0
  1 89  1  0  0  0
  2  3  1  0  0  0
  2 25  1  0  0  0
  2 90  1  0  0  0
  2 91  1  0  0  0
  3  4  1  0  0  0
  3 92  1  0  0  0
  3 93  1  0  0  0
  4  5  1  0  0  0
  4 94  1  0  0  0
  4 95  1  0  0  0
  5  6  1  0  0  0
  5 26  1  0  0  0
  5 96  1  0  0  0
  6 25  1  0  0  0
  6 97  1  0  0  0
  6 98  1  0  0  0
  7  8  2  0  0  0
  7 26  1  0  0  0
  7 29  1  0  0  0
  8  9  1  0  0  0
  8 22  1  0  0  0
  9 10  1  0  0  0
  9 27  2  0  0  0
 10 11  2  0  0  0
 10 15  1  0  0  0
 11 12  1  0  0  0
 11 99  1  0  0  0
 12 13  2  0  0  0
 12100  1  0  0  0
 13 14  1  0  0  0
 13 31  1  0  0  0
 14 15  2  0  0  0
 14101  1  0  0  0
 15102  1  0  0  0
 16 17  2  0  0  0
 16 21  1  0  0  0
 16 31  1  0  0  0
 17 18  1  0  0  0
 17103  1  0  0  0
 18 19  2  0  0  0
 18104  1  0  0  0
 19 20  1  0  0  0
 19 24  1  0  0  0
 20 21  2  0  0  0
 20105  1  0  0  0
 21 23  1  0  0  0
 22 28  1  0  0  0
 22 32  2  0  0  0
 26 27  1  0  0  0
 28106  1  0  0  0
 28107  1  0  0  0
 29108  1  0  0  0
 29109  1  0  0  0
 33 34  1  0  0  0
 33 66  1  0  0  0
 33 70  2  0  0  0
 34 36  1  0  0  0
 34 59  1  0  0  0
 34110  1  0  0  0
 35 44  2  0  0  0
 35 45  1  0  0  0
 35 68  1  0  0  0
 36 56  1  0  0  0
 36111  1  0  0  0
 37 39  1  0  0  0
 37 47  1  0  0  0
 37 66  1  0  0  0
 37112  1  0  0  0
 38 43  2  0  0  0
 38 46  1  0  0  0
 38 47  1  0  0  0
 39 64  1  0  0  0
 39 67  2  0  0  0
 40 52  1  0  0  0
 40 53  2  0  0  0
 40 58  1  0  0  0
 41113  1  0  0  0
 41114  1  0  0  0
 41115  1  0  0  0
 41 48  1  0  0  0
 42 43  1  0  0  0
 42 66  1  0  0  0
 42116  1  0  0  0
 42117  1  0  0  0
 43 44  1  0  0  0
 44118  1  0  0  0
 45 46  2  0  0  0
 45119  1  0  0  0
 46120  1  0  0  0
 47121  1  0  0  0
 47122  1  0  0  0
 48 56  1  0  0  0
 48 65  1  0  0  0
 48123  1  0  0  0
 49 50  1  0  0  0
 49 53  1  0  0  0
 49 64  1  0  0  0
 49124  1  0  0  0
 50 51  1  0  0  0
 50125  1  0  0  0
 50126  1  0  0  0
 51 52  1  0  0  0
 51127  1  0  0  0
 51128  1  0  0  0
 52129  1  0  0  0
 52130  1  0  0  0
 53 54  1  0  0  0
 54 55  2  0  0  0
 54131  1  0  0  0
 55 57  1  0  0  0
 55132  1  0  0  0
 56 69  2  0  0  0
 57 58  2  0  0  0
 57133  1  0  0  0
 58134  1  0  0  0
 59 60  1  0  0  0
 59 61  1  0  0  0
 59 62  1  0  0  0
 60135  1  0  0  0
 60136  1  0  0  0
 60137  1  0  0  0
 61138  1  0  0  0
 61139  1  0  0  0
 61140  1  0  0  0
 62141  1  0  0  0
 62142  1  0  0  0
 62143  1  0  0  0
 63 65  1  0  0  0
 63144  1  0  0  0
 63145  1  0  0  0
 63146  1  0  0  0
 64147  1  0  0  0
 65148  1  0  0  0
 68 85  1  0  0  0
 71 74  2  0  0  0
 71 75  1  0  0  0
 71149  1  0  0  0
 72 74  1  0  0  0
 72 76  2  0  0  0
 72150  1  0  0  0
 73 75  2  0  0  0
 73 76  1  0  0  0
 73151  1  0  0  0
 74 83  1  0  0  0
 75 86  1  0  0  0
 76 87  1  0  0  0
 77152  1  0  0  0
 77153  1  0  0  0
 77154  1  0  0  0
 77 86  1  0  0  0
 78155  1  0  0  0
 78156  1  0  0  0
 78157  1  0  0  0
 78 87  1  0  0  0
 79 87  1  0  0  0
 79158  1  0  0  0
 79159  1  0  0  0
 79160  1  0  0  0
 80161  1  0  0  0
 80162  1  0  0  0
 80163  1  0  0  0
 80 88  1  0  0  0
 81 88  1  0  0  0
 81164  1  0  0  0
 81165  1  0  0  0
 81166  1  0  0  0
 82 88  1  0  0  0
 82167  1  0  0  0
 82168  1  0  0  0
 82169  1  0  0  0
 83 88  1  0  0  0
 83170  1  0  0  0
 83171  1  0  0  0
 84 87  1  0  0  0
 84 89  1  0  0  0
 84172  1  0  0  0
 84173  1  0  0  0
 85 86  1  0  0  0
 85174  1  0  0  0
 85175  1  0  0  0
 86176  1  0  0  0
 89177  1  0  0  0
M  ISO  4   1 100  68 101  85 101  89 100
M  END
> <chiral flag>
0

> <version>
0

> <s_m_source_file>
/data/baiqing/PycharmProjects/Reinvent-master-3.2/result/LINK_invent/BTK/process_docking_weight1_custom_sum_contain_oxygen_bond_distance_aromatic_linkinvent_7_9_3/rearranged_h_0102.sdf

> <i_m_source_file_index>
92

> <r_mmod_Potential_Energy-OPLS-2005>
82.5264511108398

> <r_mmod_Stretch_Energy-OPLS-2005>
111.123764038086

> <r_mmod_Bend_Energy-OPLS-2005>
163.572021484375

> <r_mmod_Torsional_Energy-OPLS-2005>
222.137664794922

> <r_mmod_Improper_Torsional_Energy-OPLS-2005>
6.70546770095825

> <r_mmod_Van_der_Waal_Energy-OPLS-2005>
144.389694213867

> <r_mmod_Electrostatic_Energy-OPLS-2005>
-442.251770019531

> <r_mmod_Solvation_Energy-OPLS-2005>
-187.106643676758

> <b_mmod_Minimization_Converged-OPLS-2005>
0

> <r_mmod_RMS_Derivative-OPLS-2005>
1.33505773544312

$$$$
93
                    3D
 Structure written by MMmdl.
166174  0  0  1  0            999 V2000
  -30.7101  -14.4967   20.5777 C   0  0  0  0  0  0
  -30.4241  -12.3258   19.4247 C   0  0  0  0  0  0
  -29.4973  -12.5040   18.2063 C   0  0  0  0  0  0
  -28.0177  -12.3599   18.6195 C   0  0  0  0  0  0
  -27.6621  -13.2078   19.8716 C   0  0  2  0  0  0
  -28.7047  -13.0134   20.9937 C   0  0  0  0  0  0
  -25.2595  -13.8168   20.5647 C   0  0  0  0  0  0
  -24.1832  -13.0458   20.9150 C   0  0  0  0  0  0
  -24.6393  -11.6922   20.8733 C   0  0  0  0  0  0
  -23.9060  -10.4308   21.0402 C   0  0  0  0  0  0
  -24.3621   -9.4225   21.9172 C   0  0  0  0  0  0
  -23.6303   -8.2258   22.0749 C   0  0  0  0  0  0
  -22.4278   -8.0294   21.3546 C   0  0  0  0  0  0
  -21.9912   -9.0261   20.4645 C   0  0  0  0  0  0
  -22.7238  -10.2141   20.3047 C   0  0  0  0  0  0
  -21.6860   -6.0748   22.5271 C   0  0  0  0  0  0
  -21.4016   -6.5642   23.8205 C   0  0  0  0  0  0
  -21.3659   -5.6790   24.9159 C   0  0  0  0  0  0
  -21.6047   -4.3056   24.7210 C   0  0  0  0  0  0
  -21.8818   -3.8154   23.4331 C   0  0  0  0  0  0
  -21.9190   -4.6974   22.3391 C   0  0  0  0  0  0
  -22.7853  -13.5273   21.1814 C   0  0  0  0  0  0
  -22.1657   -4.2160   21.0969 F   0  0  0  0  0  0
  -21.5630   -3.4539   25.7727 F   0  0  0  0  0  0
  -30.0287  -13.3242   20.4321 N   0  0  0  0  0  0
  -26.3041  -12.9342   20.3364 N   0  0  0  0  0  0
  -25.9325  -11.6506   20.5767 N   0  0  0  0  0  0
  -22.0481  -12.8274   22.0372 N   0  0  0  0  0  0
  -25.4355  -15.1874   20.4033 N   0  0  0  0  0  0
  -31.8448  -14.6566   20.1243 O   0  0  0  0  0  0
  -21.6640   -6.8896   21.4239 O   0  0  0  0  0  0
  -22.3552  -14.5597   20.6689 O   0  0  0  0  0  0
  -24.6193  -31.8640   23.2060 C   0  0  0  0  0  0
  -25.9073  -32.4795   23.8371 C   0  0  1  0  0  0
  -27.2379  -27.3813   20.0996 C   0  0  0  0  0  0
  -25.5920  -33.8597   24.2304 N   0  0  0  0  0  0
  -23.4092  -30.4864   21.5468 C   0  0  2  0  0  0
  -24.8540  -28.9399   20.1174 C   0  0  0  0  0  0
  -22.7428  -29.4652   22.4974 C   0  0  0  0  0  0
  -18.0277  -28.1381   22.8488 C   0  0  0  0  0  0
  -24.1485  -36.7289   23.2637 C   0  0  0  0  0  0
  -25.9436  -30.8097   21.3694 C   0  0  0  0  0  0
  -26.0164  -29.4406   20.7145 C   0  0  0  0  0  0
  -27.2055  -28.6687   20.7002 C   0  0  0  0  0  0
  -26.0466  -26.9017   19.5064 C   0  0  0  0  0  0
  -24.8666  -27.6715   19.5129 C   0  0  0  0  0  0
  -23.6197  -29.8138   20.1637 C   0  0  0  0  0  0
  -25.4109  -36.3089   24.0333 C   0  0  1  0  0  0
  -20.5869  -28.3679   23.1299 C   0  0  2  0  0  0
  -20.6771  -26.9413   22.5406 C   0  0  0  0  0  0
  -19.5750  -26.6387   21.5205 C   0  0  0  0  0  0
  -18.1928  -26.7925   22.1616 C   0  0  0  0  0  0
  -19.1524  -28.8847   23.2887 C   0  0  0  0  0  0
  -18.9458  -30.1449   23.8900 C   0  0  0  0  0  0
  -17.6461  -30.6591   24.0560 C   0  0  0  0  0  0
  -25.9044  -34.9460   23.5115 C   0  0  0  0  0  0
  -16.5347  -29.9086   23.6332 C   0  0  0  0  0  0
  -16.7267  -28.6497   23.0360 C   0  0  0  0  0  0
  -26.4486  -31.6598   25.0726 C   0  0  0  0  0  0
  -25.3740  -31.3727   26.1470 C   0  0  0  0  0  0
  -27.0337  -30.3034   24.6156 C   0  0  0  0  0  0
  -27.6056  -32.4333   25.7488 C   0  0  0  0  0  0
  -27.5579  -37.1796   24.8465 C   0  0  0  0  0  0
  -21.4154  -29.3041   22.3704 N   0  0  0  0  0  0
  -26.4289  -37.3781   23.9413 N   0  0  0  0  0  0
  -24.6754  -31.0695   22.0982 N   0  0  0  0  0  0
  -23.4176  -28.8202   23.3041 O   0  0  0  0  0  0
  -28.4299  -26.6645   20.1203 O   0  0  0  0  0  0
  -26.5598  -34.8921   22.4673 O   0  0  0  0  0  0
  -23.5375  -32.1425   23.7423 O   0  0  0  0  0  0
  -29.6114  -19.2102   21.6654 C   0  0  0  0  0  0
  -29.2976  -19.7180   19.5282 C   0  0  0  0  0  0
  -29.9996  -18.1008   20.9520 C   0  0  0  0  0  0
  -29.7987  -18.4353   19.5729 C   0  0  0  0  0  0
  -31.6137  -17.6722   18.0215 C   0  0  0  0  0  0
  -29.2419  -17.8852   17.1671 C   0  0  0  0  0  0
  -29.6774  -24.5781   21.8003 C   0  0  0  0  0  0
  -30.6102  -16.8214   21.5519 C   0  0  0  0  0  0
  -28.8796  -22.7393   20.2062 C   0  0  0  0  0  0
  -28.7100  -21.5605   21.2283 C   0  0  0  0  0  0
  -28.5554  -25.2961   19.6395 C   0  0  0  0  0  0
  -30.1252  -17.5628   18.3789 C   0  0  0  0  0  0
  -28.6118  -24.1934   20.7549 C   0  0  2  0  0  0
  -29.2020  -20.2274   20.8095 N   0  0  0  0  0  0
  -30.0389  -15.5165   21.1552 N   0  0  0  0  0  0
  -31.4678  -12.4289   19.1208 H   0  0  0  0  0  0
  -30.3334  -11.3190   19.8348 H   0  0  0  0  0  0
  -29.7469  -11.7738   17.4337 H   0  0  0  0  0  0
  -29.6589  -13.4878   17.7634 H   0  0  0  0  0  0
  -27.8252  -11.3036   18.8137 H   0  0  0  0  0  0
  -27.3710  -12.6329   17.7854 H   0  0  0  0  0  0
  -27.7064  -14.2533   19.5650 H   0  0  0  0  0  0
  -28.6874  -11.9832   21.3536 H   0  0  0  0  0  0
  -28.4667  -13.6294   21.8620 H   0  0  0  0  0  0
  -25.2764   -9.5710   22.4746 H   0  0  0  0  0  0
  -24.0009   -7.4660   22.7478 H   0  0  0  0  0  0
  -21.0843   -8.8785   19.8966 H   0  0  0  0  0  0
  -22.3694  -10.9676   19.6161 H   0  0  0  0  0  0
  -21.2006   -7.6148   23.9717 H   0  0  0  0  0  0
  -21.1487   -6.0509   25.9064 H   0  0  0  0  0  0
  -22.0604   -2.7624   23.2813 H   0  0  0  0  0  0
  -22.4099  -11.9953   22.4786 H   0  0  0  0  0  0
  -21.1101  -13.1323   22.2575 H   0  0  0  0  0  0
  -24.6771  -15.8485   20.5236 H   0  0  0  0  0  0
  -26.2961  -15.6229   20.0956 H   0  0  0  0  0  0
  -26.7137  -32.5479   23.1119 H   0  0  0  0  0  0
  -25.0107  -33.9759   25.0474 H   0  0  0  0  0  0
  -22.7001  -31.3046   21.4027 H   0  0  0  0  0  0
  -23.3755  -35.9614   23.3306 H   0  0  0  0  0  0
  -24.3573  -36.8900   22.2050 H   0  0  0  0  0  0
  -23.7232  -37.6492   23.6649 H   0  0  0  0  0  0
  -26.0705  -31.5753   20.6027 H   0  0  0  0  0  0
  -26.8263  -30.8557   21.9963 H   0  0  0  0  0  0
  -28.1040  -29.0520   21.1634 H   0  0  0  0  0  0
  -25.9894  -25.9327   19.0372 H   0  0  0  0  0  0
  -23.9696  -27.2762   19.0562 H   0  0  0  0  0  0
  -23.7336  -30.5850   19.4012 H   0  0  0  0  0  0
  -22.7425  -29.2358   19.8673 H   0  0  0  0  0  0
  -25.1286  -36.1943   25.0826 H   0  0  0  0  0  0
  -20.9957  -28.3250   24.1419 H   0  0  0  0  0  0
  -20.5677  -26.2291   23.3598 H   0  0  0  0  0  0
  -21.6644  -26.7459   22.1202 H   0  0  0  0  0  0
  -19.6918  -25.6297   21.1238 H   0  0  0  0  0  0
  -19.6688  -27.3193   20.6730 H   0  0  0  0  0  0
  -17.4199  -26.6672   21.4017 H   0  0  0  0  0  0
  -18.0332  -26.0063   22.9010 H   0  0  0  0  0  0
  -19.7937  -30.7259   24.2273 H   0  0  0  0  0  0
  -17.5022  -31.6272   24.5157 H   0  0  0  0  0  0
  -15.5353  -30.2993   23.7660 H   0  0  0  0  0  0
  -15.8662  -28.0815   22.7091 H   0  0  0  0  0  0
  -24.5902  -30.7087   25.7804 H   0  0  0  0  0  0
  -24.8946  -32.2893   26.4916 H   0  0  0  0  0  0
  -25.8083  -30.8892   27.0230 H   0  0  0  0  0  0
  -26.2909  -29.6780   24.1191 H   0  0  0  0  0  0
  -27.4068  -29.7289   25.4644 H   0  0  0  0  0  0
  -27.8756  -30.4340   23.9354 H   0  0  0  0  0  0
  -27.2673  -33.3630   26.2077 H   0  0  0  0  0  0
  -28.3857  -32.6906   25.0310 H   0  0  0  0  0  0
  -28.0737  -31.8457   26.5395 H   0  0  0  0  0  0
  -28.2595  -38.0096   24.7523 H   0  0  0  0  0  0
  -28.1076  -36.2628   24.6273 H   0  0  0  0  0  0
  -27.2298  -37.1430   25.8868 H   0  0  0  0  0  0
  -20.9326  -29.8747   21.6904 H   0  0  0  0  0  0
  -26.0172  -38.2856   24.1423 H   0  0  0  0  0  0
  -29.6143  -19.3806   22.7349 H   0  0  0  0  0  0
  -29.0158  -20.3264   18.6798 H   0  0  0  0  0  0
  -32.2424  -17.3980   18.8690 H   0  0  0  0  0  0
  -31.8782  -18.6888   17.7303 H   0  0  0  0  0  0
  -31.8735  -17.0105   17.1948 H   0  0  0  0  0  0
  -28.1852  -17.8069   17.4218 H   0  0  0  0  0  0
  -29.4350  -17.1951   16.3454 H   0  0  0  0  0  0
  -29.4278  -18.8945   16.7977 H   0  0  0  0  0  0
  -29.6712  -23.9095   22.6598 H   0  0  0  0  0  0
  -29.5067  -25.5832   22.1867 H   0  0  0  0  0  0
  -30.6792  -24.5560   21.3696 H   0  0  0  0  0  0
  -30.5237  -16.8889   22.6373 H   0  0  0  0  0  0
  -31.6832  -16.8492   21.3511 H   0  0  0  0  0  0
  -28.2019  -22.5522   19.3724 H   0  0  0  0  0  0
  -29.8845  -22.7003   19.7854 H   0  0  0  0  0  0
  -27.6561  -21.4602   21.4899 H   0  0  0  0  0  0
  -29.2198  -21.8029   22.1592 H   0  0  0  0  0  0
  -27.8281  -25.0330   18.8744 H   0  0  0  0  0  0
  -29.5079  -25.2674   19.1082 H   0  0  0  0  0  0
  -29.9199  -16.5310   18.6596 H   0  0  0  0  0  0
  -27.6408  -24.1888   21.2524 H   0  0  0  0  0  0
  -29.0924  -15.3298   21.4482 H   0  0  0  0  0  0
  1 25  1  0  0  0
  1 30  2  0  0  0
  1 85  1  0  0  0
  2  3  1  0  0  0
  2 25  1  0  0  0
  2 86  1  0  0  0
  2 87  1  0  0  0
  3  4  1  0  0  0
  3 88  1  0  0  0
  3 89  1  0  0  0
  4  5  1  0  0  0
  4 90  1  0  0  0
  4 91  1  0  0  0
  5  6  1  0  0  0
  5 26  1  0  0  0
  5 92  1  0  0  0
  6 25  1  0  0  0
  6 93  1  0  0  0
  6 94  1  0  0  0
  7  8  2  0  0  0
  7 26  1  0  0  0
  7 29  1  0  0  0
  8  9  1  0  0  0
  8 22  1  0  0  0
  9 10  1  0  0  0
  9 27  2  0  0  0
 10 11  2  0  0  0
 10 15  1  0  0  0
 11 12  1  0  0  0
 11 95  1  0  0  0
 12 13  2  0  0  0
 12 96  1  0  0  0
 13 14  1  0  0  0
 13 31  1  0  0  0
 14 15  2  0  0  0
 14 97  1  0  0  0
 15 98  1  0  0  0
 16 17  2  0  0  0
 16 21  1  0  0  0
 16 31  1  0  0  0
 17 18  1  0  0  0
 17 99  1  0  0  0
 18 19  2  0  0  0
 18100  1  0  0  0
 19 20  1  0  0  0
 19 24  1  0  0  0
 20 21  2  0  0  0
 20101  1  0  0  0
 21 23  1  0  0  0
 22 28  1  0  0  0
 22 32  2  0  0  0
 26 27  1  0  0  0
 28102  1  0  0  0
 28103  1  0  0  0
 29104  1  0  0  0
 29105  1  0  0  0
 33 34  1  0  0  0
 33 66  1  0  0  0
 33 70  2  0  0  0
 34 36  1  0  0  0
 34 59  1  0  0  0
 34106  1  0  0  0
 35 44  2  0  0  0
 35 45  1  0  0  0
 35 68  1  0  0  0
 36 56  1  0  0  0
 36107  1  0  0  0
 37 39  1  0  0  0
 37 47  1  0  0  0
 37 66  1  0  0  0
 37108  1  0  0  0
 38 43  2  0  0  0
 38 46  1  0  0  0
 38 47  1  0  0  0
 39 64  1  0  0  0
 39 67  2  0  0  0
 40 52  1  0  0  0
 40 53  2  0  0  0
 40 58  1  0  0  0
 41109  1  0  0  0
 41110  1  0  0  0
 41111  1  0  0  0
 41 48  1  0  0  0
 42 43  1  0  0  0
 42 66  1  0  0  0
 42112  1  0  0  0
 42113  1  0  0  0
 43 44  1  0  0  0
 44114  1  0  0  0
 45 46  2  0  0  0
 45115  1  0  0  0
 46116  1  0  0  0
 47117  1  0  0  0
 47118  1  0  0  0
 48 56  1  0  0  0
 48 65  1  0  0  0
 48119  1  0  0  0
 49 50  1  0  0  0
 49 53  1  0  0  0
 49 64  1  0  0  0
 49120  1  0  0  0
 50 51  1  0  0  0
 50121  1  0  0  0
 50122  1  0  0  0
 51 52  1  0  0  0
 51123  1  0  0  0
 51124  1  0  0  0
 52125  1  0  0  0
 52126  1  0  0  0
 53 54  1  0  0  0
 54 55  2  0  0  0
 54127  1  0  0  0
 55 57  1  0  0  0
 55128  1  0  0  0
 56 69  2  0  0  0
 57 58  2  0  0  0
 57129  1  0  0  0
 58130  1  0  0  0
 59 60  1  0  0  0
 59 61  1  0  0  0
 59 62  1  0  0  0
 60131  1  0  0  0
 60132  1  0  0  0
 60133  1  0  0  0
 61134  1  0  0  0
 61135  1  0  0  0
 61136  1  0  0  0
 62137  1  0  0  0
 62138  1  0  0  0
 62139  1  0  0  0
 63 65  1  0  0  0
 63140  1  0  0  0
 63141  1  0  0  0
 63142  1  0  0  0
 64143  1  0  0  0
 65144  1  0  0  0
 68 81  1  0  0  0
 71 73  2  0  0  0
 71 84  1  0  0  0
 71145  1  0  0  0
 72 74  2  0  0  0
 72 84  1  0  0  0
 72146  1  0  0  0
 73 74  1  0  0  0
 73 78  1  0  0  0
 74 82  1  0  0  0
 75147  1  0  0  0
 75148  1  0  0  0
 75149  1  0  0  0
 75 82  1  0  0  0
 76 82  1  0  0  0
 76150  1  0  0  0
 76151  1  0  0  0
 76152  1  0  0  0
 77153  1  0  0  0
 77154  1  0  0  0
 77155  1  0  0  0
 77 83  1  0  0  0
 78 85  1  0  0  0
 78156  1  0  0  0
 78157  1  0  0  0
 79 80  1  0  0  0
 79 83  1  0  0  0
 79158  1  0  0  0
 79159  1  0  0  0
 80 84  1  0  0  0
 80160  1  0  0  0
 80161  1  0  0  0
 81 83  1  0  0  0
 81162  1  0  0  0
 81163  1  0  0  0
 82164  1  0  0  0
 83165  1  0  0  0
 85166  1  0  0  0
M  ISO  4   1 100  68 101  81 101  85 100
M  END
> <chiral flag>
0

> <version>
0

> <s_m_source_file>
/data/baiqing/PycharmProjects/Reinvent-master-3.2/result/LINK_invent/BTK/process_docking_weight1_custom_sum_contain_oxygen_bond_distance_aromatic_linkinvent_7_9_3/rearranged_h_0102.sdf

> <i_m_source_file_index>
93

> <r_mmod_Potential_Energy-OPLS-2005>
-117.327842712402

> <r_mmod_Stretch_Energy-OPLS-2005>
47.9239463806152

> <r_mmod_Bend_Energy-OPLS-2005>
125.294998168945

> <r_mmod_Torsional_Energy-OPLS-2005>
207.294418334961

> <r_mmod_Improper_Torsional_Energy-OPLS-2005>
2.85952258110046

> <r_mmod_Van_der_Waal_Energy-OPLS-2005>
118.176231384277

> <r_mmod_Electrostatic_Energy-OPLS-2005>
-436.579162597656

> <r_mmod_Solvation_Energy-OPLS-2005>
-200.875930786133

> <b_mmod_Minimization_Converged-OPLS-2005>
0

> <r_mmod_RMS_Derivative-OPLS-2005>
2.2545804977417

$$$$
94
                    3D
 Structure written by MMmdl.
169177  0  0  1  0            999 V2000
  -30.5915  -14.7727   20.4463 C   0  0  0  0  0  0
  -30.4383  -12.4632   19.4993 C   0  0  0  0  0  0
  -29.5250  -12.5079   18.2532 C   0  0  0  0  0  0
  -28.0484  -12.3300   18.6575 C   0  0  0  0  0  0
  -27.6441  -13.2331   19.8528 C   0  0  2  0  0  0
  -28.6821  -13.1775   20.9962 C   0  0  0  0  0  0
  -25.2518  -13.8199   20.5691 C   0  0  0  0  0  0
  -24.1798  -13.0444   20.9195 C   0  0  0  0  0  0
  -24.6383  -11.6926   20.8746 C   0  0  0  0  0  0
  -23.9053  -10.4289   21.0405 C   0  0  0  0  0  0
  -24.3606   -9.4205   21.9179 C   0  0  0  0  0  0
  -23.6285   -8.2240   22.0754 C   0  0  0  0  0  0
  -22.4272   -8.0272   21.3536 C   0  0  0  0  0  0
  -21.9892   -9.0240   20.4638 C   0  0  0  0  0  0
  -22.7224  -10.2123   20.3046 C   0  0  0  0  0  0
  -21.6854   -6.0723   22.5277 C   0  0  0  0  0  0
  -21.4015   -6.5632   23.8211 C   0  0  0  0  0  0
  -21.3665   -5.6790   24.9175 C   0  0  0  0  0  0
  -21.6049   -4.3045   24.7235 C   0  0  0  0  0  0
  -21.8822   -3.8135   23.4355 C   0  0  0  0  0  0
  -21.9197   -4.6949   22.3411 C   0  0  0  0  0  0
  -22.7815  -13.5227   21.1867 C   0  0  0  0  0  0
  -22.1666   -4.2129   21.0987 F   0  0  0  0  0  0
  -21.5641   -3.4538   25.7752 F   0  0  0  0  0  0
  -29.9873  -13.5318   20.4252 N   0  0  0  0  0  0
  -26.2940  -12.9407   20.3256 N   0  0  0  0  0  0
  -25.9312  -11.6547   20.5723 N   0  0  0  0  0  0
  -22.0465  -12.8194   22.0419 N   0  0  0  0  0  0
  -25.4193  -15.1918   20.4145 N   0  0  0  0  0  0
  -31.7676  -14.8773   20.0873 O   0  0  0  0  0  0
  -21.6644   -6.8860   21.4236 O   0  0  0  0  0  0
  -22.3489  -14.5530   20.6720 O   0  0  0  0  0  0
  -24.6314  -31.8533   23.1956 C   0  0  0  0  0  0
  -25.9116  -32.4754   23.8332 C   0  0  1  0  0  0
  -27.2243  -27.2509   20.1461 C   0  0  0  0  0  0
  -25.5900  -33.8562   24.2247 N   0  0  0  0  0  0
  -23.4321  -30.4718   21.5395 C   0  0  2  0  0  0
  -24.8792  -28.9105   20.1168 C   0  0  0  0  0  0
  -22.7527  -29.4584   22.4917 C   0  0  0  0  0  0
  -18.0302  -28.1388   22.8474 C   0  0  0  0  0  0
  -24.1484  -36.7281   23.2649 C   0  0  0  0  0  0
  -25.9770  -30.7610   21.3778 C   0  0  0  0  0  0
  -26.0502  -29.3804   20.7275 C   0  0  0  0  0  0
  -27.2263  -28.5635   20.7281 C   0  0  0  0  0  0
  -26.0370  -26.8499   19.5018 C   0  0  0  0  0  0
  -24.8772  -27.6517   19.4938 C   0  0  0  0  0  0
  -23.6523  -29.7998   20.1590 C   0  0  0  0  0  0
  -25.4116  -36.3079   24.0337 C   0  0  1  0  0  0
  -20.5916  -28.3694   23.1250 C   0  0  2  0  0  0
  -20.6791  -26.9411   22.5398 C   0  0  0  0  0  0
  -19.5774  -26.6379   21.5204 C   0  0  0  0  0  0
  -18.1951  -26.7931   22.1612 C   0  0  0  0  0  0
  -19.1554  -28.8864   23.2860 C   0  0  0  0  0  0
  -18.9478  -30.1465   23.8863 C   0  0  0  0  0  0
  -17.6475  -30.6581   24.0562 C   0  0  0  0  0  0
  -25.9051  -34.9453   23.5111 C   0  0  0  0  0  0
  -16.5363  -29.9079   23.6355 C   0  0  0  0  0  0
  -16.7289  -28.6510   23.0351 C   0  0  0  0  0  0
  -26.4488  -31.6591   25.0726 C   0  0  0  0  0  0
  -25.3696  -31.3732   26.1436 C   0  0  0  0  0  0
  -27.0367  -30.3029   24.6205 C   0  0  0  0  0  0
  -27.6058  -32.4333   25.7470 C   0  0  0  0  0  0
  -27.5583  -37.1801   24.8480 C   0  0  0  0  0  0
  -21.4235  -29.3038   22.3640 N   0  0  0  0  0  0
  -26.4285  -37.3784   23.9428 N   0  0  0  0  0  0
  -24.6993  -31.0497   22.0931 N   0  0  0  0  0  0
  -23.4207  -28.8136   23.3044 O   0  0  0  0  0  0
  -28.3181  -26.3515   20.1480 O   0  0  0  0  0  0
  -26.5648  -34.8930   22.4688 O   0  0  0  0  0  0
  -23.5462  -32.1341   23.7245 O   0  0  0  0  0  0
  -30.3243  -18.9541   21.9901 C   0  0  0  0  0  0
  -29.2705  -19.9453   20.3354 C   0  0  0  0  0  0
  -29.7898  -18.6888   20.7112 C   0  0  0  0  0  0
  -30.1760  -20.2735   22.3559 C   0  0  0  0  0  0
  -33.3583  -18.1803   24.9527 C   0  0  0  0  0  0
  -30.6775  -22.2869   24.0405 C   0  0  0  0  0  0
  -27.1014  -24.9982   21.8958 C   0  0  0  0  0  0
  -29.9176  -17.2826   19.9597 C   0  0  0  0  0  0
  -32.0462  -18.9745   24.9881 C   0  0  0  0  0  0
  -32.0712  -20.1999   24.0539 C   0  0  0  0  0  0
  -28.6305  -23.5532   20.3217 C   0  0  0  0  0  0
  -29.0347  -22.4374   21.4321 C   0  0  0  0  0  0
  -30.6654  -20.7787   23.7219 C   0  0  2  0  0  0
  -28.3040  -25.0512   20.9289 C   0  0  1  0  0  0
  -29.4890  -20.9612   21.3184 N   0  0  0  0  0  0
  -29.8032  -15.9053   20.6338 N   0  0  0  0  0  0
  -31.4821  -12.5844   19.2060 H   0  0  0  0  0  0
  -30.3820  -11.4884   19.9853 H   0  0  0  0  0  0
  -29.8152  -11.7317   17.5437 H   0  0  0  0  0  0
  -29.6532  -13.4610   17.7369 H   0  0  0  0  0  0
  -27.9050  -11.2824   18.9267 H   0  0  0  0  0  0
  -27.3967  -12.5171   17.8043 H   0  0  0  0  0  0
  -27.6357  -14.2517   19.4643 H   0  0  0  0  0  0
  -28.7141  -12.1837   21.4452 H   0  0  0  0  0  0
  -28.4089  -13.8681   21.7955 H   0  0  0  0  0  0
  -25.2762   -9.5700   22.4729 H   0  0  0  0  0  0
  -24.0017   -7.4638   22.7476 H   0  0  0  0  0  0
  -21.0823   -8.8740   19.8936 H   0  0  0  0  0  0
  -22.3680  -10.9647   19.6138 H   0  0  0  0  0  0
  -21.1990   -7.6137   23.9701 H   0  0  0  0  0  0
  -21.1490   -6.0522   25.9074 H   0  0  0  0  0  0
  -22.0589   -2.7592   23.2868 H   0  0  0  0  0  0
  -22.4113  -11.9881   22.4826 H   0  0  0  0  0  0
  -21.1064  -13.1167   22.2623 H   0  0  0  0  0  0
  -24.6497  -15.8423   20.5306 H   0  0  0  0  0  0
  -26.2619  -15.6312   20.0678 H   0  0  0  0  0  0
  -26.7185  -32.5398   23.1080 H   0  0  0  0  0  0
  -25.0064  -33.9715   25.0400 H   0  0  0  0  0  0
  -22.7312  -31.2941   21.3876 H   0  0  0  0  0  0
  -23.3764  -35.9600   23.3303 H   0  0  0  0  0  0
  -24.3598  -36.8901   22.2069 H   0  0  0  0  0  0
  -23.7205  -37.6464   23.6672 H   0  0  0  0  0  0
  -26.1174  -31.5121   20.5994 H   0  0  0  0  0  0
  -26.8543  -30.8143   22.0116 H   0  0  0  0  0  0
  -28.1243  -28.9197   21.2149 H   0  0  0  0  0  0
  -26.0016  -25.8837   19.0204 H   0  0  0  0  0  0
  -23.9820  -27.2845   19.0112 H   0  0  0  0  0  0
  -23.7864  -30.5701   19.3997 H   0  0  0  0  0  0
  -22.7698  -29.2344   19.8538 H   0  0  0  0  0  0
  -25.1294  -36.1946   25.0832 H   0  0  0  0  0  0
  -21.0008  -28.3263   24.1372 H   0  0  0  0  0  0
  -20.5718  -26.2308   23.3605 H   0  0  0  0  0  0
  -21.6659  -26.7453   22.1180 H   0  0  0  0  0  0
  -19.6955  -25.6292   21.1250 H   0  0  0  0  0  0
  -19.6710  -27.3180   20.6721 H   0  0  0  0  0  0
  -17.4237  -26.6684   21.4004 H   0  0  0  0  0  0
  -18.0330  -26.0061   22.8990 H   0  0  0  0  0  0
  -19.7957  -30.7306   24.2191 H   0  0  0  0  0  0
  -17.5033  -31.6263   24.5168 H   0  0  0  0  0  0
  -15.5368  -30.2971   23.7699 H   0  0  0  0  0  0
  -15.8690  -28.0835   22.7050 H   0  0  0  0  0  0
  -24.5878  -30.7084   25.7741 H   0  0  0  0  0  0
  -24.8873  -32.2887   26.4861 H   0  0  0  0  0  0
  -25.7980  -30.8903   27.0224 H   0  0  0  0  0  0
  -26.2968  -29.6752   24.1226 H   0  0  0  0  0  0
  -27.4072  -29.7309   25.4720 H   0  0  0  0  0  0
  -27.8818  -30.4356   23.9450 H   0  0  0  0  0  0
  -27.2701  -33.3661   26.2021 H   0  0  0  0  0  0
  -28.3846  -32.6845   25.0254 H   0  0  0  0  0  0
  -28.0746  -31.8479   26.5384 H   0  0  0  0  0  0
  -28.2600  -38.0098   24.7541 H   0  0  0  0  0  0
  -28.1072  -36.2634   24.6275 H   0  0  0  0  0  0
  -27.2328  -37.1415   25.8889 H   0  0  0  0  0  0
  -20.9440  -29.8724   21.6795 H   0  0  0  0  0  0
  -26.0171  -38.2867   24.1419 H   0  0  0  0  0  0
  -30.8182  -18.2062   22.5911 H   0  0  0  0  0  0
  -28.7515  -20.2200   19.4267 H   0  0  0  0  0  0
  -33.3149  -17.3283   25.6313 H   0  0  0  0  0  0
  -34.2102  -18.7939   25.2456 H   0  0  0  0  0  0
  -33.5557  -17.7926   23.9520 H   0  0  0  0  0  0
  -29.6802  -22.7263   24.0149 H   0  0  0  0  0  0
  -31.3483  -22.8355   23.3784 H   0  0  0  0  0  0
  -31.0390  -22.4650   25.0541 H   0  0  0  0  0  0
  -27.2239  -24.2423   22.6703 H   0  0  0  0  0  0
  -26.1758  -24.7806   21.3628 H   0  0  0  0  0  0
  -26.9697  -25.9428   22.4261 H   0  0  0  0  0  0
  -30.8779  -17.3150   19.4415 H   0  0  0  0  0  0
  -29.1756  -17.2945   19.1613 H   0  0  0  0  0  0
  -31.8379  -19.3025   26.0079 H   0  0  0  0  0  0
  -31.2297  -18.3017   24.7266 H   0  0  0  0  0  0
  -32.6109  -19.9777   23.1316 H   0  0  0  0  0  0
  -32.6911  -20.9526   24.5432 H   0  0  0  0  0  0
  -27.7786  -23.2001   19.7405 H   0  0  0  0  0  0
  -29.4592  -23.6393   19.6188 H   0  0  0  0  0  0
  -28.2599  -22.4252   22.1949 H   0  0  0  0  0  0
  -29.8852  -22.9524   21.8507 H   0  0  0  0  0  0
  -29.9700  -20.3659   24.4568 H   0  0  0  0  0  0
  -29.1593  -25.2305   21.5805 H   0  0  0  0  0  0
  -28.8843  -15.7089   21.0006 H   0  0  0  0  0  0
  1 25  1  0  0  0
  1 30  2  0  0  0
  1 86  1  0  0  0
  2  3  1  0  0  0
  2 25  1  0  0  0
  2 87  1  0  0  0
  2 88  1  0  0  0
  3  4  1  0  0  0
  3 89  1  0  0  0
  3 90  1  0  0  0
  4  5  1  0  0  0
  4 91  1  0  0  0
  4 92  1  0  0  0
  5  6  1  0  0  0
  5 26  1  0  0  0
  5 93  1  0  0  0
  6 25  1  0  0  0
  6 94  1  0  0  0
  6 95  1  0  0  0
  7  8  2  0  0  0
  7 26  1  0  0  0
  7 29  1  0  0  0
  8  9  1  0  0  0
  8 22  1  0  0  0
  9 10  1  0  0  0
  9 27  2  0  0  0
 10 11  2  0  0  0
 10 15  1  0  0  0
 11 12  1  0  0  0
 11 96  1  0  0  0
 12 13  2  0  0  0
 12 97  1  0  0  0
 13 14  1  0  0  0
 13 31  1  0  0  0
 14 15  2  0  0  0
 14 98  1  0  0  0
 15 99  1  0  0  0
 16 17  2  0  0  0
 16 21  1  0  0  0
 16 31  1  0  0  0
 17 18  1  0  0  0
 17100  1  0  0  0
 18 19  2  0  0  0
 18101  1  0  0  0
 19 20  1  0  0  0
 19 24  1  0  0  0
 20 21  2  0  0  0
 20102  1  0  0  0
 21 23  1  0  0  0
 22 28  1  0  0  0
 22 32  2  0  0  0
 26 27  1  0  0  0
 28103  1  0  0  0
 28104  1  0  0  0
 29105  1  0  0  0
 29106  1  0  0  0
 33 34  1  0  0  0
 33 66  1  0  0  0
 33 70  2  0  0  0
 34 36  1  0  0  0
 34 59  1  0  0  0
 34107  1  0  0  0
 35 44  2  0  0  0
 35 45  1  0  0  0
 35 68  1  0  0  0
 36 56  1  0  0  0
 36108  1  0  0  0
 37 39  1  0  0  0
 37 47  1  0  0  0
 37 66  1  0  0  0
 37109  1  0  0  0
 38 43  2  0  0  0
 38 46  1  0  0  0
 38 47  1  0  0  0
 39 64  1  0  0  0
 39 67  2  0  0  0
 40 52  1  0  0  0
 40 53  2  0  0  0
 40 58  1  0  0  0
 41110  1  0  0  0
 41111  1  0  0  0
 41112  1  0  0  0
 41 48  1  0  0  0
 42 43  1  0  0  0
 42 66  1  0  0  0
 42113  1  0  0  0
 42114  1  0  0  0
 43 44  1  0  0  0
 44115  1  0  0  0
 45 46  2  0  0  0
 45116  1  0  0  0
 46117  1  0  0  0
 47118  1  0  0  0
 47119  1  0  0  0
 48 56  1  0  0  0
 48 65  1  0  0  0
 48120  1  0  0  0
 49 50  1  0  0  0
 49 53  1  0  0  0
 49 64  1  0  0  0
 49121  1  0  0  0
 50 51  1  0  0  0
 50122  1  0  0  0
 50123  1  0  0  0
 51 52  1  0  0  0
 51124  1  0  0  0
 51125  1  0  0  0
 52126  1  0  0  0
 52127  1  0  0  0
 53 54  1  0  0  0
 54 55  2  0  0  0
 54128  1  0  0  0
 55 57  1  0  0  0
 55129  1  0  0  0
 56 69  2  0  0  0
 57 58  2  0  0  0
 57130  1  0  0  0
 58131  1  0  0  0
 59 60  1  0  0  0
 59 61  1  0  0  0
 59 62  1  0  0  0
 60132  1  0  0  0
 60133  1  0  0  0
 60134  1  0  0  0
 61135  1  0  0  0
 61136  1  0  0  0
 61137  1  0  0  0
 62138  1  0  0  0
 62139  1  0  0  0
 62140  1  0  0  0
 63 65  1  0  0  0
 63141  1  0  0  0
 63142  1  0  0  0
 63143  1  0  0  0
 64144  1  0  0  0
 65145  1  0  0  0
 68 84  1  0  0  0
 71 73  1  0  0  0
 71 74  2  0  0  0
 71146  1  0  0  0
 72 73  2  0  0  0
 72 85  1  0  0  0
 72147  1  0  0  0
 73 78  1  0  0  0
 74 83  1  0  0  0
 74 85  1  0  0  0
 75 79  1  0  0  0
 75148  1  0  0  0
 75149  1  0  0  0
 75150  1  0  0  0
 76151  1  0  0  0
 76152  1  0  0  0
 76153  1  0  0  0
 76 83  1  0  0  0
 77154  1  0  0  0
 77155  1  0  0  0
 77156  1  0  0  0
 77 84  1  0  0  0
 78 86  1  0  0  0
 78157  1  0  0  0
 78158  1  0  0  0
 79 80  1  0  0  0
 79159  1  0  0  0
 79160  1  0  0  0
 80 83  1  0  0  0
 80161  1  0  0  0
 80162  1  0  0  0
 81 82  1  0  0  0
 81 84  1  0  0  0
 81163  1  0  0  0
 81164  1  0  0  0
 82 85  1  0  0  0
 82165  1  0  0  0
 82166  1  0  0  0
 83167  1  0  0  0
 84168  1  0  0  0
 86169  1  0  0  0
M  ISO  4   1 100  68 101  84 101  86 100
M  END
> <chiral flag>
0

> <version>
0

> <s_m_source_file>
/data/baiqing/PycharmProjects/Reinvent-master-3.2/result/LINK_invent/BTK/process_docking_weight1_custom_sum_contain_oxygen_bond_distance_aromatic_linkinvent_7_9_3/rearranged_h_0102.sdf

> <i_m_source_file_index>
94

> <r_mmod_Potential_Energy-OPLS-2005>
274.008758544922

> <r_mmod_Stretch_Energy-OPLS-2005>
146.515701293945

> <r_mmod_Bend_Energy-OPLS-2005>
259.359954833984

> <r_mmod_Torsional_Energy-OPLS-2005>
274.921569824219

> <r_mmod_Improper_Torsional_Energy-OPLS-2005>
7.62637329101562

> <r_mmod_Van_der_Waal_Energy-OPLS-2005>
129.180908203125

> <r_mmod_Electrostatic_Energy-OPLS-2005>
-431.990356445312

> <r_mmod_Solvation_Energy-OPLS-2005>
-205.586212158203

> <b_mmod_Minimization_Converged-OPLS-2005>
0

> <r_mmod_RMS_Derivative-OPLS-2005>
2.57236814498901

$$$$
95
                    3D
 Structure written by MMmdl.
177185  0  0  1  0            999 V2000
  -30.5551  -14.9876   20.4250 C   0  0  0  0  0  0
  -30.4565  -12.6197   19.4959 C   0  0  0  0  0  0
  -29.5438  -12.5733   18.2527 C   0  0  0  0  0  0
  -28.0727  -12.3609   18.6608 C   0  0  0  0  0  0
  -27.6373  -13.2681   19.8415 C   0  0  2  0  0  0
  -28.6852  -13.3125   20.9744 C   0  0  0  0  0  0
  -25.2556  -13.8078   20.6235 C   0  0  0  0  0  0
  -24.1758  -13.0378   20.9399 C   0  0  0  0  0  0
  -24.6413  -11.6907   20.8709 C   0  0  0  0  0  0
  -23.9120  -10.4358   21.0204 C   0  0  0  0  0  0
  -24.3764   -9.4317   21.8949 C   0  0  0  0  0  0
  -23.6396   -8.2411   22.0539 C   0  0  0  0  0  0
  -22.4333   -8.0467   21.3437 C   0  0  0  0  0  0
  -21.9964   -9.0462   20.4493 C   0  0  0  0  0  0
  -22.7354  -10.2260   20.2817 C   0  0  0  0  0  0
  -21.6950   -6.0902   22.5340 C   0  0  0  0  0  0
  -21.4159   -6.5780   23.8283 C   0  0  0  0  0  0
  -21.3608   -5.6832   24.9181 C   0  0  0  0  0  0
  -21.5966   -4.3108   24.7195 C   0  0  0  0  0  0
  -21.8784   -3.8288   23.4327 C   0  0  0  0  0  0
  -21.9210   -4.7127   22.3379 C   0  0  0  0  0  0
  -22.7761  -13.5208   21.1923 C   0  0  0  0  0  0
  -22.1689   -4.2288   21.0951 F   0  0  0  0  0  0
  -21.5409   -3.4506   25.7675 F   0  0  0  0  0  0
  -29.9676  -13.7211   20.3808 N   0  0  0  0  0  0
  -26.2951  -12.9420   20.3342 N   0  0  0  0  0  0
  -25.9319  -11.6550   20.5528 N   0  0  0  0  0  0
  -22.0238  -12.8051   22.0201 N   0  0  0  0  0  0
  -25.4447  -15.1671   20.5297 N   0  0  0  0  0  0
  -31.7497  -15.0546   20.1179 O   0  0  0  0  0  0
  -21.6683   -6.9075   21.4277 O   0  0  0  0  0  0
  -22.3608  -14.5563   20.6766 O   0  0  0  0  0  0
  -24.6467  -31.8421   23.1867 C   0  0  0  0  0  0
  -25.9218  -32.4705   23.8283 C   0  0  1  0  0  0
  -27.2131  -27.1055   20.2167 C   0  0  0  0  0  0
  -25.5948  -33.8513   24.2199 N   0  0  0  0  0  0
  -23.4495  -30.4604   21.5344 C   0  0  2  0  0  0
  -24.9030  -28.8742   20.1234 C   0  0  0  0  0  0
  -22.7584  -29.4540   22.4872 C   0  0  0  0  0  0
  -18.0315  -28.1400   22.8493 C   0  0  0  0  0  0
  -24.1488  -36.7245   23.2646 C   0  0  0  0  0  0
  -26.0054  -30.7140   21.3884 C   0  0  0  0  0  0
  -26.0794  -29.3204   20.7422 C   0  0  0  0  0  0
  -27.2384  -28.4559   20.7618 C   0  0  0  0  0  0
  -26.0177  -26.7572   19.5590 C   0  0  0  0  0  0
  -24.8887  -27.6122   19.5067 C   0  0  0  0  0  0
  -23.6802  -29.7833   20.1563 C   0  0  0  0  0  0
  -25.4126  -36.3043   24.0334 C   0  0  1  0  0  0
  -20.5934  -28.3724   23.1230 C   0  0  2  0  0  0
  -20.6797  -26.9417   22.5414 C   0  0  0  0  0  0
  -19.5763  -26.6382   21.5221 C   0  0  0  0  0  0
  -18.1949  -26.7944   22.1626 C   0  0  0  0  0  0
  -19.1583  -28.8883   23.2846 C   0  0  0  0  0  0
  -18.9480  -30.1478   23.8872 C   0  0  0  0  0  0
  -17.6474  -30.6592   24.0579 C   0  0  0  0  0  0
  -25.9065  -34.9419   23.5067 C   0  0  0  0  0  0
  -16.5367  -29.9086   23.6342 C   0  0  0  0  0  0
  -16.7290  -28.6508   23.0350 C   0  0  0  0  0  0
  -26.4527  -31.6576   25.0722 C   0  0  0  0  0  0
  -25.3670  -31.3762   26.1378 C   0  0  0  0  0  0
  -27.0405  -30.2983   24.6295 C   0  0  0  0  0  0
  -27.6084  -32.4333   25.7500 C   0  0  0  0  0  0
  -27.5574  -37.1783   24.8466 C   0  0  0  0  0  0
  -21.4283  -29.3044   22.3615 N   0  0  0  0  0  0
  -26.4283  -37.3759   23.9408 N   0  0  0  0  0  0
  -24.7198  -31.0260   22.0924 N   0  0  0  0  0  0
  -23.4221  -28.8105   23.3045 O   0  0  0  0  0  0
  -28.2784  -26.1289   20.2363 O   0  0  0  0  0  0
  -26.5659  -34.8928   22.4649 O   0  0  0  0  0  0
  -23.5588  -32.1315   23.7056 O   0  0  0  0  0  0
  -27.5713  -18.1205   20.0980 C   0  0  0  0  0  0
  -27.2040  -20.3811   21.6507 C   0  0  0  0  0  0
  -26.2833  -18.5125   20.4902 C   0  0  0  0  0  0
  -26.1740  -19.4213   21.5485 C   0  0  0  0  0  0
  -28.4378  -20.2390   20.9656 C   0  0  0  0  0  0
  -28.7230  -18.7970   20.5479 C   0  0  0  0  0  0
  -25.0709  -18.0367   19.7173 C   0  0  0  0  0  0
  -22.2059  -16.1084   24.1084 C   0  0  0  0  0  0
  -24.5334  -15.4522   24.7835 C   0  0  0  0  0  0
  -23.0547  -16.7158   26.3727 C   0  0  0  0  0  0
  -24.9821  -19.3990   22.5086 C   0  0  0  0  0  0
  -29.1544  -21.7155   20.8231 C   0  0  0  0  0  0
  -29.9980  -17.7454   20.5650 C   0  0  0  0  0  0
  -24.6852  -17.9761   23.0798 C   0  0  0  0  0  0
  -28.3840  -23.1355   20.2324 C   0  0  0  0  0  0
  -23.9657  -17.9480   24.4412 C   0  0  0  0  0  0
  -28.2043  -24.7007   20.8909 C   0  0  0  0  0  0
  -23.4510  -16.5524   24.8992 C   0  0  0  0  0  0
  -29.7743  -16.1615   20.6464 N   0  0  0  0  0  0
  -31.4941  -12.7638   19.1879 H   0  0  0  0  0  0
  -30.4448  -11.6684   20.0278 H   0  0  0  0  0  0
  -29.8719  -11.7795   17.5814 H   0  0  0  0  0  0
  -29.6381  -13.5114   17.6969 H   0  0  0  0  0  0
  -27.9628  -11.3185   18.9506 H   0  0  0  0  0  0
  -27.4288  -12.5256   17.7950 H   0  0  0  0  0  0
  -27.5677  -14.2753   19.4254 H   0  0  0  0  0  0
  -28.7603  -12.3423   21.4696 H   0  0  0  0  0  0
  -28.3868  -14.0421   21.7324 H   0  0  0  0  0  0
  -25.2954   -9.5896   22.4471 H   0  0  0  0  0  0
  -24.0126   -7.4832   22.7261 H   0  0  0  0  0  0
  -21.0782   -8.9162   19.8942 H   0  0  0  0  0  0
  -22.3884  -10.9935   19.5986 H   0  0  0  0  0  0
  -21.2387   -7.6292   23.9870 H   0  0  0  0  0  0
  -21.1351   -6.0595   25.9023 H   0  0  0  0  0  0
  -22.0619   -2.7777   23.2781 H   0  0  0  0  0  0
  -22.3959  -11.9848   22.4712 H   0  0  0  0  0  0
  -21.0625  -13.0671   22.1962 H   0  0  0  0  0  0
  -24.7184  -15.8440   20.7378 H   0  0  0  0  0  0
  -26.3504  -15.5879   20.4119 H   0  0  0  0  0  0
  -26.7267  -32.5336   23.1012 H   0  0  0  0  0  0
  -25.0089  -33.9640   25.0339 H   0  0  0  0  0  0
  -22.7530  -31.2880   21.3778 H   0  0  0  0  0  0
  -23.3775  -35.9539   23.3294 H   0  0  0  0  0  0
  -24.3551  -36.8884   22.2048 H   0  0  0  0  0  0
  -23.7199  -37.6432   23.6676 H   0  0  0  0  0  0
  -26.1551  -31.4616   20.6107 H   0  0  0  0  0  0
  -26.8768  -30.7752   22.0278 H   0  0  0  0  0  0
  -28.1370  -28.7982   21.2576 H   0  0  0  0  0  0
  -25.9435  -25.7827   19.0927 H   0  0  0  0  0  0
  -23.9976  -27.2730   19.0004 H   0  0  0  0  0  0
  -23.8188  -30.5568   19.3999 H   0  0  0  0  0  0
  -22.7962  -29.2270   19.8408 H   0  0  0  0  0  0
  -25.1307  -36.1889   25.0827 H   0  0  0  0  0  0
  -21.0014  -28.3311   24.1351 H   0  0  0  0  0  0
  -20.5693  -26.2328   23.3641 H   0  0  0  0  0  0
  -21.6661  -26.7446   22.1200 H   0  0  0  0  0  0
  -19.6923  -25.6284   21.1257 H   0  0  0  0  0  0
  -19.6695  -27.3192   20.6748 H   0  0  0  0  0  0
  -17.4225  -26.6705   21.4022 H   0  0  0  0  0  0
  -18.0336  -26.0101   22.9027 H   0  0  0  0  0  0
  -19.7945  -30.7319   24.2223 H   0  0  0  0  0  0
  -17.5008  -31.6263   24.5172 H   0  0  0  0  0  0
  -15.5350  -30.2956   23.7669 H   0  0  0  0  0  0
  -15.8708  -28.0804   22.7050 H   0  0  0  0  0  0
  -24.5912  -30.7063   25.7641 H   0  0  0  0  0  0
  -24.8791  -32.2942   26.4680 H   0  0  0  0  0  0
  -25.7923  -30.9003   27.0222 H   0  0  0  0  0  0
  -26.3030  -29.6706   24.1288 H   0  0  0  0  0  0
  -27.3998  -29.7297   25.4876 H   0  0  0  0  0  0
  -27.8949  -30.4234   23.9645 H   0  0  0  0  0  0
  -27.2726  -33.3696   26.1985 H   0  0  0  0  0  0
  -28.3954  -32.6782   25.0344 H   0  0  0  0  0  0
  -28.0680  -31.8490   26.5483 H   0  0  0  0  0  0
  -28.2600  -38.0082   24.7540 H   0  0  0  0  0  0
  -28.1085  -36.2614   24.6288 H   0  0  0  0  0  0
  -27.2291  -37.1428   25.8874 H   0  0  0  0  0  0
  -20.9515  -29.8711   21.6754 H   0  0  0  0  0  0
  -26.0170  -38.2835   24.1417 H   0  0  0  0  0  0
  -27.6656  -17.2543   19.4588 H   0  0  0  0  0  0
  -27.0077  -21.2843   22.2093 H   0  0  0  0  0  0
  -25.3628  -17.3343   18.9415 H   0  0  0  0  0  0
  -24.6127  -18.8961   19.2258 H   0  0  0  0  0  0
  -24.2908  -17.5865   20.3210 H   0  0  0  0  0  0
  -21.7719  -15.2033   24.5355 H   0  0  0  0  0  0
  -22.4372  -15.9015   23.0604 H   0  0  0  0  0  0
  -21.4300  -16.8762   24.1400 H   0  0  0  0  0  0
  -25.4781  -15.7479   25.2395 H   0  0  0  0  0  0
  -24.7456  -15.1938   23.7449 H   0  0  0  0  0  0
  -24.2245  -14.5322   25.2794 H   0  0  0  0  0  0
  -22.6470  -15.7980   26.7983 H   0  0  0  0  0  0
  -22.3103  -17.5050   26.4904 H   0  0  0  0  0  0
  -23.9143  -17.0079   26.9681 H   0  0  0  0  0  0
  -24.1016  -19.8017   22.0123 H   0  0  0  0  0  0
  -25.2032  -20.0751   23.3346 H   0  0  0  0  0  0
  -30.0030  -21.5454   20.1638 H   0  0  0  0  0  0
  -29.6095  -21.9417   21.7880 H   0  0  0  0  0  0
  -30.6409  -18.0209   21.4013 H   0  0  0  0  0  0
  -30.5921  -17.9414   19.6736 H   0  0  0  0  0  0
  -25.6040  -17.3985   23.1944 H   0  0  0  0  0  0
  -24.0893  -17.4069   22.3720 H   0  0  0  0  0  0
  -27.3727  -22.8311   19.9643 H   0  0  0  0  0  0
  -28.8443  -23.3021   19.2611 H   0  0  0  0  0  0
  -23.1348  -18.6588   24.4469 H   0  0  0  0  0  0
  -24.6555  -18.3378   25.1925 H   0  0  0  0  0  0
  -28.9551  -24.7557   21.6762 H   0  0  0  0  0  0
  -27.2701  -24.6846   21.4500 H   0  0  0  0  0  0
  -28.8388  -15.9127   20.9169 H   0  0  0  0  0  0
  1 25  1  0  0  0
  1 30  2  0  0  0
  1 89  1  0  0  0
  2  3  1  0  0  0
  2 25  1  0  0  0
  2 90  1  0  0  0
  2 91  1  0  0  0
  3  4  1  0  0  0
  3 92  1  0  0  0
  3 93  1  0  0  0
  4  5  1  0  0  0
  4 94  1  0  0  0
  4 95  1  0  0  0
  5  6  1  0  0  0
  5 26  1  0  0  0
  5 96  1  0  0  0
  6 25  1  0  0  0
  6 97  1  0  0  0
  6 98  1  0  0  0
  7  8  2  0  0  0
  7 26  1  0  0  0
  7 29  1  0  0  0
  8  9  1  0  0  0
  8 22  1  0  0  0
  9 10  1  0  0  0
  9 27  2  0  0  0
 10 11  2  0  0  0
 10 15  1  0  0  0
 11 12  1  0  0  0
 11 99  1  0  0  0
 12 13  2  0  0  0
 12100  1  0  0  0
 13 14  1  0  0  0
 13 31  1  0  0  0
 14 15  2  0  0  0
 14101  1  0  0  0
 15102  1  0  0  0
 16 17  2  0  0  0
 16 21  1  0  0  0
 16 31  1  0  0  0
 17 18  1  0  0  0
 17103  1  0  0  0
 18 19  2  0  0  0
 18104  1  0  0  0
 19 20  1  0  0  0
 19 24  1  0  0  0
 20 21  2  0  0  0
 20105  1  0  0  0
 21 23  1  0  0  0
 22 28  1  0  0  0
 22 32  2  0  0  0
 26 27  1  0  0  0
 28106  1  0  0  0
 28107  1  0  0  0
 29108  1  0  0  0
 29109  1  0  0  0
 33 34  1  0  0  0
 33 66  1  0  0  0
 33 70  2  0  0  0
 34 36  1  0  0  0
 34 59  1  0  0  0
 34110  1  0  0  0
 35 44  2  0  0  0
 35 45  1  0  0  0
 35 68  1  0  0  0
 36 56  1  0  0  0
 36111  1  0  0  0
 37 39  1  0  0  0
 37 47  1  0  0  0
 37 66  1  0  0  0
 37112  1  0  0  0
 38 43  2  0  0  0
 38 46  1  0  0  0
 38 47  1  0  0  0
 39 64  1  0  0  0
 39 67  2  0  0  0
 40 52  1  0  0  0
 40 53  2  0  0  0
 40 58  1  0  0  0
 41113  1  0  0  0
 41114  1  0  0  0
 41115  1  0  0  0
 41 48  1  0  0  0
 42 43  1  0  0  0
 42 66  1  0  0  0
 42116  1  0  0  0
 42117  1  0  0  0
 43 44  1  0  0  0
 44118  1  0  0  0
 45 46  2  0  0  0
 45119  1  0  0  0
 46120  1  0  0  0
 47121  1  0  0  0
 47122  1  0  0  0
 48 56  1  0  0  0
 48 65  1  0  0  0
 48123  1  0  0  0
 49 50  1  0  0  0
 49 53  1  0  0  0
 49 64  1  0  0  0
 49124  1  0  0  0
 50 51  1  0  0  0
 50125  1  0  0  0
 50126  1  0  0  0
 51 52  1  0  0  0
 51127  1  0  0  0
 51128  1  0  0  0
 52129  1  0  0  0
 52130  1  0  0  0
 53 54  1  0  0  0
 54 55  2  0  0  0
 54131  1  0  0  0
 55 57  1  0  0  0
 55132  1  0  0  0
 56 69  2  0  0  0
 57 58  2  0  0  0
 57133  1  0  0  0
 58134  1  0  0  0
 59 60  1  0  0  0
 59 61  1  0  0  0
 59 62  1  0  0  0
 60135  1  0  0  0
 60136  1  0  0  0
 60137  1  0  0  0
 61138  1  0  0  0
 61139  1  0  0  0
 61140  1  0  0  0
 62141  1  0  0  0
 62142  1  0  0  0
 62143  1  0  0  0
 63 65  1  0  0  0
 63144  1  0  0  0
 63145  1  0  0  0
 63146  1  0  0  0
 64147  1  0  0  0
 65148  1  0  0  0
 68 87  1  0  0  0
 71 73  2  0  0  0
 71 76  1  0  0  0
 71149  1  0  0  0
 72 74  2  0  0  0
 72 75  1  0  0  0
 72150  1  0  0  0
 73 74  1  0  0  0
 73 77  1  0  0  0
 74 81  1  0  0  0
 75 76  2  0  0  0
 75 82  1  0  0  0
 76 83  1  0  0  0
 77151  1  0  0  0
 77152  1  0  0  0
 77153  1  0  0  0
 78154  1  0  0  0
 78155  1  0  0  0
 78156  1  0  0  0
 78 88  1  0  0  0
 79 88  1  0  0  0
 79157  1  0  0  0
 79158  1  0  0  0
 79159  1  0  0  0
 80 88  1  0  0  0
 80160  1  0  0  0
 80161  1  0  0  0
 80162  1  0  0  0
 81 84  1  0  0  0
 81163  1  0  0  0
 81164  1  0  0  0
 82 85  1  0  0  0
 82165  1  0  0  0
 82166  1  0  0  0
 83 89  1  0  0  0
 83167  1  0  0  0
 83168  1  0  0  0
 84 86  1  0  0  0
 84169  1  0  0  0
 84170  1  0  0  0
 85 87  1  0  0  0
 85171  1  0  0  0
 85172  1  0  0  0
 86 88  1  0  0  0
 86173  1  0  0  0
 86174  1  0  0  0
 87175  1  0  0  0
 87176  1  0  0  0
 89177  1  0  0  0
M  ISO  4   1 100  68 101  87 101  89 100
M  END
> <chiral flag>
0

> <version>
0

> <s_m_source_file>
/data/baiqing/PycharmProjects/Reinvent-master-3.2/result/LINK_invent/BTK/process_docking_weight1_custom_sum_contain_oxygen_bond_distance_aromatic_linkinvent_7_9_3/rearranged_h_0102.sdf

> <i_m_source_file_index>
95

> <r_mmod_Potential_Energy-OPLS-2005>
784.276062011719

> <r_mmod_Stretch_Energy-OPLS-2005>
316.0703125

> <r_mmod_Bend_Energy-OPLS-2005>
350.981903076172

> <r_mmod_Torsional_Energy-OPLS-2005>
404.072021484375

> <r_mmod_Improper_Torsional_Energy-OPLS-2005>
4.20632553100586

> <r_mmod_Van_der_Waal_Energy-OPLS-2005>
121.617698669434

> <r_mmod_Electrostatic_Energy-OPLS-2005>
-444.530120849609

> <r_mmod_Solvation_Energy-OPLS-2005>
-187.602355957031

> <b_mmod_Minimization_Converged-OPLS-2005>
0

> <r_mmod_RMS_Derivative-OPLS-2005>
11.5023317337036

$$$$
96
                    3D
 Structure written by MMmdl.
185193  0  0  1  0            999 V2000
  -30.5927  -14.7347   20.5198 C   0  0  0  0  0  0
  -30.4409  -12.4624   19.4717 C   0  0  0  0  0  0
  -29.5124  -12.5302   18.2373 C   0  0  0  0  0  0
  -28.0359  -12.3541   18.6441 C   0  0  0  0  0  0
  -27.6469  -13.2319   19.8634 C   0  0  2  0  0  0
  -28.6904  -13.1233   20.9969 C   0  0  0  0  0  0
  -25.2522  -13.8205   20.5683 C   0  0  0  0  0  0
  -24.1819  -13.0445   20.9179 C   0  0  0  0  0  0
  -24.6418  -11.6921   20.8737 C   0  0  0  0  0  0
  -23.9098  -10.4298   21.0406 C   0  0  0  0  0  0
  -24.3649   -9.4202   21.9174 C   0  0  0  0  0  0
  -23.6311   -8.2245   22.0766 C   0  0  0  0  0  0
  -22.4284   -8.0291   21.3561 C   0  0  0  0  0  0
  -21.9935   -9.0265   20.4657 C   0  0  0  0  0  0
  -22.7274  -10.2135   20.3057 C   0  0  0  0  0  0
  -21.6851   -6.0741   22.5283 C   0  0  0  0  0  0
  -21.4016   -6.5646   23.8211 C   0  0  0  0  0  0
  -21.3657   -5.6803   24.9179 C   0  0  0  0  0  0
  -21.6055   -4.3068   24.7227 C   0  0  0  0  0  0
  -21.8817   -3.8152   23.4342 C   0  0  0  0  0  0
  -21.9194   -4.6969   22.3396 C   0  0  0  0  0  0
  -22.7835  -13.5208   21.1851 C   0  0  0  0  0  0
  -22.1662   -4.2154   21.0973 F   0  0  0  0  0  0
  -21.5634   -3.4552   25.7736 F   0  0  0  0  0  0
  -29.9923  -13.4984   20.4286 N   0  0  0  0  0  0
  -26.2968  -12.9418   20.3329 N   0  0  0  0  0  0
  -25.9356  -11.6555   20.5780 N   0  0  0  0  0  0
  -22.0508  -12.8168   22.0406 N   0  0  0  0  0  0
  -25.4212  -15.1929   20.4088 N   0  0  0  0  0  0
  -31.7611  -14.8864   20.1521 O   0  0  0  0  0  0
  -21.6651   -6.8889   21.4244 O   0  0  0  0  0  0
  -22.3496  -14.5505   20.6712 O   0  0  0  0  0  0
  -24.6293  -31.8542   23.1985 C   0  0  0  0  0  0
  -25.9108  -32.4745   23.8341 C   0  0  1  0  0  0
  -27.2222  -27.2697   20.1143 C   0  0  0  0  0  0
  -25.5907  -33.8559   24.2253 N   0  0  0  0  0  0
  -23.4243  -30.4765   21.5406 C   0  0  2  0  0  0
  -24.8708  -28.9185   20.1060 C   0  0  0  0  0  0
  -22.7478  -29.4601   22.4907 C   0  0  0  0  0  0
  -18.0274  -28.1392   22.8485 C   0  0  0  0  0  0
  -24.1469  -36.7289   23.2628 C   0  0  0  0  0  0
  -25.9670  -30.7673   21.3749 C   0  0  0  0  0  0
  -26.0392  -29.3893   20.7167 C   0  0  0  0  0  0
  -27.2132  -28.5744   20.7128 C   0  0  0  0  0  0
  -26.0314  -26.8576   19.4800 C   0  0  0  0  0  0
  -24.8715  -27.6611   19.4813 C   0  0  0  0  0  0
  -23.6404  -29.8044   20.1569 C   0  0  0  0  0  0
  -25.4089  -36.3075   24.0319 C   0  0  1  0  0  0
  -20.5881  -28.3724   23.1260 C   0  0  2  0  0  0
  -20.6761  -26.9440   22.5431 C   0  0  0  0  0  0
  -19.5740  -26.6397   21.5228 C   0  0  0  0  0  0
  -18.1908  -26.7936   22.1625 C   0  0  0  0  0  0
  -19.1531  -28.8871   23.2867 C   0  0  0  0  0  0
  -18.9466  -30.1467   23.8896 C   0  0  0  0  0  0
  -17.6464  -30.6593   24.0581 C   0  0  0  0  0  0
  -25.9054  -34.9442   23.5104 C   0  0  0  0  0  0
  -16.5354  -29.9096   23.6331 C   0  0  0  0  0  0
  -16.7268  -28.6513   23.0356 C   0  0  0  0  0  0
  -26.4474  -31.6578   25.0740 C   0  0  0  0  0  0
  -25.3709  -31.3713   26.1478 C   0  0  0  0  0  0
  -27.0346  -30.2999   24.6240 C   0  0  0  0  0  0
  -27.6045  -32.4327   25.7485 C   0  0  0  0  0  0
  -27.5596  -37.1741   24.8420 C   0  0  0  0  0  0
  -21.4188  -29.3062   22.3650 N   0  0  0  0  0  0
  -26.4231  -37.3812   23.9472 N   0  0  0  0  0  0
  -24.6924  -31.0509   22.0947 N   0  0  0  0  0  0
  -23.4185  -28.8161   23.3006 O   0  0  0  0  0  0
  -28.3450  -26.4188   20.1969 O   0  0  0  0  0  0
  -26.5662  -34.8925   22.4697 O   0  0  0  0  0  0
  -23.5448  -32.1360   23.7287 O   0  0  0  0  0  0
  -27.8516  -19.9235   18.7205 C   0  0  0  0  0  0
  -27.3987  -18.9612   17.8051 C   0  0  0  0  0  0
  -28.7046  -19.5975   19.8011 C   0  0  0  0  0  0
  -27.7876  -17.6305   17.9975 C   0  0  0  0  0  0
  -29.0752  -18.1640   19.8980 C   0  0  0  0  0  0
  -27.3152  -16.4940   17.1114 C   0  0  0  0  0  0
  -26.7417  -25.0137   23.8207 C   0  0  0  0  0  0
  -30.0775  -20.6107   21.7651 C   0  0  0  0  0  0
  -27.4911  -20.8215   13.1382 C   0  0  0  0  0  0
  -25.6828  -19.1142   13.5624 C   0  0  0  0  0  0
  -26.5202  -19.3844   16.6407 C   0  0  0  0  0  0
  -29.9852  -17.3267   20.8870 C   0  0  0  0  0  0
  -26.7558  -24.4328   22.4045 C   0  0  0  0  0  0
  -27.3665  -19.6917   15.3951 C   0  0  0  0  0  0
  -28.1448  -23.9366   21.9572 C   0  0  0  0  0  0
  -29.1374  -22.3635   20.0726 C   0  0  0  0  0  0
  -28.4409  -25.0324   19.6244 C   0  0  0  0  0  0
  -28.9684  -20.8669   20.7364 C   0  0  1  0  0  0
  -26.5569  -20.2109   14.1932 C   0  0  0  0  0  0
  -28.1963  -23.6461   20.4433 C   0  0  2  0  0  0
  -28.5932  -17.2724   19.0017 N   0  0  0  0  0  0
  -29.7935  -15.8020   20.8796 N   0  0  0  0  0  0
  -31.4795  -12.6045   19.1702 H   0  0  0  0  0  0
  -30.3946  -11.4771   19.9375 H   0  0  0  0  0  0
  -29.7915  -11.7685   17.5072 H   0  0  0  0  0  0
  -29.6408  -13.4928   17.7386 H   0  0  0  0  0  0
  -27.8791  -11.3003   18.8785 H   0  0  0  0  0  0
  -27.3836  -12.5773   17.7988 H   0  0  0  0  0  0
  -27.6514  -14.2638   19.5121 H   0  0  0  0  0  0
  -28.7260  -12.1081   21.3951 H   0  0  0  0  0  0
  -28.4210  -13.7648   21.8378 H   0  0  0  0  0  0
  -25.2805   -9.5653   22.4725 H   0  0  0  0  0  0
  -24.0014   -7.4640   22.7494 H   0  0  0  0  0  0
  -21.0874   -8.8794   19.8951 H   0  0  0  0  0  0
  -22.3757  -10.9677   19.6160 H   0  0  0  0  0  0
  -21.2005   -7.6153   23.9704 H   0  0  0  0  0  0
  -21.1485   -6.0545   25.9080 H   0  0  0  0  0  0
  -22.0592   -2.7611   23.2858 H   0  0  0  0  0  0
  -22.4196  -11.9845   22.4763 H   0  0  0  0  0  0
  -21.1126  -13.1163   22.2665 H   0  0  0  0  0  0
  -24.6520  -15.8448   20.5140 H   0  0  0  0  0  0
  -26.2697  -15.6353   20.0786 H   0  0  0  0  0  0
  -26.7175  -32.5381   23.1087 H   0  0  0  0  0  0
  -24.9984  -33.9715   25.0349 H   0  0  0  0  0  0
  -22.7196  -31.2967   21.3913 H   0  0  0  0  0  0
  -23.3798  -35.9548   23.3139 H   0  0  0  0  0  0
  -24.3578  -36.9106   22.2078 H   0  0  0  0  0  0
  -23.7128  -37.6392   23.6775 H   0  0  0  0  0  0
  -26.0974  -31.5254   20.6014 H   0  0  0  0  0  0
  -26.8469  -30.8227   22.0047 H   0  0  0  0  0  0
  -28.1091  -28.9301   21.2043 H   0  0  0  0  0  0
  -25.9660  -25.8911   19.0065 H   0  0  0  0  0  0
  -23.9734  -27.2935   19.0027 H   0  0  0  0  0  0
  -23.7612  -30.5754   19.3956 H   0  0  0  0  0  0
  -22.7592  -29.2343   19.8586 H   0  0  0  0  0  0
  -25.1241  -36.1890   25.0800 H   0  0  0  0  0  0
  -20.9965  -28.3344   24.1385 H   0  0  0  0  0  0
  -20.5634  -26.2375   23.3662 H   0  0  0  0  0  0
  -21.6632  -26.7438   22.1259 H   0  0  0  0  0  0
  -19.6910  -25.6310   21.1251 H   0  0  0  0  0  0
  -19.6650  -27.3215   20.6757 H   0  0  0  0  0  0
  -17.4191  -26.6716   21.4004 H   0  0  0  0  0  0
  -18.0275  -26.0049   22.8991 H   0  0  0  0  0  0
  -19.7946  -30.7279   24.2271 H   0  0  0  0  0  0
  -17.5026  -31.6255   24.5228 H   0  0  0  0  0  0
  -15.5364  -30.3021   23.7634 H   0  0  0  0  0  0
  -15.8662  -28.0841   22.7072 H   0  0  0  0  0  0
  -24.5901  -30.7032   25.7809 H   0  0  0  0  0  0
  -24.8866  -32.2876   26.4876 H   0  0  0  0  0  0
  -25.8039  -30.8918   27.0276 H   0  0  0  0  0  0
  -26.2962  -29.6713   24.1248 H   0  0  0  0  0  0
  -27.4023  -29.7264   25.4761 H   0  0  0  0  0  0
  -27.8825  -30.4279   23.9507 H   0  0  0  0  0  0
  -27.2686  -33.3653   26.2033 H   0  0  0  0  0  0
  -28.3851  -32.6854   25.0293 H   0  0  0  0  0  0
  -28.0732  -31.8478   26.5417 H   0  0  0  0  0  0
  -28.2446  -38.0204   24.7754 H   0  0  0  0  0  0
  -28.1267  -36.2771   24.5876 H   0  0  0  0  0  0
  -27.2371  -37.0942   25.8817 H   0  0  0  0  0  0
  -20.9395  -29.8816   21.6870 H   0  0  0  0  0  0
  -26.0096  -38.2831   24.1699 H   0  0  0  0  0  0
  -27.5068  -20.9367   18.5852 H   0  0  0  0  0  0
  -27.5499  -16.6889   16.0662 H   0  0  0  0  0  0
  -26.2379  -16.3660   17.2108 H   0  0  0  0  0  0
  -27.7870  -15.5505   17.3861 H   0  0  0  0  0  0
  -25.7235  -25.2613   24.1248 H   0  0  0  0  0  0
  -27.3335  -25.9285   23.8752 H   0  0  0  0  0  0
  -27.1435  -24.3057   24.5455 H   0  0  0  0  0  0
  -29.8023  -19.8114   22.4506 H   0  0  0  0  0  0
  -30.2534  -21.4946   22.3797 H   0  0  0  0  0  0
  -31.0196  -20.3488   21.2836 H   0  0  0  0  0  0
  -26.9267  -21.2305   12.2999 H   0  0  0  0  0  0
  -28.1866  -20.0805   12.7421 H   0  0  0  0  0  0
  -28.0812  -21.6371   13.5585 H   0  0  0  0  0  0
  -25.1282  -19.5006   12.7063 H   0  0  0  0  0  0
  -24.9487  -18.7255   14.2681 H   0  0  0  0  0  0
  -26.2852  -18.2746   13.2136 H   0  0  0  0  0  0
  -25.9504  -20.2689   16.9269 H   0  0  0  0  0  0
  -25.7812  -18.6113   16.4351 H   0  0  0  0  0  0
  -29.7836  -17.6599   21.9041 H   0  0  0  0  0  0
  -31.0315  -17.5661   20.6882 H   0  0  0  0  0  0
  -26.3804  -25.1923   21.7205 H   0  0  0  0  0  0
  -26.0456  -23.6059   22.3449 H   0  0  0  0  0  0
  -27.9369  -18.8103   15.0991 H   0  0  0  0  0  0
  -28.1082  -20.4424   15.6696 H   0  0  0  0  0  0
  -28.3815  -23.0388   22.5263 H   0  0  0  0  0  0
  -28.9157  -24.6647   22.2156 H   0  0  0  0  0  0
  -29.1373  -22.2742   18.9869 H   0  0  0  0  0  0
  -30.1626  -22.6806   20.2697 H   0  0  0  0  0  0
  -27.9056  -24.9856   18.6766 H   0  0  0  0  0  0
  -29.4846  -24.9841   19.3143 H   0  0  0  0  0  0
  -28.0444  -20.9350   21.3126 H   0  0  0  0  0  0
  -25.9011  -21.0089   14.5449 H   0  0  0  0  0  0
  -27.1927  -23.3170   20.1694 H   0  0  0  0  0  0
  -28.8356  -15.5432   21.0529 H   0  0  0  0  0  0
  1 25  1  0  0  0
  1 30  2  0  0  0
  1 92  1  0  0  0
  2  3  1  0  0  0
  2 25  1  0  0  0
  2 93  1  0  0  0
  2 94  1  0  0  0
  3  4  1  0  0  0
  3 95  1  0  0  0
  3 96  1  0  0  0
  4  5  1  0  0  0
  4 97  1  0  0  0
  4 98  1  0  0  0
  5  6  1  0  0  0
  5 26  1  0  0  0
  5 99  1  0  0  0
  6 25  1  0  0  0
  6100  1  0  0  0
  6101  1  0  0  0
  7  8  2  0  0  0
  7 26  1  0  0  0
  7 29  1  0  0  0
  8  9  1  0  0  0
  8 22  1  0  0  0
  9 10  1  0  0  0
  9 27  2  0  0  0
 10 11  2  0  0  0
 10 15  1  0  0  0
 11 12  1  0  0  0
 11102  1  0  0  0
 12 13  2  0  0  0
 12103  1  0  0  0
 13 14  1  0  0  0
 13 31  1  0  0  0
 14 15  2  0  0  0
 14104  1  0  0  0
 15105  1  0  0  0
 16 17  2  0  0  0
 16 21  1  0  0  0
 16 31  1  0  0  0
 17 18  1  0  0  0
 17106  1  0  0  0
 18 19  2  0  0  0
 18107  1  0  0  0
 19 20  1  0  0  0
 19 24  1  0  0  0
 20 21  2  0  0  0
 20108  1  0  0  0
 21 23  1  0  0  0
 22 28  1  0  0  0
 22 32  2  0  0  0
 26 27  1  0  0  0
 28109  1  0  0  0
 28110  1  0  0  0
 29111  1  0  0  0
 29112  1  0  0  0
 33 34  1  0  0  0
 33 66  1  0  0  0
 33 70  2  0  0  0
 34 36  1  0  0  0
 34 59  1  0  0  0
 34113  1  0  0  0
 35 44  2  0  0  0
 35 45  1  0  0  0
 35 68  1  0  0  0
 36 56  1  0  0  0
 36114  1  0  0  0
 37 39  1  0  0  0
 37 47  1  0  0  0
 37 66  1  0  0  0
 37115  1  0  0  0
 38 43  2  0  0  0
 38 46  1  0  0  0
 38 47  1  0  0  0
 39 64  1  0  0  0
 39 67  2  0  0  0
 40 52  1  0  0  0
 40 53  2  0  0  0
 40 58  1  0  0  0
 41116  1  0  0  0
 41117  1  0  0  0
 41118  1  0  0  0
 41 48  1  0  0  0
 42 43  1  0  0  0
 42 66  1  0  0  0
 42119  1  0  0  0
 42120  1  0  0  0
 43 44  1  0  0  0
 44121  1  0  0  0
 45 46  2  0  0  0
 45122  1  0  0  0
 46123  1  0  0  0
 47124  1  0  0  0
 47125  1  0  0  0
 48 56  1  0  0  0
 48 65  1  0  0  0
 48126  1  0  0  0
 49 50  1  0  0  0
 49 53  1  0  0  0
 49 64  1  0  0  0
 49127  1  0  0  0
 50 51  1  0  0  0
 50128  1  0  0  0
 50129  1  0  0  0
 51 52  1  0  0  0
 51130  1  0  0  0
 51131  1  0  0  0
 52132  1  0  0  0
 52133  1  0  0  0
 53 54  1  0  0  0
 54 55  2  0  0  0
 54134  1  0  0  0
 55 57  1  0  0  0
 55135  1  0  0  0
 56 69  2  0  0  0
 57 58  2  0  0  0
 57136  1  0  0  0
 58137  1  0  0  0
 59 60  1  0  0  0
 59 61  1  0  0  0
 59 62  1  0  0  0
 60138  1  0  0  0
 60139  1  0  0  0
 60140  1  0  0  0
 61141  1  0  0  0
 61142  1  0  0  0
 61143  1  0  0  0
 62144  1  0  0  0
 62145  1  0  0  0
 62146  1  0  0  0
 63 65  1  0  0  0
 63147  1  0  0  0
 63148  1  0  0  0
 63149  1  0  0  0
 64150  1  0  0  0
 65151  1  0  0  0
 68 87  1  0  0  0
 71 72  2  0  0  0
 71 73  1  0  0  0
 71152  1  0  0  0
 72 74  1  0  0  0
 72 81  1  0  0  0
 73 75  2  0  0  0
 73 88  1  0  0  0
 74 76  1  0  0  0
 74 91  2  0  0  0
 75 82  1  0  0  0
 75 91  1  0  0  0
 76153  1  0  0  0
 76154  1  0  0  0
 76155  1  0  0  0
 77 83  1  0  0  0
 77156  1  0  0  0
 77157  1  0  0  0
 77158  1  0  0  0
 78159  1  0  0  0
 78160  1  0  0  0
 78161  1  0  0  0
 78 88  1  0  0  0
 79162  1  0  0  0
 79163  1  0  0  0
 79164  1  0  0  0
 79 89  1  0  0  0
 80 89  1  0  0  0
 80165  1  0  0  0
 80166  1  0  0  0
 80167  1  0  0  0
 81 84  1  0  0  0
 81168  1  0  0  0
 81169  1  0  0  0
 82 92  1  0  0  0
 82170  1  0  0  0
 82171  1  0  0  0
 83 85  1  0  0  0
 83172  1  0  0  0
 83173  1  0  0  0
 84 89  1  0  0  0
 84174  1  0  0  0
 84175  1  0  0  0
 85176  1  0  0  0
 85177  1  0  0  0
 85 90  1  0  0  0
 86 88  1  0  0  0
 86 90  1  0  0  0
 86178  1  0  0  0
 86179  1  0  0  0
 87 90  1  0  0  0
 87180  1  0  0  0
 87181  1  0  0  0
 88182  1  0  0  0
 89183  1  0  0  0
 90184  1  0  0  0
 92185  1  0  0  0
M  ISO  4   1 100  68 101  87 101  92 100
M  END
> <chiral flag>
0

> <version>
0

> <s_m_source_file>
/data/baiqing/PycharmProjects/Reinvent-master-3.2/result/LINK_invent/BTK/process_docking_weight1_custom_sum_contain_oxygen_bond_distance_aromatic_linkinvent_7_9_3/rearranged_h_0102.sdf

> <i_m_source_file_index>
96

> <r_mmod_Potential_Energy-OPLS-2005>
-14.6731910705566

> <r_mmod_Stretch_Energy-OPLS-2005>
140.172561645508

> <r_mmod_Bend_Energy-OPLS-2005>
239.651733398438

> <r_mmod_Torsional_Energy-OPLS-2005>
233.054901123047

> <r_mmod_Improper_Torsional_Energy-OPLS-2005>
4.01590585708618

> <r_mmod_Van_der_Waal_Energy-OPLS-2005>
127.579315185547

> <r_mmod_Electrostatic_Energy-OPLS-2005>
-636.897766113281

> <r_mmod_Solvation_Energy-OPLS-2005>
-200.075347900391

> <b_mmod_Minimization_Converged-OPLS-2005>
0

> <r_mmod_RMS_Derivative-OPLS-2005>
2.50426697731018

$$$$
97
                    3D
 Structure written by MMmdl.
160169  0  0  1  0            999 V2000
  -30.5383  -14.8919   20.4457 C   0  0  0  0  0  0
  -30.4324  -12.5487   19.4966 C   0  0  0  0  0  0
  -29.5193  -12.5157   18.2513 C   0  0  0  0  0  0
  -28.0496  -12.3090   18.6666 C   0  0  0  0  0  0
  -27.6263  -13.2371   19.8364 C   0  0  2  0  0  0
  -28.6627  -13.2391   20.9762 C   0  0  0  0  0  0
  -25.2463  -13.8207   20.5707 C   0  0  0  0  0  0
  -24.1757  -13.0437   20.9235 C   0  0  0  0  0  0
  -24.6359  -11.6917   20.8731 C   0  0  0  0  0  0
  -23.9050  -10.4285   21.0399 C   0  0  0  0  0  0
  -24.3604   -9.4212   21.9187 C   0  0  0  0  0  0
  -23.6281   -8.2245   22.0760 C   0  0  0  0  0  0
  -22.4267   -8.0277   21.3548 C   0  0  0  0  0  0
  -21.9901   -9.0241   20.4645 C   0  0  0  0  0  0
  -22.7222  -10.2128   20.3048 C   0  0  0  0  0  0
  -21.6852   -6.0737   22.5284 C   0  0  0  0  0  0
  -21.4012   -6.5636   23.8221 C   0  0  0  0  0  0
  -21.3660   -5.6791   24.9179 C   0  0  0  0  0  0
  -21.6036   -4.3051   24.7232 C   0  0  0  0  0  0
  -21.8813   -3.8150   23.4348 C   0  0  0  0  0  0
  -21.9199   -4.6968   22.3405 C   0  0  0  0  0  0
  -22.7788  -13.5231   21.1877 C   0  0  0  0  0  0
  -22.1657   -4.2160   21.0980 F   0  0  0  0  0  0
  -21.5636   -3.4530   25.7742 F   0  0  0  0  0  0
  -29.9401  -13.6416   20.3796 N   0  0  0  0  0  0
  -26.2844  -12.9396   20.3213 N   0  0  0  0  0  0
  -25.9280  -11.6544   20.5709 N   0  0  0  0  0  0
  -22.0409  -12.8206   22.0410 N   0  0  0  0  0  0
  -25.4153  -15.1928   20.4138 N   0  0  0  0  0  0
  -31.7466  -14.9560   20.1967 O   0  0  0  0  0  0
  -21.6635   -6.8869   21.4241 O   0  0  0  0  0  0
  -22.3484  -14.5547   20.6733 O   0  0  0  0  0  0
  -24.6406  -31.8461   23.1916 C   0  0  0  0  0  0
  -25.9202  -32.4711   23.8280 C   0  0  1  0  0  0
  -27.2170  -27.1926   20.1464 C   0  0  0  0  0  0
  -25.5985  -33.8515   24.2231 N   0  0  0  0  0  0
  -23.4385  -30.4675   21.5368 C   0  0  2  0  0  0
  -24.8864  -28.8996   20.1084 C   0  0  0  0  0  0
  -22.7546  -29.4565   22.4893 C   0  0  0  0  0  0
  -18.0296  -28.1397   22.8461 C   0  0  0  0  0  0
  -24.1482  -36.7255   23.2639 C   0  0  0  0  0  0
  -25.9868  -30.7452   21.3675 C   0  0  0  0  0  0
  -26.0593  -29.3554   20.7228 C   0  0  0  0  0  0
  -27.2274  -28.5173   20.7244 C   0  0  0  0  0  0
  -26.0252  -26.8199   19.4963 C   0  0  0  0  0  0
  -24.8803  -27.6446   19.4764 C   0  0  0  0  0  0
  -23.6575  -29.7920   20.1548 C   0  0  0  0  0  0
  -25.4109  -36.3043   24.0321 C   0  0  1  0  0  0
  -20.5893  -28.3698   23.1266 C   0  0  2  0  0  0
  -20.6784  -26.9415   22.5400 C   0  0  0  0  0  0
  -19.5760  -26.6393   21.5207 C   0  0  0  0  0  0
  -18.1935  -26.7935   22.1607 C   0  0  0  0  0  0
  -19.1549  -28.8868   23.2851 C   0  0  0  0  0  0
  -18.9471  -30.1461   23.8878 C   0  0  0  0  0  0
  -17.6466  -30.6586   24.0556 C   0  0  0  0  0  0
  -25.9060  -34.9420   23.5073 C   0  0  0  0  0  0
  -16.5360  -29.9075   23.6332 C   0  0  0  0  0  0
  -16.7284  -28.6499   23.0340 C   0  0  0  0  0  0
  -26.4557  -31.6516   25.0651 C   0  0  0  0  0  0
  -25.3780  -31.3598   26.1357 C   0  0  0  0  0  0
  -27.0409  -30.2964   24.6052 C   0  0  0  0  0  0
  -27.6141  -32.4223   25.7411 C   0  0  0  0  0  0
  -27.5556  -37.1785   24.8478 C   0  0  0  0  0  0
  -21.4239  -29.3037   22.3665 N   0  0  0  0  0  0
  -26.4265  -37.3767   23.9425 N   0  0  0  0  0  0
  -24.7100  -31.0377   22.0909 N   0  0  0  0  0  0
  -23.4228  -28.8106   23.3014 O   0  0  0  0  0  0
  -28.3019  -26.2678   20.1552 O   0  0  0  0  0  0
  -26.5631  -34.8905   22.4637 O   0  0  0  0  0  0
  -23.5543  -32.1306   23.7181 O   0  0  0  0  0  0
  -29.1167  -19.4805   19.2909 C   0  0  0  0  0  0
  -28.7948  -20.8714   19.0001 C   0  0  0  0  0  0
  -29.1558  -21.4608   21.2462 C   0  0  0  0  0  0
  -29.5239  -19.0019   20.5792 C   0  0  0  0  0  0
  -29.4744  -20.0797   21.5482 C   0  0  0  0  0  0
  -28.8414  -21.9570   19.9501 C   0  0  0  0  0  0
  -29.8440  -19.8181   22.9949 C   0  0  0  0  0  0
  -29.8657  -18.3346   23.3537 C   0  0  0  0  0  0
  -30.7475  -17.5420   22.3807 C   0  0  0  0  0  0
  -30.2336  -17.5382   20.9162 C   0  0  1  0  0  0
  -28.2596  -23.7612   18.1060 C   0  0  0  0  0  0
  -28.1037  -24.7707   20.4569 C   0  0  0  0  0  0
  -28.7599  -23.5554   19.5515 C   0  0  1  0  0  0
  -29.7662  -16.0711   20.6208 N   0  0  0  0  0  0
  -31.4727  -12.6945   19.2002 H   0  0  0  0  0  0
  -30.4051  -11.5907   20.0207 H   0  0  0  0  0  0
  -29.8344  -11.7204   17.5742 H   0  0  0  0  0  0
  -29.6187  -13.4502   17.6970 H   0  0  0  0  0  0
  -27.9388  -11.2661   18.9671 H   0  0  0  0  0  0
  -27.3879  -12.4475   17.8104 H   0  0  0  0  0  0
  -27.5977  -14.2430   19.4192 H   0  0  0  0  0  0
  -28.7373  -12.2531   21.4365 H   0  0  0  0  0  0
  -28.3684  -13.9301   21.7688 H   0  0  0  0  0  0
  -25.2740   -9.5719   22.4775 H   0  0  0  0  0  0
  -24.0010   -7.4641   22.7464 H   0  0  0  0  0  0
  -21.0852   -8.8727   19.8929 H   0  0  0  0  0  0
  -22.3664  -10.9656   19.6155 H   0  0  0  0  0  0
  -21.1983   -7.6141   23.9733 H   0  0  0  0  0  0
  -21.1490   -6.0512   25.9089 H   0  0  0  0  0  0
  -22.0596   -2.7615   23.2842 H   0  0  0  0  0  0
  -22.3993  -11.9862   22.4802 H   0  0  0  0  0  0
  -21.1018  -13.1230   22.2566 H   0  0  0  0  0  0
  -24.6480  -15.8467   20.5302 H   0  0  0  0  0  0
  -26.2590  -15.6327   20.0700 H   0  0  0  0  0  0
  -26.7257  -32.5316   23.1010 H   0  0  0  0  0  0
  -25.0207  -33.9650   25.0427 H   0  0  0  0  0  0
  -22.7388  -31.2916   21.3831 H   0  0  0  0  0  0
  -23.3755  -35.9576   23.3284 H   0  0  0  0  0  0
  -24.3592  -36.8897   22.2064 H   0  0  0  0  0  0
  -23.7209  -37.6435   23.6673 H   0  0  0  0  0  0
  -26.1026  -31.4891   20.5765 H   0  0  0  0  0  0
  -26.8780  -30.8238   21.9788 H   0  0  0  0  0  0
  -28.1260  -28.8625   21.2139 H   0  0  0  0  0  0
  -25.9697  -25.8613   19.0013 H   0  0  0  0  0  0
  -23.9945  -27.2954   18.9675 H   0  0  0  0  0  0
  -23.7770  -30.5631   19.3933 H   0  0  0  0  0  0
  -22.7772  -29.2195   19.8551 H   0  0  0  0  0  0
  -25.1288  -36.1884   25.0814 H   0  0  0  0  0  0
  -20.9970  -28.3253   24.1390 H   0  0  0  0  0  0
  -20.5682  -26.2303   23.3603 H   0  0  0  0  0  0
  -21.6655  -26.7450   22.1185 H   0  0  0  0  0  0
  -19.6932  -25.6309   21.1222 H   0  0  0  0  0  0
  -19.6687  -27.3220   20.6757 H   0  0  0  0  0  0
  -17.4213  -26.6686   21.4005 H   0  0  0  0  0  0
  -18.0317  -26.0075   22.9000 H   0  0  0  0  0  0
  -19.7939  -30.7278   24.2238 H   0  0  0  0  0  0
  -17.5015  -31.6265   24.5160 H   0  0  0  0  0  0
  -15.5347  -30.2982   23.7660 H   0  0  0  0  0  0
  -15.8671  -28.0813   22.7064 H   0  0  0  0  0  0
  -24.6066  -30.6831   25.7666 H   0  0  0  0  0  0
  -24.8830  -32.2715   26.4724 H   0  0  0  0  0  0
  -25.8130  -30.8841   27.0160 H   0  0  0  0  0  0
  -26.2987  -29.6710   24.1091 H   0  0  0  0  0  0
  -27.4211  -29.7180   25.4479 H   0  0  0  0  0  0
  -27.8794  -30.4316   23.9215 H   0  0  0  0  0  0
  -27.2872  -33.3631   26.1848 H   0  0  0  0  0  0
  -28.4040  -32.6591   25.0265 H   0  0  0  0  0  0
  -28.0698  -31.8376   26.5411 H   0  0  0  0  0  0
  -28.2575  -38.0082   24.7548 H   0  0  0  0  0  0
  -28.1036  -36.2619   24.6273 H   0  0  0  0  0  0
  -27.2270  -37.1409   25.8876 H   0  0  0  0  0  0
  -20.9450  -29.8752   21.6835 H   0  0  0  0  0  0
  -26.0116  -38.2816   24.1467 H   0  0  0  0  0  0
  -29.1151  -18.7793   18.4669 H   0  0  0  0  0  0
  -28.5625  -21.1113   17.9716 H   0  0  0  0  0  0
  -29.2197  -22.1865   22.0445 H   0  0  0  0  0  0
  -29.1468  -20.3481   23.6476 H   0  0  0  0  0  0
  -30.8252  -20.2580   23.1770 H   0  0  0  0  0  0
  -28.8494  -17.9379   23.3497 H   0  0  0  0  0  0
  -30.2364  -18.2308   24.3743 H   0  0  0  0  0  0
  -30.8857  -16.5313   22.7662 H   0  0  0  0  0  0
  -31.7400  -17.9940   22.4003 H   0  0  0  0  0  0
  -31.1309  -17.5969   20.2993 H   0  0  0  0  0  0
  -28.9171  -23.2872   17.3771 H   0  0  0  0  0  0
  -28.2335  -24.8229   17.8447 H   0  0  0  0  0  0
  -27.2506  -23.3723   17.9641 H   0  0  0  0  0  0
  -28.5323  -24.6540   21.4535 H   0  0  0  0  0  0
  -27.0440  -24.5600   20.5959 H   0  0  0  0  0  0
  -29.8167  -23.8206   19.5226 H   0  0  0  0  0  0
  -28.7768  -15.9119   20.7244 H   0  0  0  0  0  0
  1 25  1  0  0  0
  1 30  2  0  0  0
  1 84  1  0  0  0
  2  3  1  0  0  0
  2 25  1  0  0  0
  2 85  1  0  0  0
  2 86  1  0  0  0
  3  4  1  0  0  0
  3 87  1  0  0  0
  3 88  1  0  0  0
  4  5  1  0  0  0
  4 89  1  0  0  0
  4 90  1  0  0  0
  5  6  1  0  0  0
  5 26  1  0  0  0
  5 91  1  0  0  0
  6 25  1  0  0  0
  6 92  1  0  0  0
  6 93  1  0  0  0
  7  8  2  0  0  0
  7 26  1  0  0  0
  7 29  1  0  0  0
  8  9  1  0  0  0
  8 22  1  0  0  0
  9 10  1  0  0  0
  9 27  2  0  0  0
 10 11  2  0  0  0
 10 15  1  0  0  0
 11 12  1  0  0  0
 11 94  1  0  0  0
 12 13  2  0  0  0
 12 95  1  0  0  0
 13 14  1  0  0  0
 13 31  1  0  0  0
 14 15  2  0  0  0
 14 96  1  0  0  0
 15 97  1  0  0  0
 16 17  2  0  0  0
 16 21  1  0  0  0
 16 31  1  0  0  0
 17 18  1  0  0  0
 17 98  1  0  0  0
 18 19  2  0  0  0
 18 99  1  0  0  0
 19 20  1  0  0  0
 19 24  1  0  0  0
 20 21  2  0  0  0
 20100  1  0  0  0
 21 23  1  0  0  0
 22 28  1  0  0  0
 22 32  2  0  0  0
 26 27  1  0  0  0
 28101  1  0  0  0
 28102  1  0  0  0
 29103  1  0  0  0
 29104  1  0  0  0
 33 34  1  0  0  0
 33 66  1  0  0  0
 33 70  2  0  0  0
 34 36  1  0  0  0
 34 59  1  0  0  0
 34105  1  0  0  0
 35 44  2  0  0  0
 35 45  1  0  0  0
 35 68  1  0  0  0
 36 56  1  0  0  0
 36106  1  0  0  0
 37 39  1  0  0  0
 37 47  1  0  0  0
 37 66  1  0  0  0
 37107  1  0  0  0
 38 43  2  0  0  0
 38 46  1  0  0  0
 38 47  1  0  0  0
 39 64  1  0  0  0
 39 67  2  0  0  0
 40 52  1  0  0  0
 40 53  2  0  0  0
 40 58  1  0  0  0
 41108  1  0  0  0
 41109  1  0  0  0
 41110  1  0  0  0
 41 48  1  0  0  0
 42 43  1  0  0  0
 42 66  1  0  0  0
 42111  1  0  0  0
 42112  1  0  0  0
 43 44  1  0  0  0
 44113  1  0  0  0
 45 46  2  0  0  0
 45114  1  0  0  0
 46115  1  0  0  0
 47116  1  0  0  0
 47117  1  0  0  0
 48 56  1  0  0  0
 48 65  1  0  0  0
 48118  1  0  0  0
 49 50  1  0  0  0
 49 53  1  0  0  0
 49 64  1  0  0  0
 49119  1  0  0  0
 50 51  1  0  0  0
 50120  1  0  0  0
 50121  1  0  0  0
 51 52  1  0  0  0
 51122  1  0  0  0
 51123  1  0  0  0
 52124  1  0  0  0
 52125  1  0  0  0
 53 54  1  0  0  0
 54 55  2  0  0  0
 54126  1  0  0  0
 55 57  1  0  0  0
 55127  1  0  0  0
 56 69  2  0  0  0
 57 58  2  0  0  0
 57128  1  0  0  0
 58129  1  0  0  0
 59 60  1  0  0  0
 59 61  1  0  0  0
 59 62  1  0  0  0
 60130  1  0  0  0
 60131  1  0  0  0
 60132  1  0  0  0
 61133  1  0  0  0
 61134  1  0  0  0
 61135  1  0  0  0
 62136  1  0  0  0
 62137  1  0  0  0
 62138  1  0  0  0
 63 65  1  0  0  0
 63139  1  0  0  0
 63140  1  0  0  0
 63141  1  0  0  0
 64142  1  0  0  0
 65143  1  0  0  0
 68 82  1  0  0  0
 71 72  2  0  0  0
 71 74  1  0  0  0
 71144  1  0  0  0
 72 76  1  0  0  0
 72145  1  0  0  0
 73 75  1  0  0  0
 73 76  2  0  0  0
 73146  1  0  0  0
 74 75  2  0  0  0
 74 80  1  0  0  0
 75 77  1  0  0  0
 76 83  1  0  0  0
 77 78  1  0  0  0
 77147  1  0  0  0
 77148  1  0  0  0
 78 79  1  0  0  0
 78149  1  0  0  0
 78150  1  0  0  0
 79 80  1  0  0  0
 79151  1  0  0  0
 79152  1  0  0  0
 80 84  1  0  0  0
 80153  1  0  0  0
 81154  1  0  0  0
 81155  1  0  0  0
 81156  1  0  0  0
 81 83  1  0  0  0
 82 83  1  0  0  0
 82157  1  0  0  0
 82158  1  0  0  0
 83159  1  0  0  0
 84160  1  0  0  0
M  ISO  4   1 100  68 101  82 101  84 100
M  END
> <chiral flag>
0

> <version>
0

> <s_m_source_file>
/data/baiqing/PycharmProjects/Reinvent-master-3.2/result/LINK_invent/BTK/process_docking_weight1_custom_sum_contain_oxygen_bond_distance_aromatic_linkinvent_7_9_3/rearranged_h_0102.sdf

> <i_m_source_file_index>
97

> <r_mmod_Potential_Energy-OPLS-2005>
377.671325683594

> <r_mmod_Stretch_Energy-OPLS-2005>
205.291946411133

> <r_mmod_Bend_Energy-OPLS-2005>
248.896133422852

> <r_mmod_Torsional_Energy-OPLS-2005>
234.954330444336

> <r_mmod_Improper_Torsional_Energy-OPLS-2005>
6.33543586730957

> <r_mmod_Van_der_Waal_Energy-OPLS-2005>
137.108367919922

> <r_mmod_Electrostatic_Energy-OPLS-2005>
-401.183074951172

> <r_mmod_Solvation_Energy-OPLS-2005>
-201.079452514648

> <b_mmod_Minimization_Converged-OPLS-2005>
0

> <r_mmod_RMS_Derivative-OPLS-2005>
3.80204367637634

$$$$
98
                    3D
 Structure written by MMmdl.
149156  0  0  1  0            999 V2000
  -30.1637  -16.0189   20.2791 C   0  0  0  0  0  0
  -30.3929  -13.3822   19.5036 C   0  0  0  0  0  0
  -29.5607  -12.7349   18.3478 C   0  0  0  0  0  0
  -28.1697  -12.2967   18.8257 C   0  0  0  0  0  0
  -27.5833  -13.3327   19.8034 C   0  0  2  0  0  0
  -28.5826  -13.8502   20.8750 C   0  0  0  0  0  0
  -25.2301  -13.8297   20.5905 C   0  0  0  0  0  0
  -24.1703  -13.0415   20.9326 C   0  0  0  0  0  0
  -24.6440  -11.6940   20.8772 C   0  0  0  0  0  0
  -23.9141  -10.4284   21.0386 C   0  0  0  0  0  0
  -24.3665   -9.4197   21.9173 C   0  0  0  0  0  0
  -23.6318   -8.2244   22.0750 C   0  0  0  0  0  0
  -22.4297   -8.0288   21.3543 C   0  0  0  0  0  0
  -21.9951   -9.0264   20.4639 C   0  0  0  0  0  0
  -22.7303  -10.2131   20.3040 C   0  0  0  0  0  0
  -21.6858   -6.0742   22.5279 C   0  0  0  0  0  0
  -21.4019   -6.5643   23.8214 C   0  0  0  0  0  0
  -21.3661   -5.6793   24.9174 C   0  0  0  0  0  0
  -21.6045   -4.3057   24.7223 C   0  0  0  0  0  0
  -21.8819   -3.8151   23.4343 C   0  0  0  0  0  0
  -21.9194   -4.6969   22.3400 C   0  0  0  0  0  0
  -22.7706  -13.5132   21.1935 C   0  0  0  0  0  0
  -22.1660   -4.2154   21.0977 F   0  0  0  0  0  0
  -21.5630   -3.4538   25.7734 F   0  0  0  0  0  0
  -29.6696  -14.5962   20.1590 N   0  0  0  0  0  0
  -26.2784  -12.9675   20.3346 N   0  0  0  0  0  0
  -25.9402  -11.6716   20.5708 N   0  0  0  0  0  0
  -22.0367  -12.8109   22.0481 N   0  0  0  0  0  0
  -25.3856  -15.2048   20.4422 N   0  0  0  0  0  0
  -31.4088  -15.8574   20.3413 O   0  0  0  0  0  0
  -21.6648   -6.8891   21.4244 O   0  0  0  0  0  0
  -22.3380  -14.5426   20.6760 O   0  0  0  0  0  0
  -24.7087  -31.7705   23.1303 C   0  0  0  0  0  0
  -25.9546  -32.4321   23.7944 C   0  0  1  0  0  0
  -27.2385  -26.4445   20.2459 C   0  0  0  0  0  0
  -25.6018  -33.8159   24.1807 N   0  0  0  0  0  0
  -23.5462  -30.3610   21.4910 C   0  0  2  0  0  0
  -25.0050  -28.6444   20.1335 C   0  0  0  0  0  0
  -22.7876  -29.4163   22.4649 C   0  0  0  0  0  0
  -18.0354  -28.1435   22.8439 C   0  0  0  0  0  0
  -24.1497  -36.7088   23.2659 C   0  0  0  0  0  0
  -26.1376  -30.4195   21.4323 C   0  0  0  0  0  0
  -26.2008  -28.9536   20.7915 C   0  0  0  0  0  0
  -27.2924  -27.8932   20.8007 C   0  0  0  0  0  0
  -26.0022  -26.4086   19.5312 C   0  0  0  0  0  0
  -24.9598  -27.3999   19.4778 C   0  0  0  0  0  0
  -23.8149  -29.6327   20.1393 C   0  0  0  0  0  0
  -25.4157  -36.2808   24.0263 C   0  0  1  0  0  0
  -20.6001  -28.3809   23.1093 C   0  0  2  0  0  0
  -20.6807  -26.9445   22.5405 C   0  0  0  0  0  0
  -19.5788  -26.6363   21.5216 C   0  0  0  0  0  0
  -18.1971  -26.7957   22.1613 C   0  0  0  0  0  0
  -19.1626  -28.8952   23.2739 C   0  0  0  0  0  0
  -18.9528  -30.1527   23.8797 C   0  0  0  0  0  0
  -17.6515  -30.6610   24.0545 C   0  0  0  0  0  0
  -25.9154  -34.9206   23.4889 C   0  0  0  0  0  0
  -16.5403  -29.9088   23.6356 C   0  0  0  0  0  0
  -16.7332  -28.6512   23.0370 C   0  0  0  0  0  0
  -26.4643  -31.6462   25.0671 C   0  0  0  0  0  0
  -25.3643  -31.3849   26.1240 C   0  0  0  0  0  0
  -27.0613  -30.2771   24.6751 C   0  0  0  0  0  0
  -27.6042  -32.4382   25.7505 C   0  0  0  0  0  0
  -27.5556  -37.1700   24.8467 C   0  0  0  0  0  0
  -21.4501  -29.3007   22.3388 N   0  0  0  0  0  0
  -26.4260  -37.3598   23.9408 N   0  0  0  0  0  0
  -24.8241  -30.8898   22.0697 N   0  0  0  0  0  0
  -23.4197  -28.7803   23.3112 O   0  0  0  0  0  0
  -28.1977  -25.1282   20.2335 O   0  0  0  0  0  0
  -26.5827  -34.8835   22.4531 O   0  0  0  0  0  0
  -23.6052  -32.0897   23.6098 O   0  0  0  0  0  0
  -30.2950  -17.9159   17.7385 C   0  0  0  0  0  0
  -28.1420  -16.6043   18.0734 C   0  0  0  0  0  0
  -28.8755  -21.3147   20.0014 C   0  0  0  0  0  0
  -29.2429  -19.3298   20.6035 C   0  0  0  0  0  0
  -28.1676  -23.2455   20.4688 C   0  0  0  0  0  0
  -29.0669  -17.6932   18.6394 C   0  0  0  0  0  0
  -29.4642  -17.5122   20.0573 N   0  0  0  0  0  0
  -31.3390  -13.7189   19.0776 H   0  0  0  0  0  0
  -30.6755  -12.6341   20.2465 H   0  0  0  0  0  0
  -30.0969  -11.8862   17.9212 H   0  0  0  0  0  0
  -29.4511  -13.4592   17.5401 H   0  0  0  0  0  0
  -28.2739  -11.3394   19.3379 H   0  0  0  0  0  0
  -27.5017  -12.1274   17.9801 H   0  0  0  0  0  0
  -27.3761  -14.1819   19.1571 H   0  0  0  0  0  0
  -28.9496  -13.0470   21.5160 H   0  0  0  0  0  0
  -28.0788  -14.5545   21.5383 H   0  0  0  0  0  0
  -25.2803   -9.5670   22.4760 H   0  0  0  0  0  0
  -24.0016   -7.4637   22.7477 H   0  0  0  0  0  0
  -21.0880   -8.8795   19.8945 H   0  0  0  0  0  0
  -22.3764  -10.9672   19.6152 H   0  0  0  0  0  0
  -21.2011   -7.6151   23.9720 H   0  0  0  0  0  0
  -21.1483   -6.0520   25.9077 H   0  0  0  0  0  0
  -22.0595   -2.7613   23.2839 H   0  0  0  0  0  0
  -22.4010  -11.9794   22.4894 H   0  0  0  0  0  0
  -21.0963  -13.1093   22.2652 H   0  0  0  0  0  0
  -24.6168  -15.8529   20.5739 H   0  0  0  0  0  0
  -26.2443  -15.6586   20.1619 H   0  0  0  0  0  0
  -26.7652  -32.4735   23.0670 H   0  0  0  0  0  0
  -25.0041  -33.9153   24.9879 H   0  0  0  0  0  0
  -22.8864  -31.2047   21.2776 H   0  0  0  0  0  0
  -23.3783  -35.9391   23.3249 H   0  0  0  0  0  0
  -24.3556  -36.8838   22.2088 H   0  0  0  0  0  0
  -23.7237  -37.6229   23.6805 H   0  0  0  0  0  0
  -26.3644  -31.1244   20.6316 H   0  0  0  0  0  0
  -26.9800  -30.5000   22.1064 H   0  0  0  0  0  0
  -28.1963  -28.1556   21.3325 H   0  0  0  0  0  0
  -25.7950  -25.4878   19.0043 H   0  0  0  0  0  0
  -24.0660  -27.1489   18.9232 H   0  0  0  0  0  0
  -24.0149  -30.3801   19.3707 H   0  0  0  0  0  0
  -22.9143  -29.1132   19.8077 H   0  0  0  0  0  0
  -25.1379  -36.1531   25.0751 H   0  0  0  0  0  0
  -21.0072  -28.3452   24.1225 H   0  0  0  0  0  0
  -20.5645  -26.2442   23.3690 H   0  0  0  0  0  0
  -21.6667  -26.7347   22.1241 H   0  0  0  0  0  0
  -19.6941  -25.6247   21.1311 H   0  0  0  0  0  0
  -19.6738  -27.3118   20.6703 H   0  0  0  0  0  0
  -17.4241  -26.6697   21.4016 H   0  0  0  0  0  0
  -18.0355  -26.0125   22.9034 H   0  0  0  0  0  0
  -19.8005  -30.7365   24.2127 H   0  0  0  0  0  0
  -17.5066  -31.6281   24.5166 H   0  0  0  0  0  0
  -15.5400  -30.2959   23.7738 H   0  0  0  0  0  0
  -15.8733  -28.0798   22.7143 H   0  0  0  0  0  0
  -24.5869  -30.7159   25.7530 H   0  0  0  0  0  0
  -24.8793  -32.3091   26.4388 H   0  0  0  0  0  0
  -25.7764  -30.9190   27.0199 H   0  0  0  0  0  0
  -26.3378  -29.6309   24.1773 H   0  0  0  0  0  0
  -27.3969  -29.7318   25.5583 H   0  0  0  0  0  0
  -27.9384  -30.3838   24.0367 H   0  0  0  0  0  0
  -27.2550  -33.3784   26.1786 H   0  0  0  0  0  0
  -28.4001  -32.6783   25.0444 H   0  0  0  0  0  0
  -28.0546  -31.8715   26.5664 H   0  0  0  0  0  0
  -28.2525  -38.0038   24.7514 H   0  0  0  0  0  0
  -28.1097  -36.2555   24.6295 H   0  0  0  0  0  0
  -27.2269  -37.1331   25.8868 H   0  0  0  0  0  0
  -20.9868  -29.8627   21.6382 H   0  0  0  0  0  0
  -26.0061  -38.2632   24.1429 H   0  0  0  0  0  0
  -29.9913  -18.1671   16.7215 H   0  0  0  0  0  0
  -30.9294  -17.0309   17.6767 H   0  0  0  0  0  0
  -30.9084  -18.7405   18.1041 H   0  0  0  0  0  0
  -27.7341  -16.9153   17.1107 H   0  0  0  0  0  0
  -27.2925  -16.4296   18.7312 H   0  0  0  0  0  0
  -28.6586  -15.6629   17.8957 H   0  0  0  0  0  0
  -28.3232  -21.1374   19.0785 H   0  0  0  0  0  0
  -29.8702  -21.5725   19.6380 H   0  0  0  0  0  0
  -28.4161  -19.1807   21.2981 H   0  0  0  0  0  0
  -30.1009  -19.4434   21.2663 H   0  0  0  0  0  0
  -28.3730  -23.2457   21.5391 H   0  0  0  0  0  0
  -27.0906  -23.0827   20.4268 H   0  0  0  0  0  0
  -28.4651  -18.5993   18.5603 H   0  0  0  0  0  0
  1 25  1  0  0  0
  1 30  2  0  0  0
  1 77  1  0  0  0
  2  3  1  0  0  0
  2 25  1  0  0  0
  2 78  1  0  0  0
  2 79  1  0  0  0
  3  4  1  0  0  0
  3 80  1  0  0  0
  3 81  1  0  0  0
  4  5  1  0  0  0
  4 82  1  0  0  0
  4 83  1  0  0  0
  5  6  1  0  0  0
  5 26  1  0  0  0
  5 84  1  0  0  0
  6 25  1  0  0  0
  6 85  1  0  0  0
  6 86  1  0  0  0
  7  8  2  0  0  0
  7 26  1  0  0  0
  7 29  1  0  0  0
  8  9  1  0  0  0
  8 22  1  0  0  0
  9 10  1  0  0  0
  9 27  2  0  0  0
 10 11  2  0  0  0
 10 15  1  0  0  0
 11 12  1  0  0  0
 11 87  1  0  0  0
 12 13  2  0  0  0
 12 88  1  0  0  0
 13 14  1  0  0  0
 13 31  1  0  0  0
 14 15  2  0  0  0
 14 89  1  0  0  0
 15 90  1  0  0  0
 16 17  2  0  0  0
 16 21  1  0  0  0
 16 31  1  0  0  0
 17 18  1  0  0  0
 17 91  1  0  0  0
 18 19  2  0  0  0
 18 92  1  0  0  0
 19 20  1  0  0  0
 19 24  1  0  0  0
 20 21  2  0  0  0
 20 93  1  0  0  0
 21 23  1  0  0  0
 22 28  1  0  0  0
 22 32  2  0  0  0
 26 27  1  0  0  0
 28 94  1  0  0  0
 28 95  1  0  0  0
 29 96  1  0  0  0
 29 97  1  0  0  0
 33 34  1  0  0  0
 33 66  1  0  0  0
 33 70  2  0  0  0
 34 36  1  0  0  0
 34 59  1  0  0  0
 34 98  1  0  0  0
 35 44  2  0  0  0
 35 45  1  0  0  0
 35 68  1  0  0  0
 36 56  1  0  0  0
 36 99  1  0  0  0
 37 39  1  0  0  0
 37 47  1  0  0  0
 37 66  1  0  0  0
 37100  1  0  0  0
 38 43  2  0  0  0
 38 46  1  0  0  0
 38 47  1  0  0  0
 39 64  1  0  0  0
 39 67  2  0  0  0
 40 52  1  0  0  0
 40 53  2  0  0  0
 40 58  1  0  0  0
 41101  1  0  0  0
 41102  1  0  0  0
 41103  1  0  0  0
 41 48  1  0  0  0
 42 43  1  0  0  0
 42 66  1  0  0  0
 42104  1  0  0  0
 42105  1  0  0  0
 43 44  1  0  0  0
 44106  1  0  0  0
 45 46  2  0  0  0
 45107  1  0  0  0
 46108  1  0  0  0
 47109  1  0  0  0
 47110  1  0  0  0
 48 56  1  0  0  0
 48 65  1  0  0  0
 48111  1  0  0  0
 49 50  1  0  0  0
 49 53  1  0  0  0
 49 64  1  0  0  0
 49112  1  0  0  0
 50 51  1  0  0  0
 50113  1  0  0  0
 50114  1  0  0  0
 51 52  1  0  0  0
 51115  1  0  0  0
 51116  1  0  0  0
 52117  1  0  0  0
 52118  1  0  0  0
 53 54  1  0  0  0
 54 55  2  0  0  0
 54119  1  0  0  0
 55 57  1  0  0  0
 55120  1  0  0  0
 56 69  2  0  0  0
 57 58  2  0  0  0
 57121  1  0  0  0
 58122  1  0  0  0
 59 60  1  0  0  0
 59 61  1  0  0  0
 59 62  1  0  0  0
 60123  1  0  0  0
 60124  1  0  0  0
 60125  1  0  0  0
 61126  1  0  0  0
 61127  1  0  0  0
 61128  1  0  0  0
 62129  1  0  0  0
 62130  1  0  0  0
 62131  1  0  0  0
 63 65  1  0  0  0
 63132  1  0  0  0
 63133  1  0  0  0
 63134  1  0  0  0
 64135  1  0  0  0
 65136  1  0  0  0
 68 75  1  0  0  0
 71137  1  0  0  0
 71138  1  0  0  0
 71139  1  0  0  0
 71 76  1  0  0  0
 72 76  1  0  0  0
 72140  1  0  0  0
 72141  1  0  0  0
 72142  1  0  0  0
 73 74  1  0  0  0
 73 75  1  0  0  0
 73143  1  0  0  0
 73144  1  0  0  0
 74 77  1  0  0  0
 74145  1  0  0  0
 74146  1  0  0  0
 75147  1  0  0  0
 75148  1  0  0  0
 76 77  1  0  0  0
 76149  1  0  0  0
M  ISO  4   1 100  68 101  75 101  77 100
M  END
> <chiral flag>
0

> <version>
0

> <s_m_source_file>
/data/baiqing/PycharmProjects/Reinvent-master-3.2/result/LINK_invent/BTK/process_docking_weight1_custom_sum_contain_oxygen_bond_distance_aromatic_linkinvent_7_9_3/rearranged_h_0102.sdf

> <i_m_source_file_index>
98

> <r_mmod_Potential_Energy-OPLS-2005>
4401.744140625

> <r_mmod_Stretch_Energy-OPLS-2005>
1944.65112304688

> <r_mmod_Bend_Energy-OPLS-2005>
882.326416015625

> <r_mmod_Torsional_Energy-OPLS-2005>
338.739562988281

> <r_mmod_Improper_Torsional_Energy-OPLS-2005>
9.98283863067627

> <r_mmod_Van_der_Waal_Energy-OPLS-2005>
113.088577270508

> <r_mmod_Electrostatic_Energy-OPLS-2005>
-236.990997314453

> <r_mmod_Solvation_Energy-OPLS-2005>
-198.643463134766

> <b_mmod_Minimization_Converged-OPLS-2005>
0

> <r_mmod_RMS_Derivative-OPLS-2005>
0.28819140791893

$$$$
