0
                    3D
 Structure written by MMmdl.
165173  0  0  1  0            999 V2000
  -30.6795  -14.4755   20.5040 C   0  0  0  0  0  0
  -30.4147  -12.2834   19.4270 C   0  0  0  0  0  0
  -29.4920  -12.4718   18.2042 C   0  0  0  0  0  0
  -28.0112  -12.3422   18.6167 C   0  0  0  0  0  0
  -27.6524  -13.2007   19.8603 C   0  0  2  0  0  0
  -28.6945  -13.0136   20.9870 C   0  0  0  0  0  0
  -25.2571  -13.8131   20.5668 C   0  0  0  0  0  0
  -24.1818  -13.0428   20.9169 C   0  0  0  0  0  0
  -24.6361  -11.6886   20.8711 C   0  0  0  0  0  0
  -23.9036  -10.4277   21.0383 C   0  0  0  0  0  0
  -24.3587   -9.4201   21.9169 C   0  0  0  0  0  0
  -23.6288   -8.2227   22.0753 C   0  0  0  0  0  0
  -22.4270   -8.0252   21.3546 C   0  0  0  0  0  0
  -21.9887   -9.0209   20.4641 C   0  0  0  0  0  0
  -22.7203  -10.2101   20.3048 C   0  0  0  0  0  0
  -21.6855   -6.0718   22.5288 C   0  0  0  0  0  0
  -21.4011   -6.5626   23.8216 C   0  0  0  0  0  0
  -21.3667   -5.6788   24.9182 C   0  0  0  0  0  0
  -21.6056   -4.3050   24.7236 C   0  0  0  0  0  0
  -21.8831   -3.8131   23.4360 C   0  0  0  0  0  0
  -21.9194   -4.6945   22.3409 C   0  0  0  0  0  0
  -22.7842  -13.5221   21.1859 C   0  0  0  0  0  0
  -22.1665   -4.2123   21.0985 F   0  0  0  0  0  0
  -21.5626   -3.4538   25.7749 F   0  0  0  0  0  0
  -30.0229  -13.2911   20.4215 N   0  0  0  0  0  0
  -26.2978  -12.9289   20.3292 N   0  0  0  0  0  0
  -25.9281  -11.6455   20.5737 N   0  0  0  0  0  0
  -22.0490  -12.8188   22.0397 N   0  0  0  0  0  0
  -25.4340  -15.1858   20.4081 N   0  0  0  0  0  0
  -31.8552  -14.6267   20.1701 O   0  0  0  0  0  0
  -21.6645   -6.8847   21.4244 O   0  0  0  0  0  0
  -22.3507  -14.5539   20.6747 O   0  0  0  0  0  0
  -24.6165  -31.8696   23.2158 C   0  0  0  0  0  0
  -25.9075  -32.4827   23.8411 C   0  0  1  0  0  0
  -27.2140  -27.4139   20.0874 C   0  0  0  0  0  0
  -25.5932  -33.8634   24.2324 N   0  0  0  0  0  0
  -23.4017  -30.4968   21.5577 C   0  0  2  0  0  0
  -24.8403  -28.9678   20.1122 C   0  0  0  0  0  0
  -22.7411  -29.4660   22.5016 C   0  0  0  0  0  0
  -18.0263  -28.1382   22.8470 C   0  0  0  0  0  0
  -24.1485  -36.7292   23.2650 C   0  0  0  0  0  0
  -25.9376  -30.8220   21.3789 C   0  0  0  0  0  0
  -26.0043  -29.4612   20.7143 C   0  0  0  0  0  0
  -27.1904  -28.6910   20.7016 C   0  0  0  0  0  0
  -26.0341  -26.9553   19.4549 C   0  0  0  0  0  0
  -24.8512  -27.7152   19.4812 C   0  0  0  0  0  0
  -23.6066  -29.8390   20.1696 C   0  0  0  0  0  0
  -25.4118  -36.3108   24.0332 C   0  0  1  0  0  0
  -20.5855  -28.3660   23.1324 C   0  0  2  0  0  0
  -20.6760  -26.9394   22.5420 C   0  0  0  0  0  0
  -19.5745  -26.6371   21.5210 C   0  0  0  0  0  0
  -18.1918  -26.7928   22.1607 C   0  0  0  0  0  0
  -19.1515  -28.8840   23.2887 C   0  0  0  0  0  0
  -18.9445  -30.1449   23.8881 C   0  0  0  0  0  0
  -17.6449  -30.6584   24.0559 C   0  0  0  0  0  0
  -25.9058  -34.9481   23.5124 C   0  0  0  0  0  0
  -16.5338  -29.9072   23.6349 C   0  0  0  0  0  0
  -16.7253  -28.6506   23.0343 C   0  0  0  0  0  0
  -26.4492  -31.6638   25.0761 C   0  0  0  0  0  0
  -25.3745  -31.3741   26.1489 C   0  0  0  0  0  0
  -27.0381  -30.3066   24.6247 C   0  0  0  0  0  0
  -27.6055  -32.4392   25.7524 C   0  0  0  0  0  0
  -27.5577  -37.1801   24.8472 C   0  0  0  0  0  0
  -21.4145  -29.3033   22.3745 N   0  0  0  0  0  0
  -26.4297  -37.3786   23.9415 N   0  0  0  0  0  0
  -24.6694  -31.0778   22.1069 N   0  0  0  0  0  0
  -23.4195  -28.8183   23.3028 O   0  0  0  0  0  0
  -28.3832  -26.6726   20.1223 O   0  0  0  0  0  0
  -26.5599  -34.8931   22.4671 O   0  0  0  0  0  0
  -23.5354  -32.1470   23.7542 O   0  0  0  0  0  0
  -30.5225  -20.9970   21.3481 C   0  0  0  0  0  0
  -28.0051  -20.7934   21.0709 C   0  0  0  0  0  0
  -30.3101  -22.3945   20.7012 C   0  0  0  0  0  0
  -27.8489  -22.3459   20.9844 C   0  0  0  0  0  0
  -29.2232  -20.3636   21.9197 C   0  0  1  0  0  0
  -28.9280  -24.9292   18.5780 C   0  0  0  0  0  0
  -29.6061  -16.4522   21.5849 C   0  0  0  0  0  0
  -29.1146  -24.5863   21.1292 C   0  0  0  0  0  0
  -29.5391  -17.9362   21.1103 C   0  0  0  0  0  0
  -28.3326  -25.2354   19.9563 C   0  0  1  0  0  0
  -29.8767  -15.5514   20.4611 N   0  0  0  0  0  0
  -29.1203  -23.0864   21.2604 N   0  3  2  0  0  0
  -29.3151  -18.8966   22.2259 N   0  3  0  0  0  0
  -31.4621  -12.3712   19.1338 H   0  0  0  0  0  0
  -30.3000  -11.2780   19.8371 H   0  0  0  0  0  0
  -29.7301  -11.7366   17.4335 H   0  0  0  0  0  0
  -29.6665  -13.4506   17.7564 H   0  0  0  0  0  0
  -27.8225  -11.2884   18.8292 H   0  0  0  0  0  0
  -27.3637  -12.6010   17.7791 H   0  0  0  0  0  0
  -27.6844  -14.2397   19.5341 H   0  0  0  0  0  0
  -28.6553  -11.9962   21.3786 H   0  0  0  0  0  0
  -28.4743  -13.6740   21.8275 H   0  0  0  0  0  0
  -25.2722   -9.5694   22.4743 H   0  0  0  0  0  0
  -24.0016   -7.4611   22.7454 H   0  0  0  0  0  0
  -21.0833   -8.8705   19.8915 H   0  0  0  0  0  0
  -22.3649  -10.9633   19.6149 H   0  0  0  0  0  0
  -21.2009   -7.6140   23.9718 H   0  0  0  0  0  0
  -21.1488   -6.0513   25.9086 H   0  0  0  0  0  0
  -22.0611   -2.7597   23.2870 H   0  0  0  0  0  0
  -22.4100  -11.9842   22.4772 H   0  0  0  0  0  0
  -21.1094  -13.1177   22.2595 H   0  0  0  0  0  0
  -24.6701  -15.8469   20.5072 H   0  0  0  0  0  0
  -26.2987  -15.6137   20.1020 H   0  0  0  0  0  0
  -26.7158  -32.5518   23.1173 H   0  0  0  0  0  0
  -25.0125  -33.9815   25.0494 H   0  0  0  0  0  0
  -22.6899  -31.3145   21.4250 H   0  0  0  0  0  0
  -23.3761  -35.9610   23.3332 H   0  0  0  0  0  0
  -24.3559  -36.8900   22.2060 H   0  0  0  0  0  0
  -23.7222  -37.6488   23.6663 H   0  0  0  0  0  0
  -26.0756  -31.5937   20.6199 H   0  0  0  0  0  0
  -26.8189  -30.8550   22.0092 H   0  0  0  0  0  0
  -28.0859  -29.0620   21.1810 H   0  0  0  0  0  0
  -25.9931  -26.0182   18.9226 H   0  0  0  0  0  0
  -23.9605  -27.3374   18.9988 H   0  0  0  0  0  0
  -23.7138  -30.6190   19.4152 H   0  0  0  0  0  0
  -22.7263  -29.2662   19.8743 H   0  0  0  0  0  0
  -25.1292  -36.1963   25.0817 H   0  0  0  0  0  0
  -20.9930  -28.3220   24.1450 H   0  0  0  0  0  0
  -20.5665  -26.2260   23.3597 H   0  0  0  0  0  0
  -21.6636  -26.7446   22.1214 H   0  0  0  0  0  0
  -19.6914  -25.6275   21.1249 H   0  0  0  0  0  0
  -19.6712  -27.3179   20.6738 H   0  0  0  0  0  0
  -17.4190  -26.6674   21.3997 H   0  0  0  0  0  0
  -18.0309  -26.0075   22.9007 H   0  0  0  0  0  0
  -19.7930  -30.7280   24.2224 H   0  0  0  0  0  0
  -17.5009  -31.6263   24.5157 H   0  0  0  0  0  0
  -15.5340  -30.2963   23.7710 H   0  0  0  0  0  0
  -15.8653  -28.0838   22.7048 H   0  0  0  0  0  0
  -24.5905  -30.7116   25.7794 H   0  0  0  0  0  0
  -24.8947  -32.2894   26.4962 H   0  0  0  0  0  0
  -25.8064  -30.8864   27.0240 H   0  0  0  0  0  0
  -26.2988  -29.6767   24.1283 H   0  0  0  0  0  0
  -27.4082  -29.7363   25.4782 H   0  0  0  0  0  0
  -27.8843  -30.4352   23.9494 H   0  0  0  0  0  0
  -27.2673  -33.3697   26.2091 H   0  0  0  0  0  0
  -28.3856  -32.6969   25.0347 H   0  0  0  0  0  0
  -28.0748  -31.8545   26.5443 H   0  0  0  0  0  0
  -28.2600  -38.0099   24.7534 H   0  0  0  0  0  0
  -28.1067  -36.2624   24.6290 H   0  0  0  0  0  0
  -27.2287  -37.1441   25.8875 H   0  0  0  0  0  0
  -20.9288  -29.8766   21.6991 H   0  0  0  0  0  0
  -26.0182  -38.2863   24.1411 H   0  0  0  0  0  0
  -31.2568  -21.0778   22.1497 H   0  0  0  0  0  0
  -30.9864  -20.3593   20.5977 H   0  0  0  0  0  0
  -28.0980  -20.3804   20.0653 H   0  0  0  0  0  0
  -27.0892  -20.3684   21.4834 H   0  0  0  0  0  0
  -30.1870  -22.2951   19.6223 H   0  0  0  0  0  0
  -31.2136  -22.9888   20.8410 H   0  0  0  0  0  0
  -27.0889  -22.6842   21.6903 H   0  0  0  0  0  0
  -27.4738  -22.5850   19.9904 H   0  0  0  0  0  0
  -29.0595  -20.8186   22.8995 H   0  0  0  0  0  0
  -28.3995  -25.4814   17.8013 H   0  0  0  0  0  0
  -28.8610  -23.8695   18.3339 H   0  0  0  0  0  0
  -29.9761  -25.2250   18.5332 H   0  0  0  0  0  0
  -28.6564  -16.1586   22.0383 H   0  0  0  0  0  0
  -30.3740  -16.3290   22.3527 H   0  0  0  0  0  0
  -28.6698  -24.9666   22.0489 H   0  0  0  0  0  0
  -30.1385  -24.9596   21.1304 H   0  0  0  0  0  0
  -28.7382  -18.0480   20.3784 H   0  0  0  0  0  0
  -30.4680  -18.1850   20.5979 H   0  0  0  0  0  0
  -27.3155  -24.8541   20.0124 H   0  0  0  0  0  0
  -30.1184  -16.0938   19.6447 H   0  0  0  0  0  0
  -29.2523  -22.9888   22.2574 H   0  0  0  0  0  0
  -28.4677  -18.6214   22.6996 H   0  0  0  0  0  0
  -30.0598  -18.7666   22.8948 H   0  0  0  0  0  0
  1 25  1  0  0  0
  1 30  2  0  0  0
  1 81  1  0  0  0
  2  3  1  0  0  0
  2 25  1  0  0  0
  2 84  1  0  0  0
  2 85  1  0  0  0
  3  4  1  0  0  0
  3 86  1  0  0  0
  3 87  1  0  0  0
  4  5  1  0  0  0
  4 88  1  0  0  0
  4 89  1  0  0  0
  5  6  1  0  0  0
  5 26  1  0  0  0
  5 90  1  0  0  0
  6 25  1  0  0  0
  6 91  1  0  0  0
  6 92  1  0  0  0
  7  8  2  0  0  0
  7 26  1  0  0  0
  7 29  1  0  0  0
  8  9  1  0  0  0
  8 22  1  0  0  0
  9 10  1  0  0  0
  9 27  2  0  0  0
 10 11  2  0  0  0
 10 15  1  0  0  0
 11 12  1  0  0  0
 11 93  1  0  0  0
 12 13  2  0  0  0
 12 94  1  0  0  0
 13 14  1  0  0  0
 13 31  1  0  0  0
 14 15  2  0  0  0
 14 95  1  0  0  0
 15 96  1  0  0  0
 16 17  2  0  0  0
 16 21  1  0  0  0
 16 31  1  0  0  0
 17 18  1  0  0  0
 17 97  1  0  0  0
 18 19  2  0  0  0
 18 98  1  0  0  0
 19 20  1  0  0  0
 19 24  1  0  0  0
 20 21  2  0  0  0
 20 99  1  0  0  0
 21 23  1  0  0  0
 22 28  1  0  0  0
 22 32  2  0  0  0
 26 27  1  0  0  0
 28100  1  0  0  0
 28101  1  0  0  0
 29102  1  0  0  0
 29103  1  0  0  0
 33 34  1  0  0  0
 33 66  1  0  0  0
 33 70  2  0  0  0
 34 36  1  0  0  0
 34 59  1  0  0  0
 34104  1  0  0  0
 35 44  2  0  0  0
 35 45  1  0  0  0
 35 68  1  0  0  0
 36 56  1  0  0  0
 36105  1  0  0  0
 37 39  1  0  0  0
 37 47  1  0  0  0
 37 66  1  0  0  0
 37106  1  0  0  0
 38 43  2  0  0  0
 38 46  1  0  0  0
 38 47  1  0  0  0
 39 64  1  0  0  0
 39 67  2  0  0  0
 40 52  1  0  0  0
 40 53  2  0  0  0
 40 58  1  0  0  0
 41107  1  0  0  0
 41108  1  0  0  0
 41109  1  0  0  0
 41 48  1  0  0  0
 42 43  1  0  0  0
 42 66  1  0  0  0
 42110  1  0  0  0
 42111  1  0  0  0
 43 44  1  0  0  0
 44112  1  0  0  0
 45 46  2  0  0  0
 45113  1  0  0  0
 46114  1  0  0  0
 47115  1  0  0  0
 47116  1  0  0  0
 48 56  1  0  0  0
 48 65  1  0  0  0
 48117  1  0  0  0
 49 50  1  0  0  0
 49 53  1  0  0  0
 49 64  1  0  0  0
 49118  1  0  0  0
 50 51  1  0  0  0
 50119  1  0  0  0
 50120  1  0  0  0
 51 52  1  0  0  0
 51121  1  0  0  0
 51122  1  0  0  0
 52123  1  0  0  0
 52124  1  0  0  0
 53 54  1  0  0  0
 54 55  2  0  0  0
 54125  1  0  0  0
 55 57  1  0  0  0
 55126  1  0  0  0
 56 69  2  0  0  0
 57 58  2  0  0  0
 57127  1  0  0  0
 58128  1  0  0  0
 59 60  1  0  0  0
 59 61  1  0  0  0
 59 62  1  0  0  0
 60129  1  0  0  0
 60130  1  0  0  0
 60131  1  0  0  0
 61132  1  0  0  0
 61133  1  0  0  0
 61134  1  0  0  0
 62135  1  0  0  0
 62136  1  0  0  0
 62137  1  0  0  0
 63 65  1  0  0  0
 63138  1  0  0  0
 63139  1  0  0  0
 63140  1  0  0  0
 64141  1  0  0  0
 65142  1  0  0  0
 68 80  1  0  0  0
 71 73  1  0  0  0
 71 75  1  0  0  0
 71143  1  0  0  0
 71144  1  0  0  0
 72 74  1  0  0  0
 72 75  1  0  0  0
 72145  1  0  0  0
 72146  1  0  0  0
 73 82  1  0  0  0
 73147  1  0  0  0
 73148  1  0  0  0
 74 82  1  0  0  0
 74149  1  0  0  0
 74150  1  0  0  0
 75 83  1  0  0  0
 75151  1  0  0  0
 76152  1  0  0  0
 76153  1  0  0  0
 76154  1  0  0  0
 76 80  1  0  0  0
 77 79  1  0  0  0
 77 81  1  0  0  0
 77155  1  0  0  0
 77156  1  0  0  0
 78 80  1  0  0  0
 78157  1  0  0  0
 78158  1  0  0  0
 78 82  1  0  0  0
 79 83  1  0  0  0
 79159  1  0  0  0
 79160  1  0  0  0
 80161  1  0  0  0
 81162  1  0  0  0
 82163  1  0  0  0
 83164  1  0  0  0
 83165  1  0  0  0
M  CHG  2  82   1  83   1
M  ISO  4   1 100  68 101  80 101  81 100
M  END
> <chiral flag>
0

> <version>
0

> <s_m_source_file>
/data/baiqing/PycharmProjects/Reinvent-master-3.2/result/LINK_invent/BTK/process_docking_weight1_custom_sum_contain_oxygen_bond_distance_aromatic_linkinvent_7_9_3/rearranged_h_0128.sdf

> <i_m_source_file_index>
1

> <r_mmod_Potential_Energy-OPLS-2005>
-211.150604248047

> <r_mmod_Stretch_Energy-OPLS-2005>
41.5972099304199

> <r_mmod_Bend_Energy-OPLS-2005>
133.590408325195

> <r_mmod_Torsional_Energy-OPLS-2005>
342.061126708984

> <r_mmod_Improper_Torsional_Energy-OPLS-2005>
20.5503234863281

> <r_mmod_Van_der_Waal_Energy-OPLS-2005>
135.756713867188

> <r_mmod_Electrostatic_Energy-OPLS-2005>
94.1854095458984

> <r_mmod_Solvation_Energy-OPLS-2005>
-998.681335449219

> <b_mmod_Minimization_Converged-OPLS-2005>
0

> <r_mmod_RMS_Derivative-OPLS-2005>
3.11685109138489

$$$$
1
                    3D
 Structure written by MMmdl.
164173  0  0  1  0            999 V2000
  -30.7218  -14.4245   20.6301 C   0  0  0  0  0  0
  -30.4237  -12.3012   19.4068 C   0  0  0  0  0  0
  -29.4902  -12.5164   18.1987 C   0  0  0  0  0  0
  -28.0125  -12.3734   18.6134 C   0  0  0  0  0  0
  -27.6645  -13.2023   19.8781 C   0  0  2  0  0  0
  -28.7039  -12.9548   20.9940 C   0  0  0  0  0  0
  -25.2602  -13.8153   20.5674 C   0  0  0  0  0  0
  -24.1845  -13.0438   20.9165 C   0  0  0  0  0  0
  -24.6389  -11.6901   20.8725 C   0  0  0  0  0  0
  -23.9054  -10.4290   21.0399 C   0  0  0  0  0  0
  -24.3610   -9.4209   21.9178 C   0  0  0  0  0  0
  -23.6288   -8.2244   22.0752 C   0  0  0  0  0  0
  -22.4270   -8.0281   21.3545 C   0  0  0  0  0  0
  -21.9902   -9.0252   20.4646 C   0  0  0  0  0  0
  -22.7228  -10.2130   20.3050 C   0  0  0  0  0  0
  -21.6852   -6.0734   22.5278 C   0  0  0  0  0  0
  -21.4010   -6.5637   23.8211 C   0  0  0  0  0  0
  -21.3657   -5.6789   24.9172 C   0  0  0  0  0  0
  -21.6044   -4.3052   24.7222 C   0  0  0  0  0  0
  -21.8821   -3.8144   23.4343 C   0  0  0  0  0  0
  -21.9194   -4.6962   22.3401 C   0  0  0  0  0  0
  -22.7869  -13.5243   21.1836 C   0  0  0  0  0  0
  -22.1664   -4.2149   21.0979 F   0  0  0  0  0  0
  -21.5629   -3.4534   25.7733 F   0  0  0  0  0  0
  -30.0400  -13.2623   20.4514 N   0  0  0  0  0  0
  -26.3036  -12.9314   20.3372 N   0  0  0  0  0  0
  -25.9316  -11.6478   20.5758 N   0  0  0  0  0  0
  -22.0506  -12.8241   22.0391 N   0  0  0  0  0  0
  -25.4349  -15.1868   20.4085 N   0  0  0  0  0  0
  -31.8067  -14.6636   20.0926 O   0  0  0  0  0  0
  -21.6638   -6.8875   21.4240 O   0  0  0  0  0  0
  -22.3561  -14.5556   20.6691 O   0  0  0  0  0  0
  -24.6129  -31.8697   23.2121 C   0  0  0  0  0  0
  -25.9032  -32.4829   23.8408 C   0  0  1  0  0  0
  -27.2293  -27.4369   20.1027 C   0  0  0  0  0  0
  -25.5902  -33.8629   24.2340 N   0  0  0  0  0  0
  -23.4001  -30.4939   21.5523 C   0  0  2  0  0  0
  -24.8458  -28.9580   20.1210 C   0  0  0  0  0  0
  -22.7399  -29.4668   22.4998 C   0  0  0  0  0  0
  -18.0269  -28.1376   22.8492 C   0  0  0  0  0  0
  -24.1487  -36.7313   23.2638 C   0  0  0  0  0  0
  -25.9288  -30.8330   21.3681 C   0  0  0  0  0  0
  -26.0044  -29.4652   20.7228 C   0  0  0  0  0  0
  -27.1992  -28.7101   20.7149 C   0  0  0  0  0  0
  -26.0615  -26.9559   19.4737 C   0  0  0  0  0  0
  -24.8680  -27.7001   19.4958 C   0  0  0  0  0  0
  -23.6091  -29.8260   20.1673 C   0  0  0  0  0  0
  -25.4106  -36.3117   24.0344 C   0  0  1  0  0  0
  -20.5858  -28.3662   23.1324 C   0  0  2  0  0  0
  -20.6760  -26.9399   22.5425 C   0  0  0  0  0  0
  -19.5744  -26.6384   21.5215 C   0  0  0  0  0  0
  -18.1917  -26.7926   22.1614 C   0  0  0  0  0  0
  -19.1519  -28.8833   23.2907 C   0  0  0  0  0  0
  -18.9449  -30.1440   23.8916 C   0  0  0  0  0  0
  -17.6452  -30.6583   24.0567 C   0  0  0  0  0  0
  -25.9034  -34.9483   23.5135 C   0  0  0  0  0  0
  -16.5343  -29.9087   23.6326 C   0  0  0  0  0  0
  -16.7259  -28.6504   23.0345 C   0  0  0  0  0  0
  -26.4466  -31.6601   25.0728 C   0  0  0  0  0  0
  -25.3742  -31.3708   26.1485 C   0  0  0  0  0  0
  -27.0286  -30.3039   24.6094 C   0  0  0  0  0  0
  -27.6052  -32.4312   25.7483 C   0  0  0  0  0  0
  -27.5587  -37.1804   24.8459 C   0  0  0  0  0  0
  -21.4128  -29.3032   22.3733 N   0  0  0  0  0  0
  -26.4288  -37.3805   23.9421 N   0  0  0  0  0  0
  -24.6652  -31.0803   22.1023 N   0  0  0  0  0  0
  -23.4177  -28.8206   23.3033 O   0  0  0  0  0  0
  -28.4066  -26.7254   20.0402 O   0  0  0  0  0  0
  -26.5587  -34.8930   22.4690 O   0  0  0  0  0  0
  -23.5326  -32.1449   23.7522 O   0  0  0  0  0  0
  -27.7513  -24.3087   20.1465 C   0  0  0  0  0  0
  -30.0120  -25.1905   20.8722 C   0  0  0  0  0  0
  -28.0900  -22.9495   20.7940 C   0  0  0  0  0  0
  -30.3158  -23.8263   21.5232 C   0  0  0  0  0  0
  -30.2889  -17.7365   20.5519 C   0  0  0  0  0  0
  -29.8576  -17.3461   22.8579 C   0  0  0  0  0  0
  -30.5651  -16.7071   21.6549 C   0  0  1  0  0  0
  -28.5029  -25.5024   20.7890 C   0  0  1  0  0  0
  -29.6052  -22.6786   20.7859 C   0  0  1  0  0  0
  -30.4342  -19.0796   21.2992 C   0  0  1  0  0  0
  -29.6564  -20.2643   20.6865 C   0  0  0  0  0  0
  -30.0941  -15.3452   21.3782 N   0  0  0  0  0  0
  -30.0425  -18.8028   22.7009 N   0  3  0  0  0  0
  -29.9432  -21.4504   21.4355 O   0  0  0  0  0  0
  -31.4665  -12.4084   19.1027 H   0  0  0  0  0  0
  -30.3298  -11.2824   19.7863 H   0  0  0  0  0  0
  -29.7268  -11.8027   17.4083 H   0  0  0  0  0  0
  -29.6580  -13.5081   17.7756 H   0  0  0  0  0  0
  -27.8208  -11.3159   18.7999 H   0  0  0  0  0  0
  -27.3602  -12.6571   17.7867 H   0  0  0  0  0  0
  -27.7183  -14.2544   19.5971 H   0  0  0  0  0  0
  -28.6751  -11.9108   21.3096 H   0  0  0  0  0  0
  -28.4566  -13.5282   21.8880 H   0  0  0  0  0  0
  -25.2758   -9.5688   22.4747 H   0  0  0  0  0  0
  -24.0000   -7.4637   22.7471 H   0  0  0  0  0  0
  -21.0833   -8.8767   19.8953 H   0  0  0  0  0  0
  -22.3689  -10.9665   19.6153 H   0  0  0  0  0  0
  -21.1996   -7.6145   23.9713 H   0  0  0  0  0  0
  -21.1476   -6.0517   25.9075 H   0  0  0  0  0  0
  -22.0601   -2.7606   23.2840 H   0  0  0  0  0  0
  -22.4106  -11.9890   22.4770 H   0  0  0  0  0  0
  -21.1128  -13.1278   22.2599 H   0  0  0  0  0  0
  -24.6692  -15.8445   20.5073 H   0  0  0  0  0  0
  -26.2902  -15.6206   20.0839 H   0  0  0  0  0  0
  -26.7102  -32.5547   23.1173 H   0  0  0  0  0  0
  -25.0075  -33.9797   25.0501 H   0  0  0  0  0  0
  -22.6883  -31.3104   21.4139 H   0  0  0  0  0  0
  -23.3761  -35.9632   23.3289 H   0  0  0  0  0  0
  -24.3594  -36.8935   22.2056 H   0  0  0  0  0  0
  -23.7219  -37.6508   23.6655 H   0  0  0  0  0  0
  -26.0413  -31.5955   20.5961 H   0  0  0  0  0  0
  -26.8173  -30.8881   21.9852 H   0  0  0  0  0  0
  -28.0970  -29.1016   21.1728 H   0  0  0  0  0  0
  -26.0706  -26.0233   18.9313 H   0  0  0  0  0  0
  -23.9833  -27.3120   19.0102 H   0  0  0  0  0  0
  -23.7196  -30.6003   19.4072 H   0  0  0  0  0  0
  -22.7330  -29.2462   19.8706 H   0  0  0  0  0  0
  -25.1280  -36.1981   25.0836 H   0  0  0  0  0  0
  -20.9952  -28.3228   24.1445 H   0  0  0  0  0  0
  -20.5658  -26.2271   23.3612 H   0  0  0  0  0  0
  -21.6633  -26.7444   22.1219 H   0  0  0  0  0  0
  -19.6904  -25.6297   21.1235 H   0  0  0  0  0  0
  -19.6691  -27.3204   20.6756 H   0  0  0  0  0  0
  -17.4197  -26.6696   21.4001 H   0  0  0  0  0  0
  -18.0300  -26.0057   22.8995 H   0  0  0  0  0  0
  -19.7927  -30.7247   24.2293 H   0  0  0  0  0  0
  -17.5011  -31.6265   24.5166 H   0  0  0  0  0  0
  -15.5345  -30.2996   23.7641 H   0  0  0  0  0  0
  -15.8659  -28.0833   22.7046 H   0  0  0  0  0  0
  -24.5922  -30.7039   25.7837 H   0  0  0  0  0  0
  -24.8923  -32.2864   26.4929 H   0  0  0  0  0  0
  -25.8108  -30.8894   27.0245 H   0  0  0  0  0  0
  -26.2818  -29.6808   24.1158 H   0  0  0  0  0  0
  -27.4064  -29.7267   25.4542 H   0  0  0  0  0  0
  -27.8655  -30.4352   23.9232 H   0  0  0  0  0  0
  -27.2677  -33.3605   26.2088 H   0  0  0  0  0  0
  -28.3847  -32.6883   25.0298 H   0  0  0  0  0  0
  -28.0736  -31.8419   26.5375 H   0  0  0  0  0  0
  -28.2592  -38.0116   24.7543 H   0  0  0  0  0  0
  -28.1096  -36.2654   24.6232 H   0  0  0  0  0  0
  -27.2320  -37.1388   25.8864 H   0  0  0  0  0  0
  -20.9282  -29.8760   21.6964 H   0  0  0  0  0  0
  -26.0180  -38.2880   24.1446 H   0  0  0  0  0  0
  -26.6757  -24.4463   20.2383 H   0  0  0  0  0  0
  -27.9784  -24.2664   19.0806 H   0  0  0  0  0  0
  -30.4376  -25.2036   19.8678 H   0  0  0  0  0  0
  -30.5193  -25.9815   21.4259 H   0  0  0  0  0  0
  -27.5557  -22.1619   20.2628 H   0  0  0  0  0  0
  -27.7198  -22.9342   21.8200 H   0  0  0  0  0  0
  -30.0077  -23.8431   22.5693 H   0  0  0  0  0  0
  -31.3928  -23.6549   21.5227 H   0  0  0  0  0  0
  -29.2736  -17.6193   20.1680 H   0  0  0  0  0  0
  -30.9767  -17.6506   19.7093 H   0  0  0  0  0  0
  -30.2509  -16.9930   23.8120 H   0  0  0  0  0  0
  -28.7883  -17.1301   22.8384 H   0  0  0  0  0  0
  -31.6386  -16.6817   21.8584 H   0  0  0  0  0  0
  -28.1223  -25.6662   21.7991 H   0  0  0  0  0  0
  -29.9706  -22.6569   19.7571 H   0  0  0  0  0  0
  -31.4944  -19.3383   21.3159 H   0  0  0  0  0  0
  -28.5838  -20.0667   20.6793 H   0  0  0  0  0  0
  -29.9680  -20.3875   19.6480 H   0  0  0  0  0  0
  -29.2098  -15.0647   21.7756 H   0  0  0  0  0  0
  -30.7661  -19.1321   23.3210 H   0  0  0  0  0  0
  -29.1914  -19.2870   22.9413 H   0  0  0  0  0  0
  1 25  1  0  0  0
  1 30  2  0  0  0
  1 82  1  0  0  0
  2  3  1  0  0  0
  2 25  1  0  0  0
  2 85  1  0  0  0
  2 86  1  0  0  0
  3  4  1  0  0  0
  3 87  1  0  0  0
  3 88  1  0  0  0
  4  5  1  0  0  0
  4 89  1  0  0  0
  4 90  1  0  0  0
  5  6  1  0  0  0
  5 26  1  0  0  0
  5 91  1  0  0  0
  6 25  1  0  0  0
  6 92  1  0  0  0
  6 93  1  0  0  0
  7  8  2  0  0  0
  7 26  1  0  0  0
  7 29  1  0  0  0
  8  9  1  0  0  0
  8 22  1  0  0  0
  9 10  1  0  0  0
  9 27  2  0  0  0
 10 11  2  0  0  0
 10 15  1  0  0  0
 11 12  1  0  0  0
 11 94  1  0  0  0
 12 13  2  0  0  0
 12 95  1  0  0  0
 13 14  1  0  0  0
 13 31  1  0  0  0
 14 15  2  0  0  0
 14 96  1  0  0  0
 15 97  1  0  0  0
 16 17  2  0  0  0
 16 21  1  0  0  0
 16 31  1  0  0  0
 17 18  1  0  0  0
 17 98  1  0  0  0
 18 19  2  0  0  0
 18 99  1  0  0  0
 19 20  1  0  0  0
 19 24  1  0  0  0
 20 21  2  0  0  0
 20100  1  0  0  0
 21 23  1  0  0  0
 22 28  1  0  0  0
 22 32  2  0  0  0
 26 27  1  0  0  0
 28101  1  0  0  0
 28102  1  0  0  0
 29103  1  0  0  0
 29104  1  0  0  0
 33 34  1  0  0  0
 33 66  1  0  0  0
 33 70  2  0  0  0
 34 36  1  0  0  0
 34 59  1  0  0  0
 34105  1  0  0  0
 35 44  2  0  0  0
 35 45  1  0  0  0
 35 68  1  0  0  0
 36 56  1  0  0  0
 36106  1  0  0  0
 37 39  1  0  0  0
 37 47  1  0  0  0
 37 66  1  0  0  0
 37107  1  0  0  0
 38 43  2  0  0  0
 38 46  1  0  0  0
 38 47  1  0  0  0
 39 64  1  0  0  0
 39 67  2  0  0  0
 40 52  1  0  0  0
 40 53  2  0  0  0
 40 58  1  0  0  0
 41108  1  0  0  0
 41109  1  0  0  0
 41110  1  0  0  0
 41 48  1  0  0  0
 42 43  1  0  0  0
 42 66  1  0  0  0
 42111  1  0  0  0
 42112  1  0  0  0
 43 44  1  0  0  0
 44113  1  0  0  0
 45 46  2  0  0  0
 45114  1  0  0  0
 46115  1  0  0  0
 47116  1  0  0  0
 47117  1  0  0  0
 48 56  1  0  0  0
 48 65  1  0  0  0
 48118  1  0  0  0
 49 50  1  0  0  0
 49 53  1  0  0  0
 49 64  1  0  0  0
 49119  1  0  0  0
 50 51  1  0  0  0
 50120  1  0  0  0
 50121  1  0  0  0
 51 52  1  0  0  0
 51122  1  0  0  0
 51123  1  0  0  0
 52124  1  0  0  0
 52125  1  0  0  0
 53 54  1  0  0  0
 54 55  2  0  0  0
 54126  1  0  0  0
 55 57  1  0  0  0
 55127  1  0  0  0
 56 69  2  0  0  0
 57 58  2  0  0  0
 57128  1  0  0  0
 58129  1  0  0  0
 59 60  1  0  0  0
 59 61  1  0  0  0
 59 62  1  0  0  0
 60130  1  0  0  0
 60131  1  0  0  0
 60132  1  0  0  0
 61133  1  0  0  0
 61134  1  0  0  0
 61135  1  0  0  0
 62136  1  0  0  0
 62137  1  0  0  0
 62138  1  0  0  0
 63 65  1  0  0  0
 63139  1  0  0  0
 63140  1  0  0  0
 63141  1  0  0  0
 64142  1  0  0  0
 65143  1  0  0  0
 68 78  1  0  0  0
 71 73  1  0  0  0
 71 78  1  0  0  0
 71144  1  0  0  0
 71145  1  0  0  0
 72 74  1  0  0  0
 72 78  1  0  0  0
 72146  1  0  0  0
 72147  1  0  0  0
 73 79  1  0  0  0
 73148  1  0  0  0
 73149  1  0  0  0
 74 79  1  0  0  0
 74150  1  0  0  0
 74151  1  0  0  0
 75 77  1  0  0  0
 75 80  1  0  0  0
 75152  1  0  0  0
 75153  1  0  0  0
 76 77  1  0  0  0
 76 83  1  0  0  0
 76154  1  0  0  0
 76155  1  0  0  0
 77 82  1  0  0  0
 77156  1  0  0  0
 78157  1  0  0  0
 79 84  1  0  0  0
 79158  1  0  0  0
 80 81  1  0  0  0
 80 83  1  0  0  0
 80159  1  0  0  0
 81 84  1  0  0  0
 81160  1  0  0  0
 81161  1  0  0  0
 82162  1  0  0  0
 83163  1  0  0  0
 83164  1  0  0  0
M  CHG  1  83   1
M  ISO  4   1 100  68 101  78 101  82 100
M  END
> <chiral flag>
0

> <version>
0

> <s_m_source_file>
/data/baiqing/PycharmProjects/Reinvent-master-3.2/result/LINK_invent/BTK/process_docking_weight1_custom_sum_contain_oxygen_bond_distance_aromatic_linkinvent_7_9_3/rearranged_h_0128.sdf

> <i_m_source_file_index>
2

> <r_mmod_Potential_Energy-OPLS-2005>
-184.926712036133

> <r_mmod_Stretch_Energy-OPLS-2005>
33.8132781982422

> <r_mmod_Bend_Energy-OPLS-2005>
123.421661376953

> <r_mmod_Torsional_Energy-OPLS-2005>
298.826873779297

> <r_mmod_Improper_Torsional_Energy-OPLS-2005>
2.43997597694397

> <r_mmod_Van_der_Waal_Energy-OPLS-2005>
131.430969238281

> <r_mmod_Electrostatic_Energy-OPLS-2005>
-328.928985595703

> <r_mmod_Solvation_Energy-OPLS-2005>
-454.551940917969

> <b_mmod_Minimization_Converged-OPLS-2005>
0

> <r_mmod_RMS_Derivative-OPLS-2005>
0.39981484413147

$$$$
2
                    3D
 Structure written by MMmdl.
159167  0  0  1  0            999 V2000
  -30.5724  -14.8725   20.4265 C   0  0  0  0  0  0
  -30.4395  -12.5334   19.4887 C   0  0  0  0  0  0
  -29.5172  -12.5112   18.2486 C   0  0  0  0  0  0
  -28.0489  -12.3109   18.6684 C   0  0  0  0  0  0
  -27.6361  -13.2403   19.8397 C   0  0  2  0  0  0
  -28.6803  -13.2372   20.9767 C   0  0  0  0  0  0
  -25.2485  -13.8212   20.5690 C   0  0  0  0  0  0
  -24.1798  -13.0439   20.9201 C   0  0  0  0  0  0
  -24.6404  -11.6921   20.8737 C   0  0  0  0  0  0
  -23.9088  -10.4298   21.0380 C   0  0  0  0  0  0
  -24.3615   -9.4215   21.9168 C   0  0  0  0  0  0
  -23.6280   -8.2264   22.0771 C   0  0  0  0  0  0
  -22.4266   -8.0283   21.3557 C   0  0  0  0  0  0
  -21.9910   -9.0262   20.4652 C   0  0  0  0  0  0
  -22.7249  -10.2142   20.3053 C   0  0  0  0  0  0
  -21.6845   -6.0722   22.5283 C   0  0  0  0  0  0
  -21.4018   -6.5634   23.8208 C   0  0  0  0  0  0
  -21.3664   -5.6799   24.9179 C   0  0  0  0  0  0
  -21.6056   -4.3056   24.7233 C   0  0  0  0  0  0
  -21.8814   -3.8138   23.4350 C   0  0  0  0  0  0
  -21.9192   -4.6953   22.3398 C   0  0  0  0  0  0
  -22.7806  -13.5196   21.1868 C   0  0  0  0  0  0
  -22.1645   -4.2135   21.0977 F   0  0  0  0  0  0
  -21.5642   -3.4539   25.7739 F   0  0  0  0  0  0
  -29.9676  -13.6233   20.3844 N   0  0  0  0  0  0
  -26.2915  -12.9438   20.3240 N   0  0  0  0  0  0
  -25.9341  -11.6570   20.5746 N   0  0  0  0  0  0
  -22.0480  -12.8239   22.0488 N   0  0  0  0  0  0
  -25.4161  -15.1937   20.4131 N   0  0  0  0  0  0
  -31.7686  -14.9543   20.1370 O   0  0  0  0  0  0
  -21.6623   -6.8880   21.4253 O   0  0  0  0  0  0
  -22.3477  -14.5482   20.6699 O   0  0  0  0  0  0
  -24.6391  -31.8471   23.1911 C   0  0  0  0  0  0
  -25.9162  -32.4719   23.8308 C   0  0  1  0  0  0
  -27.2279  -27.1874   20.1516 C   0  0  0  0  0  0
  -25.5922  -33.8525   24.2220 N   0  0  0  0  0  0
  -23.4422  -30.4649   21.5368 C   0  0  2  0  0  0
  -24.8933  -28.8927   20.1186 C   0  0  0  0  0  0
  -22.7560  -29.4550   22.4901 C   0  0  0  0  0  0
  -18.0301  -28.1387   22.8467 C   0  0  0  0  0  0
  -24.1507  -36.7287   23.2641 C   0  0  0  0  0  0
  -25.9940  -30.7393   21.3792 C   0  0  0  0  0  0
  -26.0698  -29.3509   20.7288 C   0  0  0  0  0  0
  -27.2428  -28.5150   20.7269 C   0  0  0  0  0  0
  -26.0267  -26.8100   19.5198 C   0  0  0  0  0  0
  -24.8811  -27.6323   19.5019 C   0  0  0  0  0  0
  -23.6667  -29.7894   20.1584 C   0  0  0  0  0  0
  -25.4132  -36.3058   24.0324 C   0  0  1  0  0  0
  -20.5912  -28.3703   23.1258 C   0  0  2  0  0  0
  -20.6796  -26.9415   22.5409 C   0  0  0  0  0  0
  -19.5761  -26.6377   21.5220 C   0  0  0  0  0  0
  -18.1941  -26.7918   22.1635 C   0  0  0  0  0  0
  -19.1558  -28.8865   23.2852 C   0  0  0  0  0  0
  -18.9466  -30.1461   23.8874 C   0  0  0  0  0  0
  -17.6462  -30.6578   24.0554 C   0  0  0  0  0  0
  -25.9075  -34.9423   23.5093 C   0  0  0  0  0  0
  -16.5356  -29.9065   23.6321 C   0  0  0  0  0  0
  -16.7289  -28.6488   23.0339 C   0  0  0  0  0  0
  -26.4510  -31.6559   25.0719 C   0  0  0  0  0  0
  -25.3713  -31.3727   26.1426 C   0  0  0  0  0  0
  -27.0362  -30.2973   24.6228 C   0  0  0  0  0  0
  -27.6064  -32.4312   25.7478 C   0  0  0  0  0  0
  -27.5594  -37.1803   24.8464 C   0  0  0  0  0  0
  -21.4258  -29.3036   22.3642 N   0  0  0  0  0  0
  -26.4311  -37.3749   23.9396 N   0  0  0  0  0  0
  -24.7116  -31.0360   22.0931 N   0  0  0  0  0  0
  -23.4205  -28.8107   23.3062 O   0  0  0  0  0  0
  -28.2903  -26.2322   20.1234 O   0  0  0  0  0  0
  -26.5672  -34.8909   22.4677 O   0  0  0  0  0  0
  -23.5511  -32.1318   23.7144 O   0  0  0  0  0  0
  -29.5842  -22.7163   20.0771 C   0  0  0  0  0  0
  -29.7588  -21.2623   20.0559 C   0  0  0  0  0  0
  -27.4613  -22.4313   21.0478 C   0  0  0  0  0  0
  -28.4142  -23.3840   20.5852 C   0  0  0  0  0  0
  -28.7931  -20.3158   20.5547 C   0  0  0  0  0  0
  -27.6098  -20.9931   21.0362 C   0  0  0  0  0  0
  -25.0559  -20.6747   21.2166 C   0  0  0  0  0  0
  -26.5885  -20.1425   23.1730 C   0  0  0  0  0  0
  -28.8648  -18.6643   20.5933 C   0  0  0  0  0  0
  -28.1821  -24.9668   20.9693 C   0  0  0  0  0  0
  -30.0927  -17.5664   20.4256 C   0  0  0  0  0  0
  -26.4527  -20.1866   21.6441 C   0  0  0  0  0  0
  -29.7890  -16.0343   20.5838 N   0  0  0  0  0  0
  -31.4774  -12.6741   19.1826 H   0  0  0  0  0  0
  -30.4098  -11.5731   20.0071 H   0  0  0  0  0  0
  -29.8211  -11.7170   17.5655 H   0  0  0  0  0  0
  -29.6171  -13.4468   17.6965 H   0  0  0  0  0  0
  -27.9366  -11.2696   18.9717 H   0  0  0  0  0  0
  -27.3833  -12.4498   17.8158 H   0  0  0  0  0  0
  -27.6094  -14.2492   19.4233 H   0  0  0  0  0  0
  -28.7493  -12.2552   21.4462 H   0  0  0  0  0  0
  -28.3952  -13.9344   21.7652 H   0  0  0  0  0  0
  -25.2767   -9.5698   22.4732 H   0  0  0  0  0  0
  -23.9974   -7.4673   22.7529 H   0  0  0  0  0  0
  -21.0834   -8.8796   19.8957 H   0  0  0  0  0  0
  -22.3707  -10.9684   19.6166 H   0  0  0  0  0  0
  -21.2016   -7.6153   23.9657 H   0  0  0  0  0  0
  -21.1484   -6.0574   25.9070 H   0  0  0  0  0  0
  -22.0590   -2.7602   23.2876 H   0  0  0  0  0  0
  -22.4120  -11.9974   22.4991 H   0  0  0  0  0  0
  -21.1134  -13.1336   22.2759 H   0  0  0  0  0  0
  -24.6384  -15.8394   20.5069 H   0  0  0  0  0  0
  -26.2477  -15.6330   20.0408 H   0  0  0  0  0  0
  -26.7229  -32.5341   23.1046 H   0  0  0  0  0  0
  -24.9996  -33.9656   25.0315 H   0  0  0  0  0  0
  -22.7429  -31.2893   21.3817 H   0  0  0  0  0  0
  -23.3769  -35.9619   23.3283 H   0  0  0  0  0  0
  -24.3605  -36.8935   22.2065 H   0  0  0  0  0  0
  -23.7279  -37.6488   23.6682 H   0  0  0  0  0  0
  -26.1375  -31.4905   20.6000 H   0  0  0  0  0  0
  -26.8696  -30.7969   22.0144 H   0  0  0  0  0  0
  -28.1458  -28.8681   21.2051 H   0  0  0  0  0  0
  -25.9695  -25.8397   19.0474 H   0  0  0  0  0  0
  -23.9826  -27.2737   19.0200 H   0  0  0  0  0  0
  -23.7967  -30.5615   19.3996 H   0  0  0  0  0  0
  -22.7842  -29.2245   19.8548 H   0  0  0  0  0  0
  -25.1322  -36.1907   25.0820 H   0  0  0  0  0  0
  -20.9992  -28.3283   24.1386 H   0  0  0  0  0  0
  -20.5689  -26.2325   23.3622 H   0  0  0  0  0  0
  -21.6664  -26.7412   22.1210 H   0  0  0  0  0  0
  -19.6925  -25.6288   21.1251 H   0  0  0  0  0  0
  -19.6710  -27.3186   20.6749 H   0  0  0  0  0  0
  -17.4221  -26.6649   21.4041 H   0  0  0  0  0  0
  -18.0340  -26.0071   22.9047 H   0  0  0  0  0  0
  -19.7944  -30.7285   24.2237 H   0  0  0  0  0  0
  -17.5011  -31.6251   24.5178 H   0  0  0  0  0  0
  -15.5354  -30.2965   23.7648 H   0  0  0  0  0  0
  -15.8690  -28.0804   22.7053 H   0  0  0  0  0  0
  -24.5876  -30.7092   25.7746 H   0  0  0  0  0  0
  -24.8918  -32.2907   26.4841 H   0  0  0  0  0  0
  -25.8003  -30.8901   27.0213 H   0  0  0  0  0  0
  -26.2962  -29.6741   24.1188 H   0  0  0  0  0  0
  -27.3975  -29.7220   25.4765 H   0  0  0  0  0  0
  -27.8873  -30.4268   23.9532 H   0  0  0  0  0  0
  -27.2661  -33.3613   26.2038 H   0  0  0  0  0  0
  -28.3851  -32.6862   25.0279 H   0  0  0  0  0  0
  -28.0748  -31.8448   26.5392 H   0  0  0  0  0  0
  -28.2596  -38.0108   24.7486 H   0  0  0  0  0  0
  -28.1095  -36.2635   24.6304 H   0  0  0  0  0  0
  -27.2306  -37.1477   25.8863 H   0  0  0  0  0  0
  -20.9453  -29.8760   21.6833 H   0  0  0  0  0  0
  -26.0193  -38.2828   24.1351 H   0  0  0  0  0  0
  -30.4029  -23.3296   19.7263 H   0  0  0  0  0  0
  -30.6851  -20.8721   19.6576 H   0  0  0  0  0  0
  -26.5746  -22.8425   21.5059 H   0  0  0  0  0  0
  -24.9781  -20.7351   20.1311 H   0  0  0  0  0  0
  -24.7967  -21.6482   21.6309 H   0  0  0  0  0  0
  -24.2901  -19.9764   21.5564 H   0  0  0  0  0  0
  -27.5260  -19.6703   23.4670 H   0  0  0  0  0  0
  -25.7782  -19.5734   23.6296 H   0  0  0  0  0  0
  -26.5758  -21.1450   23.6019 H   0  0  0  0  0  0
  -28.0988  -18.3490   19.8841 H   0  0  0  0  0  0
  -28.4732  -18.4096   21.5768 H   0  0  0  0  0  0
  -28.8929  -25.1351   21.7797 H   0  0  0  0  0  0
  -27.2129  -25.0190   21.4682 H   0  0  0  0  0  0
  -30.8708  -17.8103   21.1484 H   0  0  0  0  0  0
  -30.5489  -17.7041   19.4446 H   0  0  0  0  0  0
  -26.4788  -19.1624   21.2810 H   0  0  0  0  0  0
  -28.8251  -15.8290   20.7970 H   0  0  0  0  0  0
  1 25  1  0  0  0
  1 30  2  0  0  0
  1 83  1  0  0  0
  2  3  1  0  0  0
  2 25  1  0  0  0
  2 84  1  0  0  0
  2 85  1  0  0  0
  3  4  1  0  0  0
  3 86  1  0  0  0
  3 87  1  0  0  0
  4  5  1  0  0  0
  4 88  1  0  0  0
  4 89  1  0  0  0
  5  6  1  0  0  0
  5 26  1  0  0  0
  5 90  1  0  0  0
  6 25  1  0  0  0
  6 91  1  0  0  0
  6 92  1  0  0  0
  7  8  2  0  0  0
  7 26  1  0  0  0
  7 29  1  0  0  0
  8  9  1  0  0  0
  8 22  1  0  0  0
  9 10  1  0  0  0
  9 27  2  0  0  0
 10 11  2  0  0  0
 10 15  1  0  0  0
 11 12  1  0  0  0
 11 93  1  0  0  0
 12 13  2  0  0  0
 12 94  1  0  0  0
 13 14  1  0  0  0
 13 31  1  0  0  0
 14 15  2  0  0  0
 14 95  1  0  0  0
 15 96  1  0  0  0
 16 17  2  0  0  0
 16 21  1  0  0  0
 16 31  1  0  0  0
 17 18  1  0  0  0
 17 97  1  0  0  0
 18 19  2  0  0  0
 18 98  1  0  0  0
 19 20  1  0  0  0
 19 24  1  0  0  0
 20 21  2  0  0  0
 20 99  1  0  0  0
 21 23  1  0  0  0
 22 28  1  0  0  0
 22 32  2  0  0  0
 26 27  1  0  0  0
 28100  1  0  0  0
 28101  1  0  0  0
 29102  1  0  0  0
 29103  1  0  0  0
 33 34  1  0  0  0
 33 66  1  0  0  0
 33 70  2  0  0  0
 34 36  1  0  0  0
 34 59  1  0  0  0
 34104  1  0  0  0
 35 44  2  0  0  0
 35 45  1  0  0  0
 35 68  1  0  0  0
 36 56  1  0  0  0
 36105  1  0  0  0
 37 39  1  0  0  0
 37 47  1  0  0  0
 37 66  1  0  0  0
 37106  1  0  0  0
 38 43  2  0  0  0
 38 46  1  0  0  0
 38 47  1  0  0  0
 39 64  1  0  0  0
 39 67  2  0  0  0
 40 52  1  0  0  0
 40 53  2  0  0  0
 40 58  1  0  0  0
 41107  1  0  0  0
 41108  1  0  0  0
 41109  1  0  0  0
 41 48  1  0  0  0
 42 43  1  0  0  0
 42 66  1  0  0  0
 42110  1  0  0  0
 42111  1  0  0  0
 43 44  1  0  0  0
 44112  1  0  0  0
 45 46  2  0  0  0
 45113  1  0  0  0
 46114  1  0  0  0
 47115  1  0  0  0
 47116  1  0  0  0
 48 56  1  0  0  0
 48 65  1  0  0  0
 48117  1  0  0  0
 49 50  1  0  0  0
 49 53  1  0  0  0
 49 64  1  0  0  0
 49118  1  0  0  0
 50 51  1  0  0  0
 50119  1  0  0  0
 50120  1  0  0  0
 51 52  1  0  0  0
 51121  1  0  0  0
 51122  1  0  0  0
 52123  1  0  0  0
 52124  1  0  0  0
 53 54  1  0  0  0
 54 55  2  0  0  0
 54125  1  0  0  0
 55 57  1  0  0  0
 55126  1  0  0  0
 56 69  2  0  0  0
 57 58  2  0  0  0
 57127  1  0  0  0
 58128  1  0  0  0
 59 60  1  0  0  0
 59 61  1  0  0  0
 59 62  1  0  0  0
 60129  1  0  0  0
 60130  1  0  0  0
 60131  1  0  0  0
 61132  1  0  0  0
 61133  1  0  0  0
 61134  1  0  0  0
 62135  1  0  0  0
 62136  1  0  0  0
 62137  1  0  0  0
 63 65  1  0  0  0
 63138  1  0  0  0
 63139  1  0  0  0
 63140  1  0  0  0
 64141  1  0  0  0
 65142  1  0  0  0
 68 80  1  0  0  0
 71 72  2  0  0  0
 71 74  1  0  0  0
 71143  1  0  0  0
 72 75  1  0  0  0
 72144  1  0  0  0
 73 74  2  0  0  0
 73 76  1  0  0  0
 73145  1  0  0  0
 74 80  1  0  0  0
 75 76  2  0  0  0
 75 79  1  0  0  0
 76 82  1  0  0  0
 77146  1  0  0  0
 77147  1  0  0  0
 77148  1  0  0  0
 77 82  1  0  0  0
 78 82  1  0  0  0
 78149  1  0  0  0
 78150  1  0  0  0
 78151  1  0  0  0
 79 81  1  0  0  0
 79152  1  0  0  0
 79153  1  0  0  0
 80154  1  0  0  0
 80155  1  0  0  0
 81 83  1  0  0  0
 81156  1  0  0  0
 81157  1  0  0  0
 82158  1  0  0  0
 83159  1  0  0  0
M  ISO  4   1 100  68 101  80 101  83 100
M  END
> <chiral flag>
0

> <version>
0

> <s_m_source_file>
/data/baiqing/PycharmProjects/Reinvent-master-3.2/result/LINK_invent/BTK/process_docking_weight1_custom_sum_contain_oxygen_bond_distance_aromatic_linkinvent_7_9_3/rearranged_h_0128.sdf

> <i_m_source_file_index>
3

> <r_mmod_Potential_Energy-OPLS-2005>
406.117279052734

> <r_mmod_Stretch_Energy-OPLS-2005>
197.868179321289

> <r_mmod_Bend_Energy-OPLS-2005>
266.59814453125

> <r_mmod_Torsional_Energy-OPLS-2005>
242.506240844727

> <r_mmod_Improper_Torsional_Energy-OPLS-2005>
7.07506322860718

> <r_mmod_Van_der_Waal_Energy-OPLS-2005>
135.205474853516

> <r_mmod_Electrostatic_Energy-OPLS-2005>
-381.839965820312

> <r_mmod_Solvation_Energy-OPLS-2005>
-205.82649230957

> <b_mmod_Minimization_Converged-OPLS-2005>
0

> <r_mmod_RMS_Derivative-OPLS-2005>
2.52000069618225

$$$$
3
                    3D
 Structure written by MMmdl.
176185  0  0  1  0            999 V2000
  -30.6582  -14.7121   20.4374 C   0  0  0  0  0  0
  -30.4190  -12.4307   19.4733 C   0  0  0  0  0  0
  -29.5038  -12.4965   18.2327 C   0  0  0  0  0  0
  -28.0299  -12.3308   18.6476 C   0  0  0  0  0  0
  -27.6393  -13.2365   19.8470 C   0  0  2  0  0  0
  -28.6864  -13.1867   20.9814 C   0  0  0  0  0  0
  -25.2501  -13.8206   20.5710 C   0  0  0  0  0  0
  -24.1798  -13.0452   20.9223 C   0  0  0  0  0  0
  -24.6390  -11.6930   20.8755 C   0  0  0  0  0  0
  -23.9070  -10.4305   21.0409 C   0  0  0  0  0  0
  -24.3623   -9.4215   21.9181 C   0  0  0  0  0  0
  -23.6302   -8.2246   22.0750 C   0  0  0  0  0  0
  -22.4280   -8.0281   21.3544 C   0  0  0  0  0  0
  -21.9917   -9.0254   20.4643 C   0  0  0  0  0  0
  -22.7243  -10.2138   20.3056 C   0  0  0  0  0  0
  -21.6852   -6.0737   22.5276 C   0  0  0  0  0  0
  -21.4014   -6.5642   23.8210 C   0  0  0  0  0  0
  -21.3661   -5.6793   24.9173 C   0  0  0  0  0  0
  -21.6049   -4.3056   24.7223 C   0  0  0  0  0  0
  -21.8817   -3.8149   23.4342 C   0  0  0  0  0  0
  -21.9195   -4.6967   22.3399 C   0  0  0  0  0  0
  -22.7816  -13.5223   21.1888 C   0  0  0  0  0  0
  -22.1661   -4.2157   21.0975 F   0  0  0  0  0  0
  -21.5637   -3.4538   25.7733 F   0  0  0  0  0  0
  -29.9900  -13.5108   20.3919 N   0  0  0  0  0  0
  -26.2930  -12.9428   20.3285 N   0  0  0  0  0  0
  -25.9326  -11.6566   20.5763 N   0  0  0  0  0  0
  -22.0462  -12.8204   22.0435 N   0  0  0  0  0  0
  -25.4197  -15.1930   20.4126 N   0  0  0  0  0  0
  -31.8619  -14.7257   20.1763 O   0  0  0  0  0  0
  -21.6643   -6.8878   21.4238 O   0  0  0  0  0  0
  -22.3499  -14.5533   20.6734 O   0  0  0  0  0  0
  -24.6302  -31.8573   23.2015 C   0  0  0  0  0  0
  -25.9146  -32.4751   23.8348 C   0  0  1  0  0  0
  -27.2081  -27.2714   20.1240 C   0  0  0  0  0  0
  -25.5947  -33.8556   24.2271 N   0  0  0  0  0  0
  -23.4252  -30.4846   21.5441 C   0  0  2  0  0  0
  -24.8695  -28.9386   20.1067 C   0  0  0  0  0  0
  -22.7496  -29.4627   22.4909 C   0  0  0  0  0  0
  -18.0298  -28.1395   22.8492 C   0  0  0  0  0  0
  -24.1494  -36.7283   23.2644 C   0  0  0  0  0  0
  -25.9721  -30.7736   21.3813 C   0  0  0  0  0  0
  -26.0410  -29.3980   20.7215 C   0  0  0  0  0  0
  -27.2118  -28.5750   20.7248 C   0  0  0  0  0  0
  -26.0183  -26.8915   19.4588 C   0  0  0  0  0  0
  -24.8633  -27.6930   19.4664 C   0  0  0  0  0  0
  -23.6408  -29.8235   20.1583 C   0  0  0  0  0  0
  -25.4113  -36.3065   24.0333 C   0  0  1  0  0  0
  -20.5900  -28.3711   23.1281 C   0  0  2  0  0  0
  -20.6781  -26.9428   22.5424 C   0  0  0  0  0  0
  -19.5751  -26.6395   21.5233 C   0  0  0  0  0  0
  -18.1929  -26.7943   22.1634 C   0  0  0  0  0  0
  -19.1552  -28.8869   23.2882 C   0  0  0  0  0  0
  -18.9470  -30.1469   23.8897 C   0  0  0  0  0  0
  -17.6468  -30.6594   24.0569 C   0  0  0  0  0  0
  -25.9058  -34.9432   23.5100 C   0  0  0  0  0  0
  -16.5358  -29.9088   23.6338 C   0  0  0  0  0  0
  -16.7285  -28.6515   23.0350 C   0  0  0  0  0  0
  -26.4513  -31.6561   25.0732 C   0  0  0  0  0  0
  -25.3726  -31.3718   26.1451 C   0  0  0  0  0  0
  -27.0366  -30.2971   24.6231 C   0  0  0  0  0  0
  -27.6083  -32.4290   25.7482 C   0  0  0  0  0  0
  -27.5576  -37.1791   24.8465 C   0  0  0  0  0  0
  -21.4206  -29.3055   22.3653 N   0  0  0  0  0  0
  -26.4286  -37.3765   23.9411 N   0  0  0  0  0  0
  -24.6950  -31.0560   22.0981 N   0  0  0  0  0  0
  -23.4204  -28.8158   23.2995 O   0  0  0  0  0  0
  -28.2933  -26.3685   20.2081 O   0  0  0  0  0  0
  -26.5624  -34.8910   22.4669 O   0  0  0  0  0  0
  -23.5465  -32.1382   23.7341 O   0  0  0  0  0  0
  -31.9276  -18.8719   19.2418 C   0  0  0  0  0  0
  -31.4854  -17.5661   19.5069 C   0  0  0  0  0  0
  -29.5723  -18.4857   20.6541 C   0  0  0  0  0  0
  -31.2311  -20.0194   19.6838 C   0  0  0  0  0  0
  -29.9922  -19.8582   20.3798 C   0  0  0  0  0  0
  -30.3213  -17.3018   20.2624 C   0  0  0  0  0  0
  -33.2077  -22.9887   18.0117 C   0  0  0  0  0  0
  -32.6463  -21.5608   18.1314 C   0  0  0  0  0  0
  -34.0979  -23.3399   19.2198 C   0  0  0  0  0  0
  -32.8365  -21.7571   20.6450 C   0  0  0  0  0  0
  -31.8942  -21.3939   19.4735 C   0  0  2  0  0  0
  -29.2464  -21.1305   20.9928 C   0  0  0  0  0  0
  -34.0556  -23.6620   21.6894 C   0  0  0  0  0  0
  -28.9701  -23.7473   20.5855 C   0  0  0  0  0  0
  -33.5958  -25.1092   21.9157 C   0  0  0  0  0  0
  -28.0543  -24.9076   19.9418 C   0  0  0  0  0  0
  -29.9367  -15.8947   20.5759 N   0  0  0  0  0  0
  -33.3622  -23.1381   20.4937 N   0  3  1  0  0  0
  -28.7388  -22.2906   20.1254 N   0  3  0  0  0  0
  -32.1861  -25.1778   21.7222 O   0  0  0  0  0  0
  -31.4641  -12.5223   19.1726 H   0  0  0  0  0  0
  -30.3347  -11.4604   19.9640 H   0  0  0  0  0  0
  -29.7803  -11.7214   17.5169 H   0  0  0  0  0  0
  -29.6389  -13.4501   17.7202 H   0  0  0  0  0  0
  -27.8826  -11.2836   18.9136 H   0  0  0  0  0  0
  -27.3724  -12.5229   17.7987 H   0  0  0  0  0  0
  -27.6297  -14.2554   19.4591 H   0  0  0  0  0  0
  -28.7123  -12.2003   21.4461 H   0  0  0  0  0  0
  -28.4314  -13.8931   21.7727 H   0  0  0  0  0  0
  -25.2765   -9.5695   22.4761 H   0  0  0  0  0  0
  -24.0019   -7.4633   22.7460 H   0  0  0  0  0  0
  -21.0853   -8.8762   19.8941 H   0  0  0  0  0  0
  -22.3689  -10.9678   19.6169 H   0  0  0  0  0  0
  -21.1991   -7.6148   23.9717 H   0  0  0  0  0  0
  -21.1493   -6.0522   25.9079 H   0  0  0  0  0  0
  -22.0595   -2.7612   23.2835 H   0  0  0  0  0  0
  -22.4086  -11.9867   22.4815 H   0  0  0  0  0  0
  -21.1072  -13.1212   22.2636 H   0  0  0  0  0  0
  -24.6504  -15.8463   20.5142 H   0  0  0  0  0  0
  -26.2653  -15.6294   20.0692 H   0  0  0  0  0  0
  -26.7212  -32.5397   23.1087 H   0  0  0  0  0  0
  -25.0045  -33.9708   25.0382 H   0  0  0  0  0  0
  -22.7213  -31.3067   21.4013 H   0  0  0  0  0  0
  -23.3755  -35.9614   23.3284 H   0  0  0  0  0  0
  -24.3591  -36.8933   22.2066 H   0  0  0  0  0  0
  -23.7251  -37.6485   23.6673 H   0  0  0  0  0  0
  -26.1117  -31.5343   20.6126 H   0  0  0  0  0  0
  -26.8505  -30.8201   22.0140 H   0  0  0  0  0  0
  -28.1027  -28.9156   21.2329 H   0  0  0  0  0  0
  -25.9382  -25.9523   18.9338 H   0  0  0  0  0  0
  -23.9683  -27.3415   18.9724 H   0  0  0  0  0  0
  -23.7588  -30.6012   19.4026 H   0  0  0  0  0  0
  -22.7598  -29.2551   19.8555 H   0  0  0  0  0  0
  -25.1286  -36.1915   25.0825 H   0  0  0  0  0  0
  -20.9993  -28.3303   24.1402 H   0  0  0  0  0  0
  -20.5705  -26.2322   23.3633 H   0  0  0  0  0  0
  -21.6642  -26.7464   22.1201 H   0  0  0  0  0  0
  -19.6907  -25.6312   21.1250 H   0  0  0  0  0  0
  -19.6680  -27.3223   20.6773 H   0  0  0  0  0  0
  -17.4204  -26.6722   21.4029 H   0  0  0  0  0  0
  -18.0302  -26.0086   22.9025 H   0  0  0  0  0  0
  -19.7946  -30.7293   24.2259 H   0  0  0  0  0  0
  -17.5020  -31.6271   24.5175 H   0  0  0  0  0  0
  -15.5357  -30.2978   23.7672 H   0  0  0  0  0  0
  -15.8689  -28.0831   22.7046 H   0  0  0  0  0  0
  -24.5930  -30.7032   25.7780 H   0  0  0  0  0  0
  -24.8873  -32.2888   26.4802 H   0  0  0  0  0  0
  -25.8035  -30.8950   27.0267 H   0  0  0  0  0  0
  -26.2966  -29.6704   24.1245 H   0  0  0  0  0  0
  -27.4035  -29.7249   25.4763 H   0  0  0  0  0  0
  -27.8838  -30.4233   23.9486 H   0  0  0  0  0  0
  -27.2721  -33.3618   26.2014 H   0  0  0  0  0  0
  -28.3900  -32.6805   25.0298 H   0  0  0  0  0  0
  -28.0729  -31.8429   26.5427 H   0  0  0  0  0  0
  -28.2583  -38.0098   24.7507 H   0  0  0  0  0  0
  -28.1078  -36.2627   24.6271 H   0  0  0  0  0  0
  -27.2295  -37.1418   25.8871 H   0  0  0  0  0  0
  -20.9387  -29.8757   21.6847 H   0  0  0  0  0  0
  -26.0161  -38.2840   24.1404 H   0  0  0  0  0  0
  -32.8623  -18.9615   18.7103 H   0  0  0  0  0  0
  -32.1038  -16.7753   19.1147 H   0  0  0  0  0  0
  -28.6683  -18.3394   21.2294 H   0  0  0  0  0  0
  -32.3884  -23.7058   17.9378 H   0  0  0  0  0  0
  -33.7820  -23.0895   17.0888 H   0  0  0  0  0  0
  -33.4825  -20.8665   18.0512 H   0  0  0  0  0  0
  -31.9827  -21.3502   17.2910 H   0  0  0  0  0  0
  -34.4320  -24.3754   19.1413 H   0  0  0  0  0  0
  -34.9957  -22.7206   19.2164 H   0  0  0  0  0  0
  -33.6658  -21.0512   20.7064 H   0  0  0  0  0  0
  -32.2912  -21.6801   21.5861 H   0  0  0  0  0  0
  -31.1150  -22.1435   19.4349 H   0  0  0  0  0  0
  -29.9187  -21.5444   21.7440 H   0  0  0  0  0  0
  -28.3911  -20.7724   21.5665 H   0  0  0  0  0  0
  -33.7818  -23.0798   22.5701 H   0  0  0  0  0  0
  -35.1407  -23.5915   21.5977 H   0  0  0  0  0  0
  -28.8384  -23.7871   21.6677 H   0  0  0  0  0  0
  -30.0155  -23.9953   20.4090 H   0  0  0  0  0  0
  -34.0921  -25.7880   21.2210 H   0  0  0  0  0  0
  -33.8571  -25.4391   22.9235 H   0  0  0  0  0  0
  -27.0446  -24.6573   20.2650 H   0  0  0  0  0  0
  -28.0651  -24.7861   18.8581 H   0  0  0  0  0  0
  -28.9789  -15.7622   20.8613 H   0  0  0  0  0  0
  -32.5636  -23.7647   20.4923 H   0  0  0  0  0  0
  -27.7447  -22.1389   20.0470 H   0  0  0  0  0  0
  -29.1022  -22.1725   19.1938 H   0  0  0  0  0  0
  -31.9026  -26.0570   21.9621 H   0  0  0  0  0  0
  1 25  1  0  0  0
  1 30  2  0  0  0
  1 87  1  0  0  0
  2  3  1  0  0  0
  2 25  1  0  0  0
  2 91  1  0  0  0
  2 92  1  0  0  0
  3  4  1  0  0  0
  3 93  1  0  0  0
  3 94  1  0  0  0
  4  5  1  0  0  0
  4 95  1  0  0  0
  4 96  1  0  0  0
  5  6  1  0  0  0
  5 26  1  0  0  0
  5 97  1  0  0  0
  6 25  1  0  0  0
  6 98  1  0  0  0
  6 99  1  0  0  0
  7  8  2  0  0  0
  7 26  1  0  0  0
  7 29  1  0  0  0
  8  9  1  0  0  0
  8 22  1  0  0  0
  9 10  1  0  0  0
  9 27  2  0  0  0
 10 11  2  0  0  0
 10 15  1  0  0  0
 11 12  1  0  0  0
 11100  1  0  0  0
 12 13  2  0  0  0
 12101  1  0  0  0
 13 14  1  0  0  0
 13 31  1  0  0  0
 14 15  2  0  0  0
 14102  1  0  0  0
 15103  1  0  0  0
 16 17  2  0  0  0
 16 21  1  0  0  0
 16 31  1  0  0  0
 17 18  1  0  0  0
 17104  1  0  0  0
 18 19  2  0  0  0
 18105  1  0  0  0
 19 20  1  0  0  0
 19 24  1  0  0  0
 20 21  2  0  0  0
 20106  1  0  0  0
 21 23  1  0  0  0
 22 28  1  0  0  0
 22 32  2  0  0  0
 26 27  1  0  0  0
 28107  1  0  0  0
 28108  1  0  0  0
 29109  1  0  0  0
 29110  1  0  0  0
 33 34  1  0  0  0
 33 66  1  0  0  0
 33 70  2  0  0  0
 34 36  1  0  0  0
 34 59  1  0  0  0
 34111  1  0  0  0
 35 44  2  0  0  0
 35 45  1  0  0  0
 35 68  1  0  0  0
 36 56  1  0  0  0
 36112  1  0  0  0
 37 39  1  0  0  0
 37 47  1  0  0  0
 37 66  1  0  0  0
 37113  1  0  0  0
 38 43  2  0  0  0
 38 46  1  0  0  0
 38 47  1  0  0  0
 39 64  1  0  0  0
 39 67  2  0  0  0
 40 52  1  0  0  0
 40 53  2  0  0  0
 40 58  1  0  0  0
 41114  1  0  0  0
 41115  1  0  0  0
 41116  1  0  0  0
 41 48  1  0  0  0
 42 43  1  0  0  0
 42 66  1  0  0  0
 42117  1  0  0  0
 42118  1  0  0  0
 43 44  1  0  0  0
 44119  1  0  0  0
 45 46  2  0  0  0
 45120  1  0  0  0
 46121  1  0  0  0
 47122  1  0  0  0
 47123  1  0  0  0
 48 56  1  0  0  0
 48 65  1  0  0  0
 48124  1  0  0  0
 49 50  1  0  0  0
 49 53  1  0  0  0
 49 64  1  0  0  0
 49125  1  0  0  0
 50 51  1  0  0  0
 50126  1  0  0  0
 50127  1  0  0  0
 51 52  1  0  0  0
 51128  1  0  0  0
 51129  1  0  0  0
 52130  1  0  0  0
 52131  1  0  0  0
 53 54  1  0  0  0
 54 55  2  0  0  0
 54132  1  0  0  0
 55 57  1  0  0  0
 55133  1  0  0  0
 56 69  2  0  0  0
 57 58  2  0  0  0
 57134  1  0  0  0
 58135  1  0  0  0
 59 60  1  0  0  0
 59 61  1  0  0  0
 59 62  1  0  0  0
 60136  1  0  0  0
 60137  1  0  0  0
 60138  1  0  0  0
 61139  1  0  0  0
 61140  1  0  0  0
 61141  1  0  0  0
 62142  1  0  0  0
 62143  1  0  0  0
 62144  1  0  0  0
 63 65  1  0  0  0
 63145  1  0  0  0
 63146  1  0  0  0
 63147  1  0  0  0
 64148  1  0  0  0
 65149  1  0  0  0
 68 86  1  0  0  0
 71 72  2  0  0  0
 71 74  1  0  0  0
 71150  1  0  0  0
 72 76  1  0  0  0
 72151  1  0  0  0
 73 75  1  0  0  0
 73 76  2  0  0  0
 73152  1  0  0  0
 74 75  2  0  0  0
 74 81  1  0  0  0
 75 82  1  0  0  0
 76 87  1  0  0  0
 77 78  1  0  0  0
 77 79  1  0  0  0
 77153  1  0  0  0
 77154  1  0  0  0
 78 81  1  0  0  0
 78155  1  0  0  0
 78156  1  0  0  0
 79 88  1  0  0  0
 79157  1  0  0  0
 79158  1  0  0  0
 80 81  1  0  0  0
 80 88  1  0  0  0
 80159  1  0  0  0
 80160  1  0  0  0
 81161  1  0  0  0
 82 89  1  0  0  0
 82162  1  0  0  0
 82163  1  0  0  0
 83 85  1  0  0  0
 83164  1  0  0  0
 83165  1  0  0  0
 83 88  1  0  0  0
 84 86  1  0  0  0
 84 89  1  0  0  0
 84166  1  0  0  0
 84167  1  0  0  0
 85 90  1  0  0  0
 85168  1  0  0  0
 85169  1  0  0  0
 86170  1  0  0  0
 86171  1  0  0  0
 87172  1  0  0  0
 88173  1  0  0  0
 89174  1  0  0  0
 89175  1  0  0  0
 90176  1  0  0  0
M  CHG  2  88   1  89   1
M  ISO  4   1 100  68 101  86 101  87 100
M  END
> <chiral flag>
0

> <version>
0

> <s_m_source_file>
/data/baiqing/PycharmProjects/Reinvent-master-3.2/result/LINK_invent/BTK/process_docking_weight1_custom_sum_contain_oxygen_bond_distance_aromatic_linkinvent_7_9_3/rearranged_h_0128.sdf

> <i_m_source_file_index>
4

> <r_mmod_Potential_Energy-OPLS-2005>
-96.9100646972656

> <r_mmod_Stretch_Energy-OPLS-2005>
123.773040771484

> <r_mmod_Bend_Energy-OPLS-2005>
171.840133666992

> <r_mmod_Torsional_Energy-OPLS-2005>
273.006713867188

> <r_mmod_Improper_Torsional_Energy-OPLS-2005>
5.45511960983276

> <r_mmod_Van_der_Waal_Energy-OPLS-2005>
161.515365600586

> <r_mmod_Electrostatic_Energy-OPLS-2005>
11.7368993759155

> <r_mmod_Solvation_Energy-OPLS-2005>
-925.371215820312

> <b_mmod_Minimization_Converged-OPLS-2005>
0

> <r_mmod_RMS_Derivative-OPLS-2005>
1.4724897146225

$$$$
4
                    3D
 Structure written by MMmdl.
149157  0  0  1  0            999 V2000
  -30.4114  -15.3328   20.3658 C   0  0  0  0  0  0
  -30.4374  -12.8531   19.5556 C   0  0  0  0  0  0
  -29.5442  -12.5968   18.3125 C   0  0  0  0  0  0
  -28.0973  -12.3026   18.7384 C   0  0  0  0  0  0
  -27.6117  -13.2851   19.8319 C   0  0  2  0  0  0
  -28.6371  -13.4849   20.9715 C   0  0  0  0  0  0
  -25.2374  -13.8267   20.5751 C   0  0  0  0  0  0
  -24.1735  -13.0443   20.9263 C   0  0  0  0  0  0
  -24.6411  -11.6946   20.8792 C   0  0  0  0  0  0
  -23.9112  -10.4296   21.0419 C   0  0  0  0  0  0
  -24.3651   -9.4207   21.9189 C   0  0  0  0  0  0
  -23.6312   -8.2251   22.0762 C   0  0  0  0  0  0
  -22.4291   -8.0300   21.3555 C   0  0  0  0  0  0
  -21.9948   -9.0280   20.4655 C   0  0  0  0  0  0
  -22.7295  -10.2143   20.3062 C   0  0  0  0  0  0
  -21.6853   -6.0755   22.5278 C   0  0  0  0  0  0
  -21.4017   -6.5650   23.8214 C   0  0  0  0  0  0
  -21.3657   -5.6796   24.9169 C   0  0  0  0  0  0
  -21.6038   -4.3059   24.7215 C   0  0  0  0  0  0
  -21.8821   -3.8159   23.4337 C   0  0  0  0  0  0
  -21.9189   -4.6981   22.3396 C   0  0  0  0  0  0
  -22.7746  -13.5189   21.1903 C   0  0  0  0  0  0
  -22.1656   -4.2168   21.0972 F   0  0  0  0  0  0
  -21.5627   -3.4540   25.7725 F   0  0  0  0  0  0
  -29.8677  -14.0080   20.3543 N   0  0  0  0  0  0
  -26.2813  -12.9561   20.3257 N   0  0  0  0  0  0
  -25.9349  -11.6653   20.5761 N   0  0  0  0  0  0
  -22.0404  -12.8174   22.0460 N   0  0  0  0  0  0
  -25.4003  -15.2005   20.4159 N   0  0  0  0  0  0
  -31.6195  -15.3322   20.0823 O   0  0  0  0  0  0
  -21.6652   -6.8904   21.4243 O   0  0  0  0  0  0
  -22.3423  -14.5489   20.6742 O   0  0  0  0  0  0
  -24.6666  -31.8182   23.1636 C   0  0  0  0  0  0
  -25.9317  -32.4573   23.8130 C   0  0  1  0  0  0
  -27.2168  -26.8713   20.1995 C   0  0  0  0  0  0
  -25.5982  -33.8389   24.2045 N   0  0  0  0  0  0
  -23.4839  -30.4281   21.5124 C   0  0  2  0  0  0
  -24.9411  -28.8059   20.1058 C   0  0  0  0  0  0
  -22.7687  -29.4408   22.4730 C   0  0  0  0  0  0
  -18.0340  -28.1431   22.8459 C   0  0  0  0  0  0
  -24.1485  -36.7207   23.2650 C   0  0  0  0  0  0
  -26.0558  -30.6079   21.4005 C   0  0  0  0  0  0
  -26.1219  -29.1906   20.7500 C   0  0  0  0  0  0
  -27.2489  -28.2430   20.7776 C   0  0  0  0  0  0
  -26.0141  -26.6612   19.4844 C   0  0  0  0  0  0
  -24.9161  -27.5643   19.4498 C   0  0  0  0  0  0
  -23.7283  -29.7395   20.1391 C   0  0  0  0  0  0
  -25.4120  -36.2964   24.0303 C   0  0  1  0  0  0
  -20.5965  -28.3776   23.1182 C   0  0  2  0  0  0
  -20.6817  -26.9452   22.5413 C   0  0  0  0  0  0
  -19.5793  -26.6391   21.5222 C   0  0  0  0  0  0
  -18.1968  -26.7958   22.1616 C   0  0  0  0  0  0
  -19.1602  -28.8923   23.2811 C   0  0  0  0  0  0
  -18.9510  -30.1507   23.8850 C   0  0  0  0  0  0
  -17.6505  -30.6612   24.0555 C   0  0  0  0  0  0
  -25.9097  -34.9349   23.4995 C   0  0  0  0  0  0
  -16.5397  -29.9100   23.6346 C   0  0  0  0  0  0
  -16.7322  -28.6528   23.0356 C   0  0  0  0  0  0
  -26.4557  -31.6523   25.0669 C   0  0  0  0  0  0
  -25.3656  -31.3790   26.1304 C   0  0  0  0  0  0
  -27.0453  -30.2886   24.6414 C   0  0  0  0  0  0
  -27.6052  -32.4337   25.7474 C   0  0  0  0  0  0
  -27.5556  -37.1753   24.8469 C   0  0  0  0  0  0
  -21.4352  -29.3046   22.3497 N   0  0  0  0  0  0
  -26.4264  -37.3705   23.9416 N   0  0  0  0  0  0
  -24.7574  -30.9794   22.0794 N   0  0  0  0  0  0
  -23.4222  -28.7975   23.2987 O   0  0  0  0  0  0
  -28.1903  -25.7276   20.3427 O   0  0  0  0  0  0
  -26.5723  -34.8888   22.4602 O   0  0  0  0  0  0
  -23.5724  -32.1184   23.6695 O   0  0  0  0  0  0
  -28.7069  -22.3848   21.9432 C   0  0  0  0  0  0
  -28.9151  -21.1705   19.9136 C   0  0  0  0  0  0
  -28.6149  -22.5576   20.5417 C   0  0  0  0  0  0
  -29.0138  -21.1343   22.5649 C   0  0  0  0  0  0
  -29.2442  -19.8192   20.5994 C   0  0  0  0  0  0
  -29.0660  -21.0683   24.0790 C   0  0  0  0  0  0
  -28.0355  -24.1163   19.9106 C   0  0  0  0  0  0
  -29.7755  -18.2318   20.0238 C   0  0  0  0  0  0
  -29.2623  -19.9382   21.9467 N   0  0  0  0  0  0
  -29.6465  -16.6136   20.4968 N   0  0  0  0  0  0
  -31.4569  -13.0588   19.2271 H   0  0  0  0  0  0
  -30.5114  -11.9540   20.1708 H   0  0  0  0  0  0
  -29.9388  -11.7689   17.7218 H   0  0  0  0  0  0
  -29.5646  -13.4742   17.6654 H   0  0  0  0  0  0
  -28.0702  -11.2835   19.1274 H   0  0  0  0  0  0
  -27.4283  -12.3181   17.8775 H   0  0  0  0  0  0
  -27.5227  -14.2452   19.3218 H   0  0  0  0  0  0
  -28.8129  -12.5595   21.5226 H   0  0  0  0  0  0
  -28.2606  -14.2104   21.6953 H   0  0  0  0  0  0
  -25.2782   -9.5673   22.4780 H   0  0  0  0  0  0
  -24.0002   -7.4643   22.7489 H   0  0  0  0  0  0
  -21.0879   -8.8830   19.8959 H   0  0  0  0  0  0
  -22.3769  -10.9699   19.6187 H   0  0  0  0  0  0
  -21.2019   -7.6158   23.9727 H   0  0  0  0  0  0
  -21.1471   -6.0523   25.9076 H   0  0  0  0  0  0
  -22.0600   -2.7622   23.2829 H   0  0  0  0  0  0
  -22.4008  -11.9821   22.4829 H   0  0  0  0  0  0
  -21.1034  -13.1216   22.2693 H   0  0  0  0  0  0
  -24.6272  -15.8508   20.5181 H   0  0  0  0  0  0
  -26.2391  -15.6388   20.0585 H   0  0  0  0  0  0
  -26.7368  -32.5098   23.0832 H   0  0  0  0  0  0
  -25.0094  -33.9460   25.0174 H   0  0  0  0  0  0
  -22.8010  -31.2619   21.3339 H   0  0  0  0  0  0
  -23.3762  -35.9528   23.3296 H   0  0  0  0  0  0
  -24.3566  -36.8870   22.2069 H   0  0  0  0  0  0
  -23.7232  -37.6386   23.6719 H   0  0  0  0  0  0
  -26.2342  -31.3392   20.6110 H   0  0  0  0  0  0
  -26.9177  -30.6754   22.0525 H   0  0  0  0  0  0
  -28.1327  -28.5276   21.3288 H   0  0  0  0  0  0
  -25.8758  -25.7168   18.9810 H   0  0  0  0  0  0
  -24.0195  -27.2664   18.9239 H   0  0  0  0  0  0
  -23.8909  -30.5070   19.3810 H   0  0  0  0  0  0
  -22.8363  -29.2008   19.8162 H   0  0  0  0  0  0
  -25.1319  -36.1752   25.0799 H   0  0  0  0  0  0
  -21.0071  -28.3391   24.1297 H   0  0  0  0  0  0
  -20.5715  -26.2385   23.3648 H   0  0  0  0  0  0
  -21.6670  -26.7437   22.1197 H   0  0  0  0  0  0
  -19.6958  -25.6294   21.1289 H   0  0  0  0  0  0
  -19.6742  -27.3169   20.6730 H   0  0  0  0  0  0
  -17.4239  -26.6723   21.4011 H   0  0  0  0  0  0
  -18.0330  -26.0133   22.9037 H   0  0  0  0  0  0
  -19.7999  -30.7332   24.2193 H   0  0  0  0  0  0
  -17.5072  -31.6281   24.5175 H   0  0  0  0  0  0
  -15.5399  -30.2993   23.7706 H   0  0  0  0  0  0
  -15.8721  -28.0837   22.7097 H   0  0  0  0  0  0
  -24.5897  -30.7074   25.7606 H   0  0  0  0  0  0
  -24.8776  -32.2993   26.4529 H   0  0  0  0  0  0
  -25.7872  -30.9098   27.0197 H   0  0  0  0  0  0
  -26.3118  -29.6561   24.1400 H   0  0  0  0  0  0
  -27.3981  -29.7260   25.5068 H   0  0  0  0  0  0
  -27.9061  -30.4087   23.9832 H   0  0  0  0  0  0
  -27.2636  -33.3716   26.1863 H   0  0  0  0  0  0
  -28.3952  -32.6762   25.0352 H   0  0  0  0  0  0
  -28.0604  -31.8568   26.5530 H   0  0  0  0  0  0
  -28.2550  -38.0068   24.7515 H   0  0  0  0  0  0
  -28.1077  -36.2598   24.6299 H   0  0  0  0  0  0
  -27.2284  -37.1395   25.8875 H   0  0  0  0  0  0
  -20.9615  -29.8752   21.6632 H   0  0  0  0  0  0
  -26.0115  -38.2762   24.1441 H   0  0  0  0  0  0
  -28.5023  -23.2404   22.5727 H   0  0  0  0  0  0
  -28.8855  -21.1391   18.8329 H   0  0  0  0  0  0
  -29.3922  -22.0163   24.5052 H   0  0  0  0  0  0
  -29.7607  -20.2994   24.4208 H   0  0  0  0  0  0
  -28.0804  -20.8355   24.4829 H   0  0  0  0  0  0
  -26.9581  -23.9571   19.8864 H   0  0  0  0  0  0
  -28.3286  -24.0975   18.8613 H   0  0  0  0  0  0
  -30.8502  -18.3652   19.9062 H   0  0  0  0  0  0
  -29.4065  -18.2111   18.9992 H   0  0  0  0  0  0
  -28.7088  -16.4262   20.8167 H   0  0  0  0  0  0
  1 25  1  0  0  0
  1 30  2  0  0  0
  1 80  1  0  0  0
  2  3  1  0  0  0
  2 25  1  0  0  0
  2 81  1  0  0  0
  2 82  1  0  0  0
  3  4  1  0  0  0
  3 83  1  0  0  0
  3 84  1  0  0  0
  4  5  1  0  0  0
  4 85  1  0  0  0
  4 86  1  0  0  0
  5  6  1  0  0  0
  5 26  1  0  0  0
  5 87  1  0  0  0
  6 25  1  0  0  0
  6 88  1  0  0  0
  6 89  1  0  0  0
  7  8  2  0  0  0
  7 26  1  0  0  0
  7 29  1  0  0  0
  8  9  1  0  0  0
  8 22  1  0  0  0
  9 10  1  0  0  0
  9 27  2  0  0  0
 10 11  2  0  0  0
 10 15  1  0  0  0
 11 12  1  0  0  0
 11 90  1  0  0  0
 12 13  2  0  0  0
 12 91  1  0  0  0
 13 14  1  0  0  0
 13 31  1  0  0  0
 14 15  2  0  0  0
 14 92  1  0  0  0
 15 93  1  0  0  0
 16 17  2  0  0  0
 16 21  1  0  0  0
 16 31  1  0  0  0
 17 18  1  0  0  0
 17 94  1  0  0  0
 18 19  2  0  0  0
 18 95  1  0  0  0
 19 20  1  0  0  0
 19 24  1  0  0  0
 20 21  2  0  0  0
 20 96  1  0  0  0
 21 23  1  0  0  0
 22 28  1  0  0  0
 22 32  2  0  0  0
 26 27  1  0  0  0
 28 97  1  0  0  0
 28 98  1  0  0  0
 29 99  1  0  0  0
 29100  1  0  0  0
 33 34  1  0  0  0
 33 66  1  0  0  0
 33 70  2  0  0  0
 34 36  1  0  0  0
 34 59  1  0  0  0
 34101  1  0  0  0
 35 44  2  0  0  0
 35 45  1  0  0  0
 35 68  1  0  0  0
 36 56  1  0  0  0
 36102  1  0  0  0
 37 39  1  0  0  0
 37 47  1  0  0  0
 37 66  1  0  0  0
 37103  1  0  0  0
 38 43  2  0  0  0
 38 46  1  0  0  0
 38 47  1  0  0  0
 39 64  1  0  0  0
 39 67  2  0  0  0
 40 52  1  0  0  0
 40 53  2  0  0  0
 40 58  1  0  0  0
 41104  1  0  0  0
 41105  1  0  0  0
 41106  1  0  0  0
 41 48  1  0  0  0
 42 43  1  0  0  0
 42 66  1  0  0  0
 42107  1  0  0  0
 42108  1  0  0  0
 43 44  1  0  0  0
 44109  1  0  0  0
 45 46  2  0  0  0
 45110  1  0  0  0
 46111  1  0  0  0
 47112  1  0  0  0
 47113  1  0  0  0
 48 56  1  0  0  0
 48 65  1  0  0  0
 48114  1  0  0  0
 49 50  1  0  0  0
 49 53  1  0  0  0
 49 64  1  0  0  0
 49115  1  0  0  0
 50 51  1  0  0  0
 50116  1  0  0  0
 50117  1  0  0  0
 51 52  1  0  0  0
 51118  1  0  0  0
 51119  1  0  0  0
 52120  1  0  0  0
 52121  1  0  0  0
 53 54  1  0  0  0
 54 55  2  0  0  0
 54122  1  0  0  0
 55 57  1  0  0  0
 55123  1  0  0  0
 56 69  2  0  0  0
 57 58  2  0  0  0
 57124  1  0  0  0
 58125  1  0  0  0
 59 60  1  0  0  0
 59 61  1  0  0  0
 59 62  1  0  0  0
 60126  1  0  0  0
 60127  1  0  0  0
 60128  1  0  0  0
 61129  1  0  0  0
 61130  1  0  0  0
 61131  1  0  0  0
 62132  1  0  0  0
 62133  1  0  0  0
 62134  1  0  0  0
 63 65  1  0  0  0
 63135  1  0  0  0
 63136  1  0  0  0
 63137  1  0  0  0
 64138  1  0  0  0
 65139  1  0  0  0
 68 77  1  0  0  0
 71 73  2  0  0  0
 71 74  1  0  0  0
 71140  1  0  0  0
 72 73  1  0  0  0
 72 75  2  0  0  0
 72141  1  0  0  0
 73 77  1  0  0  0
 74 76  1  0  0  0
 74 79  2  0  0  0
 75 78  1  0  0  0
 75 79  1  0  0  0
 76142  1  0  0  0
 76143  1  0  0  0
 76144  1  0  0  0
 77145  1  0  0  0
 77146  1  0  0  0
 78 80  1  0  0  0
 78147  1  0  0  0
 78148  1  0  0  0
 80149  1  0  0  0
M  ISO  4   1 100  68 101  77 101  80 100
M  END
> <chiral flag>
0

> <version>
0

> <s_m_source_file>
/data/baiqing/PycharmProjects/Reinvent-master-3.2/result/LINK_invent/BTK/process_docking_weight1_custom_sum_contain_oxygen_bond_distance_aromatic_linkinvent_7_9_3/rearranged_h_0128.sdf

> <i_m_source_file_index>
5

> <r_mmod_Potential_Energy-OPLS-2005>
1145.1357421875

> <r_mmod_Stretch_Energy-OPLS-2005>
640.349670410156

> <r_mmod_Bend_Energy-OPLS-2005>
445.416717529297

> <r_mmod_Torsional_Energy-OPLS-2005>
218.213882446289

> <r_mmod_Improper_Torsional_Energy-OPLS-2005>
5.87140321731567

> <r_mmod_Van_der_Waal_Energy-OPLS-2005>
128.44660949707

> <r_mmod_Electrostatic_Energy-OPLS-2005>
-600.976928710938

> <r_mmod_Solvation_Energy-OPLS-2005>
-236.462554931641

> <b_mmod_Minimization_Converged-OPLS-2005>
0

> <r_mmod_RMS_Derivative-OPLS-2005>
2.25644850730896

$$$$
5
                    3D
 Structure written by MMmdl.
162170  0  0  1  0            999 V2000
  -30.7193  -14.4827   20.5506 C   0  0  0  0  0  0
  -30.4156  -12.3076   19.4340 C   0  0  0  0  0  0
  -29.4936  -12.4965   18.2125 C   0  0  0  0  0  0
  -28.0161  -12.3565   18.6261 C   0  0  0  0  0  0
  -27.6586  -13.2116   19.8721 C   0  0  2  0  0  0
  -28.7019  -13.0254   20.9983 C   0  0  0  0  0  0
  -25.2568  -13.8168   20.5688 C   0  0  0  0  0  0
  -24.1828  -13.0435   20.9178 C   0  0  0  0  0  0
  -24.6391  -11.6905   20.8736 C   0  0  0  0  0  0
  -23.9061  -10.4288   21.0402 C   0  0  0  0  0  0
  -24.3614   -9.4206   21.9179 C   0  0  0  0  0  0
  -23.6289   -8.2243   22.0751 C   0  0  0  0  0  0
  -22.4273   -8.0279   21.3545 C   0  0  0  0  0  0
  -21.9906   -9.0248   20.4647 C   0  0  0  0  0  0
  -22.7231  -10.2127   20.3054 C   0  0  0  0  0  0
  -21.6855   -6.0732   22.5277 C   0  0  0  0  0  0
  -21.4015   -6.5636   23.8210 C   0  0  0  0  0  0
  -21.3660   -5.6790   24.9173 C   0  0  0  0  0  0
  -21.6044   -4.3052   24.7228 C   0  0  0  0  0  0
  -21.8820   -3.8142   23.4346 C   0  0  0  0  0  0
  -21.9194   -4.6959   22.3401 C   0  0  0  0  0  0
  -22.7853  -13.5230   21.1842 C   0  0  0  0  0  0
  -22.1660   -4.2143   21.0979 F   0  0  0  0  0  0
  -21.5631   -3.4537   25.7742 F   0  0  0  0  0  0
  -30.0312  -13.3135   20.4380 N   0  0  0  0  0  0
  -26.3014  -12.9349   20.3372 N   0  0  0  0  0  0
  -25.9324  -11.6503   20.5781 N   0  0  0  0  0  0
  -22.0502  -12.8218   22.0406 N   0  0  0  0  0  0
  -25.4276  -15.1886   20.4092 N   0  0  0  0  0  0
  -31.8580  -14.6285   20.1013 O   0  0  0  0  0  0
  -21.6641   -6.8872   21.4236 O   0  0  0  0  0  0
  -22.3535  -14.5538   20.6695 O   0  0  0  0  0  0
  -24.6176  -31.8683   23.2122 C   0  0  0  0  0  0
  -25.9067  -32.4822   23.8408 C   0  0  1  0  0  0
  -27.2131  -27.4098   20.0978 C   0  0  0  0  0  0
  -25.5919  -33.8620   24.2333 N   0  0  0  0  0  0
  -23.4047  -30.4972   21.5530 C   0  0  2  0  0  0
  -24.8478  -28.9727   20.1071 C   0  0  0  0  0  0
  -22.7423  -29.4671   22.4970 C   0  0  0  0  0  0
  -18.0275  -28.1387   22.8487 C   0  0  0  0  0  0
  -24.1488  -36.7308   23.2628 C   0  0  0  0  0  0
  -25.9395  -30.8264   21.3718 C   0  0  0  0  0  0
  -26.0121  -29.4628   20.7127 C   0  0  0  0  0  0
  -27.2006  -28.6901   20.7060 C   0  0  0  0  0  0
  -26.0377  -26.9645   19.4495 C   0  0  0  0  0  0
  -24.8585  -27.7258   19.4670 C   0  0  0  0  0  0
  -23.6117  -29.8415   20.1633 C   0  0  0  0  0  0
  -25.4097  -36.3103   24.0339 C   0  0  1  0  0  0
  -20.5871  -28.3674   23.1310 C   0  0  2  0  0  0
  -20.6772  -26.9408   22.5411 C   0  0  0  0  0  0
  -19.5747  -26.6388   21.5219 C   0  0  0  0  0  0
  -18.1923  -26.7931   22.1625 C   0  0  0  0  0  0
  -19.1527  -28.8842   23.2904 C   0  0  0  0  0  0
  -18.9454  -30.1447   23.8918 C   0  0  0  0  0  0
  -17.6456  -30.6588   24.0571 C   0  0  0  0  0  0
  -25.9041  -34.9475   23.5129 C   0  0  0  0  0  0
  -16.5343  -29.9094   23.6331 C   0  0  0  0  0  0
  -16.7263  -28.6515   23.0342 C   0  0  0  0  0  0
  -26.4478  -31.6596   25.0739 C   0  0  0  0  0  0
  -25.3735  -31.3731   26.1486 C   0  0  0  0  0  0
  -27.0291  -30.3024   24.6135 C   0  0  0  0  0  0
  -27.6068  -32.4300   25.7489 C   0  0  0  0  0  0
  -27.5598  -37.1772   24.8437 C   0  0  0  0  0  0
  -21.4146  -29.3048   22.3713 N   0  0  0  0  0  0
  -26.4269  -37.3807   23.9444 N   0  0  0  0  0  0
  -24.6721  -31.0778   22.1032 N   0  0  0  0  0  0
  -23.4199  -28.8195   23.2994 O   0  0  0  0  0  0
  -28.3315  -26.5938   20.1486 O   0  0  0  0  0  0
  -26.5603  -34.8927   22.4694 O   0  0  0  0  0  0
  -23.5363  -32.1429   23.7513 O   0  0  0  0  0  0
  -30.3529  -19.8032   19.7158 C   0  0  0  0  0  0
  -29.0865  -20.4242   21.5381 C   0  0  0  0  0  0
  -30.3734  -21.3517   19.7206 C   0  0  1  0  0  0
  -29.7117  -21.7540   21.0550 C   0  0  1  0  0  0
  -31.7888  -21.9487   19.5503 C   0  0  0  0  0  0
  -29.4618  -18.0193   21.1694 C   0  0  0  0  0  0
  -30.5455  -16.9299   20.9512 C   0  0  0  0  0  0
  -29.1882  -24.2124   20.5406 C   0  0  0  0  0  0
  -28.0431  -25.2545   20.6289 C   0  0  0  0  0  0
  -30.0111  -19.3861   21.0770 N   0  0  0  0  0  0
  -30.0366  -15.5459   21.0185 N   0  0  0  0  0  0
  -28.7037  -22.8479   20.9308 N   0  3  0  0  0  0
  -32.2773  -21.7720   18.2285 O   0  0  0  0  0  0
  -31.4628  -12.3870   19.1365 H   0  0  0  0  0  0
  -30.3024  -11.3047   19.8486 H   0  0  0  0  0  0
  -29.7370  -11.7649   17.4411 H   0  0  0  0  0  0
  -29.6614  -13.4788   17.7678 H   0  0  0  0  0  0
  -27.8324  -11.3019   18.8357 H   0  0  0  0  0  0
  -27.3634  -12.6154   17.7917 H   0  0  0  0  0  0
  -27.6934  -14.2547   19.5565 H   0  0  0  0  0  0
  -28.6778  -12.0020   21.3752 H   0  0  0  0  0  0
  -28.4693  -13.6602   21.8545 H   0  0  0  0  0  0
  -25.2762   -9.5686   22.4749 H   0  0  0  0  0  0
  -24.0004   -7.4637   22.7470 H   0  0  0  0  0  0
  -21.0839   -8.8760   19.8952 H   0  0  0  0  0  0
  -22.3686  -10.9662   19.6163 H   0  0  0  0  0  0
  -21.2005   -7.6146   23.9712 H   0  0  0  0  0  0
  -21.1481   -6.0522   25.9076 H   0  0  0  0  0  0
  -22.0600   -2.7605   23.2850 H   0  0  0  0  0  0
  -22.4119  -11.9870   22.4779 H   0  0  0  0  0  0
  -21.1125  -13.1232   22.2623 H   0  0  0  0  0  0
  -24.6566  -15.8403   20.5096 H   0  0  0  0  0  0
  -26.2758  -15.6278   20.0742 H   0  0  0  0  0  0
  -26.7138  -32.5517   23.1167 H   0  0  0  0  0  0
  -25.0072  -33.9780   25.0480 H   0  0  0  0  0  0
  -22.6943  -31.3159   21.4206 H   0  0  0  0  0  0
  -23.3775  -35.9612   23.3216 H   0  0  0  0  0  0
  -24.3614  -36.8998   22.2061 H   0  0  0  0  0  0
  -23.7190  -37.6471   23.6682 H   0  0  0  0  0  0
  -26.0615  -31.5954   20.6073 H   0  0  0  0  0  0
  -26.8249  -30.8715   21.9943 H   0  0  0  0  0  0
  -28.0933  -29.0572   21.1928 H   0  0  0  0  0  0
  -26.0061  -26.0273   18.9143 H   0  0  0  0  0  0
  -23.9715  -27.3537   18.9737 H   0  0  0  0  0  0
  -23.7199  -30.6229   19.4104 H   0  0  0  0  0  0
  -22.7339  -29.2662   19.8633 H   0  0  0  0  0  0
  -25.1262  -36.1952   25.0826 H   0  0  0  0  0  0
  -20.9966  -28.3238   24.1432 H   0  0  0  0  0  0
  -20.5695  -26.2278   23.3597 H   0  0  0  0  0  0
  -21.6637  -26.7460   22.1187 H   0  0  0  0  0  0
  -19.6915  -25.6311   21.1225 H   0  0  0  0  0  0
  -19.6691  -27.3216   20.6769 H   0  0  0  0  0  0
  -17.4193  -26.6678   21.4023 H   0  0  0  0  0  0
  -18.0326  -26.0072   22.9021 H   0  0  0  0  0  0
  -19.7930  -30.7261   24.2288 H   0  0  0  0  0  0
  -17.5012  -31.6271   24.5169 H   0  0  0  0  0  0
  -15.5347  -30.3007   23.7653 H   0  0  0  0  0  0
  -15.8655  -28.0850   22.7046 H   0  0  0  0  0  0
  -24.5894  -30.7095   25.7824 H   0  0  0  0  0  0
  -24.8946  -32.2904   26.4920 H   0  0  0  0  0  0
  -25.8069  -30.8895   27.0248 H   0  0  0  0  0  0
  -26.2837  -29.6802   24.1169 H   0  0  0  0  0  0
  -27.4024  -29.7251   25.4603 H   0  0  0  0  0  0
  -27.8695  -30.4326   23.9316 H   0  0  0  0  0  0
  -27.2710  -33.3611   26.2065 H   0  0  0  0  0  0
  -28.3871  -32.6832   25.0300 H   0  0  0  0  0  0
  -28.0731  -31.8414   26.5400 H   0  0  0  0  0  0
  -28.2509  -38.0178   24.7647 H   0  0  0  0  0  0
  -28.1206  -36.2721   24.6040 H   0  0  0  0  0  0
  -27.2354  -37.1141   25.8843 H   0  0  0  0  0  0
  -20.9294  -29.8785   21.6953 H   0  0  0  0  0  0
  -26.0153  -38.2861   24.1551 H   0  0  0  0  0  0
  -31.3009  -19.3717   19.3909 H   0  0  0  0  0  0
  -29.5861  -19.4616   19.0174 H   0  0  0  0  0  0
  -28.1084  -20.2700   21.0772 H   0  0  0  0  0  0
  -28.9530  -20.3970   22.6213 H   0  0  0  0  0  0
  -29.7518  -21.6946   18.8918 H   0  0  0  0  0  0
  -30.4742  -22.0520   21.7770 H   0  0  0  0  0  0
  -32.4844  -21.5088   20.2677 H   0  0  0  0  0  0
  -31.7683  -23.0199   19.7564 H   0  0  0  0  0  0
  -29.0309  -17.8821   22.1632 H   0  0  0  0  0  0
  -28.6436  -17.8943   20.4574 H   0  0  0  0  0  0
  -31.3363  -17.0431   21.6943 H   0  0  0  0  0  0
  -31.0150  -17.0820   19.9774 H   0  0  0  0  0  0
  -30.0138  -24.5193   21.1835 H   0  0  0  0  0  0
  -29.5670  -24.1806   19.5189 H   0  0  0  0  0  0
  -27.7164  -25.3344   21.6670 H   0  0  0  0  0  0
  -27.2074  -24.8112   20.0923 H   0  0  0  0  0  0
  -29.0981  -15.3937   21.3561 H   0  0  0  0  0  0
  -28.2616  -22.9285   21.8346 H   0  0  0  0  0  0
  -27.9869  -22.5506   20.2861 H   0  0  0  0  0  0
  -32.5113  -20.8554   18.1123 H   0  0  0  0  0  0
  1 25  1  0  0  0
  1 30  2  0  0  0
  1 81  1  0  0  0
  2  3  1  0  0  0
  2 25  1  0  0  0
  2 84  1  0  0  0
  2 85  1  0  0  0
  3  4  1  0  0  0
  3 86  1  0  0  0
  3 87  1  0  0  0
  4  5  1  0  0  0
  4 88  1  0  0  0
  4 89  1  0  0  0
  5  6  1  0  0  0
  5 26  1  0  0  0
  5 90  1  0  0  0
  6 25  1  0  0  0
  6 91  1  0  0  0
  6 92  1  0  0  0
  7  8  2  0  0  0
  7 26  1  0  0  0
  7 29  1  0  0  0
  8  9  1  0  0  0
  8 22  1  0  0  0
  9 10  1  0  0  0
  9 27  2  0  0  0
 10 11  2  0  0  0
 10 15  1  0  0  0
 11 12  1  0  0  0
 11 93  1  0  0  0
 12 13  2  0  0  0
 12 94  1  0  0  0
 13 14  1  0  0  0
 13 31  1  0  0  0
 14 15  2  0  0  0
 14 95  1  0  0  0
 15 96  1  0  0  0
 16 17  2  0  0  0
 16 21  1  0  0  0
 16 31  1  0  0  0
 17 18  1  0  0  0
 17 97  1  0  0  0
 18 19  2  0  0  0
 18 98  1  0  0  0
 19 20  1  0  0  0
 19 24  1  0  0  0
 20 21  2  0  0  0
 20 99  1  0  0  0
 21 23  1  0  0  0
 22 28  1  0  0  0
 22 32  2  0  0  0
 26 27  1  0  0  0
 28100  1  0  0  0
 28101  1  0  0  0
 29102  1  0  0  0
 29103  1  0  0  0
 33 34  1  0  0  0
 33 66  1  0  0  0
 33 70  2  0  0  0
 34 36  1  0  0  0
 34 59  1  0  0  0
 34104  1  0  0  0
 35 44  2  0  0  0
 35 45  1  0  0  0
 35 68  1  0  0  0
 36 56  1  0  0  0
 36105  1  0  0  0
 37 39  1  0  0  0
 37 47  1  0  0  0
 37 66  1  0  0  0
 37106  1  0  0  0
 38 43  2  0  0  0
 38 46  1  0  0  0
 38 47  1  0  0  0
 39 64  1  0  0  0
 39 67  2  0  0  0
 40 52  1  0  0  0
 40 53  2  0  0  0
 40 58  1  0  0  0
 41107  1  0  0  0
 41108  1  0  0  0
 41109  1  0  0  0
 41 48  1  0  0  0
 42 43  1  0  0  0
 42 66  1  0  0  0
 42110  1  0  0  0
 42111  1  0  0  0
 43 44  1  0  0  0
 44112  1  0  0  0
 45 46  2  0  0  0
 45113  1  0  0  0
 46114  1  0  0  0
 47115  1  0  0  0
 47116  1  0  0  0
 48 56  1  0  0  0
 48 65  1  0  0  0
 48117  1  0  0  0
 49 50  1  0  0  0
 49 53  1  0  0  0
 49 64  1  0  0  0
 49118  1  0  0  0
 50 51  1  0  0  0
 50119  1  0  0  0
 50120  1  0  0  0
 51 52  1  0  0  0
 51121  1  0  0  0
 51122  1  0  0  0
 52123  1  0  0  0
 52124  1  0  0  0
 53 54  1  0  0  0
 54 55  2  0  0  0
 54125  1  0  0  0
 55 57  1  0  0  0
 55126  1  0  0  0
 56 69  2  0  0  0
 57 58  2  0  0  0
 57127  1  0  0  0
 58128  1  0  0  0
 59 60  1  0  0  0
 59 61  1  0  0  0
 59 62  1  0  0  0
 60129  1  0  0  0
 60130  1  0  0  0
 60131  1  0  0  0
 61132  1  0  0  0
 61133  1  0  0  0
 61134  1  0  0  0
 62135  1  0  0  0
 62136  1  0  0  0
 62137  1  0  0  0
 63 65  1  0  0  0
 63138  1  0  0  0
 63139  1  0  0  0
 63140  1  0  0  0
 64141  1  0  0  0
 65142  1  0  0  0
 68 79  1  0  0  0
 71 73  1  0  0  0
 71 80  1  0  0  0
 71143  1  0  0  0
 71144  1  0  0  0
 72 74  1  0  0  0
 72 80  1  0  0  0
 72145  1  0  0  0
 72146  1  0  0  0
 73 74  1  0  0  0
 73 75  1  0  0  0
 73147  1  0  0  0
 74 82  1  0  0  0
 74148  1  0  0  0
 75 83  1  0  0  0
 75149  1  0  0  0
 75150  1  0  0  0
 76 77  1  0  0  0
 76 80  1  0  0  0
 76151  1  0  0  0
 76152  1  0  0  0
 77 81  1  0  0  0
 77153  1  0  0  0
 77154  1  0  0  0
 78 79  1  0  0  0
 78 82  1  0  0  0
 78155  1  0  0  0
 78156  1  0  0  0
 79157  1  0  0  0
 79158  1  0  0  0
 81159  1  0  0  0
 82160  1  0  0  0
 82161  1  0  0  0
 83162  1  0  0  0
M  CHG  1  82   1
M  ISO  4   1 100  68 101  79 101  81 100
M  END
> <chiral flag>
0

> <version>
0

> <s_m_source_file>
/data/baiqing/PycharmProjects/Reinvent-master-3.2/result/LINK_invent/BTK/process_docking_weight1_custom_sum_contain_oxygen_bond_distance_aromatic_linkinvent_7_9_3/rearranged_h_0128.sdf

> <i_m_source_file_index>
6

> <r_mmod_Potential_Energy-OPLS-2005>
-119.238357543945

> <r_mmod_Stretch_Energy-OPLS-2005>
40.974681854248

> <r_mmod_Bend_Energy-OPLS-2005>
115.566848754883

> <r_mmod_Torsional_Energy-OPLS-2005>
285.447357177734

> <r_mmod_Improper_Torsional_Energy-OPLS-2005>
3.8965802192688

> <r_mmod_Van_der_Waal_Energy-OPLS-2005>
134.631652832031

> <r_mmod_Electrostatic_Energy-OPLS-2005>
-224.524612426758

> <r_mmod_Solvation_Energy-OPLS-2005>
-495.381774902344

> <b_mmod_Minimization_Converged-OPLS-2005>
0

> <r_mmod_RMS_Derivative-OPLS-2005>
1.19437682628632

$$$$
6
                    3D
 Structure written by MMmdl.
165174  0  0  1  0            999 V2000
  -30.6847  -14.4821   20.6052 C   0  0  0  0  0  0
  -30.4366  -12.3274   19.4134 C   0  0  0  0  0  0
  -29.4973  -12.5173   18.2034 C   0  0  0  0  0  0
  -28.0197  -12.3640   18.6177 C   0  0  0  0  0  0
  -27.6634  -13.1984   19.8762 C   0  0  2  0  0  0
  -28.7058  -12.9639   20.9929 C   0  0  0  0  0  0
  -25.2569  -13.8102   20.5639 C   0  0  0  0  0  0
  -24.1829  -13.0403   20.9177 C   0  0  0  0  0  0
  -24.6387  -11.6873   20.8735 C   0  0  0  0  0  0
  -23.9052  -10.4274   21.0403 C   0  0  0  0  0  0
  -24.3607   -9.4191   21.9181 C   0  0  0  0  0  0
  -23.6283   -8.2229   22.0755 C   0  0  0  0  0  0
  -22.4262   -8.0273   21.3547 C   0  0  0  0  0  0
  -21.9896   -9.0243   20.4651 C   0  0  0  0  0  0
  -22.7226  -10.2119   20.3054 C   0  0  0  0  0  0
  -21.6850   -6.0730   22.5280 C   0  0  0  0  0  0
  -21.4013   -6.5633   23.8212 C   0  0  0  0  0  0
  -21.3655   -5.6787   24.9174 C   0  0  0  0  0  0
  -21.6040   -4.3051   24.7225 C   0  0  0  0  0  0
  -21.8820   -3.8142   23.4347 C   0  0  0  0  0  0
  -21.9194   -4.6959   22.3403 C   0  0  0  0  0  0
  -22.7856  -13.5223   21.1836 C   0  0  0  0  0  0
  -22.1662   -4.2148   21.0981 F   0  0  0  0  0  0
  -21.5626   -3.4532   25.7736 F   0  0  0  0  0  0
  -30.0382  -13.2930   20.4491 N   0  0  0  0  0  0
  -26.3022  -12.9280   20.3351 N   0  0  0  0  0  0
  -25.9313  -11.6450   20.5761 N   0  0  0  0  0  0
  -22.0491  -12.8232   22.0403 N   0  0  0  0  0  0
  -25.4198  -15.1809   20.3968 N   0  0  0  0  0  0
  -31.7832  -14.7303   20.1011 O   0  0  0  0  0  0
  -21.6630   -6.8868   21.4242 O   0  0  0  0  0  0
  -22.3554  -14.5534   20.6688 O   0  0  0  0  0  0
  -24.6140  -31.8682   23.2098 C   0  0  0  0  0  0
  -25.9034  -32.4826   23.8393 C   0  0  1  0  0  0
  -27.2396  -27.4357   20.0987 C   0  0  0  0  0  0
  -25.5890  -33.8621   24.2327 N   0  0  0  0  0  0
  -23.4038  -30.4894   21.5502 C   0  0  2  0  0  0
  -24.8546  -28.9530   20.1179 C   0  0  0  0  0  0
  -22.7414  -29.4652   22.4995 C   0  0  0  0  0  0
  -18.0275  -28.1374   22.8501 C   0  0  0  0  0  0
  -24.1486  -36.7313   23.2638 C   0  0  0  0  0  0
  -25.9323  -30.8319   21.3656 C   0  0  0  0  0  0
  -26.0132  -29.4641   20.7179 C   0  0  0  0  0  0
  -27.2112  -28.7107   20.7114 C   0  0  0  0  0  0
  -26.0694  -26.9392   19.4926 C   0  0  0  0  0  0
  -24.8764  -27.6877   19.5041 C   0  0  0  0  0  0
  -23.6147  -29.8191   20.1659 C   0  0  0  0  0  0
  -25.4107  -36.3112   24.0339 C   0  0  1  0  0  0
  -20.5864  -28.3662   23.1321 C   0  0  2  0  0  0
  -20.6763  -26.9398   22.5424 C   0  0  0  0  0  0
  -19.5744  -26.6387   21.5215 C   0  0  0  0  0  0
  -18.1921  -26.7924   22.1625 C   0  0  0  0  0  0
  -19.1524  -28.8837   23.2906 C   0  0  0  0  0  0
  -18.9453  -30.1443   23.8915 C   0  0  0  0  0  0
  -17.6456  -30.6584   24.0569 C   0  0  0  0  0  0
  -25.9035  -34.9478   23.5132 C   0  0  0  0  0  0
  -16.5347  -29.9088   23.6322 C   0  0  0  0  0  0
  -16.7266  -28.6500   23.0353 C   0  0  0  0  0  0
  -26.4464  -31.6600   25.0716 C   0  0  0  0  0  0
  -25.3731  -31.3716   26.1470 C   0  0  0  0  0  0
  -27.0295  -30.3042   24.6090 C   0  0  0  0  0  0
  -27.6048  -32.4317   25.7470 C   0  0  0  0  0  0
  -27.5583  -37.1809   24.8465 C   0  0  0  0  0  0
  -21.4142  -29.3027   22.3731 N   0  0  0  0  0  0
  -26.4296  -37.3795   23.9408 N   0  0  0  0  0  0
  -24.6681  -31.0777   22.1004 N   0  0  0  0  0  0
  -23.4185  -28.8196   23.3041 O   0  0  0  0  0  0
  -28.3752  -26.6578   20.0649 O   0  0  0  0  0  0
  -26.5603  -34.8927   22.4698 O   0  0  0  0  0  0
  -23.5333  -32.1433   23.7489 O   0  0  0  0  0  0
  -29.5747  -23.6503   22.0525 C   0  0  0  0  0  0
  -29.2060  -22.5591   19.5746 C   0  0  0  0  0  0
  -29.9462  -22.3022   21.8577 C   0  0  0  0  0  0
  -29.7435  -21.7204   20.5822 C   0  0  0  0  0  0
  -29.0301  -24.4010   20.9910 C   0  0  0  0  0  0
  -27.3050  -18.4611   19.6616 C   0  0  0  0  0  0
  -28.1368  -17.2264   19.9619 C   0  0  0  0  0  0
  -27.7961  -19.4361   20.7250 C   0  0  0  0  0  0
  -29.5054  -17.7796   20.4005 C   0  0  2  0  0  0
  -30.5344  -21.5194   23.0184 C   0  0  0  0  0  0
  -30.1131  -20.2505   20.2493 C   0  0  0  0  0  0
  -28.5653  -25.8487   21.2381 C   0  0  0  0  0  0
  -30.2176  -16.8633   21.4505 C   0  0  0  0  0  0
  -28.8515  -23.8541   19.7654 N   0  0  0  0  0  0
  -29.9712  -15.4181   21.2563 N   0  0  0  0  0  0
  -29.2549  -19.1894   20.8739 N   0  3  1  0  0  0
  -31.4768  -12.4536   19.1076 H   0  0  0  0  0  0
  -30.3623  -11.3104   19.8018 H   0  0  0  0  0  0
  -29.7423  -11.7981   17.4208 H   0  0  0  0  0  0
  -29.6541  -13.5064   17.7696 H   0  0  0  0  0  0
  -27.8377  -11.3063   18.8132 H   0  0  0  0  0  0
  -27.3664  -12.6355   17.7878 H   0  0  0  0  0  0
  -27.7103  -14.2467   19.5852 H   0  0  0  0  0  0
  -28.6897  -11.9196   21.3082 H   0  0  0  0  0  0
  -28.4525  -13.5332   21.8880 H   0  0  0  0  0  0
  -25.2752   -9.5667   22.4753 H   0  0  0  0  0  0
  -23.9994   -7.4617   22.7469 H   0  0  0  0  0  0
  -21.0827   -8.8759   19.8955 H   0  0  0  0  0  0
  -22.3684  -10.9656   19.6162 H   0  0  0  0  0  0
  -21.2007   -7.6142   23.9716 H   0  0  0  0  0  0
  -21.1472   -6.0515   25.9077 H   0  0  0  0  0  0
  -22.0605   -2.7607   23.2844 H   0  0  0  0  0  0
  -22.4094  -11.9896   22.4802 H   0  0  0  0  0  0
  -21.1113  -13.1271   22.2604 H   0  0  0  0  0  0
  -24.6370  -15.8200   20.4790 H   0  0  0  0  0  0
  -26.2457  -15.6125   20.0072 H   0  0  0  0  0  0
  -26.7110  -32.5550   23.1163 H   0  0  0  0  0  0
  -25.0036  -33.9786   25.0469 H   0  0  0  0  0  0
  -22.6920  -31.3055   21.4091 H   0  0  0  0  0  0
  -23.3743  -35.9652   23.3317 H   0  0  0  0  0  0
  -24.3576  -36.8912   22.2050 H   0  0  0  0  0  0
  -23.7247  -37.6526   23.6642 H   0  0  0  0  0  0
  -26.0441  -31.5959   20.5950 H   0  0  0  0  0  0
  -26.8200  -30.8894   21.9833 H   0  0  0  0  0  0
  -28.1066  -29.1026   21.1728 H   0  0  0  0  0  0
  -26.0836  -25.9681   19.0179 H   0  0  0  0  0  0
  -23.9864  -27.2876   19.0380 H   0  0  0  0  0  0
  -23.7225  -30.5925   19.4044 H   0  0  0  0  0  0
  -22.7397  -29.2369   19.8714 H   0  0  0  0  0  0
  -25.1282  -36.1978   25.0831 H   0  0  0  0  0  0
  -20.9958  -28.3228   24.1440 H   0  0  0  0  0  0
  -20.5665  -26.2268   23.3610 H   0  0  0  0  0  0
  -21.6634  -26.7444   22.1218 H   0  0  0  0  0  0
  -19.6902  -25.6303   21.1233 H   0  0  0  0  0  0
  -19.6679  -27.3207   20.6753 H   0  0  0  0  0  0
  -17.4195  -26.6685   21.4023 H   0  0  0  0  0  0
  -18.0314  -26.0053   22.9007 H   0  0  0  0  0  0
  -19.7931  -30.7251   24.2290 H   0  0  0  0  0  0
  -17.5015  -31.6264   24.5171 H   0  0  0  0  0  0
  -15.5351  -30.2999   23.7627 H   0  0  0  0  0  0
  -15.8666  -28.0821   22.7062 H   0  0  0  0  0  0
  -24.5883  -30.7087   25.7806 H   0  0  0  0  0  0
  -24.8944  -32.2882   26.4930 H   0  0  0  0  0  0
  -25.8080  -30.8869   27.0220 H   0  0  0  0  0  0
  -26.2839  -29.6805   24.1146 H   0  0  0  0  0  0
  -27.4069  -29.7277   25.4544 H   0  0  0  0  0  0
  -27.8671  -30.4359   23.9237 H   0  0  0  0  0  0
  -27.2671  -33.3601   26.2087 H   0  0  0  0  0  0
  -28.3831  -32.6907   25.0279 H   0  0  0  0  0  0
  -28.0746  -31.8417   26.5350 H   0  0  0  0  0  0
  -28.2615  -38.0092   24.7508 H   0  0  0  0  0  0
  -28.1068  -36.2630   24.6298 H   0  0  0  0  0  0
  -27.2305  -37.1476   25.8869 H   0  0  0  0  0  0
  -20.9302  -29.8748   21.6952 H   0  0  0  0  0  0
  -26.0188  -38.2876   24.1400 H   0  0  0  0  0  0
  -29.6961  -24.1161   23.0217 H   0  0  0  0  0  0
  -29.0404  -22.1755   18.5783 H   0  0  0  0  0  0
  -26.2314  -18.2782   19.7171 H   0  0  0  0  0  0
  -27.5325  -18.8416   18.6647 H   0  0  0  0  0  0
  -28.2124  -16.5531   19.1074 H   0  0  0  0  0  0
  -27.6700  -16.6841   20.7844 H   0  0  0  0  0  0
  -27.3182  -19.1991   21.6770 H   0  0  0  0  0  0
  -27.5165  -20.4618   20.4904 H   0  0  0  0  0  0
  -30.1323  -17.8203   19.5075 H   0  0  0  0  0  0
  -30.7751  -22.1775   23.8538 H   0  0  0  0  0  0
  -31.4546  -21.0138   22.7273 H   0  0  0  0  0  0
  -29.8233  -20.7780   23.3811 H   0  0  0  0  0  0
  -31.1539  -20.0730   20.5223 H   0  0  0  0  0  0
  -30.0713  -20.1314   19.1653 H   0  0  0  0  0  0
  -29.3045  -26.3474   21.8665 H   0  0  0  0  0  0
  -27.6519  -25.7925   21.8343 H   0  0  0  0  0  0
  -29.8509  -17.1020   22.4495 H   0  0  0  0  0  0
  -31.2896  -17.0678   21.4661 H   0  0  0  0  0  0
  -29.1004  -15.0741   21.6330 H   0  0  0  0  0  0
  -29.4435  -19.2071   21.8639 H   0  0  0  0  0  0
  1 25  1  0  0  0
  1 30  2  0  0  0
  1 85  1  0  0  0
  2  3  1  0  0  0
  2 25  1  0  0  0
  2 87  1  0  0  0
  2 88  1  0  0  0
  3  4  1  0  0  0
  3 89  1  0  0  0
  3 90  1  0  0  0
  4  5  1  0  0  0
  4 91  1  0  0  0
  4 92  1  0  0  0
  5  6  1  0  0  0
  5 26  1  0  0  0
  5 93  1  0  0  0
  6 25  1  0  0  0
  6 94  1  0  0  0
  6 95  1  0  0  0
  7  8  2  0  0  0
  7 26  1  0  0  0
  7 29  1  0  0  0
  8  9  1  0  0  0
  8 22  1  0  0  0
  9 10  1  0  0  0
  9 27  2  0  0  0
 10 11  2  0  0  0
 10 15  1  0  0  0
 11 12  1  0  0  0
 11 96  1  0  0  0
 12 13  2  0  0  0
 12 97  1  0  0  0
 13 14  1  0  0  0
 13 31  1  0  0  0
 14 15  2  0  0  0
 14 98  1  0  0  0
 15 99  1  0  0  0
 16 17  2  0  0  0
 16 21  1  0  0  0
 16 31  1  0  0  0
 17 18  1  0  0  0
 17100  1  0  0  0
 18 19  2  0  0  0
 18101  1  0  0  0
 19 20  1  0  0  0
 19 24  1  0  0  0
 20 21  2  0  0  0
 20102  1  0  0  0
 21 23  1  0  0  0
 22 28  1  0  0  0
 22 32  2  0  0  0
 26 27  1  0  0  0
 28103  1  0  0  0
 28104  1  0  0  0
 29105  1  0  0  0
 29106  1  0  0  0
 33 34  1  0  0  0
 33 66  1  0  0  0
 33 70  2  0  0  0
 34 36  1  0  0  0
 34 59  1  0  0  0
 34107  1  0  0  0
 35 44  2  0  0  0
 35 45  1  0  0  0
 35 68  1  0  0  0
 36 56  1  0  0  0
 36108  1  0  0  0
 37 39  1  0  0  0
 37 47  1  0  0  0
 37 66  1  0  0  0
 37109  1  0  0  0
 38 43  2  0  0  0
 38 46  1  0  0  0
 38 47  1  0  0  0
 39 64  1  0  0  0
 39 67  2  0  0  0
 40 52  1  0  0  0
 40 53  2  0  0  0
 40 58  1  0  0  0
 41110  1  0  0  0
 41111  1  0  0  0
 41112  1  0  0  0
 41 48  1  0  0  0
 42 43  1  0  0  0
 42 66  1  0  0  0
 42113  1  0  0  0
 42114  1  0  0  0
 43 44  1  0  0  0
 44115  1  0  0  0
 45 46  2  0  0  0
 45116  1  0  0  0
 46117  1  0  0  0
 47118  1  0  0  0
 47119  1  0  0  0
 48 56  1  0  0  0
 48 65  1  0  0  0
 48120  1  0  0  0
 49 50  1  0  0  0
 49 53  1  0  0  0
 49 64  1  0  0  0
 49121  1  0  0  0
 50 51  1  0  0  0
 50122  1  0  0  0
 50123  1  0  0  0
 51 52  1  0  0  0
 51124  1  0  0  0
 51125  1  0  0  0
 52126  1  0  0  0
 52127  1  0  0  0
 53 54  1  0  0  0
 54 55  2  0  0  0
 54128  1  0  0  0
 55 57  1  0  0  0
 55129  1  0  0  0
 56 69  2  0  0  0
 57 58  2  0  0  0
 57130  1  0  0  0
 58131  1  0  0  0
 59 60  1  0  0  0
 59 61  1  0  0  0
 59 62  1  0  0  0
 60132  1  0  0  0
 60133  1  0  0  0
 60134  1  0  0  0
 61135  1  0  0  0
 61136  1  0  0  0
 61137  1  0  0  0
 62138  1  0  0  0
 62139  1  0  0  0
 62140  1  0  0  0
 63 65  1  0  0  0
 63141  1  0  0  0
 63142  1  0  0  0
 63143  1  0  0  0
 64144  1  0  0  0
 65145  1  0  0  0
 68 82  1  0  0  0
 71 73  2  0  0  0
 71 75  1  0  0  0
 71146  1  0  0  0
 72 74  2  0  0  0
 72 84  1  0  0  0
 72147  1  0  0  0
 73 74  1  0  0  0
 73 80  1  0  0  0
 74 81  1  0  0  0
 75 82  1  0  0  0
 75 84  2  0  0  0
 76 77  1  0  0  0
 76 78  1  0  0  0
 76148  1  0  0  0
 76149  1  0  0  0
 77 79  1  0  0  0
 77150  1  0  0  0
 77151  1  0  0  0
 78 86  1  0  0  0
 78152  1  0  0  0
 78153  1  0  0  0
 79 83  1  0  0  0
 79 86  1  0  0  0
 79154  1  0  0  0
 80155  1  0  0  0
 80156  1  0  0  0
 80157  1  0  0  0
 81158  1  0  0  0
 81159  1  0  0  0
 81 86  1  0  0  0
 82160  1  0  0  0
 82161  1  0  0  0
 83 85  1  0  0  0
 83162  1  0  0  0
 83163  1  0  0  0
 85164  1  0  0  0
 86165  1  0  0  0
M  CHG  1  86   1
M  ISO  4   1 100  68 101  82 101  85 100
M  END
> <chiral flag>
0

> <version>
0

> <s_m_source_file>
/data/baiqing/PycharmProjects/Reinvent-master-3.2/result/LINK_invent/BTK/process_docking_weight1_custom_sum_contain_oxygen_bond_distance_aromatic_linkinvent_7_9_3/rearranged_h_0128.sdf

> <i_m_source_file_index>
7

> <r_mmod_Potential_Energy-OPLS-2005>
-213.420837402344

> <r_mmod_Stretch_Energy-OPLS-2005>
44.0697746276855

> <r_mmod_Bend_Energy-OPLS-2005>
125.537979125977

> <r_mmod_Torsional_Energy-OPLS-2005>
291.217498779297

> <r_mmod_Improper_Torsional_Energy-OPLS-2005>
3.29962682723999

> <r_mmod_Van_der_Waal_Energy-OPLS-2005>
141.194366455078

> <r_mmod_Electrostatic_Energy-OPLS-2005>
-363.113311767578

> <r_mmod_Solvation_Energy-OPLS-2005>
-468.138854980469

> <b_mmod_Minimization_Converged-OPLS-2005>
0

> <r_mmod_RMS_Derivative-OPLS-2005>
0.774842858314514

$$$$
7
                    3D
 Structure written by MMmdl.
161169  0  0  1  0            999 V2000
  -30.7601  -14.4587   20.4927 C   0  0  0  0  0  0
  -30.4069  -12.2891   19.4125 C   0  0  0  0  0  0
  -29.4807  -12.4867   18.1987 C   0  0  0  0  0  0
  -28.0065  -12.3491   18.6224 C   0  0  0  0  0  0
  -27.6609  -13.2111   19.8665 C   0  0  2  0  0  0
  -28.7146  -13.0349   20.9891 C   0  0  0  0  0  0
  -25.2597  -13.8181   20.5714 C   0  0  0  0  0  0
  -24.1840  -13.0441   20.9187 C   0  0  0  0  0  0
  -24.6396  -11.6915   20.8729 C   0  0  0  0  0  0
  -23.9062  -10.4298   21.0393 C   0  0  0  0  0  0
  -24.3603   -9.4207   21.9184 C   0  0  0  0  0  0
  -23.6277   -8.2229   22.0745 C   0  0  0  0  0  0
  -22.4270   -8.0266   21.3533 C   0  0  0  0  0  0
  -21.9904   -9.0234   20.4633 C   0  0  0  0  0  0
  -22.7228  -10.2125   20.3047 C   0  0  0  0  0  0
  -21.6865   -6.0729   22.5277 C   0  0  0  0  0  0
  -21.4011   -6.5634   23.8206 C   0  0  0  0  0  0
  -21.3666   -5.6789   24.9173 C   0  0  0  0  0  0
  -21.6033   -4.3050   24.7223 C   0  0  0  0  0  0
  -21.8834   -3.8148   23.4353 C   0  0  0  0  0  0
  -21.9186   -4.6954   22.3404 C   0  0  0  0  0  0
  -22.7874  -13.5214   21.1834 C   0  0  0  0  0  0
  -22.1668   -4.2144   21.0977 F   0  0  0  0  0  0
  -21.5630   -3.4536   25.7739 F   0  0  0  0  0  0
  -30.0412  -13.3038   20.4143 N   0  0  0  0  0  0
  -26.3029  -12.9360   20.3373 N   0  0  0  0  0  0
  -25.9331  -11.6521   20.5807 N   0  0  0  0  0  0
  -22.0509  -12.8202   22.0388 N   0  0  0  0  0  0
  -25.4269  -15.1879   20.4070 N   0  0  0  0  0  0
  -31.9189  -14.5438   20.0905 O   0  0  0  0  0  0
  -21.6642   -6.8869   21.4239 O   0  0  0  0  0  0
  -22.3563  -14.5530   20.6701 O   0  0  0  0  0  0
  -24.6111  -31.8709   23.2092 C   0  0  0  0  0  0
  -25.9010  -32.4842   23.8385 C   0  0  1  0  0  0
  -27.2551  -27.4610   20.0766 C   0  0  0  0  0  0
  -25.5882  -33.8626   24.2326 N   0  0  0  0  0  0
  -23.3968  -30.4865   21.5534 C   0  0  2  0  0  0
  -24.8453  -28.9492   20.1165 C   0  0  0  0  0  0
  -22.7379  -29.4654   22.5075 C   0  0  0  0  0  0
  -18.0263  -28.1379   22.8497 C   0  0  0  0  0  0
  -24.1492  -36.7316   23.2634 C   0  0  0  0  0  0
  -25.9200  -30.8402   21.3550 C   0  0  0  0  0  0
  -26.0007  -29.4720   20.7089 C   0  0  0  0  0  0
  -27.2017  -28.7318   20.6924 C   0  0  0  0  0  0
  -26.0740  -26.9365   19.4980 C   0  0  0  0  0  0
  -24.8769  -27.6785   19.5155 C   0  0  0  0  0  0
  -23.6005  -29.8073   20.1716 C   0  0  0  0  0  0
  -25.4120  -36.3121   24.0336 C   0  0  1  0  0  0
  -20.5845  -28.3650   23.1358 C   0  0  2  0  0  0
  -20.6770  -26.9409   22.5418 C   0  0  0  0  0  0
  -19.5749  -26.6396   21.5211 C   0  0  0  0  0  0
  -18.1927  -26.7932   22.1617 C   0  0  0  0  0  0
  -19.1509  -28.8830   23.2914 C   0  0  0  0  0  0
  -18.9436  -30.1445   23.8913 C   0  0  0  0  0  0
  -17.6437  -30.6588   24.0563 C   0  0  0  0  0  0
  -25.9039  -34.9492   23.5137 C   0  0  0  0  0  0
  -16.5332  -29.9090   23.6331 C   0  0  0  0  0  0
  -16.7246  -28.6504   23.0358 C   0  0  0  0  0  0
  -26.4461  -31.6607   25.0686 C   0  0  0  0  0  0
  -25.3731  -31.3670   26.1422 C   0  0  0  0  0  0
  -27.0287  -30.3076   24.6001 C   0  0  0  0  0  0
  -27.6059  -32.4314   25.7433 C   0  0  0  0  0  0
  -27.5593  -37.1809   24.8474 C   0  0  0  0  0  0
  -21.4123  -29.3015   22.3774 N   0  0  0  0  0  0
  -26.4314  -37.3803   23.9404 N   0  0  0  0  0  0
  -24.6612  -31.0801   22.0990 N   0  0  0  0  0  0
  -23.4168  -28.8239   23.3127 O   0  0  0  0  0  0
  -28.4603  -26.7885   20.0922 O   0  0  0  0  0  0
  -26.5601  -34.8946   22.4700 O   0  0  0  0  0  0
  -23.5310  -32.1451   23.7502 O   0  0  0  0  0  0
  -28.5252  -23.3034   19.0030 C   0  0  0  0  0  0
  -28.8106  -22.0291   19.5371 C   0  0  0  0  0  0
  -29.6836  -21.9214   20.6515 C   0  0  0  0  0  0
  -29.0950  -24.4441   19.5856 C   0  0  0  0  0  0
  -30.2728  -23.1293   21.1215 C   0  0  0  0  0  0
  -28.1716  -20.8158   18.8945 C   0  0  0  0  0  0
  -31.2914  -23.1670   22.2497 C   0  0  0  0  0  0
  -29.8421  -20.5789   21.4114 C   0  0  0  0  0  0
  -28.7853  -25.8491   19.0568 C   0  0  0  0  0  0
  -30.5427  -16.9120   20.3383 C   0  0  0  0  0  0
  -30.0310  -18.0831   21.2068 C   0  0  0  0  0  0
  -29.9763  -24.3464   20.6057 N   0  0  0  0  0  0
  -30.0754  -15.5805   20.7753 N   0  0  0  0  0  0
  -30.3879  -19.4202   20.6458 N   0  3  0  0  0  0
  -31.4497  -12.3545   19.1005 H   0  0  0  0  0  0
  -30.2861  -11.2902   19.8248 H   0  0  0  0  0  0
  -29.7094  -11.7585   17.4186 H   0  0  0  0  0  0
  -29.6515  -13.4718   17.7554 H   0  0  0  0  0  0
  -27.8227  -11.2986   18.8389 H   0  0  0  0  0  0
  -27.3462  -12.6050   17.7897 H   0  0  0  0  0  0
  -27.6869  -14.2514   19.5403 H   0  0  0  0  0  0
  -28.6886  -12.0125   21.3744 H   0  0  0  0  0  0
  -28.5047  -13.6877   21.8376 H   0  0  0  0  0  0
  -25.2749   -9.5703   22.4765 H   0  0  0  0  0  0
  -23.9998   -7.4645   22.7486 H   0  0  0  0  0  0
  -21.0836   -8.8746   19.8947 H   0  0  0  0  0  0
  -22.3671  -10.9652   19.6157 H   0  0  0  0  0  0
  -21.2007   -7.6150   23.9710 H   0  0  0  0  0  0
  -21.1475   -6.0521   25.9073 H   0  0  0  0  0  0
  -22.0603   -2.7604   23.2849 H   0  0  0  0  0  0
  -22.4118  -11.9822   22.4759 H   0  0  0  0  0  0
  -21.1107  -13.1233   22.2603 H   0  0  0  0  0  0
  -24.6519  -15.8357   20.5037 H   0  0  0  0  0  0
  -26.2690  -15.6282   20.0589 H   0  0  0  0  0  0
  -26.7074  -32.5570   23.1149 H   0  0  0  0  0  0
  -25.0038  -33.9818   25.0469 H   0  0  0  0  0  0
  -22.6821  -31.3000   21.4141 H   0  0  0  0  0  0
  -23.3764  -35.9640   23.3313 H   0  0  0  0  0  0
  -24.3576  -36.8908   22.2044 H   0  0  0  0  0  0
  -23.7236  -37.6522   23.6635 H   0  0  0  0  0  0
  -26.0188  -31.6021   20.5800 H   0  0  0  0  0  0
  -26.8128  -30.9045   21.9661 H   0  0  0  0  0  0
  -28.0984  -29.1402   21.1413 H   0  0  0  0  0  0
  -26.0510  -25.9549   19.0477 H   0  0  0  0  0  0
  -23.9850  -27.2638   19.0687 H   0  0  0  0  0  0
  -23.6889  -30.5742   19.4016 H   0  0  0  0  0  0
  -22.7271  -29.2146   19.8939 H   0  0  0  0  0  0
  -25.1298  -36.2000   25.0829 H   0  0  0  0  0  0
  -20.9913  -28.3208   24.1483 H   0  0  0  0  0  0
  -20.5722  -26.2247   23.3583 H   0  0  0  0  0  0
  -21.6644  -26.7506   22.1182 H   0  0  0  0  0  0
  -19.6932  -25.6316   21.1229 H   0  0  0  0  0  0
  -19.6708  -27.3215   20.6752 H   0  0  0  0  0  0
  -17.4208  -26.6672   21.4014 H   0  0  0  0  0  0
  -18.0335  -26.0068   22.9006 H   0  0  0  0  0  0
  -19.7908  -30.7254   24.2307 H   0  0  0  0  0  0
  -17.4992  -31.6273   24.5155 H   0  0  0  0  0  0
  -15.5339  -30.2992   23.7647 H   0  0  0  0  0  0
  -15.8647  -28.0814   22.7094 H   0  0  0  0  0  0
  -24.5886  -30.7068   25.7706 H   0  0  0  0  0  0
  -24.8936  -32.2803   26.4952 H   0  0  0  0  0  0
  -25.8059  -30.8739   27.0131 H   0  0  0  0  0  0
  -26.2803  -29.6834   24.1105 H   0  0  0  0  0  0
  -27.4152  -29.7309   25.4411 H   0  0  0  0  0  0
  -27.8593  -30.4434   23.9070 H   0  0  0  0  0  0
  -27.2710  -33.3597   26.2074 H   0  0  0  0  0  0
  -28.3823  -32.6902   25.0219 H   0  0  0  0  0  0
  -28.0785  -31.8395   26.5280 H   0  0  0  0  0  0
  -28.2630  -38.0090   24.7529 H   0  0  0  0  0  0
  -28.1076  -36.2627   24.6313 H   0  0  0  0  0  0
  -27.2298  -37.1471   25.8871 H   0  0  0  0  0  0
  -20.9312  -29.8643   21.6909 H   0  0  0  0  0  0
  -26.0216  -38.2890   24.1386 H   0  0  0  0  0  0
  -27.8552  -23.4134   18.1605 H   0  0  0  0  0  0
  -27.6968  -20.1683   19.6299 H   0  0  0  0  0  0
  -27.4093  -21.1006   18.1682 H   0  0  0  0  0  0
  -28.9287  -20.2452   18.3575 H   0  0  0  0  0  0
  -30.8242  -22.9680   23.2163 H   0  0  0  0  0  0
  -31.7783  -24.1444   22.3093 H   0  0  0  0  0  0
  -32.0826  -22.4328   22.0824 H   0  0  0  0  0  0
  -28.8443  -20.3117   21.7613 H   0  0  0  0  0  0
  -30.4339  -20.7038   22.3187 H   0  0  0  0  0  0
  -28.0520  -25.8101   18.2524 H   0  0  0  0  0  0
  -29.6944  -26.2214   18.5794 H   0  0  0  0  0  0
  -30.2411  -17.0429   19.2979 H   0  0  0  0  0  0
  -31.6335  -16.9475   20.3462 H   0  0  0  0  0  0
  -30.4422  -18.0000   22.2093 H   0  0  0  0  0  0
  -28.9471  -17.9984   21.3095 H   0  0  0  0  0  0
  -29.1077  -15.4774   21.0351 H   0  0  0  0  0  0
  -31.3897  -19.5045   20.5967 H   0  0  0  0  0  0
  -30.0333  -19.4478   19.7063 H   0  0  0  0  0  0
  1 25  1  0  0  0
  1 30  2  0  0  0
  1 83  1  0  0  0
  2  3  1  0  0  0
  2 25  1  0  0  0
  2 85  1  0  0  0
  2 86  1  0  0  0
  3  4  1  0  0  0
  3 87  1  0  0  0
  3 88  1  0  0  0
  4  5  1  0  0  0
  4 89  1  0  0  0
  4 90  1  0  0  0
  5  6  1  0  0  0
  5 26  1  0  0  0
  5 91  1  0  0  0
  6 25  1  0  0  0
  6 92  1  0  0  0
  6 93  1  0  0  0
  7  8  2  0  0  0
  7 26  1  0  0  0
  7 29  1  0  0  0
  8  9  1  0  0  0
  8 22  1  0  0  0
  9 10  1  0  0  0
  9 27  2  0  0  0
 10 11  2  0  0  0
 10 15  1  0  0  0
 11 12  1  0  0  0
 11 94  1  0  0  0
 12 13  2  0  0  0
 12 95  1  0  0  0
 13 14  1  0  0  0
 13 31  1  0  0  0
 14 15  2  0  0  0
 14 96  1  0  0  0
 15 97  1  0  0  0
 16 17  2  0  0  0
 16 21  1  0  0  0
 16 31  1  0  0  0
 17 18  1  0  0  0
 17 98  1  0  0  0
 18 19  2  0  0  0
 18 99  1  0  0  0
 19 20  1  0  0  0
 19 24  1  0  0  0
 20 21  2  0  0  0
 20100  1  0  0  0
 21 23  1  0  0  0
 22 28  1  0  0  0
 22 32  2  0  0  0
 26 27  1  0  0  0
 28101  1  0  0  0
 28102  1  0  0  0
 29103  1  0  0  0
 29104  1  0  0  0
 33 34  1  0  0  0
 33 66  1  0  0  0
 33 70  2  0  0  0
 34 36  1  0  0  0
 34 59  1  0  0  0
 34105  1  0  0  0
 35 44  2  0  0  0
 35 45  1  0  0  0
 35 68  1  0  0  0
 36 56  1  0  0  0
 36106  1  0  0  0
 37 39  1  0  0  0
 37 47  1  0  0  0
 37 66  1  0  0  0
 37107  1  0  0  0
 38 43  2  0  0  0
 38 46  1  0  0  0
 38 47  1  0  0  0
 39 64  1  0  0  0
 39 67  2  0  0  0
 40 52  1  0  0  0
 40 53  2  0  0  0
 40 58  1  0  0  0
 41108  1  0  0  0
 41109  1  0  0  0
 41110  1  0  0  0
 41 48  1  0  0  0
 42 43  1  0  0  0
 42 66  1  0  0  0
 42111  1  0  0  0
 42112  1  0  0  0
 43 44  1  0  0  0
 44113  1  0  0  0
 45 46  2  0  0  0
 45114  1  0  0  0
 46115  1  0  0  0
 47116  1  0  0  0
 47117  1  0  0  0
 48 56  1  0  0  0
 48 65  1  0  0  0
 48118  1  0  0  0
 49 50  1  0  0  0
 49 53  1  0  0  0
 49 64  1  0  0  0
 49119  1  0  0  0
 50 51  1  0  0  0
 50120  1  0  0  0
 50121  1  0  0  0
 51 52  1  0  0  0
 51122  1  0  0  0
 51123  1  0  0  0
 52124  1  0  0  0
 52125  1  0  0  0
 53 54  1  0  0  0
 54 55  2  0  0  0
 54126  1  0  0  0
 55 57  1  0  0  0
 55127  1  0  0  0
 56 69  2  0  0  0
 57 58  2  0  0  0
 57128  1  0  0  0
 58129  1  0  0  0
 59 60  1  0  0  0
 59 61  1  0  0  0
 59 62  1  0  0  0
 60130  1  0  0  0
 60131  1  0  0  0
 60132  1  0  0  0
 61133  1  0  0  0
 61134  1  0  0  0
 61135  1  0  0  0
 62136  1  0  0  0
 62137  1  0  0  0
 62138  1  0  0  0
 63 65  1  0  0  0
 63139  1  0  0  0
 63140  1  0  0  0
 63141  1  0  0  0
 64142  1  0  0  0
 65143  1  0  0  0
 68 79  1  0  0  0
 71 72  2  0  0  0
 71 74  1  0  0  0
 71144  1  0  0  0
 72 73  1  0  0  0
 72 76  1  0  0  0
 73 75  2  0  0  0
 73 78  1  0  0  0
 74 79  1  0  0  0
 74 82  2  0  0  0
 75 77  1  0  0  0
 75 82  1  0  0  0
 76145  1  0  0  0
 76146  1  0  0  0
 76147  1  0  0  0
 77148  1  0  0  0
 77149  1  0  0  0
 77150  1  0  0  0
 78 84  1  0  0  0
 78151  1  0  0  0
 78152  1  0  0  0
 79153  1  0  0  0
 79154  1  0  0  0
 80 81  1  0  0  0
 80 83  1  0  0  0
 80155  1  0  0  0
 80156  1  0  0  0
 81 84  1  0  0  0
 81157  1  0  0  0
 81158  1  0  0  0
 83159  1  0  0  0
 84160  1  0  0  0
 84161  1  0  0  0
M  CHG  1  84   1
M  ISO  4   1 100  68 101  79 101  83 100
M  END
> <chiral flag>
0

> <version>
0

> <s_m_source_file>
/data/baiqing/PycharmProjects/Reinvent-master-3.2/result/LINK_invent/BTK/process_docking_weight1_custom_sum_contain_oxygen_bond_distance_aromatic_linkinvent_7_9_3/rearranged_h_0128.sdf

> <i_m_source_file_index>
8

> <r_mmod_Potential_Energy-OPLS-2005>
-355.218597412109

> <r_mmod_Stretch_Energy-OPLS-2005>
39.6607055664062

> <r_mmod_Bend_Energy-OPLS-2005>
106.81273651123

> <r_mmod_Torsional_Energy-OPLS-2005>
211.250289916992

> <r_mmod_Improper_Torsional_Energy-OPLS-2005>
7.8028359413147

> <r_mmod_Van_der_Waal_Energy-OPLS-2005>
157.996643066406

> <r_mmod_Electrostatic_Energy-OPLS-2005>
-390.722686767578

> <r_mmod_Solvation_Energy-OPLS-2005>
-505.483489990234

> <b_mmod_Minimization_Converged-OPLS-2005>
0

> <r_mmod_RMS_Derivative-OPLS-2005>
6.05202007293701

$$$$
8
                    3D
 Structure written by MMmdl.
164173  0  0  1  0            999 V2000
  -30.6874  -14.8651   20.4388 C   0  0  0  0  0  0
  -30.4047  -12.5539   19.4800 C   0  0  0  0  0  0
  -29.4972  -12.5159   18.2367 C   0  0  0  0  0  0
  -28.0344  -12.3123   18.6657 C   0  0  0  0  0  0
  -27.6207  -13.2541   19.8273 C   0  0  2  0  0  0
  -28.6719  -13.3200   20.9576 C   0  0  0  0  0  0
  -25.2417  -13.8228   20.5720 C   0  0  0  0  0  0
  -24.1748  -13.0440   20.9227 C   0  0  0  0  0  0
  -24.6375  -11.6925   20.8762 C   0  0  0  0  0  0
  -23.9071  -10.4290   21.0413 C   0  0  0  0  0  0
  -24.3623   -9.4202   21.9188 C   0  0  0  0  0  0
  -23.6290   -8.2228   22.0754 C   0  0  0  0  0  0
  -22.4274   -8.0270   21.3537 C   0  0  0  0  0  0
  -21.9905   -9.0251   20.4650 C   0  0  0  0  0  0
  -22.7241  -10.2126   20.3064 C   0  0  0  0  0  0
  -21.6850   -6.0724   22.5273 C   0  0  0  0  0  0
  -21.4009   -6.5628   23.8205 C   0  0  0  0  0  0
  -21.3665   -5.6786   24.9171 C   0  0  0  0  0  0
  -21.6051   -4.3047   24.7222 C   0  0  0  0  0  0
  -21.8815   -3.8135   23.4341 C   0  0  0  0  0  0
  -21.9187   -4.6951   22.3396 C   0  0  0  0  0  0
  -22.7773  -13.5209   21.1879 C   0  0  0  0  0  0
  -22.1663   -4.2135   21.0976 F   0  0  0  0  0  0
  -21.5635   -3.4531   25.7735 F   0  0  0  0  0  0
  -29.9441  -13.6940   20.3279 N   0  0  0  0  0  0
  -26.2851  -12.9479   20.3256 N   0  0  0  0  0  0
  -25.9310  -11.6603   20.5759 N   0  0  0  0  0  0
  -22.0423  -12.8206   22.0449 N   0  0  0  0  0  0
  -25.4019  -15.1956   20.4144 N   0  0  0  0  0  0
  -31.8987  -14.7346   20.2370 O   0  0  0  0  0  0
  -21.6635   -6.8872   21.4236 O   0  0  0  0  0  0
  -22.3456  -14.5501   20.6710 O   0  0  0  0  0  0
  -24.6399  -31.8491   23.1946 C   0  0  0  0  0  0
  -25.9194  -32.4719   23.8315 C   0  0  1  0  0  0
  -27.2042  -27.1823   20.1318 C   0  0  0  0  0  0
  -25.5962  -33.8528   24.2210 N   0  0  0  0  0  0
  -23.4407  -30.4740   21.5382 C   0  0  2  0  0  0
  -24.8870  -28.9192   20.1042 C   0  0  0  0  0  0
  -22.7554  -29.4566   22.4855 C   0  0  0  0  0  0
  -18.0308  -28.1407   22.8471 C   0  0  0  0  0  0
  -24.1485  -36.7264   23.2641 C   0  0  0  0  0  0
  -25.9958  -30.7365   21.3910 C   0  0  0  0  0  0
  -26.0638  -29.3552   20.7264 C   0  0  0  0  0  0
  -27.2250  -28.4999   20.7299 C   0  0  0  0  0  0
  -26.0045  -26.8519   19.4574 C   0  0  0  0  0  0
  -24.8680  -27.6797   19.4534 C   0  0  0  0  0  0
  -23.6638  -29.8158   20.1528 C   0  0  0  0  0  0
  -25.4112  -36.3046   24.0320 C   0  0  1  0  0  0
  -20.5920  -28.3719   23.1245 C   0  0  2  0  0  0
  -20.6789  -26.9423   22.5417 C   0  0  0  0  0  0
  -19.5774  -26.6388   21.5214 C   0  0  0  0  0  0
  -18.1948  -26.7950   22.1603 C   0  0  0  0  0  0
  -19.1566  -28.8876   23.2856 C   0  0  0  0  0  0
  -18.9477  -30.1478   23.8875 C   0  0  0  0  0  0
  -17.6468  -30.6599   24.0557 C   0  0  0  0  0  0
  -25.9067  -34.9419   23.5061 C   0  0  0  0  0  0
  -16.5364  -29.9083   23.6344 C   0  0  0  0  0  0
  -16.7298  -28.6515   23.0350 C   0  0  0  0  0  0
  -26.4512  -31.6585   25.0753 C   0  0  0  0  0  0
  -25.3690  -31.3817   26.1456 C   0  0  0  0  0  0
  -27.0326  -30.2953   24.6347 C   0  0  0  0  0  0
  -27.6069  -32.4322   25.7517 C   0  0  0  0  0  0
  -27.5585  -37.1778   24.8448 C   0  0  0  0  0  0
  -21.4252  -29.3042   22.3605 N   0  0  0  0  0  0
  -26.4271  -37.3759   23.9424 N   0  0  0  0  0  0
  -24.7114  -31.0392   22.0965 N   0  0  0  0  0  0
  -23.4219  -28.8106   23.2983 O   0  0  0  0  0  0
  -28.2396  -26.1928   20.2190 O   0  0  0  0  0  0
  -26.5637  -34.8906   22.4632 O   0  0  0  0  0  0
  -23.5526  -32.1343   23.7186 O   0  0  0  0  0  0
  -28.4288  -21.9605   20.1165 C   0  0  0  0  0  0
  -29.9159  -23.3102   21.0001 C   0  0  0  0  0  0
  -28.7247  -23.3953   20.3383 C   0  0  0  0  0  0
  -29.3823  -21.0652   20.6452 C   0  0  0  0  0  0
  -28.4940  -18.3549   20.5715 C   0  0  0  0  0  0
  -30.7343  -18.8043   19.9279 C   0  0  0  0  0  0
  -28.8550  -16.7930   20.8775 C   0  0  0  0  0  0
  -31.1798  -17.3348   20.3366 C   0  0  0  0  0  0
  -29.6108  -19.4517   20.7841 C   0  0  0  0  0  0
  -31.4551  -22.1107   23.3882 C   0  0  0  0  0  0
  -32.7776  -22.2406   21.2232 C   0  0  0  0  0  0
  -27.8743  -24.7252   19.9422 C   0  0  0  0  0  0
  -31.5437  -21.6471   21.9241 C   0  0  0  0  0  0
  -30.3126  -21.9745   21.1964 N   0  0  0  0  0  0
  -30.1792  -16.2066   20.4507 N   0  0  0  0  0  0
  -31.4456  -12.6411   19.1650 H   0  0  0  0  0  0
  -30.3469  -11.6133   20.0292 H   0  0  0  0  0  0
  -29.8084  -11.7171   17.5612 H   0  0  0  0  0  0
  -29.5943  -13.4491   17.6795 H   0  0  0  0  0  0
  -27.9294  -11.2736   18.9796 H   0  0  0  0  0  0
  -27.3673  -12.4457   17.8132 H   0  0  0  0  0  0
  -27.5706  -14.2448   19.3768 H   0  0  0  0  0  0
  -28.7535  -12.3639   21.4759 H   0  0  0  0  0  0
  -28.3864  -14.0571   21.7086 H   0  0  0  0  0  0
  -25.2765   -9.5673   22.4766 H   0  0  0  0  0  0
  -23.9996   -7.4617   22.7463 H   0  0  0  0  0  0
  -21.0828   -8.8769   19.8965 H   0  0  0  0  0  0
  -22.3696  -10.9658   19.6167 H   0  0  0  0  0  0
  -21.2002   -7.6140   23.9704 H   0  0  0  0  0  0
  -21.1502   -6.0520   25.9078 H   0  0  0  0  0  0
  -22.0590   -2.7598   23.2836 H   0  0  0  0  0  0
  -22.4039  -11.9885   22.4870 H   0  0  0  0  0  0
  -21.1048  -13.1235   22.2660 H   0  0  0  0  0  0
  -24.6286  -15.8419   20.5291 H   0  0  0  0  0  0
  -26.2473  -15.6421   20.0854 H   0  0  0  0  0  0
  -26.7268  -32.5314   23.1059 H   0  0  0  0  0  0
  -25.0103  -33.9646   25.0352 H   0  0  0  0  0  0
  -22.7435  -31.3013   21.3911 H   0  0  0  0  0  0
  -23.3757  -35.9584   23.3268 H   0  0  0  0  0  0
  -24.3594  -36.8928   22.2068 H   0  0  0  0  0  0
  -23.7220  -37.6446   23.6685 H   0  0  0  0  0  0
  -26.1536  -31.4988   20.6260 H   0  0  0  0  0  0
  -26.8663  -30.7752   22.0354 H   0  0  0  0  0  0
  -28.1170  -28.8227   21.2484 H   0  0  0  0  0  0
  -25.8949  -25.9144   18.9355 H   0  0  0  0  0  0
  -23.9736  -27.3479   18.9434 H   0  0  0  0  0  0
  -23.7973  -30.5952   19.4013 H   0  0  0  0  0  0
  -22.7797  -29.2579   19.8395 H   0  0  0  0  0  0
  -25.1299  -36.1865   25.0810 H   0  0  0  0  0  0
  -21.0019  -28.3298   24.1364 H   0  0  0  0  0  0
  -20.5661  -26.2333   23.3634 H   0  0  0  0  0  0
  -21.6660  -26.7421   22.1232 H   0  0  0  0  0  0
  -19.6929  -25.6286   21.1278 H   0  0  0  0  0  0
  -19.6734  -27.3172   20.6724 H   0  0  0  0  0  0
  -17.4228  -26.6714   21.3992 H   0  0  0  0  0  0
  -18.0325  -26.0101   22.9007 H   0  0  0  0  0  0
  -19.7944  -30.7307   24.2226 H   0  0  0  0  0  0
  -17.5021  -31.6270   24.5172 H   0  0  0  0  0  0
  -15.5359  -30.2969   23.7700 H   0  0  0  0  0  0
  -15.8702  -28.0842   22.7041 H   0  0  0  0  0  0
  -24.5879  -30.7141   25.7814 H   0  0  0  0  0  0
  -24.8864  -32.3011   26.4778 H   0  0  0  0  0  0
  -25.7978  -30.9087   27.0303 H   0  0  0  0  0  0
  -26.2923  -29.6710   24.1332 H   0  0  0  0  0  0
  -27.3867  -29.7246   25.4949 H   0  0  0  0  0  0
  -27.8890  -30.4152   23.9704 H   0  0  0  0  0  0
  -27.2697  -33.3641   26.2068 H   0  0  0  0  0  0
  -28.3901  -32.6844   25.0353 H   0  0  0  0  0  0
  -28.0714  -31.8455   26.5455 H   0  0  0  0  0  0
  -28.2565  -38.0114   24.7528 H   0  0  0  0  0  0
  -28.1110  -36.2639   24.6194 H   0  0  0  0  0  0
  -27.2329  -37.1348   25.8858 H   0  0  0  0  0  0
  -20.9436  -29.8775   21.6823 H   0  0  0  0  0  0
  -26.0134  -38.2821   24.1453 H   0  0  0  0  0  0
  -27.5418  -21.6097   19.6058 H   0  0  0  0  0  0
  -30.5311  -24.1154   21.3800 H   0  0  0  0  0  0
  -27.6335  -18.6235   21.1848 H   0  0  0  0  0  0
  -28.1354  -18.4299   19.5429 H   0  0  0  0  0  0
  -30.4366  -18.8101   18.8776 H   0  0  0  0  0  0
  -31.6191  -19.4389   19.9628 H   0  0  0  0  0  0
  -28.0649  -16.1798   20.4514 H   0  0  0  0  0  0
  -28.7908  -16.6395   21.9549 H   0  0  0  0  0  0
  -31.6913  -17.3948   21.2985 H   0  0  0  0  0  0
  -31.9527  -17.0630   19.6157 H   0  0  0  0  0  0
  -29.8988  -19.3063   21.8250 H   0  0  0  0  0  0
  -32.3436  -21.8126   23.9455 H   0  0  0  0  0  0
  -30.5921  -21.6733   23.8908 H   0  0  0  0  0  0
  -31.3706  -23.1951   23.4673 H   0  0  0  0  0  0
  -33.6946  -21.9390   21.7298 H   0  0  0  0  0  0
  -32.7577  -23.3311   21.2138 H   0  0  0  0  0  0
  -32.8469  -21.8996   20.1898 H   0  0  0  0  0  0
  -26.9060  -24.5439   20.4101 H   0  0  0  0  0  0
  -27.7100  -24.6420   18.8670 H   0  0  0  0  0  0
  -31.6780  -20.5693   21.9427 H   0  0  0  0  0  0
  1 25  1  0  0  0
  1 30  2  0  0  0
  1 85  1  0  0  0
  2  3  1  0  0  0
  2 25  1  0  0  0
  2 86  1  0  0  0
  2 87  1  0  0  0
  3  4  1  0  0  0
  3 88  1  0  0  0
  3 89  1  0  0  0
  4  5  1  0  0  0
  4 90  1  0  0  0
  4 91  1  0  0  0
  5  6  1  0  0  0
  5 26  1  0  0  0
  5 92  1  0  0  0
  6 25  1  0  0  0
  6 93  1  0  0  0
  6 94  1  0  0  0
  7  8  2  0  0  0
  7 26  1  0  0  0
  7 29  1  0  0  0
  8  9  1  0  0  0
  8 22  1  0  0  0
  9 10  1  0  0  0
  9 27  2  0  0  0
 10 11  2  0  0  0
 10 15  1  0  0  0
 11 12  1  0  0  0
 11 95  1  0  0  0
 12 13  2  0  0  0
 12 96  1  0  0  0
 13 14  1  0  0  0
 13 31  1  0  0  0
 14 15  2  0  0  0
 14 97  1  0  0  0
 15 98  1  0  0  0
 16 17  2  0  0  0
 16 21  1  0  0  0
 16 31  1  0  0  0
 17 18  1  0  0  0
 17 99  1  0  0  0
 18 19  2  0  0  0
 18100  1  0  0  0
 19 20  1  0  0  0
 19 24  1  0  0  0
 20 21  2  0  0  0
 20101  1  0  0  0
 21 23  1  0  0  0
 22 28  1  0  0  0
 22 32  2  0  0  0
 26 27  1  0  0  0
 28102  1  0  0  0
 28103  1  0  0  0
 29104  1  0  0  0
 29105  1  0  0  0
 33 34  1  0  0  0
 33 66  1  0  0  0
 33 70  2  0  0  0
 34 36  1  0  0  0
 34 59  1  0  0  0
 34106  1  0  0  0
 35 44  2  0  0  0
 35 45  1  0  0  0
 35 68  1  0  0  0
 36 56  1  0  0  0
 36107  1  0  0  0
 37 39  1  0  0  0
 37 47  1  0  0  0
 37 66  1  0  0  0
 37108  1  0  0  0
 38 43  2  0  0  0
 38 46  1  0  0  0
 38 47  1  0  0  0
 39 64  1  0  0  0
 39 67  2  0  0  0
 40 52  1  0  0  0
 40 53  2  0  0  0
 40 58  1  0  0  0
 41109  1  0  0  0
 41110  1  0  0  0
 41111  1  0  0  0
 41 48  1  0  0  0
 42 43  1  0  0  0
 42 66  1  0  0  0
 42112  1  0  0  0
 42113  1  0  0  0
 43 44  1  0  0  0
 44114  1  0  0  0
 45 46  2  0  0  0
 45115  1  0  0  0
 46116  1  0  0  0
 47117  1  0  0  0
 47118  1  0  0  0
 48 56  1  0  0  0
 48 65  1  0  0  0
 48119  1  0  0  0
 49 50  1  0  0  0
 49 53  1  0  0  0
 49 64  1  0  0  0
 49120  1  0  0  0
 50 51  1  0  0  0
 50121  1  0  0  0
 50122  1  0  0  0
 51 52  1  0  0  0
 51123  1  0  0  0
 51124  1  0  0  0
 52125  1  0  0  0
 52126  1  0  0  0
 53 54  1  0  0  0
 54 55  2  0  0  0
 54127  1  0  0  0
 55 57  1  0  0  0
 55128  1  0  0  0
 56 69  2  0  0  0
 57 58  2  0  0  0
 57129  1  0  0  0
 58130  1  0  0  0
 59 60  1  0  0  0
 59 61  1  0  0  0
 59 62  1  0  0  0
 60131  1  0  0  0
 60132  1  0  0  0
 60133  1  0  0  0
 61134  1  0  0  0
 61135  1  0  0  0
 61136  1  0  0  0
 62137  1  0  0  0
 62138  1  0  0  0
 62139  1  0  0  0
 63 65  1  0  0  0
 63140  1  0  0  0
 63141  1  0  0  0
 63142  1  0  0  0
 64143  1  0  0  0
 65144  1  0  0  0
 68 82  1  0  0  0
 71 73  1  0  0  0
 71 74  2  0  0  0
 71145  1  0  0  0
 72 73  2  0  0  0
 72 84  1  0  0  0
 72146  1  0  0  0
 73 82  1  0  0  0
 74 84  1  0  0  0
 74 79  1  0  0  0
 75 77  1  0  0  0
 75 79  1  0  0  0
 75147  1  0  0  0
 75148  1  0  0  0
 76 78  1  0  0  0
 76 79  1  0  0  0
 76149  1  0  0  0
 76150  1  0  0  0
 77 85  1  0  0  0
 77151  1  0  0  0
 77152  1  0  0  0
 78 85  1  0  0  0
 78153  1  0  0  0
 78154  1  0  0  0
 79155  1  0  0  0
 80156  1  0  0  0
 80157  1  0  0  0
 80158  1  0  0  0
 80 83  1  0  0  0
 81 83  1  0  0  0
 81159  1  0  0  0
 81160  1  0  0  0
 81161  1  0  0  0
 82162  1  0  0  0
 82163  1  0  0  0
 83 84  1  0  0  0
 83164  1  0  0  0
M  ISO  4   1 100  68 101  82 101  85 100
M  END
> <chiral flag>
0

> <version>
0

> <s_m_source_file>
/data/baiqing/PycharmProjects/Reinvent-master-3.2/result/LINK_invent/BTK/process_docking_weight1_custom_sum_contain_oxygen_bond_distance_aromatic_linkinvent_7_9_3/rearranged_h_0128.sdf

> <i_m_source_file_index>
9

> <r_mmod_Potential_Energy-OPLS-2005>
592.084777832031

> <r_mmod_Stretch_Energy-OPLS-2005>
188.379516601562

> <r_mmod_Bend_Energy-OPLS-2005>
269.479949951172

> <r_mmod_Torsional_Energy-OPLS-2005>
331.690704345703

> <r_mmod_Improper_Torsional_Energy-OPLS-2005>
8.56469821929932

> <r_mmod_Van_der_Waal_Energy-OPLS-2005>
130.647430419922

> <r_mmod_Electrostatic_Energy-OPLS-2005>
-294.839141845703

> <r_mmod_Solvation_Energy-OPLS-2005>
-202.077331542969

> <b_mmod_Minimization_Converged-OPLS-2005>
0

> <r_mmod_RMS_Derivative-OPLS-2005>
1.88451254367828

$$$$
9
                    3D
 Structure written by MMmdl.
171179  0  0  1  0            999 V2000
  -30.6685  -14.5228   20.6406 C   0  0  0  0  0  0
  -30.4430  -12.3700   19.4025 C   0  0  0  0  0  0
  -29.4999  -12.5467   18.1909 C   0  0  0  0  0  0
  -28.0215  -12.3847   18.6068 C   0  0  0  0  0  0
  -27.6660  -13.2041   19.8757 C   0  0  2  0  0  0
  -28.7095  -12.9639   20.9895 C   0  0  0  0  0  0
  -25.2633  -13.8124   20.5648 C   0  0  0  0  0  0
  -24.1862  -13.0418   20.9140 C   0  0  0  0  0  0
  -24.6415  -11.6881   20.8675 C   0  0  0  0  0  0
  -23.9075  -10.4287   21.0374 C   0  0  0  0  0  0
  -24.3622   -9.4201   21.9146 C   0  0  0  0  0  0
  -23.6293   -8.2234   22.0745 C   0  0  0  0  0  0
  -22.4266   -8.0283   21.3551 C   0  0  0  0  0  0
  -21.9915   -9.0236   20.4632 C   0  0  0  0  0  0
  -22.7245  -10.2112   20.3025 C   0  0  0  0  0  0
  -21.6869   -6.0714   22.5274 C   0  0  0  0  0  0
  -21.4012   -6.5622   23.8197 C   0  0  0  0  0  0
  -21.3651   -5.6786   24.9164 C   0  0  0  0  0  0
  -21.6048   -4.3058   24.7225 C   0  0  0  0  0  0
  -21.8824   -3.8136   23.4367 C   0  0  0  0  0  0
  -21.9199   -4.6944   22.3416 C   0  0  0  0  0  0
  -22.7901  -13.5230   21.1796 C   0  0  0  0  0  0
  -22.1668   -4.2133   21.1003 F   0  0  0  0  0  0
  -21.5630   -3.4553   25.7746 F   0  0  0  0  0  0
  -30.0327  -13.3248   20.4476 N   0  0  0  0  0  0
  -26.3058  -12.9281   20.3340 N   0  0  0  0  0  0
  -25.9343  -11.6457   20.5722 N   0  0  0  0  0  0
  -22.0552  -12.8201   22.0354 N   0  0  0  0  0  0
  -25.4383  -15.1824   20.4073 N   0  0  0  0  0  0
  -31.7704  -14.7781   20.1488 O   0  0  0  0  0  0
  -21.6660   -6.8849   21.4238 O   0  0  0  0  0  0
  -22.3610  -14.5548   20.6671 O   0  0  0  0  0  0
  -24.6220  -31.8628   23.2025 C   0  0  0  0  0  0
  -25.9069  -32.4799   23.8346 C   0  0  1  0  0  0
  -27.2118  -27.3499   20.1580 C   0  0  0  0  0  0
  -25.5877  -33.8601   24.2257 N   0  0  0  0  0  0
  -23.4165  -30.4840   21.5449 C   0  0  2  0  0  0
  -24.8629  -28.9441   20.1157 C   0  0  0  0  0  0
  -22.7495  -29.4612   22.4954 C   0  0  0  0  0  0
  -18.0297  -28.1414   22.8466 C   0  0  0  0  0  0
  -24.1506  -36.7268   23.2632 C   0  0  0  0  0  0
  -25.9534  -30.8058   21.3684 C   0  0  0  0  0  0
  -26.0250  -29.4319   20.7292 C   0  0  0  0  0  0
  -27.2041  -28.6414   20.7502 C   0  0  0  0  0  0
  -26.0445  -26.9072   19.5008 C   0  0  0  0  0  0
  -24.8726  -27.6852   19.4916 C   0  0  0  0  0  0
  -23.6283  -29.8181   20.1616 C   0  0  0  0  0  0
  -25.4146  -36.3089   24.0313 C   0  0  1  0  0  0
  -20.5893  -28.3724   23.1321 C   0  0  2  0  0  0
  -20.6811  -26.9433   22.5475 C   0  0  0  0  0  0
  -19.5812  -26.6399   21.5254 C   0  0  0  0  0  0
  -18.1940  -26.7966   22.1588 C   0  0  0  0  0  0
  -19.1535  -28.8877   23.2869 C   0  0  0  0  0  0
  -18.9477  -30.1453   23.8946 C   0  0  0  0  0  0
  -17.6491  -30.6599   24.0590 C   0  0  0  0  0  0
  -25.9102  -34.9471   23.5101 C   0  0  0  0  0  0
  -16.5372  -29.9128   23.6358 C   0  0  0  0  0  0
  -16.7290  -28.6549   23.0383 C   0  0  0  0  0  0
  -26.4453  -31.6605   25.0713 C   0  0  0  0  0  0
  -25.3622  -31.3770   26.1420 C   0  0  0  0  0  0
  -27.0278  -30.3056   24.6069 C   0  0  0  0  0  0
  -27.6119  -32.4302   25.7366 C   0  0  0  0  0  0
  -27.5626  -37.1707   24.8404 C   0  0  0  0  0  0
  -21.4204  -29.3024   22.3687 N   0  0  0  0  0  0
  -26.4289  -37.3813   23.9443 N   0  0  0  0  0  0
  -24.6824  -31.0690   22.0958 N   0  0  0  0  0  0
  -23.4213  -28.8188   23.3074 O   0  0  0  0  0  0
  -28.2990  -26.4908   20.1900 O   0  0  0  0  0  0
  -26.5685  -34.8911   22.4687 O   0  0  0  0  0  0
  -23.5374  -32.1424   23.7369 O   0  0  0  0  0  0
  -26.4889  -22.4274   21.8822 C   0  0  0  0  0  0
  -27.4252  -21.5079   21.0893 C   0  0  0  0  0  0
  -29.2304  -23.2383   21.0952 C   0  0  0  0  0  0
  -26.7530  -23.9404   21.6698 C   0  0  2  0  0  0
  -28.2730  -24.3183   21.7520 C   0  0  2  0  0  0
  -28.8816  -21.7606   21.5148 C   0  0  2  0  0  0
  -24.3280  -24.5355   22.3878 C   0  0  0  0  0  0
  -26.1511  -24.6629   24.1244 C   0  0  0  0  0  0
  -28.6010  -25.8531   21.4667 C   0  0  0  0  0  0
  -30.0757  -18.0439   21.0047 C   0  0  0  0  0  0
  -30.2751  -16.7701   21.9148 C   0  0  0  0  0  0
  -29.8057  -19.3813   21.8026 C   0  0  0  0  0  0
  -25.8334  -24.7882   22.6136 C   0  0  0  0  0  0
  -29.9539  -15.4283   21.3518 N   0  0  0  0  0  0
  -29.7991  -20.6715   21.0131 N   0  3  0  0  0  0
  -31.4798  -12.5178   19.0929 H   0  0  0  0  0  0
  -30.3863  -11.3496   19.7790 H   0  0  0  0  0  0
  -29.7455  -11.8226   17.4122 H   0  0  0  0  0  0
  -29.6488  -13.5332   17.7475 H   0  0  0  0  0  0
  -27.8367  -11.3241   18.7801 H   0  0  0  0  0  0
  -27.3704  -12.6767   17.7807 H   0  0  0  0  0  0
  -27.7148  -14.2567   19.6001 H   0  0  0  0  0  0
  -28.7118  -11.9147   21.2855 H   0  0  0  0  0  0
  -28.4485  -13.5134   21.8948 H   0  0  0  0  0  0
  -25.2773   -9.5690   22.4717 H   0  0  0  0  0  0
  -24.0006   -7.4654   22.7476 H   0  0  0  0  0  0
  -21.0845   -8.8746   19.8948 H   0  0  0  0  0  0
  -22.3693  -10.9643   19.6132 H   0  0  0  0  0  0
  -21.1996   -7.6130   23.9688 H   0  0  0  0  0  0
  -21.1464   -6.0528   25.9058 H   0  0  0  0  0  0
  -22.0608   -2.7607   23.2883 H   0  0  0  0  0  0
  -22.4201  -11.9875   22.4726 H   0  0  0  0  0  0
  -21.1148  -13.1190   22.2517 H   0  0  0  0  0  0
  -24.6716  -15.8402   20.4926 H   0  0  0  0  0  0
  -26.2978  -15.6183   20.0970 H   0  0  0  0  0  0
  -26.7137  -32.5490   23.1089 H   0  0  0  0  0  0
  -24.9958  -33.9774   25.0341 H   0  0  0  0  0  0
  -22.7070  -31.3000   21.3970 H   0  0  0  0  0  0
  -23.3823  -35.9520   23.3232 H   0  0  0  0  0  0
  -24.3586  -36.9040   22.2051 H   0  0  0  0  0  0
  -23.7203  -37.6394   23.6773 H   0  0  0  0  0  0
  -26.0659  -31.5532   20.5804 H   0  0  0  0  0  0
  -26.8405  -30.8715   21.9849 H   0  0  0  0  0  0
  -28.0995  -28.9954   21.2420 H   0  0  0  0  0  0
  -26.0340  -25.9346   19.0287 H   0  0  0  0  0  0
  -23.9800  -27.3106   19.0050 H   0  0  0  0  0  0
  -23.7341  -30.5947   19.4050 H   0  0  0  0  0  0
  -22.7484  -29.2391   19.8731 H   0  0  0  0  0  0
  -25.1299  -36.1920   25.0799 H   0  0  0  0  0  0
  -20.9954  -28.3333   24.1456 H   0  0  0  0  0  0
  -20.5830  -26.2303   23.3676 H   0  0  0  0  0  0
  -21.6665  -26.7516   22.1181 H   0  0  0  0  0  0
  -19.7032  -25.6327   21.1273 H   0  0  0  0  0  0
  -19.6838  -27.3236   20.6806 H   0  0  0  0  0  0
  -17.4266  -26.6830   21.3910 H   0  0  0  0  0  0
  -18.0212  -26.0074   22.8936 H   0  0  0  0  0  0
  -19.7940  -30.7216   24.2403 H   0  0  0  0  0  0
  -17.5046  -31.6300   24.5163 H   0  0  0  0  0  0
  -15.5380  -30.3057   23.7673 H   0  0  0  0  0  0
  -15.8676  -28.0876   22.7138 H   0  0  0  0  0  0
  -24.5976  -30.6882   25.7809 H   0  0  0  0  0  0
  -24.8490  -32.2885   26.4501 H   0  0  0  0  0  0
  -25.7859  -30.9296   27.0423 H   0  0  0  0  0  0
  -26.2839  -29.6770   24.1154 H   0  0  0  0  0  0
  -27.4171  -29.7321   25.4479 H   0  0  0  0  0  0
  -27.8602  -30.4400   23.9157 H   0  0  0  0  0  0
  -27.2904  -33.3722   26.1792 H   0  0  0  0  0  0
  -28.3900  -32.6662   25.0099 H   0  0  0  0  0  0
  -28.0769  -31.8473   26.5311 H   0  0  0  0  0  0
  -28.2493  -38.0137   24.7688 H   0  0  0  0  0  0
  -28.1290  -36.2702   24.5955 H   0  0  0  0  0  0
  -27.2369  -37.1022   25.8794 H   0  0  0  0  0  0
  -20.9451  -29.8669   21.6785 H   0  0  0  0  0  0
  -26.0173  -38.2859   24.1649 H   0  0  0  0  0  0
  -26.5788  -22.1650   22.9361 H   0  0  0  0  0  0
  -25.4613  -22.1941   21.6048 H   0  0  0  0  0  0
  -27.3045  -21.6765   20.0173 H   0  0  0  0  0  0
  -27.1313  -20.4733   21.2697 H   0  0  0  0  0  0
  -30.2520  -23.4522   21.4147 H   0  0  0  0  0  0
  -29.2250  -23.3415   20.0086 H   0  0  0  0  0  0
  -26.4546  -24.1574   20.6442 H   0  0  0  0  0  0
  -28.5265  -24.2077   22.8054 H   0  0  0  0  0  0
  -28.9350  -21.7212   22.6049 H   0  0  0  0  0  0
  -24.0794  -24.4637   21.3299 H   0  0  0  0  0  0
  -23.7291  -25.3518   22.7956 H   0  0  0  0  0  0
  -23.9902  -23.6205   22.8785 H   0  0  0  0  0  0
  -27.1607  -24.9941   24.3730 H   0  0  0  0  0  0
  -26.0405  -23.6445   24.5004 H   0  0  0  0  0  0
  -25.4736  -25.2804   24.7140 H   0  0  0  0  0  0
  -29.6698  -25.9957   21.6247 H   0  0  0  0  0  0
  -28.1535  -26.4420   22.2670 H   0  0  0  0  0  0
  -29.2579  -17.8781   20.3033 H   0  0  0  0  0  0
  -30.9757  -18.1587   20.4003 H   0  0  0  0  0  0
  -29.6030  -16.8766   22.7679 H   0  0  0  0  0  0
  -31.2738  -16.7601   22.3476 H   0  0  0  0  0  0
  -30.5471  -19.4859   22.5951 H   0  0  0  0  0  0
  -28.8547  -19.2750   22.3247 H   0  0  0  0  0  0
  -25.9767  -25.8307   22.3390 H   0  0  0  0  0  0
  -29.0971  -15.0287   21.7077 H   0  0  0  0  0  0
  -30.7438  -21.0243   21.0399 H   0  0  0  0  0  0
  -29.5895  -20.4899   20.0456 H   0  0  0  0  0  0
  1 25  1  0  0  0
  1 30  2  0  0  0
  1 84  1  0  0  0
  2  3  1  0  0  0
  2 25  1  0  0  0
  2 86  1  0  0  0
  2 87  1  0  0  0
  3  4  1  0  0  0
  3 88  1  0  0  0
  3 89  1  0  0  0
  4  5  1  0  0  0
  4 90  1  0  0  0
  4 91  1  0  0  0
  5  6  1  0  0  0
  5 26  1  0  0  0
  5 92  1  0  0  0
  6 25  1  0  0  0
  6 93  1  0  0  0
  6 94  1  0  0  0
  7  8  2  0  0  0
  7 26  1  0  0  0
  7 29  1  0  0  0
  8  9  1  0  0  0
  8 22  1  0  0  0
  9 10  1  0  0  0
  9 27  2  0  0  0
 10 11  2  0  0  0
 10 15  1  0  0  0
 11 12  1  0  0  0
 11 95  1  0  0  0
 12 13  2  0  0  0
 12 96  1  0  0  0
 13 14  1  0  0  0
 13 31  1  0  0  0
 14 15  2  0  0  0
 14 97  1  0  0  0
 15 98  1  0  0  0
 16 17  2  0  0  0
 16 21  1  0  0  0
 16 31  1  0  0  0
 17 18  1  0  0  0
 17 99  1  0  0  0
 18 19  2  0  0  0
 18100  1  0  0  0
 19 20  1  0  0  0
 19 24  1  0  0  0
 20 21  2  0  0  0
 20101  1  0  0  0
 21 23  1  0  0  0
 22 28  1  0  0  0
 22 32  2  0  0  0
 26 27  1  0  0  0
 28102  1  0  0  0
 28103  1  0  0  0
 29104  1  0  0  0
 29105  1  0  0  0
 33 34  1  0  0  0
 33 66  1  0  0  0
 33 70  2  0  0  0
 34 36  1  0  0  0
 34 59  1  0  0  0
 34106  1  0  0  0
 35 44  2  0  0  0
 35 45  1  0  0  0
 35 68  1  0  0  0
 36 56  1  0  0  0
 36107  1  0  0  0
 37 39  1  0  0  0
 37 47  1  0  0  0
 37 66  1  0  0  0
 37108  1  0  0  0
 38 43  2  0  0  0
 38 46  1  0  0  0
 38 47  1  0  0  0
 39 64  1  0  0  0
 39 67  2  0  0  0
 40 52  1  0  0  0
 40 53  2  0  0  0
 40 58  1  0  0  0
 41109  1  0  0  0
 41110  1  0  0  0
 41111  1  0  0  0
 41 48  1  0  0  0
 42 43  1  0  0  0
 42 66  1  0  0  0
 42112  1  0  0  0
 42113  1  0  0  0
 43 44  1  0  0  0
 44114  1  0  0  0
 45 46  2  0  0  0
 45115  1  0  0  0
 46116  1  0  0  0
 47117  1  0  0  0
 47118  1  0  0  0
 48 56  1  0  0  0
 48 65  1  0  0  0
 48119  1  0  0  0
 49 50  1  0  0  0
 49 53  1  0  0  0
 49 64  1  0  0  0
 49120  1  0  0  0
 50 51  1  0  0  0
 50121  1  0  0  0
 50122  1  0  0  0
 51 52  1  0  0  0
 51123  1  0  0  0
 51124  1  0  0  0
 52125  1  0  0  0
 52126  1  0  0  0
 53 54  1  0  0  0
 54 55  2  0  0  0
 54127  1  0  0  0
 55 57  1  0  0  0
 55128  1  0  0  0
 56 69  2  0  0  0
 57 58  2  0  0  0
 57129  1  0  0  0
 58130  1  0  0  0
 59 60  1  0  0  0
 59 61  1  0  0  0
 59 62  1  0  0  0
 60131  1  0  0  0
 60132  1  0  0  0
 60133  1  0  0  0
 61134  1  0  0  0
 61135  1  0  0  0
 61136  1  0  0  0
 62137  1  0  0  0
 62138  1  0  0  0
 62139  1  0  0  0
 63 65  1  0  0  0
 63140  1  0  0  0
 63141  1  0  0  0
 63142  1  0  0  0
 64143  1  0  0  0
 65144  1  0  0  0
 68 79  1  0  0  0
 71 72  1  0  0  0
 71145  1  0  0  0
 71146  1  0  0  0
 71 74  1  0  0  0
 72 76  1  0  0  0
 72147  1  0  0  0
 72148  1  0  0  0
 73 75  1  0  0  0
 73 76  1  0  0  0
 73149  1  0  0  0
 73150  1  0  0  0
 74 75  1  0  0  0
 74 83  1  0  0  0
 74151  1  0  0  0
 75 79  1  0  0  0
 75152  1  0  0  0
 76 85  1  0  0  0
 76153  1  0  0  0
 77154  1  0  0  0
 77155  1  0  0  0
 77156  1  0  0  0
 77 83  1  0  0  0
 78 83  1  0  0  0
 78157  1  0  0  0
 78158  1  0  0  0
 78159  1  0  0  0
 79160  1  0  0  0
 79161  1  0  0  0
 80 81  1  0  0  0
 80 82  1  0  0  0
 80162  1  0  0  0
 80163  1  0  0  0
 81 84  1  0  0  0
 81164  1  0  0  0
 81165  1  0  0  0
 82 85  1  0  0  0
 82166  1  0  0  0
 82167  1  0  0  0
 83168  1  0  0  0
 84169  1  0  0  0
 85170  1  0  0  0
 85171  1  0  0  0
M  CHG  1  85   1
M  ISO  4   1 100  68 101  79 101  84 100
M  END
> <chiral flag>
0

> <version>
0

> <s_m_source_file>
/data/baiqing/PycharmProjects/Reinvent-master-3.2/result/LINK_invent/BTK/process_docking_weight1_custom_sum_contain_oxygen_bond_distance_aromatic_linkinvent_7_9_3/rearranged_h_0128.sdf

> <i_m_source_file_index>
10

> <r_mmod_Potential_Energy-OPLS-2005>
-83.7365570068359

> <r_mmod_Stretch_Energy-OPLS-2005>
65.6234588623047

> <r_mmod_Bend_Energy-OPLS-2005>
151.410919189453

> <r_mmod_Torsional_Energy-OPLS-2005>
270.699035644531

> <r_mmod_Improper_Torsional_Energy-OPLS-2005>
2.62372589111328

> <r_mmod_Van_der_Waal_Energy-OPLS-2005>
113.377449035645

> <r_mmod_Electrostatic_Energy-OPLS-2005>
-260.531494140625

> <r_mmod_Solvation_Energy-OPLS-2005>
-458.380310058594

> <b_mmod_Minimization_Converged-OPLS-2005>
0

> <r_mmod_RMS_Derivative-OPLS-2005>
6.64740037918091

$$$$
10
                    3D
 Structure written by MMmdl.
166175  0  0  1  0            999 V2000
  -30.4842  -15.4624   20.1799 C   0  0  0  0  0  0
  -30.4554  -12.9619   19.4282 C   0  0  0  0  0  0
  -29.5375  -12.5666   18.2524 C   0  0  0  0  0  0
  -28.1114  -12.2698   18.7411 C   0  0  0  0  0  0
  -27.6166  -13.2974   19.7839 C   0  0  2  0  0  0
  -28.6879  -13.6194   20.8517 C   0  0  0  0  0  0
  -25.2485  -13.8282   20.5840 C   0  0  0  0  0  0
  -24.1828  -13.0424   20.9284 C   0  0  0  0  0  0
  -24.6508  -11.6923   20.8777 C   0  0  0  0  0  0
  -23.9181  -10.4281   21.0387 C   0  0  0  0  0  0
  -24.3658   -9.4162   21.9167 C   0  0  0  0  0  0
  -23.6339   -8.2215   22.0729 C   0  0  0  0  0  0
  -22.4297   -8.0278   21.3508 C   0  0  0  0  0  0
  -21.9952   -9.0280   20.4613 C   0  0  0  0  0  0
  -22.7301  -10.2138   20.3029 C   0  0  0  0  0  0
  -21.6853   -6.0763   22.5268 C   0  0  0  0  0  0
  -21.4082   -6.5648   23.8221 C   0  0  0  0  0  0
  -21.3689   -5.6769   24.9174 C   0  0  0  0  0  0
  -21.6057   -4.3022   24.7203 C   0  0  0  0  0  0
  -21.8814   -3.8155   23.4308 C   0  0  0  0  0  0
  -21.9169   -4.6974   22.3392 C   0  0  0  0  0  0
  -22.7796  -13.5167   21.1795 C   0  0  0  0  0  0
  -22.1598   -4.2195   21.0952 F   0  0  0  0  0  0
  -21.5588   -3.4484   25.7705 F   0  0  0  0  0  0
  -29.8472  -14.1709   20.1025 N   0  0  0  0  0  0
  -26.2974  -12.9610   20.3258 N   0  0  0  0  0  0
  -25.9496  -11.6683   20.5707 N   0  0  0  0  0  0
  -22.0309  -12.8311   22.0375 N   0  0  0  0  0  0
  -25.4026  -15.2011   20.4350 N   0  0  0  0  0  0
  -31.7025  -15.2988   20.3396 O   0  0  0  0  0  0
  -21.6645   -6.8892   21.4220 O   0  0  0  0  0  0
  -22.3484  -14.5394   20.6442 O   0  0  0  0  0  0
  -24.6797  -31.8082   23.1578 C   0  0  0  0  0  0
  -25.9385  -32.4515   23.8105 C   0  0  1  0  0  0
  -27.2415  -26.8160   20.1271 C   0  0  0  0  0  0
  -25.5972  -33.8332   24.1992 N   0  0  0  0  0  0
  -23.4969  -30.4159   21.5111 C   0  0  2  0  0  0
  -24.9485  -28.7731   20.1105 C   0  0  0  0  0  0
  -22.7737  -29.4385   22.4736 C   0  0  0  0  0  0
  -18.0319  -28.1401   22.8442 C   0  0  0  0  0  0
  -24.1485  -36.7183   23.2653 C   0  0  0  0  0  0
  -26.0738  -30.5685   21.4017 C   0  0  0  0  0  0
  -26.1398  -29.1472   20.7425 C   0  0  0  0  0  0
  -27.2691  -28.1870   20.7323 C   0  0  0  0  0  0
  -26.0128  -26.6277   19.4494 C   0  0  0  0  0  0
  -24.9147  -27.5315   19.4528 C   0  0  0  0  0  0
  -23.7410  -29.7195   20.1421 C   0  0  0  0  0  0
  -25.4121  -36.2922   24.0292 C   0  0  1  0  0  0
  -20.5955  -28.3760   23.1156 C   0  0  2  0  0  0
  -20.6771  -26.9429   22.5399 C   0  0  0  0  0  0
  -19.5760  -26.6367   21.5191 C   0  0  0  0  0  0
  -18.1943  -26.7933   22.1603 C   0  0  0  0  0  0
  -19.1587  -28.8892   23.2784 C   0  0  0  0  0  0
  -18.9484  -30.1475   23.8821 C   0  0  0  0  0  0
  -17.6489  -30.6602   24.0537 C   0  0  0  0  0  0
  -25.9098  -34.9304   23.4999 C   0  0  0  0  0  0
  -16.5370  -29.9089   23.6329 C   0  0  0  0  0  0
  -16.7306  -28.6505   23.0359 C   0  0  0  0  0  0
  -26.4560  -31.6516   25.0703 C   0  0  0  0  0  0
  -25.3662  -31.3809   26.1357 C   0  0  0  0  0  0
  -27.0475  -30.2875   24.6537 C   0  0  0  0  0  0
  -27.6041  -32.4326   25.7528 C   0  0  0  0  0  0
  -27.5564  -37.1739   24.8446 C   0  0  0  0  0  0
  -21.4389  -29.3054   22.3512 N   0  0  0  0  0  0
  -26.4263  -37.3673   23.9421 N   0  0  0  0  0  0
  -24.7731  -30.9635   22.0766 N   0  0  0  0  0  0
  -23.4208  -28.7953   23.3033 O   0  0  0  0  0  0
  -28.2355  -25.6577   20.1836 O   0  0  0  0  0  0
  -26.5745  -34.8874   22.4601 O   0  0  0  0  0  0
  -23.5807  -32.1117   23.6598 O   0  0  0  0  0  0
  -30.1353  -21.4364   19.7042 C   0  0  0  0  0  0
  -27.8743  -20.8706   19.8754 C   0  0  0  0  0  0
  -30.5377  -19.8125   20.1471 C   0  0  0  0  0  0
  -28.3986  -19.3414   19.3001 C   0  0  0  0  0  0
  -29.5270  -16.3260   16.9720 C   0  0  0  0  0  0
  -31.4114  -17.8774   17.5324 C   0  0  0  0  0  0
  -30.2714  -15.9110   15.6590 C   0  0  0  0  0  0
  -32.1413  -17.4588   16.2177 C   0  0  0  0  0  0
  -28.7552  -22.2761   20.1224 C   0  0  2  0  0  0
  -29.5967  -18.4240   19.9730 C   0  0  1  0  0  0
  -30.5420  -16.7193   18.0849 C   0  0  0  0  0  0
  -28.1379  -24.0175   19.7160 C   0  0  0  0  0  0
  -30.0268  -16.7818   19.5289 N   0  0  0  0  0  0
  -31.2003  -16.9644   15.1766 N   0  3  0  0  0  0
  -31.4496  -13.1871   19.0408 H   0  0  0  0  0  0
  -30.6027  -12.1406   20.1318 H   0  0  0  0  0  0
  -29.9545  -11.7089   17.7229 H   0  0  0  0  0  0
  -29.5097  -13.3734   17.5226 H   0  0  0  0  0  0
  -28.1249  -11.2815   19.1992 H   0  0  0  0  0  0
  -27.4247  -12.2135   17.8978 H   0  0  0  0  0  0
  -27.4802  -14.2174   19.2156 H   0  0  0  0  0  0
  -28.9395  -12.7445   21.4575 H   0  0  0  0  0  0
  -28.3202  -14.3783   21.5385 H   0  0  0  0  0  0
  -25.2783   -9.5652   22.4800 H   0  0  0  0  0  0
  -23.9994   -7.4631   22.7517 H   0  0  0  0  0  0
  -21.0817   -8.8853   19.9015 H   0  0  0  0  0  0
  -22.3723  -10.9711   19.6199 H   0  0  0  0  0  0
  -21.2142   -7.6177   23.9775 H   0  0  0  0  0  0
  -21.1507   -6.0461   25.9069 H   0  0  0  0  0  0
  -22.0567   -2.7599   23.2760 H   0  0  0  0  0  0
  -22.3760  -12.0159   22.5243 H   0  0  0  0  0  0
  -21.0905  -13.1438   22.2272 H   0  0  0  0  0  0
  -24.6198  -15.8333   20.5696 H   0  0  0  0  0  0
  -26.2419  -15.6716   20.1201 H   0  0  0  0  0  0
  -26.7500  -32.4984   23.0828 H   0  0  0  0  0  0
  -24.9983  -33.9337   25.0074 H   0  0  0  0  0  0
  -22.8184  -31.2542   21.3303 H   0  0  0  0  0  0
  -23.3760  -35.9505   23.3238 H   0  0  0  0  0  0
  -24.3585  -36.8918   22.2093 H   0  0  0  0  0  0
  -23.7244  -37.6341   23.6771 H   0  0  0  0  0  0
  -26.2612  -31.3032   20.6161 H   0  0  0  0  0  0
  -26.9305  -30.6345   22.0616 H   0  0  0  0  0  0
  -28.1617  -28.4677   21.2704 H   0  0  0  0  0  0
  -25.8642  -25.6914   18.9319 H   0  0  0  0  0  0
  -24.0105  -27.2391   18.9373 H   0  0  0  0  0  0
  -23.9038  -30.4814   19.3802 H   0  0  0  0  0  0
  -22.8416  -29.1872   19.8251 H   0  0  0  0  0  0
  -25.1330  -36.1683   25.0788 H   0  0  0  0  0  0
  -21.0033  -28.3361   24.1294 H   0  0  0  0  0  0
  -20.5594  -26.2392   23.3662 H   0  0  0  0  0  0
  -21.6638  -26.7366   22.1261 H   0  0  0  0  0  0
  -19.6927  -25.6262   21.1271 H   0  0  0  0  0  0
  -19.6703  -27.3131   20.6688 H   0  0  0  0  0  0
  -17.4226  -26.6661   21.4011 H   0  0  0  0  0  0
  -18.0348  -26.0096   22.9024 H   0  0  0  0  0  0
  -19.7954  -30.7287   24.2180 H   0  0  0  0  0  0
  -17.5041  -31.6271   24.5189 H   0  0  0  0  0  0
  -15.5375  -30.2962   23.7695 H   0  0  0  0  0  0
  -15.8702  -28.0801   22.7118 H   0  0  0  0  0  0
  -24.5802  -30.7200   25.7670 H   0  0  0  0  0  0
  -24.8884  -32.3025   26.4701 H   0  0  0  0  0  0
  -25.7868  -30.9008   27.0216 H   0  0  0  0  0  0
  -26.3168  -29.6508   24.1536 H   0  0  0  0  0  0
  -27.3951  -29.7288   25.5244 H   0  0  0  0  0  0
  -27.9131  -30.4019   24.0011 H   0  0  0  0  0  0
  -27.2608  -33.3665   26.1995 H   0  0  0  0  0  0
  -28.3935  -32.6831   25.0427 H   0  0  0  0  0  0
  -28.0636  -31.8524   26.5546 H   0  0  0  0  0  0
  -28.2526  -38.0086   24.7525 H   0  0  0  0  0  0
  -28.1104  -36.2609   24.6202 H   0  0  0  0  0  0
  -27.2287  -37.1311   25.8848 H   0  0  0  0  0  0
  -20.9672  -29.8756   21.6629 H   0  0  0  0  0  0
  -26.0073  -38.2730   24.1422 H   0  0  0  0  0  0
  -30.2019  -21.4685   18.6128 H   0  0  0  0  0  0
  -30.9748  -22.0607   20.0164 H   0  0  0  0  0  0
  -27.4037  -20.6599   20.8374 H   0  0  0  0  0  0
  -27.0338  -21.1455   19.2386 H   0  0  0  0  0  0
  -30.8010  -19.8617   21.2050 H   0  0  0  0  0  0
  -31.5090  -19.6264   19.6897 H   0  0  0  0  0  0
  -28.6734  -19.4789   18.2517 H   0  0  0  0  0  0
  -27.5112  -18.7074   19.2375 H   0  0  0  0  0  0
  -28.8936  -15.4991   17.2866 H   0  0  0  0  0  0
  -28.8496  -17.1546   16.7500 H   0  0  0  0  0  0
  -30.8025  -18.7602   17.3349 H   0  0  0  0  0  0
  -32.1703  -18.1544   18.2612 H   0  0  0  0  0  0
  -29.5637  -15.6864   14.8603 H   0  0  0  0  0  0
  -30.8463  -14.9963   15.8019 H   0  0  0  0  0  0
  -32.8733  -16.6748   16.4198 H   0  0  0  0  0  0
  -32.7210  -18.2883   15.8060 H   0  0  0  0  0  0
  -28.8137  -22.3436   21.2089 H   0  0  0  0  0  0
  -29.2234  -18.2334   20.9782 H   0  0  0  0  0  0
  -31.2623  -15.8967   18.0245 H   0  0  0  0  0  0
  -27.0604  -23.8702   19.7744 H   0  0  0  0  0  0
  -28.3207  -24.0887   18.6423 H   0  0  0  0  0  0
  -30.6615  -17.7348   14.8196 H   0  0  0  0  0  0
  -31.7337  -16.6029   14.3971 H   0  0  0  0  0  0
  1 25  1  0  0  0
  1 30  2  0  0  0
  1 83  1  0  0  0
  2  3  1  0  0  0
  2 25  1  0  0  0
  2 85  1  0  0  0
  2 86  1  0  0  0
  3  4  1  0  0  0
  3 87  1  0  0  0
  3 88  1  0  0  0
  4  5  1  0  0  0
  4 89  1  0  0  0
  4 90  1  0  0  0
  5  6  1  0  0  0
  5 26  1  0  0  0
  5 91  1  0  0  0
  6 25  1  0  0  0
  6 92  1  0  0  0
  6 93  1  0  0  0
  7  8  2  0  0  0
  7 26  1  0  0  0
  7 29  1  0  0  0
  8  9  1  0  0  0
  8 22  1  0  0  0
  9 10  1  0  0  0
  9 27  2  0  0  0
 10 11  2  0  0  0
 10 15  1  0  0  0
 11 12  1  0  0  0
 11 94  1  0  0  0
 12 13  2  0  0  0
 12 95  1  0  0  0
 13 14  1  0  0  0
 13 31  1  0  0  0
 14 15  2  0  0  0
 14 96  1  0  0  0
 15 97  1  0  0  0
 16 17  2  0  0  0
 16 21  1  0  0  0
 16 31  1  0  0  0
 17 18  1  0  0  0
 17 98  1  0  0  0
 18 19  2  0  0  0
 18 99  1  0  0  0
 19 20  1  0  0  0
 19 24  1  0  0  0
 20 21  2  0  0  0
 20100  1  0  0  0
 21 23  1  0  0  0
 22 28  1  0  0  0
 22 32  2  0  0  0
 26 27  1  0  0  0
 28101  1  0  0  0
 28102  1  0  0  0
 29103  1  0  0  0
 29104  1  0  0  0
 33 34  1  0  0  0
 33 66  1  0  0  0
 33 70  2  0  0  0
 34 36  1  0  0  0
 34 59  1  0  0  0
 34105  1  0  0  0
 35 44  2  0  0  0
 35 45  1  0  0  0
 35 68  1  0  0  0
 36 56  1  0  0  0
 36106  1  0  0  0
 37 39  1  0  0  0
 37 47  1  0  0  0
 37 66  1  0  0  0
 37107  1  0  0  0
 38 43  2  0  0  0
 38 46  1  0  0  0
 38 47  1  0  0  0
 39 64  1  0  0  0
 39 67  2  0  0  0
 40 52  1  0  0  0
 40 53  2  0  0  0
 40 58  1  0  0  0
 41108  1  0  0  0
 41109  1  0  0  0
 41110  1  0  0  0
 41 48  1  0  0  0
 42 43  1  0  0  0
 42 66  1  0  0  0
 42111  1  0  0  0
 42112  1  0  0  0
 43 44  1  0  0  0
 44113  1  0  0  0
 45 46  2  0  0  0
 45114  1  0  0  0
 46115  1  0  0  0
 47116  1  0  0  0
 47117  1  0  0  0
 48 56  1  0  0  0
 48 65  1  0  0  0
 48118  1  0  0  0
 49 50  1  0  0  0
 49 53  1  0  0  0
 49 64  1  0  0  0
 49119  1  0  0  0
 50 51  1  0  0  0
 50120  1  0  0  0
 50121  1  0  0  0
 51 52  1  0  0  0
 51122  1  0  0  0
 51123  1  0  0  0
 52124  1  0  0  0
 52125  1  0  0  0
 53 54  1  0  0  0
 54 55  2  0  0  0
 54126  1  0  0  0
 55 57  1  0  0  0
 55127  1  0  0  0
 56 69  2  0  0  0
 57 58  2  0  0  0
 57128  1  0  0  0
 58129  1  0  0  0
 59 60  1  0  0  0
 59 61  1  0  0  0
 59 62  1  0  0  0
 60130  1  0  0  0
 60131  1  0  0  0
 60132  1  0  0  0
 61133  1  0  0  0
 61134  1  0  0  0
 61135  1  0  0  0
 62136  1  0  0  0
 62137  1  0  0  0
 62138  1  0  0  0
 63 65  1  0  0  0
 63139  1  0  0  0
 63140  1  0  0  0
 63141  1  0  0  0
 64142  1  0  0  0
 65143  1  0  0  0
 68 82  1  0  0  0
 71 73  1  0  0  0
 71 79  1  0  0  0
 71144  1  0  0  0
 71145  1  0  0  0
 72 74  1  0  0  0
 72 79  1  0  0  0
 72146  1  0  0  0
 72147  1  0  0  0
 73 80  1  0  0  0
 73148  1  0  0  0
 73149  1  0  0  0
 74 80  1  0  0  0
 74150  1  0  0  0
 74151  1  0  0  0
 75 77  1  0  0  0
 75 81  1  0  0  0
 75152  1  0  0  0
 75153  1  0  0  0
 76 78  1  0  0  0
 76 81  1  0  0  0
 76154  1  0  0  0
 76155  1  0  0  0
 77 84  1  0  0  0
 77156  1  0  0  0
 77157  1  0  0  0
 78 84  1  0  0  0
 78158  1  0  0  0
 78159  1  0  0  0
 79 82  1  0  0  0
 79160  1  0  0  0
 80 83  1  0  0  0
 80161  1  0  0  0
 81 83  1  0  0  0
 81162  1  0  0  0
 82163  1  0  0  0
 82164  1  0  0  0
 84165  1  0  0  0
 84166  1  0  0  0
M  CHG  1  84   1
M  ISO  4   1 100  68 101  82 101  83 100
M  END
> <chiral flag>
0

> <version>
0

> <s_m_source_file>
/data/baiqing/PycharmProjects/Reinvent-master-3.2/result/LINK_invent/BTK/process_docking_weight1_custom_sum_contain_oxygen_bond_distance_aromatic_linkinvent_7_9_3/rearranged_h_0128.sdf

> <i_m_source_file_index>
11

> <r_mmod_Potential_Energy-OPLS-2005>
2165.41186523438

> <r_mmod_Stretch_Energy-OPLS-2005>
831.843933105469

> <r_mmod_Bend_Energy-OPLS-2005>
684.911376953125

> <r_mmod_Torsional_Energy-OPLS-2005>
424.147766113281

> <r_mmod_Improper_Torsional_Energy-OPLS-2005>
26.2582111358643

> <r_mmod_Van_der_Waal_Energy-OPLS-2005>
121.342498779297

> <r_mmod_Electrostatic_Energy-OPLS-2005>
-149.72802734375

> <r_mmod_Solvation_Energy-OPLS-2005>
-459.473266601562

> <b_mmod_Minimization_Converged-OPLS-2005>
0

> <r_mmod_RMS_Derivative-OPLS-2005>
8.01586532592773

$$$$
11
                    3D
 Structure written by MMmdl.
161170  0  0  1  0            999 V2000
  -30.6486  -14.7257   20.3566 C   0  0  0  0  0  0
  -30.4345  -12.4214   19.4626 C   0  0  0  0  0  0
  -29.5055  -12.3924   18.2312 C   0  0  0  0  0  0
  -28.0222  -12.2818   18.6511 C   0  0  0  0  0  0
  -27.6266  -13.1978   19.8422 C   0  0  2  0  0  0
  -28.6923  -13.2014   20.9589 C   0  0  0  0  0  0
  -25.2521  -13.8092   20.5784 C   0  0  0  0  0  0
  -24.1769  -13.0400   20.9251 C   0  0  0  0  0  0
  -24.6310  -11.6859   20.8804 C   0  0  0  0  0  0
  -23.8982  -10.4271   21.0445 C   0  0  0  0  0  0
  -24.3556   -9.4194   21.9214 C   0  0  0  0  0  0
  -23.6257   -8.2221   22.0761 C   0  0  0  0  0  0
  -22.4244   -8.0258   21.3543 C   0  0  0  0  0  0
  -21.9863   -9.0228   20.4651 C   0  0  0  0  0  0
  -22.7169  -10.2119   20.3074 C   0  0  0  0  0  0
  -21.6840   -6.0724   22.5282 C   0  0  0  0  0  0
  -21.4003   -6.5631   23.8214 C   0  0  0  0  0  0
  -21.3652   -5.6788   24.9175 C   0  0  0  0  0  0
  -21.6042   -4.3053   24.7229 C   0  0  0  0  0  0
  -21.8821   -3.8141   23.4352 C   0  0  0  0  0  0
  -21.9196   -4.6957   22.3406 C   0  0  0  0  0  0
  -22.7808  -13.5241   21.1877 C   0  0  0  0  0  0
  -22.1670   -4.2149   21.0987 F   0  0  0  0  0  0
  -21.5619   -3.4535   25.7740 F   0  0  0  0  0  0
  -29.9823  -13.5223   20.3351 N   0  0  0  0  0  0
  -26.2885  -12.9197   20.3384 N   0  0  0  0  0  0
  -25.9228  -11.6390   20.5860 N   0  0  0  0  0  0
  -22.0393  -12.8269   22.0407 N   0  0  0  0  0  0
  -25.4289  -15.1824   20.4221 N   0  0  0  0  0  0
  -31.8785  -14.7418   20.2689 O   0  0  0  0  0  0
  -21.6613   -6.8855   21.4239 O   0  0  0  0  0  0
  -22.3556  -14.5574   20.6725 O   0  0  0  0  0  0
  -24.6238  -31.8597   23.2018 C   0  0  0  0  0  0
  -25.9086  -32.4774   23.8337 C   0  0  1  0  0  0
  -27.2224  -27.3334   20.1203 C   0  0  0  0  0  0
  -25.5910  -33.8576   24.2268 N   0  0  0  0  0  0
  -23.4176  -30.4831   21.5434 C   0  0  2  0  0  0
  -24.8682  -28.9429   20.1056 C   0  0  0  0  0  0
  -22.7464  -29.4625   22.4924 C   0  0  0  0  0  0
  -18.0288  -28.1379   22.8480 C   0  0  0  0  0  0
  -24.1504  -36.7300   23.2637 C   0  0  0  0  0  0
  -25.9582  -30.7942   21.3738 C   0  0  0  0  0  0
  -26.0361  -29.4249   20.7146 C   0  0  0  0  0  0
  -27.2211  -28.6309   20.7137 C   0  0  0  0  0  0
  -26.0416  -26.9039   19.4796 C   0  0  0  0  0  0
  -24.8731  -27.6873   19.4776 C   0  0  0  0  0  0
  -23.6319  -29.8172   20.1586 C   0  0  0  0  0  0
  -25.4127  -36.3079   24.0322 C   0  0  1  0  0  0
  -20.5886  -28.3692   23.1283 C   0  0  2  0  0  0
  -20.6787  -26.9415   22.5409 C   0  0  0  0  0  0
  -19.5767  -26.6379   21.5210 C   0  0  0  0  0  0
  -18.1938  -26.7920   22.1615 C   0  0  0  0  0  0
  -19.1536  -28.8850   23.2875 C   0  0  0  0  0  0
  -18.9463  -30.1446   23.8897 C   0  0  0  0  0  0
  -17.6466  -30.6584   24.0560 C   0  0  0  0  0  0
  -25.9055  -34.9450   23.5100 C   0  0  0  0  0  0
  -16.5358  -29.9079   23.6334 C   0  0  0  0  0  0
  -16.7274  -28.6499   23.0353 C   0  0  0  0  0  0
  -26.4484  -31.6573   25.0697 C   0  0  0  0  0  0
  -25.3711  -31.3693   26.1415 C   0  0  0  0  0  0
  -27.0338  -30.3001   24.6146 C   0  0  0  0  0  0
  -27.6055  -32.4301   25.7457 C   0  0  0  0  0  0
  -27.5590  -37.1795   24.8455 C   0  0  0  0  0  0
  -21.4176  -29.3041   22.3666 N   0  0  0  0  0  0
  -26.4305  -37.3771   23.9397 N   0  0  0  0  0  0
  -24.6847  -31.0622   22.0961 N   0  0  0  0  0  0
  -23.4192  -28.8168   23.3003 O   0  0  0  0  0  0
  -28.2941  -26.4359   20.1750 O   0  0  0  0  0  0
  -26.5633  -34.8909   22.4668 O   0  0  0  0  0  0
  -23.5408  -32.1394   23.7357 O   0  0  0  0  0  0
  -27.7219  -22.6921   20.7024 C   0  0  0  0  0  0
  -28.2232  -21.3592   20.6811 C   0  0  0  0  0  0
  -28.5934  -23.8162   20.7034 C   0  0  0  0  0  0
  -29.9722  -23.4879   20.6490 C   0  0  0  0  0  0
  -29.6128  -21.1352   20.6620 C   0  0  0  0  0  0
  -29.8835  -17.0492   18.0060 C   0  0  0  0  0  0
  -31.0273  -17.5747   18.8529 C   0  0  0  0  0  0
  -29.1650  -16.0491   18.9193 C   0  0  0  0  0  0
  -30.5469  -17.2981   20.2854 C   0  0  1  0  0  0
  -31.0242  -24.5779   20.6744 C   0  0  0  0  0  0
  -28.0174  -25.2512   21.0122 C   0  0  0  0  0  0
  -29.5933  -18.5031   20.7447 C   0  0  0  0  0  0
  -30.4509  -22.2020   20.6251 N   0  0  0  0  0  0
  -29.9332  -15.9124   20.1748 N   0  0  0  0  0  0
  -30.2361  -19.8526   20.7023 N   0  0  0  0  0  0
  -31.4696  -12.5484   19.1378 H   0  0  0  0  0  0
  -30.4019  -11.4747   20.0025 H   0  0  0  0  0  0
  -29.7653  -11.5361   17.6072 H   0  0  0  0  0  0
  -29.6735  -13.2616   17.5989 H   0  0  0  0  0  0
  -27.8489  -11.2412   18.9264 H   0  0  0  0  0  0
  -27.3755  -12.4736   17.7945 H   0  0  0  0  0  0
  -27.5540  -14.1950   19.4378 H   0  0  0  0  0  0
  -28.7406  -12.2329   21.4594 H   0  0  0  0  0  0
  -28.4407  -13.9399   21.7225 H   0  0  0  0  0  0
  -25.2688   -9.5693   22.4802 H   0  0  0  0  0  0
  -23.9970   -7.4618   22.7481 H   0  0  0  0  0  0
  -21.0790   -8.8743   19.8967 H   0  0  0  0  0  0
  -22.3619  -10.9664   19.6198 H   0  0  0  0  0  0
  -21.1980   -7.6136   23.9714 H   0  0  0  0  0  0
  -21.1471   -6.0516   25.9080 H   0  0  0  0  0  0
  -22.0600   -2.7604   23.2851 H   0  0  0  0  0  0
  -22.3938  -11.9927   22.4847 H   0  0  0  0  0  0
  -21.1011  -13.1347   22.2527 H   0  0  0  0  0  0
  -24.6691  -15.8444   20.5349 H   0  0  0  0  0  0
  -26.2982  -15.6197   20.1456 H   0  0  0  0  0  0
  -26.7151  -32.5459   23.1081 H   0  0  0  0  0  0
  -25.0032  -33.9721   25.0392 H   0  0  0  0  0  0
  -22.7108  -31.3029   21.3988 H   0  0  0  0  0  0
  -23.3759  -35.9640   23.3295 H   0  0  0  0  0  0
  -24.3598  -36.8933   22.2054 H   0  0  0  0  0  0
  -23.7279  -37.6504   23.6676 H   0  0  0  0  0  0
  -26.0905  -31.5595   20.6074 H   0  0  0  0  0  0
  -26.8369  -30.8400   22.0044 H   0  0  0  0  0  0
  -28.1141  -28.9880   21.2072 H   0  0  0  0  0  0
  -26.0153  -25.9327   19.0049 H   0  0  0  0  0  0
  -23.9798  -27.3142   18.9956 H   0  0  0  0  0  0
  -23.7409  -30.5923   19.3993 H   0  0  0  0  0  0
  -22.7538  -29.2400   19.8633 H   0  0  0  0  0  0
  -25.1312  -36.1925   25.0817 H   0  0  0  0  0  0
  -20.9985  -28.3280   24.1402 H   0  0  0  0  0  0
  -20.5717  -26.2292   23.3607 H   0  0  0  0  0  0
  -21.6651  -26.7464   22.1186 H   0  0  0  0  0  0
  -19.6943  -25.6291   21.1235 H   0  0  0  0  0  0
  -19.6710  -27.3195   20.6746 H   0  0  0  0  0  0
  -17.4210  -26.6665   21.4009 H   0  0  0  0  0  0
  -18.0335  -26.0056   22.9006 H   0  0  0  0  0  0
  -19.7941  -30.7253   24.2270 H   0  0  0  0  0  0
  -17.5024  -31.6270   24.5147 H   0  0  0  0  0  0
  -15.5359  -30.2983   23.7663 H   0  0  0  0  0  0
  -15.8670  -28.0821   22.7074 H   0  0  0  0  0  0
  -24.5904  -30.7033   25.7722 H   0  0  0  0  0  0
  -24.8869  -32.2845   26.4835 H   0  0  0  0  0  0
  -25.8012  -30.8863   27.0195 H   0  0  0  0  0  0
  -26.2913  -29.6722   24.1210 H   0  0  0  0  0  0
  -27.4089  -29.7284   25.4646 H   0  0  0  0  0  0
  -27.8753  -30.4290   23.9335 H   0  0  0  0  0  0
  -27.2696  -33.3622   26.2012 H   0  0  0  0  0  0
  -28.3869  -32.6820   25.0275 H   0  0  0  0  0  0
  -28.0711  -31.8424   26.5380 H   0  0  0  0  0  0
  -28.2584  -38.0113   24.7530 H   0  0  0  0  0  0
  -28.1109  -36.2643   24.6258 H   0  0  0  0  0  0
  -27.2294  -37.1413   25.8851 H   0  0  0  0  0  0
  -20.9347  -29.8741   21.6863 H   0  0  0  0  0  0
  -26.0184  -38.2843   24.1390 H   0  0  0  0  0  0
  -26.6545  -22.8404   20.7762 H   0  0  0  0  0  0
  -27.5301  -20.5308   20.7143 H   0  0  0  0  0  0
  -30.2523  -16.5777   17.0933 H   0  0  0  0  0  0
  -29.2043  -17.8505   17.7071 H   0  0  0  0  0  0
  -31.2630  -18.6165   18.6365 H   0  0  0  0  0  0
  -31.9304  -16.9976   18.6459 H   0  0  0  0  0  0
  -29.0585  -15.1311   18.3561 H   0  0  0  0  0  0
  -28.1602  -16.4046   19.1519 H   0  0  0  0  0  0
  -31.4037  -17.2657   20.9606 H   0  0  0  0  0  0
  -31.0525  -25.0526   21.6549 H   0  0  0  0  0  0
  -30.7962  -25.3414   19.9306 H   0  0  0  0  0  0
  -32.0185  -24.1873   20.4550 H   0  0  0  0  0  0
  -28.3700  -25.5072   22.0118 H   0  0  0  0  0  0
  -26.9423  -25.1217   21.1418 H   0  0  0  0  0  0
  -29.2403  -18.3210   21.7610 H   0  0  0  0  0  0
  -28.7001  -18.5353   20.1198 H   0  0  0  0  0  0
  -31.2490  -19.8560   20.7178 H   0  0  0  0  0  0
  1 25  1  0  0  0
  1 30  2  0  0  0
  1 84  1  0  0  0
  2  3  1  0  0  0
  2 25  1  0  0  0
  2 86  1  0  0  0
  2 87  1  0  0  0
  3  4  1  0  0  0
  3 88  1  0  0  0
  3 89  1  0  0  0
  4  5  1  0  0  0
  4 90  1  0  0  0
  4 91  1  0  0  0
  5  6  1  0  0  0
  5 26  1  0  0  0
  5 92  1  0  0  0
  6 25  1  0  0  0
  6 93  1  0  0  0
  6 94  1  0  0  0
  7  8  2  0  0  0
  7 26  1  0  0  0
  7 29  1  0  0  0
  8  9  1  0  0  0
  8 22  1  0  0  0
  9 10  1  0  0  0
  9 27  2  0  0  0
 10 11  2  0  0  0
 10 15  1  0  0  0
 11 12  1  0  0  0
 11 95  1  0  0  0
 12 13  2  0  0  0
 12 96  1  0  0  0
 13 14  1  0  0  0
 13 31  1  0  0  0
 14 15  2  0  0  0
 14 97  1  0  0  0
 15 98  1  0  0  0
 16 17  2  0  0  0
 16 21  1  0  0  0
 16 31  1  0  0  0
 17 18  1  0  0  0
 17 99  1  0  0  0
 18 19  2  0  0  0
 18100  1  0  0  0
 19 20  1  0  0  0
 19 24  1  0  0  0
 20 21  2  0  0  0
 20101  1  0  0  0
 21 23  1  0  0  0
 22 28  1  0  0  0
 22 32  2  0  0  0
 26 27  1  0  0  0
 28102  1  0  0  0
 28103  1  0  0  0
 29104  1  0  0  0
 29105  1  0  0  0
 33 34  1  0  0  0
 33 66  1  0  0  0
 33 70  2  0  0  0
 34 36  1  0  0  0
 34 59  1  0  0  0
 34106  1  0  0  0
 35 44  2  0  0  0
 35 45  1  0  0  0
 35 68  1  0  0  0
 36 56  1  0  0  0
 36107  1  0  0  0
 37 39  1  0  0  0
 37 47  1  0  0  0
 37 66  1  0  0  0
 37108  1  0  0  0
 38 43  2  0  0  0
 38 46  1  0  0  0
 38 47  1  0  0  0
 39 64  1  0  0  0
 39 67  2  0  0  0
 40 52  1  0  0  0
 40 53  2  0  0  0
 40 58  1  0  0  0
 41109  1  0  0  0
 41110  1  0  0  0
 41111  1  0  0  0
 41 48  1  0  0  0
 42 43  1  0  0  0
 42 66  1  0  0  0
 42112  1  0  0  0
 42113  1  0  0  0
 43 44  1  0  0  0
 44114  1  0  0  0
 45 46  2  0  0  0
 45115  1  0  0  0
 46116  1  0  0  0
 47117  1  0  0  0
 47118  1  0  0  0
 48 56  1  0  0  0
 48 65  1  0  0  0
 48119  1  0  0  0
 49 50  1  0  0  0
 49 53  1  0  0  0
 49 64  1  0  0  0
 49120  1  0  0  0
 50 51  1  0  0  0
 50121  1  0  0  0
 50122  1  0  0  0
 51 52  1  0  0  0
 51123  1  0  0  0
 51124  1  0  0  0
 52125  1  0  0  0
 52126  1  0  0  0
 53 54  1  0  0  0
 54 55  2  0  0  0
 54127  1  0  0  0
 55 57  1  0  0  0
 55128  1  0  0  0
 56 69  2  0  0  0
 57 58  2  0  0  0
 57129  1  0  0  0
 58130  1  0  0  0
 59 60  1  0  0  0
 59 61  1  0  0  0
 59 62  1  0  0  0
 60131  1  0  0  0
 60132  1  0  0  0
 60133  1  0  0  0
 61134  1  0  0  0
 61135  1  0  0  0
 61136  1  0  0  0
 62137  1  0  0  0
 62138  1  0  0  0
 62139  1  0  0  0
 63 65  1  0  0  0
 63140  1  0  0  0
 63141  1  0  0  0
 63142  1  0  0  0
 64143  1  0  0  0
 65144  1  0  0  0
 68 81  1  0  0  0
 71 72  2  0  0  0
 71 73  1  0  0  0
 71145  1  0  0  0
 72 75  1  0  0  0
 72146  1  0  0  0
 73 74  2  0  0  0
 73 81  1  0  0  0
 74 80  1  0  0  0
 74 83  1  0  0  0
 75 83  2  0  0  0
 75 85  1  0  0  0
 76 77  1  0  0  0
 76 78  1  0  0  0
 76147  1  0  0  0
 76148  1  0  0  0
 77 79  1  0  0  0
 77149  1  0  0  0
 77150  1  0  0  0
 78 84  1  0  0  0
 78151  1  0  0  0
 78152  1  0  0  0
 79 82  1  0  0  0
 79 84  1  0  0  0
 79153  1  0  0  0
 80154  1  0  0  0
 80155  1  0  0  0
 80156  1  0  0  0
 81157  1  0  0  0
 81158  1  0  0  0
 82 85  1  0  0  0
 82159  1  0  0  0
 82160  1  0  0  0
 85161  1  0  0  0
M  ISO  4   1 100  68 101  81 101  84 100
M  END
> <chiral flag>
0

> <version>
0

> <s_m_source_file>
/data/baiqing/PycharmProjects/Reinvent-master-3.2/result/LINK_invent/BTK/process_docking_weight1_custom_sum_contain_oxygen_bond_distance_aromatic_linkinvent_7_9_3/rearranged_h_0128.sdf

> <i_m_source_file_index>
12

> <r_mmod_Potential_Energy-OPLS-2005>
176.191848754883

> <r_mmod_Stretch_Energy-OPLS-2005>
82.6054077148438

> <r_mmod_Bend_Energy-OPLS-2005>
190.996841430664

> <r_mmod_Torsional_Energy-OPLS-2005>
386.935211181641

> <r_mmod_Improper_Torsional_Energy-OPLS-2005>
13.730749130249

> <r_mmod_Van_der_Waal_Energy-OPLS-2005>
150.829513549805

> <r_mmod_Electrostatic_Energy-OPLS-2005>
-514.67626953125

> <r_mmod_Solvation_Energy-OPLS-2005>
-217.023773193359

> <b_mmod_Minimization_Converged-OPLS-2005>
0

> <r_mmod_RMS_Derivative-OPLS-2005>
1.83481192588806

$$$$
12
                    3D
 Structure written by MMmdl.
164173  0  0  1  0            999 V2000
  -30.4936  -15.0207   20.4092 C   0  0  0  0  0  0
  -30.4497  -12.6338   19.5052 C   0  0  0  0  0  0
  -29.5292  -12.5407   18.2634 C   0  0  0  0  0  0
  -28.0651  -12.3104   18.6819 C   0  0  0  0  0  0
  -27.6288  -13.2485   19.8356 C   0  0  2  0  0  0
  -28.6703  -13.2939   20.9755 C   0  0  0  0  0  0
  -25.2449  -13.8203   20.5702 C   0  0  0  0  0  0
  -24.1784  -13.0428   20.9247 C   0  0  0  0  0  0
  -24.6404  -11.6910   20.8755 C   0  0  0  0  0  0
  -23.9100  -10.4284   21.0417 C   0  0  0  0  0  0
  -24.3642   -9.4191   21.9191 C   0  0  0  0  0  0
  -23.6311   -8.2231   22.0759 C   0  0  0  0  0  0
  -22.4294   -8.0271   21.3547 C   0  0  0  0  0  0
  -21.9943   -9.0248   20.4648 C   0  0  0  0  0  0
  -22.7275  -10.2127   20.3062 C   0  0  0  0  0  0
  -21.6856   -6.0743   22.5288 C   0  0  0  0  0  0
  -21.4009   -6.5646   23.8219 C   0  0  0  0  0  0
  -21.3664   -5.6801   24.9180 C   0  0  0  0  0  0
  -21.6043   -4.3063   24.7229 C   0  0  0  0  0  0
  -21.8827   -3.8150   23.4355 C   0  0  0  0  0  0
  -21.9194   -4.6969   22.3411 C   0  0  0  0  0  0
  -22.7801  -13.5181   21.1883 C   0  0  0  0  0  0
  -22.1661   -4.2154   21.0986 F   0  0  0  0  0  0
  -21.5629   -3.4549   25.7735 F   0  0  0  0  0  0
  -29.9395  -13.7337   20.3788 N   0  0  0  0  0  0
  -26.2880  -12.9441   20.3231 N   0  0  0  0  0  0
  -25.9340  -11.6568   20.5740 N   0  0  0  0  0  0
  -22.0466  -12.8158   22.0428 N   0  0  0  0  0  0
  -25.4103  -15.1935   20.4090 N   0  0  0  0  0  0
  -31.7010  -15.0944   20.1420 O   0  0  0  0  0  0
  -21.6636   -6.8884   21.4249 O   0  0  0  0  0  0
  -22.3484  -14.5484   20.6717 O   0  0  0  0  0  0
  -24.6484  -31.8392   23.1844 C   0  0  0  0  0  0
  -25.9244  -32.4662   23.8241 C   0  0  1  0  0  0
  -27.2090  -27.0868   20.1663 C   0  0  0  0  0  0
  -25.5984  -33.8467   24.2170 N   0  0  0  0  0  0
  -23.4542  -30.4568   21.5320 C   0  0  2  0  0  0
  -24.9030  -28.8702   20.1183 C   0  0  0  0  0  0
  -22.7586  -29.4519   22.4854 C   0  0  0  0  0  0
  -18.0305  -28.1390   22.8485 C   0  0  0  0  0  0
  -24.1493  -36.7229   23.2641 C   0  0  0  0  0  0
  -26.0131  -30.6982   21.3892 C   0  0  0  0  0  0
  -26.0847  -29.3024   20.7356 C   0  0  0  0  0  0
  -27.2446  -28.4291   20.7368 C   0  0  0  0  0  0
  -26.0022  -26.7629   19.5168 C   0  0  0  0  0  0
  -24.8754  -27.6144   19.4931 C   0  0  0  0  0  0
  -23.6833  -29.7800   20.1557 C   0  0  0  0  0  0
  -25.4130  -36.2999   24.0313 C   0  0  1  0  0  0
  -20.5924  -28.3717   23.1235 C   0  0  2  0  0  0
  -20.6780  -26.9416   22.5406 C   0  0  0  0  0  0
  -19.5754  -26.6378   21.5209 C   0  0  0  0  0  0
  -18.1938  -26.7931   22.1614 C   0  0  0  0  0  0
  -19.1566  -28.8878   23.2845 C   0  0  0  0  0  0
  -18.9472  -30.1477   23.8861 C   0  0  0  0  0  0
  -17.6464  -30.6584   24.0558 C   0  0  0  0  0  0
  -25.9086  -34.9376   23.5045 C   0  0  0  0  0  0
  -16.5358  -29.9073   23.6341 C   0  0  0  0  0  0
  -16.7289  -28.6495   23.0372 C   0  0  0  0  0  0
  -26.4562  -31.6543   25.0697 C   0  0  0  0  0  0
  -25.3746  -31.3742   26.1397 C   0  0  0  0  0  0
  -27.0436  -30.2933   24.6301 C   0  0  0  0  0  0
  -27.6072  -32.4327   25.7491 C   0  0  0  0  0  0
  -27.5574  -37.1771   24.8461 C   0  0  0  0  0  0
  -21.4270  -29.3038   22.3603 N   0  0  0  0  0  0
  -26.4281  -37.3726   23.9413 N   0  0  0  0  0  0
  -24.7254  -31.0201   22.0906 N   0  0  0  0  0  0
  -23.4207  -28.8063   23.3023 O   0  0  0  0  0  0
  -28.2321  -26.0588   20.1485 O   0  0  0  0  0  0
  -26.5656  -34.8888   22.4611 O   0  0  0  0  0  0
  -23.5592  -32.1278   23.7042 O   0  0  0  0  0  0
  -27.2060  -20.7426   20.5953 C   0  0  0  0  0  0
  -27.1415  -22.1834   20.5723 C   0  0  0  0  0  0
  -29.4960  -22.2672   20.3411 C   0  0  0  0  0  0
  -28.4734  -18.5231   20.5715 C   0  0  0  0  0  0
  -28.4109  -19.9857   20.5053 C   0  0  0  0  0  0
  -29.5727  -20.7731   20.3414 C   0  0  0  0  0  0
  -28.2661  -23.0664   20.4767 C   0  0  0  0  0  0
  -30.7367  -19.9274   20.1933 C   0  0  0  0  0  0
  -29.6803  -17.7215   20.4560 C   0  0  0  0  0  0
  -28.0121  -24.6876   20.8757 C   0  0  0  0  0  0
  -32.0748  -20.5618   19.8400 C   0  0  0  0  0  0
  -32.2526  -20.6762   18.3123 C   0  0  0  0  0  0
  -33.3350  -21.6805   17.8750 C   0  0  0  0  0  0
  -33.4895  -21.7478   16.3410 C   0  0  0  0  0  0
  -30.7750  -18.5274   20.2504 N   0  0  0  0  0  0
  -29.6409  -16.1691   20.5571 N   0  0  0  0  0  0
  -34.3130  -22.8879   15.9047 N   0  3  0  0  0  0
  -31.4780  -12.8127   19.1868 H   0  0  0  0  0  0
  -30.4665  -11.6874   20.0483 H   0  0  0  0  0  0
  -29.8600  -11.7375   17.6040 H   0  0  0  0  0  0
  -29.6025  -13.4629   17.6846 H   0  0  0  0  0  0
  -27.9725  -11.2704   18.9982 H   0  0  0  0  0  0
  -27.4025  -12.4239   17.8228 H   0  0  0  0  0  0
  -27.5838  -14.2433   19.3933 H   0  0  0  0  0  0
  -28.7723  -12.3195   21.4548 H   0  0  0  0  0  0
  -28.3537  -13.9866   21.7562 H   0  0  0  0  0  0
  -25.2796   -9.5651   22.4746 H   0  0  0  0  0  0
  -24.0023   -7.4622   22.7476 H   0  0  0  0  0  0
  -21.0882   -8.8769   19.8941 H   0  0  0  0  0  0
  -22.3747  -10.9666   19.6153 H   0  0  0  0  0  0
  -21.2003   -7.6153   23.9716 H   0  0  0  0  0  0
  -21.1477   -6.0533   25.9083 H   0  0  0  0  0  0
  -22.0606   -2.7614   23.2850 H   0  0  0  0  0  0
  -22.4125  -11.9845   22.4824 H   0  0  0  0  0  0
  -21.1068  -13.1130   22.2603 H   0  0  0  0  0  0
  -24.6277  -15.8309   20.4984 H   0  0  0  0  0  0
  -26.2238  -15.6293   19.9978 H   0  0  0  0  0  0
  -26.7296  -32.5256   23.0950 H   0  0  0  0  0  0
  -25.0168  -33.9576   25.0344 H   0  0  0  0  0  0
  -22.7579  -31.2831   21.3735 H   0  0  0  0  0  0
  -23.3767  -35.9543   23.3262 H   0  0  0  0  0  0
  -24.3580  -36.8907   22.2062 H   0  0  0  0  0  0
  -23.7235  -37.6405   23.6710 H   0  0  0  0  0  0
  -26.1706  -31.4468   20.6118 H   0  0  0  0  0  0
  -26.8835  -30.7520   22.0324 H   0  0  0  0  0  0
  -28.1503  -28.7621   21.2245 H   0  0  0  0  0  0
  -25.9148  -25.7962   19.0408 H   0  0  0  0  0  0
  -23.9729  -27.2768   19.0020 H   0  0  0  0  0  0
  -23.8255  -30.5501   19.3971 H   0  0  0  0  0  0
  -22.7963  -29.2243   19.8439 H   0  0  0  0  0  0
  -25.1316  -36.1807   25.0804 H   0  0  0  0  0  0
  -21.0010  -28.3301   24.1355 H   0  0  0  0  0  0
  -20.5670  -26.2319   23.3622 H   0  0  0  0  0  0
  -21.6645  -26.7403   22.1210 H   0  0  0  0  0  0
  -19.6904  -25.6285   21.1251 H   0  0  0  0  0  0
  -19.6700  -27.3173   20.6731 H   0  0  0  0  0  0
  -17.4213  -26.6711   21.4007 H   0  0  0  0  0  0
  -18.0313  -26.0073   22.9002 H   0  0  0  0  0  0
  -19.7946  -30.7319   24.2201 H   0  0  0  0  0  0
  -17.5013  -31.6262   24.5165 H   0  0  0  0  0  0
  -15.5360  -30.2959   23.7687 H   0  0  0  0  0  0
  -15.8694  -28.0799   22.7105 H   0  0  0  0  0  0
  -24.5945  -30.7064   25.7730 H   0  0  0  0  0  0
  -24.8927  -32.2927   26.4746 H   0  0  0  0  0  0
  -25.8056  -30.8979   27.0210 H   0  0  0  0  0  0
  -26.3060  -29.6647   24.1305 H   0  0  0  0  0  0
  -27.4028  -29.7250   25.4888 H   0  0  0  0  0  0
  -27.8969  -30.4159   23.9634 H   0  0  0  0  0  0
  -27.2651  -33.3659   26.1975 H   0  0  0  0  0  0
  -28.3935  -32.6844   25.0363 H   0  0  0  0  0  0
  -28.0673  -31.8515   26.5490 H   0  0  0  0  0  0
  -28.2565  -38.0093   24.7531 H   0  0  0  0  0  0
  -28.1103  -36.2624   24.6263 H   0  0  0  0  0  0
  -27.2291  -37.1376   25.8863 H   0  0  0  0  0  0
  -20.9481  -29.8762   21.6790 H   0  0  0  0  0  0
  -26.0133  -38.2776   24.1456 H   0  0  0  0  0  0
  -26.2794  -20.1977   20.7150 H   0  0  0  0  0  0
  -26.1623  -22.6265   20.7036 H   0  0  0  0  0  0
  -30.4156  -22.8295   20.2853 H   0  0  0  0  0  0
  -27.5365  -18.0068   20.7225 H   0  0  0  0  0  0
  -28.5729  -24.8055   21.8025 H   0  0  0  0  0  0
  -26.9741  -24.7208   21.2112 H   0  0  0  0  0  0
  -32.8885  -19.9769   20.2698 H   0  0  0  0  0  0
  -32.1533  -21.5397   20.3123 H   0  0  0  0  0  0
  -31.3047  -20.9989   17.8785 H   0  0  0  0  0  0
  -32.4507  -19.6866   17.8961 H   0  0  0  0  0  0
  -34.2916  -21.4171   18.3273 H   0  0  0  0  0  0
  -33.0710  -22.6668   18.2613 H   0  0  0  0  0  0
  -32.5129  -21.8366   15.8639 H   0  0  0  0  0  0
  -33.9363  -20.8237   15.9693 H   0  0  0  0  0  0
  -28.7096  -15.8442   20.7568 H   0  0  0  0  0  0
  -33.8833  -23.7568   16.1655 H   0  0  0  0  0  0
  -34.4015  -22.8792   14.9041 H   0  0  0  0  0  0
  -35.2350  -22.8476   16.3000 H   0  0  0  0  0  0
  1 25  1  0  0  0
  1 30  2  0  0  0
  1 86  1  0  0  0
  2  3  1  0  0  0
  2 25  1  0  0  0
  2 88  1  0  0  0
  2 89  1  0  0  0
  3  4  1  0  0  0
  3 90  1  0  0  0
  3 91  1  0  0  0
  4  5  1  0  0  0
  4 92  1  0  0  0
  4 93  1  0  0  0
  5  6  1  0  0  0
  5 26  1  0  0  0
  5 94  1  0  0  0
  6 25  1  0  0  0
  6 95  1  0  0  0
  6 96  1  0  0  0
  7  8  2  0  0  0
  7 26  1  0  0  0
  7 29  1  0  0  0
  8  9  1  0  0  0
  8 22  1  0  0  0
  9 10  1  0  0  0
  9 27  2  0  0  0
 10 11  2  0  0  0
 10 15  1  0  0  0
 11 12  1  0  0  0
 11 97  1  0  0  0
 12 13  2  0  0  0
 12 98  1  0  0  0
 13 14  1  0  0  0
 13 31  1  0  0  0
 14 15  2  0  0  0
 14 99  1  0  0  0
 15100  1  0  0  0
 16 17  2  0  0  0
 16 21  1  0  0  0
 16 31  1  0  0  0
 17 18  1  0  0  0
 17101  1  0  0  0
 18 19  2  0  0  0
 18102  1  0  0  0
 19 20  1  0  0  0
 19 24  1  0  0  0
 20 21  2  0  0  0
 20103  1  0  0  0
 21 23  1  0  0  0
 22 28  1  0  0  0
 22 32  2  0  0  0
 26 27  1  0  0  0
 28104  1  0  0  0
 28105  1  0  0  0
 29106  1  0  0  0
 29107  1  0  0  0
 33 34  1  0  0  0
 33 66  1  0  0  0
 33 70  2  0  0  0
 34 36  1  0  0  0
 34 59  1  0  0  0
 34108  1  0  0  0
 35 44  2  0  0  0
 35 45  1  0  0  0
 35 68  1  0  0  0
 36 56  1  0  0  0
 36109  1  0  0  0
 37 39  1  0  0  0
 37 47  1  0  0  0
 37 66  1  0  0  0
 37110  1  0  0  0
 38 43  2  0  0  0
 38 46  1  0  0  0
 38 47  1  0  0  0
 39 64  1  0  0  0
 39 67  2  0  0  0
 40 52  1  0  0  0
 40 53  2  0  0  0
 40 58  1  0  0  0
 41111  1  0  0  0
 41112  1  0  0  0
 41113  1  0  0  0
 41 48  1  0  0  0
 42 43  1  0  0  0
 42 66  1  0  0  0
 42114  1  0  0  0
 42115  1  0  0  0
 43 44  1  0  0  0
 44116  1  0  0  0
 45 46  2  0  0  0
 45117  1  0  0  0
 46118  1  0  0  0
 47119  1  0  0  0
 47120  1  0  0  0
 48 56  1  0  0  0
 48 65  1  0  0  0
 48121  1  0  0  0
 49 50  1  0  0  0
 49 53  1  0  0  0
 49 64  1  0  0  0
 49122  1  0  0  0
 50 51  1  0  0  0
 50123  1  0  0  0
 50124  1  0  0  0
 51 52  1  0  0  0
 51125  1  0  0  0
 51126  1  0  0  0
 52127  1  0  0  0
 52128  1  0  0  0
 53 54  1  0  0  0
 54 55  2  0  0  0
 54129  1  0  0  0
 55 57  1  0  0  0
 55130  1  0  0  0
 56 69  2  0  0  0
 57 58  2  0  0  0
 57131  1  0  0  0
 58132  1  0  0  0
 59 60  1  0  0  0
 59 61  1  0  0  0
 59 62  1  0  0  0
 60133  1  0  0  0
 60134  1  0  0  0
 60135  1  0  0  0
 61136  1  0  0  0
 61137  1  0  0  0
 61138  1  0  0  0
 62139  1  0  0  0
 62140  1  0  0  0
 62141  1  0  0  0
 63 65  1  0  0  0
 63142  1  0  0  0
 63143  1  0  0  0
 63144  1  0  0  0
 64145  1  0  0  0
 65146  1  0  0  0
 68 80  1  0  0  0
 71 72  2  0  0  0
 71 75  1  0  0  0
 71147  1  0  0  0
 72 77  1  0  0  0
 72148  1  0  0  0
 73 76  1  0  0  0
 73 77  2  0  0  0
 73149  1  0  0  0
 74 75  2  0  0  0
 74 79  1  0  0  0
 74150  1  0  0  0
 75 76  1  0  0  0
 76 78  2  0  0  0
 77 80  1  0  0  0
 78 81  1  0  0  0
 78 85  1  0  0  0
 79 85  2  0  0  0
 79 86  1  0  0  0
 80151  1  0  0  0
 80152  1  0  0  0
 81 82  1  0  0  0
 81153  1  0  0  0
 81154  1  0  0  0
 82 83  1  0  0  0
 82155  1  0  0  0
 82156  1  0  0  0
 83 84  1  0  0  0
 83157  1  0  0  0
 83158  1  0  0  0
 84 87  1  0  0  0
 84159  1  0  0  0
 84160  1  0  0  0
 86161  1  0  0  0
 87162  1  0  0  0
 87163  1  0  0  0
 87164  1  0  0  0
M  CHG  1  87   1
M  ISO  4   1 100  68 101  80 101  86 100
M  END
> <chiral flag>
0

> <version>
0

> <s_m_source_file>
/data/baiqing/PycharmProjects/Reinvent-master-3.2/result/LINK_invent/BTK/process_docking_weight1_custom_sum_contain_oxygen_bond_distance_aromatic_linkinvent_7_9_3/rearranged_h_0128.sdf

> <i_m_source_file_index>
13

> <r_mmod_Potential_Energy-OPLS-2005>
201.798980712891

> <r_mmod_Stretch_Energy-OPLS-2005>
267.597229003906

> <r_mmod_Bend_Energy-OPLS-2005>
304.799987792969

> <r_mmod_Torsional_Energy-OPLS-2005>
241.837860107422

> <r_mmod_Improper_Torsional_Energy-OPLS-2005>
7.36112117767334

> <r_mmod_Van_der_Waal_Energy-OPLS-2005>
143.464340209961

> <r_mmod_Electrostatic_Energy-OPLS-2005>
-479.528869628906

> <r_mmod_Solvation_Energy-OPLS-2005>
-526.900451660156

> <b_mmod_Minimization_Converged-OPLS-2005>
0

> <r_mmod_RMS_Derivative-OPLS-2005>
2.47435522079468

$$$$
13
                    3D
 Structure written by MMmdl.
163171  0  0  1  0            999 V2000
  -30.2345  -15.5972   20.0767 C   0  0  0  0  0  0
  -30.4289  -13.0402   19.4647 C   0  0  0  0  0  0
  -29.5389  -12.5795   18.2899 C   0  0  0  0  0  0
  -28.1506  -12.1958   18.8216 C   0  0  0  0  0  0
  -27.6023  -13.2576   19.7989 C   0  0  2  0  0  0
  -28.6258  -13.6378   20.8856 C   0  0  0  0  0  0
  -25.2508  -13.8192   20.5791 C   0  0  0  0  0  0
  -24.1818  -13.0427   20.9282 C   0  0  0  0  0  0
  -24.6410  -11.6896   20.8783 C   0  0  0  0  0  0
  -23.9061  -10.4293   21.0449 C   0  0  0  0  0  0
  -24.3543   -9.4224   21.9256 C   0  0  0  0  0  0
  -23.6235   -8.2250   22.0793 C   0  0  0  0  0  0
  -22.4262   -8.0248   21.3519 C   0  0  0  0  0  0
  -21.9884   -9.0271   20.4676 C   0  0  0  0  0  0
  -22.7219  -10.2156   20.3131 C   0  0  0  0  0  0
  -21.6857   -6.0720   22.5266 C   0  0  0  0  0  0
  -21.4018   -6.5637   23.8194 C   0  0  0  0  0  0
  -21.3638   -5.6800   24.9157 C   0  0  0  0  0  0
  -21.6038   -4.3063   24.7217 C   0  0  0  0  0  0
  -21.8838   -3.8141   23.4343 C   0  0  0  0  0  0
  -21.9212   -4.6952   22.3393 C   0  0  0  0  0  0
  -22.7833  -13.5239   21.1852 C   0  0  0  0  0  0
  -22.1690   -4.2120   21.0975 F   0  0  0  0  0  0
  -21.5609   -3.4556   25.7741 F   0  0  0  0  0  0
  -29.7722  -14.2238   20.1606 N   0  0  0  0  0  0
  -26.2872  -12.9386   20.3277 N   0  0  0  0  0  0
  -25.9330  -11.6505   20.5705 N   0  0  0  0  0  0
  -22.0350  -12.8314   22.0352 N   0  0  0  0  0  0
  -25.4238  -15.1902   20.4074 N   0  0  0  0  0  0
  -31.4768  -15.5818   19.9780 O   0  0  0  0  0  0
  -21.6647   -6.8826   21.4203 O   0  0  0  0  0  0
  -22.3566  -14.5523   20.6625 O   0  0  0  0  0  0
  -24.7193  -31.7671   23.0117 C   0  0  0  0  0  0
  -25.9630  -32.4175   23.7130 C   0  0  1  0  0  0
  -27.8014  -26.9495   20.6665 C   0  0  0  0  0  0
  -25.6076  -33.7942   24.1283 N   0  0  0  0  0  0
  -23.4488  -30.4075   21.4077 C   0  0  2  0  0  0
  -24.6509  -28.6627   19.8848 C   0  0  0  0  0  0
  -22.7352  -29.4884   22.4406 C   0  0  0  0  0  0
  -18.0360  -28.1380   22.8382 C   0  0  0  0  0  0
  -24.1537  -36.7087   23.2652 C   0  0  0  0  0  0
  -25.9738  -30.7229   20.8859 C   0  0  0  0  0  0
  -26.1081  -29.3498   19.9728 C   0  0  0  0  0  0
  -27.5412  -28.5284   20.1612 C   0  0  0  0  0  0
  -26.5526  -25.8743   20.9261 C   0  0  0  0  0  0
  -24.3577  -27.0785   20.3410 C   0  0  0  0  0  0
  -23.5285  -29.6872   20.0214 C   0  0  0  0  0  0
  -25.4191  -36.2679   24.0205 C   0  0  1  0  0  0
  -20.5938  -28.3945   23.1073 C   0  0  2  0  0  0
  -20.6853  -26.9508   22.5627 C   0  0  0  0  0  0
  -19.5992  -26.6264   21.5312 C   0  0  0  0  0  0
  -18.2065  -26.7937   22.1459 C   0  0  0  0  0  0
  -19.1559  -28.8954   23.2745 C   0  0  0  0  0  0
  -18.9374  -30.1501   23.8835 C   0  0  0  0  0  0
  -17.6326  -30.6510   24.0532 C   0  0  0  0  0  0
  -25.9224  -34.9158   23.4647 C   0  0  0  0  0  0
  -16.5281  -29.8942   23.6268 C   0  0  0  0  0  0
  -16.7310  -28.6384   23.0287 C   0  0  0  0  0  0
  -26.4621  -31.6310   24.9969 C   0  0  0  0  0  0
  -25.3716  -31.3814   26.0695 C   0  0  0  0  0  0
  -27.0396  -30.2647   24.5763 C   0  0  0  0  0  0
  -27.6033  -32.4156   25.6948 C   0  0  0  0  0  0
  -27.5579  -37.1630   24.8455 C   0  0  0  0  0  0
  -21.4093  -29.3075   22.3021 N   0  0  0  0  0  0
  -26.4243  -37.3533   23.9454 N   0  0  0  0  0  0
  -24.7734  -30.9685   21.8531 N   0  0  0  0  0  0
  -23.3717  -28.9450   23.3440 O   0  0  0  0  0  0
  -28.8407  -26.4052   21.3032 O   0  0  0  0  0  0
  -26.5944  -34.8976   22.4318 O   0  0  0  0  0  0
  -23.6378  -32.0472   23.5676 O   0  0  0  0  0  0
  -25.1255  -25.2645   19.1175 C   0  0  0  0  0  0
  -25.8824  -27.7572   21.6916 C   0  0  0  0  0  0
  -24.4940  -24.6560   20.5902 C   0  0  0  0  0  0
  -25.0446  -26.7410   22.6427 C   0  0  0  0  0  0
  -26.0890  -26.7465   19.0584 C   0  0  0  0  0  0
  -24.6461  -25.2638   22.1681 C   0  0  0  0  0  0
  -27.1938  -25.2172   18.5252 C   0  0  0  0  0  0
  -29.3680  -18.5723   19.3061 C   0  0  0  0  0  0
  -27.6755  -23.4424   19.3100 C   0  0  0  0  0  0
  -28.5544  -20.2964   19.6883 C   0  0  0  0  0  0
  -27.0756  -25.1690   23.3800 C   0  0  0  0  0  0
  -28.4872  -25.3891   22.4338 C   0  0  0  0  0  0
  -29.3893  -16.8902   19.9015 N   0  0  0  0  0  0
  -28.2775  -21.8359   18.8547 N   0  3  0  0  0  0
  -25.6679  -24.5664   22.9503 O   0  0  0  0  0  0
  -31.3984  -13.3230   19.0572 H   0  0  0  0  0  0
  -30.6299  -12.2238   20.1599 H   0  0  0  0  0  0
  -29.9963  -11.7421   17.7603 H   0  0  0  0  0  0
  -29.4536  -13.3891   17.5659 H   0  0  0  0  0  0
  -28.2825  -11.2590   19.3699 H   0  0  0  0  0  0
  -27.4540  -11.9858   18.0114 H   0  0  0  0  0  0
  -27.4508  -14.1424   19.1799 H   0  0  0  0  0  0
  -28.9113  -12.7952   21.5180 H   0  0  0  0  0  0
  -28.2069  -14.4000   21.5461 H   0  0  0  0  0  0
  -25.2633   -9.5752   22.4879 H   0  0  0  0  0  0
  -23.9951   -7.4668   22.7533 H   0  0  0  0  0  0
  -21.0815   -8.8812   19.8965 H   0  0  0  0  0  0
  -22.3657  -10.9711   19.6277 H   0  0  0  0  0  0
  -21.2015   -7.6142   23.9663 H   0  0  0  0  0  0
  -21.1428   -6.0538   25.9043 H   0  0  0  0  0  0
  -22.0627   -2.7592   23.2883 H   0  0  0  0  0  0
  -22.3838  -12.0016   22.4913 H   0  0  0  0  0  0
  -21.0936  -13.1424   22.2315 H   0  0  0  0  0  0
  -24.6567  -15.8475   20.4996 H   0  0  0  0  0  0
  -26.2615  -15.6029   20.0204 H   0  0  0  0  0  0
  -26.7808  -32.4593   22.9949 H   0  0  0  0  0  0
  -25.0138  -33.8693   24.9404 H   0  0  0  0  0  0
  -22.7866  -31.2653   21.2622 H   0  0  0  0  0  0
  -23.3824  -35.9377   23.3050 H   0  0  0  0  0  0
  -24.3646  -36.9076   22.2128 H   0  0  0  0  0  0
  -23.7274  -37.6144   23.6985 H   0  0  0  0  0  0
  -26.0156  -31.5730   20.2027 H   0  0  0  0  0  0
  -26.8919  -30.8005   21.4685 H   0  0  0  0  0  0
  -28.4053  -29.1702   20.2650 H   0  0  0  0  0  0
  -26.7507  -24.8276   21.0603 H   0  0  0  0  0  0
  -23.3377  -26.7248   20.3778 H   0  0  0  0  0  0
  -23.6737  -30.4417   19.2484 H   0  0  0  0  0  0
  -22.5766  -29.2161   19.7700 H   0  0  0  0  0  0
  -25.1421  -36.1245   25.0675 H   0  0  0  0  0  0
  -21.0190  -28.3910   24.1125 H   0  0  0  0  0  0
  -20.5544  -26.2664   23.4032 H   0  0  0  0  0  0
  -21.6808  -26.7336   22.1727 H   0  0  0  0  0  0
  -19.7230  -25.6086   21.1588 H   0  0  0  0  0  0
  -19.7086  -27.2893   20.6726 H   0  0  0  0  0  0
  -17.4528  -26.6830   21.3646 H   0  0  0  0  0  0
  -18.0213  -26.0000   22.8714 H   0  0  0  0  0  0
  -19.7783  -30.7398   24.2229 H   0  0  0  0  0  0
  -17.4760  -31.6152   24.5166 H   0  0  0  0  0  0
  -15.5244  -30.2743   23.7533 H   0  0  0  0  0  0
  -15.8778  -28.0574   22.7039 H   0  0  0  0  0  0
  -24.5676  -30.7443   25.7019 H   0  0  0  0  0  0
  -24.9239  -32.3160   26.4090 H   0  0  0  0  0  0
  -25.7861  -30.8867   26.9489 H   0  0  0  0  0  0
  -26.2612  -29.6005   24.2037 H   0  0  0  0  0  0
  -27.5119  -29.7518   25.4152 H   0  0  0  0  0  0
  -27.7967  -30.3647   23.7988 H   0  0  0  0  0  0
  -27.2492  -33.3493   26.1359 H   0  0  0  0  0  0
  -28.4004  -32.6675   24.9938 H   0  0  0  0  0  0
  -28.0551  -31.8395   26.5044 H   0  0  0  0  0  0
  -28.2395  -38.0107   24.7626 H   0  0  0  0  0  0
  -28.1262  -36.2618   24.6081 H   0  0  0  0  0  0
  -27.2347  -37.1026   25.8864 H   0  0  0  0  0  0
  -20.9414  -29.7879   21.5456 H   0  0  0  0  0  0
  -25.9996  -38.2526   24.1554 H   0  0  0  0  0  0
  -24.9222  -24.6855   18.2274 H   0  0  0  0  0  0
  -26.2526  -28.6419   22.1872 H   0  0  0  0  0  0
  -24.0154  -23.6927   20.5145 H   0  0  0  0  0  0
  -24.9854  -26.9946   23.6877 H   0  0  0  0  0  0
  -28.1585  -25.6762   18.3132 H   0  0  0  0  0  0
  -26.8802  -24.9655   17.5096 H   0  0  0  0  0  0
  -30.4306  -18.8065   19.2555 H   0  0  0  0  0  0
  -29.1058  -18.4036   18.2603 H   0  0  0  0  0  0
  -26.8228  -23.1163   19.9029 H   0  0  0  0  0  0
  -28.4587  -23.7229   20.0285 H   0  0  0  0  0  0
  -29.1152  -20.6250   20.5632 H   0  0  0  0  0  0
  -27.5730  -20.0520   20.0890 H   0  0  0  0  0  0
  -26.9692  -26.0810   23.9716 H   0  0  0  0  0  0
  -27.3968  -24.4692   24.1546 H   0  0  0  0  0  0
  -28.7212  -24.4187   22.0043 H   0  0  0  0  0  0
  -29.3029  -25.5361   23.1409 H   0  0  0  0  0  0
  -28.4304  -16.5810   19.9965 H   0  0  0  0  0  0
  -29.1132  -21.9834   18.3114 H   0  0  0  0  0  0
  -27.5955  -21.5589   18.1709 H   0  0  0  0  0  0
  1 25  1  0  0  0
  1 30  2  0  0  0
  1 83  1  0  0  0
  2  3  1  0  0  0
  2 25  1  0  0  0
  2 86  1  0  0  0
  2 87  1  0  0  0
  3  4  1  0  0  0
  3 88  1  0  0  0
  3 89  1  0  0  0
  4  5  1  0  0  0
  4 90  1  0  0  0
  4 91  1  0  0  0
  5  6  1  0  0  0
  5 26  1  0  0  0
  5 92  1  0  0  0
  6 25  1  0  0  0
  6 93  1  0  0  0
  6 94  1  0  0  0
  7  8  2  0  0  0
  7 26  1  0  0  0
  7 29  1  0  0  0
  8  9  1  0  0  0
  8 22  1  0  0  0
  9 10  1  0  0  0
  9 27  2  0  0  0
 10 11  2  0  0  0
 10 15  1  0  0  0
 11 12  1  0  0  0
 11 95  1  0  0  0
 12 13  2  0  0  0
 12 96  1  0  0  0
 13 14  1  0  0  0
 13 31  1  0  0  0
 14 15  2  0  0  0
 14 97  1  0  0  0
 15 98  1  0  0  0
 16 17  2  0  0  0
 16 21  1  0  0  0
 16 31  1  0  0  0
 17 18  1  0  0  0
 17 99  1  0  0  0
 18 19  2  0  0  0
 18100  1  0  0  0
 19 20  1  0  0  0
 19 24  1  0  0  0
 20 21  2  0  0  0
 20101  1  0  0  0
 21 23  1  0  0  0
 22 28  1  0  0  0
 22 32  2  0  0  0
 26 27  1  0  0  0
 28102  1  0  0  0
 28103  1  0  0  0
 29104  1  0  0  0
 29105  1  0  0  0
 33 34  1  0  0  0
 33 66  1  0  0  0
 33 70  2  0  0  0
 34 36  1  0  0  0
 34 59  1  0  0  0
 34106  1  0  0  0
 35 44  2  0  0  0
 35 45  1  0  0  0
 35 68  1  0  0  0
 36 56  1  0  0  0
 36107  1  0  0  0
 37 39  1  0  0  0
 37 47  1  0  0  0
 37 66  1  0  0  0
 37108  1  0  0  0
 38 43  2  0  0  0
 38 46  1  0  0  0
 38 47  1  0  0  0
 39 64  1  0  0  0
 39 67  2  0  0  0
 40 52  1  0  0  0
 40 53  2  0  0  0
 40 58  1  0  0  0
 41109  1  0  0  0
 41110  1  0  0  0
 41111  1  0  0  0
 41 48  1  0  0  0
 42 43  1  0  0  0
 42 66  1  0  0  0
 42112  1  0  0  0
 42113  1  0  0  0
 43 44  1  0  0  0
 44114  1  0  0  0
 45 46  2  0  0  0
 45115  1  0  0  0
 46116  1  0  0  0
 47117  1  0  0  0
 47118  1  0  0  0
 48 56  1  0  0  0
 48 65  1  0  0  0
 48119  1  0  0  0
 49 50  1  0  0  0
 49 53  1  0  0  0
 49 64  1  0  0  0
 49120  1  0  0  0
 50 51  1  0  0  0
 50121  1  0  0  0
 50122  1  0  0  0
 51 52  1  0  0  0
 51123  1  0  0  0
 51124  1  0  0  0
 52125  1  0  0  0
 52126  1  0  0  0
 53 54  1  0  0  0
 54 55  2  0  0  0
 54127  1  0  0  0
 55 57  1  0  0  0
 55128  1  0  0  0
 56 69  2  0  0  0
 57 58  2  0  0  0
 57129  1  0  0  0
 58130  1  0  0  0
 59 60  1  0  0  0
 59 61  1  0  0  0
 59 62  1  0  0  0
 60131  1  0  0  0
 60132  1  0  0  0
 60133  1  0  0  0
 61134  1  0  0  0
 61135  1  0  0  0
 61136  1  0  0  0
 62137  1  0  0  0
 62138  1  0  0  0
 62139  1  0  0  0
 63 65  1  0  0  0
 63140  1  0  0  0
 63141  1  0  0  0
 63142  1  0  0  0
 64143  1  0  0  0
 65144  1  0  0  0
 68 82  1  0  0  0
 71 73  2  0  0  0
 71 75  1  0  0  0
 71145  1  0  0  0
 72 74  1  0  0  0
 72 75  2  0  0  0
 72146  1  0  0  0
 73 76  1  0  0  0
 73147  1  0  0  0
 74 76  2  0  0  0
 74148  1  0  0  0
 75 77  1  0  0  0
 76 85  1  0  0  0
 77 79  1  0  0  0
 77149  1  0  0  0
 77150  1  0  0  0
 78 80  1  0  0  0
 78 83  1  0  0  0
 78151  1  0  0  0
 78152  1  0  0  0
 79 84  1  0  0  0
 79153  1  0  0  0
 79154  1  0  0  0
 80 84  1  0  0  0
 80155  1  0  0  0
 80156  1  0  0  0
 81 82  1  0  0  0
 81 85  1  0  0  0
 81157  1  0  0  0
 81158  1  0  0  0
 82159  1  0  0  0
 82160  1  0  0  0
 83161  1  0  0  0
 84162  1  0  0  0
 84163  1  0  0  0
M  CHG  1  84   1
M  ISO  4   1 100  68 101  82 101  83 100
M  END
> <chiral flag>
0

> <version>
0

> <s_m_source_file>
/data/baiqing/PycharmProjects/Reinvent-master-3.2/result/LINK_invent/BTK/process_docking_weight1_custom_sum_contain_oxygen_bond_distance_aromatic_linkinvent_7_9_3/rearranged_h_0128.sdf

> <i_m_source_file_index>
14

> <r_mmod_Potential_Energy-OPLS-2005>
16180.41015625

> <r_mmod_Stretch_Energy-OPLS-2005>
9674.912109375

> <r_mmod_Bend_Energy-OPLS-2005>
1157.74230957031

> <r_mmod_Torsional_Energy-OPLS-2005>
571.181823730469

> <r_mmod_Improper_Torsional_Energy-OPLS-2005>
82.4303436279297

> <r_mmod_Van_der_Waal_Energy-OPLS-2005>
3968.30444335938

> <r_mmod_Electrostatic_Energy-OPLS-2005>
-286.992431640625

> <r_mmod_Solvation_Energy-OPLS-2005>
-502.521148681641

> <b_mmod_Minimization_Converged-OPLS-2005>
0

> <r_mmod_RMS_Derivative-OPLS-2005>
17.2540473937988

$$$$
14
                    3D
 Structure written by MMmdl.
161169  0  0  1  0            999 V2000
  -30.7493  -14.4014   20.6245 C   0  0  0  0  0  0
  -30.4200  -12.2809   19.4110 C   0  0  0  0  0  0
  -29.4904  -12.4932   18.2003 C   0  0  0  0  0  0
  -28.0139  -12.3565   18.6182 C   0  0  0  0  0  0
  -27.6675  -13.1977   19.8757 C   0  0  2  0  0  0
  -28.7063  -12.9652   20.9960 C   0  0  0  0  0  0
  -25.2628  -13.8138   20.5664 C   0  0  0  0  0  0
  -24.1860  -13.0443   20.9157 C   0  0  0  0  0  0
  -24.6389  -11.6901   20.8714 C   0  0  0  0  0  0
  -23.9048  -10.4291   21.0388 C   0  0  0  0  0  0
  -24.3603   -9.4215   21.9176 C   0  0  0  0  0  0
  -23.6284   -8.2248   22.0753 C   0  0  0  0  0  0
  -22.4272   -8.0275   21.3544 C   0  0  0  0  0  0
  -21.9903   -9.0243   20.4644 C   0  0  0  0  0  0
  -22.7219  -10.2126   20.3050 C   0  0  0  0  0  0
  -21.6861   -6.0735   22.5279 C   0  0  0  0  0  0
  -21.4007   -6.5636   23.8212 C   0  0  0  0  0  0
  -21.3658   -5.6791   24.9170 C   0  0  0  0  0  0
  -21.6044   -4.3052   24.7222 C   0  0  0  0  0  0
  -21.8823   -3.8146   23.4344 C   0  0  0  0  0  0
  -21.9192   -4.6964   22.3400 C   0  0  0  0  0  0
  -22.7888  -13.5257   21.1831 C   0  0  0  0  0  0
  -22.1667   -4.2150   21.0980 F   0  0  0  0  0  0
  -21.5631   -3.4538   25.7735 F   0  0  0  0  0  0
  -30.0465  -13.2512   20.4507 N   0  0  0  0  0  0
  -26.3061  -12.9298   20.3364 N   0  0  0  0  0  0
  -25.9317  -11.6468   20.5760 N   0  0  0  0  0  0
  -22.0525  -12.8238   22.0385 N   0  0  0  0  0  0
  -25.4397  -15.1854   20.4076 N   0  0  0  0  0  0
  -31.8063  -14.6456   20.0387 O   0  0  0  0  0  0
  -21.6639   -6.8875   21.4243 O   0  0  0  0  0  0
  -22.3577  -14.5576   20.6702 O   0  0  0  0  0  0
  -24.6139  -31.8676   23.2104 C   0  0  0  0  0  0
  -25.9031  -32.4827   23.8391 C   0  0  1  0  0  0
  -27.2210  -27.4266   20.1086 C   0  0  0  0  0  0
  -25.5887  -33.8622   24.2328 N   0  0  0  0  0  0
  -23.4011  -30.4943   21.5502 C   0  0  2  0  0  0
  -24.8440  -28.9652   20.1107 C   0  0  0  0  0  0
  -22.7411  -29.4658   22.4967 C   0  0  0  0  0  0
  -18.0269  -28.1379   22.8485 C   0  0  0  0  0  0
  -24.1492  -36.7310   23.2643 C   0  0  0  0  0  0
  -25.9304  -30.8333   21.3631 C   0  0  0  0  0  0
  -26.0049  -29.4679   20.7135 C   0  0  0  0  0  0
  -27.1950  -28.7048   20.7125 C   0  0  0  0  0  0
  -26.0507  -26.9601   19.4643 C   0  0  0  0  0  0
  -24.8638  -27.7105   19.4827 C   0  0  0  0  0  0
  -23.6077  -29.8310   20.1630 C   0  0  0  0  0  0
  -25.4109  -36.3104   24.0345 C   0  0  1  0  0  0
  -20.5868  -28.3651   23.1308 C   0  0  2  0  0  0
  -20.6765  -26.9386   22.5419 C   0  0  0  0  0  0
  -19.5748  -26.6376   21.5216 C   0  0  0  0  0  0
  -18.1919  -26.7922   22.1624 C   0  0  0  0  0  0
  -19.1522  -28.8829   23.2902 C   0  0  0  0  0  0
  -18.9457  -30.1438   23.8908 C   0  0  0  0  0  0
  -17.6466  -30.6582   24.0562 C   0  0  0  0  0  0
  -25.9029  -34.9470   23.5135 C   0  0  0  0  0  0
  -16.5349  -29.9085   23.6336 C   0  0  0  0  0  0
  -16.7262  -28.6508   23.0348 C   0  0  0  0  0  0
  -26.4453  -31.6599   25.0716 C   0  0  0  0  0  0
  -25.3726  -31.3703   26.1469 C   0  0  0  0  0  0
  -27.0294  -30.3063   24.6057 C   0  0  0  0  0  0
  -27.6035  -32.4318   25.7480 C   0  0  0  0  0  0
  -27.5579  -37.1807   24.8468 C   0  0  0  0  0  0
  -21.4136  -29.3034   22.3721 N   0  0  0  0  0  0
  -26.4290  -37.3794   23.9420 N   0  0  0  0  0  0
  -24.6668  -31.0782   22.1007 N   0  0  0  0  0  0
  -23.4185  -28.8203   23.3005 O   0  0  0  0  0  0
  -28.3744  -26.6691   20.1519 O   0  0  0  0  0  0
  -26.5589  -34.8917   22.4694 O   0  0  0  0  0  0
  -23.5334  -32.1414   23.7509 O   0  0  0  0  0  0
  -28.7285  -24.8195   21.7533 C   0  0  0  0  0  0
  -28.9564  -24.4359   19.3135 C   0  0  0  0  0  0
  -28.5487  -23.2948   21.9353 C   0  0  0  0  0  0
  -28.7485  -22.9258   19.5644 C   0  0  0  0  0  0
  -28.2137  -25.2517   20.3753 C   0  0  0  0  0  0
  -29.0379  -21.0949   21.1295 C   0  0  0  0  0  0
  -30.7095  -16.6512   21.7058 C   0  0  0  0  0  0
  -29.9633  -20.1737   20.2914 C   0  0  0  0  0  0
  -30.0136  -17.7229   20.8352 C   0  0  0  0  0  0
  -29.2549  -22.5334   20.8904 N   0  0  0  0  0  0
  -30.1944  -15.3023   21.4458 N   0  0  0  0  0  0
  -30.5500  -19.0794   21.0990 N   0  3  0  0  0  0
  -31.4652  -12.3692   19.1084 H   0  0  0  0  0  0
  -30.3138  -11.2667   19.7999 H   0  0  0  0  0  0
  -29.7231  -11.7661   17.4210 H   0  0  0  0  0  0
  -29.6644  -13.4779   17.7646 H   0  0  0  0  0  0
  -27.8265  -11.3003   18.8183 H   0  0  0  0  0  0
  -27.3588  -12.6274   17.7892 H   0  0  0  0  0  0
  -27.7211  -14.2467   19.5831 H   0  0  0  0  0  0
  -28.6687  -11.9304   21.3382 H   0  0  0  0  0  0
  -28.4590  -13.5638   21.8728 H   0  0  0  0  0  0
  -25.2756   -9.5694   22.4740 H   0  0  0  0  0  0
  -23.9999   -7.4645   22.7476 H   0  0  0  0  0  0
  -21.0842   -8.8758   19.8943 H   0  0  0  0  0  0
  -22.3687  -10.9661   19.6147 H   0  0  0  0  0  0
  -21.1998   -7.6145   23.9714 H   0  0  0  0  0  0
  -21.1474   -6.0520   25.9075 H   0  0  0  0  0  0
  -22.0602   -2.7611   23.2844 H   0  0  0  0  0  0
  -22.4140  -11.9880   22.4730 H   0  0  0  0  0  0
  -21.1145  -13.1260   22.2604 H   0  0  0  0  0  0
  -24.6773  -15.8461   20.5127 H   0  0  0  0  0  0
  -26.2992  -15.6190   20.0958 H   0  0  0  0  0  0
  -26.7084  -32.5533   23.1129 H   0  0  0  0  0  0
  -25.0058  -33.9793   25.0488 H   0  0  0  0  0  0
  -22.6909  -31.3106   21.4102 H   0  0  0  0  0  0
  -23.3758  -35.9641   23.3311 H   0  0  0  0  0  0
  -24.3578  -36.8922   22.2055 H   0  0  0  0  0  0
  -23.7248  -37.6529   23.6641 H   0  0  0  0  0  0
  -26.0360  -31.5939   20.5893 H   0  0  0  0  0  0
  -26.8215  -30.8913   21.9746 H   0  0  0  0  0  0
  -28.0862  -29.0791   21.1987 H   0  0  0  0  0  0
  -26.0379  -26.0142   18.9422 H   0  0  0  0  0  0
  -23.9768  -27.3216   19.0025 H   0  0  0  0  0  0
  -23.7129  -30.6057   19.4025 H   0  0  0  0  0  0
  -22.7321  -29.2503   19.8678 H   0  0  0  0  0  0
  -25.1285  -36.1968   25.0839 H   0  0  0  0  0  0
  -20.9953  -28.3196   24.1434 H   0  0  0  0  0  0
  -20.5699  -26.2243   23.3599 H   0  0  0  0  0  0
  -21.6625  -26.7431   22.1188 H   0  0  0  0  0  0
  -19.6925  -25.6301   21.1226 H   0  0  0  0  0  0
  -19.6708  -27.3199   20.6768 H   0  0  0  0  0  0
  -17.4201  -26.6675   21.4018 H   0  0  0  0  0  0
  -18.0302  -26.0063   22.9008 H   0  0  0  0  0  0
  -19.7943  -30.7250   24.2270 H   0  0  0  0  0  0
  -17.5028  -31.6270   24.5156 H   0  0  0  0  0  0
  -15.5356  -30.3005   23.7676 H   0  0  0  0  0  0
  -15.8646  -28.0848   22.7052 H   0  0  0  0  0  0
  -24.5891  -30.7044   25.7811 H   0  0  0  0  0  0
  -24.8912  -32.2862   26.4908 H   0  0  0  0  0  0
  -25.8079  -30.8885   27.0228 H   0  0  0  0  0  0
  -26.2823  -29.6837   24.1111 H   0  0  0  0  0  0
  -27.4131  -29.7271   25.4468 H   0  0  0  0  0  0
  -27.8610  -30.4440   23.9144 H   0  0  0  0  0  0
  -27.2648  -33.3611   26.2066 H   0  0  0  0  0  0
  -28.3834  -32.6895   25.0299 H   0  0  0  0  0  0
  -28.0694  -31.8432   26.5396 H   0  0  0  0  0  0
  -28.2592  -38.0109   24.7503 H   0  0  0  0  0  0
  -28.1082  -36.2639   24.6291 H   0  0  0  0  0  0
  -27.2281  -37.1431   25.8867 H   0  0  0  0  0  0
  -20.9270  -29.8771   21.6970 H   0  0  0  0  0  0
  -26.0187  -38.2879   24.1422 H   0  0  0  0  0  0
  -29.7766  -25.0920   21.8790 H   0  0  0  0  0  0
  -28.1778  -25.3448   22.5355 H   0  0  0  0  0  0
  -28.5900  -24.7019   18.3214 H   0  0  0  0  0  0
  -30.0205  -24.6774   19.3292 H   0  0  0  0  0  0
  -27.4851  -23.0439   21.9250 H   0  0  0  0  0  0
  -28.9223  -23.0080   22.9192 H   0  0  0  0  0  0
  -29.2580  -22.3651   18.7811 H   0  0  0  0  0  0
  -27.6857  -22.6850   19.4802 H   0  0  0  0  0  0
  -27.1711  -24.9401   20.3592 H   0  0  0  0  0  0
  -29.2418  -20.9056   22.1845 H   0  0  0  0  0  0
  -27.9905  -20.8227   20.9806 H   0  0  0  0  0  0
  -30.5612  -16.8712   22.7638 H   0  0  0  0  0  0
  -31.7895  -16.6838   21.5445 H   0  0  0  0  0  0
  -30.8074  -20.7492   19.9107 H   0  0  0  0  0  0
  -29.4438  -19.7917   19.4121 H   0  0  0  0  0  0
  -28.9375  -17.7120   21.0180 H   0  0  0  0  0  0
  -30.1554  -17.4857   19.7794 H   0  0  0  0  0  0
  -29.3395  -15.0283   21.9071 H   0  0  0  0  0  0
  -30.4390  -19.3096   22.0729 H   0  0  0  0  0  0
  -31.5389  -19.0639   20.9057 H   0  0  0  0  0  0
  1 25  1  0  0  0
  1 30  2  0  0  0
  1 81  1  0  0  0
  2  3  1  0  0  0
  2 25  1  0  0  0
  2 83  1  0  0  0
  2 84  1  0  0  0
  3  4  1  0  0  0
  3 85  1  0  0  0
  3 86  1  0  0  0
  4  5  1  0  0  0
  4 87  1  0  0  0
  4 88  1  0  0  0
  5  6  1  0  0  0
  5 26  1  0  0  0
  5 89  1  0  0  0
  6 25  1  0  0  0
  6 90  1  0  0  0
  6 91  1  0  0  0
  7  8  2  0  0  0
  7 26  1  0  0  0
  7 29  1  0  0  0
  8  9  1  0  0  0
  8 22  1  0  0  0
  9 10  1  0  0  0
  9 27  2  0  0  0
 10 11  2  0  0  0
 10 15  1  0  0  0
 11 12  1  0  0  0
 11 92  1  0  0  0
 12 13  2  0  0  0
 12 93  1  0  0  0
 13 14  1  0  0  0
 13 31  1  0  0  0
 14 15  2  0  0  0
 14 94  1  0  0  0
 15 95  1  0  0  0
 16 17  2  0  0  0
 16 21  1  0  0  0
 16 31  1  0  0  0
 17 18  1  0  0  0
 17 96  1  0  0  0
 18 19  2  0  0  0
 18 97  1  0  0  0
 19 20  1  0  0  0
 19 24  1  0  0  0
 20 21  2  0  0  0
 20 98  1  0  0  0
 21 23  1  0  0  0
 22 28  1  0  0  0
 22 32  2  0  0  0
 26 27  1  0  0  0
 28 99  1  0  0  0
 28100  1  0  0  0
 29101  1  0  0  0
 29102  1  0  0  0
 33 34  1  0  0  0
 33 66  1  0  0  0
 33 70  2  0  0  0
 34 36  1  0  0  0
 34 59  1  0  0  0
 34103  1  0  0  0
 35 44  2  0  0  0
 35 45  1  0  0  0
 35 68  1  0  0  0
 36 56  1  0  0  0
 36104  1  0  0  0
 37 39  1  0  0  0
 37 47  1  0  0  0
 37 66  1  0  0  0
 37105  1  0  0  0
 38 43  2  0  0  0
 38 46  1  0  0  0
 38 47  1  0  0  0
 39 64  1  0  0  0
 39 67  2  0  0  0
 40 52  1  0  0  0
 40 53  2  0  0  0
 40 58  1  0  0  0
 41106  1  0  0  0
 41107  1  0  0  0
 41108  1  0  0  0
 41 48  1  0  0  0
 42 43  1  0  0  0
 42 66  1  0  0  0
 42109  1  0  0  0
 42110  1  0  0  0
 43 44  1  0  0  0
 44111  1  0  0  0
 45 46  2  0  0  0
 45112  1  0  0  0
 46113  1  0  0  0
 47114  1  0  0  0
 47115  1  0  0  0
 48 56  1  0  0  0
 48 65  1  0  0  0
 48116  1  0  0  0
 49 50  1  0  0  0
 49 53  1  0  0  0
 49 64  1  0  0  0
 49117  1  0  0  0
 50 51  1  0  0  0
 50118  1  0  0  0
 50119  1  0  0  0
 51 52  1  0  0  0
 51120  1  0  0  0
 51121  1  0  0  0
 52122  1  0  0  0
 52123  1  0  0  0
 53 54  1  0  0  0
 54 55  2  0  0  0
 54124  1  0  0  0
 55 57  1  0  0  0
 55125  1  0  0  0
 56 69  2  0  0  0
 57 58  2  0  0  0
 57126  1  0  0  0
 58127  1  0  0  0
 59 60  1  0  0  0
 59 61  1  0  0  0
 59 62  1  0  0  0
 60128  1  0  0  0
 60129  1  0  0  0
 60130  1  0  0  0
 61131  1  0  0  0
 61132  1  0  0  0
 61133  1  0  0  0
 62134  1  0  0  0
 62135  1  0  0  0
 62136  1  0  0  0
 63 65  1  0  0  0
 63137  1  0  0  0
 63138  1  0  0  0
 63139  1  0  0  0
 64140  1  0  0  0
 65141  1  0  0  0
 68 75  1  0  0  0
 71 73  1  0  0  0
 71 75  1  0  0  0
 71142  1  0  0  0
 71143  1  0  0  0
 72 74  1  0  0  0
 72 75  1  0  0  0
 72144  1  0  0  0
 72145  1  0  0  0
 73 80  1  0  0  0
 73146  1  0  0  0
 73147  1  0  0  0
 74 80  1  0  0  0
 74148  1  0  0  0
 74149  1  0  0  0
 75150  1  0  0  0
 76 78  1  0  0  0
 76 80  1  0  0  0
 76151  1  0  0  0
 76152  1  0  0  0
 77 79  1  0  0  0
 77 81  1  0  0  0
 77153  1  0  0  0
 77154  1  0  0  0
 78 82  1  0  0  0
 78155  1  0  0  0
 78156  1  0  0  0
 79 82  1  0  0  0
 79157  1  0  0  0
 79158  1  0  0  0
 81159  1  0  0  0
 82160  1  0  0  0
 82161  1  0  0  0
M  CHG  1  82   1
M  ISO  4   1 100  68 101  75 101  81 100
M  END
> <chiral flag>
0

> <version>
0

> <s_m_source_file>
/data/baiqing/PycharmProjects/Reinvent-master-3.2/result/LINK_invent/BTK/process_docking_weight1_custom_sum_contain_oxygen_bond_distance_aromatic_linkinvent_7_9_3/rearranged_h_0128.sdf

> <i_m_source_file_index>
15

> <r_mmod_Potential_Energy-OPLS-2005>
-261.452392578125

> <r_mmod_Stretch_Energy-OPLS-2005>
36.3836441040039

> <r_mmod_Bend_Energy-OPLS-2005>
95.3631973266602

> <r_mmod_Torsional_Energy-OPLS-2005>
235.541625976562

> <r_mmod_Improper_Torsional_Energy-OPLS-2005>
1.91224157810211

> <r_mmod_Van_der_Waal_Energy-OPLS-2005>
149.902465820312

> <r_mmod_Electrostatic_Energy-OPLS-2005>
-308.134185791016

> <r_mmod_Solvation_Energy-OPLS-2005>
-483.593170166016

> <b_mmod_Minimization_Converged-OPLS-2005>
0

> <r_mmod_RMS_Derivative-OPLS-2005>
2.48230743408203

$$$$
15
                    3D
 Structure written by MMmdl.
163171  0  0  1  0            999 V2000
  -30.6321  -14.7257   20.4573 C   0  0  0  0  0  0
  -30.4195  -12.4340   19.4723 C   0  0  0  0  0  0
  -29.5051  -12.5040   18.2284 C   0  0  0  0  0  0
  -28.0247  -12.3523   18.6357 C   0  0  0  0  0  0
  -27.6333  -13.2434   19.8471 C   0  0  2  0  0  0
  -28.6828  -13.1746   20.9767 C   0  0  0  0  0  0
  -25.2424  -13.8225   20.5705 C   0  0  0  0  0  0
  -24.1749  -13.0400   20.9190 C   0  0  0  0  0  0
  -24.6406  -11.6899   20.8719 C   0  0  0  0  0  0
  -23.9086  -10.4269   21.0416 C   0  0  0  0  0  0
  -24.3622   -9.4154   21.9181 C   0  0  0  0  0  0
  -23.6280   -8.2193   22.0765 C   0  0  0  0  0  0
  -22.4268   -8.0250   21.3546 C   0  0  0  0  0  0
  -21.9932   -9.0256   20.4656 C   0  0  0  0  0  0
  -22.7274  -10.2131   20.3045 C   0  0  0  0  0  0
  -21.6855   -6.0709   22.5260 C   0  0  0  0  0  0
  -21.4051   -6.5626   23.8196 C   0  0  0  0  0  0
  -21.3668   -5.6778   24.9170 C   0  0  0  0  0  0
  -21.6010   -4.3035   24.7240 C   0  0  0  0  0  0
  -21.8821   -3.8123   23.4374 C   0  0  0  0  0  0
  -21.9225   -4.6922   22.3408 C   0  0  0  0  0  0
  -22.7760  -13.5121   21.1881 C   0  0  0  0  0  0
  -22.1647   -4.2090   21.0988 F   0  0  0  0  0  0
  -21.5659   -3.4530   25.7775 F   0  0  0  0  0  0
  -29.9838  -13.5120   20.3888 N   0  0  0  0  0  0
  -26.2884  -12.9478   20.3286 N   0  0  0  0  0  0
  -25.9341  -11.6599   20.5743 N   0  0  0  0  0  0
  -22.0494  -12.8085   22.0476 N   0  0  0  0  0  0
  -25.4004  -15.1954   20.4145 N   0  0  0  0  0  0
  -31.8292  -14.8009   20.1651 O   0  0  0  0  0  0
  -21.6617   -6.8845   21.4219 O   0  0  0  0  0  0
  -22.3390  -14.5416   20.6773 O   0  0  0  0  0  0
  -24.6331  -31.8538   23.1982 C   0  0  0  0  0  0
  -25.9131  -32.4757   23.8339 C   0  0  1  0  0  0
  -27.2384  -27.2576   20.1467 C   0  0  0  0  0  0
  -25.5903  -33.8552   24.2271 N   0  0  0  0  0  0
  -23.4347  -30.4736   21.5399 C   0  0  2  0  0  0
  -24.8871  -28.9123   20.1211 C   0  0  0  0  0  0
  -22.7534  -29.4593   22.4900 C   0  0  0  0  0  0
  -18.0292  -28.1406   22.8482 C   0  0  0  0  0  0
  -24.1477  -36.7286   23.2636 C   0  0  0  0  0  0
  -25.9809  -30.7673   21.3767 C   0  0  0  0  0  0
  -26.0591  -29.3843   20.7301 C   0  0  0  0  0  0
  -27.2429  -28.5729   20.7250 C   0  0  0  0  0  0
  -26.0438  -26.8460   19.5229 C   0  0  0  0  0  0
  -24.8847  -27.6502   19.5074 C   0  0  0  0  0  0
  -23.6581  -29.8025   20.1577 C   0  0  0  0  0  0
  -25.4111  -36.3091   24.0334 C   0  0  1  0  0  0
  -20.5899  -28.3736   23.1273 C   0  0  2  0  0  0
  -20.6779  -26.9448   22.5420 C   0  0  0  0  0  0
  -19.5752  -26.6399   21.5227 C   0  0  0  0  0  0
  -18.1927  -26.7953   22.1627 C   0  0  0  0  0  0
  -19.1534  -28.8884   23.2869 C   0  0  0  0  0  0
  -18.9462  -30.1477   23.8901 C   0  0  0  0  0  0
  -17.6448  -30.6604   24.0581 C   0  0  0  0  0  0
  -25.9068  -34.9452   23.5118 C   0  0  0  0  0  0
  -16.5354  -29.9110   23.6305 C   0  0  0  0  0  0
  -16.7271  -28.6526   23.0343 C   0  0  0  0  0  0
  -26.4481  -31.6579   25.0736 C   0  0  0  0  0  0
  -25.3672  -31.3732   26.1429 C   0  0  0  0  0  0
  -27.0323  -30.3002   24.6226 C   0  0  0  0  0  0
  -27.6060  -32.4307   25.7485 C   0  0  0  0  0  0
  -27.5604  -37.1785   24.8453 C   0  0  0  0  0  0
  -21.4236  -29.3064   22.3636 N   0  0  0  0  0  0
  -26.4282  -37.3808   23.9430 N   0  0  0  0  0  0
  -24.7019  -31.0508   22.0949 N   0  0  0  0  0  0
  -23.4217  -28.8120   23.2996 O   0  0  0  0  0  0
  -28.3325  -26.3669   20.0536 O   0  0  0  0  0  0
  -26.5651  -34.8935   22.4714 O   0  0  0  0  0  0
  -23.5467  -32.1330   23.7287 O   0  0  0  0  0  0
  -29.0626  -21.9168   19.2074 C   0  0  0  0  0  0
  -28.7143  -23.3078   19.2374 C   0  0  0  0  0  0
  -29.3828  -21.4763   20.4650 C   0  0  0  0  0  0
  -28.7996  -23.8018   20.5149 C   0  0  0  0  0  0
  -29.7633  -25.8527   21.8129 C   0  0  0  0  0  0
  -30.8448  -22.6836   23.1455 C   0  0  0  0  0  0
  -28.5233  -21.6272   23.5174 C   0  0  0  0  0  0
  -30.0280  -20.0797   20.8882 C   0  0  0  0  0  0
  -29.4407  -18.6164   20.5046 C   0  0  0  0  0  0
  -30.3956  -17.3246   20.7681 C   0  0  0  0  0  0
  -28.5435  -25.2870   21.0635 C   0  0  1  0  0  0
  -29.3553  -22.6718   22.7512 C   0  0  0  0  0  0
  -29.1718  -22.6393   21.2905 N   0  0  0  0  0  0
  -29.8933  -15.8824   20.6419 N   0  0  0  0  0  0
  -31.4697  -12.5292   19.1924 H   0  0  0  0  0  0
  -30.3324  -11.4623   19.9564 H   0  0  0  0  0  0
  -29.7736  -11.7354   17.5016 H   0  0  0  0  0  0
  -29.6451  -13.4662   17.7321 H   0  0  0  0  0  0
  -27.8551  -11.3040   18.8765 H   0  0  0  0  0  0
  -27.3825  -12.5720   17.7835 H   0  0  0  0  0  0
  -27.6230  -14.2622   19.4653 H   0  0  0  0  0  0
  -28.7086  -12.1798   21.4170 H   0  0  0  0  0  0
  -28.4258  -13.8577   21.7880 H   0  0  0  0  0  0
  -25.2801   -9.5622   22.4683 H   0  0  0  0  0  0
  -23.9992   -7.4603   22.7520 H   0  0  0  0  0  0
  -21.0859   -8.8808   19.8968 H   0  0  0  0  0  0
  -22.3774  -10.9662   19.6093 H   0  0  0  0  0  0
  -21.2015   -7.6118   23.9702 H   0  0  0  0  0  0
  -21.1486   -6.0510   25.9080 H   0  0  0  0  0  0
  -22.0600   -2.7568   23.2915 H   0  0  0  0  0  0
  -22.4198  -11.9673   22.4655 H   0  0  0  0  0  0
  -21.1141  -13.1096   22.2842 H   0  0  0  0  0  0
  -24.6229  -15.8377   20.5220 H   0  0  0  0  0  0
  -26.2321  -15.6518   20.0669 H   0  0  0  0  0  0
  -26.7220  -32.5420   23.1085 H   0  0  0  0  0  0
  -24.9990  -33.9674   25.0367 H   0  0  0  0  0  0
  -22.7332  -31.2960   21.3900 H   0  0  0  0  0  0
  -23.3787  -35.9565   23.3235 H   0  0  0  0  0  0
  -24.3591  -36.8980   22.2070 H   0  0  0  0  0  0
  -23.7153  -37.6434   23.6706 H   0  0  0  0  0  0
  -26.1194  -31.5269   20.6056 H   0  0  0  0  0  0
  -26.8571  -30.8238   22.0126 H   0  0  0  0  0  0
  -28.1550  -28.9488   21.1677 H   0  0  0  0  0  0
  -26.0109  -25.8771   19.0444 H   0  0  0  0  0  0
  -23.9898  -27.2867   19.0224 H   0  0  0  0  0  0
  -23.7879  -30.5766   19.3996 H   0  0  0  0  0  0
  -22.7761  -29.2374   19.8511 H   0  0  0  0  0  0
  -25.1282  -36.1956   25.0826 H   0  0  0  0  0  0
  -20.9986  -28.3324   24.1400 H   0  0  0  0  0  0
  -20.5710  -26.2344   23.3630 H   0  0  0  0  0  0
  -21.6649  -26.7467   22.1213 H   0  0  0  0  0  0
  -19.6923  -25.6309   21.1271 H   0  0  0  0  0  0
  -19.6698  -27.3196   20.6749 H   0  0  0  0  0  0
  -17.4208  -26.6697   21.4026 H   0  0  0  0  0  0
  -18.0322  -26.0090   22.9029 H   0  0  0  0  0  0
  -19.7922  -30.7284   24.2308 H   0  0  0  0  0  0
  -17.5006  -31.6282   24.5185 H   0  0  0  0  0  0
  -15.5362  -30.3030   23.7630 H   0  0  0  0  0  0
  -15.8678  -28.0873   22.7056 H   0  0  0  0  0  0
  -24.5849  -30.7088   25.7722 H   0  0  0  0  0  0
  -24.8821  -32.2890   26.4835 H   0  0  0  0  0  0
  -25.7931  -30.8898   27.0224 H   0  0  0  0  0  0
  -26.2911  -29.6755   24.1221 H   0  0  0  0  0  0
  -27.3968  -29.7279   25.4763 H   0  0  0  0  0  0
  -27.8810  -30.4283   23.9498 H   0  0  0  0  0  0
  -27.2704  -33.3616   26.2064 H   0  0  0  0  0  0
  -28.3841  -32.6837   25.0274 H   0  0  0  0  0  0
  -28.0740  -31.8404   26.5369 H   0  0  0  0  0  0
  -28.2568  -38.0142   24.7630 H   0  0  0  0  0  0
  -28.1154  -36.2689   24.6114 H   0  0  0  0  0  0
  -27.2340  -37.1242   25.8852 H   0  0  0  0  0  0
  -20.9453  -29.8784   21.6821 H   0  0  0  0  0  0
  -26.0175  -38.2870   24.1497 H   0  0  0  0  0  0
  -29.1211  -21.3088   18.3118 H   0  0  0  0  0  0
  -28.4614  -23.9034   18.3717 H   0  0  0  0  0  0
  -29.9659  -25.3624   22.7594 H   0  0  0  0  0  0
  -29.6249  -26.9066   22.0522 H   0  0  0  0  0  0
  -30.6644  -25.7700   21.2036 H   0  0  0  0  0  0
  -30.9648  -22.7594   24.2250 H   0  0  0  0  0  0
  -31.3614  -23.5413   22.7144 H   0  0  0  0  0  0
  -31.3770  -21.7920   22.8192 H   0  0  0  0  0  0
  -28.3984  -21.9431   24.5538 H   0  0  0  0  0  0
  -28.9720  -20.6371   23.5526 H   0  0  0  0  0  0
  -27.5239  -21.5372   23.0902 H   0  0  0  0  0  0
  -30.2320  -20.0616   21.9551 H   0  0  0  0  0  0
  -31.0306  -20.0949   20.4542 H   0  0  0  0  0  0
  -29.1724  -18.6263   19.4477 H   0  0  0  0  0  0
  -28.4984  -18.4692   21.0411 H   0  0  0  0  0  0
  -30.7764  -17.3993   21.7886 H   0  0  0  0  0  0
  -31.2777  -17.4430   20.1348 H   0  0  0  0  0  0
  -27.6882  -25.2709   21.7408 H   0  0  0  0  0  0
  -28.9270  -23.6059   23.1028 H   0  0  0  0  0  0
  -28.8961  -15.7523   20.7317 H   0  0  0  0  0  0
  1 25  1  0  0  0
  1 30  2  0  0  0
  1 84  1  0  0  0
  2  3  1  0  0  0
  2 25  1  0  0  0
  2 85  1  0  0  0
  2 86  1  0  0  0
  3  4  1  0  0  0
  3 87  1  0  0  0
  3 88  1  0  0  0
  4  5  1  0  0  0
  4 89  1  0  0  0
  4 90  1  0  0  0
  5  6  1  0  0  0
  5 26  1  0  0  0
  5 91  1  0  0  0
  6 25  1  0  0  0
  6 92  1  0  0  0
  6 93  1  0  0  0
  7  8  2  0  0  0
  7 26  1  0  0  0
  7 29  1  0  0  0
  8  9  1  0  0  0
  8 22  1  0  0  0
  9 10  1  0  0  0
  9 27  2  0  0  0
 10 11  2  0  0  0
 10 15  1  0  0  0
 11 12  1  0  0  0
 11 94  1  0  0  0
 12 13  2  0  0  0
 12 95  1  0  0  0
 13 14  1  0  0  0
 13 31  1  0  0  0
 14 15  2  0  0  0
 14 96  1  0  0  0
 15 97  1  0  0  0
 16 17  2  0  0  0
 16 21  1  0  0  0
 16 31  1  0  0  0
 17 18  1  0  0  0
 17 98  1  0  0  0
 18 19  2  0  0  0
 18 99  1  0  0  0
 19 20  1  0  0  0
 19 24  1  0  0  0
 20 21  2  0  0  0
 20100  1  0  0  0
 21 23  1  0  0  0
 22 28  1  0  0  0
 22 32  2  0  0  0
 26 27  1  0  0  0
 28101  1  0  0  0
 28102  1  0  0  0
 29103  1  0  0  0
 29104  1  0  0  0
 33 34  1  0  0  0
 33 66  1  0  0  0
 33 70  2  0  0  0
 34 36  1  0  0  0
 34 59  1  0  0  0
 34105  1  0  0  0
 35 44  2  0  0  0
 35 45  1  0  0  0
 35 68  1  0  0  0
 36 56  1  0  0  0
 36106  1  0  0  0
 37 39  1  0  0  0
 37 47  1  0  0  0
 37 66  1  0  0  0
 37107  1  0  0  0
 38 43  2  0  0  0
 38 46  1  0  0  0
 38 47  1  0  0  0
 39 64  1  0  0  0
 39 67  2  0  0  0
 40 52  1  0  0  0
 40 53  2  0  0  0
 40 58  1  0  0  0
 41108  1  0  0  0
 41109  1  0  0  0
 41110  1  0  0  0
 41 48  1  0  0  0
 42 43  1  0  0  0
 42 66  1  0  0  0
 42111  1  0  0  0
 42112  1  0  0  0
 43 44  1  0  0  0
 44113  1  0  0  0
 45 46  2  0  0  0
 45114  1  0  0  0
 46115  1  0  0  0
 47116  1  0  0  0
 47117  1  0  0  0
 48 56  1  0  0  0
 48 65  1  0  0  0
 48118  1  0  0  0
 49 50  1  0  0  0
 49 53  1  0  0  0
 49 64  1  0  0  0
 49119  1  0  0  0
 50 51  1  0  0  0
 50120  1  0  0  0
 50121  1  0  0  0
 51 52  1  0  0  0
 51122  1  0  0  0
 51123  1  0  0  0
 52124  1  0  0  0
 52125  1  0  0  0
 53 54  1  0  0  0
 54 55  2  0  0  0
 54126  1  0  0  0
 55 57  1  0  0  0
 55127  1  0  0  0
 56 69  2  0  0  0
 57 58  2  0  0  0
 57128  1  0  0  0
 58129  1  0  0  0
 59 60  1  0  0  0
 59 61  1  0  0  0
 59 62  1  0  0  0
 60130  1  0  0  0
 60131  1  0  0  0
 60132  1  0  0  0
 61133  1  0  0  0
 61134  1  0  0  0
 61135  1  0  0  0
 62136  1  0  0  0
 62137  1  0  0  0
 62138  1  0  0  0
 63 65  1  0  0  0
 63139  1  0  0  0
 63140  1  0  0  0
 63141  1  0  0  0
 64142  1  0  0  0
 65143  1  0  0  0
 68 81  1  0  0  0
 71 72  1  0  0  0
 71 73  2  0  0  0
 71144  1  0  0  0
 72 74  2  0  0  0
 72145  1  0  0  0
 73 78  1  0  0  0
 73 83  1  0  0  0
 74 81  1  0  0  0
 74 83  1  0  0  0
 75146  1  0  0  0
 75147  1  0  0  0
 75148  1  0  0  0
 75 81  1  0  0  0
 76149  1  0  0  0
 76150  1  0  0  0
 76151  1  0  0  0
 76 82  1  0  0  0
 77 82  1  0  0  0
 77152  1  0  0  0
 77153  1  0  0  0
 77154  1  0  0  0
 78 79  1  0  0  0
 78155  1  0  0  0
 78156  1  0  0  0
 79 80  1  0  0  0
 79157  1  0  0  0
 79158  1  0  0  0
 80 84  1  0  0  0
 80159  1  0  0  0
 80160  1  0  0  0
 81161  1  0  0  0
 82 83  1  0  0  0
 82162  1  0  0  0
 84163  1  0  0  0
M  ISO  4   1 100  68 101  81 101  84 100
M  END
> <chiral flag>
0

> <version>
0

> <s_m_source_file>
/data/baiqing/PycharmProjects/Reinvent-master-3.2/result/LINK_invent/BTK/process_docking_weight1_custom_sum_contain_oxygen_bond_distance_aromatic_linkinvent_7_9_3/rearranged_h_0128.sdf

> <i_m_source_file_index>
16

> <r_mmod_Potential_Energy-OPLS-2005>
192.920394897461

> <r_mmod_Stretch_Energy-OPLS-2005>
135.413879394531

> <r_mmod_Bend_Energy-OPLS-2005>
185.507934570312

> <r_mmod_Torsional_Energy-OPLS-2005>
275.681549072266

> <r_mmod_Improper_Torsional_Energy-OPLS-2005>
5.45448207855225

> <r_mmod_Van_der_Waal_Energy-OPLS-2005>
111.274253845215

> <r_mmod_Electrostatic_Energy-OPLS-2005>
-394.908660888672

> <r_mmod_Solvation_Energy-OPLS-2005>
-205.949127197266

> <b_mmod_Minimization_Converged-OPLS-2005>
0

> <r_mmod_RMS_Derivative-OPLS-2005>
5.85677433013916

$$$$
16
                    3D
 Structure written by MMmdl.
159167  0  0  1  0            999 V2000
  -30.4476  -15.1519   20.3860 C   0  0  0  0  0  0
  -30.4411  -12.7322   19.5032 C   0  0  0  0  0  0
  -29.5271  -12.5563   18.2659 C   0  0  0  0  0  0
  -28.0672  -12.3072   18.6900 C   0  0  0  0  0  0
  -27.6145  -13.2631   19.8239 C   0  0  2  0  0  0
  -28.6534  -13.3756   20.9572 C   0  0  0  0  0  0
  -25.2404  -13.8228   20.5735 C   0  0  0  0  0  0
  -24.1745  -13.0430   20.9253 C   0  0  0  0  0  0
  -24.6391  -11.6926   20.8766 C   0  0  0  0  0  0
  -23.9096  -10.4289   21.0417 C   0  0  0  0  0  0
  -24.3637   -9.4203   21.9198 C   0  0  0  0  0  0
  -23.6298   -8.2244   22.0769 C   0  0  0  0  0  0
  -22.4286   -8.0285   21.3557 C   0  0  0  0  0  0
  -21.9923   -9.0260   20.4662 C   0  0  0  0  0  0
  -22.7263  -10.2134   20.3070 C   0  0  0  0  0  0
  -21.6852   -6.0740   22.5286 C   0  0  0  0  0  0
  -21.4010   -6.5644   23.8219 C   0  0  0  0  0  0
  -21.3656   -5.6799   24.9181 C   0  0  0  0  0  0
  -21.6042   -4.3062   24.7232 C   0  0  0  0  0  0
  -21.8815   -3.8152   23.4356 C   0  0  0  0  0  0
  -21.9187   -4.6967   22.3410 C   0  0  0  0  0  0
  -22.7769  -13.5193   21.1899 C   0  0  0  0  0  0
  -22.1659   -4.2151   21.0986 F   0  0  0  0  0  0
  -21.5626   -3.4545   25.7746 F   0  0  0  0  0  0
  -29.8943  -13.8552   20.3348 N   0  0  0  0  0  0
  -26.2818  -12.9480   20.3203 N   0  0  0  0  0  0
  -25.9323  -11.6603   20.5721 N   0  0  0  0  0  0
  -22.0420  -12.8177   22.0449 N   0  0  0  0  0  0
  -25.4032  -15.1960   20.4178 N   0  0  0  0  0  0
  -31.6703  -15.1955   20.1949 O   0  0  0  0  0  0
  -21.6646   -6.8887   21.4251 O   0  0  0  0  0  0
  -22.3465  -14.5501   20.6745 O   0  0  0  0  0  0
  -24.6551  -31.8295   23.1756 C   0  0  0  0  0  0
  -25.9264  -32.4616   23.8199 C   0  0  1  0  0  0
  -27.2162  -27.0104   20.1798 C   0  0  0  0  0  0
  -25.5954  -33.8432   24.2106 N   0  0  0  0  0  0
  -23.4653  -30.4448   21.5219 C   0  0  2  0  0  0
  -24.9156  -28.8423   20.1132 C   0  0  0  0  0  0
  -22.7625  -29.4479   22.4788 C   0  0  0  0  0  0
  -18.0315  -28.1403   22.8462 C   0  0  0  0  0  0
  -24.1496  -36.7245   23.2646 C   0  0  0  0  0  0
  -26.0275  -30.6675   21.3877 C   0  0  0  0  0  0
  -26.0981  -29.2640   20.7350 C   0  0  0  0  0  0
  -27.2484  -28.3692   20.7377 C   0  0  0  0  0  0
  -26.0036  -26.7112   19.5250 C   0  0  0  0  0  0
  -24.8892  -27.5848   19.4887 C   0  0  0  0  0  0
  -23.6989  -29.7619   20.1468 C   0  0  0  0  0  0
  -25.4126  -36.2974   24.0293 C   0  0  1  0  0  0
  -20.5932  -28.3742   23.1195 C   0  0  2  0  0  0
  -20.6789  -26.9427   22.5405 C   0  0  0  0  0  0
  -19.5766  -26.6369   21.5208 C   0  0  0  0  0  0
  -18.1946  -26.7940   22.1614 C   0  0  0  0  0  0
  -19.1575  -28.8889   23.2817 C   0  0  0  0  0  0
  -18.9494  -30.1479   23.8848 C   0  0  0  0  0  0
  -17.6488  -30.6593   24.0557 C   0  0  0  0  0  0
  -25.9084  -34.9362   23.5019 C   0  0  0  0  0  0
  -16.5381  -29.9090   23.6343 C   0  0  0  0  0  0
  -16.7298  -28.6517   23.0354 C   0  0  0  0  0  0
  -26.4537  -31.6539   25.0705 C   0  0  0  0  0  0
  -25.3701  -31.3774   26.1388 C   0  0  0  0  0  0
  -27.0412  -30.2908   24.6394 C   0  0  0  0  0  0
  -27.6021  -32.4355   25.7507 C   0  0  0  0  0  0
  -27.5564  -37.1770   24.8454 C   0  0  0  0  0  0
  -21.4302  -29.3058   22.3550 N   0  0  0  0  0  0
  -26.4271  -37.3700   23.9402 N   0  0  0  0  0  0
  -24.7371  -31.0055   22.0833 N   0  0  0  0  0  0
  -23.4214  -28.8035   23.2983 O   0  0  0  0  0  0
  -28.2685  -25.9863   20.1953 O   0  0  0  0  0  0
  -26.5697  -34.8886   22.4618 O   0  0  0  0  0  0
  -23.5645  -32.1224   23.6920 O   0  0  0  0  0  0
  -29.4335  -23.5070   20.8694 C   0  0  0  0  0  0
  -27.5302  -23.3135   19.3850 C   0  0  0  0  0  0
  -29.4285  -21.8611   21.1596 C   0  0  0  0  0  0
  -28.1470  -24.3848   20.4203 C   0  0  2  0  0  0
  -28.1621  -21.7992   19.0770 C   0  0  1  0  0  0
  -28.7670  -22.3717   16.6096 C   0  0  0  0  0  0
  -29.2403  -21.8176   17.9614 C   0  0  0  0  0  0
  -29.8526  -17.9994   20.5578 C   0  0  0  0  0  0
  -28.7396  -19.2665   20.0806 C   0  0  0  0  0  0
  -29.6390  -16.3690   20.4511 N   0  0  0  0  0  0
  -28.6518  -20.9177   20.2400 N   0  3  1  0  0  0
  -31.4607  -12.9370   19.1735 H   0  0  0  0  0  0
  -30.4965  -11.8100   20.0831 H   0  0  0  0  0  0
  -29.8823  -11.7337   17.6433 H   0  0  0  0  0  0
  -29.5794  -13.4541   17.6476 H   0  0  0  0  0  0
  -27.9947  -11.2733   19.0302 H   0  0  0  0  0  0
  -27.4013  -12.3932   17.8307 H   0  0  0  0  0  0
  -27.5473  -14.2459   19.3558 H   0  0  0  0  0  0
  -28.7977  -12.4213   21.4653 H   0  0  0  0  0  0
  -28.3164  -14.0851   21.7145 H   0  0  0  0  0  0
  -25.2775   -9.5676   22.4783 H   0  0  0  0  0  0
  -23.9996   -7.4644   22.7501 H   0  0  0  0  0  0
  -21.0847   -8.8796   19.8980 H   0  0  0  0  0  0
  -22.3722  -10.9682   19.6188 H   0  0  0  0  0  0
  -21.2006   -7.6151   23.9720 H   0  0  0  0  0  0
  -21.1477   -6.0532   25.9082 H   0  0  0  0  0  0
  -22.0591   -2.7613   23.2861 H   0  0  0  0  0  0
  -22.4024  -11.9823   22.4816 H   0  0  0  0  0  0
  -21.1052  -13.1225   22.2681 H   0  0  0  0  0  0
  -24.6295  -15.8409   20.5392 H   0  0  0  0  0  0
  -26.2325  -15.6421   20.0501 H   0  0  0  0  0  0
  -26.7343  -32.5187   23.0928 H   0  0  0  0  0  0
  -25.0019  -33.9514   25.0204 H   0  0  0  0  0  0
  -22.7735  -31.2732   21.3544 H   0  0  0  0  0  0
  -23.3736  -35.9592   23.3269 H   0  0  0  0  0  0
  -24.3572  -36.8949   22.2066 H   0  0  0  0  0  0
  -23.7293  -37.6439   23.6747 H   0  0  0  0  0  0
  -26.1925  -31.4132   20.6086 H   0  0  0  0  0  0
  -26.8930  -30.7240   22.0373 H   0  0  0  0  0  0
  -28.1553  -28.6957   21.2273 H   0  0  0  0  0  0
  -25.9015  -25.7483   19.0461 H   0  0  0  0  0  0
  -23.9894  -27.2564   18.9865 H   0  0  0  0  0  0
  -23.8495  -30.5306   19.3878 H   0  0  0  0  0  0
  -22.8100  -29.2128   19.8304 H   0  0  0  0  0  0
  -25.1318  -36.1758   25.0778 H   0  0  0  0  0  0
  -21.0024  -28.3357   24.1315 H   0  0  0  0  0  0
  -20.5668  -26.2356   23.3642 H   0  0  0  0  0  0
  -21.6654  -26.7418   22.1206 H   0  0  0  0  0  0
  -19.6935  -25.6268   21.1266 H   0  0  0  0  0  0
  -19.6711  -27.3148   20.6711 H   0  0  0  0  0  0
  -17.4220  -26.6678   21.4018 H   0  0  0  0  0  0
  -18.0350  -26.0086   22.9017 H   0  0  0  0  0  0
  -19.7975  -30.7301   24.2198 H   0  0  0  0  0  0
  -17.5054  -31.6268   24.5174 H   0  0  0  0  0  0
  -15.5380  -30.2981   23.7696 H   0  0  0  0  0  0
  -15.8697  -28.0828   22.7078 H   0  0  0  0  0  0
  -24.5900  -30.7077   25.7748 H   0  0  0  0  0  0
  -24.8854  -32.2956   26.4709 H   0  0  0  0  0  0
  -25.7959  -30.9051   27.0251 H   0  0  0  0  0  0
  -26.3057  -29.6592   24.1395 H   0  0  0  0  0  0
  -27.3938  -29.7249   25.5030 H   0  0  0  0  0  0
  -27.8997  -30.4075   23.9775 H   0  0  0  0  0  0
  -27.2590  -33.3728   26.1908 H   0  0  0  0  0  0
  -28.3924  -32.6814   25.0401 H   0  0  0  0  0  0
  -28.0577  -31.8608   26.5584 H   0  0  0  0  0  0
  -28.2537  -38.0101   24.7490 H   0  0  0  0  0  0
  -28.1098  -36.2623   24.6281 H   0  0  0  0  0  0
  -27.2278  -37.1414   25.8854 H   0  0  0  0  0  0
  -20.9529  -29.8811   21.6747 H   0  0  0  0  0  0
  -26.0110  -38.2750   24.1420 H   0  0  0  0  0  0
  -30.1980  -23.6907   20.1145 H   0  0  0  0  0  0
  -29.8416  -23.9790   21.7635 H   0  0  0  0  0  0
  -27.3858  -23.8310   18.4391 H   0  0  0  0  0  0
  -26.5047  -23.1456   19.7176 H   0  0  0  0  0  0
  -29.0690  -21.6835   22.1732 H   0  0  0  0  0  0
  -30.4639  -21.5194   21.1586 H   0  0  0  0  0  0
  -27.4829  -24.3445   21.2846 H   0  0  0  0  0  0
  -27.3263  -21.2357   18.6581 H   0  0  0  0  0  0
  -29.5077  -22.1657   15.8360 H   0  0  0  0  0  0
  -28.6236  -23.4518   16.6363 H   0  0  0  0  0  0
  -27.8276  -21.9120   16.2976 H   0  0  0  0  0  0
  -29.5781  -20.7979   17.7795 H   0  0  0  0  0  0
  -30.1272  -22.3624   18.2808 H   0  0  0  0  0  0
  -30.0573  -18.1746   21.6144 H   0  0  0  0  0  0
  -30.8001  -18.2080   20.0610 H   0  0  0  0  0  0
  -27.7867  -18.9552   20.5083 H   0  0  0  0  0  0
  -28.5878  -19.0969   19.0148 H   0  0  0  0  0  0
  -28.6597  -16.1284   20.4896 H   0  0  0  0  0  0
  -27.7962  -20.9030   20.7784 H   0  0  0  0  0  0
  1 25  1  0  0  0
  1 30  2  0  0  0
  1 80  1  0  0  0
  2  3  1  0  0  0
  2 25  1  0  0  0
  2 82  1  0  0  0
  2 83  1  0  0  0
  3  4  1  0  0  0
  3 84  1  0  0  0
  3 85  1  0  0  0
  4  5  1  0  0  0
  4 86  1  0  0  0
  4 87  1  0  0  0
  5  6  1  0  0  0
  5 26  1  0  0  0
  5 88  1  0  0  0
  6 25  1  0  0  0
  6 89  1  0  0  0
  6 90  1  0  0  0
  7  8  2  0  0  0
  7 26  1  0  0  0
  7 29  1  0  0  0
  8  9  1  0  0  0
  8 22  1  0  0  0
  9 10  1  0  0  0
  9 27  2  0  0  0
 10 11  2  0  0  0
 10 15  1  0  0  0
 11 12  1  0  0  0
 11 91  1  0  0  0
 12 13  2  0  0  0
 12 92  1  0  0  0
 13 14  1  0  0  0
 13 31  1  0  0  0
 14 15  2  0  0  0
 14 93  1  0  0  0
 15 94  1  0  0  0
 16 17  2  0  0  0
 16 21  1  0  0  0
 16 31  1  0  0  0
 17 18  1  0  0  0
 17 95  1  0  0  0
 18 19  2  0  0  0
 18 96  1  0  0  0
 19 20  1  0  0  0
 19 24  1  0  0  0
 20 21  2  0  0  0
 20 97  1  0  0  0
 21 23  1  0  0  0
 22 28  1  0  0  0
 22 32  2  0  0  0
 26 27  1  0  0  0
 28 98  1  0  0  0
 28 99  1  0  0  0
 29100  1  0  0  0
 29101  1  0  0  0
 33 34  1  0  0  0
 33 66  1  0  0  0
 33 70  2  0  0  0
 34 36  1  0  0  0
 34 59  1  0  0  0
 34102  1  0  0  0
 35 44  2  0  0  0
 35 45  1  0  0  0
 35 68  1  0  0  0
 36 56  1  0  0  0
 36103  1  0  0  0
 37 39  1  0  0  0
 37 47  1  0  0  0
 37 66  1  0  0  0
 37104  1  0  0  0
 38 43  2  0  0  0
 38 46  1  0  0  0
 38 47  1  0  0  0
 39 64  1  0  0  0
 39 67  2  0  0  0
 40 52  1  0  0  0
 40 53  2  0  0  0
 40 58  1  0  0  0
 41105  1  0  0  0
 41106  1  0  0  0
 41107  1  0  0  0
 41 48  1  0  0  0
 42 43  1  0  0  0
 42 66  1  0  0  0
 42108  1  0  0  0
 42109  1  0  0  0
 43 44  1  0  0  0
 44110  1  0  0  0
 45 46  2  0  0  0
 45111  1  0  0  0
 46112  1  0  0  0
 47113  1  0  0  0
 47114  1  0  0  0
 48 56  1  0  0  0
 48 65  1  0  0  0
 48115  1  0  0  0
 49 50  1  0  0  0
 49 53  1  0  0  0
 49 64  1  0  0  0
 49116  1  0  0  0
 50 51  1  0  0  0
 50117  1  0  0  0
 50118  1  0  0  0
 51 52  1  0  0  0
 51119  1  0  0  0
 51120  1  0  0  0
 52121  1  0  0  0
 52122  1  0  0  0
 53 54  1  0  0  0
 54 55  2  0  0  0
 54123  1  0  0  0
 55 57  1  0  0  0
 55124  1  0  0  0
 56 69  2  0  0  0
 57 58  2  0  0  0
 57125  1  0  0  0
 58126  1  0  0  0
 59 60  1  0  0  0
 59 61  1  0  0  0
 59 62  1  0  0  0
 60127  1  0  0  0
 60128  1  0  0  0
 60129  1  0  0  0
 61130  1  0  0  0
 61131  1  0  0  0
 61132  1  0  0  0
 62133  1  0  0  0
 62134  1  0  0  0
 62135  1  0  0  0
 63 65  1  0  0  0
 63136  1  0  0  0
 63137  1  0  0  0
 63138  1  0  0  0
 64139  1  0  0  0
 65140  1  0  0  0
 68 74  1  0  0  0
 71 73  1  0  0  0
 71 74  1  0  0  0
 71141  1  0  0  0
 71142  1  0  0  0
 72 74  1  0  0  0
 72 75  1  0  0  0
 72143  1  0  0  0
 72144  1  0  0  0
 73 81  1  0  0  0
 73145  1  0  0  0
 73146  1  0  0  0
 74147  1  0  0  0
 75 77  1  0  0  0
 75 81  1  0  0  0
 75148  1  0  0  0
 76 77  1  0  0  0
 76149  1  0  0  0
 76150  1  0  0  0
 76151  1  0  0  0
 77152  1  0  0  0
 77153  1  0  0  0
 78 79  1  0  0  0
 78 80  1  0  0  0
 78154  1  0  0  0
 78155  1  0  0  0
 79156  1  0  0  0
 79157  1  0  0  0
 79 81  1  0  0  0
 80158  1  0  0  0
 81159  1  0  0  0
M  CHG  1  81   1
M  ISO  4   1 100  68 101  74 101  80 100
M  END
> <chiral flag>
0

> <version>
0

> <s_m_source_file>
/data/baiqing/PycharmProjects/Reinvent-master-3.2/result/LINK_invent/BTK/process_docking_weight1_custom_sum_contain_oxygen_bond_distance_aromatic_linkinvent_7_9_3/rearranged_h_0128.sdf

> <i_m_source_file_index>
17

> <r_mmod_Potential_Energy-OPLS-2005>
898.13525390625

> <r_mmod_Stretch_Energy-OPLS-2005>
421.354858398438

> <r_mmod_Bend_Energy-OPLS-2005>
459.278381347656

> <r_mmod_Torsional_Energy-OPLS-2005>
290.667663574219

> <r_mmod_Improper_Torsional_Energy-OPLS-2005>
4.03307437896729

> <r_mmod_Van_der_Waal_Energy-OPLS-2005>
111.009780883789

> <r_mmod_Electrostatic_Energy-OPLS-2005>
-256.348510742188

> <r_mmod_Solvation_Energy-OPLS-2005>
-472.941925048828

> <b_mmod_Minimization_Converged-OPLS-2005>
0

> <r_mmod_RMS_Derivative-OPLS-2005>
1.99563014507294

$$$$
17
                    3D
 Structure written by MMmdl.
167176  0  0  1  0            999 V2000
  -30.7009  -14.4539   20.5459 C   0  0  0  0  0  0
  -30.4222  -12.2847   19.4264 C   0  0  0  0  0  0
  -29.4969  -12.4978   18.2095 C   0  0  0  0  0  0
  -28.0174  -12.3619   18.6209 C   0  0  0  0  0  0
  -27.6650  -13.2020   19.8783 C   0  0  2  0  0  0
  -28.7070  -12.9800   21.0009 C   0  0  0  0  0  0
  -25.2606  -13.8151   20.5669 C   0  0  0  0  0  0
  -24.1850  -13.0436   20.9165 C   0  0  0  0  0  0
  -24.6395  -11.6901   20.8736 C   0  0  0  0  0  0
  -23.9053  -10.4291   21.0409 C   0  0  0  0  0  0
  -24.3608   -9.4207   21.9186 C   0  0  0  0  0  0
  -23.6287   -8.2241   22.0754 C   0  0  0  0  0  0
  -22.4270   -8.0277   21.3543 C   0  0  0  0  0  0
  -21.9904   -9.0252   20.4643 C   0  0  0  0  0  0
  -22.7230  -10.2131   20.3057 C   0  0  0  0  0  0
  -21.6850   -6.0736   22.5277 C   0  0  0  0  0  0
  -21.4011   -6.5639   23.8212 C   0  0  0  0  0  0
  -21.3660   -5.6792   24.9175 C   0  0  0  0  0  0
  -21.6045   -4.3056   24.7224 C   0  0  0  0  0  0
  -21.8821   -3.8148   23.4346 C   0  0  0  0  0  0
  -21.9190   -4.6963   22.3403 C   0  0  0  0  0  0
  -22.7875  -13.5240   21.1834 C   0  0  0  0  0  0
  -22.1662   -4.2150   21.0980 F   0  0  0  0  0  0
  -21.5628   -3.4541   25.7740 F   0  0  0  0  0  0
  -30.0420  -13.2692   20.4497 N   0  0  0  0  0  0
  -26.3045  -12.9311   20.3379 N   0  0  0  0  0  0
  -25.9321  -11.6476   20.5776 N   0  0  0  0  0  0
  -22.0511  -12.8233   22.0387 N   0  0  0  0  0  0
  -25.4339  -15.1868   20.4065 N   0  0  0  0  0  0
  -31.8311  -14.6395   20.0875 O   0  0  0  0  0  0
  -21.6634   -6.8877   21.4240 O   0  0  0  0  0  0
  -22.3563  -14.5553   20.6692 O   0  0  0  0  0  0
  -24.6137  -31.8685   23.2101 C   0  0  0  0  0  0
  -25.9032  -32.4825   23.8397 C   0  0  1  0  0  0
  -27.2363  -27.4461   20.0970 C   0  0  0  0  0  0
  -25.5892  -33.8625   24.2325 N   0  0  0  0  0  0
  -23.4007  -30.4917   21.5507 C   0  0  2  0  0  0
  -24.8482  -28.9589   20.1151 C   0  0  0  0  0  0
  -22.7401  -29.4669   22.4999 C   0  0  0  0  0  0
  -18.0268  -28.1375   22.8484 C   0  0  0  0  0  0
  -24.1486  -36.7306   23.2638 C   0  0  0  0  0  0
  -25.9286  -30.8392   21.3606 C   0  0  0  0  0  0
  -26.0086  -29.4751   20.7062 C   0  0  0  0  0  0
  -27.2079  -28.7281   20.6890 C   0  0  0  0  0  0
  -26.0600  -26.9416   19.4995 C   0  0  0  0  0  0
  -24.8684  -27.6907   19.5089 C   0  0  0  0  0  0
  -23.6081  -29.8225   20.1660 C   0  0  0  0  0  0
  -25.4105  -36.3107   24.0337 C   0  0  1  0  0  0
  -20.5858  -28.3663   23.1313 C   0  0  2  0  0  0
  -20.6767  -26.9399   22.5416 C   0  0  0  0  0  0
  -19.5749  -26.6385   21.5207 C   0  0  0  0  0  0
  -18.1920  -26.7919   22.1608 C   0  0  0  0  0  0
  -19.1518  -28.8833   23.2894 C   0  0  0  0  0  0
  -18.9453  -30.1435   23.8912 C   0  0  0  0  0  0
  -17.6461  -30.6581   24.0568 C   0  0  0  0  0  0
  -25.9037  -34.9477   23.5127 C   0  0  0  0  0  0
  -16.5350  -29.9085   23.6330 C   0  0  0  0  0  0
  -16.7260  -28.6502   23.0348 C   0  0  0  0  0  0
  -26.4467  -31.6602   25.0721 C   0  0  0  0  0  0
  -25.3733  -31.3710   26.1469 C   0  0  0  0  0  0
  -27.0301  -30.3049   24.6084 C   0  0  0  0  0  0
  -27.6051  -32.4323   25.7470 C   0  0  0  0  0  0
  -27.5580  -37.1797   24.8460 C   0  0  0  0  0  0
  -21.4132  -29.3034   22.3729 N   0  0  0  0  0  0
  -26.4290  -37.3791   23.9415 N   0  0  0  0  0  0
  -24.6660  -31.0795   22.0994 N   0  0  0  0  0  0
  -23.4173  -28.8222   23.3049 O   0  0  0  0  0  0
  -28.3989  -26.7057   20.1097 O   0  0  0  0  0  0
  -26.5606  -34.8927   22.4693 O   0  0  0  0  0  0
  -23.5330  -32.1441   23.7494 O   0  0  0  0  0  0
  -29.8673  -17.1491   25.0791 C   0  0  0  0  0  0
  -29.2540  -18.3721   25.3956 C   0  0  0  0  0  0
  -30.4485  -16.9693   23.8123 C   0  0  0  0  0  0
  -29.2258  -19.4095   24.4462 C   0  0  0  0  0  0
  -30.4191  -17.9992   22.8455 C   0  0  0  0  0  0
  -29.7977  -19.2432   23.1593 C   0  0  0  0  0  0
  -28.8634  -21.2861   22.0963 C   0  0  0  0  0  0
  -29.2016  -23.7740   22.3783 C   0  0  0  0  0  0
  -28.2608  -22.8825   20.1820 C   0  0  0  0  0  0
  -29.3475  -25.1646   21.7254 C   0  0  0  0  0  0
  -28.4419  -24.2899   19.5673 C   0  0  0  0  0  0
  -29.2290  -22.5993   21.3631 C   0  0  2  0  0  0
  -28.2781  -25.3780   20.6444 C   0  0  2  0  0  0
  -31.0586  -17.7137   21.4917 C   0  0  0  0  0  0
  -30.1607  -16.8839   20.5509 C   0  0  0  0  0  0
  -29.8177  -20.3445   22.2448 N   0  0  0  0  0  0
  -29.9499  -15.4866   20.9594 N   0  0  0  0  0  0
  -27.7089  -21.1320   22.5073 O   0  0  0  0  0  0
  -31.4687  -12.3720   19.1292 H   0  0  0  0  0  0
  -30.3099  -11.2732   19.8200 H   0  0  0  0  0  0
  -29.7336  -11.7783   17.4248 H   0  0  0  0  0  0
  -29.6700  -13.4861   17.7802 H   0  0  0  0  0  0
  -27.8259  -11.3062   18.8168 H   0  0  0  0  0  0
  -27.3677  -12.6382   17.7897 H   0  0  0  0  0  0
  -27.7109  -14.2492   19.5794 H   0  0  0  0  0  0
  -28.6739  -11.9468   21.3497 H   0  0  0  0  0  0
  -28.4787  -13.5903   21.8760 H   0  0  0  0  0  0
  -25.2753   -9.5682   22.4757 H   0  0  0  0  0  0
  -24.0000   -7.4633   22.7476 H   0  0  0  0  0  0
  -21.0834   -8.8766   19.8947 H   0  0  0  0  0  0
  -22.3690  -10.9670   19.6165 H   0  0  0  0  0  0
  -21.2006   -7.6143   23.9715 H   0  0  0  0  0  0
  -21.1480   -6.0522   25.9077 H   0  0  0  0  0  0
  -22.0599   -2.7608   23.2847 H   0  0  0  0  0  0
  -22.4117  -11.9884   22.4766 H   0  0  0  0  0  0
  -21.1136  -13.1269   22.2602 H   0  0  0  0  0  0
  -24.6681  -15.8436   20.5101 H   0  0  0  0  0  0
  -26.2882  -15.6236   20.0842 H   0  0  0  0  0  0
  -26.7109  -32.5553   23.1172 H   0  0  0  0  0  0
  -25.0062  -33.9804   25.0479 H   0  0  0  0  0  0
  -22.6885  -31.3080   21.4112 H   0  0  0  0  0  0
  -23.3754  -35.9632   23.3300 H   0  0  0  0  0  0
  -24.3585  -36.8924   22.2054 H   0  0  0  0  0  0
  -23.7228  -37.6505   23.6661 H   0  0  0  0  0  0
  -26.0386  -31.6071   20.5934 H   0  0  0  0  0  0
  -26.8171  -30.8932   21.9783 H   0  0  0  0  0  0
  -28.1055  -29.1222   21.1450 H   0  0  0  0  0  0
  -26.0576  -25.9711   19.0264 H   0  0  0  0  0  0
  -23.9763  -27.2863   19.0512 H   0  0  0  0  0  0
  -23.7121  -30.5979   19.4060 H   0  0  0  0  0  0
  -22.7325  -29.2398   19.8727 H   0  0  0  0  0  0
  -25.1282  -36.1973   25.0830 H   0  0  0  0  0  0
  -20.9946  -28.3232   24.1435 H   0  0  0  0  0  0
  -20.5673  -26.2273   23.3604 H   0  0  0  0  0  0
  -21.6641  -26.7448   22.1210 H   0  0  0  0  0  0
  -19.6925  -25.6298   21.1234 H   0  0  0  0  0  0
  -19.6698  -27.3204   20.6746 H   0  0  0  0  0  0
  -17.4197  -26.6670   21.3999 H   0  0  0  0  0  0
  -18.0313  -26.0045   22.8988 H   0  0  0  0  0  0
  -19.7937  -30.7243   24.2288 H   0  0  0  0  0  0
  -17.5024  -31.6269   24.5156 H   0  0  0  0  0  0
  -15.5354  -30.3004   23.7647 H   0  0  0  0  0  0
  -15.8652  -28.0840   22.7054 H   0  0  0  0  0  0
  -24.5909  -30.7048   25.7810 H   0  0  0  0  0  0
  -24.8911  -32.2868   26.4907 H   0  0  0  0  0  0
  -25.8075  -30.8891   27.0235 H   0  0  0  0  0  0
  -26.2843  -29.6807   24.1149 H   0  0  0  0  0  0
  -27.4107  -29.7287   25.4527 H   0  0  0  0  0  0
  -27.8657  -30.4386   23.9206 H   0  0  0  0  0  0
  -27.2688  -33.3631   26.2052 H   0  0  0  0  0  0
  -28.3847  -32.6870   25.0276 H   0  0  0  0  0  0
  -28.0735  -31.8443   26.5377 H   0  0  0  0  0  0
  -28.2586  -38.0106   24.7537 H   0  0  0  0  0  0
  -28.1091  -36.2644   24.6247 H   0  0  0  0  0  0
  -27.2312  -37.1398   25.8865 H   0  0  0  0  0  0
  -20.9290  -29.8756   21.6953 H   0  0  0  0  0  0
  -26.0180  -38.2864   24.1443 H   0  0  0  0  0  0
  -29.8964  -16.3513   25.8087 H   0  0  0  0  0  0
  -28.8133  -18.5204   26.3718 H   0  0  0  0  0  0
  -30.9205  -16.0242   23.5809 H   0  0  0  0  0  0
  -28.7693  -20.3468   24.7314 H   0  0  0  0  0  0
  -28.2642  -23.7558   22.9375 H   0  0  0  0  0  0
  -29.9920  -23.6379   23.1179 H   0  0  0  0  0  0
  -28.3959  -22.1261   19.4077 H   0  0  0  0  0  0
  -27.2268  -22.7848   20.5165 H   0  0  0  0  0  0
  -30.3433  -25.2740   21.2936 H   0  0  0  0  0  0
  -29.2582  -25.9371   22.4904 H   0  0  0  0  0  0
  -27.7185  -24.4347   18.7652 H   0  0  0  0  0  0
  -29.4269  -24.3696   19.1056 H   0  0  0  0  0  0
  -30.2412  -22.5134   20.9634 H   0  0  0  0  0  0
  -27.3051  -25.2489   21.1247 H   0  0  0  0  0  0
  -32.0076  -17.1984   21.6465 H   0  0  0  0  0  0
  -31.3256  -18.6479   20.9983 H   0  0  0  0  0  0
  -30.5900  -16.8997   19.5470 H   0  0  0  0  0  0
  -29.1881  -17.3688   20.4578 H   0  0  0  0  0  0
  -30.6677  -20.4763   21.7142 H   0  0  0  0  0  0
  -29.0441  -15.2567   21.3411 H   0  0  0  0  0  0
  1 25  1  0  0  0
  1 30  2  0  0  0
  1 87  1  0  0  0
  2  3  1  0  0  0
  2 25  1  0  0  0
  2 89  1  0  0  0
  2 90  1  0  0  0
  3  4  1  0  0  0
  3 91  1  0  0  0
  3 92  1  0  0  0
  4  5  1  0  0  0
  4 93  1  0  0  0
  4 94  1  0  0  0
  5  6  1  0  0  0
  5 26  1  0  0  0
  5 95  1  0  0  0
  6 25  1  0  0  0
  6 96  1  0  0  0
  6 97  1  0  0  0
  7  8  2  0  0  0
  7 26  1  0  0  0
  7 29  1  0  0  0
  8  9  1  0  0  0
  8 22  1  0  0  0
  9 10  1  0  0  0
  9 27  2  0  0  0
 10 11  2  0  0  0
 10 15  1  0  0  0
 11 12  1  0  0  0
 11 98  1  0  0  0
 12 13  2  0  0  0
 12 99  1  0  0  0
 13 14  1  0  0  0
 13 31  1  0  0  0
 14 15  2  0  0  0
 14100  1  0  0  0
 15101  1  0  0  0
 16 17  2  0  0  0
 16 21  1  0  0  0
 16 31  1  0  0  0
 17 18  1  0  0  0
 17102  1  0  0  0
 18 19  2  0  0  0
 18103  1  0  0  0
 19 20  1  0  0  0
 19 24  1  0  0  0
 20 21  2  0  0  0
 20104  1  0  0  0
 21 23  1  0  0  0
 22 28  1  0  0  0
 22 32  2  0  0  0
 26 27  1  0  0  0
 28105  1  0  0  0
 28106  1  0  0  0
 29107  1  0  0  0
 29108  1  0  0  0
 33 34  1  0  0  0
 33 66  1  0  0  0
 33 70  2  0  0  0
 34 36  1  0  0  0
 34 59  1  0  0  0
 34109  1  0  0  0
 35 44  2  0  0  0
 35 45  1  0  0  0
 35 68  1  0  0  0
 36 56  1  0  0  0
 36110  1  0  0  0
 37 39  1  0  0  0
 37 47  1  0  0  0
 37 66  1  0  0  0
 37111  1  0  0  0
 38 43  2  0  0  0
 38 46  1  0  0  0
 38 47  1  0  0  0
 39 64  1  0  0  0
 39 67  2  0  0  0
 40 52  1  0  0  0
 40 53  2  0  0  0
 40 58  1  0  0  0
 41112  1  0  0  0
 41113  1  0  0  0
 41114  1  0  0  0
 41 48  1  0  0  0
 42 43  1  0  0  0
 42 66  1  0  0  0
 42115  1  0  0  0
 42116  1  0  0  0
 43 44  1  0  0  0
 44117  1  0  0  0
 45 46  2  0  0  0
 45118  1  0  0  0
 46119  1  0  0  0
 47120  1  0  0  0
 47121  1  0  0  0
 48 56  1  0  0  0
 48 65  1  0  0  0
 48122  1  0  0  0
 49 50  1  0  0  0
 49 53  1  0  0  0
 49 64  1  0  0  0
 49123  1  0  0  0
 50 51  1  0  0  0
 50124  1  0  0  0
 50125  1  0  0  0
 51 52  1  0  0  0
 51126  1  0  0  0
 51127  1  0  0  0
 52128  1  0  0  0
 52129  1  0  0  0
 53 54  1  0  0  0
 54 55  2  0  0  0
 54130  1  0  0  0
 55 57  1  0  0  0
 55131  1  0  0  0
 56 69  2  0  0  0
 57 58  2  0  0  0
 57132  1  0  0  0
 58133  1  0  0  0
 59 60  1  0  0  0
 59 61  1  0  0  0
 59 62  1  0  0  0
 60134  1  0  0  0
 60135  1  0  0  0
 60136  1  0  0  0
 61137  1  0  0  0
 61138  1  0  0  0
 61139  1  0  0  0
 62140  1  0  0  0
 62141  1  0  0  0
 62142  1  0  0  0
 63 65  1  0  0  0
 63143  1  0  0  0
 63144  1  0  0  0
 63145  1  0  0  0
 64146  1  0  0  0
 65147  1  0  0  0
 68 83  1  0  0  0
 71 72  2  0  0  0
 71 73  1  0  0  0
 71148  1  0  0  0
 72 74  1  0  0  0
 72149  1  0  0  0
 73 75  2  0  0  0
 73150  1  0  0  0
 74 76  2  0  0  0
 74151  1  0  0  0
 75 76  1  0  0  0
 75 84  1  0  0  0
 76 86  1  0  0  0
 77 86  1  0  0  0
 77 88  2  0  0  0
 77 82  1  0  0  0
 78 80  1  0  0  0
 78 82  1  0  0  0
 78152  1  0  0  0
 78153  1  0  0  0
 79 81  1  0  0  0
 79 82  1  0  0  0
 79154  1  0  0  0
 79155  1  0  0  0
 80 83  1  0  0  0
 80156  1  0  0  0
 80157  1  0  0  0
 81 83  1  0  0  0
 81158  1  0  0  0
 81159  1  0  0  0
 82160  1  0  0  0
 83161  1  0  0  0
 84 85  1  0  0  0
 84162  1  0  0  0
 84163  1  0  0  0
 85 87  1  0  0  0
 85164  1  0  0  0
 85165  1  0  0  0
 86166  1  0  0  0
 87167  1  0  0  0
M  ISO  4   1 100  68 101  83 101  87 100
M  END
> <chiral flag>
0

> <version>
0

> <s_m_source_file>
/data/baiqing/PycharmProjects/Reinvent-master-3.2/result/LINK_invent/BTK/process_docking_weight1_custom_sum_contain_oxygen_bond_distance_aromatic_linkinvent_7_9_3/rearranged_h_0128.sdf

> <i_m_source_file_index>
18

> <r_mmod_Potential_Energy-OPLS-2005>
-64.6146697998047

> <r_mmod_Stretch_Energy-OPLS-2005>
38.3519439697266

> <r_mmod_Bend_Energy-OPLS-2005>
93.4018249511719

> <r_mmod_Torsional_Energy-OPLS-2005>
274.324462890625

> <r_mmod_Improper_Torsional_Energy-OPLS-2005>
6.5992865562439

> <r_mmod_Van_der_Waal_Energy-OPLS-2005>
158.069412231445

> <r_mmod_Electrostatic_Energy-OPLS-2005>
-423.364868164062

> <r_mmod_Solvation_Energy-OPLS-2005>
-223.78205871582

> <b_mmod_Minimization_Converged-OPLS-2005>
0

> <r_mmod_RMS_Derivative-OPLS-2005>
0.995429158210754

$$$$
18
                    3D
 Structure written by MMmdl.
157166  0  0  1  0            999 V2000
  -30.6430  -14.7439   20.4523 C   0  0  0  0  0  0
  -30.4207  -12.4557   19.4760 C   0  0  0  0  0  0
  -29.5065  -12.5058   18.2346 C   0  0  0  0  0  0
  -28.0340  -12.3322   18.6514 C   0  0  0  0  0  0
  -27.6371  -13.2410   19.8467 C   0  0  2  0  0  0
  -28.6815  -13.2056   20.9817 C   0  0  0  0  0  0
  -25.2496  -13.8223   20.5721 C   0  0  0  0  0  0
  -24.1790  -13.0454   20.9210 C   0  0  0  0  0  0
  -24.6393  -11.6936   20.8748 C   0  0  0  0  0  0
  -23.9073  -10.4300   21.0404 C   0  0  0  0  0  0
  -24.3624   -9.4212   21.9180 C   0  0  0  0  0  0
  -23.6294   -8.2251   22.0754 C   0  0  0  0  0  0
  -22.4274   -8.0291   21.3548 C   0  0  0  0  0  0
  -21.9908   -9.0263   20.4647 C   0  0  0  0  0  0
  -22.7245  -10.2139   20.3051 C   0  0  0  0  0  0
  -21.6859   -6.0733   22.5275 C   0  0  0  0  0  0
  -21.4026   -6.5638   23.8211 C   0  0  0  0  0  0
  -21.3662   -5.6791   24.9173 C   0  0  0  0  0  0
  -21.6045   -4.3054   24.7221 C   0  0  0  0  0  0
  -21.8820   -3.8144   23.4342 C   0  0  0  0  0  0
  -21.9195   -4.6960   22.3396 C   0  0  0  0  0  0
  -22.7807  -13.5221   21.1872 C   0  0  0  0  0  0
  -22.1660   -4.2146   21.0970 F   0  0  0  0  0  0
  -21.5623   -3.4536   25.7735 F   0  0  0  0  0  0
  -29.9772  -13.5397   20.3846 N   0  0  0  0  0  0
  -26.2923  -12.9445   20.3285 N   0  0  0  0  0  0
  -25.9330  -11.6579   20.5757 N   0  0  0  0  0  0
  -22.0457  -12.8207   22.0432 N   0  0  0  0  0  0
  -25.4197  -15.1952   20.4192 N   0  0  0  0  0  0
  -31.8467  -14.7742   20.1765 O   0  0  0  0  0  0
  -21.6644   -6.8882   21.4239 O   0  0  0  0  0  0
  -22.3473  -14.5516   20.6714 O   0  0  0  0  0  0
  -24.6316  -31.8550   23.1980 C   0  0  0  0  0  0
  -25.9139  -32.4754   23.8332 C   0  0  1  0  0  0
  -27.2192  -27.2541   20.1195 C   0  0  0  0  0  0
  -25.5934  -33.8556   24.2257 N   0  0  0  0  0  0
  -23.4282  -30.4789   21.5412 C   0  0  2  0  0  0
  -24.8738  -28.9260   20.1071 C   0  0  0  0  0  0
  -22.7506  -29.4601   22.4897 C   0  0  0  0  0  0
  -18.0299  -28.1380   22.8472 C   0  0  0  0  0  0
  -24.1486  -36.7280   23.2638 C   0  0  0  0  0  0
  -25.9752  -30.7658   21.3781 C   0  0  0  0  0  0
  -26.0460  -29.3881   20.7174 C   0  0  0  0  0  0
  -27.2171  -28.5629   20.7160 C   0  0  0  0  0  0
  -26.0129  -26.8547   19.4983 C   0  0  0  0  0  0
  -24.8626  -27.6673   19.4897 C   0  0  0  0  0  0
  -23.6466  -29.8161   20.1556 C   0  0  0  0  0  0
  -25.4111  -36.3072   24.0328 C   0  0  1  0  0  0
  -20.5899  -28.3693   23.1259 C   0  0  2  0  0  0
  -20.6781  -26.9406   22.5405 C   0  0  0  0  0  0
  -19.5764  -26.6373   21.5201 C   0  0  0  0  0  0
  -18.1944  -26.7922   22.1612 C   0  0  0  0  0  0
  -19.1551  -28.8853   23.2863 C   0  0  0  0  0  0
  -18.9473  -30.1447   23.8895 C   0  0  0  0  0  0
  -17.6471  -30.6574   24.0563 C   0  0  0  0  0  0
  -25.9054  -34.9442   23.5095 C   0  0  0  0  0  0
  -16.5363  -29.9073   23.6327 C   0  0  0  0  0  0
  -16.7284  -28.6491   23.0347 C   0  0  0  0  0  0
  -26.4493  -31.6580   25.0724 C   0  0  0  0  0  0
  -25.3717  -31.3745   26.1450 C   0  0  0  0  0  0
  -27.0328  -30.2996   24.6210 C   0  0  0  0  0  0
  -27.6050  -32.4317   25.7498 C   0  0  0  0  0  0
  -27.5582  -37.1792   24.8456 C   0  0  0  0  0  0
  -21.4211  -29.3037   22.3639 N   0  0  0  0  0  0
  -26.4283  -37.3775   23.9415 N   0  0  0  0  0  0
  -24.6976  -31.0512   22.0954 N   0  0  0  0  0  0
  -23.4204  -28.8141   23.2997 O   0  0  0  0  0  0
  -28.3201  -26.3650   20.2148 O   0  0  0  0  0  0
  -26.5628  -34.8918   22.4667 O   0  0  0  0  0  0
  -23.5465  -32.1373   23.7272 O   0  0  0  0  0  0
  -30.0933  -21.7645   20.8113 C   0  0  0  0  0  0
  -28.0309  -21.1701   19.7721 C   0  0  0  0  0  0
  -29.8040  -23.1612   20.6180 C   0  0  0  0  0  0
  -27.7398  -22.5672   19.5827 C   0  0  0  0  0  0
  -29.2434  -20.7066   20.3609 C   0  0  0  0  0  0
  -28.6261  -23.6225   19.9627 C   0  0  0  0  0  0
  -29.3697  -18.2869   21.6560 C   0  0  0  0  0  0
  -29.3055  -18.2271   19.2473 C   0  0  0  0  0  0
  -30.0489  -16.8418   21.6832 C   0  0  0  0  0  0
  -30.0224  -16.8128   19.2587 C   0  0  0  0  0  0
  -29.7113  -19.1667   20.4156 C   0  0  0  0  0  0
  -28.4384  -25.1127   19.3966 C   0  0  0  0  0  0
  -29.9259  -15.9507   20.4840 N   0  0  0  0  0  0
  -31.4653  -12.5579   19.1769 H   0  0  0  0  0  0
  -30.3474  -11.4877   19.9736 H   0  0  0  0  0  0
  -29.7892  -11.7299   17.5221 H   0  0  0  0  0  0
  -29.6354  -13.4583   17.7179 H   0  0  0  0  0  0
  -27.8947  -11.2853   18.9224 H   0  0  0  0  0  0
  -27.3757  -12.5177   17.8019 H   0  0  0  0  0  0
  -27.6227  -14.2585   19.4550 H   0  0  0  0  0  0
  -28.7159  -12.2244   21.4567 H   0  0  0  0  0  0
  -28.4215  -13.9228   21.7626 H   0  0  0  0  0  0
  -25.2776   -9.5680   22.4746 H   0  0  0  0  0  0
  -24.0011   -7.4633   22.7463 H   0  0  0  0  0  0
  -21.0844   -8.8780   19.8939 H   0  0  0  0  0  0
  -22.3714  -10.9675   19.6147 H   0  0  0  0  0  0
  -21.2030   -7.6150   23.9714 H   0  0  0  0  0  0
  -21.1480   -6.0522   25.9078 H   0  0  0  0  0  0
  -22.0597   -2.7603   23.2847 H   0  0  0  0  0  0
  -22.4091  -11.9888   22.4848 H   0  0  0  0  0  0
  -21.1064  -13.1207   22.2623 H   0  0  0  0  0  0
  -24.6594  -15.8548   20.5447 H   0  0  0  0  0  0
  -26.2856  -15.6375   20.1373 H   0  0  0  0  0  0
  -26.7204  -32.5399   23.1069 H   0  0  0  0  0  0
  -25.0074  -33.9697   25.0398 H   0  0  0  0  0  0
  -22.7246  -31.3014   21.3973 H   0  0  0  0  0  0
  -23.3758  -35.9601   23.3277 H   0  0  0  0  0  0
  -24.3582  -36.8926   22.2057 H   0  0  0  0  0  0
  -23.7223  -37.6467   23.6679 H   0  0  0  0  0  0
  -26.1164  -31.5276   20.6102 H   0  0  0  0  0  0
  -26.8523  -30.8142   22.0118 H   0  0  0  0  0  0
  -28.1130  -28.9102   21.2115 H   0  0  0  0  0  0
  -25.8986  -25.8797   19.0538 H   0  0  0  0  0  0
  -23.9589  -27.3015   19.0218 H   0  0  0  0  0  0
  -23.7769  -30.5958   19.4040 H   0  0  0  0  0  0
  -22.7626  -29.2560   19.8444 H   0  0  0  0  0  0
  -25.1289  -36.1916   25.0821 H   0  0  0  0  0  0
  -21.0002  -28.3278   24.1376 H   0  0  0  0  0  0
  -20.5659  -26.2303   23.3608 H   0  0  0  0  0  0
  -21.6657  -26.7415   22.1219 H   0  0  0  0  0  0
  -19.6923  -25.6282   21.1233 H   0  0  0  0  0  0
  -19.6697  -27.3174   20.6724 H   0  0  0  0  0  0
  -17.4209  -26.6658   21.4021 H   0  0  0  0  0  0
  -18.0349  -26.0066   22.9012 H   0  0  0  0  0  0
  -19.7951  -30.7260   24.2265 H   0  0  0  0  0  0
  -17.5026  -31.6252   24.5167 H   0  0  0  0  0  0
  -15.5365  -30.2969   23.7653 H   0  0  0  0  0  0
  -15.8686  -28.0803   22.7071 H   0  0  0  0  0  0
  -24.5886  -30.7094   25.7790 H   0  0  0  0  0  0
  -24.8913  -32.2918   26.4862 H   0  0  0  0  0  0
  -25.8032  -30.8934   27.0235 H   0  0  0  0  0  0
  -26.2899  -29.6747   24.1235 H   0  0  0  0  0  0
  -27.4005  -29.7256   25.4724 H   0  0  0  0  0  0
  -27.8782  -30.4262   23.9445 H   0  0  0  0  0  0
  -27.2667  -33.3625   26.2058 H   0  0  0  0  0  0
  -28.3870  -32.6860   25.0332 H   0  0  0  0  0  0
  -28.0700  -31.8449   26.5428 H   0  0  0  0  0  0
  -28.2580  -38.0111   24.7546 H   0  0  0  0  0  0
  -28.1104  -36.2649   24.6225 H   0  0  0  0  0  0
  -27.2315  -37.1374   25.8862 H   0  0  0  0  0  0
  -20.9389  -29.8757   21.6848 H   0  0  0  0  0  0
  -26.0158  -38.2843   24.1446 H   0  0  0  0  0  0
  -31.0388  -21.5051   21.2675 H   0  0  0  0  0  0
  -27.3230  -20.4433   19.3979 H   0  0  0  0  0  0
  -30.5487  -23.8870   20.9154 H   0  0  0  0  0  0
  -26.8320  -22.8269   19.0554 H   0  0  0  0  0  0
  -29.6691  -18.8226   22.5573 H   0  0  0  0  0  0
  -28.2873  -18.1764   21.7306 H   0  0  0  0  0  0
  -28.2243  -18.0858   19.2454 H   0  0  0  0  0  0
  -29.5406  -18.7235   18.3051 H   0  0  0  0  0  0
  -29.6664  -16.2948   22.5466 H   0  0  0  0  0  0
  -31.1148  -16.9789   21.8765 H   0  0  0  0  0  0
  -31.0794  -16.9869   19.0474 H   0  0  0  0  0  0
  -29.6533  -16.2334   18.4099 H   0  0  0  0  0  0
  -30.8001  -19.2315   20.3824 H   0  0  0  0  0  0
  -27.7117  -25.0745   18.5896 H   0  0  0  0  0  0
  -29.3651  -25.2800   18.8466 H   0  0  0  0  0  0
  1 25  1  0  0  0
  1 30  2  0  0  0
  1 83  1  0  0  0
  2  3  1  0  0  0
  2 25  1  0  0  0
  2 84  1  0  0  0
  2 85  1  0  0  0
  3  4  1  0  0  0
  3 86  1  0  0  0
  3 87  1  0  0  0
  4  5  1  0  0  0
  4 88  1  0  0  0
  4 89  1  0  0  0
  5  6  1  0  0  0
  5 26  1  0  0  0
  5 90  1  0  0  0
  6 25  1  0  0  0
  6 91  1  0  0  0
  6 92  1  0  0  0
  7  8  2  0  0  0
  7 26  1  0  0  0
  7 29  1  0  0  0
  8  9  1  0  0  0
  8 22  1  0  0  0
  9 10  1  0  0  0
  9 27  2  0  0  0
 10 11  2  0  0  0
 10 15  1  0  0  0
 11 12  1  0  0  0
 11 93  1  0  0  0
 12 13  2  0  0  0
 12 94  1  0  0  0
 13 14  1  0  0  0
 13 31  1  0  0  0
 14 15  2  0  0  0
 14 95  1  0  0  0
 15 96  1  0  0  0
 16 17  2  0  0  0
 16 21  1  0  0  0
 16 31  1  0  0  0
 17 18  1  0  0  0
 17 97  1  0  0  0
 18 19  2  0  0  0
 18 98  1  0  0  0
 19 20  1  0  0  0
 19 24  1  0  0  0
 20 21  2  0  0  0
 20 99  1  0  0  0
 21 23  1  0  0  0
 22 28  1  0  0  0
 22 32  2  0  0  0
 26 27  1  0  0  0
 28100  1  0  0  0
 28101  1  0  0  0
 29102  1  0  0  0
 29103  1  0  0  0
 33 34  1  0  0  0
 33 66  1  0  0  0
 33 70  2  0  0  0
 34 36  1  0  0  0
 34 59  1  0  0  0
 34104  1  0  0  0
 35 44  2  0  0  0
 35 45  1  0  0  0
 35 68  1  0  0  0
 36 56  1  0  0  0
 36105  1  0  0  0
 37 39  1  0  0  0
 37 47  1  0  0  0
 37 66  1  0  0  0
 37106  1  0  0  0
 38 43  2  0  0  0
 38 46  1  0  0  0
 38 47  1  0  0  0
 39 64  1  0  0  0
 39 67  2  0  0  0
 40 52  1  0  0  0
 40 53  2  0  0  0
 40 58  1  0  0  0
 41107  1  0  0  0
 41108  1  0  0  0
 41109  1  0  0  0
 41 48  1  0  0  0
 42 43  1  0  0  0
 42 66  1  0  0  0
 42110  1  0  0  0
 42111  1  0  0  0
 43 44  1  0  0  0
 44112  1  0  0  0
 45 46  2  0  0  0
 45113  1  0  0  0
 46114  1  0  0  0
 47115  1  0  0  0
 47116  1  0  0  0
 48 56  1  0  0  0
 48 65  1  0  0  0
 48117  1  0  0  0
 49 50  1  0  0  0
 49 53  1  0  0  0
 49 64  1  0  0  0
 49118  1  0  0  0
 50 51  1  0  0  0
 50119  1  0  0  0
 50120  1  0  0  0
 51 52  1  0  0  0
 51121  1  0  0  0
 51122  1  0  0  0
 52123  1  0  0  0
 52124  1  0  0  0
 53 54  1  0  0  0
 54 55  2  0  0  0
 54125  1  0  0  0
 55 57  1  0  0  0
 55126  1  0  0  0
 56 69  2  0  0  0
 57 58  2  0  0  0
 57127  1  0  0  0
 58128  1  0  0  0
 59 60  1  0  0  0
 59 61  1  0  0  0
 59 62  1  0  0  0
 60129  1  0  0  0
 60130  1  0  0  0
 60131  1  0  0  0
 61132  1  0  0  0
 61133  1  0  0  0
 61134  1  0  0  0
 62135  1  0  0  0
 62136  1  0  0  0
 62137  1  0  0  0
 63 65  1  0  0  0
 63138  1  0  0  0
 63139  1  0  0  0
 63140  1  0  0  0
 64141  1  0  0  0
 65142  1  0  0  0
 68 82  1  0  0  0
 71 73  2  0  0  0
 71 75  1  0  0  0
 71143  1  0  0  0
 72 74  1  0  0  0
 72 75  2  0  0  0
 72144  1  0  0  0
 73 76  1  0  0  0
 73145  1  0  0  0
 74 76  2  0  0  0
 74146  1  0  0  0
 75 81  1  0  0  0
 76 82  1  0  0  0
 77 79  1  0  0  0
 77 81  1  0  0  0
 77147  1  0  0  0
 77148  1  0  0  0
 78 80  1  0  0  0
 78 81  1  0  0  0
 78149  1  0  0  0
 78150  1  0  0  0
 79 83  1  0  0  0
 79151  1  0  0  0
 79152  1  0  0  0
 80 83  1  0  0  0
 80153  1  0  0  0
 80154  1  0  0  0
 81155  1  0  0  0
 82156  1  0  0  0
 82157  1  0  0  0
M  ISO  4   1 100  68 101  82 101  83 100
M  END
> <chiral flag>
0

> <version>
0

> <s_m_source_file>
/data/baiqing/PycharmProjects/Reinvent-master-3.2/result/LINK_invent/BTK/process_docking_weight1_custom_sum_contain_oxygen_bond_distance_aromatic_linkinvent_7_9_3/rearranged_h_0128.sdf

> <i_m_source_file_index>
19

> <r_mmod_Potential_Energy-OPLS-2005>
449.520599365234

> <r_mmod_Stretch_Energy-OPLS-2005>
120.040107727051

> <r_mmod_Bend_Energy-OPLS-2005>
201.958053588867

> <r_mmod_Torsional_Energy-OPLS-2005>
341.868438720703

> <r_mmod_Improper_Torsional_Energy-OPLS-2005>
15.9666175842285

> <r_mmod_Van_der_Waal_Energy-OPLS-2005>
139.468215942383

> <r_mmod_Electrostatic_Energy-OPLS-2005>
-270.755279541016

> <r_mmod_Solvation_Energy-OPLS-2005>
-189.391342163086

> <b_mmod_Minimization_Converged-OPLS-2005>
0

> <r_mmod_RMS_Derivative-OPLS-2005>
1.37633216381073

$$$$
19
                    3D
 Structure written by MMmdl.
166175  0  0  1  0            999 V2000
  -30.7315  -14.3810   20.6967 C   0  0  0  0  0  0
  -30.4309  -12.2956   19.3990 C   0  0  0  0  0  0
  -29.4918  -12.5336   18.1978 C   0  0  0  0  0  0
  -28.0146  -12.3865   18.6119 C   0  0  0  0  0  0
  -27.6733  -13.1980   19.8875 C   0  0  2  0  0  0
  -28.7101  -12.9147   21.0007 C   0  0  0  0  0  0
  -25.2622  -13.8132   20.5668 C   0  0  0  0  0  0
  -24.1865  -13.0431   20.9183 C   0  0  0  0  0  0
  -24.6425  -11.6896   20.8767 C   0  0  0  0  0  0
  -23.9097  -10.4286   21.0423 C   0  0  0  0  0  0
  -24.3646   -9.4193   21.9193 C   0  0  0  0  0  0
  -23.6310   -8.2235   22.0762 C   0  0  0  0  0  0
  -22.4299   -8.0284   21.3537 C   0  0  0  0  0  0
  -21.9938   -9.0271   20.4649 C   0  0  0  0  0  0
  -22.7280  -10.2143   20.3064 C   0  0  0  0  0  0
  -21.6853   -6.0757   22.5292 C   0  0  0  0  0  0
  -21.4014   -6.5654   23.8223 C   0  0  0  0  0  0
  -21.3648   -5.6805   24.9184 C   0  0  0  0  0  0
  -21.6048   -4.3071   24.7239 C   0  0  0  0  0  0
  -21.8816   -3.8161   23.4355 C   0  0  0  0  0  0
  -21.9188   -4.6983   22.3412 C   0  0  0  0  0  0
  -22.7878  -13.5231   21.1842 C   0  0  0  0  0  0
  -22.1656   -4.2171   21.0986 F   0  0  0  0  0  0
  -21.5625   -3.4540   25.7744 F   0  0  0  0  0  0
  -30.0629  -13.2156   20.4861 N   0  0  0  0  0  0
  -26.3082  -12.9307   20.3408 N   0  0  0  0  0  0
  -25.9352  -11.6478   20.5808 N   0  0  0  0  0  0
  -22.0514  -12.8229   22.0398 N   0  0  0  0  0  0
  -25.4329  -15.1839   20.4025 N   0  0  0  0  0  0
  -31.6860  -14.7561   20.0097 O   0  0  0  0  0  0
  -21.6645   -6.8894   21.4248 O   0  0  0  0  0  0
  -22.3579  -14.5559   20.6708 O   0  0  0  0  0  0
  -24.6131  -31.8712   23.2118 C   0  0  0  0  0  0
  -25.9039  -32.4841   23.8395 C   0  0  1  0  0  0
  -27.2414  -27.4587   20.0761 C   0  0  0  0  0  0
  -25.5916  -33.8633   24.2342 N   0  0  0  0  0  0
  -23.3990  -30.4952   21.5505 C   0  0  2  0  0  0
  -24.8442  -28.9608   20.1147 C   0  0  0  0  0  0
  -22.7395  -29.4689   22.4992 C   0  0  0  0  0  0
  -18.0276  -28.1395   22.8495 C   0  0  0  0  0  0
  -24.1490  -36.7308   23.2631 C   0  0  0  0  0  0
  -25.9254  -30.8370   21.3655 C   0  0  0  0  0  0
  -26.0000  -29.4701   20.7180 C   0  0  0  0  0  0
  -27.1933  -28.7181   20.7118 C   0  0  0  0  0  0
  -26.0644  -26.9528   19.4757 C   0  0  0  0  0  0
  -24.8689  -27.6971   19.4982 C   0  0  0  0  0  0
  -23.6062  -29.8270   20.1648 C   0  0  0  0  0  0
  -25.4111  -36.3121   24.0343 C   0  0  1  0  0  0
  -20.5863  -28.3681   23.1327 C   0  0  2  0  0  0
  -20.6777  -26.9420   22.5420 C   0  0  0  0  0  0
  -19.5755  -26.6405   21.5219 C   0  0  0  0  0  0
  -18.1931  -26.7945   22.1625 C   0  0  0  0  0  0
  -19.1523  -28.8853   23.2911 C   0  0  0  0  0  0
  -18.9454  -30.1457   23.8930 C   0  0  0  0  0  0
  -17.6458  -30.6602   24.0575 C   0  0  0  0  0  0
  -25.9044  -34.9485   23.5142 C   0  0  0  0  0  0
  -16.5348  -29.9108   23.6323 C   0  0  0  0  0  0
  -16.7267  -28.6519   23.0355 C   0  0  0  0  0  0
  -26.4470  -31.6608   25.0709 C   0  0  0  0  0  0
  -25.3734  -31.3716   26.1456 C   0  0  0  0  0  0
  -27.0291  -30.3056   24.6068 C   0  0  0  0  0  0
  -27.6064  -32.4303   25.7461 C   0  0  0  0  0  0
  -27.5598  -37.1800   24.8456 C   0  0  0  0  0  0
  -21.4129  -29.3047   22.3724 N   0  0  0  0  0  0
  -26.4304  -37.3803   23.9416 N   0  0  0  0  0  0
  -24.6636  -31.0824   22.1009 N   0  0  0  0  0  0
  -23.4174  -28.8237   23.3039 O   0  0  0  0  0  0
  -28.4333  -26.7670   20.0860 O   0  0  0  0  0  0
  -26.5589  -34.8932   22.4694 O   0  0  0  0  0  0
  -23.5334  -32.1460   23.7529 O   0  0  0  0  0  0
  -30.0881  -19.8974   21.8667 C   0  0  0  0  0  0
  -29.9419  -18.5733   22.3255 C   0  0  0  0  0  0
  -29.9608  -17.7775   20.0328 C   0  0  0  0  0  0
  -30.1279  -20.1868   20.4833 C   0  0  0  0  0  0
  -29.8445  -17.5072   21.4092 C   0  0  0  0  0  0
  -30.1017  -19.1026   19.5620 C   0  0  0  0  0  0
  -31.2891  -22.5239   20.4894 C   0  0  0  0  0  0
  -30.7795  -23.9393   20.1645 C   0  0  0  0  0  0
  -28.9224  -22.4781   20.4896 C   0  0  0  0  0  0
  -30.1281  -21.6528   20.0230 C   0  0  2  0  0  0
  -30.1571  -19.3198   18.0582 C   0  0  0  0  0  0
  -29.4383  -16.1222   21.9024 C   0  0  0  0  0  0
  -28.5598  -24.5017   19.1094 C   0  0  0  0  0  0
  -28.7980  -26.0162   18.9268 C   0  0  0  0  0  0
  -30.3987  -15.0162   21.8272 N   0  0  0  0  0  0
  -29.2930  -23.8963   20.2566 N   0  3  2  0  0  0
  -31.4722  -12.4150   19.0958 H   0  0  0  0  0  0
  -30.3447  -11.2661   19.7507 H   0  0  0  0  0  0
  -29.7262  -11.8312   17.3966 H   0  0  0  0  0  0
  -29.6632  -13.5304   17.7865 H   0  0  0  0  0  0
  -27.8187  -11.3273   18.7822 H   0  0  0  0  0  0
  -27.3624  -12.6881   17.7913 H   0  0  0  0  0  0
  -27.7382  -14.2538   19.6241 H   0  0  0  0  0  0
  -28.6686  -11.8654   21.2940 H   0  0  0  0  0  0
  -28.4497  -13.4651   21.9049 H   0  0  0  0  0  0
  -25.2786   -9.5663   22.4778 H   0  0  0  0  0  0
  -24.0012   -7.4627   22.7487 H   0  0  0  0  0  0
  -21.0865   -8.8825   19.8947 H   0  0  0  0  0  0
  -22.3759  -10.9706   19.6184 H   0  0  0  0  0  0
  -21.2023   -7.6171   23.9738 H   0  0  0  0  0  0
  -21.1457   -6.0532   25.9091 H   0  0  0  0  0  0
  -22.0609   -2.7630   23.2855 H   0  0  0  0  0  0
  -22.4112  -11.9869   22.4753 H   0  0  0  0  0  0
  -21.1134  -13.1266   22.2623 H   0  0  0  0  0  0
  -24.6624  -15.8357   20.5035 H   0  0  0  0  0  0
  -26.2806  -15.6204   20.0647 H   0  0  0  0  0  0
  -26.7106  -32.5557   23.1153 H   0  0  0  0  0  0
  -25.0096  -33.9790   25.0512 H   0  0  0  0  0  0
  -22.6876  -31.3119   21.4133 H   0  0  0  0  0  0
  -23.3762  -35.9633   23.3303 H   0  0  0  0  0  0
  -24.3589  -36.8903   22.2043 H   0  0  0  0  0  0
  -23.7232  -37.6518   23.6623 H   0  0  0  0  0  0
  -26.0372  -31.6007   20.5944 H   0  0  0  0  0  0
  -26.8145  -30.8918   21.9814 H   0  0  0  0  0  0
  -28.0860  -29.1091   21.1802 H   0  0  0  0  0  0
  -26.0478  -25.9882   18.9917 H   0  0  0  0  0  0
  -23.9765  -27.3000   19.0336 H   0  0  0  0  0  0
  -23.7138  -30.6007   19.4031 H   0  0  0  0  0  0
  -22.7296  -29.2468   19.8712 H   0  0  0  0  0  0
  -25.1284  -36.1987   25.0838 H   0  0  0  0  0  0
  -20.9965  -28.3261   24.1446 H   0  0  0  0  0  0
  -20.5711  -26.2290   23.3603 H   0  0  0  0  0  0
  -21.6650  -26.7492   22.1201 H   0  0  0  0  0  0
  -19.6917  -25.6320   21.1243 H   0  0  0  0  0  0
  -19.6702  -27.3223   20.6754 H   0  0  0  0  0  0
  -17.4203  -26.6700   21.4020 H   0  0  0  0  0  0
  -18.0327  -26.0089   22.9021 H   0  0  0  0  0  0
  -19.7934  -30.7260   24.2325 H   0  0  0  0  0  0
  -17.5020  -31.6289   24.5169 H   0  0  0  0  0  0
  -15.5354  -30.3027   23.7636 H   0  0  0  0  0  0
  -15.8664  -28.0850   22.7070 H   0  0  0  0  0  0
  -24.5903  -30.7074   25.7778 H   0  0  0  0  0  0
  -24.8935  -32.2881   26.4902 H   0  0  0  0  0  0
  -25.8088  -30.8871   27.0205 H   0  0  0  0  0  0
  -26.2828  -29.6828   24.1127 H   0  0  0  0  0  0
  -27.4076  -29.7281   25.4509 H   0  0  0  0  0  0
  -27.8653  -30.4379   23.9199 H   0  0  0  0  0  0
  -27.2705  -33.3575   26.2114 H   0  0  0  0  0  0
  -28.3836  -32.6911   25.0263 H   0  0  0  0  0  0
  -28.0780  -31.8379   26.5311 H   0  0  0  0  0  0
  -28.2594  -38.0120   24.7571 H   0  0  0  0  0  0
  -28.1121  -36.2665   24.6206 H   0  0  0  0  0  0
  -27.2325  -37.1358   25.8858 H   0  0  0  0  0  0
  -20.9291  -29.8729   21.6911 H   0  0  0  0  0  0
  -26.0196  -38.2878   24.1455 H   0  0  0  0  0  0
  -30.1132  -20.6987   22.5931 H   0  0  0  0  0  0
  -29.8386  -18.3906   23.3869 H   0  0  0  0  0  0
  -29.8729  -16.9631   19.3263 H   0  0  0  0  0  0
  -31.4409  -22.4251   21.5650 H   0  0  0  0  0  0
  -32.2310  -22.2833   19.9945 H   0  0  0  0  0  0
  -31.0934  -24.2039   19.1538 H   0  0  0  0  0  0
  -31.1974  -24.6861   20.8412 H   0  0  0  0  0  0
  -28.7573  -22.3498   21.5595 H   0  0  0  0  0  0
  -28.0010  -22.1769   19.9900 H   0  0  0  0  0  0
  -30.1218  -21.6987   18.9356 H   0  0  0  0  0  0
  -30.3392  -18.3822   17.5322 H   0  0  0  0  0  0
  -30.9629  -20.0007   17.7848 H   0  0  0  0  0  0
  -29.2117  -19.7268   17.6976 H   0  0  0  0  0  0
  -29.1300  -16.2012   22.9447 H   0  0  0  0  0  0
  -28.5302  -15.8422   21.3667 H   0  0  0  0  0  0
  -28.8445  -23.9834   18.1923 H   0  0  0  0  0  0
  -27.4938  -24.3217   19.2403 H   0  0  0  0  0  0
  -28.2743  -26.3758   18.0395 H   0  0  0  0  0  0
  -29.8522  -26.2079   18.7303 H   0  0  0  0  0  0
  -30.1885  -14.3447   22.5505 H   0  0  0  0  0  0
  -29.0217  -24.4102   21.0846 H   0  0  0  0  0  0
  1 25  1  0  0  0
  1 30  2  0  0  0
  1 85  1  0  0  0
  2  3  1  0  0  0
  2 25  1  0  0  0
  2 87  1  0  0  0
  2 88  1  0  0  0
  3  4  1  0  0  0
  3 89  1  0  0  0
  3 90  1  0  0  0
  4  5  1  0  0  0
  4 91  1  0  0  0
  4 92  1  0  0  0
  5  6  1  0  0  0
  5 26  1  0  0  0
  5 93  1  0  0  0
  6 25  1  0  0  0
  6 94  1  0  0  0
  6 95  1  0  0  0
  7  8  2  0  0  0
  7 26  1  0  0  0
  7 29  1  0  0  0
  8  9  1  0  0  0
  8 22  1  0  0  0
  9 10  1  0  0  0
  9 27  2  0  0  0
 10 11  2  0  0  0
 10 15  1  0  0  0
 11 12  1  0  0  0
 11 96  1  0  0  0
 12 13  2  0  0  0
 12 97  1  0  0  0
 13 14  1  0  0  0
 13 31  1  0  0  0
 14 15  2  0  0  0
 14 98  1  0  0  0
 15 99  1  0  0  0
 16 17  2  0  0  0
 16 21  1  0  0  0
 16 31  1  0  0  0
 17 18  1  0  0  0
 17100  1  0  0  0
 18 19  2  0  0  0
 18101  1  0  0  0
 19 20  1  0  0  0
 19 24  1  0  0  0
 20 21  2  0  0  0
 20102  1  0  0  0
 21 23  1  0  0  0
 22 28  1  0  0  0
 22 32  2  0  0  0
 26 27  1  0  0  0
 28103  1  0  0  0
 28104  1  0  0  0
 29105  1  0  0  0
 29106  1  0  0  0
 33 34  1  0  0  0
 33 66  1  0  0  0
 33 70  2  0  0  0
 34 36  1  0  0  0
 34 59  1  0  0  0
 34107  1  0  0  0
 35 44  2  0  0  0
 35 45  1  0  0  0
 35 68  1  0  0  0
 36 56  1  0  0  0
 36108  1  0  0  0
 37 39  1  0  0  0
 37 47  1  0  0  0
 37 66  1  0  0  0
 37109  1  0  0  0
 38 43  2  0  0  0
 38 46  1  0  0  0
 38 47  1  0  0  0
 39 64  1  0  0  0
 39 67  2  0  0  0
 40 52  1  0  0  0
 40 53  2  0  0  0
 40 58  1  0  0  0
 41110  1  0  0  0
 41111  1  0  0  0
 41112  1  0  0  0
 41 48  1  0  0  0
 42 43  1  0  0  0
 42 66  1  0  0  0
 42113  1  0  0  0
 42114  1  0  0  0
 43 44  1  0  0  0
 44115  1  0  0  0
 45 46  2  0  0  0
 45116  1  0  0  0
 46117  1  0  0  0
 47118  1  0  0  0
 47119  1  0  0  0
 48 56  1  0  0  0
 48 65  1  0  0  0
 48120  1  0  0  0
 49 50  1  0  0  0
 49 53  1  0  0  0
 49 64  1  0  0  0
 49121  1  0  0  0
 50 51  1  0  0  0
 50122  1  0  0  0
 50123  1  0  0  0
 51 52  1  0  0  0
 51124  1  0  0  0
 51125  1  0  0  0
 52126  1  0  0  0
 52127  1  0  0  0
 53 54  1  0  0  0
 54 55  2  0  0  0
 54128  1  0  0  0
 55 57  1  0  0  0
 55129  1  0  0  0
 56 69  2  0  0  0
 57 58  2  0  0  0
 57130  1  0  0  0
 58131  1  0  0  0
 59 60  1  0  0  0
 59 61  1  0  0  0
 59 62  1  0  0  0
 60132  1  0  0  0
 60133  1  0  0  0
 60134  1  0  0  0
 61135  1  0  0  0
 61136  1  0  0  0
 61137  1  0  0  0
 62138  1  0  0  0
 62139  1  0  0  0
 62140  1  0  0  0
 63 65  1  0  0  0
 63141  1  0  0  0
 63142  1  0  0  0
 63143  1  0  0  0
 64144  1  0  0  0
 65145  1  0  0  0
 68 84  1  0  0  0
 71 72  2  0  0  0
 71 74  1  0  0  0
 71146  1  0  0  0
 72 75  1  0  0  0
 72147  1  0  0  0
 73 75  2  0  0  0
 73 76  1  0  0  0
 73148  1  0  0  0
 74 76  2  0  0  0
 74 80  1  0  0  0
 75 82  1  0  0  0
 76 81  1  0  0  0
 77 78  1  0  0  0
 77 80  1  0  0  0
 77149  1  0  0  0
 77150  1  0  0  0
 78 86  1  0  0  0
 78151  1  0  0  0
 78152  1  0  0  0
 79 80  1  0  0  0
 79 86  1  0  0  0
 79153  1  0  0  0
 79154  1  0  0  0
 80155  1  0  0  0
 81156  1  0  0  0
 81157  1  0  0  0
 81158  1  0  0  0
 82 85  1  0  0  0
 82159  1  0  0  0
 82160  1  0  0  0
 83 84  1  0  0  0
 83161  1  0  0  0
 83162  1  0  0  0
 83 86  1  0  0  0
 84163  1  0  0  0
 84164  1  0  0  0
 85165  1  0  0  0
 86166  1  0  0  0
M  CHG  1  86   1
M  ISO  4   1 100  68 101  84 101  85 100
M  END
> <chiral flag>
0

> <version>
0

> <s_m_source_file>
/data/baiqing/PycharmProjects/Reinvent-master-3.2/result/LINK_invent/BTK/process_docking_weight1_custom_sum_contain_oxygen_bond_distance_aromatic_linkinvent_7_9_3/rearranged_h_0128.sdf

> <i_m_source_file_index>
20

> <r_mmod_Potential_Energy-OPLS-2005>
-73.3392181396484

> <r_mmod_Stretch_Energy-OPLS-2005>
35.7506713867188

> <r_mmod_Bend_Energy-OPLS-2005>
136.031295776367

> <r_mmod_Torsional_Energy-OPLS-2005>
332.089904785156

> <r_mmod_Improper_Torsional_Energy-OPLS-2005>
9.67484855651855

> <r_mmod_Van_der_Waal_Energy-OPLS-2005>
146.312377929688

> <r_mmod_Electrostatic_Energy-OPLS-2005>
-311.525085449219

> <r_mmod_Solvation_Energy-OPLS-2005>
-431.768737792969

> <b_mmod_Minimization_Converged-OPLS-2005>
0

> <r_mmod_RMS_Derivative-OPLS-2005>
1.94082343578339

$$$$
20
                    3D
 Structure written by MMmdl.
159168  0  0  1  0            999 V2000
  -30.4508  -15.2165   20.3848 C   0  0  0  0  0  0
  -30.4375  -12.7771   19.5130 C   0  0  0  0  0  0
  -29.5330  -12.5733   18.2738 C   0  0  0  0  0  0
  -28.0783  -12.3046   18.6999 C   0  0  0  0  0  0
  -27.6128  -13.2707   19.8194 C   0  0  2  0  0  0
  -28.6483  -13.4238   20.9525 C   0  0  0  0  0  0
  -25.2402  -13.8242   20.5712 C   0  0  0  0  0  0
  -24.1756  -13.0440   20.9248 C   0  0  0  0  0  0
  -24.6408  -11.6936   20.8757 C   0  0  0  0  0  0
  -23.9105  -10.4295   21.0402 C   0  0  0  0  0  0
  -24.3650   -9.4210   21.9180 C   0  0  0  0  0  0
  -23.6315   -8.2250   22.0753 C   0  0  0  0  0  0
  -22.4297   -8.0283   21.3544 C   0  0  0  0  0  0
  -21.9936   -9.0260   20.4649 C   0  0  0  0  0  0
  -22.7274  -10.2134   20.3056 C   0  0  0  0  0  0
  -21.6856   -6.0743   22.5279 C   0  0  0  0  0  0
  -21.4019   -6.5645   23.8214 C   0  0  0  0  0  0
  -21.3664   -5.6793   24.9171 C   0  0  0  0  0  0
  -21.6045   -4.3057   24.7221 C   0  0  0  0  0  0
  -21.8820   -3.8153   23.4340 C   0  0  0  0  0  0
  -21.9196   -4.6971   22.3399 C   0  0  0  0  0  0
  -22.7776  -13.5201   21.1895 C   0  0  0  0  0  0
  -22.1658   -4.2157   21.0973 F   0  0  0  0  0  0
  -21.5633   -3.4539   25.7733 F   0  0  0  0  0  0
  -29.8818  -13.9188   20.3229 N   0  0  0  0  0  0
  -26.2820  -12.9509   20.3182 N   0  0  0  0  0  0
  -25.9339  -11.6618   20.5701 N   0  0  0  0  0  0
  -22.0426  -12.8192   22.0450 N   0  0  0  0  0  0
  -25.4035  -15.1975   20.4138 N   0  0  0  0  0  0
  -31.6772  -15.2147   20.2124 O   0  0  0  0  0  0
  -21.6650   -6.8888   21.4240 O   0  0  0  0  0  0
  -22.3461  -14.5498   20.6721 O   0  0  0  0  0  0
  -24.6578  -31.8270   23.1730 C   0  0  0  0  0  0
  -25.9283  -32.4601   23.8181 C   0  0  1  0  0  0
  -27.2204  -26.9590   20.1923 C   0  0  0  0  0  0
  -25.5981  -33.8416   24.2092 N   0  0  0  0  0  0
  -23.4705  -30.4373   21.5213 C   0  0  2  0  0  0
  -24.9221  -28.8224   20.1179 C   0  0  0  0  0  0
  -22.7640  -29.4454   22.4809 C   0  0  0  0  0  0
  -18.0324  -28.1397   22.8475 C   0  0  0  0  0  0
  -24.1496  -36.7210   23.2645 C   0  0  0  0  0  0
  -26.0348  -30.6427   21.3978 C   0  0  0  0  0  0
  -26.1020  -29.2323   20.7509 C   0  0  0  0  0  0
  -27.2437  -28.3203   20.7639 C   0  0  0  0  0  0
  -26.0128  -26.6882   19.5117 C   0  0  0  0  0  0
  -24.8998  -27.5693   19.4810 C   0  0  0  0  0  0
  -23.7082  -29.7489   20.1484 C   0  0  0  0  0  0
  -25.4135  -36.2970   24.0298 C   0  0  1  0  0  0
  -20.5946  -28.3737   23.1205 C   0  0  2  0  0  0
  -20.6798  -26.9420   22.5406 C   0  0  0  0  0  0
  -19.5766  -26.6365   21.5223 C   0  0  0  0  0  0
  -18.1950  -26.7936   22.1628 C   0  0  0  0  0  0
  -19.1584  -28.8890   23.2827 C   0  0  0  0  0  0
  -18.9492  -30.1491   23.8843 C   0  0  0  0  0  0
  -17.6482  -30.6587   24.0556 C   0  0  0  0  0  0
  -25.9100  -34.9356   23.5011 C   0  0  0  0  0  0
  -16.5378  -29.9071   23.6341 C   0  0  0  0  0  0
  -16.7307  -28.6497   23.0357 C   0  0  0  0  0  0
  -26.4557  -31.6534   25.0694 C   0  0  0  0  0  0
  -25.3700  -31.3781   26.1362 C   0  0  0  0  0  0
  -27.0448  -30.2901   24.6403 C   0  0  0  0  0  0
  -27.6045  -32.4348   25.7499 C   0  0  0  0  0  0
  -27.5571  -37.1762   24.8465 C   0  0  0  0  0  0
  -21.4316  -29.3040   22.3561 N   0  0  0  0  0  0
  -26.4281  -37.3700   23.9407 N   0  0  0  0  0  0
  -24.7422  -30.9958   22.0847 N   0  0  0  0  0  0
  -23.4207  -28.8030   23.3041 O   0  0  0  0  0  0
  -28.2864  -25.9291   20.2016 O   0  0  0  0  0  0
  -26.5697  -34.8884   22.4603 O   0  0  0  0  0  0
  -23.5658  -32.1238   23.6844 O   0  0  0  0  0  0
  -27.4220  -23.4219   20.8099 C   0  0  0  0  0  0
  -27.6288  -21.9498   20.8328 C   0  0  0  0  0  0
  -28.7885  -21.2305   20.2889 C   0  0  0  0  0  0
  -29.6375  -22.2931   19.7494 C   0  0  0  0  0  0
  -28.3104  -24.3968   20.2270 C   0  0  0  0  0  0
  -25.5592  -20.3438   20.6190 C   0  0  0  0  0  0
  -25.0730  -21.5442   21.3887 C   0  0  0  0  0  0
  -26.5320  -21.1367   21.4632 C   0  0  0  0  0  0
  -30.9295  -21.8982   19.0638 C   0  0  0  0  0  0
  -31.3683  -18.4575   20.3790 C   0  0  0  0  0  0
  -28.8981  -19.4879   20.0714 C   0  0  0  0  0  0
  -29.8955  -18.1203   20.6386 C   0  0  1  0  0  0
  -29.4224  -23.7043   19.7449 N   0  0  0  0  0  0
  -29.6744  -16.4764   20.4451 N   0  0  0  0  0  0
  -31.4591  -12.9751   19.1858 H   0  0  0  0  0  0
  -30.4901  -11.8634   20.1075 H   0  0  0  0  0  0
  -29.9049  -11.7517   17.6601 H   0  0  0  0  0  0
  -29.5711  -13.4665   17.6474 H   0  0  0  0  0  0
  -28.0254  -11.2752   19.0567 H   0  0  0  0  0  0
  -27.4117  -12.3650   17.8384 H   0  0  0  0  0  0
  -27.5340  -14.2446   19.3350 H   0  0  0  0  0  0
  -28.8087  -12.4825   21.4798 H   0  0  0  0  0  0
  -28.2969  -14.1438   21.6941 H   0  0  0  0  0  0
  -25.2791   -9.5686   22.4761 H   0  0  0  0  0  0
  -24.0018   -7.4650   22.7479 H   0  0  0  0  0  0
  -21.0862   -8.8787   19.8961 H   0  0  0  0  0  0
  -22.3726  -10.9676   19.6171 H   0  0  0  0  0  0
  -21.2004   -7.6152   23.9719 H   0  0  0  0  0  0
  -21.1487   -6.0520   25.9074 H   0  0  0  0  0  0
  -22.0595   -2.7615   23.2835 H   0  0  0  0  0  0
  -22.4042  -11.9864   22.4858 H   0  0  0  0  0  0
  -21.1031  -13.1198   22.2632 H   0  0  0  0  0  0
  -24.6294  -15.8436   20.5219 H   0  0  0  0  0  0
  -26.2369  -15.6367   20.0472 H   0  0  0  0  0  0
  -26.7354  -32.5145   23.0898 H   0  0  0  0  0  0
  -25.0120  -33.9510   25.0237 H   0  0  0  0  0  0
  -22.7809  -31.2667   21.3502 H   0  0  0  0  0  0
  -23.3767  -35.9534   23.3284 H   0  0  0  0  0  0
  -24.3577  -36.8876   22.2065 H   0  0  0  0  0  0
  -23.7244  -37.6387   23.6719 H   0  0  0  0  0  0
  -26.2088  -31.3824   20.6155 H   0  0  0  0  0  0
  -26.8979  -30.7028   22.0491 H   0  0  0  0  0  0
  -28.1443  -28.6391   21.2697 H   0  0  0  0  0  0
  -25.9093  -25.7328   19.0167 H   0  0  0  0  0  0
  -24.0031  -27.2524   18.9659 H   0  0  0  0  0  0
  -23.8602  -30.5151   19.3869 H   0  0  0  0  0  0
  -22.8182  -29.2002   19.8354 H   0  0  0  0  0  0
  -25.1334  -36.1768   25.0788 H   0  0  0  0  0  0
  -21.0042  -28.3339   24.1328 H   0  0  0  0  0  0
  -20.5685  -26.2357   23.3647 H   0  0  0  0  0  0
  -21.6659  -26.7400   22.1204 H   0  0  0  0  0  0
  -19.6919  -25.6264   21.1278 H   0  0  0  0  0  0
  -19.6698  -27.3160   20.6741 H   0  0  0  0  0  0
  -17.4224  -26.6701   21.4026 H   0  0  0  0  0  0
  -18.0326  -26.0083   22.9024 H   0  0  0  0  0  0
  -19.7967  -30.7331   24.2171 H   0  0  0  0  0  0
  -17.5027  -31.6263   24.5168 H   0  0  0  0  0  0
  -15.5370  -30.2948   23.7688 H   0  0  0  0  0  0
  -15.8714  -28.0792   22.7087 H   0  0  0  0  0  0
  -24.5890  -30.7120   25.7686 H   0  0  0  0  0  0
  -24.8889  -32.2982   26.4683 H   0  0  0  0  0  0
  -25.7947  -30.9019   27.0208 H   0  0  0  0  0  0
  -26.3113  -29.6578   24.1387 H   0  0  0  0  0  0
  -27.3971  -29.7258   25.5049 H   0  0  0  0  0  0
  -27.9056  -30.4089   23.9818 H   0  0  0  0  0  0
  -27.2603  -33.3685   26.1961 H   0  0  0  0  0  0
  -28.3915  -32.6850   25.0375 H   0  0  0  0  0  0
  -28.0649  -31.8555   26.5510 H   0  0  0  0  0  0
  -28.2560  -38.0081   24.7507 H   0  0  0  0  0  0
  -28.1087  -36.2602   24.6296 H   0  0  0  0  0  0
  -27.2287  -37.1410   25.8866 H   0  0  0  0  0  0
  -20.9561  -29.8719   21.6684 H   0  0  0  0  0  0
  -26.0125  -38.2758   24.1412 H   0  0  0  0  0  0
  -26.5327  -23.8226   21.2742 H   0  0  0  0  0  0
  -25.6308  -20.4402   19.5371 H   0  0  0  0  0  0
  -25.2576  -19.3639   20.9841 H   0  0  0  0  0  0
  -24.4461  -21.3483   22.2565 H   0  0  0  0  0  0
  -24.7913  -22.4139   20.7988 H   0  0  0  0  0  0
  -26.8739  -20.6886   22.3945 H   0  0  0  0  0  0
  -30.7428  -21.1804   18.2662 H   0  0  0  0  0  0
  -31.6165  -21.4514   19.7798 H   0  0  0  0  0  0
  -31.4313  -22.7612   18.6245 H   0  0  0  0  0  0
  -31.6180  -19.4377   20.7808 H   0  0  0  0  0  0
  -31.5928  -18.4559   19.3119 H   0  0  0  0  0  0
  -32.0346  -17.7474   20.8670 H   0  0  0  0  0  0
  -28.9589  -19.4064   18.9859 H   0  0  0  0  0  0
  -27.8901  -19.1395   20.2804 H   0  0  0  0  0  0
  -29.7847  -18.1954   21.7208 H   0  0  0  0  0  0
  -28.6898  -16.2519   20.4580 H   0  0  0  0  0  0
  1 25  1  0  0  0
  1 30  2  0  0  0
  1 84  1  0  0  0
  2  3  1  0  0  0
  2 25  1  0  0  0
  2 85  1  0  0  0
  2 86  1  0  0  0
  3  4  1  0  0  0
  3 87  1  0  0  0
  3 88  1  0  0  0
  4  5  1  0  0  0
  4 89  1  0  0  0
  4 90  1  0  0  0
  5  6  1  0  0  0
  5 26  1  0  0  0
  5 91  1  0  0  0
  6 25  1  0  0  0
  6 92  1  0  0  0
  6 93  1  0  0  0
  7  8  2  0  0  0
  7 26  1  0  0  0
  7 29  1  0  0  0
  8  9  1  0  0  0
  8 22  1  0  0  0
  9 10  1  0  0  0
  9 27  2  0  0  0
 10 11  2  0  0  0
 10 15  1  0  0  0
 11 12  1  0  0  0
 11 94  1  0  0  0
 12 13  2  0  0  0
 12 95  1  0  0  0
 13 14  1  0  0  0
 13 31  1  0  0  0
 14 15  2  0  0  0
 14 96  1  0  0  0
 15 97  1  0  0  0
 16 17  2  0  0  0
 16 21  1  0  0  0
 16 31  1  0  0  0
 17 18  1  0  0  0
 17 98  1  0  0  0
 18 19  2  0  0  0
 18 99  1  0  0  0
 19 20  1  0  0  0
 19 24  1  0  0  0
 20 21  2  0  0  0
 20100  1  0  0  0
 21 23  1  0  0  0
 22 28  1  0  0  0
 22 32  2  0  0  0
 26 27  1  0  0  0
 28101  1  0  0  0
 28102  1  0  0  0
 29103  1  0  0  0
 29104  1  0  0  0
 33 34  1  0  0  0
 33 66  1  0  0  0
 33 70  2  0  0  0
 34 36  1  0  0  0
 34 59  1  0  0  0
 34105  1  0  0  0
 35 44  2  0  0  0
 35 45  1  0  0  0
 35 68  1  0  0  0
 36 56  1  0  0  0
 36106  1  0  0  0
 37 39  1  0  0  0
 37 47  1  0  0  0
 37 66  1  0  0  0
 37107  1  0  0  0
 38 43  2  0  0  0
 38 46  1  0  0  0
 38 47  1  0  0  0
 39 64  1  0  0  0
 39 67  2  0  0  0
 40 52  1  0  0  0
 40 53  2  0  0  0
 40 58  1  0  0  0
 41108  1  0  0  0
 41109  1  0  0  0
 41110  1  0  0  0
 41 48  1  0  0  0
 42 43  1  0  0  0
 42 66  1  0  0  0
 42111  1  0  0  0
 42112  1  0  0  0
 43 44  1  0  0  0
 44113  1  0  0  0
 45 46  2  0  0  0
 45114  1  0  0  0
 46115  1  0  0  0
 47116  1  0  0  0
 47117  1  0  0  0
 48 56  1  0  0  0
 48 65  1  0  0  0
 48118  1  0  0  0
 49 50  1  0  0  0
 49 53  1  0  0  0
 49 64  1  0  0  0
 49119  1  0  0  0
 50 51  1  0  0  0
 50120  1  0  0  0
 50121  1  0  0  0
 51 52  1  0  0  0
 51122  1  0  0  0
 51123  1  0  0  0
 52124  1  0  0  0
 52125  1  0  0  0
 53 54  1  0  0  0
 54 55  2  0  0  0
 54126  1  0  0  0
 55 57  1  0  0  0
 55127  1  0  0  0
 56 69  2  0  0  0
 57 58  2  0  0  0
 57128  1  0  0  0
 58129  1  0  0  0
 59 60  1  0  0  0
 59 61  1  0  0  0
 59 62  1  0  0  0
 60130  1  0  0  0
 60131  1  0  0  0
 60132  1  0  0  0
 61133  1  0  0  0
 61134  1  0  0  0
 61135  1  0  0  0
 62136  1  0  0  0
 62137  1  0  0  0
 62138  1  0  0  0
 63 65  1  0  0  0
 63139  1  0  0  0
 63140  1  0  0  0
 63141  1  0  0  0
 64142  1  0  0  0
 65143  1  0  0  0
 68 75  1  0  0  0
 71 72  2  0  0  0
 71 75  1  0  0  0
 71144  1  0  0  0
 72 73  1  0  0  0
 72 78  1  0  0  0
 73 74  2  0  0  0
 73 81  1  0  0  0
 74 79  1  0  0  0
 74 83  1  0  0  0
 75 83  2  0  0  0
 76 77  1  0  0  0
 76 78  1  0  0  0
 76145  1  0  0  0
 76146  1  0  0  0
 77 78  1  0  0  0
 77147  1  0  0  0
 77148  1  0  0  0
 78149  1  0  0  0
 79150  1  0  0  0
 79151  1  0  0  0
 79152  1  0  0  0
 80153  1  0  0  0
 80154  1  0  0  0
 80155  1  0  0  0
 80 82  1  0  0  0
 81 82  1  0  0  0
 81156  1  0  0  0
 81157  1  0  0  0
 82 84  1  0  0  0
 82158  1  0  0  0
 84159  1  0  0  0
M  ISO  4   1 100  68 101  75 101  84 100
M  END
> <chiral flag>
0

> <version>
0

> <s_m_source_file>
/data/baiqing/PycharmProjects/Reinvent-master-3.2/result/LINK_invent/BTK/process_docking_weight1_custom_sum_contain_oxygen_bond_distance_aromatic_linkinvent_7_9_3/rearranged_h_0128.sdf

> <i_m_source_file_index>
21

> <r_mmod_Potential_Energy-OPLS-2005>
909.975219726562

> <r_mmod_Stretch_Energy-OPLS-2005>
479.643005371094

> <r_mmod_Bend_Energy-OPLS-2005>
429.450469970703

> <r_mmod_Torsional_Energy-OPLS-2005>
238.629608154297

> <r_mmod_Improper_Torsional_Energy-OPLS-2005>
6.41695070266724

> <r_mmod_Van_der_Waal_Energy-OPLS-2005>
123.547149658203

> <r_mmod_Electrostatic_Energy-OPLS-2005>
-541.224060058594

> <r_mmod_Solvation_Energy-OPLS-2005>
-224.603912353516

> <b_mmod_Minimization_Converged-OPLS-2005>
0

> <r_mmod_RMS_Derivative-OPLS-2005>
1.47079765796661

$$$$
21
                    3D
 Structure written by MMmdl.
182191  0  0  1  0            999 V2000
  -30.7857  -14.3232   20.6976 C   0  0  0  0  0  0
  -30.4140  -12.2749   19.3803 C   0  0  0  0  0  0
  -29.4810  -12.5415   18.1844 C   0  0  0  0  0  0
  -28.0042  -12.3995   18.6006 C   0  0  0  0  0  0
  -27.6670  -13.2040   19.8832 C   0  0  2  0  0  0
  -28.7079  -12.9206   20.9912 C   0  0  0  0  0  0
  -25.2602  -13.8145   20.5792 C   0  0  0  0  0  0
  -24.1827  -13.0419   20.9186 C   0  0  0  0  0  0
  -24.6381  -11.6890   20.8708 C   0  0  0  0  0  0
  -23.9064  -10.4276   21.0383 C   0  0  0  0  0  0
  -24.3607   -9.4195   21.9179 C   0  0  0  0  0  0
  -23.6272   -8.2248   22.0748 C   0  0  0  0  0  0
  -22.4253   -8.0283   21.3544 C   0  0  0  0  0  0
  -21.9900   -9.0265   20.4634 C   0  0  0  0  0  0
  -22.7251  -10.2126   20.3024 C   0  0  0  0  0  0
  -21.6842   -6.0746   22.5305 C   0  0  0  0  0  0
  -21.4016   -6.5649   23.8239 C   0  0  0  0  0  0
  -21.3654   -5.6795   24.9196 C   0  0  0  0  0  0
  -21.6040   -4.3056   24.7245 C   0  0  0  0  0  0
  -21.8811   -3.8157   23.4365 C   0  0  0  0  0  0
  -21.9181   -4.6979   22.3423 C   0  0  0  0  0  0
  -22.7848  -13.5229   21.1872 C   0  0  0  0  0  0
  -22.1644   -4.2153   21.1008 F   0  0  0  0  0  0
  -21.5620   -3.4533   25.7760 F   0  0  0  0  0  0
  -30.0574  -13.2034   20.4613 N   0  0  0  0  0  0
  -26.3038  -12.9325   20.3412 N   0  0  0  0  0  0
  -25.9304  -11.6475   20.5729 N   0  0  0  0  0  0
  -22.0470  -12.8187   22.0384 N   0  0  0  0  0  0
  -25.4390  -15.1886   20.4476 N   0  0  0  0  0  0
  -31.7799  -14.6457   20.0434 O   0  0  0  0  0  0
  -21.6611   -6.8896   21.4265 O   0  0  0  0  0  0
  -22.3568  -14.5576   20.6777 O   0  0  0  0  0  0
  -24.6158  -31.8744   23.2160 C   0  0  0  0  0  0
  -25.9068  -32.4841   23.8449 C   0  0  1  0  0  0
  -27.2206  -27.4644   20.0530 C   0  0  0  0  0  0
  -25.5937  -33.8631   24.2421 N   0  0  0  0  0  0
  -23.3961  -30.5055   21.5575 C   0  0  2  0  0  0
  -24.8318  -28.9787   20.1220 C   0  0  0  0  0  0
  -22.7383  -29.4756   22.5036 C   0  0  0  0  0  0
  -18.0247  -28.1393   22.8540 C   0  0  0  0  0  0
  -24.1482  -36.7291   23.2644 C   0  0  0  0  0  0
  -25.9254  -30.8494   21.3601 C   0  0  0  0  0  0
  -25.9996  -29.4881   20.7012 C   0  0  0  0  0  0
  -27.1981  -28.7382   20.6643 C   0  0  0  0  0  0
  -26.0147  -26.9645   19.4985 C   0  0  0  0  0  0
  -24.8301  -27.7133   19.5242 C   0  0  0  0  0  0
  -23.5975  -29.8445   20.1712 C   0  0  0  0  0  0
  -25.4114  -36.3123   24.0365 C   0  0  1  0  0  0
  -20.5856  -28.3674   23.1342 C   0  0  2  0  0  0
  -20.6751  -26.9401   22.5447 C   0  0  0  0  0  0
  -19.5721  -26.6401   21.5245 C   0  0  0  0  0  0
  -18.1895  -26.7957   22.1637 C   0  0  0  0  0  0
  -19.1514  -28.8844   23.2956 C   0  0  0  0  0  0
  -18.9433  -30.1434   23.8991 C   0  0  0  0  0  0
  -17.6428  -30.6603   24.0576 C   0  0  0  0  0  0
  -25.9036  -34.9474   23.5187 C   0  0  0  0  0  0
  -16.5315  -29.9116   23.6304 C   0  0  0  0  0  0
  -16.7230  -28.6507   23.0398 C   0  0  0  0  0  0
  -26.4503  -31.6570   25.0733 C   0  0  0  0  0  0
  -25.3792  -31.3627   26.1469 C   0  0  0  0  0  0
  -27.0315  -30.3028   24.6051 C   0  0  0  0  0  0
  -27.6071  -32.4257   25.7530 C   0  0  0  0  0  0
  -27.5593  -37.1818   24.8467 C   0  0  0  0  0  0
  -21.4120  -29.3067   22.3760 N   0  0  0  0  0  0
  -26.4308  -37.3801   23.9403 N   0  0  0  0  0  0
  -24.6648  -31.0887   22.1036 N   0  0  0  0  0  0
  -23.4154  -28.8263   23.3053 O   0  0  0  0  0  0
  -28.4099  -26.7566   20.0124 O   0  0  0  0  0  0
  -26.5556  -34.8905   22.4723 O   0  0  0  0  0  0
  -23.5361  -32.1497   23.7569 O   0  0  0  0  0  0
  -30.4859  -17.0811   15.7670 C   0  0  0  0  0  0
  -29.4764  -16.9690   16.7410 C   0  0  0  0  0  0
  -30.4702  -19.5050   16.0323 C   0  0  0  0  0  0
  -30.9906  -18.3489   15.4161 C   0  0  0  0  0  0
  -28.9568  -18.1211   17.3740 C   0  0  0  0  0  0
  -29.4524  -19.3999   17.0068 C   0  0  0  0  0  0
  -29.4434  -21.6582   18.0580 C   0  0  0  0  0  0
  -27.7866  -23.6195   18.0041 C   0  0  0  0  0  0
  -29.1455  -23.0661   20.2194 C   0  0  0  0  0  0
  -28.2720  -25.0610   18.2009 C   0  0  0  0  0  0
  -29.4851  -24.5689   20.2814 C   0  0  0  0  0  0
  -28.5118  -22.5600   18.8826 C   0  0  2  0  0  0
  -28.3169  -25.3636   19.7088 C   0  0  1  0  0  0
  -32.0764  -18.4762   14.3663 C   0  0  0  0  0  0
  -31.1218  -16.3968   23.6211 C   0  0  0  0  0  0
  -27.8702  -17.9586   18.4385 C   0  0  0  0  0  0
  -28.3429  -18.2720   19.8775 C   0  0  0  0  0  0
  -29.8696  -17.5267   21.7069 C   0  0  0  0  0  0
  -30.8463  -16.3995   22.1097 C   0  0  2  0  0  0
  -28.8556  -20.5490   17.5800 N   0  0  0  0  0  0
  -30.3223  -15.0927   21.6910 N   0  0  0  0  0  0
  -29.4845  -17.4267   20.2832 N   0  3  0  0  0  0
  -30.6283  -21.9523   17.8890 O   0  0  0  0  0  0
  -31.4580  -12.3671   19.0751 H   0  0  0  0  0  0
  -30.3038  -11.2457   19.7261 H   0  0  0  0  0  0
  -29.7048  -11.8507   17.3713 H   0  0  0  0  0  0
  -29.6613  -13.5453   17.7948 H   0  0  0  0  0  0
  -27.7987  -11.3398   18.7612 H   0  0  0  0  0  0
  -27.3532  -12.7115   17.7826 H   0  0  0  0  0  0
  -27.7283  -14.2626   19.6282 H   0  0  0  0  0  0
  -28.6574  -11.8702   21.2831 H   0  0  0  0  0  0
  -28.4608  -13.4784   21.8943 H   0  0  0  0  0  0
  -25.2751   -9.5669   22.4753 H   0  0  0  0  0  0
  -23.9983   -7.4627   22.7438 H   0  0  0  0  0  0
  -21.0851   -8.8795   19.8915 H   0  0  0  0  0  0
  -22.3750  -10.9667   19.6107 H   0  0  0  0  0  0
  -21.2011   -7.6149   23.9769 H   0  0  0  0  0  0
  -21.1466   -6.0509   25.9104 H   0  0  0  0  0  0
  -22.0583   -2.7615   23.2880 H   0  0  0  0  0  0
  -22.4018  -11.9789   22.4727 H   0  0  0  0  0  0
  -21.1084  -13.1214   22.2577 H   0  0  0  0  0  0
  -24.7006  -15.8475   20.6656 H   0  0  0  0  0  0
  -26.3301  -15.6292   20.2866 H   0  0  0  0  0  0
  -26.7145  -32.5567   23.1222 H   0  0  0  0  0  0
  -25.0138  -33.9765   25.0609 H   0  0  0  0  0  0
  -22.6869  -31.3231   21.4202 H   0  0  0  0  0  0
  -23.3762  -35.9595   23.3269 H   0  0  0  0  0  0
  -24.3621  -36.8923   22.2064 H   0  0  0  0  0  0
  -23.7140  -37.6465   23.6647 H   0  0  0  0  0  0
  -26.0354  -31.6236   20.5987 H   0  0  0  0  0  0
  -26.8152  -30.9015   21.9739 H   0  0  0  0  0  0
  -28.1057  -29.1330   21.0994 H   0  0  0  0  0  0
  -25.9415  -25.9979   19.0287 H   0  0  0  0  0  0
  -23.9270  -27.3113   19.0828 H   0  0  0  0  0  0
  -23.7108  -30.6169   19.4096 H   0  0  0  0  0  0
  -22.7206  -29.2670   19.8715 H   0  0  0  0  0  0
  -25.1306  -36.2032   25.0867 H   0  0  0  0  0  0
  -20.9953  -28.3214   24.1461 H   0  0  0  0  0  0
  -20.5639  -26.2275   23.3640 H   0  0  0  0  0  0
  -21.6622  -26.7462   22.1219 H   0  0  0  0  0  0
  -19.6855  -25.6322   21.1255 H   0  0  0  0  0  0
  -19.6665  -27.3234   20.6797 H   0  0  0  0  0  0
  -17.4178  -26.6745   21.4021 H   0  0  0  0  0  0
  -18.0245  -26.0102   22.9027 H   0  0  0  0  0  0
  -19.7895  -30.7243   24.2440 H   0  0  0  0  0  0
  -17.4961  -31.6299   24.5140 H   0  0  0  0  0  0
  -15.5318  -30.3046   23.7584 H   0  0  0  0  0  0
  -15.8616  -28.0798   22.7164 H   0  0  0  0  0  0
  -24.6008  -30.6934   25.7806 H   0  0  0  0  0  0
  -24.8958  -32.2760   26.4944 H   0  0  0  0  0  0
  -25.8211  -30.8805   27.0195 H   0  0  0  0  0  0
  -26.2848  -29.6780   24.1136 H   0  0  0  0  0  0
  -27.4129  -29.7271   25.4492 H   0  0  0  0  0  0
  -27.8668  -30.4377   23.9170 H   0  0  0  0  0  0
  -27.2700  -33.3560   26.2121 H   0  0  0  0  0  0
  -28.3912  -32.6786   25.0378 H   0  0  0  0  0  0
  -28.0666  -31.8330   26.5454 H   0  0  0  0  0  0
  -28.2592  -38.0138   24.7549 H   0  0  0  0  0  0
  -28.1120  -36.2664   24.6303 H   0  0  0  0  0  0
  -27.2305  -37.1425   25.8868 H   0  0  0  0  0  0
  -20.9219  -29.8809   21.7048 H   0  0  0  0  0  0
  -26.0214  -38.2881   24.1442 H   0  0  0  0  0  0
  -30.8615  -16.1888   15.2859 H   0  0  0  0  0  0
  -29.1018  -15.9858   16.9898 H   0  0  0  0  0  0
  -30.8421  -20.4762   15.7355 H   0  0  0  0  0  0
  -27.8538  -23.3583   16.9457 H   0  0  0  0  0  0
  -26.7213  -23.5878   18.2356 H   0  0  0  0  0  0
  -28.4407  -22.8594   21.0261 H   0  0  0  0  0  0
  -30.0351  -22.4859   20.4739 H   0  0  0  0  0  0
  -27.6176  -25.7446   17.6568 H   0  0  0  0  0  0
  -29.2579  -25.1953   17.7541 H   0  0  0  0  0  0
  -30.3981  -24.7881   19.7279 H   0  0  0  0  0  0
  -29.6716  -24.8624   21.3138 H   0  0  0  0  0  0
  -27.7167  -21.8872   19.2130 H   0  0  0  0  0  0
  -27.4292  -24.9711   20.2088 H   0  0  0  0  0  0
  -32.3741  -17.5038   13.9742 H   0  0  0  0  0  0
  -32.9595  -18.9549   14.7884 H   0  0  0  0  0  0
  -31.7280  -19.0849   13.5328 H   0  0  0  0  0  0
  -31.5304  -17.3547   23.9486 H   0  0  0  0  0  0
  -31.8469  -15.6296   23.8909 H   0  0  0  0  0  0
  -30.2131  -16.2106   24.1917 H   0  0  0  0  0  0
  -27.4765  -16.9418   18.3996 H   0  0  0  0  0  0
  -27.0229  -18.5962   18.1828 H   0  0  0  0  0  0
  -27.5104  -18.1166   20.5647 H   0  0  0  0  0  0
  -28.6275  -19.3188   19.9771 H   0  0  0  0  0  0
  -30.3125  -18.5038   21.9076 H   0  0  0  0  0  0
  -28.9726  -17.4617   22.3269 H   0  0  0  0  0  0
  -31.8022  -16.5930   21.6176 H   0  0  0  0  0  0
  -27.8704  -20.4699   17.7860 H   0  0  0  0  0  0
  -29.5432  -14.7136   22.2106 H   0  0  0  0  0  0
  -30.2864  -17.6525   19.7151 H   0  0  0  0  0  0
  -29.2474  -16.4667   20.1109 H   0  0  0  0  0  0
  1 25  1  0  0  0
  1 30  2  0  0  0
  1 91  1  0  0  0
  2  3  1  0  0  0
  2 25  1  0  0  0
  2 94  1  0  0  0
  2 95  1  0  0  0
  3  4  1  0  0  0
  3 96  1  0  0  0
  3 97  1  0  0  0
  4  5  1  0  0  0
  4 98  1  0  0  0
  4 99  1  0  0  0
  5  6  1  0  0  0
  5 26  1  0  0  0
  5100  1  0  0  0
  6 25  1  0  0  0
  6101  1  0  0  0
  6102  1  0  0  0
  7  8  2  0  0  0
  7 26  1  0  0  0
  7 29  1  0  0  0
  8  9  1  0  0  0
  8 22  1  0  0  0
  9 10  1  0  0  0
  9 27  2  0  0  0
 10 11  2  0  0  0
 10 15  1  0  0  0
 11 12  1  0  0  0
 11103  1  0  0  0
 12 13  2  0  0  0
 12104  1  0  0  0
 13 14  1  0  0  0
 13 31  1  0  0  0
 14 15  2  0  0  0
 14105  1  0  0  0
 15106  1  0  0  0
 16 17  2  0  0  0
 16 21  1  0  0  0
 16 31  1  0  0  0
 17 18  1  0  0  0
 17107  1  0  0  0
 18 19  2  0  0  0
 18108  1  0  0  0
 19 20  1  0  0  0
 19 24  1  0  0  0
 20 21  2  0  0  0
 20109  1  0  0  0
 21 23  1  0  0  0
 22 28  1  0  0  0
 22 32  2  0  0  0
 26 27  1  0  0  0
 28110  1  0  0  0
 28111  1  0  0  0
 29112  1  0  0  0
 29113  1  0  0  0
 33 34  1  0  0  0
 33 66  1  0  0  0
 33 70  2  0  0  0
 34 36  1  0  0  0
 34 59  1  0  0  0
 34114  1  0  0  0
 35 44  2  0  0  0
 35 45  1  0  0  0
 35 68  1  0  0  0
 36 56  1  0  0  0
 36115  1  0  0  0
 37 39  1  0  0  0
 37 47  1  0  0  0
 37 66  1  0  0  0
 37116  1  0  0  0
 38 43  2  0  0  0
 38 46  1  0  0  0
 38 47  1  0  0  0
 39 64  1  0  0  0
 39 67  2  0  0  0
 40 52  1  0  0  0
 40 53  2  0  0  0
 40 58  1  0  0  0
 41117  1  0  0  0
 41118  1  0  0  0
 41119  1  0  0  0
 41 48  1  0  0  0
 42 43  1  0  0  0
 42 66  1  0  0  0
 42120  1  0  0  0
 42121  1  0  0  0
 43 44  1  0  0  0
 44122  1  0  0  0
 45 46  2  0  0  0
 45123  1  0  0  0
 46124  1  0  0  0
 47125  1  0  0  0
 47126  1  0  0  0
 48 56  1  0  0  0
 48 65  1  0  0  0
 48127  1  0  0  0
 49 50  1  0  0  0
 49 53  1  0  0  0
 49 64  1  0  0  0
 49128  1  0  0  0
 50 51  1  0  0  0
 50129  1  0  0  0
 50130  1  0  0  0
 51 52  1  0  0  0
 51131  1  0  0  0
 51132  1  0  0  0
 52133  1  0  0  0
 52134  1  0  0  0
 53 54  1  0  0  0
 54 55  2  0  0  0
 54135  1  0  0  0
 55 57  1  0  0  0
 55136  1  0  0  0
 56 69  2  0  0  0
 57 58  2  0  0  0
 57137  1  0  0  0
 58138  1  0  0  0
 59 60  1  0  0  0
 59 61  1  0  0  0
 59 62  1  0  0  0
 60139  1  0  0  0
 60140  1  0  0  0
 60141  1  0  0  0
 61142  1  0  0  0
 61143  1  0  0  0
 61144  1  0  0  0
 62145  1  0  0  0
 62146  1  0  0  0
 62147  1  0  0  0
 63 65  1  0  0  0
 63148  1  0  0  0
 63149  1  0  0  0
 63150  1  0  0  0
 64151  1  0  0  0
 65152  1  0  0  0
 68 83  1  0  0  0
 71 72  2  0  0  0
 71 74  1  0  0  0
 71153  1  0  0  0
 72 75  1  0  0  0
 72154  1  0  0  0
 73 74  2  0  0  0
 73 76  1  0  0  0
 73155  1  0  0  0
 74 84  1  0  0  0
 75 76  2  0  0  0
 75 86  1  0  0  0
 76 90  1  0  0  0
 77 90  1  0  0  0
 77 93  2  0  0  0
 77 82  1  0  0  0
 78 80  1  0  0  0
 78 82  1  0  0  0
 78156  1  0  0  0
 78157  1  0  0  0
 79 81  1  0  0  0
 79 82  1  0  0  0
 79158  1  0  0  0
 79159  1  0  0  0
 80 83  1  0  0  0
 80160  1  0  0  0
 80161  1  0  0  0
 81 83  1  0  0  0
 81162  1  0  0  0
 81163  1  0  0  0
 82164  1  0  0  0
 83165  1  0  0  0
 84166  1  0  0  0
 84167  1  0  0  0
 84168  1  0  0  0
 85169  1  0  0  0
 85170  1  0  0  0
 85171  1  0  0  0
 85 89  1  0  0  0
 86 87  1  0  0  0
 86172  1  0  0  0
 86173  1  0  0  0
 87 92  1  0  0  0
 87174  1  0  0  0
 87175  1  0  0  0
 88 89  1  0  0  0
 88 92  1  0  0  0
 88176  1  0  0  0
 88177  1  0  0  0
 89 91  1  0  0  0
 89178  1  0  0  0
 90179  1  0  0  0
 91180  1  0  0  0
 92181  1  0  0  0
 92182  1  0  0  0
M  CHG  1  92   1
M  ISO  4   1 100  68 101  83 101  91 100
M  END
> <chiral flag>
0

> <version>
0

> <s_m_source_file>
/data/baiqing/PycharmProjects/Reinvent-master-3.2/result/LINK_invent/BTK/process_docking_weight1_custom_sum_contain_oxygen_bond_distance_aromatic_linkinvent_7_9_3/rearranged_h_0128.sdf

> <i_m_source_file_index>
22

> <r_mmod_Potential_Energy-OPLS-2005>
-235.19660949707

> <r_mmod_Stretch_Energy-OPLS-2005>
37.2747383117676

> <r_mmod_Bend_Energy-OPLS-2005>
114.01131439209

> <r_mmod_Torsional_Energy-OPLS-2005>
288.202941894531

> <r_mmod_Improper_Torsional_Energy-OPLS-2005>
2.37944340705872

> <r_mmod_Van_der_Waal_Energy-OPLS-2005>
161.942169189453

> <r_mmod_Electrostatic_Energy-OPLS-2005>
-355.345336914062

> <r_mmod_Solvation_Energy-OPLS-2005>
-492.248687744141

> <b_mmod_Minimization_Converged-OPLS-2005>
0

> <r_mmod_RMS_Derivative-OPLS-2005>
3.50771498680115

$$$$
22
                    3D
 Structure written by MMmdl.
164173  0  0  1  0            999 V2000
  -30.6651  -14.5695   20.6213 C   0  0  0  0  0  0
  -30.4347  -12.3804   19.4547 C   0  0  0  0  0  0
  -29.5170  -12.5209   18.2234 C   0  0  0  0  0  0
  -28.0356  -12.3570   18.6144 C   0  0  0  0  0  0
  -27.6541  -13.2101   19.8538 C   0  0  2  0  0  0
  -28.6808  -13.0304   20.9878 C   0  0  0  0  0  0
  -25.2579  -13.8142   20.5609 C   0  0  0  0  0  0
  -24.1839  -13.0416   20.9138 C   0  0  0  0  0  0
  -24.6404  -11.6893   20.8679 C   0  0  0  0  0  0
  -23.9075  -10.4285   21.0378 C   0  0  0  0  0  0
  -24.3618   -9.4215   21.9171 C   0  0  0  0  0  0
  -23.6265   -8.2270   22.0752 C   0  0  0  0  0  0
  -22.4246   -8.0306   21.3546 C   0  0  0  0  0  0
  -21.9893   -9.0279   20.4653 C   0  0  0  0  0  0
  -22.7233  -10.2142   20.3052 C   0  0  0  0  0  0
  -21.6842   -6.0757   22.5286 C   0  0  0  0  0  0
  -21.4012   -6.5667   23.8218 C   0  0  0  0  0  0
  -21.3645   -5.6818   24.9178 C   0  0  0  0  0  0
  -21.6023   -4.3077   24.7230 C   0  0  0  0  0  0
  -21.8804   -3.8163   23.4355 C   0  0  0  0  0  0
  -21.9180   -4.6982   22.3409 C   0  0  0  0  0  0
  -22.7881  -13.5258   21.1830 C   0  0  0  0  0  0
  -22.1649   -4.2160   21.0989 F   0  0  0  0  0  0
  -21.5585   -3.4571   25.7743 F   0  0  0  0  0  0
  -30.0147  -13.3739   20.4632 N   0  0  0  0  0  0
  -26.2985  -12.9317   20.3176 N   0  0  0  0  0  0
  -25.9324  -11.6485   20.5645 N   0  0  0  0  0  0
  -22.0497  -12.8271   22.0383 N   0  0  0  0  0  0
  -25.4328  -15.1847   20.4069 N   0  0  0  0  0  0
  -31.7432  -14.7956   20.0585 O   0  0  0  0  0  0
  -21.6608   -6.8898   21.4249 O   0  0  0  0  0  0
  -22.3609  -14.5592   20.6708 O   0  0  0  0  0  0
  -24.6266  -31.8620   23.2047 C   0  0  0  0  0  0
  -25.9130  -32.4788   23.8380 C   0  0  1  0  0  0
  -27.2258  -27.3351   20.0987 C   0  0  0  0  0  0
  -25.5943  -33.8588   24.2312 N   0  0  0  0  0  0
  -23.4210  -30.4926   21.5431 C   0  0  2  0  0  0
  -24.8626  -28.9473   20.1154 C   0  0  0  0  0  0
  -22.7453  -29.4691   22.4894 C   0  0  0  0  0  0
  -18.0268  -28.1399   22.8431 C   0  0  0  0  0  0
  -24.1476  -36.7307   23.2644 C   0  0  0  0  0  0
  -25.9620  -30.7994   21.3701 C   0  0  0  0  0  0
  -26.0331  -29.4279   20.7131 C   0  0  0  0  0  0
  -27.2171  -28.6341   20.6931 C   0  0  0  0  0  0
  -26.0189  -26.8909   19.5074 C   0  0  0  0  0  0
  -24.8554  -27.6813   19.5121 C   0  0  0  0  0  0
  -23.6383  -29.8332   20.1575 C   0  0  0  0  0  0
  -25.4094  -36.3110   24.0345 C   0  0  1  0  0  0
  -20.5870  -28.3750   23.1232 C   0  0  2  0  0  0
  -20.6815  -26.9508   22.5319 C   0  0  0  0  0  0
  -19.5774  -26.6455   21.5127 C   0  0  0  0  0  0
  -18.1927  -26.7978   22.1475 C   0  0  0  0  0  0
  -19.1508  -28.8864   23.2866 C   0  0  0  0  0  0
  -18.9421  -30.1435   23.8927 C   0  0  0  0  0  0
  -17.6416  -30.6571   24.0563 C   0  0  0  0  0  0
  -25.9032  -34.9468   23.5131 C   0  0  0  0  0  0
  -16.5306  -29.9082   23.6296 C   0  0  0  0  0  0
  -16.7260  -28.6517   23.0313 C   0  0  0  0  0  0
  -26.4525  -31.6572   25.0725 C   0  0  0  0  0  0
  -25.3791  -31.3728   26.1476 C   0  0  0  0  0  0
  -27.0347  -30.2983   24.6175 C   0  0  0  0  0  0
  -27.6069  -32.4322   25.7513 C   0  0  0  0  0  0
  -27.5577  -37.1818   24.8474 C   0  0  0  0  0  0
  -21.4166  -29.3138   22.3658 N   0  0  0  0  0  0
  -26.4278  -37.3798   23.9425 N   0  0  0  0  0  0
  -24.6900  -31.0662   22.0988 N   0  0  0  0  0  0
  -23.4155  -28.8193   23.2962 O   0  0  0  0  0  0
  -28.3852  -26.5477   20.1258 O   0  0  0  0  0  0
  -26.5577  -34.8935   22.4684 O   0  0  0  0  0  0
  -23.5411  -32.1402   23.7368 O   0  0  0  0  0  0
  -28.9338  -21.3526   20.2285 C   0  0  0  0  0  0
  -26.8627  -22.3807   19.5198 C   0  0  0  0  0  0
  -28.1350  -22.5417   20.0927 C   0  0  0  0  0  0
  -28.4507  -20.0848   19.7437 C   0  0  0  0  0  0
  -27.1479  -20.1016   19.1725 C   0  0  0  0  0  0
  -29.1943  -16.4483   23.4411 C   0  0  0  0  0  0
  -28.2774  -16.7838   22.2643 C   0  0  0  0  0  0
  -30.1726  -15.4158   22.8738 C   0  0  0  0  0  0
  -29.1850  -16.6652   21.0271 C   0  0  1  0  0  0
  -26.5148  -18.8494   18.5902 C   0  0  0  0  0  0
  -28.5256  -23.9663   20.6077 C   0  0  0  0  0  0
  -29.8533  -18.0793   20.7339 C   0  0  0  0  0  0
  -28.4404  -25.1758   19.5840 C   0  0  0  0  0  0
  -26.3794  -21.2048   19.0783 N   0  0  0  0  0  0
  -30.0735  -15.5175   21.4142 N   0  0  0  0  0  0
  -29.1848  -18.8560   19.6601 N   0  0  0  0  0  0
  -31.4761  -12.5057   19.1552 H   0  0  0  0  0  0
  -30.3699  -11.3758   19.8725 H   0  0  0  0  0  0
  -29.7969  -11.7830   17.4709 H   0  0  0  0  0  0
  -29.6738  -13.4987   17.7632 H   0  0  0  0  0  0
  -27.8598  -11.3000   18.8246 H   0  0  0  0  0  0
  -27.3943  -12.6083   17.7685 H   0  0  0  0  0  0
  -27.6834  -14.2505   19.5299 H   0  0  0  0  0  0
  -28.6835  -12.0017   21.3535 H   0  0  0  0  0  0
  -28.3746  -13.6389   21.8348 H   0  0  0  0  0  0
  -25.2768   -9.5667   22.4749 H   0  0  0  0  0  0
  -23.9933   -7.4682   22.7517 H   0  0  0  0  0  0
  -21.0797   -8.8836   19.8999 H   0  0  0  0  0  0
  -22.3698  -10.9688   19.6161 H   0  0  0  0  0  0
  -21.2027   -7.6177   23.9730 H   0  0  0  0  0  0
  -21.1461   -6.0553   25.9078 H   0  0  0  0  0  0
  -22.0585   -2.7632   23.2872 H   0  0  0  0  0  0
  -22.4042  -11.9910   22.4787 H   0  0  0  0  0  0
  -21.1163  -13.1398   22.2601 H   0  0  0  0  0  0
  -24.6874  -15.8528   20.5631 H   0  0  0  0  0  0
  -26.3056  -15.6204   20.1424 H   0  0  0  0  0  0
  -26.7198  -32.5475   23.1130 H   0  0  0  0  0  0
  -25.0155  -33.9740   25.0503 H   0  0  0  0  0  0
  -22.7190  -31.3155   21.3968 H   0  0  0  0  0  0
  -23.3739  -35.9642   23.3305 H   0  0  0  0  0  0
  -24.3573  -36.8910   22.2061 H   0  0  0  0  0  0
  -23.7213  -37.6521   23.6630 H   0  0  0  0  0  0
  -26.0839  -31.5622   20.6004 H   0  0  0  0  0  0
  -26.8468  -30.8534   21.9935 H   0  0  0  0  0  0
  -28.1229  -29.0073   21.1496 H   0  0  0  0  0  0
  -25.9185  -25.9259   19.0455 H   0  0  0  0  0  0
  -23.9522  -27.2987   19.0576 H   0  0  0  0  0  0
  -23.7793  -30.6151   19.4088 H   0  0  0  0  0  0
  -22.7567  -29.2737   19.8418 H   0  0  0  0  0  0
  -25.1256  -36.1994   25.0829 H   0  0  0  0  0  0
  -20.9977  -28.3330   24.1356 H   0  0  0  0  0  0
  -20.5822  -26.2338   23.3498 H   0  0  0  0  0  0
  -21.6693  -26.7629   22.1073 H   0  0  0  0  0  0
  -19.6975  -25.6365   21.1141 H   0  0  0  0  0  0
  -19.6684  -27.3261   20.6640 H   0  0  0  0  0  0
  -17.4218  -26.6811   21.3839 H   0  0  0  0  0  0
  -18.0270  -26.0090   22.8829 H   0  0  0  0  0  0
  -19.7900  -30.7197   24.2346 H   0  0  0  0  0  0
  -17.4937  -31.6229   24.5210 H   0  0  0  0  0  0
  -15.5297  -30.2975   23.7572 H   0  0  0  0  0  0
  -15.8638  -28.0858   22.7041 H   0  0  0  0  0  0
  -24.5949  -30.7070   25.7868 H   0  0  0  0  0  0
  -24.9001  -32.2902   26.4907 H   0  0  0  0  0  0
  -25.8147  -30.8944   27.0250 H   0  0  0  0  0  0
  -26.2909  -29.6739   24.1197 H   0  0  0  0  0  0
  -27.4044  -29.7231   25.4674 H   0  0  0  0  0  0
  -27.8784  -30.4251   23.9381 H   0  0  0  0  0  0
  -27.2651  -33.3606   26.2095 H   0  0  0  0  0  0
  -28.3889  -32.6896   25.0369 H   0  0  0  0  0  0
  -28.0720  -31.8449   26.5446 H   0  0  0  0  0  0
  -28.2604  -38.0105   24.7495 H   0  0  0  0  0  0
  -28.1048  -36.2632   24.6295 H   0  0  0  0  0  0
  -27.2294  -37.1480   25.8878 H   0  0  0  0  0  0
  -20.9328  -29.8888   21.6876 H   0  0  0  0  0  0
  -26.0167  -38.2877   24.1430 H   0  0  0  0  0  0
  -29.9187  -21.4169   20.6688 H   0  0  0  0  0  0
  -26.1904  -23.2225   19.4101 H   0  0  0  0  0  0
  -28.6530  -16.0819   24.3155 H   0  0  0  0  0  0
  -29.7506  -17.3343   23.7529 H   0  0  0  0  0  0
  -27.4781  -16.0418   22.2204 H   0  0  0  0  0  0
  -27.8009  -17.7605   22.3645 H   0  0  0  0  0  0
  -31.1955  -15.5973   23.2148 H   0  0  0  0  0  0
  -29.9067  -14.4134   23.2154 H   0  0  0  0  0  0
  -28.5984  -16.3605   20.1580 H   0  0  0  0  0  0
  -26.4453  -18.0666   19.3451 H   0  0  0  0  0  0
  -27.1069  -18.4754   17.7544 H   0  0  0  0  0  0
  -25.5083  -19.0454   18.2154 H   0  0  0  0  0  0
  -27.8605  -24.1874   21.4444 H   0  0  0  0  0  0
  -29.5277  -23.9192   21.0352 H   0  0  0  0  0  0
  -30.8858  -17.9239   20.4138 H   0  0  0  0  0  0
  -29.9197  -18.6746   21.6464 H   0  0  0  0  0  0
  -27.6690  -24.9851   18.8465 H   0  0  0  0  0  0
  -29.3494  -25.1374   18.9812 H   0  0  0  0  0  0
  -28.8512  -18.2464   18.9199 H   0  0  0  0  0  0
  1 25  1  0  0  0
  1 30  2  0  0  0
  1 85  1  0  0  0
  2  3  1  0  0  0
  2 25  1  0  0  0
  2 87  1  0  0  0
  2 88  1  0  0  0
  3  4  1  0  0  0
  3 89  1  0  0  0
  3 90  1  0  0  0
  4  5  1  0  0  0
  4 91  1  0  0  0
  4 92  1  0  0  0
  5  6  1  0  0  0
  5 26  1  0  0  0
  5 93  1  0  0  0
  6 25  1  0  0  0
  6 94  1  0  0  0
  6 95  1  0  0  0
  7  8  2  0  0  0
  7 26  1  0  0  0
  7 29  1  0  0  0
  8  9  1  0  0  0
  8 22  1  0  0  0
  9 10  1  0  0  0
  9 27  2  0  0  0
 10 11  2  0  0  0
 10 15  1  0  0  0
 11 12  1  0  0  0
 11 96  1  0  0  0
 12 13  2  0  0  0
 12 97  1  0  0  0
 13 14  1  0  0  0
 13 31  1  0  0  0
 14 15  2  0  0  0
 14 98  1  0  0  0
 15 99  1  0  0  0
 16 17  2  0  0  0
 16 21  1  0  0  0
 16 31  1  0  0  0
 17 18  1  0  0  0
 17100  1  0  0  0
 18 19  2  0  0  0
 18101  1  0  0  0
 19 20  1  0  0  0
 19 24  1  0  0  0
 20 21  2  0  0  0
 20102  1  0  0  0
 21 23  1  0  0  0
 22 28  1  0  0  0
 22 32  2  0  0  0
 26 27  1  0  0  0
 28103  1  0  0  0
 28104  1  0  0  0
 29105  1  0  0  0
 29106  1  0  0  0
 33 34  1  0  0  0
 33 66  1  0  0  0
 33 70  2  0  0  0
 34 36  1  0  0  0
 34 59  1  0  0  0
 34107  1  0  0  0
 35 44  2  0  0  0
 35 45  1  0  0  0
 35 68  1  0  0  0
 36 56  1  0  0  0
 36108  1  0  0  0
 37 39  1  0  0  0
 37 47  1  0  0  0
 37 66  1  0  0  0
 37109  1  0  0  0
 38 43  2  0  0  0
 38 46  1  0  0  0
 38 47  1  0  0  0
 39 64  1  0  0  0
 39 67  2  0  0  0
 40 52  1  0  0  0
 40 53  2  0  0  0
 40 58  1  0  0  0
 41110  1  0  0  0
 41111  1  0  0  0
 41112  1  0  0  0
 41 48  1  0  0  0
 42 43  1  0  0  0
 42 66  1  0  0  0
 42113  1  0  0  0
 42114  1  0  0  0
 43 44  1  0  0  0
 44115  1  0  0  0
 45 46  2  0  0  0
 45116  1  0  0  0
 46117  1  0  0  0
 47118  1  0  0  0
 47119  1  0  0  0
 48 56  1  0  0  0
 48 65  1  0  0  0
 48120  1  0  0  0
 49 50  1  0  0  0
 49 53  1  0  0  0
 49 64  1  0  0  0
 49121  1  0  0  0
 50 51  1  0  0  0
 50122  1  0  0  0
 50123  1  0  0  0
 51 52  1  0  0  0
 51124  1  0  0  0
 51125  1  0  0  0
 52126  1  0  0  0
 52127  1  0  0  0
 53 54  1  0  0  0
 54 55  2  0  0  0
 54128  1  0  0  0
 55 57  1  0  0  0
 55129  1  0  0  0
 56 69  2  0  0  0
 57 58  2  0  0  0
 57130  1  0  0  0
 58131  1  0  0  0
 59 60  1  0  0  0
 59 61  1  0  0  0
 59 62  1  0  0  0
 60132  1  0  0  0
 60133  1  0  0  0
 60134  1  0  0  0
 61135  1  0  0  0
 61136  1  0  0  0
 61137  1  0  0  0
 62138  1  0  0  0
 62139  1  0  0  0
 62140  1  0  0  0
 63 65  1  0  0  0
 63141  1  0  0  0
 63142  1  0  0  0
 63143  1  0  0  0
 64144  1  0  0  0
 65145  1  0  0  0
 68 83  1  0  0  0
 71 73  2  0  0  0
 71 74  1  0  0  0
 71146  1  0  0  0
 72 73  1  0  0  0
 72 84  2  0  0  0
 72147  1  0  0  0
 73 81  1  0  0  0
 74 75  2  0  0  0
 74 86  1  0  0  0
 75 80  1  0  0  0
 75 84  1  0  0  0
 76 77  1  0  0  0
 76 78  1  0  0  0
 76148  1  0  0  0
 76149  1  0  0  0
 77 79  1  0  0  0
 77150  1  0  0  0
 77151  1  0  0  0
 78 85  1  0  0  0
 78152  1  0  0  0
 78153  1  0  0  0
 79 82  1  0  0  0
 79 85  1  0  0  0
 79154  1  0  0  0
 80155  1  0  0  0
 80156  1  0  0  0
 80157  1  0  0  0
 81 83  1  0  0  0
 81158  1  0  0  0
 81159  1  0  0  0
 82 86  1  0  0  0
 82160  1  0  0  0
 82161  1  0  0  0
 83162  1  0  0  0
 83163  1  0  0  0
 86164  1  0  0  0
M  ISO  4   1 100  68 101  83 101  85 100
M  END
> <chiral flag>
0

> <version>
0

> <s_m_source_file>
/data/baiqing/PycharmProjects/Reinvent-master-3.2/result/LINK_invent/BTK/process_docking_weight1_custom_sum_contain_oxygen_bond_distance_aromatic_linkinvent_7_9_3/rearranged_h_0128.sdf

> <i_m_source_file_index>
23

> <r_mmod_Potential_Energy-OPLS-2005>
174.647048950195

> <r_mmod_Stretch_Energy-OPLS-2005>
75.0681076049805

> <r_mmod_Bend_Energy-OPLS-2005>
183.324798583984

> <r_mmod_Torsional_Energy-OPLS-2005>
379.393951416016

> <r_mmod_Improper_Torsional_Energy-OPLS-2005>
4.63015508651733

> <r_mmod_Van_der_Waal_Energy-OPLS-2005>
132.495147705078

> <r_mmod_Electrostatic_Energy-OPLS-2005>
-414.625518798828

> <r_mmod_Solvation_Energy-OPLS-2005>
-218.423446655273

> <b_mmod_Minimization_Converged-OPLS-2005>
0

> <r_mmod_RMS_Derivative-OPLS-2005>
4.32195615768433

$$$$
23
                    3D
 Structure written by MMmdl.
169178  0  0  1  0            999 V2000
  -30.7552  -14.3454   20.7013 C   0  0  0  0  0  0
  -30.4165  -12.2875   19.3826 C   0  0  0  0  0  0
  -29.4800  -12.5336   18.1848 C   0  0  0  0  0  0
  -28.0023  -12.3898   18.5976 C   0  0  0  0  0  0
  -27.6645  -13.1980   19.8779 C   0  0  2  0  0  0
  -28.7002  -12.9118   20.9873 C   0  0  0  0  0  0
  -25.2577  -13.8137   20.5626 C   0  0  0  0  0  0
  -24.1837  -13.0444   20.9181 C   0  0  0  0  0  0
  -24.6362  -11.6897   20.8730 C   0  0  0  0  0  0
  -23.9028  -10.4288   21.0395 C   0  0  0  0  0  0
  -24.3599   -9.4207   21.9166 C   0  0  0  0  0  0
  -23.6282   -8.2241   22.0740 C   0  0  0  0  0  0
  -22.4259   -8.0273   21.3544 C   0  0  0  0  0  0
  -21.9881   -9.0242   20.4649 C   0  0  0  0  0  0
  -22.7194  -10.2125   20.3053 C   0  0  0  0  0  0
  -21.6859   -6.0725   22.5276 C   0  0  0  0  0  0
  -21.4010   -6.5632   23.8207 C   0  0  0  0  0  0
  -21.3654   -5.6787   24.9174 C   0  0  0  0  0  0
  -21.6054   -4.3052   24.7226 C   0  0  0  0  0  0
  -21.8817   -3.8136   23.4346 C   0  0  0  0  0  0
  -21.9187   -4.6951   22.3402 C   0  0  0  0  0  0
  -22.7864  -13.5250   21.1853 C   0  0  0  0  0  0
  -22.1661   -4.2141   21.0980 F   0  0  0  0  0  0
  -21.5630   -3.4537   25.7737 F   0  0  0  0  0  0
  -30.0460  -13.2136   20.4615 N   0  0  0  0  0  0
  -26.3012  -12.9306   20.3326 N   0  0  0  0  0  0
  -25.9277  -11.6477   20.5725 N   0  0  0  0  0  0
  -22.0501  -12.8260   22.0409 N   0  0  0  0  0  0
  -25.4301  -15.1850   20.3897 N   0  0  0  0  0  0
  -31.7523  -14.6795   20.0545 O   0  0  0  0  0  0
  -21.6637   -6.8866   21.4235 O   0  0  0  0  0  0
  -22.3564  -14.5554   20.6675 O   0  0  0  0  0  0
  -24.6065  -31.8738   23.2144 C   0  0  0  0  0  0
  -25.8989  -32.4860   23.8444 C   0  0  1  0  0  0
  -27.2486  -27.4967   20.1020 C   0  0  0  0  0  0
  -25.5864  -33.8667   24.2347 N   0  0  0  0  0  0
  -23.3962  -30.4933   21.5502 C   0  0  2  0  0  0
  -24.8497  -28.9639   20.1162 C   0  0  0  0  0  0
  -22.7377  -29.4680   22.4999 C   0  0  0  0  0  0
  -18.0284  -28.1373   22.8513 C   0  0  0  0  0  0
  -24.1480  -36.7345   23.2608 C   0  0  0  0  0  0
  -25.9211  -30.8468   21.3775 C   0  0  0  0  0  0
  -25.9980  -29.4873   20.7232 C   0  0  0  0  0  0
  -27.1989  -28.7577   20.7231 C   0  0  0  0  0  0
  -26.0957  -26.9731   19.4843 C   0  0  0  0  0  0
  -24.8883  -27.6990   19.4972 C   0  0  0  0  0  0
  -23.6073  -29.8222   20.1654 C   0  0  0  0  0  0
  -25.4090  -36.3157   24.0331 C   0  0  1  0  0  0
  -20.5862  -28.3639   23.1341 C   0  0  2  0  0  0
  -20.6781  -26.9380   22.5425 C   0  0  0  0  0  0
  -19.5754  -26.6387   21.5223 C   0  0  0  0  0  0
  -18.1927  -26.7933   22.1626 C   0  0  0  0  0  0
  -19.1531  -28.8833   23.2919 C   0  0  0  0  0  0
  -18.9453  -30.1455   23.8909 C   0  0  0  0  0  0
  -17.6452  -30.6580   24.0570 C   0  0  0  0  0  0
  -25.9018  -34.9512   23.5130 C   0  0  0  0  0  0
  -16.5344  -29.9086   23.6322 C   0  0  0  0  0  0
  -16.7275  -28.6500   23.0347 C   0  0  0  0  0  0
  -26.4364  -31.6652   25.0806 C   0  0  0  0  0  0
  -25.3568  -31.3941   26.1544 C   0  0  0  0  0  0
  -27.0081  -30.3001   24.6317 C   0  0  0  0  0  0
  -27.6024  -32.4304   25.7513 C   0  0  0  0  0  0
  -27.5589  -37.1807   24.8454 C   0  0  0  0  0  0
  -21.4117  -29.3013   22.3744 N   0  0  0  0  0  0
  -26.4296  -37.3824   23.9403 N   0  0  0  0  0  0
  -24.6563  -31.0872   22.1034 N   0  0  0  0  0  0
  -23.4172  -28.8239   23.3028 O   0  0  0  0  0  0
  -28.4136  -26.7865   20.0616 O   0  0  0  0  0  0
  -26.5576  -34.8951   22.4701 O   0  0  0  0  0  0
  -23.5270  -32.1474   23.7547 O   0  0  0  0  0  0
  -28.1140  -22.7779   22.3663 C   0  0  0  0  0  0
  -28.1560  -24.1879   22.3870 C   0  0  0  0  0  0
  -29.5954  -24.1622   20.4300 C   0  0  0  0  0  0
  -28.8238  -22.0408   21.3834 C   0  0  0  0  0  0
  -28.8971  -24.8794   21.4110 C   0  0  0  0  0  0
  -29.5506  -22.7580   20.3915 C   0  0  0  0  0  0
  -28.6688  -19.8099   22.7718 C   0  0  0  0  0  0
  -27.9718  -19.8176   20.3559 C   0  0  0  0  0  0
  -28.3979  -18.2872   22.6204 C   0  0  0  0  0  0
  -28.4498  -18.3573   20.1392 C   0  0  0  0  0  0
  -28.8587  -20.5079   21.4051 C   0  0  1  0  0  0
  -30.2901  -22.1001   19.2358 C   0  0  0  0  0  0
  -28.9089  -26.3883   21.3375 C   0  0  0  0  0  0
  -30.9220  -16.3166   22.2145 C   0  0  0  0  0  0
  -30.4665  -17.5551   21.4162 C   0  0  0  0  0  0
  -30.3093  -15.0791   21.7307 N   0  0  0  0  0  0
  -28.9819  -17.7057   21.3784 N   0  3  1  0  0  0
  -31.4572  -12.4026   19.0767 H   0  0  0  0  0  0
  -30.3242  -11.2584   19.7317 H   0  0  0  0  0  0
  -29.7101  -11.8378   17.3773 H   0  0  0  0  0  0
  -29.6512  -13.5346   17.7834 H   0  0  0  0  0  0
  -27.7998  -11.3300   18.7598 H   0  0  0  0  0  0
  -27.3528  -12.7001   17.7770 H   0  0  0  0  0  0
  -27.7301  -14.2558   19.6222 H   0  0  0  0  0  0
  -28.6580  -11.8574   21.2681 H   0  0  0  0  0  0
  -28.4434  -13.4553   21.8960 H   0  0  0  0  0  0
  -25.2753   -9.5692   22.4725 H   0  0  0  0  0  0
  -24.0008   -7.4633   22.7444 H   0  0  0  0  0  0
  -21.0817   -8.8748   19.8960 H   0  0  0  0  0  0
  -22.3640  -10.9664   19.6166 H   0  0  0  0  0  0
  -21.1999   -7.6143   23.9712 H   0  0  0  0  0  0
  -21.1484   -6.0519   25.9082 H   0  0  0  0  0  0
  -22.0596   -2.7597   23.2849 H   0  0  0  0  0  0
  -22.4118  -11.9952   22.4863 H   0  0  0  0  0  0
  -21.1113  -13.1287   22.2601 H   0  0  0  0  0  0
  -24.6239  -15.8007   20.3988 H   0  0  0  0  0  0
  -26.2065  -15.5634   19.8651 H   0  0  0  0  0  0
  -26.7097  -32.5540   23.1252 H   0  0  0  0  0  0
  -25.0066  -33.9874   25.0522 H   0  0  0  0  0  0
  -22.6844  -31.3084   21.4096 H   0  0  0  0  0  0
  -23.3753  -35.9666   23.3282 H   0  0  0  0  0  0
  -24.3599  -36.8912   22.2019 H   0  0  0  0  0  0
  -23.7201  -37.6554   23.6585 H   0  0  0  0  0  0
  -26.0587  -31.6181   20.6173 H   0  0  0  0  0  0
  -26.7971  -30.8809   22.0143 H   0  0  0  0  0  0
  -28.0891  -29.1616   21.1876 H   0  0  0  0  0  0
  -26.1379  -26.0085   19.0004 H   0  0  0  0  0  0
  -24.0086  -27.2883   19.0213 H   0  0  0  0  0  0
  -23.7169  -30.5967   19.4054 H   0  0  0  0  0  0
  -22.7339  -29.2395   19.8667 H   0  0  0  0  0  0
  -25.1248  -36.2051   25.0821 H   0  0  0  0  0  0
  -20.9985  -28.3232   24.1453 H   0  0  0  0  0  0
  -20.5695  -26.2262   23.3613 H   0  0  0  0  0  0
  -21.6655  -26.7454   22.1197 H   0  0  0  0  0  0
  -19.6905  -25.6310   21.1224 H   0  0  0  0  0  0
  -19.6696  -27.3244   20.6781 H   0  0  0  0  0  0
  -17.4208  -26.6728   21.4007 H   0  0  0  0  0  0
  -18.0295  -26.0055   22.8991 H   0  0  0  0  0  0
  -19.7919  -30.7282   24.2269 H   0  0  0  0  0  0
  -17.4991  -31.6256   24.5180 H   0  0  0  0  0  0
  -15.5342  -30.2973   23.7637 H   0  0  0  0  0  0
  -15.8681  -28.0820   22.7034 H   0  0  0  0  0  0
  -24.5959  -30.6946   25.8082 H   0  0  0  0  0  0
  -24.8472  -32.3125   26.4501 H   0  0  0  0  0  0
  -25.7894  -30.9665   27.0601 H   0  0  0  0  0  0
  -26.2728  -29.6993   24.0967 H   0  0  0  0  0  0
  -27.3233  -29.7074   25.4924 H   0  0  0  0  0  0
  -27.8828  -30.4159   23.9907 H   0  0  0  0  0  0
  -27.2771  -33.3710   26.1965 H   0  0  0  0  0  0
  -28.3882  -32.6635   25.0319 H   0  0  0  0  0  0
  -28.0579  -31.8448   26.5500 H   0  0  0  0  0  0
  -28.2658  -38.0072   24.7508 H   0  0  0  0  0  0
  -28.1035  -36.2617   24.6248 H   0  0  0  0  0  0
  -27.2330  -37.1425   25.8868 H   0  0  0  0  0  0
  -20.9282  -29.8705   21.6937 H   0  0  0  0  0  0
  -26.0215  -38.2906   24.1439 H   0  0  0  0  0  0
  -27.5239  -22.2863   23.1230 H   0  0  0  0  0  0
  -27.6071  -24.7332   23.1434 H   0  0  0  0  0  0
  -30.1518  -24.7053   19.6757 H   0  0  0  0  0  0
  -29.5530  -19.9900   23.3844 H   0  0  0  0  0  0
  -27.8223  -20.2174   23.3236 H   0  0  0  0  0  0
  -26.9312  -19.8379   20.6812 H   0  0  0  0  0  0
  -27.9874  -20.3445   19.4019 H   0  0  0  0  0  0
  -27.3188  -18.1330   22.5650 H   0  0  0  0  0  0
  -28.7268  -17.7431   23.5058 H   0  0  0  0  0  0
  -29.1837  -18.3222   19.3329 H   0  0  0  0  0  0
  -27.6109  -17.7607   19.7807 H   0  0  0  0  0  0
  -29.8906  -20.2860   21.1471 H   0  0  0  0  0  0
  -31.3509  -22.3465   19.2766 H   0  0  0  0  0  0
  -29.8982  -22.4935   18.2973 H   0  0  0  0  0  0
  -30.2032  -21.0186   19.1825 H   0  0  0  0  0  0
  -29.9336  -26.7481   21.4512 H   0  0  0  0  0  0
  -28.3400  -26.8036   22.1734 H   0  0  0  0  0  0
  -30.6797  -16.4384   23.2698 H   0  0  0  0  0  0
  -32.0108  -16.2385   22.1788 H   0  0  0  0  0  0
  -30.8641  -17.4610   20.4051 H   0  0  0  0  0  0
  -30.9432  -18.4420   21.8306 H   0  0  0  0  0  0
  -29.5609  -14.6748   22.2760 H   0  0  0  0  0  0
  -28.6587  -16.7512   21.3294 H   0  0  0  0  0  0
  1 25  1  0  0  0
  1 30  2  0  0  0
  1 86  1  0  0  0
  2  3  1  0  0  0
  2 25  1  0  0  0
  2 88  1  0  0  0
  2 89  1  0  0  0
  3  4  1  0  0  0
  3 90  1  0  0  0
  3 91  1  0  0  0
  4  5  1  0  0  0
  4 92  1  0  0  0
  4 93  1  0  0  0
  5  6  1  0  0  0
  5 26  1  0  0  0
  5 94  1  0  0  0
  6 25  1  0  0  0
  6 95  1  0  0  0
  6 96  1  0  0  0
  7  8  2  0  0  0
  7 26  1  0  0  0
  7 29  1  0  0  0
  8  9  1  0  0  0
  8 22  1  0  0  0
  9 10  1  0  0  0
  9 27  2  0  0  0
 10 11  2  0  0  0
 10 15  1  0  0  0
 11 12  1  0  0  0
 11 97  1  0  0  0
 12 13  2  0  0  0
 12 98  1  0  0  0
 13 14  1  0  0  0
 13 31  1  0  0  0
 14 15  2  0  0  0
 14 99  1  0  0  0
 15100  1  0  0  0
 16 17  2  0  0  0
 16 21  1  0  0  0
 16 31  1  0  0  0
 17 18  1  0  0  0
 17101  1  0  0  0
 18 19  2  0  0  0
 18102  1  0  0  0
 19 20  1  0  0  0
 19 24  1  0  0  0
 20 21  2  0  0  0
 20103  1  0  0  0
 21 23  1  0  0  0
 22 28  1  0  0  0
 22 32  2  0  0  0
 26 27  1  0  0  0
 28104  1  0  0  0
 28105  1  0  0  0
 29106  1  0  0  0
 29107  1  0  0  0
 33 34  1  0  0  0
 33 66  1  0  0  0
 33 70  2  0  0  0
 34 36  1  0  0  0
 34 59  1  0  0  0
 34108  1  0  0  0
 35 44  2  0  0  0
 35 45  1  0  0  0
 35 68  1  0  0  0
 36 56  1  0  0  0
 36109  1  0  0  0
 37 39  1  0  0  0
 37 47  1  0  0  0
 37 66  1  0  0  0
 37110  1  0  0  0
 38 43  2  0  0  0
 38 46  1  0  0  0
 38 47  1  0  0  0
 39 64  1  0  0  0
 39 67  2  0  0  0
 40 52  1  0  0  0
 40 53  2  0  0  0
 40 58  1  0  0  0
 41111  1  0  0  0
 41112  1  0  0  0
 41113  1  0  0  0
 41 48  1  0  0  0
 42 43  1  0  0  0
 42 66  1  0  0  0
 42114  1  0  0  0
 42115  1  0  0  0
 43 44  1  0  0  0
 44116  1  0  0  0
 45 46  2  0  0  0
 45117  1  0  0  0
 46118  1  0  0  0
 47119  1  0  0  0
 47120  1  0  0  0
 48 56  1  0  0  0
 48 65  1  0  0  0
 48121  1  0  0  0
 49 50  1  0  0  0
 49 53  1  0  0  0
 49 64  1  0  0  0
 49122  1  0  0  0
 50 51  1  0  0  0
 50123  1  0  0  0
 50124  1  0  0  0
 51 52  1  0  0  0
 51125  1  0  0  0
 51126  1  0  0  0
 52127  1  0  0  0
 52128  1  0  0  0
 53 54  1  0  0  0
 54 55  2  0  0  0
 54129  1  0  0  0
 55 57  1  0  0  0
 55130  1  0  0  0
 56 69  2  0  0  0
 57 58  2  0  0  0
 57131  1  0  0  0
 58132  1  0  0  0
 59 60  1  0  0  0
 59 61  1  0  0  0
 59 62  1  0  0  0
 60133  1  0  0  0
 60134  1  0  0  0
 60135  1  0  0  0
 61136  1  0  0  0
 61137  1  0  0  0
 61138  1  0  0  0
 62139  1  0  0  0
 62140  1  0  0  0
 62141  1  0  0  0
 63 65  1  0  0  0
 63142  1  0  0  0
 63143  1  0  0  0
 63144  1  0  0  0
 64145  1  0  0  0
 65146  1  0  0  0
 68 83  1  0  0  0
 71 72  2  0  0  0
 71 74  1  0  0  0
 71147  1  0  0  0
 72 75  1  0  0  0
 72148  1  0  0  0
 73 75  2  0  0  0
 73 76  1  0  0  0
 73149  1  0  0  0
 74 76  2  0  0  0
 74 81  1  0  0  0
 75 83  1  0  0  0
 76 82  1  0  0  0
 77 79  1  0  0  0
 77 81  1  0  0  0
 77150  1  0  0  0
 77151  1  0  0  0
 78 80  1  0  0  0
 78 81  1  0  0  0
 78152  1  0  0  0
 78153  1  0  0  0
 79 87  1  0  0  0
 79154  1  0  0  0
 79155  1  0  0  0
 80 87  1  0  0  0
 80156  1  0  0  0
 80157  1  0  0  0
 81158  1  0  0  0
 82159  1  0  0  0
 82160  1  0  0  0
 82161  1  0  0  0
 83162  1  0  0  0
 83163  1  0  0  0
 84 85  1  0  0  0
 84 86  1  0  0  0
 84164  1  0  0  0
 84165  1  0  0  0
 85166  1  0  0  0
 85167  1  0  0  0
 85 87  1  0  0  0
 86168  1  0  0  0
 87169  1  0  0  0
M  CHG  1  87   1
M  ISO  4   1 100  68 101  83 101  86 100
M  END
> <chiral flag>
0

> <version>
0

> <s_m_source_file>
/data/baiqing/PycharmProjects/Reinvent-master-3.2/result/LINK_invent/BTK/process_docking_weight1_custom_sum_contain_oxygen_bond_distance_aromatic_linkinvent_7_9_3/rearranged_h_0128.sdf

> <i_m_source_file_index>
24

> <r_mmod_Potential_Energy-OPLS-2005>
-101.631324768066

> <r_mmod_Stretch_Energy-OPLS-2005>
35.7839775085449

> <r_mmod_Bend_Energy-OPLS-2005>
102.835678100586

> <r_mmod_Torsional_Energy-OPLS-2005>
324.617828369141

> <r_mmod_Improper_Torsional_Energy-OPLS-2005>
3.91755509376526

> <r_mmod_Van_der_Waal_Energy-OPLS-2005>
168.559387207031

> <r_mmod_Electrostatic_Energy-OPLS-2005>
-297.169281005859

> <r_mmod_Solvation_Energy-OPLS-2005>
-447.648742675781

> <b_mmod_Minimization_Converged-OPLS-2005>
0

> <r_mmod_RMS_Derivative-OPLS-2005>
3.42384648323059

$$$$
24
                    3D
 Structure written by MMmdl.
178187  0  0  1  0            999 V2000
  -30.6189  -14.8627   20.3374 C   0  0  0  0  0  0
  -30.4257  -12.5300   19.4466 C   0  0  0  0  0  0
  -29.4991  -12.4769   18.2163 C   0  0  0  0  0  0
  -28.0314  -12.2923   18.6516 C   0  0  0  0  0  0
  -27.6217  -13.2306   19.8186 C   0  0  2  0  0  0
  -28.6847  -13.2936   20.9333 C   0  0  0  0  0  0
  -25.2445  -13.7971   20.5947 C   0  0  0  0  0  0
  -24.1748  -13.0237   20.9326 C   0  0  0  0  0  0
  -24.6391  -11.6749   20.8782 C   0  0  0  0  0  0
  -23.9075  -10.4174   21.0408 C   0  0  0  0  0  0
  -24.3609   -9.4095   21.9203 C   0  0  0  0  0  0
  -23.6283   -8.2146   22.0743 C   0  0  0  0  0  0
  -22.4277   -8.0211   21.3522 C   0  0  0  0  0  0
  -21.9927   -9.0195   20.4626 C   0  0  0  0  0  0
  -22.7250  -10.2060   20.3053 C   0  0  0  0  0  0
  -21.6835   -6.0717   22.5268 C   0  0  0  0  0  0
  -21.3990   -6.5627   23.8202 C   0  0  0  0  0  0
  -21.3671   -5.6776   24.9165 C   0  0  0  0  0  0
  -21.6068   -4.3039   24.7208 C   0  0  0  0  0  0
  -21.8818   -3.8133   23.4319 C   0  0  0  0  0  0
  -21.9185   -4.6951   22.3390 C   0  0  0  0  0  0
  -22.7774  -13.5074   21.1944 C   0  0  0  0  0  0
  -22.1643   -4.2134   21.0958 F   0  0  0  0  0  0
  -21.5674   -3.4526   25.7726 F   0  0  0  0  0  0
  -29.9483  -13.6562   20.2814 N   0  0  0  0  0  0
  -26.2881  -12.9275   20.3262 N   0  0  0  0  0  0
  -25.9315  -11.6405   20.5714 N   0  0  0  0  0  0
  -22.0382  -12.8087   22.0479 N   0  0  0  0  0  0
  -25.4002  -15.1658   20.4761 N   0  0  0  0  0  0
  -31.8551  -14.8194   20.3597 O   0  0  0  0  0  0
  -21.6592   -6.8840   21.4224 O   0  0  0  0  0  0
  -22.3498  -14.5396   20.6779 O   0  0  0  0  0  0
  -24.6317  -31.8550   23.1987 C   0  0  0  0  0  0
  -25.9156  -32.4747   23.8305 C   0  0  1  0  0  0
  -27.2358  -27.2609   20.1335 C   0  0  0  0  0  0
  -25.5959  -33.8543   24.2251 N   0  0  0  0  0  0
  -23.4280  -30.4741   21.5431 C   0  0  2  0  0  0
  -24.8787  -28.9178   20.1086 C   0  0  0  0  0  0
  -22.7520  -29.4578   22.4942 C   0  0  0  0  0  0
  -18.0287  -28.1383   22.8496 C   0  0  0  0  0  0
  -24.1485  -36.7286   23.2647 C   0  0  0  0  0  0
  -25.9722  -30.7641   21.3799 C   0  0  0  0  0  0
  -26.0460  -29.3842   20.7285 C   0  0  0  0  0  0
  -27.2229  -28.5667   20.7330 C   0  0  0  0  0  0
  -26.0583  -26.8810   19.4516 C   0  0  0  0  0  0
  -24.8953  -27.6774   19.4506 C   0  0  0  0  0  0
  -23.6465  -29.8044   20.1588 C   0  0  0  0  0  0
  -25.4108  -36.3070   24.0336 C   0  0  1  0  0  0
  -20.5898  -28.3686   23.1309 C   0  0  2  0  0  0
  -20.6766  -26.9403   22.5427 C   0  0  0  0  0  0
  -19.5733  -26.6382   21.5234 C   0  0  0  0  0  0
  -18.1923  -26.7921   22.1643 C   0  0  0  0  0  0
  -19.1541  -28.8848   23.2893 C   0  0  0  0  0  0
  -18.9456  -30.1460   23.8894 C   0  0  0  0  0  0
  -17.6443  -30.6583   24.0557 C   0  0  0  0  0  0
  -25.9053  -34.9431   23.5109 C   0  0  0  0  0  0
  -16.5344  -29.9070   23.6328 C   0  0  0  0  0  0
  -16.7275  -28.6500   23.0344 C   0  0  0  0  0  0
  -26.4529  -31.6553   25.0678 C   0  0  0  0  0  0
  -25.3767  -31.3652   26.1401 C   0  0  0  0  0  0
  -27.0354  -30.2971   24.6134 C   0  0  0  0  0  0
  -27.6087  -32.4274   25.7444 C   0  0  0  0  0  0
  -27.5579  -37.1803   24.8469 C   0  0  0  0  0  0
  -21.4228  -29.3035   22.3694 N   0  0  0  0  0  0
  -26.4287  -37.3772   23.9419 N   0  0  0  0  0  0
  -24.6955  -31.0496   22.0963 N   0  0  0  0  0  0
  -23.4224  -28.8133   23.3040 O   0  0  0  0  0  0
  -28.3485  -26.3820   20.1966 O   0  0  0  0  0  0
  -26.5636  -34.8920   22.4668 O   0  0  0  0  0  0
  -23.5482  -32.1362   23.7319 O   0  0  0  0  0  0
  -29.6019  -16.7268   17.4127 C   0  0  0  0  0  0
  -29.3527  -22.6879   21.3422 C   0  0  0  0  0  0
  -28.7042  -22.5670   18.9619 C   0  0  0  0  0  0
  -28.5735  -24.0820   21.4821 C   0  0  0  0  0  0
  -28.9745  -24.1310   19.0376 C   0  0  0  0  0  0
  -28.9816  -18.1293   17.5074 C   0  0  0  0  0  0
  -30.6226  -16.4139   18.5083 C   0  0  0  0  0  0
  -29.8270  -17.3979   20.5492 C   0  0  0  0  0  0
  -28.8235  -21.6673   20.2609 C   0  0  1  0  0  0
  -28.9057  -18.6916   20.0198 C   0  0  2  0  0  0
  -28.2026  -24.8732   20.1684 C   0  0  2  0  0  0
  -28.0396  -18.4016   18.7123 C   0  0  0  0  0  0
  -25.9239  -19.9402   19.1865 C   0  0  0  0  0  0
  -26.1652  -16.8189   17.7574 C   0  0  0  0  0  0
  -29.5935  -20.2012   20.1090 C   0  0  0  0  0  0
  -27.1218  -19.5860   18.2785 C   0  0  0  0  0  0
  -27.0744  -17.2098   18.9482 C   0  0  0  0  0  0
  -30.0195  -16.0408   19.8154 N   0  0  0  0  0  0
  -31.4618  -12.6616   19.1325 H   0  0  0  0  0  0
  -30.3928  -11.5948   20.0082 H   0  0  0  0  0  0
  -29.8025  -11.6628   17.5562 H   0  0  0  0  0  0
  -29.5917  -13.3971   17.6369 H   0  0  0  0  0  0
  -27.9145  -11.2533   18.9558 H   0  0  0  0  0  0
  -27.3607  -12.4304   17.8006 H   0  0  0  0  0  0
  -27.5703  -14.2173   19.3690 H   0  0  0  0  0  0
  -28.7775  -12.3381   21.4522 H   0  0  0  0  0  0
  -28.4146  -14.0417   21.6808 H   0  0  0  0  0  0
  -25.2738   -9.5560   22.4788 H   0  0  0  0  0  0
  -23.9986   -7.4525   22.7458 H   0  0  0  0  0  0
  -21.0870   -8.8712   19.8948 H   0  0  0  0  0  0
  -22.3716  -10.9616   19.6176 H   0  0  0  0  0  0
  -21.1936   -7.6124   23.9697 H   0  0  0  0  0  0
  -21.1538   -6.0497   25.9076 H   0  0  0  0  0  0
  -22.0606   -2.7601   23.2799 H   0  0  0  0  0  0
  -22.3974  -11.9748   22.4891 H   0  0  0  0  0  0
  -21.1015  -13.1140   22.2695 H   0  0  0  0  0  0
  -24.6144  -15.7968   20.5629 H   0  0  0  0  0  0
  -26.2218  -15.6038   20.0830 H   0  0  0  0  0  0
  -26.7207  -32.5410   23.1029 H   0  0  0  0  0  0
  -25.0064  -33.9633   25.0379 H   0  0  0  0  0  0
  -22.7254  -31.2965   21.4004 H   0  0  0  0  0  0
  -23.3746  -35.9621   23.3278 H   0  0  0  0  0  0
  -24.3596  -36.8935   22.2070 H   0  0  0  0  0  0
  -23.7218  -37.6475   23.6675 H   0  0  0  0  0  0
  -26.1119  -31.5196   20.6048 H   0  0  0  0  0  0
  -26.8519  -30.8215   22.0084 H   0  0  0  0  0  0
  -28.1112  -28.9225   21.2363 H   0  0  0  0  0  0
  -26.0233  -25.9555   18.8972 H   0  0  0  0  0  0
  -24.0200  -27.3312   18.9161 H   0  0  0  0  0  0
  -23.7687  -30.5827   19.4047 H   0  0  0  0  0  0
  -22.7646  -29.2385   19.8537 H   0  0  0  0  0  0
  -25.1284  -36.1921   25.0833 H   0  0  0  0  0  0
  -20.9993  -28.3236   24.1436 H   0  0  0  0  0  0
  -20.5677  -26.2284   23.3627 H   0  0  0  0  0  0
  -21.6624  -26.7430   22.1211 H   0  0  0  0  0  0
  -19.6884  -25.6309   21.1235 H   0  0  0  0  0  0
  -19.6662  -27.3210   20.6783 H   0  0  0  0  0  0
  -17.4207  -26.6720   21.4027 H   0  0  0  0  0  0
  -18.0280  -26.0055   22.9023 H   0  0  0  0  0  0
  -19.7920  -30.7281   24.2258 H   0  0  0  0  0  0
  -17.4989  -31.6248   24.5164 H   0  0  0  0  0  0
  -15.5332  -30.2954   23.7645 H   0  0  0  0  0  0
  -15.8684  -28.0803   22.7036 H   0  0  0  0  0  0
  -24.5996  -30.6942   25.7711 H   0  0  0  0  0  0
  -24.8893  -32.2787   26.4810 H   0  0  0  0  0  0
  -25.8123  -30.8844   27.0171 H   0  0  0  0  0  0
  -26.2892  -29.6708   24.1228 H   0  0  0  0  0  0
  -27.4113  -29.7229   25.4610 H   0  0  0  0  0  0
  -27.8745  -30.4208   23.9283 H   0  0  0  0  0  0
  -27.2719  -33.3597   26.1967 H   0  0  0  0  0  0
  -28.3925  -32.6788   25.0290 H   0  0  0  0  0  0
  -28.0718  -31.8423   26.5400 H   0  0  0  0  0  0
  -28.2601  -38.0097   24.7528 H   0  0  0  0  0  0
  -28.1073  -36.2640   24.6269 H   0  0  0  0  0  0
  -27.2320  -37.1412   25.8878 H   0  0  0  0  0  0
  -20.9423  -29.8751   21.6886 H   0  0  0  0  0  0
  -26.0170  -38.2857   24.1386 H   0  0  0  0  0  0
  -30.1193  -16.6736   16.4536 H   0  0  0  0  0  0
  -28.8464  -15.9434   17.3540 H   0  0  0  0  0  0
  -29.3736  -22.2082   22.3210 H   0  0  0  0  0  0
  -30.3994  -22.9058   21.1214 H   0  0  0  0  0  0
  -29.3393  -22.1496   18.1825 H   0  0  0  0  0  0
  -27.6822  -22.4783   18.5967 H   0  0  0  0  0  0
  -29.1464  -24.7379   22.1385 H   0  0  0  0  0  0
  -27.6449  -23.8971   22.0248 H   0  0  0  0  0  0
  -28.7114  -24.5745   18.0774 H   0  0  0  0  0  0
  -30.0445  -24.3150   19.1499 H   0  0  0  0  0  0
  -28.4345  -18.2746   16.5738 H   0  0  0  0  0  0
  -29.7652  -18.8852   17.4723 H   0  0  0  0  0  0
  -31.3197  -17.2487   18.6154 H   0  0  0  0  0  0
  -31.2369  -15.6095   18.0965 H   0  0  0  0  0  0
  -29.4322  -17.1263   21.5288 H   0  0  0  0  0  0
  -30.8224  -17.7773   20.7876 H   0  0  0  0  0  0
  -27.8134  -21.4436   20.5960 H   0  0  0  0  0  0
  -28.1556  -18.7691   20.8083 H   0  0  0  0  0  0
  -27.1571  -24.6271   20.0016 H   0  0  0  0  0  0
  -25.5095  -20.9108   18.9117 H   0  0  0  0  0  0
  -26.1886  -19.9647   20.2412 H   0  0  0  0  0  0
  -25.1102  -19.2191   19.0841 H   0  0  0  0  0  0
  -25.7113  -15.8381   17.9063 H   0  0  0  0  0  0
  -26.7057  -16.7738   16.8142 H   0  0  0  0  0  0
  -25.3472  -17.5244   17.6221 H   0  0  0  0  0  0
  -30.2606  -20.1452   20.9702 H   0  0  0  0  0  0
  -30.2894  -20.2816   19.2743 H   0  0  0  0  0  0
  -26.6988  -19.3852   17.2928 H   0  0  0  0  0  0
  -27.7362  -20.4484   18.0862 H   0  0  0  0  0  0
  -26.4524  -17.4309   19.8144 H   0  0  0  0  0  0
  -27.6334  -16.3347   19.2404 H   0  0  0  0  0  0
  1 25  1  0  0  0
  1 30  2  0  0  0
  1 88  1  0  0  0
  2  3  1  0  0  0
  2 25  1  0  0  0
  2 89  1  0  0  0
  2 90  1  0  0  0
  3  4  1  0  0  0
  3 91  1  0  0  0
  3 92  1  0  0  0
  4  5  1  0  0  0
  4 93  1  0  0  0
  4 94  1  0  0  0
  5  6  1  0  0  0
  5 26  1  0  0  0
  5 95  1  0  0  0
  6 25  1  0  0  0
  6 96  1  0  0  0
  6 97  1  0  0  0
  7  8  2  0  0  0
  7 26  1  0  0  0
  7 29  1  0  0  0
  8  9  1  0  0  0
  8 22  1  0  0  0
  9 10  1  0  0  0
  9 27  2  0  0  0
 10 11  2  0  0  0
 10 15  1  0  0  0
 11 12  1  0  0  0
 11 98  1  0  0  0
 12 13  2  0  0  0
 12 99  1  0  0  0
 13 14  1  0  0  0
 13 31  1  0  0  0
 14 15  2  0  0  0
 14100  1  0  0  0
 15101  1  0  0  0
 16 17  2  0  0  0
 16 21  1  0  0  0
 16 31  1  0  0  0
 17 18  1  0  0  0
 17102  1  0  0  0
 18 19  2  0  0  0
 18103  1  0  0  0
 19 20  1  0  0  0
 19 24  1  0  0  0
 20 21  2  0  0  0
 20104  1  0  0  0
 21 23  1  0  0  0
 22 28  1  0  0  0
 22 32  2  0  0  0
 26 27  1  0  0  0
 28105  1  0  0  0
 28106  1  0  0  0
 29107  1  0  0  0
 29108  1  0  0  0
 33 34  1  0  0  0
 33 66  1  0  0  0
 33 70  2  0  0  0
 34 36  1  0  0  0
 34 59  1  0  0  0
 34109  1  0  0  0
 35 44  2  0  0  0
 35 45  1  0  0  0
 35 68  1  0  0  0
 36 56  1  0  0  0
 36110  1  0  0  0
 37 39  1  0  0  0
 37 47  1  0  0  0
 37 66  1  0  0  0
 37111  1  0  0  0
 38 43  2  0  0  0
 38 46  1  0  0  0
 38 47  1  0  0  0
 39 64  1  0  0  0
 39 67  2  0  0  0
 40 52  1  0  0  0
 40 53  2  0  0  0
 40 58  1  0  0  0
 41112  1  0  0  0
 41113  1  0  0  0
 41114  1  0  0  0
 41 48  1  0  0  0
 42 43  1  0  0  0
 42 66  1  0  0  0
 42115  1  0  0  0
 42116  1  0  0  0
 43 44  1  0  0  0
 44117  1  0  0  0
 45 46  2  0  0  0
 45118  1  0  0  0
 46119  1  0  0  0
 47120  1  0  0  0
 47121  1  0  0  0
 48 56  1  0  0  0
 48 65  1  0  0  0
 48122  1  0  0  0
 49 50  1  0  0  0
 49 53  1  0  0  0
 49 64  1  0  0  0
 49123  1  0  0  0
 50 51  1  0  0  0
 50124  1  0  0  0
 50125  1  0  0  0
 51 52  1  0  0  0
 51126  1  0  0  0
 51127  1  0  0  0
 52128  1  0  0  0
 52129  1  0  0  0
 53 54  1  0  0  0
 54 55  2  0  0  0
 54130  1  0  0  0
 55 57  1  0  0  0
 55131  1  0  0  0
 56 69  2  0  0  0
 57 58  2  0  0  0
 57132  1  0  0  0
 58133  1  0  0  0
 59 60  1  0  0  0
 59 61  1  0  0  0
 59 62  1  0  0  0
 60134  1  0  0  0
 60135  1  0  0  0
 60136  1  0  0  0
 61137  1  0  0  0
 61138  1  0  0  0
 61139  1  0  0  0
 62140  1  0  0  0
 62141  1  0  0  0
 62142  1  0  0  0
 63 65  1  0  0  0
 63143  1  0  0  0
 63144  1  0  0  0
 63145  1  0  0  0
 64146  1  0  0  0
 65147  1  0  0  0
 68 81  1  0  0  0
 71 76  1  0  0  0
 71 77  1  0  0  0
 71148  1  0  0  0
 71149  1  0  0  0
 72 74  1  0  0  0
 72 79  1  0  0  0
 72150  1  0  0  0
 72151  1  0  0  0
 73 75  1  0  0  0
 73 79  1  0  0  0
 73152  1  0  0  0
 73153  1  0  0  0
 74 81  1  0  0  0
 74154  1  0  0  0
 74155  1  0  0  0
 75 81  1  0  0  0
 75156  1  0  0  0
 75157  1  0  0  0
 76 82  1  0  0  0
 76158  1  0  0  0
 76159  1  0  0  0
 77 88  1  0  0  0
 77160  1  0  0  0
 77161  1  0  0  0
 78 80  1  0  0  0
 78 88  1  0  0  0
 78162  1  0  0  0
 78163  1  0  0  0
 79 85  1  0  0  0
 79164  1  0  0  0
 80 82  1  0  0  0
 80 85  1  0  0  0
 80165  1  0  0  0
 81166  1  0  0  0
 82 86  1  0  0  0
 82 87  1  0  0  0
 83 86  1  0  0  0
 83167  1  0  0  0
 83168  1  0  0  0
 83169  1  0  0  0
 84 87  1  0  0  0
 84170  1  0  0  0
 84171  1  0  0  0
 84172  1  0  0  0
 85173  1  0  0  0
 85174  1  0  0  0
 86175  1  0  0  0
 86176  1  0  0  0
 87177  1  0  0  0
 87178  1  0  0  0
M  ISO  4   1 100  68 101  81 101  88 100
M  END
> <chiral flag>
0

> <version>
0

> <s_m_source_file>
/data/baiqing/PycharmProjects/Reinvent-master-3.2/result/LINK_invent/BTK/process_docking_weight1_custom_sum_contain_oxygen_bond_distance_aromatic_linkinvent_7_9_3/rearranged_h_0128.sdf

> <i_m_source_file_index>
25

> <r_mmod_Potential_Energy-OPLS-2005>
720.30224609375

> <r_mmod_Stretch_Energy-OPLS-2005>
184.15299987793

> <r_mmod_Bend_Energy-OPLS-2005>
267.362976074219

> <r_mmod_Torsional_Energy-OPLS-2005>
440.288299560547

> <r_mmod_Improper_Torsional_Energy-OPLS-2005>
24.6935157775879

> <r_mmod_Van_der_Waal_Energy-OPLS-2005>
151.612838745117

> <r_mmod_Electrostatic_Energy-OPLS-2005>
-320.276245117188

> <r_mmod_Solvation_Energy-OPLS-2005>
-164.031951904297

> <b_mmod_Minimization_Converged-OPLS-2005>
0

> <r_mmod_RMS_Derivative-OPLS-2005>
4.58088302612305

$$$$
25
                    3D
 Structure written by MMmdl.
160169  0  0  1  0            999 V2000
  -30.7665  -14.4314   20.6994 C   0  0  0  0  0  0
  -30.4198  -12.3279   19.4220 C   0  0  0  0  0  0
  -29.4941  -12.5307   18.2053 C   0  0  0  0  0  0
  -28.0170  -12.3750   18.6086 C   0  0  0  0  0  0
  -27.6607  -13.2090   19.8635 C   0  0  2  0  0  0
  -28.6902  -12.9860   20.9878 C   0  0  0  0  0  0
  -25.2579  -13.8167   20.5638 C   0  0  0  0  0  0
  -24.1845  -13.0438   20.9156 C   0  0  0  0  0  0
  -24.6397  -11.6900   20.8699 C   0  0  0  0  0  0
  -23.9063  -10.4291   21.0387 C   0  0  0  0  0  0
  -24.3615   -9.4211   21.9168 C   0  0  0  0  0  0
  -23.6293   -8.2246   22.0750 C   0  0  0  0  0  0
  -22.4273   -8.0281   21.3544 C   0  0  0  0  0  0
  -21.9903   -9.0252   20.4643 C   0  0  0  0  0  0
  -22.7229  -10.2129   20.3046 C   0  0  0  0  0  0
  -21.6855   -6.0731   22.5275 C   0  0  0  0  0  0
  -21.4020   -6.5632   23.8208 C   0  0  0  0  0  0
  -21.3663   -5.6786   24.9170 C   0  0  0  0  0  0
  -21.6045   -4.3050   24.7219 C   0  0  0  0  0  0
  -21.8818   -3.8141   23.4339 C   0  0  0  0  0  0
  -21.9195   -4.6960   22.3397 C   0  0  0  0  0  0
  -22.7870  -13.5229   21.1852 C   0  0  0  0  0  0
  -22.1663   -4.2145   21.0975 F   0  0  0  0  0  0
  -21.5629   -3.4536   25.7733 F   0  0  0  0  0  0
  -30.0428  -13.2896   20.4767 N   0  0  0  0  0  0
  -26.3008  -12.9338   20.3259 N   0  0  0  0  0  0
  -25.9314  -11.6493   20.5679 N   0  0  0  0  0  0
  -22.0530  -12.8211   22.0411 N   0  0  0  0  0  0
  -25.4293  -15.1889   20.4077 N   0  0  0  0  0  0
  -31.7305  -14.7258   19.9869 O   0  0  0  0  0  0
  -21.6639   -6.8873   21.4237 O   0  0  0  0  0  0
  -22.3548  -14.5543   20.6720 O   0  0  0  0  0  0
  -24.6195  -31.8657   23.2108 C   0  0  0  0  0  0
  -25.9083  -32.4807   23.8402 C   0  0  1  0  0  0
  -27.2220  -27.3956   20.0829 C   0  0  0  0  0  0
  -25.5939  -33.8615   24.2320 N   0  0  0  0  0  0
  -23.4077  -30.4936   21.5533 C   0  0  2  0  0  0
  -24.8499  -28.9669   20.1101 C   0  0  0  0  0  0
  -22.7435  -29.4652   22.4984 C   0  0  0  0  0  0
  -18.0276  -28.1374   22.8482 C   0  0  0  0  0  0
  -24.1486  -36.7306   23.2634 C   0  0  0  0  0  0
  -25.9451  -30.8168   21.3740 C   0  0  0  0  0  0
  -26.0174  -29.4535   20.7116 C   0  0  0  0  0  0
  -27.2057  -28.6767   20.6960 C   0  0  0  0  0  0
  -26.0295  -26.9523   19.4569 C   0  0  0  0  0  0
  -24.8538  -27.7168   19.4791 C   0  0  0  0  0  0
  -23.6147  -29.8367   20.1657 C   0  0  0  0  0  0
  -25.4108  -36.3101   24.0328 C   0  0  1  0  0  0
  -20.5873  -28.3659   23.1307 C   0  0  2  0  0  0
  -20.6771  -26.9386   22.5425 C   0  0  0  0  0  0
  -19.5754  -26.6373   21.5217 C   0  0  0  0  0  0
  -18.1921  -26.7923   22.1606 C   0  0  0  0  0  0
  -19.1527  -28.8833   23.2889 C   0  0  0  0  0  0
  -18.9461  -30.1448   23.8884 C   0  0  0  0  0  0
  -17.6460  -30.6574   24.0564 C   0  0  0  0  0  0
  -25.9046  -34.9470   23.5112 C   0  0  0  0  0  0
  -16.5351  -29.9072   23.6336 C   0  0  0  0  0  0
  -16.7265  -28.6501   23.0338 C   0  0  0  0  0  0
  -26.4486  -31.6602   25.0751 C   0  0  0  0  0  0
  -25.3728  -31.3750   26.1486 C   0  0  0  0  0  0
  -27.0321  -30.3030   24.6180 C   0  0  0  0  0  0
  -27.6052  -32.4335   25.7511 C   0  0  0  0  0  0
  -27.5580  -37.1803   24.8457 C   0  0  0  0  0  0
  -21.4157  -29.3028   22.3719 N   0  0  0  0  0  0
  -26.4289  -37.3789   23.9405 N   0  0  0  0  0  0
  -24.6759  -31.0730   22.1028 N   0  0  0  0  0  0
  -23.4197  -28.8173   23.3018 O   0  0  0  0  0  0
  -28.3629  -26.5953   20.1193 O   0  0  0  0  0  0
  -26.5590  -34.8913   22.4666 O   0  0  0  0  0  0
  -23.5383  -32.1440   23.7478 O   0  0  0  0  0  0
  -28.7377  -19.3048   21.0329 C   0  0  0  0  0  0
  -28.2239  -20.6146   21.0514 C   0  0  0  0  0  0
  -30.0559  -19.0807   20.5862 C   0  0  0  0  0  0
  -30.7805  -20.2227   20.1481 C   0  0  0  0  0  0
  -29.0280  -21.6843   20.6287 C   0  0  0  0  0  0
  -31.7945  -17.3785   21.5263 C   0  0  0  0  0  0
  -30.6378  -17.6720   20.5981 C   0  0  1  0  0  0
  -30.4570  -16.7110   21.7831 C   0  0  1  0  0  0
  -32.1907  -20.0991   19.6028 C   0  0  0  0  0  0
  -30.2663  -14.7133   23.0762 C   0  0  0  0  0  0
  -28.1514  -25.1827   19.8506 C   0  0  0  0  0  0
  -29.2175  -24.1437   20.2971 C   0  0  0  0  0  0
  -30.2876  -21.4904   20.1791 N   0  0  0  0  0  0
  -30.3529  -15.2528   21.7092 N   0  0  0  0  0  0
  -28.4882  -22.9589   20.6722 O   0  0  0  0  0  0
  -31.4640  -12.4282   19.1202 H   0  0  0  0  0  0
  -30.3232  -11.3107   19.8045 H   0  0  0  0  0  0
  -29.7421  -11.8158   17.4197 H   0  0  0  0  0  0
  -29.6571  -13.5222   17.7795 H   0  0  0  0  0  0
  -27.8301  -11.3182   18.7986 H   0  0  0  0  0  0
  -27.3682  -12.6531   17.7771 H   0  0  0  0  0  0
  -27.7072  -14.2591   19.5739 H   0  0  0  0  0  0
  -28.6598  -11.9535   21.3380 H   0  0  0  0  0  0
  -28.3868  -13.5905   21.8379 H   0  0  0  0  0  0
  -25.2764   -9.5686   22.4735 H   0  0  0  0  0  0
  -24.0004   -7.4638   22.7469 H   0  0  0  0  0  0
  -21.0835   -8.8765   19.8955 H   0  0  0  0  0  0
  -22.3685  -10.9663   19.6155 H   0  0  0  0  0  0
  -21.2016   -7.6144   23.9709 H   0  0  0  0  0  0
  -21.1490   -6.0518   25.9071 H   0  0  0  0  0  0
  -22.0597   -2.7605   23.2837 H   0  0  0  0  0  0
  -22.4158  -11.9859   22.4761 H   0  0  0  0  0  0
  -21.1158  -13.1240   22.2658 H   0  0  0  0  0  0
  -24.6652  -15.8451   20.5271 H   0  0  0  0  0  0
  -26.2846  -15.6286   20.0923 H   0  0  0  0  0  0
  -26.7151  -32.5484   23.1153 H   0  0  0  0  0  0
  -25.0140  -33.9786   25.0501 H   0  0  0  0  0  0
  -22.6979  -31.3125   21.4179 H   0  0  0  0  0  0
  -23.3748  -35.9642   23.3306 H   0  0  0  0  0  0
  -24.3579  -36.8917   22.2048 H   0  0  0  0  0  0
  -23.7249  -37.6515   23.6650 H   0  0  0  0  0  0
  -26.0712  -31.5849   20.6101 H   0  0  0  0  0  0
  -26.8289  -30.8602   21.9999 H   0  0  0  0  0  0
  -28.1028  -29.0446   21.1745 H   0  0  0  0  0  0
  -25.9662  -26.0066   18.9414 H   0  0  0  0  0  0
  -23.9595  -27.3411   19.0014 H   0  0  0  0  0  0
  -23.7205  -30.6158   19.4096 H   0  0  0  0  0  0
  -22.7379  -29.2582   19.8691 H   0  0  0  0  0  0
  -25.1286  -36.1959   25.0824 H   0  0  0  0  0  0
  -20.9964  -28.3227   24.1427 H   0  0  0  0  0  0
  -20.5669  -26.2260   23.3613 H   0  0  0  0  0  0
  -21.6638  -26.7418   22.1218 H   0  0  0  0  0  0
  -19.6915  -25.6288   21.1234 H   0  0  0  0  0  0
  -19.6712  -27.3190   20.6756 H   0  0  0  0  0  0
  -17.4209  -26.6697   21.3983 H   0  0  0  0  0  0
  -18.0289  -26.0046   22.8976 H   0  0  0  0  0  0
  -19.7939  -30.7273   24.2228 H   0  0  0  0  0  0
  -17.5016  -31.6249   24.5172 H   0  0  0  0  0  0
  -15.5351  -30.2968   23.7678 H   0  0  0  0  0  0
  -15.8667  -28.0834   22.7033 H   0  0  0  0  0  0
  -24.5987  -30.6967   25.7881 H   0  0  0  0  0  0
  -24.8801  -32.2901   26.4782 H   0  0  0  0  0  0
  -25.8080  -30.9097   27.0336 H   0  0  0  0  0  0
  -26.2896  -29.6795   24.1186 H   0  0  0  0  0  0
  -27.4014  -29.7271   25.4675 H   0  0  0  0  0  0
  -27.8757  -30.4328   23.9399 H   0  0  0  0  0  0
  -27.2687  -33.3667   26.2040 H   0  0  0  0  0  0
  -28.3888  -32.6841   25.0349 H   0  0  0  0  0  0
  -28.0679  -31.8481   26.5465 H   0  0  0  0  0  0
  -28.2599  -38.0094   24.7500 H   0  0  0  0  0  0
  -28.1070  -36.2629   24.6284 H   0  0  0  0  0  0
  -27.2299  -37.1466   25.8859 H   0  0  0  0  0  0
  -20.9321  -29.8773   21.6955 H   0  0  0  0  0  0
  -26.0173  -38.2861   24.1418 H   0  0  0  0  0  0
  -28.1226  -18.4821   21.3688 H   0  0  0  0  0  0
  -27.2156  -20.7952   21.3975 H   0  0  0  0  0  0
  -32.0942  -18.1542   22.2286 H   0  0  0  0  0  0
  -32.6159  -16.7814   21.1378 H   0  0  0  0  0  0
  -30.6730  -17.2542   19.5931 H   0  0  0  0  0  0
  -29.8867  -17.1462   22.6031 H   0  0  0  0  0  0
  -32.9160  -20.1254   20.4158 H   0  0  0  0  0  0
  -32.4182  -20.9135   18.9143 H   0  0  0  0  0  0
  -32.3217  -19.1658   19.0557 H   0  0  0  0  0  0
  -30.4750  -13.6430   23.1338 H   0  0  0  0  0  0
  -29.2702  -14.8808   23.4880 H   0  0  0  0  0  0
  -30.9825  -15.2055   23.7362 H   0  0  0  0  0  0
  -27.2416  -24.8898   20.3782 H   0  0  0  0  0  0
  -27.9586  -25.0375   18.7867 H   0  0  0  0  0  0
  -29.7645  -24.5036   21.1690 H   0  0  0  0  0  0
  -29.9368  -23.9729   19.4956 H   0  0  0  0  0  0
  1 25  1  0  0  0
  1 30  2  0  0  0
  1 84  1  0  0  0
  2  3  1  0  0  0
  2 25  1  0  0  0
  2 86  1  0  0  0
  2 87  1  0  0  0
  3  4  1  0  0  0
  3 88  1  0  0  0
  3 89  1  0  0  0
  4  5  1  0  0  0
  4 90  1  0  0  0
  4 91  1  0  0  0
  5  6  1  0  0  0
  5 26  1  0  0  0
  5 92  1  0  0  0
  6 25  1  0  0  0
  6 93  1  0  0  0
  6 94  1  0  0  0
  7  8  2  0  0  0
  7 26  1  0  0  0
  7 29  1  0  0  0
  8  9  1  0  0  0
  8 22  1  0  0  0
  9 10  1  0  0  0
  9 27  2  0  0  0
 10 11  2  0  0  0
 10 15  1  0  0  0
 11 12  1  0  0  0
 11 95  1  0  0  0
 12 13  2  0  0  0
 12 96  1  0  0  0
 13 14  1  0  0  0
 13 31  1  0  0  0
 14 15  2  0  0  0
 14 97  1  0  0  0
 15 98  1  0  0  0
 16 17  2  0  0  0
 16 21  1  0  0  0
 16 31  1  0  0  0
 17 18  1  0  0  0
 17 99  1  0  0  0
 18 19  2  0  0  0
 18100  1  0  0  0
 19 20  1  0  0  0
 19 24  1  0  0  0
 20 21  2  0  0  0
 20101  1  0  0  0
 21 23  1  0  0  0
 22 28  1  0  0  0
 22 32  2  0  0  0
 26 27  1  0  0  0
 28102  1  0  0  0
 28103  1  0  0  0
 29104  1  0  0  0
 29105  1  0  0  0
 33 34  1  0  0  0
 33 66  1  0  0  0
 33 70  2  0  0  0
 34 36  1  0  0  0
 34 59  1  0  0  0
 34106  1  0  0  0
 35 44  2  0  0  0
 35 45  1  0  0  0
 35 68  1  0  0  0
 36 56  1  0  0  0
 36107  1  0  0  0
 37 39  1  0  0  0
 37 47  1  0  0  0
 37 66  1  0  0  0
 37108  1  0  0  0
 38 43  2  0  0  0
 38 46  1  0  0  0
 38 47  1  0  0  0
 39 64  1  0  0  0
 39 67  2  0  0  0
 40 52  1  0  0  0
 40 53  2  0  0  0
 40 58  1  0  0  0
 41109  1  0  0  0
 41110  1  0  0  0
 41111  1  0  0  0
 41 48  1  0  0  0
 42 43  1  0  0  0
 42 66  1  0  0  0
 42112  1  0  0  0
 42113  1  0  0  0
 43 44  1  0  0  0
 44114  1  0  0  0
 45 46  2  0  0  0
 45115  1  0  0  0
 46116  1  0  0  0
 47117  1  0  0  0
 47118  1  0  0  0
 48 56  1  0  0  0
 48 65  1  0  0  0
 48119  1  0  0  0
 49 50  1  0  0  0
 49 53  1  0  0  0
 49 64  1  0  0  0
 49120  1  0  0  0
 50 51  1  0  0  0
 50121  1  0  0  0
 50122  1  0  0  0
 51 52  1  0  0  0
 51123  1  0  0  0
 51124  1  0  0  0
 52125  1  0  0  0
 52126  1  0  0  0
 53 54  1  0  0  0
 54 55  2  0  0  0
 54127  1  0  0  0
 55 57  1  0  0  0
 55128  1  0  0  0
 56 69  2  0  0  0
 57 58  2  0  0  0
 57129  1  0  0  0
 58130  1  0  0  0
 59 60  1  0  0  0
 59 61  1  0  0  0
 59 62  1  0  0  0
 60131  1  0  0  0
 60132  1  0  0  0
 60133  1  0  0  0
 61134  1  0  0  0
 61135  1  0  0  0
 61136  1  0  0  0
 62137  1  0  0  0
 62138  1  0  0  0
 62139  1  0  0  0
 63 65  1  0  0  0
 63140  1  0  0  0
 63141  1  0  0  0
 63142  1  0  0  0
 64143  1  0  0  0
 65144  1  0  0  0
 68 81  1  0  0  0
 71 72  2  0  0  0
 71 73  1  0  0  0
 71145  1  0  0  0
 72 75  1  0  0  0
 72146  1  0  0  0
 73 74  2  0  0  0
 73 77  1  0  0  0
 74 79  1  0  0  0
 74 83  1  0  0  0
 75 83  2  0  0  0
 75 85  1  0  0  0
 76 77  1  0  0  0
 76 78  1  0  0  0
 76147  1  0  0  0
 76148  1  0  0  0
 77 78  1  0  0  0
 77149  1  0  0  0
 78 84  1  0  0  0
 78150  1  0  0  0
 79151  1  0  0  0
 79152  1  0  0  0
 79153  1  0  0  0
 80 84  1  0  0  0
 80154  1  0  0  0
 80155  1  0  0  0
 80156  1  0  0  0
 81 82  1  0  0  0
 81157  1  0  0  0
 81158  1  0  0  0
 82 85  1  0  0  0
 82159  1  0  0  0
 82160  1  0  0  0
M  ISO  4   1 100  68 101  81 101  84 100
M  END
> <chiral flag>
0

> <version>
0

> <s_m_source_file>
/data/baiqing/PycharmProjects/Reinvent-master-3.2/result/LINK_invent/BTK/process_docking_weight1_custom_sum_contain_oxygen_bond_distance_aromatic_linkinvent_7_9_3/rearranged_h_0128.sdf

> <i_m_source_file_index>
26

> <r_mmod_Potential_Energy-OPLS-2005>
-14.3122406005859

> <r_mmod_Stretch_Energy-OPLS-2005>
49.1819725036621

> <r_mmod_Bend_Energy-OPLS-2005>
132.238357543945

> <r_mmod_Torsional_Energy-OPLS-2005>
321.402770996094

> <r_mmod_Improper_Torsional_Energy-OPLS-2005>
3.42546844482422

> <r_mmod_Van_der_Waal_Energy-OPLS-2005>
172.383941650391

> <r_mmod_Electrostatic_Energy-OPLS-2005>
-513.434814453125

> <r_mmod_Solvation_Energy-OPLS-2005>
-196.294158935547

> <b_mmod_Minimization_Converged-OPLS-2005>
0

> <r_mmod_RMS_Derivative-OPLS-2005>
1.25019037723541

$$$$
26
                    3D
 Structure written by MMmdl.
176185  0  0  1  0            999 V2000
  -30.7311  -14.4647   20.5665 C   0  0  0  0  0  0
  -30.4171  -12.3064   19.4092 C   0  0  0  0  0  0
  -29.4832  -12.4851   18.1951 C   0  0  0  0  0  0
  -28.0111  -12.3100   18.6173 C   0  0  0  0  0  0
  -27.6486  -13.1697   19.8523 C   0  0  2  0  0  0
  -28.7000  -13.0008   20.9787 C   0  0  0  0  0  0
  -25.2566  -13.8054   20.5620 C   0  0  0  0  0  0
  -24.1813  -13.0388   20.9189 C   0  0  0  0  0  0
  -24.6335  -11.6844   20.8771 C   0  0  0  0  0  0
  -23.9005  -10.4259   21.0432 C   0  0  0  0  0  0
  -24.3581   -9.4175   21.9198 C   0  0  0  0  0  0
  -23.6264   -8.2211   22.0760 C   0  0  0  0  0  0
  -22.4250   -8.0260   21.3546 C   0  0  0  0  0  0
  -21.9872   -9.0230   20.4657 C   0  0  0  0  0  0
  -22.7188  -10.2109   20.3070 C   0  0  0  0  0  0
  -21.6839   -6.0717   22.5283 C   0  0  0  0  0  0
  -21.4003   -6.5628   23.8215 C   0  0  0  0  0  0
  -21.3656   -5.6784   24.9179 C   0  0  0  0  0  0
  -21.6045   -4.3048   24.7235 C   0  0  0  0  0  0
  -21.8817   -3.8134   23.4357 C   0  0  0  0  0  0
  -21.9189   -4.6947   22.3408 C   0  0  0  0  0  0
  -22.7857  -13.5227   21.1853 C   0  0  0  0  0  0
  -22.1656   -4.2138   21.0988 F   0  0  0  0  0  0
  -21.5633   -3.4537   25.7745 F   0  0  0  0  0  0
  -30.0290  -13.3042   20.4194 N   0  0  0  0  0  0
  -26.2946  -12.9137   20.3272 N   0  0  0  0  0  0
  -25.9240  -11.6351   20.5778 N   0  0  0  0  0  0
  -22.0485  -12.8252   22.0422 N   0  0  0  0  0  0
  -25.4274  -15.1765   20.3932 N   0  0  0  0  0  0
  -31.8748  -14.6042   20.1240 O   0  0  0  0  0  0
  -21.6618   -6.8855   21.4240 O   0  0  0  0  0  0
  -22.3570  -14.5538   20.6692 O   0  0  0  0  0  0
  -24.6070  -31.8729   23.2135 C   0  0  0  0  0  0
  -25.8992  -32.4861   23.8399 C   0  0  1  0  0  0
  -27.2661  -27.4837   20.0979 C   0  0  0  0  0  0
  -25.5883  -33.8656   24.2356 N   0  0  0  0  0  0
  -23.3957  -30.4924   21.5533 C   0  0  2  0  0  0
  -24.8490  -28.9640   20.1179 C   0  0  0  0  0  0
  -22.7392  -29.4668   22.5032 C   0  0  0  0  0  0
  -18.0280  -28.1388   22.8495 C   0  0  0  0  0  0
  -24.1496  -36.7302   23.2641 C   0  0  0  0  0  0
  -25.9141  -30.8565   21.3572 C   0  0  0  0  0  0
  -25.9999  -29.4899   20.7154 C   0  0  0  0  0  0
  -27.2044  -28.7555   20.7193 C   0  0  0  0  0  0
  -26.0911  -26.9630   19.5165 C   0  0  0  0  0  0
  -24.8852  -27.6925   19.5206 C   0  0  0  0  0  0
  -23.6040  -29.8211   20.1680 C   0  0  0  0  0  0
  -25.4111  -36.3131   24.0358 C   0  0  1  0  0  0
  -20.5863  -28.3644   23.1360 C   0  0  2  0  0  0
  -20.6783  -26.9392   22.5429 C   0  0  0  0  0  0
  -19.5761  -26.6393   21.5227 C   0  0  0  0  0  0
  -18.1928  -26.7935   22.1616 C   0  0  0  0  0  0
  -19.1526  -28.8832   23.2927 C   0  0  0  0  0  0
  -18.9461  -30.1447   23.8915 C   0  0  0  0  0  0
  -17.6465  -30.6583   24.0581 C   0  0  0  0  0  0
  -25.9029  -34.9497   23.5148 C   0  0  0  0  0  0
  -16.5356  -29.9094   23.6339 C   0  0  0  0  0  0
  -16.7271  -28.6519   23.0328 C   0  0  0  0  0  0
  -26.4450  -31.6618   25.0681 C   0  0  0  0  0  0
  -25.3739  -31.3722   26.1449 C   0  0  0  0  0  0
  -27.0264  -30.3082   24.5978 C   0  0  0  0  0  0
  -27.6058  -32.4319   25.7401 C   0  0  0  0  0  0
  -27.5604  -37.1786   24.8465 C   0  0  0  0  0  0
  -21.4137  -29.3004   22.3755 N   0  0  0  0  0  0
  -26.4304  -37.3805   23.9434 N   0  0  0  0  0  0
  -24.6574  -31.0865   22.1027 N   0  0  0  0  0  0
  -23.4198  -28.8236   23.3067 O   0  0  0  0  0  0
  -28.3940  -26.6907   20.0096 O   0  0  0  0  0  0
  -26.5573  -34.8944   22.4700 O   0  0  0  0  0  0
  -23.5279  -32.1472   23.7550 O   0  0  0  0  0  0
  -29.4884  -22.0575   20.9750 C   0  0  0  0  0  0
  -29.8702  -23.3555   20.5846 C   0  0  0  0  0  0
  -31.1355  -23.5948   22.6486 C   0  0  0  0  0  0
  -29.9178  -21.5164   22.2083 C   0  0  0  0  0  0
  -30.7510  -22.2949   23.0526 C   0  0  0  0  0  0
  -30.6934  -24.1293   21.4212 C   0  0  0  0  0  0
  -29.0311  -17.6288   20.7737 C   0  0  0  0  0  0
  -28.9468  -16.1298   20.5398 C   0  0  0  0  0  0
  -29.8314  -17.7257   22.0607 C   0  0  1  0  0  0
  -30.8403  -16.5636   21.9031 C   0  0  1  0  0  0
  -31.2355  -21.7672   24.3948 C   0  0  0  0  0  0
  -31.1792  -14.8406   25.4594 C   0  0  0  0  0  0
  -29.4389  -20.1193   22.5997 C   0  0  0  0  0  0
  -31.4685  -16.0559   23.2262 C   0  0  0  0  0  0
  -30.5182  -15.2535   24.1399 C   0  0  0  0  0  0
  -29.6936  -27.2119   20.2989 C   0  0  0  0  0  0
  -30.3322  -26.4666   21.4858 C   0  0  0  0  0  0
  -30.1063  -15.4990   21.1868 N   0  0  0  0  0  0
  -30.4270  -19.0677   22.2679 N   0  3  0  0  0  0
  -31.1097  -25.3684   21.0114 O   0  0  0  0  0  0
  -31.4597  -12.3999   19.0990 H   0  0  0  0  0  0
  -30.3189  -11.3001   19.8209 H   0  0  0  0  0  0
  -29.7339  -11.7607   17.4184 H   0  0  0  0  0  0
  -29.6274  -13.4721   17.7518 H   0  0  0  0  0  0
  -27.8520  -11.2550   18.8435 H   0  0  0  0  0  0
  -27.3472  -12.5451   17.7845 H   0  0  0  0  0  0
  -27.6524  -14.1861   19.4818 H   0  0  0  0  0  0
  -28.6890  -11.9752   21.3507 H   0  0  0  0  0  0
  -28.4583  -13.6213   21.8419 H   0  0  0  0  0  0
  -25.2738   -9.5649   22.4762 H   0  0  0  0  0  0
  -23.9981   -7.4595   22.7467 H   0  0  0  0  0  0
  -21.0806   -8.8746   19.8965 H   0  0  0  0  0  0
  -22.3657  -10.9650   19.6185 H   0  0  0  0  0  0
  -21.1985   -7.6140   23.9714 H   0  0  0  0  0  0
  -21.1482   -6.0518   25.9081 H   0  0  0  0  0  0
  -22.0598   -2.7600   23.2861 H   0  0  0  0  0  0
  -22.4084  -11.9913   22.4826 H   0  0  0  0  0  0
  -21.1112  -13.1314   22.2623 H   0  0  0  0  0  0
  -24.6551  -15.8266   20.4907 H   0  0  0  0  0  0
  -26.2651  -15.6101   20.0288 H   0  0  0  0  0  0
  -26.7055  -32.5629   23.1172 H   0  0  0  0  0  0
  -25.0078  -33.9815   25.0522 H   0  0  0  0  0  0
  -22.6828  -31.3075   21.4157 H   0  0  0  0  0  0
  -23.3780  -35.9608   23.3306 H   0  0  0  0  0  0
  -24.3605  -36.8880   22.2052 H   0  0  0  0  0  0
  -23.7216  -37.6501   23.6621 H   0  0  0  0  0  0
  -26.0045  -31.6210   20.5840 H   0  0  0  0  0  0
  -26.8086  -30.9270   21.9633 H   0  0  0  0  0  0
  -28.0554  -29.1923   21.2135 H   0  0  0  0  0  0
  -26.1142  -25.9879   19.0506 H   0  0  0  0  0  0
  -23.9986  -27.2733   19.0635 H   0  0  0  0  0  0
  -23.7045  -30.5966   19.4087 H   0  0  0  0  0  0
  -22.7322  -29.2321   19.8768 H   0  0  0  0  0  0
  -25.1290  -36.1995   25.0850 H   0  0  0  0  0  0
  -20.9943  -28.3181   24.1494 H   0  0  0  0  0  0
  -20.5714  -26.2230   23.3586 H   0  0  0  0  0  0
  -21.6653  -26.7460   22.1207 H   0  0  0  0  0  0
  -19.6928  -25.6319   21.1215 H   0  0  0  0  0  0
  -19.6730  -27.3251   20.6802 H   0  0  0  0  0  0
  -17.4223  -26.6714   21.3989 H   0  0  0  0  0  0
  -18.0303  -26.0059   22.8985 H   0  0  0  0  0  0
  -19.7935  -30.7264   24.2270 H   0  0  0  0  0  0
  -17.5025  -31.6256   24.5182 H   0  0  0  0  0  0
  -15.5349  -30.3004   23.7660 H   0  0  0  0  0  0
  -15.8674  -28.0869   22.7001 H   0  0  0  0  0  0
  -24.5931  -30.7037   25.7802 H   0  0  0  0  0  0
  -24.8895  -32.2878   26.4859 H   0  0  0  0  0  0
  -25.8103  -30.8936   27.0227 H   0  0  0  0  0  0
  -26.2756  -29.6823   24.1139 H   0  0  0  0  0  0
  -27.4210  -29.7328   25.4363 H   0  0  0  0  0  0
  -27.8507  -30.4443   23.8969 H   0  0  0  0  0  0
  -27.2725  -33.3639   26.1981 H   0  0  0  0  0  0
  -28.3837  -32.6839   25.0177 H   0  0  0  0  0  0
  -28.0759  -31.8439   26.5296 H   0  0  0  0  0  0
  -28.2601  -38.0104   24.7581 H   0  0  0  0  0  0
  -28.1122  -36.2651   24.6204 H   0  0  0  0  0  0
  -27.2347  -37.1334   25.8869 H   0  0  0  0  0  0
  -20.9285  -29.8677   21.6948 H   0  0  0  0  0  0
  -26.0210  -38.2877   24.1486 H   0  0  0  0  0  0
  -28.8530  -21.4834   20.3140 H   0  0  0  0  0  0
  -29.5337  -23.7541   19.6372 H   0  0  0  0  0  0
  -31.7829  -24.1886   23.2783 H   0  0  0  0  0  0
  -28.0420  -18.0842   20.8352 H   0  0  0  0  0  0
  -29.5677  -18.0992   19.9482 H   0  0  0  0  0  0
  -28.9043  -15.9345   19.4659 H   0  0  0  0  0  0
  -28.0398  -15.7555   21.0123 H   0  0  0  0  0  0
  -29.1675  -17.5056   22.8980 H   0  0  0  0  0  0
  -31.6491  -16.9084   21.2539 H   0  0  0  0  0  0
  -31.8909  -22.4844   24.8903 H   0  0  0  0  0  0
  -31.7970  -20.8405   24.2766 H   0  0  0  0  0  0
  -30.3934  -21.5790   25.0615 H   0  0  0  0  0  0
  -30.4891  -14.2611   26.0741 H   0  0  0  0  0  0
  -31.4844  -15.7123   26.0396 H   0  0  0  0  0  0
  -32.0629  -14.2256   25.2865 H   0  0  0  0  0  0
  -28.5007  -19.9424   22.0730 H   0  0  0  0  0  0
  -29.1793  -20.0715   23.6571 H   0  0  0  0  0  0
  -31.8843  -16.8997   23.7783 H   0  0  0  0  0  0
  -32.3247  -15.4234   22.9846 H   0  0  0  0  0  0
  -29.6243  -15.8341   24.3659 H   0  0  0  0  0  0
  -30.1735  -14.3534   23.6300 H   0  0  0  0  0  0
  -30.3121  -27.0789   19.4109 H   0  0  0  0  0  0
  -29.7206  -28.2835   20.4783 H   0  0  0  0  0  0
  -29.5810  -26.1818   22.2250 H   0  0  0  0  0  0
  -31.0218  -27.1401   21.9967 H   0  0  0  0  0  0
  -30.9125  -19.3454   21.4309 H   0  0  0  0  0  0
  -31.1034  -19.0288   23.0124 H   0  0  0  0  0  0
  1 25  1  0  0  0
  1 30  2  0  0  0
  1 88  1  0  0  0
  2  3  1  0  0  0
  2 25  1  0  0  0
  2 91  1  0  0  0
  2 92  1  0  0  0
  3  4  1  0  0  0
  3 93  1  0  0  0
  3 94  1  0  0  0
  4  5  1  0  0  0
  4 95  1  0  0  0
  4 96  1  0  0  0
  5  6  1  0  0  0
  5 26  1  0  0  0
  5 97  1  0  0  0
  6 25  1  0  0  0
  6 98  1  0  0  0
  6 99  1  0  0  0
  7  8  2  0  0  0
  7 26  1  0  0  0
  7 29  1  0  0  0
  8  9  1  0  0  0
  8 22  1  0  0  0
  9 10  1  0  0  0
  9 27  2  0  0  0
 10 11  2  0  0  0
 10 15  1  0  0  0
 11 12  1  0  0  0
 11100  1  0  0  0
 12 13  2  0  0  0
 12101  1  0  0  0
 13 14  1  0  0  0
 13 31  1  0  0  0
 14 15  2  0  0  0
 14102  1  0  0  0
 15103  1  0  0  0
 16 17  2  0  0  0
 16 21  1  0  0  0
 16 31  1  0  0  0
 17 18  1  0  0  0
 17104  1  0  0  0
 18 19  2  0  0  0
 18105  1  0  0  0
 19 20  1  0  0  0
 19 24  1  0  0  0
 20 21  2  0  0  0
 20106  1  0  0  0
 21 23  1  0  0  0
 22 28  1  0  0  0
 22 32  2  0  0  0
 26 27  1  0  0  0
 28107  1  0  0  0
 28108  1  0  0  0
 29109  1  0  0  0
 29110  1  0  0  0
 33 34  1  0  0  0
 33 66  1  0  0  0
 33 70  2  0  0  0
 34 36  1  0  0  0
 34 59  1  0  0  0
 34111  1  0  0  0
 35 44  2  0  0  0
 35 45  1  0  0  0
 35 68  1  0  0  0
 36 56  1  0  0  0
 36112  1  0  0  0
 37 39  1  0  0  0
 37 47  1  0  0  0
 37 66  1  0  0  0
 37113  1  0  0  0
 38 43  2  0  0  0
 38 46  1  0  0  0
 38 47  1  0  0  0
 39 64  1  0  0  0
 39 67  2  0  0  0
 40 52  1  0  0  0
 40 53  2  0  0  0
 40 58  1  0  0  0
 41114  1  0  0  0
 41115  1  0  0  0
 41116  1  0  0  0
 41 48  1  0  0  0
 42 43  1  0  0  0
 42 66  1  0  0  0
 42117  1  0  0  0
 42118  1  0  0  0
 43 44  1  0  0  0
 44119  1  0  0  0
 45 46  2  0  0  0
 45120  1  0  0  0
 46121  1  0  0  0
 47122  1  0  0  0
 47123  1  0  0  0
 48 56  1  0  0  0
 48 65  1  0  0  0
 48124  1  0  0  0
 49 50  1  0  0  0
 49 53  1  0  0  0
 49 64  1  0  0  0
 49125  1  0  0  0
 50 51  1  0  0  0
 50126  1  0  0  0
 50127  1  0  0  0
 51 52  1  0  0  0
 51128  1  0  0  0
 51129  1  0  0  0
 52130  1  0  0  0
 52131  1  0  0  0
 53 54  1  0  0  0
 54 55  2  0  0  0
 54132  1  0  0  0
 55 57  1  0  0  0
 55133  1  0  0  0
 56 69  2  0  0  0
 57 58  2  0  0  0
 57134  1  0  0  0
 58135  1  0  0  0
 59 60  1  0  0  0
 59 61  1  0  0  0
 59 62  1  0  0  0
 60136  1  0  0  0
 60137  1  0  0  0
 60138  1  0  0  0
 61139  1  0  0  0
 61140  1  0  0  0
 61141  1  0  0  0
 62142  1  0  0  0
 62143  1  0  0  0
 62144  1  0  0  0
 63 65  1  0  0  0
 63145  1  0  0  0
 63146  1  0  0  0
 63147  1  0  0  0
 64148  1  0  0  0
 65149  1  0  0  0
 68 86  1  0  0  0
 71 72  2  0  0  0
 71 74  1  0  0  0
 71150  1  0  0  0
 72 76  1  0  0  0
 72151  1  0  0  0
 73 75  1  0  0  0
 73 76  2  0  0  0
 73152  1  0  0  0
 74 75  2  0  0  0
 74 83  1  0  0  0
 75 81  1  0  0  0
 76 90  1  0  0  0
 77 78  1  0  0  0
 77 79  1  0  0  0
 77153  1  0  0  0
 77154  1  0  0  0
 78 88  1  0  0  0
 78155  1  0  0  0
 78156  1  0  0  0
 79 80  1  0  0  0
 79 89  1  0  0  0
 79157  1  0  0  0
 80 84  1  0  0  0
 80 88  1  0  0  0
 80158  1  0  0  0
 81159  1  0  0  0
 81160  1  0  0  0
 81161  1  0  0  0
 82 85  1  0  0  0
 82162  1  0  0  0
 82163  1  0  0  0
 82164  1  0  0  0
 83 89  1  0  0  0
 83165  1  0  0  0
 83166  1  0  0  0
 84 85  1  0  0  0
 84167  1  0  0  0
 84168  1  0  0  0
 85169  1  0  0  0
 85170  1  0  0  0
 86 87  1  0  0  0
 86171  1  0  0  0
 86172  1  0  0  0
 87 90  1  0  0  0
 87173  1  0  0  0
 87174  1  0  0  0
 89175  1  0  0  0
 89176  1  0  0  0
M  CHG  1  89   1
M  ISO  4   1 100  68 101  86 101  88 100
M  END
> <chiral flag>
0

> <version>
0

> <s_m_source_file>
/data/baiqing/PycharmProjects/Reinvent-master-3.2/result/LINK_invent/BTK/process_docking_weight1_custom_sum_contain_oxygen_bond_distance_aromatic_linkinvent_7_9_3/rearranged_h_0128.sdf

> <i_m_source_file_index>
27

> <r_mmod_Potential_Energy-OPLS-2005>
26.452205657959

> <r_mmod_Stretch_Energy-OPLS-2005>
37.3022499084473

> <r_mmod_Bend_Energy-OPLS-2005>
137.537078857422

> <r_mmod_Torsional_Energy-OPLS-2005>
361.488464355469

> <r_mmod_Improper_Torsional_Energy-OPLS-2005>
5.61382722854614

> <r_mmod_Van_der_Waal_Energy-OPLS-2005>
150.575210571289

> <r_mmod_Electrostatic_Energy-OPLS-2005>
-238.206207275391

> <r_mmod_Solvation_Energy-OPLS-2005>
-440.495788574219

> <b_mmod_Minimization_Converged-OPLS-2005>
0

> <r_mmod_RMS_Derivative-OPLS-2005>
2.33493137359619

$$$$
27
                    3D
 Structure written by MMmdl.
156164  0  0  1  0            999 V2000
  -30.5323  -14.9431   20.3952 C   0  0  0  0  0  0
  -30.4353  -12.5773   19.4906 C   0  0  0  0  0  0
  -29.5158  -12.5218   18.2484 C   0  0  0  0  0  0
  -28.0486  -12.3110   18.6689 C   0  0  0  0  0  0
  -27.6268  -13.2429   19.8353 C   0  0  2  0  0  0
  -28.6730  -13.2697   20.9697 C   0  0  0  0  0  0
  -25.2447  -13.8189   20.5720 C   0  0  0  0  0  0
  -24.1753  -13.0425   20.9225 C   0  0  0  0  0  0
  -24.6362  -11.6902   20.8741 C   0  0  0  0  0  0
  -23.9054  -10.4269   21.0383 C   0  0  0  0  0  0
  -24.3592   -9.4194   21.9168 C   0  0  0  0  0  0
  -23.6282   -8.2225   22.0739 C   0  0  0  0  0  0
  -22.4268   -8.0260   21.3537 C   0  0  0  0  0  0
  -21.9894   -9.0220   20.4637 C   0  0  0  0  0  0
  -22.7221  -10.2102   20.3045 C   0  0  0  0  0  0
  -21.6848   -6.0725   22.5286 C   0  0  0  0  0  0
  -21.4012   -6.5629   23.8214 C   0  0  0  0  0  0
  -21.3657   -5.6776   24.9168 C   0  0  0  0  0  0
  -21.6051   -4.3038   24.7216 C   0  0  0  0  0  0
  -21.8811   -3.8142   23.4330 C   0  0  0  0  0  0
  -21.9186   -4.6958   22.3393 C   0  0  0  0  0  0
  -22.7780  -13.5212   21.1865 C   0  0  0  0  0  0
  -22.1660   -4.2147   21.0967 F   0  0  0  0  0  0
  -21.5633   -3.4522   25.7720 F   0  0  0  0  0  0
  -29.9431  -13.6818   20.3605 N   0  0  0  0  0  0
  -26.2860  -12.9417   20.3242 N   0  0  0  0  0  0
  -25.9290  -11.6550   20.5720 N   0  0  0  0  0  0
  -22.0455  -12.8182   22.0432 N   0  0  0  0  0  0
  -25.4097  -15.1922   20.4166 N   0  0  0  0  0  0
  -31.7446  -15.0096   20.1598 O   0  0  0  0  0  0
  -21.6632   -6.8861   21.4243 O   0  0  0  0  0  0
  -22.3468  -14.5509   20.6707 O   0  0  0  0  0  0
  -24.6419  -31.8466   23.1927 C   0  0  0  0  0  0
  -25.9221  -32.4708   23.8291 C   0  0  1  0  0  0
  -27.2010  -27.1491   20.1298 C   0  0  0  0  0  0
  -25.5989  -33.8512   24.2216 N   0  0  0  0  0  0
  -23.4427  -30.4712   21.5375 C   0  0  2  0  0  0
  -24.8877  -28.9051   20.1062 C   0  0  0  0  0  0
  -22.7551  -29.4563   22.4856 C   0  0  0  0  0  0
  -18.0307  -28.1392   22.8481 C   0  0  0  0  0  0
  -24.1488  -36.7244   23.2632 C   0  0  0  0  0  0
  -25.9985  -30.7225   21.3916 C   0  0  0  0  0  0
  -26.0658  -29.3364   20.7282 C   0  0  0  0  0  0
  -27.2227  -28.4719   20.7283 C   0  0  0  0  0  0
  -26.0007  -26.8264   19.4570 C   0  0  0  0  0  0
  -24.8661  -27.6622   19.4583 C   0  0  0  0  0  0
  -23.6685  -29.8110   20.1523 C   0  0  0  0  0  0
  -25.4124  -36.3039   24.0321 C   0  0  1  0  0  0
  -20.5916  -28.3726   23.1241 C   0  0  2  0  0  0
  -20.6797  -26.9437   22.5409 C   0  0  0  0  0  0
  -19.5783  -26.6386   21.5205 C   0  0  0  0  0  0
  -18.1957  -26.7936   22.1601 C   0  0  0  0  0  0
  -19.1558  -28.8875   23.2860 C   0  0  0  0  0  0
  -18.9470  -30.1463   23.8899 C   0  0  0  0  0  0
  -17.6470  -30.6591   24.0559 C   0  0  0  0  0  0
  -25.9082  -34.9412   23.5069 C   0  0  0  0  0  0
  -16.5364  -29.9092   23.6321 C   0  0  0  0  0  0
  -16.7292  -28.6498   23.0368 C   0  0  0  0  0  0
  -26.4552  -31.6567   25.0719 C   0  0  0  0  0  0
  -25.3725  -31.3776   26.1406 C   0  0  0  0  0  0
  -27.0388  -30.2947   24.6296 C   0  0  0  0  0  0
  -27.6103  -32.4298   25.7510 C   0  0  0  0  0  0
  -27.5584  -37.1789   24.8465 C   0  0  0  0  0  0
  -21.4242  -29.3062   22.3601 N   0  0  0  0  0  0
  -26.4282  -37.3759   23.9417 N   0  0  0  0  0  0
  -24.7141  -31.0331   22.0962 N   0  0  0  0  0  0
  -23.4203  -28.8101   23.3004 O   0  0  0  0  0  0
  -28.2445  -26.1588   20.2074 O   0  0  0  0  0  0
  -26.5630  -34.8917   22.4627 O   0  0  0  0  0  0
  -23.5546  -32.1339   23.7165 O   0  0  0  0  0  0
  -27.3455  -22.4902   22.2620 C   0  0  0  0  0  0
  -28.5992  -23.3376   22.0005 C   0  0  0  0  0  0
  -27.1442  -21.5743   21.0403 C   0  0  0  0  0  0
  -28.8123  -23.3141   20.4841 C   0  0  1  0  0  0
  -28.4006  -21.7099   20.1549 C   0  0  1  0  0  0
  -27.9957  -24.6576   19.8814 C   0  0  0  0  0  0
  -30.0958  -17.6722   20.4797 C   0  0  0  0  0  0
  -29.0093  -18.9478   20.2198 C   0  0  0  0  0  0
  -29.7437  -16.1249   20.4802 N   0  0  0  0  0  0
  -29.3861  -20.4848   20.4055 N   0  3  0  0  0  0
  -31.4713  -12.7261   19.1838 H   0  0  0  0  0  0
  -30.4146  -11.6283   20.0277 H   0  0  0  0  0  0
  -29.8287  -11.7219   17.5763 H   0  0  0  0  0  0
  -29.6054  -13.4511   17.6841 H   0  0  0  0  0  0
  -27.9436  -11.2704   18.9790 H   0  0  0  0  0  0
  -27.3829  -12.4424   17.8143 H   0  0  0  0  0  0
  -27.5884  -14.2456   19.4073 H   0  0  0  0  0  0
  -28.7634  -12.2927   21.4501 H   0  0  0  0  0  0
  -28.3777  -13.9716   21.7505 H   0  0  0  0  0  0
  -25.2716   -9.5678   22.4766 H   0  0  0  0  0  0
  -23.9992   -7.4616   22.7452 H   0  0  0  0  0  0
  -21.0831   -8.8731   19.8949 H   0  0  0  0  0  0
  -22.3668  -10.9633   19.6160 H   0  0  0  0  0  0
  -21.2020   -7.6138   23.9713 H   0  0  0  0  0  0
  -21.1500   -6.0508   25.9071 H   0  0  0  0  0  0
  -22.0597   -2.7610   23.2831 H   0  0  0  0  0  0
  -22.4097  -11.9827   22.4773 H   0  0  0  0  0  0
  -21.1079  -13.1176   22.2685 H   0  0  0  0  0  0
  -24.6346  -15.8365   20.5311 H   0  0  0  0  0  0
  -26.2415  -15.6385   20.0548 H   0  0  0  0  0  0
  -26.7285  -32.5324   23.1016 H   0  0  0  0  0  0
  -25.0191  -33.9636   25.0398 H   0  0  0  0  0  0
  -22.7423  -31.2964   21.3909 H   0  0  0  0  0  0
  -23.3768  -35.9556   23.3273 H   0  0  0  0  0  0
  -24.3568  -36.8887   22.2047 H   0  0  0  0  0  0
  -23.7231  -37.6434   23.6669 H   0  0  0  0  0  0
  -26.1531  -31.4806   20.6220 H   0  0  0  0  0  0
  -26.8671  -30.7683   22.0358 H   0  0  0  0  0  0
  -28.1186  -28.7910   21.2419 H   0  0  0  0  0  0
  -25.8926  -25.8881   18.9350 H   0  0  0  0  0  0
  -23.9676  -27.3291   18.9568 H   0  0  0  0  0  0
  -23.8144  -30.5917   19.4049 H   0  0  0  0  0  0
  -22.7795  -29.2657   19.8339 H   0  0  0  0  0  0
  -25.1314  -36.1860   25.0813 H   0  0  0  0  0  0
  -21.0007  -28.3322   24.1358 H   0  0  0  0  0  0
  -20.5670  -26.2342   23.3625 H   0  0  0  0  0  0
  -21.6672  -26.7445   22.1228 H   0  0  0  0  0  0
  -19.6949  -25.6285   21.1265 H   0  0  0  0  0  0
  -19.6736  -27.3161   20.6709 H   0  0  0  0  0  0
  -17.4236  -26.6689   21.3995 H   0  0  0  0  0  0
  -18.0357  -26.0068   22.8983 H   0  0  0  0  0  0
  -19.7949  -30.7275   24.2271 H   0  0  0  0  0  0
  -17.5031  -31.6273   24.5161 H   0  0  0  0  0  0
  -15.5365  -30.3006   23.7641 H   0  0  0  0  0  0
  -15.8687  -28.0810   22.7110 H   0  0  0  0  0  0
  -24.5980  -30.7019   25.7756 H   0  0  0  0  0  0
  -24.8816  -32.2951   26.4646 H   0  0  0  0  0  0
  -25.8011  -30.9118   27.0283 H   0  0  0  0  0  0
  -26.2985  -29.6679   24.1296 H   0  0  0  0  0  0
  -27.3977  -29.7251   25.4880 H   0  0  0  0  0  0
  -27.8929  -30.4152   23.9626 H   0  0  0  0  0  0
  -27.2750  -33.3667   26.1959 H   0  0  0  0  0  0
  -28.4004  -32.6705   25.0388 H   0  0  0  0  0  0
  -28.0650  -31.8464   26.5524 H   0  0  0  0  0  0
  -28.2588  -38.0099   24.7524 H   0  0  0  0  0  0
  -28.1098  -36.2628   24.6275 H   0  0  0  0  0  0
  -27.2300  -37.1426   25.8868 H   0  0  0  0  0  0
  -20.9418  -29.8770   21.6805 H   0  0  0  0  0  0
  -26.0146  -38.2824   24.1424 H   0  0  0  0  0  0
  -26.4713  -23.1313   22.3930 H   0  0  0  0  0  0
  -27.4544  -21.9172   23.1837 H   0  0  0  0  0  0
  -29.4576  -22.8867   22.4983 H   0  0  0  0  0  0
  -28.4974  -24.3491   22.3997 H   0  0  0  0  0  0
  -26.2749  -21.9295   20.4839 H   0  0  0  0  0  0
  -26.9080  -20.5529   21.3298 H   0  0  0  0  0  0
  -29.8669  -23.4590   20.2541 H   0  0  0  0  0  0
  -28.1092  -21.6390   19.1048 H   0  0  0  0  0  0
  -26.9510  -24.4554   20.1141 H   0  0  0  0  0  0
  -28.0600  -24.5904   18.7951 H   0  0  0  0  0  0
  -30.5526  -17.8504   21.4524 H   0  0  0  0  0  0
  -30.9106  -17.7976   19.7640 H   0  0  0  0  0  0
  -28.1417  -18.7561   20.8473 H   0  0  0  0  0  0
  -28.6457  -18.8576   19.1943 H   0  0  0  0  0  0
  -28.7607  -15.9300   20.5983 H   0  0  0  0  0  0
  -30.1744  -20.6503   19.8009 H   0  0  0  0  0  0
  -29.7306  -20.5785   21.3469 H   0  0  0  0  0  0
  1 25  1  0  0  0
  1 30  2  0  0  0
  1 79  1  0  0  0
  2  3  1  0  0  0
  2 25  1  0  0  0
  2 81  1  0  0  0
  2 82  1  0  0  0
  3  4  1  0  0  0
  3 83  1  0  0  0
  3 84  1  0  0  0
  4  5  1  0  0  0
  4 85  1  0  0  0
  4 86  1  0  0  0
  5  6  1  0  0  0
  5 26  1  0  0  0
  5 87  1  0  0  0
  6 25  1  0  0  0
  6 88  1  0  0  0
  6 89  1  0  0  0
  7  8  2  0  0  0
  7 26  1  0  0  0
  7 29  1  0  0  0
  8  9  1  0  0  0
  8 22  1  0  0  0
  9 10  1  0  0  0
  9 27  2  0  0  0
 10 11  2  0  0  0
 10 15  1  0  0  0
 11 12  1  0  0  0
 11 90  1  0  0  0
 12 13  2  0  0  0
 12 91  1  0  0  0
 13 14  1  0  0  0
 13 31  1  0  0  0
 14 15  2  0  0  0
 14 92  1  0  0  0
 15 93  1  0  0  0
 16 17  2  0  0  0
 16 21  1  0  0  0
 16 31  1  0  0  0
 17 18  1  0  0  0
 17 94  1  0  0  0
 18 19  2  0  0  0
 18 95  1  0  0  0
 19 20  1  0  0  0
 19 24  1  0  0  0
 20 21  2  0  0  0
 20 96  1  0  0  0
 21 23  1  0  0  0
 22 28  1  0  0  0
 22 32  2  0  0  0
 26 27  1  0  0  0
 28 97  1  0  0  0
 28 98  1  0  0  0
 29 99  1  0  0  0
 29100  1  0  0  0
 33 34  1  0  0  0
 33 66  1  0  0  0
 33 70  2  0  0  0
 34 36  1  0  0  0
 34 59  1  0  0  0
 34101  1  0  0  0
 35 44  2  0  0  0
 35 45  1  0  0  0
 35 68  1  0  0  0
 36 56  1  0  0  0
 36102  1  0  0  0
 37 39  1  0  0  0
 37 47  1  0  0  0
 37 66  1  0  0  0
 37103  1  0  0  0
 38 43  2  0  0  0
 38 46  1  0  0  0
 38 47  1  0  0  0
 39 64  1  0  0  0
 39 67  2  0  0  0
 40 52  1  0  0  0
 40 53  2  0  0  0
 40 58  1  0  0  0
 41104  1  0  0  0
 41105  1  0  0  0
 41106  1  0  0  0
 41 48  1  0  0  0
 42 43  1  0  0  0
 42 66  1  0  0  0
 42107  1  0  0  0
 42108  1  0  0  0
 43 44  1  0  0  0
 44109  1  0  0  0
 45 46  2  0  0  0
 45110  1  0  0  0
 46111  1  0  0  0
 47112  1  0  0  0
 47113  1  0  0  0
 48 56  1  0  0  0
 48 65  1  0  0  0
 48114  1  0  0  0
 49 50  1  0  0  0
 49 53  1  0  0  0
 49 64  1  0  0  0
 49115  1  0  0  0
 50 51  1  0  0  0
 50116  1  0  0  0
 50117  1  0  0  0
 51 52  1  0  0  0
 51118  1  0  0  0
 51119  1  0  0  0
 52120  1  0  0  0
 52121  1  0  0  0
 53 54  1  0  0  0
 54 55  2  0  0  0
 54122  1  0  0  0
 55 57  1  0  0  0
 55123  1  0  0  0
 56 69  2  0  0  0
 57 58  2  0  0  0
 57124  1  0  0  0
 58125  1  0  0  0
 59 60  1  0  0  0
 59 61  1  0  0  0
 59 62  1  0  0  0
 60126  1  0  0  0
 60127  1  0  0  0
 60128  1  0  0  0
 61129  1  0  0  0
 61130  1  0  0  0
 61131  1  0  0  0
 62132  1  0  0  0
 62133  1  0  0  0
 62134  1  0  0  0
 63 65  1  0  0  0
 63135  1  0  0  0
 63136  1  0  0  0
 63137  1  0  0  0
 64138  1  0  0  0
 65139  1  0  0  0
 68 76  1  0  0  0
 71 72  1  0  0  0
 71 73  1  0  0  0
 71140  1  0  0  0
 71141  1  0  0  0
 72 74  1  0  0  0
 72142  1  0  0  0
 72143  1  0  0  0
 73 75  1  0  0  0
 73144  1  0  0  0
 73145  1  0  0  0
 74 75  1  0  0  0
 74 76  1  0  0  0
 74146  1  0  0  0
 75 80  1  0  0  0
 75147  1  0  0  0
 76148  1  0  0  0
 76149  1  0  0  0
 77 78  1  0  0  0
 77 79  1  0  0  0
 77150  1  0  0  0
 77151  1  0  0  0
 78 80  1  0  0  0
 78152  1  0  0  0
 78153  1  0  0  0
 79154  1  0  0  0
 80155  1  0  0  0
 80156  1  0  0  0
M  CHG  1  80   1
M  ISO  4   1 100  68 101  76 101  79 100
M  END
> <chiral flag>
0

> <version>
0

> <s_m_source_file>
/data/baiqing/PycharmProjects/Reinvent-master-3.2/result/LINK_invent/BTK/process_docking_weight1_custom_sum_contain_oxygen_bond_distance_aromatic_linkinvent_7_9_3/rearranged_h_0128.sdf

> <i_m_source_file_index>
28

> <r_mmod_Potential_Energy-OPLS-2005>
353.899322509766

> <r_mmod_Stretch_Energy-OPLS-2005>
263.166900634766

> <r_mmod_Bend_Energy-OPLS-2005>
279.811431884766

> <r_mmod_Torsional_Energy-OPLS-2005>
274.928039550781

> <r_mmod_Improper_Torsional_Energy-OPLS-2005>
4.51597785949707

> <r_mmod_Van_der_Waal_Energy-OPLS-2005>
114.295310974121

> <r_mmod_Electrostatic_Energy-OPLS-2005>
-279.76806640625

> <r_mmod_Solvation_Energy-OPLS-2005>
-491.807067871094

> <b_mmod_Minimization_Converged-OPLS-2005>
0

> <r_mmod_RMS_Derivative-OPLS-2005>
3.00482654571533

$$$$
28
                    3D
 Structure written by MMmdl.
159168  0  0  1  0            999 V2000
  -30.6318  -14.6362   20.4978 C   0  0  0  0  0  0
  -30.4382  -12.3893   19.4504 C   0  0  0  0  0  0
  -29.5062  -12.5021   18.2228 C   0  0  0  0  0  0
  -28.0298  -12.3397   18.6377 C   0  0  0  0  0  0
  -27.6535  -13.2145   19.8626 C   0  0  2  0  0  0
  -28.6998  -13.0732   20.9913 C   0  0  0  0  0  0
  -25.2560  -13.8164   20.5671 C   0  0  0  0  0  0
  -24.1829  -13.0436   20.9200 C   0  0  0  0  0  0
  -24.6399  -11.6912   20.8759 C   0  0  0  0  0  0
  -23.9069  -10.4294   21.0420 C   0  0  0  0  0  0
  -24.3620   -9.4206   21.9197 C   0  0  0  0  0  0
  -23.6289   -8.2245   22.0760 C   0  0  0  0  0  0
  -22.4273   -8.0287   21.3549 C   0  0  0  0  0  0
  -21.9916   -9.0263   20.4650 C   0  0  0  0  0  0
  -22.7246  -10.2139   20.3062 C   0  0  0  0  0  0
  -21.6850   -6.0742   22.5278 C   0  0  0  0  0  0
  -21.4012   -6.5644   23.8216 C   0  0  0  0  0  0
  -21.3657   -5.6792   24.9175 C   0  0  0  0  0  0
  -21.6041   -4.3056   24.7221 C   0  0  0  0  0  0
  -21.8820   -3.8150   23.4343 C   0  0  0  0  0  0
  -21.9194   -4.6970   22.3401 C   0  0  0  0  0  0
  -22.7850  -13.5232   21.1858 C   0  0  0  0  0  0
  -22.1659   -4.2161   21.0976 F   0  0  0  0  0  0
  -21.5634   -3.4538   25.7732 F   0  0  0  0  0  0
  -30.0161  -13.4130   20.4268 N   0  0  0  0  0  0
  -26.2992  -12.9343   20.3321 N   0  0  0  0  0  0
  -25.9326  -11.6507   20.5774 N   0  0  0  0  0  0
  -22.0481  -12.8230   22.0408 N   0  0  0  0  0  0
  -25.4267  -15.1883   20.4026 N   0  0  0  0  0  0
  -31.8032  -14.7758   20.1290 O   0  0  0  0  0  0
  -21.6634   -6.8885   21.4238 O   0  0  0  0  0  0
  -22.3552  -14.5550   20.6711 O   0  0  0  0  0  0
  -24.6261  -31.8596   23.2027 C   0  0  0  0  0  0
  -25.9120  -32.4776   23.8342 C   0  0  1  0  0  0
  -27.2241  -27.3253   20.1149 C   0  0  0  0  0  0
  -25.5942  -33.8575   24.2279 N   0  0  0  0  0  0
  -23.4177  -30.4843   21.5461 C   0  0  2  0  0  0
  -24.8630  -28.9417   20.1098 C   0  0  0  0  0  0
  -22.7476  -29.4625   22.4950 C   0  0  0  0  0  0
  -18.0287  -28.1375   22.8484 C   0  0  0  0  0  0
  -24.1490  -36.7280   23.2641 C   0  0  0  0  0  0
  -25.9581  -30.7930   21.3720 C   0  0  0  0  0  0
  -26.0316  -29.4217   20.7137 C   0  0  0  0  0  0
  -27.2132  -28.6249   20.7076 C   0  0  0  0  0  0
  -26.0314  -26.8979   19.4839 C   0  0  0  0  0  0
  -24.8654  -27.6850   19.4869 C   0  0  0  0  0  0
  -23.6306  -29.8204   20.1605 C   0  0  0  0  0  0
  -25.4110  -36.3074   24.0337 C   0  0  1  0  0  0
  -20.5886  -28.3670   23.1284 C   0  0  2  0  0  0
  -20.6776  -26.9397   22.5405 C   0  0  0  0  0  0
  -19.5750  -26.6373   21.5212 C   0  0  0  0  0  0
  -18.1926  -26.7918   22.1619 C   0  0  0  0  0  0
  -19.1544  -28.8839   23.2879 C   0  0  0  0  0  0
  -18.9468  -30.1442   23.8889 C   0  0  0  0  0  0
  -17.6471  -30.6573   24.0559 C   0  0  0  0  0  0
  -25.9053  -34.9453   23.5099 C   0  0  0  0  0  0
  -16.5359  -29.9072   23.6332 C   0  0  0  0  0  0
  -16.7277  -28.6497   23.0341 C   0  0  0  0  0  0
  -26.4507  -31.6580   25.0708 C   0  0  0  0  0  0
  -25.3748  -31.3713   26.1434 C   0  0  0  0  0  0
  -27.0358  -30.3015   24.6135 C   0  0  0  0  0  0
  -27.6055  -32.4319   25.7493 C   0  0  0  0  0  0
  -27.5575  -37.1788   24.8467 C   0  0  0  0  0  0
  -21.4188  -29.3042   22.3697 N   0  0  0  0  0  0
  -26.4284  -37.3776   23.9421 N   0  0  0  0  0  0
  -24.6862  -31.0614   22.0978 N   0  0  0  0  0  0
  -23.4205  -28.8155   23.3017 O   0  0  0  0  0  0
  -28.3474  -26.4852   20.1736 O   0  0  0  0  0  0
  -26.5612  -34.8919   22.4658 O   0  0  0  0  0  0
  -23.5428  -32.1391   23.7367 O   0  0  0  0  0  0
  -28.8000  -19.3316   20.9265 C   0  0  0  0  0  0
  -28.7758  -17.9075   20.9407 C   0  0  0  0  0  0
  -30.0085  -20.0321   20.6956 C   0  0  0  0  0  0
  -31.1348  -19.1809   20.4762 C   0  0  0  0  0  0
  -29.9477  -17.1359   20.7286 C   0  0  0  0  0  0
  -32.5232  -19.7613   20.2777 C   0  0  0  0  0  0
  -32.6820  -21.1124   20.9760 C   0  0  0  0  0  0
  -31.5869  -22.0859   20.5300 C   0  0  0  0  0  0
  -30.1511  -21.6077   20.8690 C   0  0  1  0  0  0
  -29.3140  -24.0510   20.4755 C   0  0  0  0  0  0
  -28.1493  -25.0253   20.0114 C   0  0  0  0  0  0
  -31.0983  -17.8125   20.4825 N   0  0  0  0  0  0
  -29.8125  -15.6868   20.8189 N   0  0  0  0  0  0
  -29.1245  -22.5474   20.2474 N   0  3  0  0  0  0
  -31.4794  -12.5120   19.1474 H   0  0  0  0  0  0
  -30.3733  -11.3955   19.8954 H   0  0  0  0  0  0
  -29.7695  -11.7479   17.4798 H   0  0  0  0  0  0
  -29.6458  -13.4691   17.7370 H   0  0  0  0  0  0
  -27.8690  -11.2870   18.8739 H   0  0  0  0  0  0
  -27.3732  -12.5639   17.7967 H   0  0  0  0  0  0
  -27.6697  -14.2476   19.5162 H   0  0  0  0  0  0
  -28.7115  -12.0527   21.3763 H   0  0  0  0  0  0
  -28.4467  -13.7067   21.8427 H   0  0  0  0  0  0
  -25.2765   -9.5683   22.4775 H   0  0  0  0  0  0
  -24.0001   -7.4633   22.7475 H   0  0  0  0  0  0
  -21.0856   -8.8783   19.8945 H   0  0  0  0  0  0
  -22.3714  -10.9685   19.6173 H   0  0  0  0  0  0
  -21.1998   -7.6152   23.9722 H   0  0  0  0  0  0
  -21.1475   -6.0520   25.9079 H   0  0  0  0  0  0
  -22.0600   -2.7613   23.2834 H   0  0  0  0  0  0
  -22.4073  -11.9873   22.4777 H   0  0  0  0  0  0
  -21.1099  -13.1268   22.2599 H   0  0  0  0  0  0
  -24.6473  -15.8323   20.4827 H   0  0  0  0  0  0
  -26.2509  -15.6168   20.0021 H   0  0  0  0  0  0
  -26.7178  -32.5441   23.1077 H   0  0  0  0  0  0
  -25.0119  -33.9717   25.0442 H   0  0  0  0  0  0
  -22.7111  -31.3054   21.4040 H   0  0  0  0  0  0
  -23.3768  -35.9602   23.3297 H   0  0  0  0  0  0
  -24.3580  -36.8900   22.2057 H   0  0  0  0  0  0
  -23.7231  -37.6476   23.6657 H   0  0  0  0  0  0
  -26.0845  -31.5586   20.6049 H   0  0  0  0  0  0
  -26.8404  -30.8395   21.9993 H   0  0  0  0  0  0
  -28.1082  -28.9883   21.1934 H   0  0  0  0  0  0
  -25.9673  -25.9403   18.9886 H   0  0  0  0  0  0
  -23.9712  -27.3110   19.0091 H   0  0  0  0  0  0
  -23.7471  -30.5976   19.4047 H   0  0  0  0  0  0
  -22.7506  -29.2504   19.8569 H   0  0  0  0  0  0
  -25.1291  -36.1920   25.0834 H   0  0  0  0  0  0
  -20.9960  -28.3226   24.1410 H   0  0  0  0  0  0
  -20.5671  -26.2281   23.3600 H   0  0  0  0  0  0
  -21.6634  -26.7413   22.1190 H   0  0  0  0  0  0
  -19.6916  -25.6295   21.1212 H   0  0  0  0  0  0
  -19.6683  -27.3205   20.6766 H   0  0  0  0  0  0
  -17.4196  -26.6675   21.4023 H   0  0  0  0  0  0
  -18.0312  -26.0053   22.9003 H   0  0  0  0  0  0
  -19.7957  -30.7255   24.2241 H   0  0  0  0  0  0
  -17.5037  -31.6255   24.5157 H   0  0  0  0  0  0
  -15.5363  -30.2970   23.7679 H   0  0  0  0  0  0
  -15.8672  -28.0817   22.7055 H   0  0  0  0  0  0
  -24.5923  -30.7062   25.7756 H   0  0  0  0  0  0
  -24.8946  -32.2890   26.4849 H   0  0  0  0  0  0
  -25.8072  -30.8885   27.0208 H   0  0  0  0  0  0
  -26.2922  -29.6759   24.1176 H   0  0  0  0  0  0
  -27.4120  -29.7261   25.4605 H   0  0  0  0  0  0
  -27.8762  -30.4335   23.9315 H   0  0  0  0  0  0
  -27.2645  -33.3620   26.2054 H   0  0  0  0  0  0
  -28.3881  -32.6867   25.0335 H   0  0  0  0  0  0
  -28.0702  -31.8459   26.5431 H   0  0  0  0  0  0
  -28.2564  -38.0111   24.7524 H   0  0  0  0  0  0
  -28.1094  -36.2633   24.6267 H   0  0  0  0  0  0
  -27.2292  -37.1405   25.8870 H   0  0  0  0  0  0
  -20.9369  -29.8790   21.6925 H   0  0  0  0  0  0
  -26.0164  -38.2850   24.1436 H   0  0  0  0  0  0
  -27.8904  -19.8760   21.1336 H   0  0  0  0  0  0
  -27.8342  -17.4142   21.1396 H   0  0  0  0  0  0
  -32.7028  -19.8672   19.2070 H   0  0  0  0  0  0
  -33.2777  -19.0672   20.6512 H   0  0  0  0  0  0
  -33.6675  -21.5276   20.7621 H   0  0  0  0  0  0
  -32.6321  -20.9742   22.0572 H   0  0  0  0  0  0
  -31.6776  -22.2278   19.4520 H   0  0  0  0  0  0
  -31.7843  -23.0572   20.9842 H   0  0  0  0  0  0
  -30.0371  -21.7481   21.9459 H   0  0  0  0  0  0
  -29.4887  -24.2175   21.5385 H   0  0  0  0  0  0
  -30.2217  -24.3687   19.9629 H   0  0  0  0  0  0
  -27.2521  -24.7336   20.5604 H   0  0  0  0  0  0
  -27.9495  -24.8328   18.9565 H   0  0  0  0  0  0
  -28.8932  -15.3799   21.0891 H   0  0  0  0  0  0
  -28.2212  -22.2904   20.6130 H   0  0  0  0  0  0
  -29.0955  -22.3746   19.2538 H   0  0  0  0  0  0
  1 25  1  0  0  0
  1 30  2  0  0  0
  1 83  1  0  0  0
  2  3  1  0  0  0
  2 25  1  0  0  0
  2 85  1  0  0  0
  2 86  1  0  0  0
  3  4  1  0  0  0
  3 87  1  0  0  0
  3 88  1  0  0  0
  4  5  1  0  0  0
  4 89  1  0  0  0
  4 90  1  0  0  0
  5  6  1  0  0  0
  5 26  1  0  0  0
  5 91  1  0  0  0
  6 25  1  0  0  0
  6 92  1  0  0  0
  6 93  1  0  0  0
  7  8  2  0  0  0
  7 26  1  0  0  0
  7 29  1  0  0  0
  8  9  1  0  0  0
  8 22  1  0  0  0
  9 10  1  0  0  0
  9 27  2  0  0  0
 10 11  2  0  0  0
 10 15  1  0  0  0
 11 12  1  0  0  0
 11 94  1  0  0  0
 12 13  2  0  0  0
 12 95  1  0  0  0
 13 14  1  0  0  0
 13 31  1  0  0  0
 14 15  2  0  0  0
 14 96  1  0  0  0
 15 97  1  0  0  0
 16 17  2  0  0  0
 16 21  1  0  0  0
 16 31  1  0  0  0
 17 18  1  0  0  0
 17 98  1  0  0  0
 18 19  2  0  0  0
 18 99  1  0  0  0
 19 20  1  0  0  0
 19 24  1  0  0  0
 20 21  2  0  0  0
 20100  1  0  0  0
 21 23  1  0  0  0
 22 28  1  0  0  0
 22 32  2  0  0  0
 26 27  1  0  0  0
 28101  1  0  0  0
 28102  1  0  0  0
 29103  1  0  0  0
 29104  1  0  0  0
 33 34  1  0  0  0
 33 66  1  0  0  0
 33 70  2  0  0  0
 34 36  1  0  0  0
 34 59  1  0  0  0
 34105  1  0  0  0
 35 44  2  0  0  0
 35 45  1  0  0  0
 35 68  1  0  0  0
 36 56  1  0  0  0
 36106  1  0  0  0
 37 39  1  0  0  0
 37 47  1  0  0  0
 37 66  1  0  0  0
 37107  1  0  0  0
 38 43  2  0  0  0
 38 46  1  0  0  0
 38 47  1  0  0  0
 39 64  1  0  0  0
 39 67  2  0  0  0
 40 52  1  0  0  0
 40 53  2  0  0  0
 40 58  1  0  0  0
 41108  1  0  0  0
 41109  1  0  0  0
 41110  1  0  0  0
 41 48  1  0  0  0
 42 43  1  0  0  0
 42 66  1  0  0  0
 42111  1  0  0  0
 42112  1  0  0  0
 43 44  1  0  0  0
 44113  1  0  0  0
 45 46  2  0  0  0
 45114  1  0  0  0
 46115  1  0  0  0
 47116  1  0  0  0
 47117  1  0  0  0
 48 56  1  0  0  0
 48 65  1  0  0  0
 48118  1  0  0  0
 49 50  1  0  0  0
 49 53  1  0  0  0
 49 64  1  0  0  0
 49119  1  0  0  0
 50 51  1  0  0  0
 50120  1  0  0  0
 50121  1  0  0  0
 51 52  1  0  0  0
 51122  1  0  0  0
 51123  1  0  0  0
 52124  1  0  0  0
 52125  1  0  0  0
 53 54  1  0  0  0
 54 55  2  0  0  0
 54126  1  0  0  0
 55 57  1  0  0  0
 55127  1  0  0  0
 56 69  2  0  0  0
 57 58  2  0  0  0
 57128  1  0  0  0
 58129  1  0  0  0
 59 60  1  0  0  0
 59 61  1  0  0  0
 59 62  1  0  0  0
 60130  1  0  0  0
 60131  1  0  0  0
 60132  1  0  0  0
 61133  1  0  0  0
 61134  1  0  0  0
 61135  1  0  0  0
 62136  1  0  0  0
 62137  1  0  0  0
 62138  1  0  0  0
 63 65  1  0  0  0
 63139  1  0  0  0
 63140  1  0  0  0
 63141  1  0  0  0
 64142  1  0  0  0
 65143  1  0  0  0
 68 81  1  0  0  0
 71 72  2  0  0  0
 71 73  1  0  0  0
 71144  1  0  0  0
 72 75  1  0  0  0
 72145  1  0  0  0
 73 74  2  0  0  0
 73 79  1  0  0  0
 74 76  1  0  0  0
 74 82  1  0  0  0
 75 82  2  0  0  0
 75 83  1  0  0  0
 76 77  1  0  0  0
 76146  1  0  0  0
 76147  1  0  0  0
 77 78  1  0  0  0
 77148  1  0  0  0
 77149  1  0  0  0
 78 79  1  0  0  0
 78150  1  0  0  0
 78151  1  0  0  0
 79 84  1  0  0  0
 79152  1  0  0  0
 80 81  1  0  0  0
 80 84  1  0  0  0
 80153  1  0  0  0
 80154  1  0  0  0
 81155  1  0  0  0
 81156  1  0  0  0
 83157  1  0  0  0
 84158  1  0  0  0
 84159  1  0  0  0
M  CHG  1  84   1
M  ISO  4   1 100  68 101  81 101  83 100
M  END
> <chiral flag>
0

> <version>
0

> <s_m_source_file>
/data/baiqing/PycharmProjects/Reinvent-master-3.2/result/LINK_invent/BTK/process_docking_weight1_custom_sum_contain_oxygen_bond_distance_aromatic_linkinvent_7_9_3/rearranged_h_0128.sdf

> <i_m_source_file_index>
29

> <r_mmod_Potential_Energy-OPLS-2005>
-216.228713989258

> <r_mmod_Stretch_Energy-OPLS-2005>
81.1033248901367

> <r_mmod_Bend_Energy-OPLS-2005>
140.810348510742

> <r_mmod_Torsional_Energy-OPLS-2005>
208.051544189453

> <r_mmod_Improper_Torsional_Energy-OPLS-2005>
5.56407833099365

> <r_mmod_Van_der_Waal_Energy-OPLS-2005>
152.399978637695

> <r_mmod_Electrostatic_Energy-OPLS-2005>
-363.438568115234

> <r_mmod_Solvation_Energy-OPLS-2005>
-487.222595214844

> <b_mmod_Minimization_Converged-OPLS-2005>
0

> <r_mmod_RMS_Derivative-OPLS-2005>
1.53640699386597

$$$$
29
                    3D
 Structure written by MMmdl.
160168  0  0  1  0            999 V2000
  -30.6777  -14.6367   20.4930 C   0  0  0  0  0  0
  -30.4218  -12.3931   19.4561 C   0  0  0  0  0  0
  -29.4979  -12.4905   18.2241 C   0  0  0  0  0  0
  -28.0246  -12.3293   18.6447 C   0  0  0  0  0  0
  -27.6464  -13.2222   19.8565 C   0  0  2  0  0  0
  -28.6951  -13.1256   20.9874 C   0  0  0  0  0  0
  -25.2531  -13.8193   20.5694 C   0  0  0  0  0  0
  -24.1811  -13.0446   20.9208 C   0  0  0  0  0  0
  -24.6384  -11.6914   20.8751 C   0  0  0  0  0  0
  -23.9051  -10.4299   21.0404 C   0  0  0  0  0  0
  -24.3605   -9.4213   21.9183 C   0  0  0  0  0  0
  -23.6288   -8.2243   22.0759 C   0  0  0  0  0  0
  -22.4269   -8.0276   21.3545 C   0  0  0  0  0  0
  -21.9901   -9.0242   20.4645 C   0  0  0  0  0  0
  -22.7229  -10.2131   20.3052 C   0  0  0  0  0  0
  -21.6847   -6.0726   22.5279 C   0  0  0  0  0  0
  -21.4011   -6.5639   23.8209 C   0  0  0  0  0  0
  -21.3660   -5.6796   24.9179 C   0  0  0  0  0  0
  -21.6043   -4.3059   24.7236 C   0  0  0  0  0  0
  -21.8816   -3.8139   23.4357 C   0  0  0  0  0  0
  -21.9199   -4.6951   22.3406 C   0  0  0  0  0  0
  -22.7833  -13.5230   21.1867 C   0  0  0  0  0  0
  -22.1660   -4.2133   21.0986 F   0  0  0  0  0  0
  -21.5633   -3.4544   25.7749 F   0  0  0  0  0  0
  -30.0055  -13.4455   20.4047 N   0  0  0  0  0  0
  -26.2954  -12.9372   20.3326 N   0  0  0  0  0  0
  -25.9316  -11.6522   20.5783 N   0  0  0  0  0  0
  -22.0487  -12.8211   22.0416 N   0  0  0  0  0  0
  -25.4257  -15.1904   20.4096 N   0  0  0  0  0  0
  -31.8550  -14.7247   20.1390 O   0  0  0  0  0  0
  -21.6646   -6.8861   21.4235 O   0  0  0  0  0  0
  -22.3520  -14.5545   20.6731 O   0  0  0  0  0  0
  -24.6283  -31.8593   23.2067 C   0  0  0  0  0  0
  -25.9122  -32.4787   23.8392 C   0  0  1  0  0  0
  -27.2124  -27.2989   20.1056 C   0  0  0  0  0  0
  -25.5937  -33.8587   24.2311 N   0  0  0  0  0  0
  -23.4232  -30.4900   21.5494 C   0  0  2  0  0  0
  -24.8662  -28.9546   20.1092 C   0  0  0  0  0  0
  -22.7485  -29.4644   22.4923 C   0  0  0  0  0  0
  -18.0289  -28.1381   22.8499 C   0  0  0  0  0  0
  -24.1477  -36.7282   23.2647 C   0  0  0  0  0  0
  -25.9703  -30.7803   21.3875 C   0  0  0  0  0  0
  -26.0395  -29.4091   20.7256 C   0  0  0  0  0  0
  -27.2131  -28.5908   20.7259 C   0  0  0  0  0  0
  -26.0182  -26.9341   19.4310 C   0  0  0  0  0  0
  -24.8588  -27.7199   19.4547 C   0  0  0  0  0  0
  -23.6372  -29.8361   20.1617 C   0  0  0  0  0  0
  -25.4097  -36.3099   24.0352 C   0  0  1  0  0  0
  -20.5897  -28.3697   23.1255 C   0  0  2  0  0  0
  -20.6779  -26.9417   22.5396 C   0  0  0  0  0  0
  -19.5747  -26.6379   21.5211 C   0  0  0  0  0  0
  -18.1930  -26.7930   22.1619 C   0  0  0  0  0  0
  -19.1553  -28.8855   23.2878 C   0  0  0  0  0  0
  -18.9473  -30.1458   23.8900 C   0  0  0  0  0  0
  -17.6472  -30.6591   24.0574 C   0  0  0  0  0  0
  -25.9044  -34.9460   23.5130 C   0  0  0  0  0  0
  -16.5359  -29.9092   23.6341 C   0  0  0  0  0  0
  -16.7276  -28.6499   23.0378 C   0  0  0  0  0  0
  -26.4498  -31.6594   25.0770 C   0  0  0  0  0  0
  -25.3731  -31.3722   26.1497 C   0  0  0  0  0  0
  -27.0377  -30.3034   24.6232 C   0  0  0  0  0  0
  -27.6056  -32.4352   25.7517 C   0  0  0  0  0  0
  -27.5573  -37.1802   24.8478 C   0  0  0  0  0  0
  -21.4199  -29.3063   22.3655 N   0  0  0  0  0  0
  -26.4283  -37.3789   23.9434 N   0  0  0  0  0  0
  -24.6935  -31.0601   22.1026 N   0  0  0  0  0  0
  -23.4200  -28.8164   23.2995 O   0  0  0  0  0  0
  -28.2891  -26.3835   20.1915 O   0  0  0  0  0  0
  -26.5604  -34.8928   22.4691 O   0  0  0  0  0  0
  -23.5430  -32.1392   23.7370 O   0  0  0  0  0  0
  -28.2838  -22.9844   21.4318 C   0  0  0  0  0  0
  -28.7208  -21.6599   21.7077 C   0  0  0  0  0  0
  -28.7419  -23.6860   20.2887 C   0  0  0  0  0  0
  -29.6794  -22.9597   19.4902 C   0  0  0  0  0  0
  -29.6061  -21.0017   20.8320 C   0  0  0  0  0  0
  -32.4633  -24.8469   17.5032 C   0  0  0  0  0  0
  -27.9688  -24.9783   19.8155 C   0  0  0  0  0  0
  -30.3680  -23.5917   18.2879 C   0  0  0  0  0  0
  -31.6996  -24.2487   18.6913 C   0  0  0  0  0  0
  -29.6315  -18.4287   20.5739 C   0  0  0  0  0  0
  -30.5336  -17.1620   20.9353 C   0  0  0  0  0  0
  -30.0810  -21.6712   19.7539 N   0  0  0  0  0  0
  -30.1380  -19.7142   21.1404 N   0  0  0  0  0  0
  -29.9709  -15.7685   20.8050 N   0  0  0  0  0  0
  -31.4650  -12.4909   19.1522 H   0  0  0  0  0  0
  -30.3394  -11.4106   19.9227 H   0  0  0  0  0  0
  -29.7614  -11.7250   17.4933 H   0  0  0  0  0  0
  -29.6355  -13.4507   17.7248 H   0  0  0  0  0  0
  -27.8710  -11.2796   18.8994 H   0  0  0  0  0  0
  -27.3641  -12.5343   17.8017 H   0  0  0  0  0  0
  -27.6531  -14.2486   19.4894 H   0  0  0  0  0  0
  -28.7097  -12.1237   21.4191 H   0  0  0  0  0  0
  -28.4479  -13.8047   21.8044 H   0  0  0  0  0  0
  -25.2744   -9.5707   22.4764 H   0  0  0  0  0  0
  -24.0000   -7.4641   22.7482 H   0  0  0  0  0  0
  -21.0831   -8.8751   19.8944 H   0  0  0  0  0  0
  -22.3672  -10.9664   19.6160 H   0  0  0  0  0  0
  -21.1988   -7.6148   23.9708 H   0  0  0  0  0  0
  -21.1481   -6.0533   25.9083 H   0  0  0  0  0  0
  -22.0590   -2.7596   23.2873 H   0  0  0  0  0  0
  -22.4107  -11.9856   22.4768 H   0  0  0  0  0  0
  -21.1101  -13.1222   22.2637 H   0  0  0  0  0  0
  -24.6604  -15.8488   20.5150 H   0  0  0  0  0  0
  -26.2766  -15.6251   20.0750 H   0  0  0  0  0  0
  -26.7192  -32.5435   23.1141 H   0  0  0  0  0  0
  -25.0153  -33.9735   25.0503 H   0  0  0  0  0  0
  -22.7200  -31.3129   21.4092 H   0  0  0  0  0  0
  -23.3763  -35.9597   23.3315 H   0  0  0  0  0  0
  -24.3580  -36.8877   22.2064 H   0  0  0  0  0  0
  -23.7190  -37.6470   23.6652 H   0  0  0  0  0  0
  -26.1132  -31.5425   20.6212 H   0  0  0  0  0  0
  -26.8483  -30.8231   22.0203 H   0  0  0  0  0  0
  -28.1027  -28.9259   21.2402 H   0  0  0  0  0  0
  -25.9224  -26.0140   18.8770 H   0  0  0  0  0  0
  -23.9659  -27.3716   18.9534 H   0  0  0  0  0  0
  -23.7616  -30.6193   19.4129 H   0  0  0  0  0  0
  -22.7569  -29.2701   19.8509 H   0  0  0  0  0  0
  -25.1262  -36.1979   25.0844 H   0  0  0  0  0  0
  -20.9995  -28.3278   24.1369 H   0  0  0  0  0  0
  -20.5686  -26.2308   23.3601 H   0  0  0  0  0  0
  -21.6639  -26.7448   22.1171 H   0  0  0  0  0  0
  -19.6914  -25.6287   21.1242 H   0  0  0  0  0  0
  -19.6689  -27.3195   20.6747 H   0  0  0  0  0  0
  -17.4197  -26.6704   21.4024 H   0  0  0  0  0  0
  -18.0330  -26.0052   22.8987 H   0  0  0  0  0  0
  -19.7952  -30.7287   24.2249 H   0  0  0  0  0  0
  -17.5031  -31.6274   24.5175 H   0  0  0  0  0  0
  -15.5369  -30.3011   23.7666 H   0  0  0  0  0  0
  -15.8662  -28.0825   22.7112 H   0  0  0  0  0  0
  -24.5932  -30.7031   25.7839 H   0  0  0  0  0  0
  -24.8882  -32.2868   26.4916 H   0  0  0  0  0  0
  -25.8055  -30.8922   27.0286 H   0  0  0  0  0  0
  -26.2965  -29.6770   24.1254 H   0  0  0  0  0  0
  -27.4081  -29.7313   25.4747 H   0  0  0  0  0  0
  -27.8835  -30.4348   23.9484 H   0  0  0  0  0  0
  -27.2680  -33.3686   26.2033 H   0  0  0  0  0  0
  -28.3885  -32.6845   25.0346 H   0  0  0  0  0  0
  -28.0708  -31.8511   26.5469 H   0  0  0  0  0  0
  -28.2600  -38.0098   24.7544 H   0  0  0  0  0  0
  -28.1055  -36.2628   24.6276 H   0  0  0  0  0  0
  -27.2298  -37.1406   25.8884 H   0  0  0  0  0  0
  -20.9359  -29.8826   21.6914 H   0  0  0  0  0  0
  -26.0172  -38.2870   24.1438 H   0  0  0  0  0  0
  -27.5449  -23.4358   22.0791 H   0  0  0  0  0  0
  -28.3465  -21.1595   22.5909 H   0  0  0  0  0  0
  -33.3891  -25.3191   17.8334 H   0  0  0  0  0  0
  -31.8710  -25.6048   16.9913 H   0  0  0  0  0  0
  -32.7270  -24.0766   16.7777 H   0  0  0  0  0  0
  -26.9774  -24.7592   20.2149 H   0  0  0  0  0  0
  -27.8606  -24.9292   18.7333 H   0  0  0  0  0  0
  -29.7269  -24.3233   17.8011 H   0  0  0  0  0  0
  -30.5538  -22.8218   17.5375 H   0  0  0  0  0  0
  -31.5070  -25.0254   19.4325 H   0  0  0  0  0  0
  -32.3326  -23.5097   19.1835 H   0  0  0  0  0  0
  -28.6240  -18.2780   20.9640 H   0  0  0  0  0  0
  -29.5331  -18.5232   19.4917 H   0  0  0  0  0  0
  -30.8390  -17.2485   21.9792 H   0  0  0  0  0  0
  -31.4584  -17.2349   20.3612 H   0  0  0  0  0  0
  -30.2184  -19.6073   22.1465 H   0  0  0  0  0  0
  -28.9946  -15.6449   21.0282 H   0  0  0  0  0  0
  1 25  1  0  0  0
  1 30  2  0  0  0
  1 84  1  0  0  0
  2  3  1  0  0  0
  2 25  1  0  0  0
  2 85  1  0  0  0
  2 86  1  0  0  0
  3  4  1  0  0  0
  3 87  1  0  0  0
  3 88  1  0  0  0
  4  5  1  0  0  0
  4 89  1  0  0  0
  4 90  1  0  0  0
  5  6  1  0  0  0
  5 26  1  0  0  0
  5 91  1  0  0  0
  6 25  1  0  0  0
  6 92  1  0  0  0
  6 93  1  0  0  0
  7  8  2  0  0  0
  7 26  1  0  0  0
  7 29  1  0  0  0
  8  9  1  0  0  0
  8 22  1  0  0  0
  9 10  1  0  0  0
  9 27  2  0  0  0
 10 11  2  0  0  0
 10 15  1  0  0  0
 11 12  1  0  0  0
 11 94  1  0  0  0
 12 13  2  0  0  0
 12 95  1  0  0  0
 13 14  1  0  0  0
 13 31  1  0  0  0
 14 15  2  0  0  0
 14 96  1  0  0  0
 15 97  1  0  0  0
 16 17  2  0  0  0
 16 21  1  0  0  0
 16 31  1  0  0  0
 17 18  1  0  0  0
 17 98  1  0  0  0
 18 19  2  0  0  0
 18 99  1  0  0  0
 19 20  1  0  0  0
 19 24  1  0  0  0
 20 21  2  0  0  0
 20100  1  0  0  0
 21 23  1  0  0  0
 22 28  1  0  0  0
 22 32  2  0  0  0
 26 27  1  0  0  0
 28101  1  0  0  0
 28102  1  0  0  0
 29103  1  0  0  0
 29104  1  0  0  0
 33 34  1  0  0  0
 33 66  1  0  0  0
 33 70  2  0  0  0
 34 36  1  0  0  0
 34 59  1  0  0  0
 34105  1  0  0  0
 35 44  2  0  0  0
 35 45  1  0  0  0
 35 68  1  0  0  0
 36 56  1  0  0  0
 36106  1  0  0  0
 37 39  1  0  0  0
 37 47  1  0  0  0
 37 66  1  0  0  0
 37107  1  0  0  0
 38 43  2  0  0  0
 38 46  1  0  0  0
 38 47  1  0  0  0
 39 64  1  0  0  0
 39 67  2  0  0  0
 40 52  1  0  0  0
 40 53  2  0  0  0
 40 58  1  0  0  0
 41108  1  0  0  0
 41109  1  0  0  0
 41110  1  0  0  0
 41 48  1  0  0  0
 42 43  1  0  0  0
 42 66  1  0  0  0
 42111  1  0  0  0
 42112  1  0  0  0
 43 44  1  0  0  0
 44113  1  0  0  0
 45 46  2  0  0  0
 45114  1  0  0  0
 46115  1  0  0  0
 47116  1  0  0  0
 47117  1  0  0  0
 48 56  1  0  0  0
 48 65  1  0  0  0
 48118  1  0  0  0
 49 50  1  0  0  0
 49 53  1  0  0  0
 49 64  1  0  0  0
 49119  1  0  0  0
 50 51  1  0  0  0
 50120  1  0  0  0
 50121  1  0  0  0
 51 52  1  0  0  0
 51122  1  0  0  0
 51123  1  0  0  0
 52124  1  0  0  0
 52125  1  0  0  0
 53 54  1  0  0  0
 54 55  2  0  0  0
 54126  1  0  0  0
 55 57  1  0  0  0
 55127  1  0  0  0
 56 69  2  0  0  0
 57 58  2  0  0  0
 57128  1  0  0  0
 58129  1  0  0  0
 59 60  1  0  0  0
 59 61  1  0  0  0
 59 62  1  0  0  0
 60130  1  0  0  0
 60131  1  0  0  0
 60132  1  0  0  0
 61133  1  0  0  0
 61134  1  0  0  0
 61135  1  0  0  0
 62136  1  0  0  0
 62137  1  0  0  0
 62138  1  0  0  0
 63 65  1  0  0  0
 63139  1  0  0  0
 63140  1  0  0  0
 63141  1  0  0  0
 64142  1  0  0  0
 65143  1  0  0  0
 68 77  1  0  0  0
 71 72  2  0  0  0
 71 73  1  0  0  0
 71144  1  0  0  0
 72 75  1  0  0  0
 72145  1  0  0  0
 73 74  2  0  0  0
 73 77  1  0  0  0
 74 78  1  0  0  0
 74 82  1  0  0  0
 75 82  2  0  0  0
 75 83  1  0  0  0
 76 79  1  0  0  0
 76146  1  0  0  0
 76147  1  0  0  0
 76148  1  0  0  0
 77149  1  0  0  0
 77150  1  0  0  0
 78 79  1  0  0  0
 78151  1  0  0  0
 78152  1  0  0  0
 79153  1  0  0  0
 79154  1  0  0  0
 80 81  1  0  0  0
 80 83  1  0  0  0
 80155  1  0  0  0
 80156  1  0  0  0
 81 84  1  0  0  0
 81157  1  0  0  0
 81158  1  0  0  0
 83159  1  0  0  0
 84160  1  0  0  0
M  ISO  4   1 100  68 101  77 101  84 100
M  END
> <chiral flag>
0

> <version>
0

> <s_m_source_file>
/data/baiqing/PycharmProjects/Reinvent-master-3.2/result/LINK_invent/BTK/process_docking_weight1_custom_sum_contain_oxygen_bond_distance_aromatic_linkinvent_7_9_3/rearranged_h_0128.sdf

> <i_m_source_file_index>
30

> <r_mmod_Potential_Energy-OPLS-2005>
-151.504455566406

> <r_mmod_Stretch_Energy-OPLS-2005>
80.2975158691406

> <r_mmod_Bend_Energy-OPLS-2005>
154.881942749023

> <r_mmod_Torsional_Energy-OPLS-2005>
230.986801147461

> <r_mmod_Improper_Torsional_Energy-OPLS-2005>
11.9452838897705

> <r_mmod_Van_der_Waal_Energy-OPLS-2005>
156.044128417969

> <r_mmod_Electrostatic_Energy-OPLS-2005>
-600.056945800781

> <r_mmod_Solvation_Energy-OPLS-2005>
-246.50341796875

> <b_mmod_Minimization_Converged-OPLS-2005>
0

> <r_mmod_RMS_Derivative-OPLS-2005>
2.26896810531616

$$$$
30
                    3D
 Structure written by MMmdl.
160168  0  0  1  0            999 V2000
  -30.5939  -14.7548   20.4506 C   0  0  0  0  0  0
  -30.4362  -12.4618   19.4642 C   0  0  0  0  0  0
  -29.5083  -12.5078   18.2285 C   0  0  0  0  0  0
  -28.0339  -12.3317   18.6439 C   0  0  0  0  0  0
  -27.6396  -13.2300   19.8466 C   0  0  2  0  0  0
  -28.6872  -13.1633   20.9789 C   0  0  0  0  0  0
  -25.2493  -13.8192   20.5712 C   0  0  0  0  0  0
  -24.1787  -13.0438   20.9227 C   0  0  0  0  0  0
  -24.6375  -11.6918   20.8762 C   0  0  0  0  0  0
  -23.9057  -10.4290   21.0391 C   0  0  0  0  0  0
  -24.3608   -9.4210   21.9172 C   0  0  0  0  0  0
  -23.6286   -8.2238   22.0735 C   0  0  0  0  0  0
  -22.4267   -8.0280   21.3534 C   0  0  0  0  0  0
  -21.9913   -9.0255   20.4638 C   0  0  0  0  0  0
  -22.7231  -10.2132   20.3040 C   0  0  0  0  0  0
  -21.6850   -6.0741   22.5284 C   0  0  0  0  0  0
  -21.4020   -6.5640   23.8229 C   0  0  0  0  0  0
  -21.3656   -5.6783   24.9176 C   0  0  0  0  0  0
  -21.6038   -4.3048   24.7220 C   0  0  0  0  0  0
  -21.8822   -3.8151   23.4340 C   0  0  0  0  0  0
  -21.9195   -4.6968   22.3393 C   0  0  0  0  0  0
  -22.7801  -13.5223   21.1878 C   0  0  0  0  0  0
  -22.1654   -4.2163   21.0963 F   0  0  0  0  0  0
  -21.5619   -3.4515   25.7723 F   0  0  0  0  0  0
  -29.9830  -13.5227   20.3905 N   0  0  0  0  0  0
  -26.2912  -12.9398   20.3267 N   0  0  0  0  0  0
  -25.9304  -11.6549   20.5756 N   0  0  0  0  0  0
  -22.0440  -12.8229   22.0440 N   0  0  0  0  0  0
  -25.4175  -15.1924   20.4144 N   0  0  0  0  0  0
  -31.7893  -14.8658   20.1669 O   0  0  0  0  0  0
  -21.6638   -6.8870   21.4243 O   0  0  0  0  0  0
  -22.3493  -14.5525   20.6717 O   0  0  0  0  0  0
  -24.6308  -31.8561   23.1966 C   0  0  0  0  0  0
  -25.9134  -32.4759   23.8317 C   0  0  1  0  0  0
  -27.2217  -27.2586   20.1349 C   0  0  0  0  0  0
  -25.5929  -33.8555   24.2244 N   0  0  0  0  0  0
  -23.4284  -30.4765   21.5402 C   0  0  2  0  0  0
  -24.8760  -28.9141   20.1161 C   0  0  0  0  0  0
  -22.7498  -29.4609   22.4912 C   0  0  0  0  0  0
  -18.0298  -28.1400   22.8495 C   0  0  0  0  0  0
  -24.1488  -36.7282   23.2637 C   0  0  0  0  0  0
  -25.9721  -30.7668   21.3762 C   0  0  0  0  0  0
  -26.0456  -29.3836   20.7276 C   0  0  0  0  0  0
  -27.2219  -28.5674   20.7276 C   0  0  0  0  0  0
  -26.0306  -26.8490   19.5024 C   0  0  0  0  0  0
  -24.8722  -27.6540   19.4937 C   0  0  0  0  0  0
  -23.6491  -29.8064   20.1576 C   0  0  0  0  0  0
  -25.4115  -36.3061   24.0319 C   0  0  1  0  0  0
  -20.5898  -28.3712   23.1275 C   0  0  2  0  0  0
  -20.6782  -26.9431   22.5410 C   0  0  0  0  0  0
  -19.5752  -26.6395   21.5220 C   0  0  0  0  0  0
  -18.1941  -26.7945   22.1635 C   0  0  0  0  0  0
  -19.1549  -28.8871   23.2886 C   0  0  0  0  0  0
  -18.9467  -30.1475   23.8898 C   0  0  0  0  0  0
  -17.6465  -30.6597   24.0576 C   0  0  0  0  0  0
  -25.9056  -34.9433   23.5083 C   0  0  0  0  0  0
  -16.5357  -29.9100   23.6334 C   0  0  0  0  0  0
  -16.7287  -28.6520   23.0354 C   0  0  0  0  0  0
  -26.4496  -31.6589   25.0712 C   0  0  0  0  0  0
  -25.3715  -31.3757   26.1433 C   0  0  0  0  0  0
  -27.0336  -30.3004   24.6202 C   0  0  0  0  0  0
  -27.6041  -32.4334   25.7500 C   0  0  0  0  0  0
  -27.5572  -37.1803   24.8462 C   0  0  0  0  0  0
  -21.4204  -29.3057   22.3645 N   0  0  0  0  0  0
  -26.4281  -37.3767   23.9405 N   0  0  0  0  0  0
  -24.6960  -31.0519   22.0946 N   0  0  0  0  0  0
  -23.4198  -28.8161   23.3020 O   0  0  0  0  0  0
  -28.3315  -26.3883   20.1072 O   0  0  0  0  0  0
  -26.5626  -34.8914   22.4654 O   0  0  0  0  0  0
  -23.5456  -32.1384   23.7255 O   0  0  0  0  0  0
  -28.7197  -23.8373   19.6225 C   0  0  0  0  0  0
  -27.7312  -24.4000   21.5136 C   0  0  0  0  0  0
  -28.2375  -24.9856   20.3841 C   0  0  0  0  0  0
  -28.4581  -22.6118   20.2545 C   0  0  0  0  0  0
  -25.9408  -22.4861   22.9880 C   0  0  0  0  0  0
  -28.3594  -22.0096   23.6294 C   0  0  0  0  0  0
  -28.5870  -21.0907   19.7840 C   0  0  0  0  0  0
  -30.1632  -17.3670   20.7087 C   0  0  0  0  0  0
  -29.1274  -18.5200   20.2023 C   0  0  0  0  0  0
  -27.3401  -22.0962   22.4858 C   0  0  0  0  0  0
  -27.8226  -22.9991   21.4413 N   0  0  0  0  0  0
  -29.7946  -15.8764   20.6246 N   0  0  0  0  0  0
  -29.4237  -20.0113   20.4955 N   0  3  0  0  0  0
  -31.4750  -12.5984   19.1596 H   0  0  0  0  0  0
  -30.3903  -11.4875   19.9532 H   0  0  0  0  0  0
  -29.7915  -11.7335   17.5138 H   0  0  0  0  0  0
  -29.6301  -13.4619   17.7123 H   0  0  0  0  0  0
  -27.8918  -11.2836   18.9093 H   0  0  0  0  0  0
  -27.3742  -12.5240   17.7958 H   0  0  0  0  0  0
  -27.6332  -14.2506   19.4630 H   0  0  0  0  0  0
  -28.7272  -12.1656   21.4200 H   0  0  0  0  0  0
  -28.4229  -13.8420   21.7917 H   0  0  0  0  0  0
  -25.2732   -9.5696   22.4768 H   0  0  0  0  0  0
  -23.9996   -7.4630   22.7444 H   0  0  0  0  0  0
  -21.0849   -8.8779   19.8940 H   0  0  0  0  0  0
  -22.3679  -10.9685   19.6159 H   0  0  0  0  0  0
  -21.2025   -7.6156   23.9745 H   0  0  0  0  0  0
  -21.1461   -6.0496   25.9088 H   0  0  0  0  0  0
  -22.0605   -2.7621   23.2831 H   0  0  0  0  0  0
  -22.4055  -11.9882   22.4821 H   0  0  0  0  0  0
  -21.1060  -13.1255   22.2615 H   0  0  0  0  0  0
  -24.6390  -15.8350   20.5164 H   0  0  0  0  0  0
  -26.2485  -15.6339   20.0441 H   0  0  0  0  0  0
  -26.7203  -32.5421   23.1059 H   0  0  0  0  0  0
  -25.0061  -33.9694   25.0379 H   0  0  0  0  0  0
  -22.7235  -31.2973   21.3909 H   0  0  0  0  0  0
  -23.3743  -35.9626   23.3301 H   0  0  0  0  0  0
  -24.3568  -36.8911   22.2051 H   0  0  0  0  0  0
  -23.7252  -37.6484   23.6671 H   0  0  0  0  0  0
  -26.1049  -31.5224   20.6004 H   0  0  0  0  0  0
  -26.8501  -30.8230   22.0071 H   0  0  0  0  0  0
  -28.1224  -28.9272   21.2049 H   0  0  0  0  0  0
  -25.9939  -25.8825   19.0180 H   0  0  0  0  0  0
  -23.9780  -27.2905   19.0067 H   0  0  0  0  0  0
  -23.7757  -30.5801   19.3990 H   0  0  0  0  0  0
  -22.7669  -29.2418   19.8524 H   0  0  0  0  0  0
  -25.1306  -36.1902   25.0812 H   0  0  0  0  0  0
  -21.0009  -28.3299   24.1386 H   0  0  0  0  0  0
  -20.5689  -26.2332   23.3618 H   0  0  0  0  0  0
  -21.6655  -26.7451   22.1204 H   0  0  0  0  0  0
  -19.6908  -25.6305   21.1258 H   0  0  0  0  0  0
  -19.6685  -27.3192   20.6738 H   0  0  0  0  0  0
  -17.4212  -26.6703   21.4037 H   0  0  0  0  0  0
  -18.0338  -26.0085   22.9022 H   0  0  0  0  0  0
  -19.7940  -30.7305   24.2256 H   0  0  0  0  0  0
  -17.5016  -31.6271   24.5189 H   0  0  0  0  0  0
  -15.5362  -30.3005   23.7641 H   0  0  0  0  0  0
  -15.8692  -28.0837   22.7058 H   0  0  0  0  0  0
  -24.5889  -30.7112   25.7758 H   0  0  0  0  0  0
  -24.8904  -32.2932   26.4826 H   0  0  0  0  0  0
  -25.8016  -30.8949   27.0228 H   0  0  0  0  0  0
  -26.2921  -29.6770   24.1199 H   0  0  0  0  0  0
  -27.3976  -29.7256   25.4729 H   0  0  0  0  0  0
  -27.8817  -30.4260   23.9470 H   0  0  0  0  0  0
  -27.2638  -33.3636   26.2061 H   0  0  0  0  0  0
  -28.3865  -32.6902   25.0346 H   0  0  0  0  0  0
  -28.0698  -31.8477   26.5435 H   0  0  0  0  0  0
  -28.2596  -38.0094   24.7497 H   0  0  0  0  0  0
  -28.1063  -36.2624   24.6307 H   0  0  0  0  0  0
  -27.2286  -37.1474   25.8864 H   0  0  0  0  0  0
  -20.9382  -29.8772   21.6842 H   0  0  0  0  0  0
  -26.0156  -38.2842   24.1408 H   0  0  0  0  0  0
  -29.1930  -23.9076   18.6532 H   0  0  0  0  0  0
  -27.2911  -24.8688   22.3834 H   0  0  0  0  0  0
  -25.5453  -21.7161   23.6493 H   0  0  0  0  0  0
  -25.2413  -22.5944   22.1581 H   0  0  0  0  0  0
  -25.9456  -23.4196   23.5504 H   0  0  0  0  0  0
  -28.0642  -21.2591   24.3616 H   0  0  0  0  0  0
  -28.4512  -22.9626   24.1502 H   0  0  0  0  0  0
  -29.3492  -21.7371   23.2624 H   0  0  0  0  0  0
  -28.9260  -21.0941   18.7478 H   0  0  0  0  0  0
  -27.5714  -20.6972   19.7200 H   0  0  0  0  0  0
  -30.3890  -17.5602   21.7570 H   0  0  0  0  0  0
  -31.1071  -17.5071   20.1819 H   0  0  0  0  0  0
  -28.1428  -18.3033   20.6166 H   0  0  0  0  0  0
  -29.0176  -18.4164   19.1221 H   0  0  0  0  0  0
  -27.2373  -21.1006   22.0569 H   0  0  0  0  0  0
  -28.8198  -15.6663   20.7782 H   0  0  0  0  0  0
  -30.3871  -20.1930   20.2664 H   0  0  0  0  0  0
  -29.3298  -20.1463   21.4859 H   0  0  0  0  0  0
  1 25  1  0  0  0
  1 30  2  0  0  0
  1 82  1  0  0  0
  2  3  1  0  0  0
  2 25  1  0  0  0
  2 84  1  0  0  0
  2 85  1  0  0  0
  3  4  1  0  0  0
  3 86  1  0  0  0
  3 87  1  0  0  0
  4  5  1  0  0  0
  4 88  1  0  0  0
  4 89  1  0  0  0
  5  6  1  0  0  0
  5 26  1  0  0  0
  5 90  1  0  0  0
  6 25  1  0  0  0
  6 91  1  0  0  0
  6 92  1  0  0  0
  7  8  2  0  0  0
  7 26  1  0  0  0
  7 29  1  0  0  0
  8  9  1  0  0  0
  8 22  1  0  0  0
  9 10  1  0  0  0
  9 27  2  0  0  0
 10 11  2  0  0  0
 10 15  1  0  0  0
 11 12  1  0  0  0
 11 93  1  0  0  0
 12 13  2  0  0  0
 12 94  1  0  0  0
 13 14  1  0  0  0
 13 31  1  0  0  0
 14 15  2  0  0  0
 14 95  1  0  0  0
 15 96  1  0  0  0
 16 17  2  0  0  0
 16 21  1  0  0  0
 16 31  1  0  0  0
 17 18  1  0  0  0
 17 97  1  0  0  0
 18 19  2  0  0  0
 18 98  1  0  0  0
 19 20  1  0  0  0
 19 24  1  0  0  0
 20 21  2  0  0  0
 20 99  1  0  0  0
 21 23  1  0  0  0
 22 28  1  0  0  0
 22 32  2  0  0  0
 26 27  1  0  0  0
 28100  1  0  0  0
 28101  1  0  0  0
 29102  1  0  0  0
 29103  1  0  0  0
 33 34  1  0  0  0
 33 66  1  0  0  0
 33 70  2  0  0  0
 34 36  1  0  0  0
 34 59  1  0  0  0
 34104  1  0  0  0
 35 44  2  0  0  0
 35 45  1  0  0  0
 35 68  1  0  0  0
 36 56  1  0  0  0
 36105  1  0  0  0
 37 39  1  0  0  0
 37 47  1  0  0  0
 37 66  1  0  0  0
 37106  1  0  0  0
 38 43  2  0  0  0
 38 46  1  0  0  0
 38 47  1  0  0  0
 39 64  1  0  0  0
 39 67  2  0  0  0
 40 52  1  0  0  0
 40 53  2  0  0  0
 40 58  1  0  0  0
 41107  1  0  0  0
 41108  1  0  0  0
 41109  1  0  0  0
 41 48  1  0  0  0
 42 43  1  0  0  0
 42 66  1  0  0  0
 42110  1  0  0  0
 42111  1  0  0  0
 43 44  1  0  0  0
 44112  1  0  0  0
 45 46  2  0  0  0
 45113  1  0  0  0
 46114  1  0  0  0
 47115  1  0  0  0
 47116  1  0  0  0
 48 56  1  0  0  0
 48 65  1  0  0  0
 48117  1  0  0  0
 49 50  1  0  0  0
 49 53  1  0  0  0
 49 64  1  0  0  0
 49118  1  0  0  0
 50 51  1  0  0  0
 50119  1  0  0  0
 50120  1  0  0  0
 51 52  1  0  0  0
 51121  1  0  0  0
 51122  1  0  0  0
 52123  1  0  0  0
 52124  1  0  0  0
 53 54  1  0  0  0
 54 55  2  0  0  0
 54125  1  0  0  0
 55 57  1  0  0  0
 55126  1  0  0  0
 56 69  2  0  0  0
 57 58  2  0  0  0
 57127  1  0  0  0
 58128  1  0  0  0
 59 60  1  0  0  0
 59 61  1  0  0  0
 59 62  1  0  0  0
 60129  1  0  0  0
 60130  1  0  0  0
 60131  1  0  0  0
 61132  1  0  0  0
 61133  1  0  0  0
 61134  1  0  0  0
 62135  1  0  0  0
 62136  1  0  0  0
 62137  1  0  0  0
 63 65  1  0  0  0
 63138  1  0  0  0
 63139  1  0  0  0
 63140  1  0  0  0
 64141  1  0  0  0
 65142  1  0  0  0
 68 73  1  0  0  0
 71 73  1  0  0  0
 71 74  2  0  0  0
 71143  1  0  0  0
 72 73  2  0  0  0
 72 81  1  0  0  0
 72144  1  0  0  0
 74 77  1  0  0  0
 74 81  1  0  0  0
 75145  1  0  0  0
 75146  1  0  0  0
 75147  1  0  0  0
 75 80  1  0  0  0
 76 80  1  0  0  0
 76148  1  0  0  0
 76149  1  0  0  0
 76150  1  0  0  0
 77 83  1  0  0  0
 77151  1  0  0  0
 77152  1  0  0  0
 78 79  1  0  0  0
 78 82  1  0  0  0
 78153  1  0  0  0
 78154  1  0  0  0
 79 83  1  0  0  0
 79155  1  0  0  0
 79156  1  0  0  0
 80 81  1  0  0  0
 80157  1  0  0  0
 82158  1  0  0  0
 83159  1  0  0  0
 83160  1  0  0  0
M  CHG  1  83   1
M  ISO  4   1 100  68 101  73 101  82 100
M  END
> <chiral flag>
0

> <version>
0

> <s_m_source_file>
/data/baiqing/PycharmProjects/Reinvent-master-3.2/result/LINK_invent/BTK/process_docking_weight1_custom_sum_contain_oxygen_bond_distance_aromatic_linkinvent_7_9_3/rearranged_h_0128.sdf

> <i_m_source_file_index>
31

> <r_mmod_Potential_Energy-OPLS-2005>
-129.821350097656

> <r_mmod_Stretch_Energy-OPLS-2005>
118.154678344727

> <r_mmod_Bend_Energy-OPLS-2005>
160.255249023438

> <r_mmod_Torsional_Energy-OPLS-2005>
231.890838623047

> <r_mmod_Improper_Torsional_Energy-OPLS-2005>
5.46991682052612

> <r_mmod_Van_der_Waal_Energy-OPLS-2005>
109.276206970215

> <r_mmod_Electrostatic_Energy-OPLS-2005>
-339.909851074219

> <r_mmod_Solvation_Energy-OPLS-2005>
-500.981170654297

> <b_mmod_Minimization_Converged-OPLS-2005>
0

> <r_mmod_RMS_Derivative-OPLS-2005>
2.32625317573547

$$$$
31
                    3D
 Structure written by MMmdl.
173182  0  0  1  0            999 V2000
  -30.7694  -14.3581   20.6975 C   0  0  0  0  0  0
  -30.4131  -12.2933   19.3920 C   0  0  0  0  0  0
  -29.4817  -12.5386   18.1915 C   0  0  0  0  0  0
  -28.0065  -12.3911   18.6071 C   0  0  0  0  0  0
  -27.6658  -13.2049   19.8826 C   0  0  2  0  0  0
  -28.7030  -12.9418   20.9956 C   0  0  0  0  0  0
  -25.2595  -13.8159   20.5678 C   0  0  0  0  0  0
  -24.1841  -13.0442   20.9160 C   0  0  0  0  0  0
  -24.6390  -11.6904   20.8727 C   0  0  0  0  0  0
  -23.9061  -10.4295   21.0404 C   0  0  0  0  0  0
  -24.3614   -9.4212   21.9187 C   0  0  0  0  0  0
  -23.6289   -8.2247   22.0758 C   0  0  0  0  0  0
  -22.4274   -8.0282   21.3545 C   0  0  0  0  0  0
  -21.9908   -9.0258   20.4652 C   0  0  0  0  0  0
  -22.7232  -10.2139   20.3056 C   0  0  0  0  0  0
  -21.6856   -6.0736   22.5281 C   0  0  0  0  0  0
  -21.4015   -6.5636   23.8214 C   0  0  0  0  0  0
  -21.3657   -5.6794   24.9175 C   0  0  0  0  0  0
  -21.6047   -4.3056   24.7231 C   0  0  0  0  0  0
  -21.8816   -3.8148   23.4348 C   0  0  0  0  0  0
  -21.9190   -4.6965   22.3402 C   0  0  0  0  0  0
  -22.7863  -13.5240   21.1837 C   0  0  0  0  0  0
  -22.1660   -4.2147   21.0981 F   0  0  0  0  0  0
  -21.5629   -3.4539   25.7742 F   0  0  0  0  0  0
  -30.0464  -13.2341   20.4598 N   0  0  0  0  0  0
  -26.3037  -12.9334   20.3392 N   0  0  0  0  0  0
  -25.9319  -11.6490   20.5763 N   0  0  0  0  0  0
  -22.0510  -12.8233   22.0392 N   0  0  0  0  0  0
  -25.4319  -15.1881   20.4094 N   0  0  0  0  0  0
  -31.7861  -14.6559   20.0624 O   0  0  0  0  0  0
  -21.6638   -6.8881   21.4239 O   0  0  0  0  0  0
  -22.3550  -14.5555   20.6699 O   0  0  0  0  0  0
  -24.6092  -31.8701   23.2132 C   0  0  0  0  0  0
  -25.9014  -32.4831   23.8407 C   0  0  1  0  0  0
  -27.2390  -27.4654   20.0980 C   0  0  0  0  0  0
  -25.5904  -33.8629   24.2345 N   0  0  0  0  0  0
  -23.3964  -30.4914   21.5518 C   0  0  2  0  0  0
  -24.8454  -28.9621   20.1128 C   0  0  0  0  0  0
  -22.7380  -29.4642   22.5000 C   0  0  0  0  0  0
  -18.0265  -28.1357   22.8476 C   0  0  0  0  0  0
  -24.1489  -36.7308   23.2641 C   0  0  0  0  0  0
  -25.9194  -30.8456   21.3606 C   0  0  0  0  0  0
  -25.9990  -29.4803   20.7133 C   0  0  0  0  0  0
  -27.1980  -28.7398   20.7080 C   0  0  0  0  0  0
  -26.0767  -26.9592   19.4828 C   0  0  0  0  0  0
  -24.8766  -27.6977   19.4961 C   0  0  0  0  0  0
  -23.6040  -29.8235   20.1651 C   0  0  0  0  0  0
  -25.4111  -36.3122   24.0338 C   0  0  1  0  0  0
  -20.5844  -28.3631   23.1329 C   0  0  2  0  0  0
  -20.6754  -26.9377   22.5408 C   0  0  0  0  0  0
  -19.5746  -26.6365   21.5193 C   0  0  0  0  0  0
  -18.1917  -26.7904   22.1605 C   0  0  0  0  0  0
  -19.1511  -28.8815   23.2895 C   0  0  0  0  0  0
  -18.9454  -30.1428   23.8898 C   0  0  0  0  0  0
  -17.6459  -30.6577   24.0546 C   0  0  0  0  0  0
  -25.9035  -34.9484   23.5139 C   0  0  0  0  0  0
  -16.5344  -29.9076   23.6325 C   0  0  0  0  0  0
  -16.7255  -28.6491   23.0341 C   0  0  0  0  0  0
  -26.4465  -31.6602   25.0713 C   0  0  0  0  0  0
  -25.3734  -31.3700   26.1467 C   0  0  0  0  0  0
  -27.0296  -30.3063   24.6039 C   0  0  0  0  0  0
  -27.6053  -32.4309   25.7473 C   0  0  0  0  0  0
  -27.5586  -37.1813   24.8463 C   0  0  0  0  0  0
  -21.4115  -29.3004   22.3751 N   0  0  0  0  0  0
  -26.4304  -37.3797   23.9404 N   0  0  0  0  0  0
  -24.6592  -31.0830   22.1008 N   0  0  0  0  0  0
  -23.4172  -28.8180   23.3023 O   0  0  0  0  0  0
  -28.3865  -26.7085   20.0586 O   0  0  0  0  0  0
  -26.5587  -34.8937   22.4693 O   0  0  0  0  0  0
  -23.5306  -32.1428   23.7565 O   0  0  0  0  0  0
  -28.5930  -19.0504   21.3126 C   0  0  0  0  0  0
  -29.0359  -17.7099   21.2060 C   0  0  0  0  0  0
  -29.3967  -19.6985   22.2087 C   0  0  0  0  0  0
  -30.1113  -17.5470   22.0337 C   0  0  0  0  0  0
  -30.4124  -21.9534   21.7957 C   0  0  0  0  0  0
  -27.9721  -21.8185   22.5026 C   0  0  0  0  0  0
  -30.1508  -23.4712   21.8001 C   0  0  0  0  0  0
  -27.8310  -22.7107   21.2555 C   0  0  0  0  0  0
  -29.3679  -21.1560   22.6118 C   0  0  1  0  0  0
  -32.7803  -18.6498   23.3533 C   0  0  0  0  0  0
  -30.8951  -18.4875   25.0840 C   0  0  0  0  0  0
  -30.9472  -16.3120   22.2467 C   0  0  0  0  0  0
  -28.2629  -25.0896   21.8730 C   0  0  0  0  0  0
  -28.9408  -26.3661   21.3314 C   0  0  0  0  0  0
  -31.3431  -19.0481   23.7248 C   0  0  0  0  0  0
  -30.3384  -18.7716   22.6805 N   0  0  0  0  0  0
  -30.3254  -15.1035   21.7159 N   0  0  0  0  0  0
  -28.8051  -23.8417   21.2610 N   0  3  1  0  0  0
  -31.4573  -12.3899   19.0901 H   0  0  0  0  0  0
  -30.3054  -11.2697   19.7543 H   0  0  0  0  0  0
  -29.7146  -11.8452   17.3828 H   0  0  0  0  0  0
  -29.6511  -13.5405   17.7940 H   0  0  0  0  0  0
  -27.8100  -11.3322   18.7774 H   0  0  0  0  0  0
  -27.3540  -12.6927   17.7872 H   0  0  0  0  0  0
  -27.7248  -14.2609   19.6174 H   0  0  0  0  0  0
  -28.6651  -11.8978   21.3092 H   0  0  0  0  0  0
  -28.4456  -13.5144   21.8863 H   0  0  0  0  0  0
  -25.2762   -9.5688   22.4758 H   0  0  0  0  0  0
  -23.9999   -7.4641   22.7479 H   0  0  0  0  0  0
  -21.0840   -8.8777   19.8960 H   0  0  0  0  0  0
  -22.3693  -10.9677   19.6163 H   0  0  0  0  0  0
  -21.2009   -7.6147   23.9715 H   0  0  0  0  0  0
  -21.1483   -6.0527   25.9082 H   0  0  0  0  0  0
  -22.0596   -2.7611   23.2852 H   0  0  0  0  0  0
  -22.4114  -11.9876   22.4755 H   0  0  0  0  0  0
  -21.1135  -13.1274   22.2627 H   0  0  0  0  0  0
  -24.6713  -15.8484   20.5278 H   0  0  0  0  0  0
  -26.2979  -15.6278   20.1243 H   0  0  0  0  0  0
  -26.7080  -32.5558   23.1175 H   0  0  0  0  0  0
  -25.0100  -33.9773   25.0529 H   0  0  0  0  0  0
  -22.6830  -31.3067   21.4136 H   0  0  0  0  0  0
  -23.3761  -35.9633   23.3315 H   0  0  0  0  0  0
  -24.3587  -36.8905   22.2054 H   0  0  0  0  0  0
  -23.7220  -37.6514   23.6640 H   0  0  0  0  0  0
  -26.0216  -31.6106   20.5896 H   0  0  0  0  0  0
  -26.8103  -30.9005   21.9735 H   0  0  0  0  0  0
  -28.0876  -29.1564   21.1604 H   0  0  0  0  0  0
  -26.0989  -25.9921   18.9996 H   0  0  0  0  0  0
  -23.9900  -27.2945   19.0258 H   0  0  0  0  0  0
  -23.7049  -30.5963   19.4020 H   0  0  0  0  0  0
  -22.7301  -29.2369   19.8770 H   0  0  0  0  0  0
  -25.1281  -36.2005   25.0826 H   0  0  0  0  0  0
  -20.9921  -28.3197   24.1450 H   0  0  0  0  0  0
  -20.5658  -26.2228   23.3588 H   0  0  0  0  0  0
  -21.6628  -26.7417   22.1208 H   0  0  0  0  0  0
  -19.6912  -25.6276   21.1221 H   0  0  0  0  0  0
  -19.6715  -27.3175   20.6732 H   0  0  0  0  0  0
  -17.4182  -26.6640   21.4009 H   0  0  0  0  0  0
  -18.0330  -26.0045   22.9003 H   0  0  0  0  0  0
  -19.7943  -30.7221   24.2270 H   0  0  0  0  0  0
  -17.5032  -31.6270   24.5137 H   0  0  0  0  0  0
  -15.5351  -30.2986   23.7669 H   0  0  0  0  0  0
  -15.8642  -28.0829   22.7059 H   0  0  0  0  0  0
  -24.5897  -30.7054   25.7816 H   0  0  0  0  0  0
  -24.8925  -32.2851   26.4938 H   0  0  0  0  0  0
  -25.8089  -30.8861   27.0211 H   0  0  0  0  0  0
  -26.2816  -29.6821   24.1133 H   0  0  0  0  0  0
  -27.4145  -29.7306   25.4465 H   0  0  0  0  0  0
  -27.8615  -30.4419   23.9118 H   0  0  0  0  0  0
  -27.2682  -33.3603   26.2076 H   0  0  0  0  0  0
  -28.3859  -32.6868   25.0294 H   0  0  0  0  0  0
  -28.0709  -31.8387   26.5368 H   0  0  0  0  0  0
  -28.2610  -38.0111   24.7534 H   0  0  0  0  0  0
  -28.1078  -36.2643   24.6272 H   0  0  0  0  0  0
  -27.2288  -37.1423   25.8862 H   0  0  0  0  0  0
  -20.9285  -29.8727   21.6970 H   0  0  0  0  0  0
  -26.0209  -38.2873   24.1443 H   0  0  0  0  0  0
  -27.7702  -19.4986   20.7719 H   0  0  0  0  0  0
  -28.6118  -16.9418   20.5726 H   0  0  0  0  0  0
  -31.4160  -21.7438   22.1642 H   0  0  0  0  0  0
  -30.4054  -21.6136   20.7590 H   0  0  0  0  0  0
  -27.1780  -21.0722   22.5424 H   0  0  0  0  0  0
  -27.8116  -22.4486   23.3782 H   0  0  0  0  0  0
  -30.9180  -23.9752   21.2115 H   0  0  0  0  0  0
  -30.2664  -23.8290   22.8243 H   0  0  0  0  0  0
  -26.8060  -23.0701   21.1589 H   0  0  0  0  0  0
  -28.0068  -22.1061   20.3638 H   0  0  0  0  0  0
  -29.6168  -21.2332   23.6702 H   0  0  0  0  0  0
  -33.4862  -19.1305   24.0319 H   0  0  0  0  0  0
  -33.0318  -18.9736   22.3431 H   0  0  0  0  0  0
  -32.9631  -17.5811   23.4334 H   0  0  0  0  0  0
  -31.6206  -18.7207   25.8634 H   0  0  0  0  0  0
  -30.7694  -17.4070   25.0670 H   0  0  0  0  0  0
  -29.9410  -18.9204   25.3847 H   0  0  0  0  0  0
  -31.1168  -16.1345   23.3072 H   0  0  0  0  0  0
  -31.9291  -16.4581   21.7950 H   0  0  0  0  0  0
  -27.1894  -25.1747   21.7028 H   0  0  0  0  0  0
  -28.3803  -25.0422   22.9561 H   0  0  0  0  0  0
  -30.0185  -26.2337   21.2301 H   0  0  0  0  0  0
  -28.8142  -27.1735   22.0534 H   0  0  0  0  0  0
  -31.4104  -20.1239   23.8517 H   0  0  0  0  0  0
  -29.4887  -14.7838   22.1777 H   0  0  0  0  0  0
  -28.9329  -24.0611   20.2819 H   0  0  0  0  0  0
  1 25  1  0  0  0
  1 30  2  0  0  0
  1 87  1  0  0  0
  2  3  1  0  0  0
  2 25  1  0  0  0
  2 89  1  0  0  0
  2 90  1  0  0  0
  3  4  1  0  0  0
  3 91  1  0  0  0
  3 92  1  0  0  0
  4  5  1  0  0  0
  4 93  1  0  0  0
  4 94  1  0  0  0
  5  6  1  0  0  0
  5 26  1  0  0  0
  5 95  1  0  0  0
  6 25  1  0  0  0
  6 96  1  0  0  0
  6 97  1  0  0  0
  7  8  2  0  0  0
  7 26  1  0  0  0
  7 29  1  0  0  0
  8  9  1  0  0  0
  8 22  1  0  0  0
  9 10  1  0  0  0
  9 27  2  0  0  0
 10 11  2  0  0  0
 10 15  1  0  0  0
 11 12  1  0  0  0
 11 98  1  0  0  0
 12 13  2  0  0  0
 12 99  1  0  0  0
 13 14  1  0  0  0
 13 31  1  0  0  0
 14 15  2  0  0  0
 14100  1  0  0  0
 15101  1  0  0  0
 16 17  2  0  0  0
 16 21  1  0  0  0
 16 31  1  0  0  0
 17 18  1  0  0  0
 17102  1  0  0  0
 18 19  2  0  0  0
 18103  1  0  0  0
 19 20  1  0  0  0
 19 24  1  0  0  0
 20 21  2  0  0  0
 20104  1  0  0  0
 21 23  1  0  0  0
 22 28  1  0  0  0
 22 32  2  0  0  0
 26 27  1  0  0  0
 28105  1  0  0  0
 28106  1  0  0  0
 29107  1  0  0  0
 29108  1  0  0  0
 33 34  1  0  0  0
 33 66  1  0  0  0
 33 70  2  0  0  0
 34 36  1  0  0  0
 34 59  1  0  0  0
 34109  1  0  0  0
 35 44  2  0  0  0
 35 45  1  0  0  0
 35 68  1  0  0  0
 36 56  1  0  0  0
 36110  1  0  0  0
 37 39  1  0  0  0
 37 47  1  0  0  0
 37 66  1  0  0  0
 37111  1  0  0  0
 38 43  2  0  0  0
 38 46  1  0  0  0
 38 47  1  0  0  0
 39 64  1  0  0  0
 39 67  2  0  0  0
 40 52  1  0  0  0
 40 53  2  0  0  0
 40 58  1  0  0  0
 41112  1  0  0  0
 41113  1  0  0  0
 41114  1  0  0  0
 41 48  1  0  0  0
 42 43  1  0  0  0
 42 66  1  0  0  0
 42115  1  0  0  0
 42116  1  0  0  0
 43 44  1  0  0  0
 44117  1  0  0  0
 45 46  2  0  0  0
 45118  1  0  0  0
 46119  1  0  0  0
 47120  1  0  0  0
 47121  1  0  0  0
 48 56  1  0  0  0
 48 65  1  0  0  0
 48122  1  0  0  0
 49 50  1  0  0  0
 49 53  1  0  0  0
 49 64  1  0  0  0
 49123  1  0  0  0
 50 51  1  0  0  0
 50124  1  0  0  0
 50125  1  0  0  0
 51 52  1  0  0  0
 51126  1  0  0  0
 51127  1  0  0  0
 52128  1  0  0  0
 52129  1  0  0  0
 53 54  1  0  0  0
 54 55  2  0  0  0
 54130  1  0  0  0
 55 57  1  0  0  0
 55131  1  0  0  0
 56 69  2  0  0  0
 57 58  2  0  0  0
 57132  1  0  0  0
 58133  1  0  0  0
 59 60  1  0  0  0
 59 61  1  0  0  0
 59 62  1  0  0  0
 60134  1  0  0  0
 60135  1  0  0  0
 60136  1  0  0  0
 61137  1  0  0  0
 61138  1  0  0  0
 61139  1  0  0  0
 62140  1  0  0  0
 62141  1  0  0  0
 62142  1  0  0  0
 63 65  1  0  0  0
 63143  1  0  0  0
 63144  1  0  0  0
 63145  1  0  0  0
 64146  1  0  0  0
 65147  1  0  0  0
 68 84  1  0  0  0
 71 72  1  0  0  0
 71 73  2  0  0  0
 71148  1  0  0  0
 72 74  2  0  0  0
 72149  1  0  0  0
 73 86  1  0  0  0
 73 79  1  0  0  0
 74 82  1  0  0  0
 74 86  1  0  0  0
 75 77  1  0  0  0
 75 79  1  0  0  0
 75150  1  0  0  0
 75151  1  0  0  0
 76 78  1  0  0  0
 76 79  1  0  0  0
 76152  1  0  0  0
 76153  1  0  0  0
 77 88  1  0  0  0
 77154  1  0  0  0
 77155  1  0  0  0
 78 88  1  0  0  0
 78156  1  0  0  0
 78157  1  0  0  0
 79158  1  0  0  0
 80159  1  0  0  0
 80160  1  0  0  0
 80161  1  0  0  0
 80 85  1  0  0  0
 81 85  1  0  0  0
 81162  1  0  0  0
 81163  1  0  0  0
 81164  1  0  0  0
 82 87  1  0  0  0
 82165  1  0  0  0
 82166  1  0  0  0
 83 84  1  0  0  0
 83167  1  0  0  0
 83168  1  0  0  0
 83 88  1  0  0  0
 84169  1  0  0  0
 84170  1  0  0  0
 85 86  1  0  0  0
 85171  1  0  0  0
 87172  1  0  0  0
 88173  1  0  0  0
M  CHG  1  88   1
M  ISO  4   1 100  68 101  84 101  87 100
M  END
> <chiral flag>
0

> <version>
0

> <s_m_source_file>
/data/baiqing/PycharmProjects/Reinvent-master-3.2/result/LINK_invent/BTK/process_docking_weight1_custom_sum_contain_oxygen_bond_distance_aromatic_linkinvent_7_9_3/rearranged_h_0128.sdf

> <i_m_source_file_index>
32

> <r_mmod_Potential_Energy-OPLS-2005>
-182.567947387695

> <r_mmod_Stretch_Energy-OPLS-2005>
37.3037261962891

> <r_mmod_Bend_Energy-OPLS-2005>
101.984848022461

> <r_mmod_Torsional_Energy-OPLS-2005>
299.390899658203

> <r_mmod_Improper_Torsional_Energy-OPLS-2005>
1.91233062744141

> <r_mmod_Van_der_Waal_Energy-OPLS-2005>
146.71321105957

> <r_mmod_Electrostatic_Energy-OPLS-2005>
-360.251770019531

> <r_mmod_Solvation_Energy-OPLS-2005>
-416.007873535156

> <b_mmod_Minimization_Converged-OPLS-2005>
0

> <r_mmod_RMS_Derivative-OPLS-2005>
1.93514251708984

$$$$
32
                    3D
 Structure written by MMmdl.
175183  0  0  1  0            999 V2000
  -30.7027  -14.4243   20.6380 C   0  0  0  0  0  0
  -30.4277  -12.3060   19.3997 C   0  0  0  0  0  0
  -29.4891  -12.5341   18.1977 C   0  0  0  0  0  0
  -28.0115  -12.3858   18.6112 C   0  0  0  0  0  0
  -27.6647  -13.2010   19.8850 C   0  0  2  0  0  0
  -28.7030  -12.9308   20.9938 C   0  0  0  0  0  0
  -25.2593  -13.8140   20.5663 C   0  0  0  0  0  0
  -24.1835  -13.0432   20.9120 C   0  0  0  0  0  0
  -24.6374  -11.6886   20.8716 C   0  0  0  0  0  0
  -23.9053  -10.4279   21.0396 C   0  0  0  0  0  0
  -24.3612   -9.4192   21.9170 C   0  0  0  0  0  0
  -23.6283   -8.2236   22.0759 C   0  0  0  0  0  0
  -22.4266   -8.0260   21.3556 C   0  0  0  0  0  0
  -21.9897   -9.0234   20.4664 C   0  0  0  0  0  0
  -22.7226  -10.2108   20.3052 C   0  0  0  0  0  0
  -21.6851   -6.0716   22.5261 C   0  0  0  0  0  0
  -21.4020   -6.5636   23.8191 C   0  0  0  0  0  0
  -21.3667   -5.6792   24.9164 C   0  0  0  0  0  0
  -21.6042   -4.3048   24.7211 C   0  0  0  0  0  0
  -21.8826   -3.8135   23.4337 C   0  0  0  0  0  0
  -21.9193   -4.6947   22.3390 C   0  0  0  0  0  0
  -22.7856  -13.5227   21.1778 C   0  0  0  0  0  0
  -22.1657   -4.2140   21.0967 F   0  0  0  0  0  0
  -21.5630   -3.4534   25.7724 F   0  0  0  0  0  0
  -30.0402  -13.2507   20.4571 N   0  0  0  0  0  0
  -26.3033  -12.9306   20.3399 N   0  0  0  0  0  0
  -25.9297  -11.6475   20.5759 N   0  0  0  0  0  0
  -22.0524  -12.8247   22.0370 N   0  0  0  0  0  0
  -25.4345  -15.1860   20.4054 N   0  0  0  0  0  0
  -31.7976  -14.6704   20.1198 O   0  0  0  0  0  0
  -21.6647   -6.8847   21.4223 O   0  0  0  0  0  0
  -22.3552  -14.5549   20.6621 O   0  0  0  0  0  0
  -24.6153  -31.8679   23.2117 C   0  0  0  0  0  0
  -25.9051  -32.4827   23.8409 C   0  0  1  0  0  0
  -27.2293  -27.4262   20.1012 C   0  0  0  0  0  0
  -25.5916  -33.8622   24.2345 N   0  0  0  0  0  0
  -23.4027  -30.4967   21.5499 C   0  0  2  0  0  0
  -24.8485  -28.9686   20.1115 C   0  0  0  0  0  0
  -22.7412  -29.4661   22.4939 C   0  0  0  0  0  0
  -18.0279  -28.1383   22.8494 C   0  0  0  0  0  0
  -24.1490  -36.7301   23.2643 C   0  0  0  0  0  0
  -25.9353  -30.8321   21.3669 C   0  0  0  0  0  0
  -26.0096  -29.4670   20.7147 C   0  0  0  0  0  0
  -27.2000  -28.7041   20.7082 C   0  0  0  0  0  0
  -26.0533  -26.9626   19.4596 C   0  0  0  0  0  0
  -24.8673  -27.7158   19.4805 C   0  0  0  0  0  0
  -23.6111  -29.8367   20.1623 C   0  0  0  0  0  0
  -25.4108  -36.3105   24.0345 C   0  0  1  0  0  0
  -20.5875  -28.3657   23.1303 C   0  0  2  0  0  0
  -20.6763  -26.9389   22.5406 C   0  0  0  0  0  0
  -19.5748  -26.6383   21.5206 C   0  0  0  0  0  0
  -18.1926  -26.7931   22.1618 C   0  0  0  0  0  0
  -19.1532  -28.8839   23.2902 C   0  0  0  0  0  0
  -18.9458  -30.1451   23.8905 C   0  0  0  0  0  0
  -17.6460  -30.6588   24.0564 C   0  0  0  0  0  0
  -25.9033  -34.9473   23.5140 C   0  0  0  0  0  0
  -16.5349  -29.9090   23.6332 C   0  0  0  0  0  0
  -16.7267  -28.6510   23.0348 C   0  0  0  0  0  0
  -26.4475  -31.6604   25.0733 C   0  0  0  0  0  0
  -25.3754  -31.3702   26.1495 C   0  0  0  0  0  0
  -27.0319  -30.3061   24.6095 C   0  0  0  0  0  0
  -27.6066  -32.4316   25.7474 C   0  0  0  0  0  0
  -27.5578  -37.1808   24.8471 C   0  0  0  0  0  0
  -21.4134  -29.3038   22.3700 N   0  0  0  0  0  0
  -26.4289  -37.3792   23.9417 N   0  0  0  0  0  0
  -24.6690  -31.0806   22.1000 N   0  0  0  0  0  0
  -23.4190  -28.8176   23.2957 O   0  0  0  0  0  0
  -28.3946  -26.6786   20.1595 O   0  0  0  0  0  0
  -26.5585  -34.8922   22.4699 O   0  0  0  0  0  0
  -23.5350  -32.1410   23.7528 O   0  0  0  0  0  0
  -30.6065  -17.0195   22.9893 C   0  0  0  0  0  0
  -30.8708  -18.3484   23.3738 C   0  0  0  0  0  0
  -30.6264  -19.0505   21.0704 C   0  0  0  0  0  0
  -30.3692  -17.7190   20.6579 C   0  0  0  0  0  0
  -30.3730  -16.6846   21.6383 C   0  0  0  0  0  0
  -30.8738  -19.3878   22.4240 C   0  0  0  0  0  0
  -31.6624  -21.4209   18.1143 C   0  0  0  0  0  0
  -29.8973  -21.7023   16.3462 C   0  0  0  0  0  0
  -30.0202  -17.4469   19.1874 C   0  0  0  0  0  0
  -30.7499  -18.3340   18.1574 C   0  0  0  0  0  0
  -29.9396  -19.5726   17.7163 C   0  0  0  0  0  0
  -29.1491  -24.4624   21.0575 C   0  0  0  0  0  0
  -29.3181  -22.1436   22.1215 C   0  0  0  0  0  0
  -28.2861  -25.2458   20.0359 C   0  0  0  0  0  0
  -30.8240  -21.8112   22.0716 C   0  0  0  0  0  0
  -30.7910  -20.6902   17.0783 C   0  0  0  0  0  0
  -30.0225  -15.3348   21.3563 N   0  0  0  0  0  0
  -28.8294  -23.0062   21.0092 N   0  3  0  0  0  0
  -31.1204  -20.6696   22.8901 O   0  0  0  0  0  0
  -31.4682  -12.4320   19.0937 H   0  0  0  0  0  0
  -30.3449  -11.2809   19.7642 H   0  0  0  0  0  0
  -29.7305  -11.8395   17.3929 H   0  0  0  0  0  0
  -29.6495  -13.5358   17.7960 H   0  0  0  0  0  0
  -27.8144  -11.3262   18.7804 H   0  0  0  0  0  0
  -27.3634  -12.6887   17.7884 H   0  0  0  0  0  0
  -27.7252  -14.2578   19.6210 H   0  0  0  0  0  0
  -28.6703  -11.8803   21.2859 H   0  0  0  0  0  0
  -28.4538  -13.4829   21.8992 H   0  0  0  0  0  0
  -25.2757   -9.5669   22.4744 H   0  0  0  0  0  0
  -23.9976   -7.4650   22.7497 H   0  0  0  0  0  0
  -21.0817   -8.8751   19.8993 H   0  0  0  0  0  0
  -22.3669  -10.9640   19.6166 H   0  0  0  0  0  0
  -21.2024   -7.6145   23.9682 H   0  0  0  0  0  0
  -21.1490   -6.0537   25.9069 H   0  0  0  0  0  0
  -22.0605   -2.7594   23.2840 H   0  0  0  0  0  0
  -22.4148  -11.9913   22.4754 H   0  0  0  0  0  0
  -21.1159  -13.1305   22.2601 H   0  0  0  0  0  0
  -24.6735  -15.8481   20.5126 H   0  0  0  0  0  0
  -26.2978  -15.6207   20.1091 H   0  0  0  0  0  0
  -26.7115  -32.5530   23.1158 H   0  0  0  0  0  0
  -25.0112  -33.9781   25.0521 H   0  0  0  0  0  0
  -22.6919  -31.3140   21.4126 H   0  0  0  0  0  0
  -23.3755  -35.9637   23.3323 H   0  0  0  0  0  0
  -24.3575  -36.8889   22.2054 H   0  0  0  0  0  0
  -23.7241  -37.6513   23.6635 H   0  0  0  0  0  0
  -26.0537  -31.5970   20.5980 H   0  0  0  0  0  0
  -26.8223  -30.8809   21.9857 H   0  0  0  0  0  0
  -28.0894  -29.0853   21.1918 H   0  0  0  0  0  0
  -26.0201  -26.0226   18.9284 H   0  0  0  0  0  0
  -23.9805  -27.3281   18.9985 H   0  0  0  0  0  0
  -23.7248  -30.6148   19.4056 H   0  0  0  0  0  0
  -22.7337  -29.2598   19.8622 H   0  0  0  0  0  0
  -25.1282  -36.1974   25.0835 H   0  0  0  0  0  0
  -20.9987  -28.3238   24.1417 H   0  0  0  0  0  0
  -20.5665  -26.2260   23.3593 H   0  0  0  0  0  0
  -21.6630  -26.7425   22.1201 H   0  0  0  0  0  0
  -19.6895  -25.6298   21.1232 H   0  0  0  0  0  0
  -19.6707  -27.3199   20.6747 H   0  0  0  0  0  0
  -17.4189  -26.6690   21.4021 H   0  0  0  0  0  0
  -18.0322  -26.0074   22.9018 H   0  0  0  0  0  0
  -19.7933  -30.7276   24.2265 H   0  0  0  0  0  0
  -17.5010  -31.6267   24.5174 H   0  0  0  0  0  0
  -15.5350  -30.2995   23.7656 H   0  0  0  0  0  0
  -15.8659  -28.0839   22.7046 H   0  0  0  0  0  0
  -24.5920  -30.7050   25.7835 H   0  0  0  0  0  0
  -24.8955  -32.2862   26.4961 H   0  0  0  0  0  0
  -25.8129  -30.8861   27.0241 H   0  0  0  0  0  0
  -26.2869  -29.6802   24.1176 H   0  0  0  0  0  0
  -27.4141  -29.7302   25.4530 H   0  0  0  0  0  0
  -27.8668  -30.4396   23.9215 H   0  0  0  0  0  0
  -27.2709  -33.3612   26.2076 H   0  0  0  0  0  0
  -28.3860  -32.6889   25.0287 H   0  0  0  0  0  0
  -28.0755  -31.8433   26.5366 H   0  0  0  0  0  0
  -28.2610  -38.0091   24.7502 H   0  0  0  0  0  0
  -28.1063  -36.2625   24.6320 H   0  0  0  0  0  0
  -27.2292  -37.1472   25.8871 H   0  0  0  0  0  0
  -20.9272  -29.8773   21.6955 H   0  0  0  0  0  0
  -26.0185  -38.2875   24.1415 H   0  0  0  0  0  0
  -30.5726  -16.2522   23.7500 H   0  0  0  0  0  0
  -31.0507  -18.5684   24.4187 H   0  0  0  0  0  0
  -30.6287  -19.8164   20.3186 H   0  0  0  0  0  0
  -32.3213  -22.1460   17.6356 H   0  0  0  0  0  0
  -32.2909  -20.7373   18.6838 H   0  0  0  0  0  0
  -31.0472  -21.9721   18.8223 H   0  0  0  0  0  0
  -30.4897  -22.5008   15.8966 H   0  0  0  0  0  0
  -29.1817  -22.1687   17.0233 H   0  0  0  0  0  0
  -29.3327  -21.2275   15.5423 H   0  0  0  0  0  0
  -28.9401  -17.5358   19.0660 H   0  0  0  0  0  0
  -30.2548  -16.4188   18.9271 H   0  0  0  0  0  0
  -30.9251  -17.7369   17.2603 H   0  0  0  0  0  0
  -31.7462  -18.5822   18.5218 H   0  0  0  0  0  0
  -29.3688  -19.9834   18.5487 H   0  0  0  0  0  0
  -29.1890  -19.2351   16.9997 H   0  0  0  0  0  0
  -28.9430  -24.8377   22.0608 H   0  0  0  0  0  0
  -30.2099  -24.6221   20.8689 H   0  0  0  0  0  0
  -29.0659  -22.5818   23.0879 H   0  0  0  0  0  0
  -28.7550  -21.2121   22.0636 H   0  0  0  0  0  0
  -27.2691  -24.8982   20.2095 H   0  0  0  0  0  0
  -28.5476  -24.9639   19.0146 H   0  0  0  0  0  0
  -31.3819  -22.6641   22.4613 H   0  0  0  0  0  0
  -31.1900  -21.6862   21.0573 H   0  0  0  0  0  0
  -31.4513  -20.2363   16.3363 H   0  0  0  0  0  0
  -29.1924  -14.9803   21.8068 H   0  0  0  0  0  0
  -29.1122  -22.6161   20.1241 H   0  0  0  0  0  0
  -27.8226  -22.9335   21.0316 H   0  0  0  0  0  0
  1 25  1  0  0  0
  1 30  2  0  0  0
  1 87  1  0  0  0
  2  3  1  0  0  0
  2 25  1  0  0  0
  2 90  1  0  0  0
  2 91  1  0  0  0
  3  4  1  0  0  0
  3 92  1  0  0  0
  3 93  1  0  0  0
  4  5  1  0  0  0
  4 94  1  0  0  0
  4 95  1  0  0  0
  5  6  1  0  0  0
  5 26  1  0  0  0
  5 96  1  0  0  0
  6 25  1  0  0  0
  6 97  1  0  0  0
  6 98  1  0  0  0
  7  8  2  0  0  0
  7 26  1  0  0  0
  7 29  1  0  0  0
  8  9  1  0  0  0
  8 22  1  0  0  0
  9 10  1  0  0  0
  9 27  2  0  0  0
 10 11  2  0  0  0
 10 15  1  0  0  0
 11 12  1  0  0  0
 11 99  1  0  0  0
 12 13  2  0  0  0
 12100  1  0  0  0
 13 14  1  0  0  0
 13 31  1  0  0  0
 14 15  2  0  0  0
 14101  1  0  0  0
 15102  1  0  0  0
 16 17  2  0  0  0
 16 21  1  0  0  0
 16 31  1  0  0  0
 17 18  1  0  0  0
 17103  1  0  0  0
 18 19  2  0  0  0
 18104  1  0  0  0
 19 20  1  0  0  0
 19 24  1  0  0  0
 20 21  2  0  0  0
 20105  1  0  0  0
 21 23  1  0  0  0
 22 28  1  0  0  0
 22 32  2  0  0  0
 26 27  1  0  0  0
 28106  1  0  0  0
 28107  1  0  0  0
 29108  1  0  0  0
 29109  1  0  0  0
 33 34  1  0  0  0
 33 66  1  0  0  0
 33 70  2  0  0  0
 34 36  1  0  0  0
 34 59  1  0  0  0
 34110  1  0  0  0
 35 44  2  0  0  0
 35 45  1  0  0  0
 35 68  1  0  0  0
 36 56  1  0  0  0
 36111  1  0  0  0
 37 39  1  0  0  0
 37 47  1  0  0  0
 37 66  1  0  0  0
 37112  1  0  0  0
 38 43  2  0  0  0
 38 46  1  0  0  0
 38 47  1  0  0  0
 39 64  1  0  0  0
 39 67  2  0  0  0
 40 52  1  0  0  0
 40 53  2  0  0  0
 40 58  1  0  0  0
 41113  1  0  0  0
 41114  1  0  0  0
 41115  1  0  0  0
 41 48  1  0  0  0
 42 43  1  0  0  0
 42 66  1  0  0  0
 42116  1  0  0  0
 42117  1  0  0  0
 43 44  1  0  0  0
 44118  1  0  0  0
 45 46  2  0  0  0
 45119  1  0  0  0
 46120  1  0  0  0
 47121  1  0  0  0
 47122  1  0  0  0
 48 56  1  0  0  0
 48 65  1  0  0  0
 48123  1  0  0  0
 49 50  1  0  0  0
 49 53  1  0  0  0
 49 64  1  0  0  0
 49124  1  0  0  0
 50 51  1  0  0  0
 50125  1  0  0  0
 50126  1  0  0  0
 51 52  1  0  0  0
 51127  1  0  0  0
 51128  1  0  0  0
 52129  1  0  0  0
 52130  1  0  0  0
 53 54  1  0  0  0
 54 55  2  0  0  0
 54131  1  0  0  0
 55 57  1  0  0  0
 55132  1  0  0  0
 56 69  2  0  0  0
 57 58  2  0  0  0
 57133  1  0  0  0
 58134  1  0  0  0
 59 60  1  0  0  0
 59 61  1  0  0  0
 59 62  1  0  0  0
 60135  1  0  0  0
 60136  1  0  0  0
 60137  1  0  0  0
 61138  1  0  0  0
 61139  1  0  0  0
 61140  1  0  0  0
 62141  1  0  0  0
 62142  1  0  0  0
 62143  1  0  0  0
 63 65  1  0  0  0
 63144  1  0  0  0
 63145  1  0  0  0
 63146  1  0  0  0
 64147  1  0  0  0
 65148  1  0  0  0
 68 84  1  0  0  0
 71 72  2  0  0  0
 71 75  1  0  0  0
 71149  1  0  0  0
 72 76  1  0  0  0
 72150  1  0  0  0
 73 74  1  0  0  0
 73 76  2  0  0  0
 73151  1  0  0  0
 74 75  2  0  0  0
 74 79  1  0  0  0
 75 87  1  0  0  0
 76 89  1  0  0  0
 77152  1  0  0  0
 77153  1  0  0  0
 77154  1  0  0  0
 77 86  1  0  0  0
 78 86  1  0  0  0
 78155  1  0  0  0
 78156  1  0  0  0
 78157  1  0  0  0
 79 80  1  0  0  0
 79158  1  0  0  0
 79159  1  0  0  0
 80 81  1  0  0  0
 80160  1  0  0  0
 80161  1  0  0  0
 81 86  1  0  0  0
 81162  1  0  0  0
 81163  1  0  0  0
 82 84  1  0  0  0
 82 88  1  0  0  0
 82164  1  0  0  0
 82165  1  0  0  0
 83 85  1  0  0  0
 83 88  1  0  0  0
 83166  1  0  0  0
 83167  1  0  0  0
 84168  1  0  0  0
 84169  1  0  0  0
 85 89  1  0  0  0
 85170  1  0  0  0
 85171  1  0  0  0
 86172  1  0  0  0
 87173  1  0  0  0
 88174  1  0  0  0
 88175  1  0  0  0
M  CHG  1  88   1
M  ISO  4   1 100  68 101  84 101  87 100
M  END
> <chiral flag>
0

> <version>
0

> <s_m_source_file>
/data/baiqing/PycharmProjects/Reinvent-master-3.2/result/LINK_invent/BTK/process_docking_weight1_custom_sum_contain_oxygen_bond_distance_aromatic_linkinvent_7_9_3/rearranged_h_0128.sdf

> <i_m_source_file_index>
33

> <r_mmod_Potential_Energy-OPLS-2005>
-108.60383605957

> <r_mmod_Stretch_Energy-OPLS-2005>
40.8539886474609

> <r_mmod_Bend_Energy-OPLS-2005>
119.859481811523

> <r_mmod_Torsional_Energy-OPLS-2005>
246.798675537109

> <r_mmod_Improper_Torsional_Energy-OPLS-2005>
2.96216917037964

> <r_mmod_Van_der_Waal_Energy-OPLS-2005>
156.751800537109

> <r_mmod_Electrostatic_Energy-OPLS-2005>
-242.500503540039

> <r_mmod_Solvation_Energy-OPLS-2005>
-445.435363769531

> <b_mmod_Minimization_Converged-OPLS-2005>
0

> <r_mmod_RMS_Derivative-OPLS-2005>
2.98119616508484

$$$$
33
                    3D
 Structure written by MMmdl.
159168  0  0  1  0            999 V2000
  -30.6968  -14.4637   20.5201 C   0  0  0  0  0  0
  -30.4185  -12.2818   19.4420 C   0  0  0  0  0  0
  -29.5015  -12.4984   18.2203 C   0  0  0  0  0  0
  -28.0185  -12.3729   18.6193 C   0  0  0  0  0  0
  -27.6595  -13.2083   19.8774 C   0  0  2  0  0  0
  -28.7021  -13.0068   21.0059 C   0  0  0  0  0  0
  -25.2589  -13.8167   20.5702 C   0  0  0  0  0  0
  -24.1843  -13.0449   20.9205 C   0  0  0  0  0  0
  -24.6392  -11.6907   20.8734 C   0  0  0  0  0  0
  -23.9068  -10.4294   21.0390 C   0  0  0  0  0  0
  -24.3618   -9.4214   21.9174 C   0  0  0  0  0  0
  -23.6293   -8.2251   22.0753 C   0  0  0  0  0  0
  -22.4276   -8.0282   21.3554 C   0  0  0  0  0  0
  -21.9918   -9.0257   20.4651 C   0  0  0  0  0  0
  -22.7248  -10.2131   20.3046 C   0  0  0  0  0  0
  -21.6856   -6.0735   22.5278 C   0  0  0  0  0  0
  -21.4016   -6.5635   23.8218 C   0  0  0  0  0  0
  -21.3679   -5.6791   24.9184 C   0  0  0  0  0  0
  -21.6056   -4.3054   24.7225 C   0  0  0  0  0  0
  -21.8819   -3.8145   23.4345 C   0  0  0  0  0  0
  -21.9198   -4.6964   22.3406 C   0  0  0  0  0  0
  -22.7862  -13.5236   21.1840 C   0  0  0  0  0  0
  -22.1652   -4.2155   21.0977 F   0  0  0  0  0  0
  -21.5642   -3.4535   25.7738 F   0  0  0  0  0  0
  -30.0406  -13.2774   20.4561 N   0  0  0  0  0  0
  -26.3018  -12.9329   20.3380 N   0  0  0  0  0  0
  -25.9321  -11.6500   20.5781 N   0  0  0  0  0  0
  -22.0494  -12.8234   22.0400 N   0  0  0  0  0  0
  -25.4288  -15.1893   20.4079 N   0  0  0  0  0  0
  -31.8518  -14.6211   20.1147 O   0  0  0  0  0  0
  -21.6655   -6.8870   21.4236 O   0  0  0  0  0  0
  -22.3550  -14.5538   20.6686 O   0  0  0  0  0  0
  -24.6102  -31.8729   23.2161 C   0  0  0  0  0  0
  -25.9012  -32.4848   23.8425 C   0  0  1  0  0  0
  -27.2240  -27.4633   20.0812 C   0  0  0  0  0  0
  -25.5862  -33.8640   24.2352 N   0  0  0  0  0  0
  -23.3957  -30.5012   21.5564 C   0  0  2  0  0  0
  -24.8373  -28.9794   20.1148 C   0  0  0  0  0  0
  -22.7390  -29.4672   22.4999 C   0  0  0  0  0  0
  -18.0262  -28.1369   22.8494 C   0  0  0  0  0  0
  -24.1470  -36.7344   23.2639 C   0  0  0  0  0  0
  -25.9236  -30.8492   21.3646 C   0  0  0  0  0  0
  -25.9987  -29.4880   20.7062 C   0  0  0  0  0  0
  -27.1946  -28.7380   20.6881 C   0  0  0  0  0  0
  -26.0401  -26.9758   19.4712 C   0  0  0  0  0  0
  -24.8513  -27.7197   19.4991 C   0  0  0  0  0  0
  -23.6022  -29.8460   20.1662 C   0  0  0  0  0  0
  -25.4083  -36.3129   24.0347 C   0  0  1  0  0  0
  -20.5859  -28.3639   23.1338 C   0  0  2  0  0  0
  -20.6750  -26.9380   22.5426 C   0  0  0  0  0  0
  -19.5726  -26.6373   21.5222 C   0  0  0  0  0  0
  -18.1907  -26.7919   22.1634 C   0  0  0  0  0  0
  -19.1517  -28.8821   23.2926 C   0  0  0  0  0  0
  -18.9449  -30.1430   23.8934 C   0  0  0  0  0  0
  -17.6458  -30.6576   24.0567 C   0  0  0  0  0  0
  -25.9018  -34.9492   23.5150 C   0  0  0  0  0  0
  -16.5343  -29.9092   23.6312 C   0  0  0  0  0  0
  -16.7261  -28.6509   23.0330 C   0  0  0  0  0  0
  -26.4438  -31.6616   25.0739 C   0  0  0  0  0  0
  -25.3700  -31.3760   26.1494 C   0  0  0  0  0  0
  -27.0253  -30.3051   24.6113 C   0  0  0  0  0  0
  -27.6014  -32.4331   25.7504 C   0  0  0  0  0  0
  -27.5594  -37.1796   24.8438 C   0  0  0  0  0  0
  -21.4120  -29.3017   22.3744 N   0  0  0  0  0  0
  -26.4271  -37.3819   23.9440 N   0  0  0  0  0  0
  -24.6620  -31.0863   22.1048 N   0  0  0  0  0  0
  -23.4195  -28.8198   23.3001 O   0  0  0  0  0  0
  -28.3983  -26.7400   20.1140 O   0  0  0  0  0  0
  -26.5607  -34.8938   22.4730 O   0  0  0  0  0  0
  -23.5306  -32.1463   23.7578 O   0  0  0  0  0  0
  -30.0806  -19.7611   22.0385 C   0  0  0  0  0  0
  -30.1333  -18.3992   21.6681 C   0  0  0  0  0  0
  -29.7470  -20.7252   21.0615 C   0  0  0  0  0  0
  -29.4640  -20.2696   19.7578 C   0  0  0  0  0  0
  -29.8367  -18.0513   20.3355 C   0  0  0  0  0  0
  -29.7420  -22.2240   21.3973 C   0  0  0  0  0  0
  -29.1209  -21.2485   18.6550 C   0  0  0  0  0  0
  -29.7086  -22.6258   18.9610 C   0  0  0  0  0  0
  -29.9203  -16.6397   19.7825 C   0  0  0  0  0  0
  -29.4307  -24.5426   20.5061 C   0  0  0  0  0  0
  -28.2983  -25.3413   19.8419 C   0  0  0  0  0  0
  -29.4952  -18.9702   19.4114 N   0  0  0  0  0  0
  -29.8996  -15.5196   20.7271 N   0  0  0  0  0  0
  -29.2354  -23.0835   20.2902 N   0  3  2  0  0  0
  -31.4668  -12.3589   19.1493 H   0  0  0  0  0  0
  -30.2907  -11.2743   19.8418 H   0  0  0  0  0  0
  -29.7425  -11.7780   17.4370 H   0  0  0  0  0  0
  -29.6915  -13.4858   17.7963 H   0  0  0  0  0  0
  -27.8113  -11.3173   18.8023 H   0  0  0  0  0  0
  -27.3813  -12.6641   17.7823 H   0  0  0  0  0  0
  -27.6915  -14.2540   19.5705 H   0  0  0  0  0  0
  -28.6628  -11.9810   21.3780 H   0  0  0  0  0  0
  -28.4793  -13.6438   21.8628 H   0  0  0  0  0  0
  -25.2751   -9.5705   22.4774 H   0  0  0  0  0  0
  -24.0027   -7.4639   22.7457 H   0  0  0  0  0  0
  -21.0868   -8.8755   19.8943 H   0  0  0  0  0  0
  -22.3683  -10.9679   19.6166 H   0  0  0  0  0  0
  -21.1974   -7.6136   23.9722 H   0  0  0  0  0  0
  -21.1516   -6.0515   25.9094 H   0  0  0  0  0  0
  -22.0572   -2.7603   23.2844 H   0  0  0  0  0  0
  -22.4067  -11.9903   22.4855 H   0  0  0  0  0  0
  -21.1105  -13.1267   22.2544 H   0  0  0  0  0  0
  -24.6605  -15.8428   20.5123 H   0  0  0  0  0  0
  -26.2742  -15.6308   20.0721 H   0  0  0  0  0  0
  -26.7091  -32.5570   23.1200 H   0  0  0  0  0  0
  -24.9883  -33.9785   25.0407 H   0  0  0  0  0  0
  -22.6823  -31.3180   21.4251 H   0  0  0  0  0  0
  -23.3737  -35.9661   23.3216 H   0  0  0  0  0  0
  -24.3606  -36.9043   22.2078 H   0  0  0  0  0  0
  -23.7194  -37.6517   23.6694 H   0  0  0  0  0  0
  -26.0341  -31.6218   20.6024 H   0  0  0  0  0  0
  -26.8132  -30.8993   21.9812 H   0  0  0  0  0  0
  -28.0916  -29.1312   21.1470 H   0  0  0  0  0  0
  -26.0022  -26.0267   18.9586 H   0  0  0  0  0  0
  -23.9554  -27.3266   19.0397 H   0  0  0  0  0  0
  -23.7177  -30.6285   19.4155 H   0  0  0  0  0  0
  -22.7249  -29.2720   19.8637 H   0  0  0  0  0  0
  -25.1245  -36.1987   25.0838 H   0  0  0  0  0  0
  -20.9959  -28.3183   24.1460 H   0  0  0  0  0  0
  -20.5635  -26.2247   23.3606 H   0  0  0  0  0  0
  -21.6619  -26.7400   22.1228 H   0  0  0  0  0  0
  -19.6870  -25.6288   21.1242 H   0  0  0  0  0  0
  -19.6673  -27.3192   20.6761 H   0  0  0  0  0  0
  -17.4183  -26.6683   21.4030 H   0  0  0  0  0  0
  -18.0282  -26.0052   22.9020 H   0  0  0  0  0  0
  -19.7930  -30.7228   24.2324 H   0  0  0  0  0  0
  -17.5015  -31.6255   24.5167 H   0  0  0  0  0  0
  -15.5355  -30.3017   23.7596 H   0  0  0  0  0  0
  -15.8654  -28.0849   22.7013 H   0  0  0  0  0  0
  -24.5773  -30.7238   25.7817 H   0  0  0  0  0  0
  -24.9020  -32.2955   26.5020 H   0  0  0  0  0  0
  -25.8010  -30.8822   27.0207 H   0  0  0  0  0  0
  -26.2804  -29.6853   24.1117 H   0  0  0  0  0  0
  -27.3957  -29.7251   25.4576 H   0  0  0  0  0  0
  -27.8655  -30.4364   23.9294 H   0  0  0  0  0  0
  -27.2595  -33.3561   26.2197 H   0  0  0  0  0  0
  -28.3757  -32.7026   25.0309 H   0  0  0  0  0  0
  -28.0753  -31.8405   26.5338 H   0  0  0  0  0  0
  -28.2526  -38.0177   24.7602 H   0  0  0  0  0  0
  -28.1174  -36.2727   24.6072 H   0  0  0  0  0  0
  -27.2355  -37.1215   25.8844 H   0  0  0  0  0  0
  -20.9249  -29.8784   21.7026 H   0  0  0  0  0  0
  -26.0154  -38.2876   24.1518 H   0  0  0  0  0  0
  -30.3107  -20.0620   23.0513 H   0  0  0  0  0  0
  -30.4187  -17.6477   22.3902 H   0  0  0  0  0  0
  -30.7607  -22.5188   21.6531 H   0  0  0  0  0  0
  -29.1305  -22.3905   22.2864 H   0  0  0  0  0  0
  -28.0377  -21.3141   18.5561 H   0  0  0  0  0  0
  -29.4997  -20.8852   17.6999 H   0  0  0  0  0  0
  -29.4235  -23.3218   18.1735 H   0  0  0  0  0  0
  -30.7992  -22.5780   18.9547 H   0  0  0  0  0  0
  -30.7918  -16.6123   19.1247 H   0  0  0  0  0  0
  -29.0619  -16.5014   19.1237 H   0  0  0  0  0  0
  -29.4101  -24.7605   21.5745 H   0  0  0  0  0  0
  -30.4075  -24.8594   20.1382 H   0  0  0  0  0  0
  -27.3695  -24.9355   20.2449 H   0  0  0  0  0  0
  -28.2795  -25.1990   18.7605 H   0  0  0  0  0  0
  -28.9988  -15.3207   21.1291 H   0  0  0  0  0  0
  -28.2354  -22.9452   20.2965 H   0  0  0  0  0  0
  1 25  1  0  0  0
  1 30  2  0  0  0
  1 83  1  0  0  0
  2  3  1  0  0  0
  2 25  1  0  0  0
  2 85  1  0  0  0
  2 86  1  0  0  0
  3  4  1  0  0  0
  3 87  1  0  0  0
  3 88  1  0  0  0
  4  5  1  0  0  0
  4 89  1  0  0  0
  4 90  1  0  0  0
  5  6  1  0  0  0
  5 26  1  0  0  0
  5 91  1  0  0  0
  6 25  1  0  0  0
  6 92  1  0  0  0
  6 93  1  0  0  0
  7  8  2  0  0  0
  7 26  1  0  0  0
  7 29  1  0  0  0
  8  9  1  0  0  0
  8 22  1  0  0  0
  9 10  1  0  0  0
  9 27  2  0  0  0
 10 11  2  0  0  0
 10 15  1  0  0  0
 11 12  1  0  0  0
 11 94  1  0  0  0
 12 13  2  0  0  0
 12 95  1  0  0  0
 13 14  1  0  0  0
 13 31  1  0  0  0
 14 15  2  0  0  0
 14 96  1  0  0  0
 15 97  1  0  0  0
 16 17  2  0  0  0
 16 21  1  0  0  0
 16 31  1  0  0  0
 17 18  1  0  0  0
 17 98  1  0  0  0
 18 19  2  0  0  0
 18 99  1  0  0  0
 19 20  1  0  0  0
 19 24  1  0  0  0
 20 21  2  0  0  0
 20100  1  0  0  0
 21 23  1  0  0  0
 22 28  1  0  0  0
 22 32  2  0  0  0
 26 27  1  0  0  0
 28101  1  0  0  0
 28102  1  0  0  0
 29103  1  0  0  0
 29104  1  0  0  0
 33 34  1  0  0  0
 33 66  1  0  0  0
 33 70  2  0  0  0
 34 36  1  0  0  0
 34 59  1  0  0  0
 34105  1  0  0  0
 35 44  2  0  0  0
 35 45  1  0  0  0
 35 68  1  0  0  0
 36 56  1  0  0  0
 36106  1  0  0  0
 37 39  1  0  0  0
 37 47  1  0  0  0
 37 66  1  0  0  0
 37107  1  0  0  0
 38 43  2  0  0  0
 38 46  1  0  0  0
 38 47  1  0  0  0
 39 64  1  0  0  0
 39 67  2  0  0  0
 40 52  1  0  0  0
 40 53  2  0  0  0
 40 58  1  0  0  0
 41108  1  0  0  0
 41109  1  0  0  0
 41110  1  0  0  0
 41 48  1  0  0  0
 42 43  1  0  0  0
 42 66  1  0  0  0
 42111  1  0  0  0
 42112  1  0  0  0
 43 44  1  0  0  0
 44113  1  0  0  0
 45 46  2  0  0  0
 45114  1  0  0  0
 46115  1  0  0  0
 47116  1  0  0  0
 47117  1  0  0  0
 48 56  1  0  0  0
 48 65  1  0  0  0
 48118  1  0  0  0
 49 50  1  0  0  0
 49 53  1  0  0  0
 49 64  1  0  0  0
 49119  1  0  0  0
 50 51  1  0  0  0
 50120  1  0  0  0
 50121  1  0  0  0
 51 52  1  0  0  0
 51122  1  0  0  0
 51123  1  0  0  0
 52124  1  0  0  0
 52125  1  0  0  0
 53 54  1  0  0  0
 54 55  2  0  0  0
 54126  1  0  0  0
 55 57  1  0  0  0
 55127  1  0  0  0
 56 69  2  0  0  0
 57 58  2  0  0  0
 57128  1  0  0  0
 58129  1  0  0  0
 59 60  1  0  0  0
 59 61  1  0  0  0
 59 62  1  0  0  0
 60130  1  0  0  0
 60131  1  0  0  0
 60132  1  0  0  0
 61133  1  0  0  0
 61134  1  0  0  0
 61135  1  0  0  0
 62136  1  0  0  0
 62137  1  0  0  0
 62138  1  0  0  0
 63 65  1  0  0  0
 63139  1  0  0  0
 63140  1  0  0  0
 63141  1  0  0  0
 64142  1  0  0  0
 65143  1  0  0  0
 68 81  1  0  0  0
 71 72  2  0  0  0
 71 73  1  0  0  0
 71144  1  0  0  0
 72 75  1  0  0  0
 72145  1  0  0  0
 73 74  2  0  0  0
 73 76  1  0  0  0
 74 77  1  0  0  0
 74 82  1  0  0  0
 75 79  1  0  0  0
 75 82  2  0  0  0
 76 84  1  0  0  0
 76146  1  0  0  0
 76147  1  0  0  0
 77 78  1  0  0  0
 77148  1  0  0  0
 77149  1  0  0  0
 78 84  1  0  0  0
 78150  1  0  0  0
 78151  1  0  0  0
 79 83  1  0  0  0
 79152  1  0  0  0
 79153  1  0  0  0
 80 81  1  0  0  0
 80154  1  0  0  0
 80155  1  0  0  0
 80 84  1  0  0  0
 81156  1  0  0  0
 81157  1  0  0  0
 83158  1  0  0  0
 84159  1  0  0  0
M  CHG  1  84   1
M  ISO  4   1 100  68 101  81 101  83 100
M  END
> <chiral flag>
0

> <version>
0

> <s_m_source_file>
/data/baiqing/PycharmProjects/Reinvent-master-3.2/result/LINK_invent/BTK/process_docking_weight1_custom_sum_contain_oxygen_bond_distance_aromatic_linkinvent_7_9_3/rearranged_h_0128.sdf

> <i_m_source_file_index>
34

> <r_mmod_Potential_Energy-OPLS-2005>
-409.692596435547

> <r_mmod_Stretch_Energy-OPLS-2005>
33.0663528442383

> <r_mmod_Bend_Energy-OPLS-2005>
97.109130859375

> <r_mmod_Torsional_Energy-OPLS-2005>
238.078704833984

> <r_mmod_Improper_Torsional_Energy-OPLS-2005>
12.0003862380981

> <r_mmod_Van_der_Waal_Energy-OPLS-2005>
173.847274780273

> <r_mmod_Electrostatic_Energy-OPLS-2005>
-523.96484375

> <r_mmod_Solvation_Energy-OPLS-2005>
-454.131256103516

> <b_mmod_Minimization_Converged-OPLS-2005>
0

> <r_mmod_RMS_Derivative-OPLS-2005>
2.92437553405762

$$$$
34
                    3D
 Structure written by MMmdl.
151159  0  0  1  0            999 V2000
  -30.6744  -14.6399   20.4690 C   0  0  0  0  0  0
  -30.4163  -12.3859   19.4690 C   0  0  0  0  0  0
  -29.5021  -12.4816   18.2300 C   0  0  0  0  0  0
  -28.0250  -12.3324   18.6410 C   0  0  0  0  0  0
  -27.6430  -13.2284   19.8511 C   0  0  2  0  0  0
  -28.6870  -13.1434   20.9864 C   0  0  0  0  0  0
  -25.2510  -13.8209   20.5702 C   0  0  0  0  0  0
  -24.1793  -13.0455   20.9221 C   0  0  0  0  0  0
  -24.6377  -11.6933   20.8753 C   0  0  0  0  0  0
  -23.9058  -10.4305   21.0409 C   0  0  0  0  0  0
  -24.3614   -9.4222   21.9186 C   0  0  0  0  0  0
  -23.6294   -8.2250   22.0747 C   0  0  0  0  0  0
  -22.4274   -8.0288   21.3540 C   0  0  0  0  0  0
  -21.9909   -9.0264   20.4645 C   0  0  0  0  0  0
  -22.7232  -10.2146   20.3058 C   0  0  0  0  0  0
  -21.6851   -6.0743   22.5280 C   0  0  0  0  0  0
  -21.4018   -6.5645   23.8218 C   0  0  0  0  0  0
  -21.3658   -5.6793   24.9178 C   0  0  0  0  0  0
  -21.6039   -4.3056   24.7225 C   0  0  0  0  0  0
  -21.8818   -3.8152   23.4346 C   0  0  0  0  0  0
  -21.9193   -4.6970   22.3404 C   0  0  0  0  0  0
  -22.7812  -13.5237   21.1884 C   0  0  0  0  0  0
  -22.1659   -4.2160   21.0980 F   0  0  0  0  0  0
  -21.5626   -3.4537   25.7736 F   0  0  0  0  0  0
  -29.9978  -13.4506   20.4051 N   0  0  0  0  0  0
  -26.2935  -12.9411   20.3286 N   0  0  0  0  0  0
  -25.9305  -11.6556   20.5757 N   0  0  0  0  0  0
  -22.0453  -12.8226   22.0441 N   0  0  0  0  0  0
  -25.4195  -15.1933   20.4116 N   0  0  0  0  0  0
  -31.8630  -14.6982   20.1460 O   0  0  0  0  0  0
  -21.6637   -6.8886   21.4240 O   0  0  0  0  0  0
  -22.3495  -14.5541   20.6732 O   0  0  0  0  0  0
  -24.6250  -31.8605   23.2020 C   0  0  0  0  0  0
  -25.9102  -32.4787   23.8348 C   0  0  1  0  0  0
  -27.2236  -27.3269   20.1256 C   0  0  0  0  0  0
  -25.5919  -33.8582   24.2287 N   0  0  0  0  0  0
  -23.4193  -30.4825   21.5441 C   0  0  2  0  0  0
  -24.8671  -28.9358   20.1125 C   0  0  0  0  0  0
  -22.7472  -29.4622   22.4936 C   0  0  0  0  0  0
  -18.0286  -28.1394   22.8491 C   0  0  0  0  0  0
  -24.1481  -36.7293   23.2640 C   0  0  0  0  0  0
  -25.9581  -30.7954   21.3689 C   0  0  0  0  0  0
  -26.0349  -29.4210   20.7161 C   0  0  0  0  0  0
  -27.2205  -28.6286   20.7106 C   0  0  0  0  0  0
  -26.0395  -26.8925   19.4940 C   0  0  0  0  0  0
  -24.8701  -27.6762   19.4918 C   0  0  0  0  0  0
  -23.6343  -29.8149   20.1600 C   0  0  0  0  0  0
  -25.4107  -36.3092   24.0337 C   0  0  1  0  0  0
  -20.5886  -28.3695   23.1287 C   0  0  2  0  0  0
  -20.6776  -26.9419   22.5415 C   0  0  0  0  0  0
  -19.5752  -26.6393   21.5217 C   0  0  0  0  0  0
  -18.1932  -26.7938   22.1628 C   0  0  0  0  0  0
  -19.1539  -28.8861   23.2886 C   0  0  0  0  0  0
  -18.9461  -30.1464   23.8903 C   0  0  0  0  0  0
  -17.6463  -30.6597   24.0568 C   0  0  0  0  0  0
  -25.9043  -34.9458   23.5115 C   0  0  0  0  0  0
  -16.5353  -29.9099   23.6329 C   0  0  0  0  0  0
  -16.7274  -28.6515   23.0351 C   0  0  0  0  0  0
  -26.4494  -31.6589   25.0707 C   0  0  0  0  0  0
  -25.3737  -31.3724   26.1442 C   0  0  0  0  0  0
  -27.0333  -30.3019   24.6139 C   0  0  0  0  0  0
  -27.6058  -32.4312   25.7483 C   0  0  0  0  0  0
  -27.5576  -37.1806   24.8474 C   0  0  0  0  0  0
  -21.4185  -29.3047   22.3681 N   0  0  0  0  0  0
  -26.4288  -37.3783   23.9413 N   0  0  0  0  0  0
  -24.6865  -31.0622   22.0963 N   0  0  0  0  0  0
  -23.4192  -28.8160   23.3018 O   0  0  0  0  0  0
  -28.3273  -26.4669   20.1494 O   0  0  0  0  0  0
  -26.5613  -34.8926   22.4680 O   0  0  0  0  0  0
  -23.5412  -32.1393   23.7355 O   0  0  0  0  0  0
  -30.2531  -19.5837   19.5517 C   0  0  0  0  0  0
  -28.9576  -18.9195   21.4634 C   0  0  0  0  0  0
  -29.7890  -20.9289   19.6702 C   0  0  0  0  0  0
  -28.4924  -20.2662   21.5799 C   0  0  0  0  0  0
  -29.8692  -18.5439   20.4472 C   0  0  0  0  0  0
  -28.9031  -21.3133   20.7071 C   0  0  0  0  0  0
  -30.5970  -17.1497   20.3608 C   0  0  0  0  0  0
  -28.7904  -23.8070   20.1704 C   0  0  0  0  0  0
  -28.1065  -25.1286   20.7483 C   0  0  0  0  0  0
  -29.9752  -15.8087   20.6519 N   0  0  0  0  0  0
  -28.4178  -22.6165   20.9435 O   0  0  0  0  0  0
  -31.4631  -12.4723   19.1729 H   0  0  0  0  0  0
  -30.3237  -11.4080   19.9445 H   0  0  0  0  0  0
  -29.7676  -11.7109   17.5050 H   0  0  0  0  0  0
  -29.6533  -13.4389   17.7294 H   0  0  0  0  0  0
  -27.8592  -11.2836   18.8911 H   0  0  0  0  0  0
  -27.3741  -12.5462   17.7929 H   0  0  0  0  0  0
  -27.6469  -14.2531   19.4790 H   0  0  0  0  0  0
  -28.6952  -12.1478   21.4330 H   0  0  0  0  0  0
  -28.4413  -13.8387   21.7905 H   0  0  0  0  0  0
  -25.2758   -9.5702   22.4762 H   0  0  0  0  0  0
  -24.0013   -7.4634   22.7451 H   0  0  0  0  0  0
  -21.0847   -8.8781   19.8940 H   0  0  0  0  0  0
  -22.3691  -10.9688   19.6168 H   0  0  0  0  0  0
  -21.2012   -7.6153   23.9732 H   0  0  0  0  0  0
  -21.1475   -6.0517   25.9083 H   0  0  0  0  0  0
  -22.0595   -2.7616   23.2841 H   0  0  0  0  0  0
  -22.4067  -11.9903   22.4859 H   0  0  0  0  0  0
  -21.1059  -13.1239   22.2617 H   0  0  0  0  0  0
  -24.6509  -15.8457   20.5245 H   0  0  0  0  0  0
  -26.2650  -15.6354   20.0742 H   0  0  0  0  0  0
  -26.7167  -32.5474   23.1095 H   0  0  0  0  0  0
  -25.0082  -33.9724   25.0444 H   0  0  0  0  0  0
  -22.7126  -31.3024   21.3998 H   0  0  0  0  0  0
  -23.3742  -35.9627   23.3315 H   0  0  0  0  0  0
  -24.3570  -36.8893   22.2050 H   0  0  0  0  0  0
  -23.7229  -37.6501   23.6641 H   0  0  0  0  0  0
  -26.0798  -31.5546   20.5949 H   0  0  0  0  0  0
  -26.8420  -30.8530   21.9920 H   0  0  0  0  0  0
  -28.1184  -28.9947   21.1880 H   0  0  0  0  0  0
  -26.0123  -25.9257   19.0111 H   0  0  0  0  0  0
  -23.9758  -27.2988   19.0146 H   0  0  0  0  0  0
  -23.7544  -30.5901   19.4023 H   0  0  0  0  0  0
  -22.7551  -29.2436   19.8579 H   0  0  0  0  0  0
  -25.1280  -36.1954   25.0829 H   0  0  0  0  0  0
  -20.9980  -28.3277   24.1407 H   0  0  0  0  0  0
  -20.5682  -26.2309   23.3616 H   0  0  0  0  0  0
  -21.6645  -26.7460   22.1204 H   0  0  0  0  0  0
  -19.6912  -25.6302   21.1249 H   0  0  0  0  0  0
  -19.6686  -27.3203   20.6744 H   0  0  0  0  0  0
  -17.4200  -26.6684   21.4032 H   0  0  0  0  0  0
  -18.0332  -26.0084   22.9027 H   0  0  0  0  0  0
  -19.7937  -30.7281   24.2270 H   0  0  0  0  0  0
  -17.5019  -31.6276   24.5176 H   0  0  0  0  0  0
  -15.5355  -30.3006   23.7654 H   0  0  0  0  0  0
  -15.8670  -28.0842   22.7059 H   0  0  0  0  0  0
  -24.5915  -30.7065   25.7775 H   0  0  0  0  0  0
  -24.8924  -32.2891   26.4860 H   0  0  0  0  0  0
  -25.8075  -30.8912   27.0217 H   0  0  0  0  0  0
  -26.2900  -29.6774   24.1170 H   0  0  0  0  0  0
  -27.4050  -29.7265   25.4626 H   0  0  0  0  0  0
  -27.8754  -30.4308   23.9337 H   0  0  0  0  0  0
  -27.2675  -33.3605   26.2073 H   0  0  0  0  0  0
  -28.3872  -32.6881   25.0320 H   0  0  0  0  0  0
  -28.0722  -31.8428   26.5393 H   0  0  0  0  0  0
  -28.2615  -38.0083   24.7502 H   0  0  0  0  0  0
  -28.1049  -36.2617   24.6321 H   0  0  0  0  0  0
  -27.2297  -37.1489   25.8879 H   0  0  0  0  0  0
  -20.9362  -29.8772   21.6893 H   0  0  0  0  0  0
  -26.0177  -38.2860   24.1408 H   0  0  0  0  0  0
  -30.9592  -19.3597   18.7640 H   0  0  0  0  0  0
  -28.6430  -18.1886   22.1952 H   0  0  0  0  0  0
  -30.1424  -21.6650   18.9623 H   0  0  0  0  0  0
  -27.8175  -20.5077   22.3889 H   0  0  0  0  0  0
  -31.4700  -17.2366   21.0102 H   0  0  0  0  0  0
  -31.0071  -17.0843   19.3509 H   0  0  0  0  0  0
  -29.8755  -23.9180   20.1773 H   0  0  0  0  0  0
  -28.4907  -23.6629   19.1322 H   0  0  0  0  0  0
  -28.4322  -25.2246   21.7846 H   0  0  0  0  0  0
  -27.0405  -24.9172   20.8294 H   0  0  0  0  0  0
  -28.9880  -15.7630   20.8520 H   0  0  0  0  0  0
  1 25  1  0  0  0
  1 30  2  0  0  0
  1 80  1  0  0  0
  2  3  1  0  0  0
  2 25  1  0  0  0
  2 82  1  0  0  0
  2 83  1  0  0  0
  3  4  1  0  0  0
  3 84  1  0  0  0
  3 85  1  0  0  0
  4  5  1  0  0  0
  4 86  1  0  0  0
  4 87  1  0  0  0
  5  6  1  0  0  0
  5 26  1  0  0  0
  5 88  1  0  0  0
  6 25  1  0  0  0
  6 89  1  0  0  0
  6 90  1  0  0  0
  7  8  2  0  0  0
  7 26  1  0  0  0
  7 29  1  0  0  0
  8  9  1  0  0  0
  8 22  1  0  0  0
  9 10  1  0  0  0
  9 27  2  0  0  0
 10 11  2  0  0  0
 10 15  1  0  0  0
 11 12  1  0  0  0
 11 91  1  0  0  0
 12 13  2  0  0  0
 12 92  1  0  0  0
 13 14  1  0  0  0
 13 31  1  0  0  0
 14 15  2  0  0  0
 14 93  1  0  0  0
 15 94  1  0  0  0
 16 17  2  0  0  0
 16 21  1  0  0  0
 16 31  1  0  0  0
 17 18  1  0  0  0
 17 95  1  0  0  0
 18 19  2  0  0  0
 18 96  1  0  0  0
 19 20  1  0  0  0
 19 24  1  0  0  0
 20 21  2  0  0  0
 20 97  1  0  0  0
 21 23  1  0  0  0
 22 28  1  0  0  0
 22 32  2  0  0  0
 26 27  1  0  0  0
 28 98  1  0  0  0
 28 99  1  0  0  0
 29100  1  0  0  0
 29101  1  0  0  0
 33 34  1  0  0  0
 33 66  1  0  0  0
 33 70  2  0  0  0
 34 36  1  0  0  0
 34 59  1  0  0  0
 34102  1  0  0  0
 35 44  2  0  0  0
 35 45  1  0  0  0
 35 68  1  0  0  0
 36 56  1  0  0  0
 36103  1  0  0  0
 37 39  1  0  0  0
 37 47  1  0  0  0
 37 66  1  0  0  0
 37104  1  0  0  0
 38 43  2  0  0  0
 38 46  1  0  0  0
 38 47  1  0  0  0
 39 64  1  0  0  0
 39 67  2  0  0  0
 40 52  1  0  0  0
 40 53  2  0  0  0
 40 58  1  0  0  0
 41105  1  0  0  0
 41106  1  0  0  0
 41107  1  0  0  0
 41 48  1  0  0  0
 42 43  1  0  0  0
 42 66  1  0  0  0
 42108  1  0  0  0
 42109  1  0  0  0
 43 44  1  0  0  0
 44110  1  0  0  0
 45 46  2  0  0  0
 45111  1  0  0  0
 46112  1  0  0  0
 47113  1  0  0  0
 47114  1  0  0  0
 48 56  1  0  0  0
 48 65  1  0  0  0
 48115  1  0  0  0
 49 50  1  0  0  0
 49 53  1  0  0  0
 49 64  1  0  0  0
 49116  1  0  0  0
 50 51  1  0  0  0
 50117  1  0  0  0
 50118  1  0  0  0
 51 52  1  0  0  0
 51119  1  0  0  0
 51120  1  0  0  0
 52121  1  0  0  0
 52122  1  0  0  0
 53 54  1  0  0  0
 54 55  2  0  0  0
 54123  1  0  0  0
 55 57  1  0  0  0
 55124  1  0  0  0
 56 69  2  0  0  0
 57 58  2  0  0  0
 57125  1  0  0  0
 58126  1  0  0  0
 59 60  1  0  0  0
 59 61  1  0  0  0
 59 62  1  0  0  0
 60127  1  0  0  0
 60128  1  0  0  0
 60129  1  0  0  0
 61130  1  0  0  0
 61131  1  0  0  0
 61132  1  0  0  0
 62133  1  0  0  0
 62134  1  0  0  0
 62135  1  0  0  0
 63 65  1  0  0  0
 63136  1  0  0  0
 63137  1  0  0  0
 63138  1  0  0  0
 64139  1  0  0  0
 65140  1  0  0  0
 68 79  1  0  0  0
 71 73  2  0  0  0
 71 75  1  0  0  0
 71141  1  0  0  0
 72 74  1  0  0  0
 72 75  2  0  0  0
 72142  1  0  0  0
 73 76  1  0  0  0
 73143  1  0  0  0
 74 76  2  0  0  0
 74144  1  0  0  0
 75 77  1  0  0  0
 76 81  1  0  0  0
 77 80  1  0  0  0
 77145  1  0  0  0
 77146  1  0  0  0
 78 79  1  0  0  0
 78 81  1  0  0  0
 78147  1  0  0  0
 78148  1  0  0  0
 79149  1  0  0  0
 79150  1  0  0  0
 80151  1  0  0  0
M  ISO  4   1 100  68 101  79 101  80 100
M  END
> <chiral flag>
0

> <version>
0

> <s_m_source_file>
/data/baiqing/PycharmProjects/Reinvent-master-3.2/result/LINK_invent/BTK/process_docking_weight1_custom_sum_contain_oxygen_bond_distance_aromatic_linkinvent_7_9_3/rearranged_h_0128.sdf

> <i_m_source_file_index>
35

> <r_mmod_Potential_Energy-OPLS-2005>
36.7274284362793

> <r_mmod_Stretch_Energy-OPLS-2005>
76.701904296875

> <r_mmod_Bend_Energy-OPLS-2005>
155.474868774414

> <r_mmod_Torsional_Energy-OPLS-2005>
221.02214050293

> <r_mmod_Improper_Torsional_Energy-OPLS-2005>
6.35961389541626

> <r_mmod_Van_der_Waal_Energy-OPLS-2005>
143.365112304688

> <r_mmod_Electrostatic_Energy-OPLS-2005>
-407.782104492188

> <r_mmod_Solvation_Energy-OPLS-2005>
-210.192901611328

> <b_mmod_Minimization_Converged-OPLS-2005>
0

> <r_mmod_RMS_Derivative-OPLS-2005>
0.90838497877121

$$$$
35
                    3D
 Structure written by MMmdl.
173182  0  0  1  0            999 V2000
  -31.0200  -14.5010   20.3193 C   0  0  0  0  0  0
  -31.0860  -12.7923   19.4429 C   0  0  0  0  0  0
  -29.4054  -13.1545   17.4579 C   0  0  0  0  0  0
  -27.6673  -13.0125   18.1569 C   0  0  0  0  0  0
  -27.5284  -12.8885   19.9845 C   0  0  2  0  0  0
  -28.8932  -12.9022   21.1811 C   0  0  0  0  0  0
  -25.1907  -13.8004   20.6303 C   0  0  0  0  0  0
  -24.0802  -13.0702   20.9637 C   0  0  0  0  0  0
  -24.4635  -11.7024   20.9426 C   0  0  0  0  0  0
  -23.7794  -10.4373   21.0896 C   0  0  0  0  0  0
  -24.2870   -9.4299   21.9406 C   0  0  0  0  0  0
  -23.5980   -8.2111   22.0715 C   0  0  0  0  0  0
  -22.4016   -8.0038   21.3478 C   0  0  0  0  0  0
  -21.9415   -8.9911   20.4614 C   0  0  0  0  0  0
  -22.6289  -10.2033   20.3242 C   0  0  0  0  0  0
  -21.6760   -6.0587   22.5271 C   0  0  0  0  0  0
  -21.3951   -6.5563   23.8184 C   0  0  0  0  0  0
  -21.3640   -5.6756   24.9174 C   0  0  0  0  0  0
  -21.6053   -4.3013   24.7260 C   0  0  0  0  0  0
  -21.8839   -3.8069   23.4393 C   0  0  0  0  0  0
  -21.9190   -4.6847   22.3430 C   0  0  0  0  0  0
  -22.7021  -13.5745   21.2018 C   0  0  0  0  0  0
  -22.1674   -4.2030   21.1012 F   0  0  0  0  0  0
  -21.5655   -3.4527   25.7800 F   0  0  0  0  0  0
  -30.4897  -13.2501   20.7606 N   0  0  0  0  0  0
  -26.1745  -12.8505   20.4472 N   0  0  0  0  0  0
  -25.7042  -11.6033   20.6684 N   0  0  0  0  0  0
  -21.9542  -12.8802   22.0513 N   0  0  0  0  0  0
  -25.4286  -15.1563   20.4561 N   0  0  0  0  0  0
  -32.0896  -14.9271   20.7063 O   0  0  0  0  0  0
  -21.6531   -6.8587   21.4157 O   0  0  0  0  0  0
  -22.2984  -14.6001   20.6625 O   0  0  0  0  0  0
  -24.6399  -31.8488   23.1966 C   0  0  0  0  0  0
  -25.9204  -32.4699   23.8308 C   0  0  1  0  0  0
  -27.1697  -27.1705   20.0876 C   0  0  0  0  0  0
  -25.5975  -33.8510   24.2215 N   0  0  0  0  0  0
  -23.4362  -30.4786   21.5430 C   0  0  2  0  0  0
  -24.8701  -28.9219   20.1043 C   0  0  0  0  0  0
  -22.7526  -29.4576   22.4874 C   0  0  0  0  0  0
  -18.0294  -28.1391   22.8473 C   0  0  0  0  0  0
  -24.1504  -36.7267   23.2636 C   0  0  0  0  0  0
  -25.9936  -30.7236   21.3962 C   0  0  0  0  0  0
  -26.0508  -29.3440   20.7269 C   0  0  0  0  0  0
  -27.2039  -28.4767   20.7169 C   0  0  0  0  0  0
  -25.9732  -26.8683   19.4039 C   0  0  0  0  0  0
  -24.8403  -27.6946   19.4353 C   0  0  0  0  0  0
  -23.6542  -29.8256   20.1564 C   0  0  0  0  0  0
  -25.4130  -36.3032   24.0311 C   0  0  1  0  0  0
  -20.5901  -28.3711   23.1242 C   0  0  2  0  0  0
  -20.6785  -26.9421   22.5399 C   0  0  0  0  0  0
  -19.5765  -26.6384   21.5202 C   0  0  0  0  0  0
  -18.1944  -26.7930   22.1616 C   0  0  0  0  0  0
  -19.1551  -28.8866   23.2853 C   0  0  0  0  0  0
  -18.9472  -30.1459   23.8885 C   0  0  0  0  0  0
  -17.6475  -30.6591   24.0558 C   0  0  0  0  0  0
  -25.9081  -34.9410   23.5062 C   0  0  0  0  0  0
  -16.5363  -29.9090   23.6329 C   0  0  0  0  0  0
  -16.7280  -28.6504   23.0352 C   0  0  0  0  0  0
  -26.4541  -31.6553   25.0737 C   0  0  0  0  0  0
  -25.3735  -31.3748   26.1438 C   0  0  0  0  0  0
  -27.0385  -30.2933   24.6326 C   0  0  0  0  0  0
  -27.6068  -32.4320   25.7512 C   0  0  0  0  0  0
  -27.5581  -37.1793   24.8458 C   0  0  0  0  0  0
  -21.4229  -29.3056   22.3632 N   0  0  0  0  0  0
  -26.4292  -37.3747   23.9403 N   0  0  0  0  0  0
  -24.7095  -31.0369   22.0990 N   0  0  0  0  0  0
  -23.4200  -28.8103   23.2983 O   0  0  0  0  0  0
  -28.2126  -26.1905   20.1177 O   0  0  0  0  0  0
  -26.5662  -34.8896   22.4638 O   0  0  0  0  0  0
  -23.5535  -32.1372   23.7203 O   0  0  0  0  0  0
  -28.4787  -15.8467   18.9328 C   0  0  0  0  0  0
  -30.7187  -11.1446   17.7364 C   0  0  0  0  0  0
  -31.7669  -12.5783   17.1067 C   0  0  0  0  0  0
  -29.3347  -11.5523   18.9893 C   0  0  0  0  0  0
  -28.4843  -22.5311   18.3101 C   0  0  0  0  0  0
  -27.8849  -22.0705   20.6245 C   0  0  0  0  0  0
  -28.7849  -24.0550   18.6719 C   0  0  0  0  0  0
  -28.2076  -23.6143   20.9803 C   0  0  0  0  0  0
  -31.6388  -14.3781   17.6720 C   0  0  0  0  0  0
  -29.2935  -14.4123   19.2810 C   0  0  1  0  0  0
  -28.6552  -21.4029   19.4123 C   0  0  1  0  0  0
  -27.9637  -24.6863   19.8442 C   0  0  1  0  0  0
  -28.7965  -19.5949   17.4658 C   0  0  0  0  0  0
  -28.5768  -18.4641   19.7519 C   0  0  0  0  0  0
  -28.2929  -19.8424   18.8978 C   0  0  1  0  0  0
  -30.7025  -14.9298   19.0023 N   0  0  0  0  0  0
  -29.0740  -17.0982   19.1804 N   0  0  0  0  0  0
  -27.3004  -15.8680   18.5905 O   0  0  0  0  0  0
  -32.1951  -12.8776   19.3447 H   0  0  0  0  0  0
  -31.3848  -11.8111   19.8448 H   0  0  0  0  0  0
  -29.3831  -12.5532   16.5441 H   0  0  0  0  0  0
  -29.4109  -14.1133   16.9270 H   0  0  0  0  0  0
  -27.1598  -12.1610   17.6996 H   0  0  0  0  0  0
  -27.0226  -13.7786   17.7402 H   0  0  0  0  0  0
  -27.6236  -11.8444   20.1710 H   0  0  0  0  0  0
  -28.9126  -11.9671   21.7445 H   0  0  0  0  0  0
  -28.6244  -13.6222   21.9570 H   0  0  0  0  0  0
  -25.1964   -9.5992   22.5031 H   0  0  0  0  0  0
  -23.9878   -7.4493   22.7340 H   0  0  0  0  0  0
  -21.0415   -8.8224   19.8857 H   0  0  0  0  0  0
  -22.2605  -10.9593   19.6451 H   0  0  0  0  0  0
  -21.1890   -7.6068   23.9642 H   0  0  0  0  0  0
  -21.1448   -6.0504   25.9065 H   0  0  0  0  0  0
  -22.0643   -2.7527   23.2936 H   0  0  0  0  0  0
  -22.3092  -12.0478   22.4962 H   0  0  0  0  0  0
  -21.0141  -13.1842   22.2597 H   0  0  0  0  0  0
  -24.6389  -15.7881   20.4089 H   0  0  0  0  0  0
  -26.1814  -15.4392   19.8232 H   0  0  0  0  0  0
  -26.7252  -32.5299   23.1016 H   0  0  0  0  0  0
  -25.0095  -33.9644   25.0340 H   0  0  0  0  0  0
  -22.7363  -31.3049   21.4006 H   0  0  0  0  0  0
  -23.3762  -35.9601   23.3276 H   0  0  0  0  0  0
  -24.3592  -36.8924   22.2054 H   0  0  0  0  0  0
  -23.7269  -37.6460   23.6691 H   0  0  0  0  0  0
  -26.1593  -31.4842   20.6324 H   0  0  0  0  0  0
  -26.8616  -30.7579   22.0427 H   0  0  0  0  0  0
  -28.1024  -28.7826   21.2344 H   0  0  0  0  0  0
  -25.8602  -25.9745   18.8117 H   0  0  0  0  0  0
  -23.9440  -27.3827   18.9165 H   0  0  0  0  0  0
  -23.7938  -30.6073   19.4090 H   0  0  0  0  0  0
  -22.7665  -29.2749   19.8403 H   0  0  0  0  0  0
  -25.1318  -36.1858   25.0803 H   0  0  0  0  0  0
  -20.9989  -28.3301   24.1365 H   0  0  0  0  0  0
  -20.5673  -26.2328   23.3615 H   0  0  0  0  0  0
  -21.6658  -26.7440   22.1206 H   0  0  0  0  0  0
  -19.6935  -25.6291   21.1246 H   0  0  0  0  0  0
  -19.6705  -27.3182   20.6722 H   0  0  0  0  0  0
  -17.4211  -26.6653   21.4022 H   0  0  0  0  0  0
  -18.0358  -26.0073   22.9018 H   0  0  0  0  0  0
  -19.7950  -30.7267   24.2260 H   0  0  0  0  0  0
  -17.5034  -31.6270   24.5168 H   0  0  0  0  0  0
  -15.5365  -30.2995   23.7662 H   0  0  0  0  0  0
  -15.8674  -28.0822   22.7083 H   0  0  0  0  0  0
  -24.5952  -30.7039   25.7789 H   0  0  0  0  0  0
  -24.8890  -32.2926   26.4773 H   0  0  0  0  0  0
  -25.8049  -30.9013   27.0268 H   0  0  0  0  0  0
  -26.3000  -29.6664   24.1317 H   0  0  0  0  0  0
  -27.3948  -29.7225   25.4914 H   0  0  0  0  0  0
  -27.8941  -30.4132   23.9677 H   0  0  0  0  0  0
  -27.2662  -33.3654   26.2008 H   0  0  0  0  0  0
  -28.3922  -32.6823   25.0366 H   0  0  0  0  0  0
  -28.0682  -31.8497   26.5497 H   0  0  0  0  0  0
  -28.2577  -38.0111   24.7510 H   0  0  0  0  0  0
  -28.1104  -36.2638   24.6275 H   0  0  0  0  0  0
  -27.2303  -37.1424   25.8863 H   0  0  0  0  0  0
  -20.9417  -29.8798   21.6848 H   0  0  0  0  0  0
  -26.0152  -38.2813   24.1405 H   0  0  0  0  0  0
  -31.3801  -10.3860   18.1630 H   0  0  0  0  0  0
  -30.2879  -10.6211   16.8787 H   0  0  0  0  0  0
  -31.6762  -12.5921   16.0191 H   0  0  0  0  0  0
  -32.8094  -12.2764   17.2313 H   0  0  0  0  0  0
  -29.5374  -10.9454   19.8815 H   0  0  0  0  0  0
  -28.5154  -10.9331   18.6034 H   0  0  0  0  0  0
  -29.1310  -22.2961   17.4665 H   0  0  0  0  0  0
  -27.4643  -22.4727   17.9244 H   0  0  0  0  0  0
  -26.8140  -21.9901   20.4350 H   0  0  0  0  0  0
  -28.0609  -21.4691   21.5172 H   0  0  0  0  0  0
  -28.6225  -24.6561   17.7765 H   0  0  0  0  0  0
  -29.8481  -24.1500   18.8960 H   0  0  0  0  0  0
  -29.2430  -23.6851   21.3154 H   0  0  0  0  0  0
  -27.6067  -23.8985   21.8452 H   0  0  0  0  0  0
  -31.3882  -15.0049   16.8174 H   0  0  0  0  0  0
  -32.6574  -14.6942   17.8989 H   0  0  0  0  0  0
  -28.8123  -14.8549   20.1808 H   0  0  0  0  0  0
  -29.7110  -21.3898   19.6863 H   0  0  0  0  0  0
  -26.9218  -24.5160   19.6039 H   0  0  0  0  0  0
  -28.4467  -20.3510   16.7660 H   0  0  0  0  0  0
  -28.4132  -18.6497   17.0796 H   0  0  0  0  0  0
  -29.8853  -19.5585   17.4219 H   0  0  0  0  0  0
  -27.7008  -18.2574   20.3704 H   0  0  0  0  0  0
  -29.3446  -18.7266   20.4806 H   0  0  0  0  0  0
  -27.2065  -19.8559   18.7941 H   0  0  0  0  0  0
  -30.0779  -17.0067   19.2741 H   0  0  0  0  0  0
  1 25  1  0  0  0
  1 30  2  0  0  0
  1 86  1  0  0  0
  2  3  1  0  0  0
  2 25  1  0  0  0
  2 89  1  0  0  0
  2 90  1  0  0  0
  3  4  1  0  0  0
  3 91  1  0  0  0
  3 92  1  0  0  0
  4  5  1  0  0  0
  4 93  1  0  0  0
  4 94  1  0  0  0
  5  6  1  0  0  0
  5 26  1  0  0  0
  5 95  1  0  0  0
  6 25  1  0  0  0
  6 96  1  0  0  0
  6 97  1  0  0  0
  7  8  2  0  0  0
  7 26  1  0  0  0
  7 29  1  0  0  0
  8  9  1  0  0  0
  8 22  1  0  0  0
  9 10  1  0  0  0
  9 27  2  0  0  0
 10 11  2  0  0  0
 10 15  1  0  0  0
 11 12  1  0  0  0
 11 98  1  0  0  0
 12 13  2  0  0  0
 12 99  1  0  0  0
 13 14  1  0  0  0
 13 31  1  0  0  0
 14 15  2  0  0  0
 14100  1  0  0  0
 15101  1  0  0  0
 16 17  2  0  0  0
 16 21  1  0  0  0
 16 31  1  0  0  0
 17 18  1  0  0  0
 17102  1  0  0  0
 18 19  2  0  0  0
 18103  1  0  0  0
 19 20  1  0  0  0
 19 24  1  0  0  0
 20 21  2  0  0  0
 20104  1  0  0  0
 21 23  1  0  0  0
 22 28  1  0  0  0
 22 32  2  0  0  0
 26 27  1  0  0  0
 28105  1  0  0  0
 28106  1  0  0  0
 29107  1  0  0  0
 29108  1  0  0  0
 33 34  1  0  0  0
 33 66  1  0  0  0
 33 70  2  0  0  0
 34 36  1  0  0  0
 34 59  1  0  0  0
 34109  1  0  0  0
 35 44  2  0  0  0
 35 45  1  0  0  0
 35 68  1  0  0  0
 36 56  1  0  0  0
 36110  1  0  0  0
 37 39  1  0  0  0
 37 47  1  0  0  0
 37 66  1  0  0  0
 37111  1  0  0  0
 38 43  2  0  0  0
 38 46  1  0  0  0
 38 47  1  0  0  0
 39 64  1  0  0  0
 39 67  2  0  0  0
 40 52  1  0  0  0
 40 53  2  0  0  0
 40 58  1  0  0  0
 41112  1  0  0  0
 41113  1  0  0  0
 41114  1  0  0  0
 41 48  1  0  0  0
 42 43  1  0  0  0
 42 66  1  0  0  0
 42115  1  0  0  0
 42116  1  0  0  0
 43 44  1  0  0  0
 44117  1  0  0  0
 45 46  2  0  0  0
 45118  1  0  0  0
 46119  1  0  0  0
 47120  1  0  0  0
 47121  1  0  0  0
 48 56  1  0  0  0
 48 65  1  0  0  0
 48122  1  0  0  0
 49 50  1  0  0  0
 49 53  1  0  0  0
 49 64  1  0  0  0
 49123  1  0  0  0
 50 51  1  0  0  0
 50124  1  0  0  0
 50125  1  0  0  0
 51 52  1  0  0  0
 51126  1  0  0  0
 51127  1  0  0  0
 52128  1  0  0  0
 52129  1  0  0  0
 53 54  1  0  0  0
 54 55  2  0  0  0
 54130  1  0  0  0
 55 57  1  0  0  0
 55131  1  0  0  0
 56 69  2  0  0  0
 57 58  2  0  0  0
 57132  1  0  0  0
 58133  1  0  0  0
 59 60  1  0  0  0
 59 61  1  0  0  0
 59 62  1  0  0  0
 60134  1  0  0  0
 60135  1  0  0  0
 60136  1  0  0  0
 61137  1  0  0  0
 61138  1  0  0  0
 61139  1  0  0  0
 62140  1  0  0  0
 62141  1  0  0  0
 62142  1  0  0  0
 63 65  1  0  0  0
 63143  1  0  0  0
 63144  1  0  0  0
 63145  1  0  0  0
 64146  1  0  0  0
 65147  1  0  0  0
 68 82  1  0  0  0
 71 87  1  0  0  0
 71 88  2  0  0  0
 71 80  1  0  0  0
 72 73  1  0  0  0
 72 74  1  0  0  0
 72148  1  0  0  0
 72149  1  0  0  0
 73 79  1  0  0  0
 73150  1  0  0  0
 73151  1  0  0  0
 74 80  1  0  0  0
 74152  1  0  0  0
 74153  1  0  0  0
 75 77  1  0  0  0
 75154  1  0  0  0
 75155  1  0  0  0
 75 81  1  0  0  0
 76 78  1  0  0  0
 76 81  1  0  0  0
 76156  1  0  0  0
 76157  1  0  0  0
 77 82  1  0  0  0
 77158  1  0  0  0
 77159  1  0  0  0
 78 82  1  0  0  0
 78160  1  0  0  0
 78161  1  0  0  0
 79 86  1  0  0  0
 79162  1  0  0  0
 79163  1  0  0  0
 80 86  1  0  0  0
 80164  1  0  0  0
 81 85  1  0  0  0
 81165  1  0  0  0
 82166  1  0  0  0
 83167  1  0  0  0
 83168  1  0  0  0
 83169  1  0  0  0
 83 85  1  0  0  0
 84 85  1  0  0  0
 84 87  1  0  0  0
 84170  1  0  0  0
 84171  1  0  0  0
 85172  1  0  0  0
 87173  1  0  0  0
M  ISO  4   1 100  68 101  82 101  86 100
M  END
> <chiral flag>
0

> <version>
0

> <s_m_source_file>
/data/baiqing/PycharmProjects/Reinvent-master-3.2/result/LINK_invent/BTK/process_docking_weight1_custom_sum_contain_oxygen_bond_distance_aromatic_linkinvent_7_9_3/rearranged_h_0128.sdf

> <i_m_source_file_index>
36

> <r_mmod_Potential_Energy-OPLS-2005>
8305.1201171875

> <r_mmod_Stretch_Energy-OPLS-2005>
4605.89794921875

> <r_mmod_Bend_Energy-OPLS-2005>
909.855895996094

> <r_mmod_Torsional_Energy-OPLS-2005>
511.965637207031

> <r_mmod_Improper_Torsional_Energy-OPLS-2005>
38.7446365356445

> <r_mmod_Van_der_Waal_Energy-OPLS-2005>
2422.794921875

> <r_mmod_Electrostatic_Energy-OPLS-2005>
-439.156280517578

> <r_mmod_Solvation_Energy-OPLS-2005>
-205.294952392578

> <b_mmod_Minimization_Converged-OPLS-2005>
0

> <r_mmod_RMS_Derivative-OPLS-2005>
5.00225782394409

$$$$
36
                    3D
 Structure written by MMmdl.
160168  0  0  1  0            999 V2000
  -30.6098  -14.8014   20.4754 C   0  0  0  0  0  0
  -30.4237  -12.4927   19.5147 C   0  0  0  0  0  0
  -29.5203  -12.5309   18.2649 C   0  0  0  0  0  0
  -28.0503  -12.3292   18.6662 C   0  0  0  0  0  0
  -27.6336  -13.2412   19.8500 C   0  0  2  0  0  0
  -28.6664  -13.2217   20.9959 C   0  0  0  0  0  0
  -25.2423  -13.8147   20.5571 C   0  0  0  0  0  0
  -24.1767  -13.0370   20.9201 C   0  0  0  0  0  0
  -24.6428  -11.6867   20.8817 C   0  0  0  0  0  0
  -23.9109  -10.4271   21.0440 C   0  0  0  0  0  0
  -24.3653   -9.4182   21.9203 C   0  0  0  0  0  0
  -23.6313   -8.2246   22.0751 C   0  0  0  0  0  0
  -22.4280   -8.0315   21.3557 C   0  0  0  0  0  0
  -21.9964   -9.0288   20.4631 C   0  0  0  0  0  0
  -22.7291  -10.2160   20.3057 C   0  0  0  0  0  0
  -21.6865   -6.0766   22.5303 C   0  0  0  0  0  0
  -21.3991   -6.5664   23.8232 C   0  0  0  0  0  0
  -21.3649   -5.6819   24.9188 C   0  0  0  0  0  0
  -21.6054   -4.3100   24.7236 C   0  0  0  0  0  0
  -21.8819   -3.8180   23.4367 C   0  0  0  0  0  0
  -21.9166   -4.6992   22.3419 C   0  0  0  0  0  0
  -22.7803  -13.5160   21.1871 C   0  0  0  0  0  0
  -22.1640   -4.2171   21.0999 F   0  0  0  0  0  0
  -21.5619   -3.4571   25.7754 F   0  0  0  0  0  0
  -29.9692  -13.5768   20.4228 N   0  0  0  0  0  0
  -26.2899  -12.9419   20.3259 N   0  0  0  0  0  0
  -25.9380  -11.6548   20.5840 N   0  0  0  0  0  0
  -22.0490  -12.8197   22.0457 N   0  0  0  0  0  0
  -25.3936  -15.1848   20.3677 N   0  0  0  0  0  0
  -31.7901  -14.8692   20.1333 O   0  0  0  0  0  0
  -21.6639   -6.8926   21.4261 O   0  0  0  0  0  0
  -22.3526  -14.5499   20.6761 O   0  0  0  0  0  0
  -24.6334  -31.8544   23.1967 C   0  0  0  0  0  0
  -25.9160  -32.4726   23.8301 C   0  0  1  0  0  0
  -27.2082  -27.2415   20.1291 C   0  0  0  0  0  0
  -25.5949  -33.8539   24.2210 N   0  0  0  0  0  0
  -23.4267  -30.4805   21.5423 C   0  0  2  0  0  0
  -24.8687  -28.9131   20.1162 C   0  0  0  0  0  0
  -22.7474  -29.4643   22.4898 C   0  0  0  0  0  0
  -18.0290  -28.1380   22.8462 C   0  0  0  0  0  0
  -24.1493  -36.7266   23.2632 C   0  0  0  0  0  0
  -25.9756  -30.7549   21.3818 C   0  0  0  0  0  0
  -26.0421  -29.3770   20.7229 C   0  0  0  0  0  0
  -27.2201  -28.5556   20.7125 C   0  0  0  0  0  0
  -26.0106  -26.8388   19.5038 C   0  0  0  0  0  0
  -24.8585  -27.6519   19.4958 C   0  0  0  0  0  0
  -23.6429  -29.8102   20.1576 C   0  0  0  0  0  0
  -25.4130  -36.3056   24.0308 C   0  0  1  0  0  0
  -20.5870  -28.3789   23.1246 C   0  0  2  0  0  0
  -20.6817  -26.9468   22.5520 C   0  0  0  0  0  0
  -19.5860  -26.6408   21.5260 C   0  0  0  0  0  0
  -18.1975  -26.7956   22.1570 C   0  0  0  0  0  0
  -19.1514  -28.8909   23.2831 C   0  0  0  0  0  0
  -18.9428  -30.1526   23.8798 C   0  0  0  0  0  0
  -17.6410  -30.6619   24.0462 C   0  0  0  0  0  0
  -25.9080  -34.9432   23.5065 C   0  0  0  0  0  0
  -16.5329  -29.9069   23.6280 C   0  0  0  0  0  0
  -16.7269  -28.6459   23.0361 C   0  0  0  0  0  0
  -26.4532  -31.6549   25.0681 C   0  0  0  0  0  0
  -25.3727  -31.3730   26.1370 C   0  0  0  0  0  0
  -27.0361  -30.2940   24.6205 C   0  0  0  0  0  0
  -27.6061  -32.4310   25.7461 C   0  0  0  0  0  0
  -27.5575  -37.1790   24.8475 C   0  0  0  0  0  0
  -21.4197  -29.3082   22.3591 N   0  0  0  0  0  0
  -26.4292  -37.3755   23.9395 N   0  0  0  0  0  0
  -24.6984  -31.0472   22.0950 N   0  0  0  0  0  0
  -23.4151  -28.8205   23.3043 O   0  0  0  0  0  0
  -28.3039  -26.3473   20.1055 O   0  0  0  0  0  0
  -26.5668  -34.8912   22.4642 O   0  0  0  0  0  0
  -23.5481  -32.1422   23.7215 O   0  0  0  0  0  0
  -27.3576  -20.7830   20.8629 C   0  0  0  0  0  0
  -27.0114  -19.5120   21.3857 C   0  0  0  0  0  0
  -27.9944  -18.4906   21.4697 C   0  0  0  0  0  0
  -29.2268  -18.6571   20.7895 C   0  0  0  0  0  0
  -28.6738  -21.0162   20.4276 C   0  0  0  0  0  0
  -25.5992  -19.2792   21.9016 C   0  0  0  0  0  0
  -27.7805  -17.3099   22.4187 C   0  0  0  0  0  0
  -31.4290  -17.7381   21.6578 C   0  0  0  0  0  0
  -28.4223  -23.5878   19.6378 C   0  0  0  0  0  0
  -28.1431  -24.9111   20.5608 C   0  0  0  0  0  0
  -30.2908  -17.4530   20.6569 C   0  0  2  0  0  0
  -29.5479  -19.9384   20.3312 N   0  0  0  0  0  0
  -29.1458  -22.3590   20.1793 N   0  0  0  0  0  0
  -29.8787  -15.9637   20.7346 N   0  0  0  0  0  0
  -31.4732  -12.5886   19.2317 H   0  0  0  0  0  0
  -30.3429  -11.5281   20.0125 H   0  0  0  0  0  0
  -29.8309  -11.7572   17.5653 H   0  0  0  0  0  0
  -29.6291  -13.4872   17.7552 H   0  0  0  0  0  0
  -27.9302  -11.2820   18.9419 H   0  0  0  0  0  0
  -27.3979  -12.4899   17.8076 H   0  0  0  0  0  0
  -27.6135  -14.2549   19.4502 H   0  0  0  0  0  0
  -28.6994  -12.2333   21.4619 H   0  0  0  0  0  0
  -28.3831  -13.9253   21.7812 H   0  0  0  0  0  0
  -25.2768   -9.5684   22.4785 H   0  0  0  0  0  0
  -24.0031   -7.4663   22.7516 H   0  0  0  0  0  0
  -21.0867   -8.8819   19.8966 H   0  0  0  0  0  0
  -22.3733  -10.9722   19.6213 H   0  0  0  0  0  0
  -21.2007   -7.6169   23.9739 H   0  0  0  0  0  0
  -21.1448   -6.0556   25.9101 H   0  0  0  0  0  0
  -22.0606   -2.7633   23.2876 H   0  0  0  0  0  0
  -22.4079  -11.9815   22.4792 H   0  0  0  0  0  0
  -21.1157  -13.1291   22.2726 H   0  0  0  0  0  0
  -24.5667  -15.7686   20.3130 H   0  0  0  0  0  0
  -26.1911  -15.5939   19.9007 H   0  0  0  0  0  0
  -26.7211  -32.5364   23.1006 H   0  0  0  0  0  0
  -25.0037  -33.9710   25.0317 H   0  0  0  0  0  0
  -22.7298  -31.3062   21.3944 H   0  0  0  0  0  0
  -23.3749  -35.9598   23.3327 H   0  0  0  0  0  0
  -24.3569  -36.8872   22.2040 H   0  0  0  0  0  0
  -23.7273  -37.6474   23.6668 H   0  0  0  0  0  0
  -26.1219  -31.5127   20.6124 H   0  0  0  0  0  0
  -26.8499  -30.7983   22.0160 H   0  0  0  0  0  0
  -28.1216  -28.9110   21.1933 H   0  0  0  0  0  0
  -25.9559  -25.8725   19.0231 H   0  0  0  0  0  0
  -23.9587  -27.2937   19.0115 H   0  0  0  0  0  0
  -23.7716  -30.5882   19.4029 H   0  0  0  0  0  0
  -22.7566  -29.2508   19.8531 H   0  0  0  0  0  0
  -25.1319  -36.1871   25.0802 H   0  0  0  0  0  0
  -20.9895  -28.3472   24.1398 H   0  0  0  0  0  0
  -20.5652  -26.2451   23.3753 H   0  0  0  0  0  0
  -21.6762  -26.7434   22.1427 H   0  0  0  0  0  0
  -19.7057  -25.6359   21.1266 H   0  0  0  0  0  0
  -19.6900  -27.3190   20.6792 H   0  0  0  0  0  0
  -17.4313  -26.6724   21.3896 H   0  0  0  0  0  0
  -18.0330  -26.0069   22.8922 H   0  0  0  0  0  0
  -19.7919  -30.7404   24.2043 H   0  0  0  0  0  0
  -17.4958  -31.6387   24.4881 H   0  0  0  0  0  0
  -15.5315  -30.2989   23.7524 H   0  0  0  0  0  0
  -15.8674  -28.0769   22.7093 H   0  0  0  0  0  0
  -24.5921  -30.7052   25.7687 H   0  0  0  0  0  0
  -24.8881  -32.2913   26.4722 H   0  0  0  0  0  0
  -25.8007  -30.8948   27.0197 H   0  0  0  0  0  0
  -26.2931  -29.6671   24.1233 H   0  0  0  0  0  0
  -27.4024  -29.7218   25.4757 H   0  0  0  0  0  0
  -27.8854  -30.4172   23.9454 H   0  0  0  0  0  0
  -27.2646  -33.3638   26.1986 H   0  0  0  0  0  0
  -28.3897  -32.6849   25.0292 H   0  0  0  0  0  0
  -28.0709  -31.8465   26.5425 H   0  0  0  0  0  0
  -28.2609  -38.0067   24.7475 H   0  0  0  0  0  0
  -28.1053  -36.2597   24.6360 H   0  0  0  0  0  0
  -27.2283  -37.1496   25.8876 H   0  0  0  0  0  0
  -20.9362  -29.8690   21.6723 H   0  0  0  0  0  0
  -26.0167  -38.2817   24.1379 H   0  0  0  0  0  0
  -26.6323  -21.5879   20.8853 H   0  0  0  0  0  0
  -24.8706  -19.8224   21.3000 H   0  0  0  0  0  0
  -25.5021  -19.5980   22.9405 H   0  0  0  0  0  0
  -25.3224  -18.2228   21.8429 H   0  0  0  0  0  0
  -28.7117  -17.0792   22.9393 H   0  0  0  0  0  0
  -27.4237  -16.4138   21.9173 H   0  0  0  0  0  0
  -27.0847  -17.5505   23.2254 H   0  0  0  0  0  0
  -31.0410  -17.8504   22.6695 H   0  0  0  0  0  0
  -31.9413  -18.6655   21.4010 H   0  0  0  0  0  0
  -32.1807  -16.9568   21.6938 H   0  0  0  0  0  0
  -29.0703  -23.9075   18.8193 H   0  0  0  0  0  0
  -27.4993  -23.2645   19.1532 H   0  0  0  0  0  0
  -27.1438  -24.7970   20.9778 H   0  0  0  0  0  0
  -28.7928  -24.8359   21.4319 H   0  0  0  0  0  0
  -30.6953  -17.5664   19.6464 H   0  0  0  0  0  0
  -30.1308  -22.3758   19.9365 H   0  0  0  0  0  0
  -28.9074  -15.8239   20.9595 H   0  0  0  0  0  0
  1 25  1  0  0  0
  1 30  2  0  0  0
  1 84  1  0  0  0
  2  3  1  0  0  0
  2 25  1  0  0  0
  2 85  1  0  0  0
  2 86  1  0  0  0
  3  4  1  0  0  0
  3 87  1  0  0  0
  3 88  1  0  0  0
  4  5  1  0  0  0
  4 89  1  0  0  0
  4 90  1  0  0  0
  5  6  1  0  0  0
  5 26  1  0  0  0
  5 91  1  0  0  0
  6 25  1  0  0  0
  6 92  1  0  0  0
  6 93  1  0  0  0
  7  8  2  0  0  0
  7 26  1  0  0  0
  7 29  1  0  0  0
  8  9  1  0  0  0
  8 22  1  0  0  0
  9 10  1  0  0  0
  9 27  2  0  0  0
 10 11  2  0  0  0
 10 15  1  0  0  0
 11 12  1  0  0  0
 11 94  1  0  0  0
 12 13  2  0  0  0
 12 95  1  0  0  0
 13 14  1  0  0  0
 13 31  1  0  0  0
 14 15  2  0  0  0
 14 96  1  0  0  0
 15 97  1  0  0  0
 16 17  2  0  0  0
 16 21  1  0  0  0
 16 31  1  0  0  0
 17 18  1  0  0  0
 17 98  1  0  0  0
 18 19  2  0  0  0
 18 99  1  0  0  0
 19 20  1  0  0  0
 19 24  1  0  0  0
 20 21  2  0  0  0
 20100  1  0  0  0
 21 23  1  0  0  0
 22 28  1  0  0  0
 22 32  2  0  0  0
 26 27  1  0  0  0
 28101  1  0  0  0
 28102  1  0  0  0
 29103  1  0  0  0
 29104  1  0  0  0
 33 34  1  0  0  0
 33 66  1  0  0  0
 33 70  2  0  0  0
 34 36  1  0  0  0
 34 59  1  0  0  0
 34105  1  0  0  0
 35 44  2  0  0  0
 35 45  1  0  0  0
 35 68  1  0  0  0
 36 56  1  0  0  0
 36106  1  0  0  0
 37 39  1  0  0  0
 37 47  1  0  0  0
 37 66  1  0  0  0
 37107  1  0  0  0
 38 43  2  0  0  0
 38 46  1  0  0  0
 38 47  1  0  0  0
 39 64  1  0  0  0
 39 67  2  0  0  0
 40 52  1  0  0  0
 40 53  2  0  0  0
 40 58  1  0  0  0
 41108  1  0  0  0
 41109  1  0  0  0
 41110  1  0  0  0
 41 48  1  0  0  0
 42 43  1  0  0  0
 42 66  1  0  0  0
 42111  1  0  0  0
 42112  1  0  0  0
 43 44  1  0  0  0
 44113  1  0  0  0
 45 46  2  0  0  0
 45114  1  0  0  0
 46115  1  0  0  0
 47116  1  0  0  0
 47117  1  0  0  0
 48 56  1  0  0  0
 48 65  1  0  0  0
 48118  1  0  0  0
 49 50  1  0  0  0
 49 53  1  0  0  0
 49 64  1  0  0  0
 49119  1  0  0  0
 50 51  1  0  0  0
 50120  1  0  0  0
 50121  1  0  0  0
 51 52  1  0  0  0
 51122  1  0  0  0
 51123  1  0  0  0
 52124  1  0  0  0
 52125  1  0  0  0
 53 54  1  0  0  0
 54 55  2  0  0  0
 54126  1  0  0  0
 55 57  1  0  0  0
 55127  1  0  0  0
 56 69  2  0  0  0
 57 58  2  0  0  0
 57128  1  0  0  0
 58129  1  0  0  0
 59 60  1  0  0  0
 59 61  1  0  0  0
 59 62  1  0  0  0
 60130  1  0  0  0
 60131  1  0  0  0
 60132  1  0  0  0
 61133  1  0  0  0
 61134  1  0  0  0
 61135  1  0  0  0
 62136  1  0  0  0
 62137  1  0  0  0
 62138  1  0  0  0
 63 65  1  0  0  0
 63139  1  0  0  0
 63140  1  0  0  0
 63141  1  0  0  0
 64142  1  0  0  0
 65143  1  0  0  0
 68 80  1  0  0  0
 71 72  2  0  0  0
 71 75  1  0  0  0
 71144  1  0  0  0
 72 73  1  0  0  0
 72 76  1  0  0  0
 73 74  2  0  0  0
 73 77  1  0  0  0
 74 81  1  0  0  0
 74 82  1  0  0  0
 75 82  2  0  0  0
 75 83  1  0  0  0
 76145  1  0  0  0
 76146  1  0  0  0
 76147  1  0  0  0
 77148  1  0  0  0
 77149  1  0  0  0
 77150  1  0  0  0
 78151  1  0  0  0
 78152  1  0  0  0
 78153  1  0  0  0
 78 81  1  0  0  0
 79 80  1  0  0  0
 79 83  1  0  0  0
 79154  1  0  0  0
 79155  1  0  0  0
 80156  1  0  0  0
 80157  1  0  0  0
 81 84  1  0  0  0
 81158  1  0  0  0
 83159  1  0  0  0
 84160  1  0  0  0
M  ISO  4   1 100  68 101  80 101  84 100
M  END
> <chiral flag>
0

> <version>
0

> <s_m_source_file>
/data/baiqing/PycharmProjects/Reinvent-master-3.2/result/LINK_invent/BTK/process_docking_weight1_custom_sum_contain_oxygen_bond_distance_aromatic_linkinvent_7_9_3/rearranged_h_0128.sdf

> <i_m_source_file_index>
37

> <r_mmod_Potential_Energy-OPLS-2005>
-123.990867614746

> <r_mmod_Stretch_Energy-OPLS-2005>
138.07861328125

> <r_mmod_Bend_Energy-OPLS-2005>
199.578643798828

> <r_mmod_Torsional_Energy-OPLS-2005>
234.45539855957

> <r_mmod_Improper_Torsional_Energy-OPLS-2005>
8.90412998199463

> <r_mmod_Van_der_Waal_Energy-OPLS-2005>
134.939178466797

> <r_mmod_Electrostatic_Energy-OPLS-2005>
-714.235412597656

> <r_mmod_Solvation_Energy-OPLS-2005>
-229.665664672852

> <b_mmod_Minimization_Converged-OPLS-2005>
0

> <r_mmod_RMS_Derivative-OPLS-2005>
7.61505222320557

$$$$
37
                    3D
 Structure written by MMmdl.
167176  0  0  1  0            999 V2000
  -30.6246  -14.8689   20.4286 C   0  0  0  0  0  0
  -30.4227  -12.5387   19.4911 C   0  0  0  0  0  0
  -29.5114  -12.5150   18.2464 C   0  0  0  0  0  0
  -28.0436  -12.3192   18.6664 C   0  0  0  0  0  0
  -27.6293  -13.2514   19.8367 C   0  0  2  0  0  0
  -28.6748  -13.2803   20.9717 C   0  0  0  0  0  0
  -25.2476  -13.8239   20.5739 C   0  0  0  0  0  0
  -24.1784  -13.0449   20.9226 C   0  0  0  0  0  0
  -24.6403  -11.6938   20.8751 C   0  0  0  0  0  0
  -23.9086  -10.4301   21.0404 C   0  0  0  0  0  0
  -24.3634   -9.4216   21.9184 C   0  0  0  0  0  0
  -23.6311   -8.2250   22.0750 C   0  0  0  0  0  0
  -22.4290   -8.0288   21.3543 C   0  0  0  0  0  0
  -21.9931   -9.0260   20.4640 C   0  0  0  0  0  0
  -22.7259  -10.2142   20.3051 C   0  0  0  0  0  0
  -21.6857   -6.0748   22.5285 C   0  0  0  0  0  0
  -21.4015   -6.5645   23.8219 C   0  0  0  0  0  0
  -21.3663   -5.6793   24.9180 C   0  0  0  0  0  0
  -21.6043   -4.3056   24.7226 C   0  0  0  0  0  0
  -21.8817   -3.8154   23.4343 C   0  0  0  0  0  0
  -21.9193   -4.6975   22.3405 C   0  0  0  0  0  0
  -22.7802  -13.5221   21.1878 C   0  0  0  0  0  0
  -22.1658   -4.2162   21.0981 F   0  0  0  0  0  0
  -21.5632   -3.4539   25.7737 F   0  0  0  0  0  0
  -29.9546  -13.6542   20.3605 N   0  0  0  0  0  0
  -26.2896  -12.9471   20.3268 N   0  0  0  0  0  0
  -25.9341  -11.6593   20.5757 N   0  0  0  0  0  0
  -22.0446  -12.8208   22.0422 N   0  0  0  0  0  0
  -25.4165  -15.1969   20.4223 N   0  0  0  0  0  0
  -31.8316  -14.8489   20.1647 O   0  0  0  0  0  0
  -21.6646   -6.8890   21.4245 O   0  0  0  0  0  0
  -22.3481  -14.5524   20.6720 O   0  0  0  0  0  0
  -24.6408  -31.8486   23.1931 C   0  0  0  0  0  0
  -25.9200  -32.4715   23.8304 C   0  0  1  0  0  0
  -27.2045  -27.1705   20.1370 C   0  0  0  0  0  0
  -25.5965  -33.8522   24.2223 N   0  0  0  0  0  0
  -23.4411  -30.4721   21.5382 C   0  0  2  0  0  0
  -24.8877  -28.9120   20.1048 C   0  0  0  0  0  0
  -22.7553  -29.4581   22.4872 C   0  0  0  0  0  0
  -18.0305  -28.1394   22.8487 C   0  0  0  0  0  0
  -24.1492  -36.7263   23.2641 C   0  0  0  0  0  0
  -25.9959  -30.7311   21.3895 C   0  0  0  0  0  0
  -26.0640  -29.3480   20.7278 C   0  0  0  0  0  0
  -27.2233  -28.4901   20.7339 C   0  0  0  0  0  0
  -26.0083  -26.8421   19.4579 C   0  0  0  0  0  0
  -24.8713  -27.6719   19.4550 C   0  0  0  0  0  0
  -23.6635  -29.8091   20.1543 C   0  0  0  0  0  0
  -25.4120  -36.3044   24.0319 C   0  0  1  0  0  0
  -20.5918  -28.3723   23.1242 C   0  0  2  0  0  0
  -20.6788  -26.9429   22.5403 C   0  0  0  0  0  0
  -19.5756  -26.6384   21.5217 C   0  0  0  0  0  0
  -18.1938  -26.7937   22.1627 C   0  0  0  0  0  0
  -19.1561  -28.8874   23.2858 C   0  0  0  0  0  0
  -18.9477  -30.1472   23.8881 C   0  0  0  0  0  0
  -17.6475  -30.6592   24.0564 C   0  0  0  0  0  0
  -25.9068  -34.9416   23.5072 C   0  0  0  0  0  0
  -16.5364  -29.9086   23.6338 C   0  0  0  0  0  0
  -16.7289  -28.6503   23.0364 C   0  0  0  0  0  0
  -26.4525  -31.6566   25.0733 C   0  0  0  0  0  0
  -25.3714  -31.3756   26.1430 C   0  0  0  0  0  0
  -27.0378  -30.2960   24.6299 C   0  0  0  0  0  0
  -27.6065  -32.4321   25.7511 C   0  0  0  0  0  0
  -27.5576  -37.1790   24.8465 C   0  0  0  0  0  0
  -21.4250  -29.3055   22.3621 N   0  0  0  0  0  0
  -26.4290  -37.3751   23.9405 N   0  0  0  0  0  0
  -24.7121  -31.0377   22.0954 N   0  0  0  0  0  0
  -23.4210  -28.8118   23.3002 O   0  0  0  0  0  0
  -28.2407  -26.1803   20.2336 O   0  0  0  0  0  0
  -26.5652  -34.8907   22.4649 O   0  0  0  0  0  0
  -23.5536  -32.1354   23.7167 O   0  0  0  0  0  0
  -28.6306  -21.9630   19.9854 C   0  0  0  0  0  0
  -28.7238  -23.3696   20.4364 C   0  0  0  0  0  0
  -29.4288  -21.0423   20.6958 C   0  0  0  0  0  0
  -29.6176  -23.2532   21.4684 C   0  0  0  0  0  0
  -28.9900  -18.3824   21.5189 C   0  0  0  0  0  0
  -29.7433  -18.6261   19.2939 C   0  0  0  0  0  0
  -29.6322  -16.9072   21.6339 C   0  0  0  0  0  0
  -30.3751  -17.1437   19.3490 C   0  0  0  0  0  0
  -29.7593  -19.4346   20.6313 C   0  0  0  0  0  0
  -30.0964  -24.3653   22.3589 C   0  0  0  0  0  0
  -32.4888  -21.4202   21.9638 C   0  0  0  0  0  0
  -30.7514  -20.3907   23.5566 C   0  0  0  0  0  0
  -27.9117  -24.7030   19.9374 C   0  0  0  0  0  0
  -31.1028  -21.5520   22.6157 C   0  0  0  0  0  0
  -30.0584  -21.9091   21.6280 N   0  0  0  0  0  0
  -29.9475  -16.1243   20.3887 N   0  0  0  0  0  0
  -31.4632  -12.6530   19.1828 H   0  0  0  0  0  0
  -30.3762  -11.5881   20.0250 H   0  0  0  0  0  0
  -29.8171  -11.7185   17.5668 H   0  0  0  0  0  0
  -29.6163  -13.4490   17.6924 H   0  0  0  0  0  0
  -27.9273  -11.2772   18.9667 H   0  0  0  0  0  0
  -27.3814  -12.4633   17.8118 H   0  0  0  0  0  0
  -27.5939  -14.2557   19.4127 H   0  0  0  0  0  0
  -28.7446  -12.3134   21.4717 H   0  0  0  0  0  0
  -28.3911  -14.0074   21.7331 H   0  0  0  0  0  0
  -25.2776   -9.5696   22.4766 H   0  0  0  0  0  0
  -24.0023   -7.4641   22.7471 H   0  0  0  0  0  0
  -21.0861   -8.8778   19.8949 H   0  0  0  0  0  0
  -22.3712  -10.9683   19.6165 H   0  0  0  0  0  0
  -21.2004   -7.6151   23.9732 H   0  0  0  0  0  0
  -21.1484   -6.0519   25.9084 H   0  0  0  0  0  0
  -22.0593   -2.7616   23.2841 H   0  0  0  0  0  0
  -22.4064  -11.9882   22.4829 H   0  0  0  0  0  0
  -21.1058  -13.1230   22.2611 H   0  0  0  0  0  0
  -24.6562  -15.8546   20.5564 H   0  0  0  0  0  0
  -26.2816  -15.6420   20.1405 H   0  0  0  0  0  0
  -26.7267  -32.5328   23.1036 H   0  0  0  0  0  0
  -25.0094  -33.9645   25.0358 H   0  0  0  0  0  0
  -22.7419  -31.2975   21.3897 H   0  0  0  0  0  0
  -23.3749  -35.9601   23.3304 H   0  0  0  0  0  0
  -24.3581  -36.8888   22.2058 H   0  0  0  0  0  0
  -23.7254  -37.6465   23.6670 H   0  0  0  0  0  0
  -26.1500  -31.4881   20.6199 H   0  0  0  0  0  0
  -26.8682  -30.7782   22.0296 H   0  0  0  0  0  0
  -28.1147  -28.8117   21.2533 H   0  0  0  0  0  0
  -25.9037  -25.9037   18.9355 H   0  0  0  0  0  0
  -23.9763  -27.3380   18.9479 H   0  0  0  0  0  0
  -23.7935  -30.5869   19.4012 H   0  0  0  0  0  0
  -22.7790  -29.2494   19.8455 H   0  0  0  0  0  0
  -25.1308  -36.1880   25.0813 H   0  0  0  0  0  0
  -21.0008  -28.3309   24.1363 H   0  0  0  0  0  0
  -20.5691  -26.2340   23.3623 H   0  0  0  0  0  0
  -21.6653  -26.7443   22.1189 H   0  0  0  0  0  0
  -19.6915  -25.6287   21.1264 H   0  0  0  0  0  0
  -19.6685  -27.3182   20.6736 H   0  0  0  0  0  0
  -17.4208  -26.6698   21.4028 H   0  0  0  0  0  0
  -18.0322  -26.0078   22.9020 H   0  0  0  0  0  0
  -19.7949  -30.7298   24.2241 H   0  0  0  0  0  0
  -17.5023  -31.6276   24.5156 H   0  0  0  0  0  0
  -15.5362  -30.2984   23.7665 H   0  0  0  0  0  0
  -15.8689  -28.0814   22.7093 H   0  0  0  0  0  0
  -24.5889  -30.7110   25.7746 H   0  0  0  0  0  0
  -24.8911  -32.2944   26.4810 H   0  0  0  0  0  0
  -25.7996  -30.8953   27.0239 H   0  0  0  0  0  0
  -26.2989  -29.6687   24.1300 H   0  0  0  0  0  0
  -27.3984  -29.7253   25.4869 H   0  0  0  0  0  0
  -27.8904  -30.4188   23.9614 H   0  0  0  0  0  0
  -27.2667  -33.3636   26.2048 H   0  0  0  0  0  0
  -28.3896  -32.6855   25.0354 H   0  0  0  0  0  0
  -28.0709  -31.8474   26.5463 H   0  0  0  0  0  0
  -28.2585  -38.0092   24.7503 H   0  0  0  0  0  0
  -28.1080  -36.2624   24.6295 H   0  0  0  0  0  0
  -27.2300  -37.1439   25.8869 H   0  0  0  0  0  0
  -20.9453  -29.8784   21.6819 H   0  0  0  0  0  0
  -26.0158  -38.2822   24.1396 H   0  0  0  0  0  0
  -27.9971  -21.6445   19.1686 H   0  0  0  0  0  0
  -28.8721  -18.7715   22.5266 H   0  0  0  0  0  0
  -27.9663  -18.2942   21.1519 H   0  0  0  0  0  0
  -28.7217  -18.5720   18.9147 H   0  0  0  0  0  0
  -30.2933  -19.1963   18.5442 H   0  0  0  0  0  0
  -28.9815  -16.2955   22.2592 H   0  0  0  0  0  0
  -30.5672  -16.9962   22.1902 H   0  0  0  0  0  0
  -31.4548  -17.2722   19.4433 H   0  0  0  0  0  0
  -30.2309  -16.6838   18.3697 H   0  0  0  0  0  0
  -30.7984  -19.3565   20.9357 H   0  0  0  0  0  0
  -29.6586  -25.3231   22.0844 H   0  0  0  0  0  0
  -31.1788  -24.4819   22.3047 H   0  0  0  0  0  0
  -29.8178  -24.1833   23.3973 H   0  0  0  0  0  0
  -33.2626  -21.2999   22.7227 H   0  0  0  0  0  0
  -32.7332  -22.3150   21.3905 H   0  0  0  0  0  0
  -32.5600  -20.5706   21.2888 H   0  0  0  0  0  0
  -31.3230  -20.4705   24.4816 H   0  0  0  0  0  0
  -30.9964  -19.4186   23.1358 H   0  0  0  0  0  0
  -29.6976  -20.4099   23.8340 H   0  0  0  0  0  0
  -26.9092  -24.5191   20.3244 H   0  0  0  0  0  0
  -27.8359  -24.6138   18.8532 H   0  0  0  0  0  0
  -31.2015  -22.3830   23.3089 H   0  0  0  0  0  0
  1 25  1  0  0  0
  1 30  2  0  0  0
  1 86  1  0  0  0
  2  3  1  0  0  0
  2 25  1  0  0  0
  2 87  1  0  0  0
  2 88  1  0  0  0
  3  4  1  0  0  0
  3 89  1  0  0  0
  3 90  1  0  0  0
  4  5  1  0  0  0
  4 91  1  0  0  0
  4 92  1  0  0  0
  5  6  1  0  0  0
  5 26  1  0  0  0
  5 93  1  0  0  0
  6 25  1  0  0  0
  6 94  1  0  0  0
  6 95  1  0  0  0
  7  8  2  0  0  0
  7 26  1  0  0  0
  7 29  1  0  0  0
  8  9  1  0  0  0
  8 22  1  0  0  0
  9 10  1  0  0  0
  9 27  2  0  0  0
 10 11  2  0  0  0
 10 15  1  0  0  0
 11 12  1  0  0  0
 11 96  1  0  0  0
 12 13  2  0  0  0
 12 97  1  0  0  0
 13 14  1  0  0  0
 13 31  1  0  0  0
 14 15  2  0  0  0
 14 98  1  0  0  0
 15 99  1  0  0  0
 16 17  2  0  0  0
 16 21  1  0  0  0
 16 31  1  0  0  0
 17 18  1  0  0  0
 17100  1  0  0  0
 18 19  2  0  0  0
 18101  1  0  0  0
 19 20  1  0  0  0
 19 24  1  0  0  0
 20 21  2  0  0  0
 20102  1  0  0  0
 21 23  1  0  0  0
 22 28  1  0  0  0
 22 32  2  0  0  0
 26 27  1  0  0  0
 28103  1  0  0  0
 28104  1  0  0  0
 29105  1  0  0  0
 29106  1  0  0  0
 33 34  1  0  0  0
 33 66  1  0  0  0
 33 70  2  0  0  0
 34 36  1  0  0  0
 34 59  1  0  0  0
 34107  1  0  0  0
 35 44  2  0  0  0
 35 45  1  0  0  0
 35 68  1  0  0  0
 36 56  1  0  0  0
 36108  1  0  0  0
 37 39  1  0  0  0
 37 47  1  0  0  0
 37 66  1  0  0  0
 37109  1  0  0  0
 38 43  2  0  0  0
 38 46  1  0  0  0
 38 47  1  0  0  0
 39 64  1  0  0  0
 39 67  2  0  0  0
 40 52  1  0  0  0
 40 53  2  0  0  0
 40 58  1  0  0  0
 41110  1  0  0  0
 41111  1  0  0  0
 41112  1  0  0  0
 41 48  1  0  0  0
 42 43  1  0  0  0
 42 66  1  0  0  0
 42113  1  0  0  0
 42114  1  0  0  0
 43 44  1  0  0  0
 44115  1  0  0  0
 45 46  2  0  0  0
 45116  1  0  0  0
 46117  1  0  0  0
 47118  1  0  0  0
 47119  1  0  0  0
 48 56  1  0  0  0
 48 65  1  0  0  0
 48120  1  0  0  0
 49 50  1  0  0  0
 49 53  1  0  0  0
 49 64  1  0  0  0
 49121  1  0  0  0
 50 51  1  0  0  0
 50122  1  0  0  0
 50123  1  0  0  0
 51 52  1  0  0  0
 51124  1  0  0  0
 51125  1  0  0  0
 52126  1  0  0  0
 52127  1  0  0  0
 53 54  1  0  0  0
 54 55  2  0  0  0
 54128  1  0  0  0
 55 57  1  0  0  0
 55129  1  0  0  0
 56 69  2  0  0  0
 57 58  2  0  0  0
 57130  1  0  0  0
 58131  1  0  0  0
 59 60  1  0  0  0
 59 61  1  0  0  0
 59 62  1  0  0  0
 60132  1  0  0  0
 60133  1  0  0  0
 60134  1  0  0  0
 61135  1  0  0  0
 61136  1  0  0  0
 61137  1  0  0  0
 62138  1  0  0  0
 62139  1  0  0  0
 62140  1  0  0  0
 63 65  1  0  0  0
 63141  1  0  0  0
 63142  1  0  0  0
 63143  1  0  0  0
 64144  1  0  0  0
 65145  1  0  0  0
 68 83  1  0  0  0
 71 72  1  0  0  0
 71 73  2  0  0  0
 71146  1  0  0  0
 72 74  2  0  0  0
 72 83  1  0  0  0
 73 85  1  0  0  0
 73 79  1  0  0  0
 74 80  1  0  0  0
 74 85  1  0  0  0
 75 77  1  0  0  0
 75 79  1  0  0  0
 75147  1  0  0  0
 75148  1  0  0  0
 76 78  1  0  0  0
 76 79  1  0  0  0
 76149  1  0  0  0
 76150  1  0  0  0
 77 86  1  0  0  0
 77151  1  0  0  0
 77152  1  0  0  0
 78 86  1  0  0  0
 78153  1  0  0  0
 78154  1  0  0  0
 79155  1  0  0  0
 80156  1  0  0  0
 80157  1  0  0  0
 80158  1  0  0  0
 81159  1  0  0  0
 81160  1  0  0  0
 81161  1  0  0  0
 81 84  1  0  0  0
 82 84  1  0  0  0
 82162  1  0  0  0
 82163  1  0  0  0
 82164  1  0  0  0
 83165  1  0  0  0
 83166  1  0  0  0
 84 85  1  0  0  0
 84167  1  0  0  0
M  ISO  4   1 100  68 101  83 101  86 100
M  END
> <chiral flag>
0

> <version>
0

> <s_m_source_file>
/data/baiqing/PycharmProjects/Reinvent-master-3.2/result/LINK_invent/BTK/process_docking_weight1_custom_sum_contain_oxygen_bond_distance_aromatic_linkinvent_7_9_3/rearranged_h_0128.sdf

> <i_m_source_file_index>
38

> <r_mmod_Potential_Energy-OPLS-2005>
618.348876953125

> <r_mmod_Stretch_Energy-OPLS-2005>
197.190643310547

> <r_mmod_Bend_Energy-OPLS-2005>
256.786804199219

> <r_mmod_Torsional_Energy-OPLS-2005>
359.157012939453

> <r_mmod_Improper_Torsional_Energy-OPLS-2005>
15.5214910507202

> <r_mmod_Van_der_Waal_Energy-OPLS-2005>
128.979827880859

> <r_mmod_Electrostatic_Energy-OPLS-2005>
-303.376770019531

> <r_mmod_Solvation_Energy-OPLS-2005>
-193.072418212891

> <b_mmod_Minimization_Converged-OPLS-2005>
0

> <r_mmod_RMS_Derivative-OPLS-2005>
1.18430030345917

$$$$
38
                    3D
 Structure written by MMmdl.
157165  0  0  1  0            999 V2000
  -30.6397  -14.6359   20.5065 C   0  0  0  0  0  0
  -30.4385  -12.4018   19.4396 C   0  0  0  0  0  0
  -29.5023  -12.5183   18.2152 C   0  0  0  0  0  0
  -28.0252  -12.3593   18.6289 C   0  0  0  0  0  0
  -27.6531  -13.2218   19.8644 C   0  0  2  0  0  0
  -28.7033  -13.0831   20.9898 C   0  0  0  0  0  0
  -25.2559  -13.8171   20.5711 C   0  0  0  0  0  0
  -24.1836  -13.0445   20.9198 C   0  0  0  0  0  0
  -24.6401  -11.6910   20.8730 C   0  0  0  0  0  0
  -23.9066  -10.4295   21.0397 C   0  0  0  0  0  0
  -24.3608   -9.4208   21.9178 C   0  0  0  0  0  0
  -23.6283   -8.2245   22.0759 C   0  0  0  0  0  0
  -22.4263   -8.0279   21.3556 C   0  0  0  0  0  0
  -21.9897   -9.0248   20.4653 C   0  0  0  0  0  0
  -22.7230  -10.2127   20.3060 C   0  0  0  0  0  0
  -21.6852   -6.0715   22.5270 C   0  0  0  0  0  0
  -21.4014   -6.5629   23.8196 C   0  0  0  0  0  0
  -21.3657   -5.6790   24.9162 C   0  0  0  0  0  0
  -21.6056   -4.3053   24.7225 C   0  0  0  0  0  0
  -21.8814   -3.8131   23.4351 C   0  0  0  0  0  0
  -21.9193   -4.6942   22.3400 C   0  0  0  0  0  0
  -22.7854  -13.5232   21.1851 C   0  0  0  0  0  0
  -22.1668   -4.2130   21.0975 F   0  0  0  0  0  0
  -21.5622   -3.4537   25.7736 F   0  0  0  0  0  0
  -30.0132  -13.4212   20.4170 N   0  0  0  0  0  0
  -26.2998  -12.9373   20.3342 N   0  0  0  0  0  0
  -25.9338  -11.6517   20.5756 N   0  0  0  0  0  0
  -22.0489  -12.8243   22.0408 N   0  0  0  0  0  0
  -25.4240  -15.1901   20.4073 N   0  0  0  0  0  0
  -31.8112  -14.7819   20.1486 O   0  0  0  0  0  0
  -21.6643   -6.8863   21.4241 O   0  0  0  0  0  0
  -22.3558  -14.5543   20.6678 O   0  0  0  0  0  0
  -24.6225  -31.8623   23.2051 C   0  0  0  0  0  0
  -25.9083  -32.4784   23.8384 C   0  0  1  0  0  0
  -27.2354  -27.3450   20.1199 C   0  0  0  0  0  0
  -25.5922  -33.8589   24.2304 N   0  0  0  0  0  0
  -23.4149  -30.4839   21.5455 C   0  0  2  0  0  0
  -24.8633  -28.9328   20.1156 C   0  0  0  0  0  0
  -22.7452  -29.4621   22.4938 C   0  0  0  0  0  0
  -18.0314  -28.1338   22.8549 C   0  0  0  0  0  0
  -24.1478  -36.7298   23.2652 C   0  0  0  0  0  0
  -25.9529  -30.7960   21.3771 C   0  0  0  0  0  0
  -26.0263  -29.4232   20.7239 C   0  0  0  0  0  0
  -27.2124  -28.6387   20.7189 C   0  0  0  0  0  0
  -26.0512  -26.8903   19.4993 C   0  0  0  0  0  0
  -24.8756  -27.6710   19.4957 C   0  0  0  0  0  0
  -23.6303  -29.8144   20.1610 C   0  0  0  0  0  0
  -25.4100  -36.3089   24.0340 C   0  0  1  0  0  0
  -20.5898  -28.3669   23.1315 C   0  0  2  0  0  0
  -20.6792  -26.9355   22.5497 C   0  0  0  0  0  0
  -19.5764  -26.6291   21.5293 C   0  0  0  0  0  0
  -18.1963  -26.7843   22.1767 C   0  0  0  0  0  0
  -19.1562  -28.8828   23.2893 C   0  0  0  0  0  0
  -18.9502  -30.1464   23.8831 C   0  0  0  0  0  0
  -17.6503  -30.6596   24.0485 C   0  0  0  0  0  0
  -25.9030  -34.9450   23.5123 C   0  0  0  0  0  0
  -16.5395  -29.9058   23.6319 C   0  0  0  0  0  0
  -16.7309  -28.6441   23.0417 C   0  0  0  0  0  0
  -26.4474  -31.6600   25.0759 C   0  0  0  0  0  0
  -25.3717  -31.3717   26.1491 C   0  0  0  0  0  0
  -27.0333  -30.3030   24.6222 C   0  0  0  0  0  0
  -27.6044  -32.4330   25.7529 C   0  0  0  0  0  0
  -27.5567  -37.1811   24.8471 C   0  0  0  0  0  0
  -21.4163  -29.3030   22.3691 N   0  0  0  0  0  0
  -26.4280  -37.3780   23.9409 N   0  0  0  0  0  0
  -24.6826  -31.0646   22.0998 N   0  0  0  0  0  0
  -23.4191  -28.8180   23.3011 O   0  0  0  0  0  0
  -28.3918  -26.5638   20.1029 O   0  0  0  0  0  0
  -26.5598  -34.8921   22.4682 O   0  0  0  0  0  0
  -23.5397  -32.1423   23.7381 O   0  0  0  0  0  0
  -28.5256  -22.9039   19.1529 C   0  0  0  0  0  0
  -28.3507  -23.0624   21.5443 C   0  0  0  0  0  0
  -28.5056  -24.3290   19.0576 C   0  0  0  0  0  0
  -28.3156  -24.4863   21.4475 C   0  0  0  0  0  0
  -28.4234  -22.2210   20.3965 C   0  0  0  0  0  0
  -28.3684  -25.1586   20.1998 C   0  0  0  0  0  0
  -30.2204  -17.1792   20.8475 C   0  0  0  0  0  0
  -29.0391  -18.2135   20.5611 C   0  0  0  0  0  0
  -26.9099  -20.3916   21.3509 C   0  0  0  0  0  0
  -28.1550  -20.6578   20.4529 C   0  0  2  0  0  0
  -29.8552  -15.7144   20.8152 N   0  0  0  0  0  0
  -29.2970  -19.7053   20.7756 N   0  3  0  0  0  0
  -25.7778  -21.1302   20.9085 O   0  0  0  0  0  0
  -31.4750  -12.5373   19.1259 H   0  0  0  0  0  0
  -30.3831  -11.4053   19.8804 H   0  0  0  0  0  0
  -29.7599  -11.7708   17.4644 H   0  0  0  0  0  0
  -29.6441  -13.4910   17.7381 H   0  0  0  0  0  0
  -27.8527  -11.3059   18.8472 H   0  0  0  0  0  0
  -27.3723  -12.6090   17.7917 H   0  0  0  0  0  0
  -27.6699  -14.2577   19.5287 H   0  0  0  0  0  0
  -28.7224  -12.0660   21.3847 H   0  0  0  0  0  0
  -28.4578  -13.7294   21.8348 H   0  0  0  0  0  0
  -25.2757   -9.5678   22.4751 H   0  0  0  0  0  0
  -23.9977   -7.4647   22.7506 H   0  0  0  0  0  0
  -21.0809   -8.8769   19.8985 H   0  0  0  0  0  0
  -22.3678  -10.9658   19.6164 H   0  0  0  0  0  0
  -21.2011   -7.6137   23.9691 H   0  0  0  0  0  0
  -21.1492   -6.0524   25.9065 H   0  0  0  0  0  0
  -22.0598   -2.7597   23.2853 H   0  0  0  0  0  0
  -22.4085  -11.9903   22.4819 H   0  0  0  0  0  0
  -21.1105  -13.1282   22.2591 H   0  0  0  0  0  0
  -24.6422  -15.8305   20.4896 H   0  0  0  0  0  0
  -26.2471  -15.6209   20.0071 H   0  0  0  0  0  0
  -26.7169  -32.5472   23.1153 H   0  0  0  0  0  0
  -25.0059  -33.9750   25.0442 H   0  0  0  0  0  0
  -22.7066  -31.3036   21.4014 H   0  0  0  0  0  0
  -23.3725  -35.9646   23.3325 H   0  0  0  0  0  0
  -24.3568  -36.8905   22.2066 H   0  0  0  0  0  0
  -23.7234  -37.6507   23.6656 H   0  0  0  0  0  0
  -26.0863  -31.5607   20.6107 H   0  0  0  0  0  0
  -26.8328  -30.8442   22.0065 H   0  0  0  0  0  0
  -28.1118  -29.0153   21.1848 H   0  0  0  0  0  0
  -26.0333  -25.9246   19.0143 H   0  0  0  0  0  0
  -23.9855  -27.2937   19.0091 H   0  0  0  0  0  0
  -23.7493  -30.5912   19.4045 H   0  0  0  0  0  0
  -22.7501  -29.2445   19.8585 H   0  0  0  0  0  0
  -25.1273  -36.1947   25.0832 H   0  0  0  0  0  0
  -20.9999  -28.3260   24.1425 H   0  0  0  0  0  0
  -20.5642  -26.2299   23.3747 H   0  0  0  0  0  0
  -21.6672  -26.7317   22.1373 H   0  0  0  0  0  0
  -19.6920  -25.6184   21.1373 H   0  0  0  0  0  0
  -19.6655  -27.3047   20.6775 H   0  0  0  0  0  0
  -17.4147  -26.6484   21.4269 H   0  0  0  0  0  0
  -18.0492  -26.0062   22.9258 H   0  0  0  0  0  0
  -19.7988  -30.7326   24.2110 H   0  0  0  0  0  0
  -17.5063  -31.6319   24.5001 H   0  0  0  0  0  0
  -15.5381  -30.2949   23.7634 H   0  0  0  0  0  0
  -15.8713  -28.0714   22.7207 H   0  0  0  0  0  0
  -24.5888  -30.7074   25.7819 H   0  0  0  0  0  0
  -24.8918  -32.2873   26.4958 H   0  0  0  0  0  0
  -25.8071  -30.8872   27.0240 H   0  0  0  0  0  0
  -26.2933  -29.6780   24.1215 H   0  0  0  0  0  0
  -27.3990  -29.7286   25.4742 H   0  0  0  0  0  0
  -27.8809  -30.4314   23.9484 H   0  0  0  0  0  0
  -27.2655  -33.3615   26.2123 H   0  0  0  0  0  0
  -28.3848  -32.6910   25.0363 H   0  0  0  0  0  0
  -28.0706  -31.8444   26.5436 H   0  0  0  0  0  0
  -28.2598  -38.0099   24.7484 H   0  0  0  0  0  0
  -28.1052  -36.2624   24.6319 H   0  0  0  0  0  0
  -27.2297  -37.1486   25.8885 H   0  0  0  0  0  0
  -20.9316  -29.8782   21.6954 H   0  0  0  0  0  0
  -26.0163  -38.2862   24.1389 H   0  0  0  0  0  0
  -28.5723  -22.3368   18.2341 H   0  0  0  0  0  0
  -28.2629  -22.6253   22.5298 H   0  0  0  0  0  0
  -28.5800  -24.7889   18.0809 H   0  0  0  0  0  0
  -28.2355  -25.0685   22.3548 H   0  0  0  0  0  0
  -30.6379  -17.3807   21.8344 H   0  0  0  0  0  0
  -31.0339  -17.3571   20.1405 H   0  0  0  0  0  0
  -28.2018  -17.9132   21.1902 H   0  0  0  0  0  0
  -28.7037  -18.0781   19.5320 H   0  0  0  0  0  0
  -27.1233  -20.6407   22.3907 H   0  0  0  0  0  0
  -26.6162  -19.3435   21.3432 H   0  0  0  0  0  0
  -27.8644  -20.3872   19.4370 H   0  0  0  0  0  0
  -28.9052  -15.4863   21.0665 H   0  0  0  0  0  0
  -30.0821  -19.9791   20.2084 H   0  0  0  0  0  0
  -29.5608  -19.8509   21.7361 H   0  0  0  0  0  0
  -26.0296  -22.0498   20.8895 H   0  0  0  0  0  0
  1 25  1  0  0  0
  1 30  2  0  0  0
  1 81  1  0  0  0
  2  3  1  0  0  0
  2 25  1  0  0  0
  2 84  1  0  0  0
  2 85  1  0  0  0
  3  4  1  0  0  0
  3 86  1  0  0  0
  3 87  1  0  0  0
  4  5  1  0  0  0
  4 88  1  0  0  0
  4 89  1  0  0  0
  5  6  1  0  0  0
  5 26  1  0  0  0
  5 90  1  0  0  0
  6 25  1  0  0  0
  6 91  1  0  0  0
  6 92  1  0  0  0
  7  8  2  0  0  0
  7 26  1  0  0  0
  7 29  1  0  0  0
  8  9  1  0  0  0
  8 22  1  0  0  0
  9 10  1  0  0  0
  9 27  2  0  0  0
 10 11  2  0  0  0
 10 15  1  0  0  0
 11 12  1  0  0  0
 11 93  1  0  0  0
 12 13  2  0  0  0
 12 94  1  0  0  0
 13 14  1  0  0  0
 13 31  1  0  0  0
 14 15  2  0  0  0
 14 95  1  0  0  0
 15 96  1  0  0  0
 16 17  2  0  0  0
 16 21  1  0  0  0
 16 31  1  0  0  0
 17 18  1  0  0  0
 17 97  1  0  0  0
 18 19  2  0  0  0
 18 98  1  0  0  0
 19 20  1  0  0  0
 19 24  1  0  0  0
 20 21  2  0  0  0
 20 99  1  0  0  0
 21 23  1  0  0  0
 22 28  1  0  0  0
 22 32  2  0  0  0
 26 27  1  0  0  0
 28100  1  0  0  0
 28101  1  0  0  0
 29102  1  0  0  0
 29103  1  0  0  0
 33 34  1  0  0  0
 33 66  1  0  0  0
 33 70  2  0  0  0
 34 36  1  0  0  0
 34 59  1  0  0  0
 34104  1  0  0  0
 35 44  2  0  0  0
 35 45  1  0  0  0
 35 68  1  0  0  0
 36 56  1  0  0  0
 36105  1  0  0  0
 37 39  1  0  0  0
 37 47  1  0  0  0
 37 66  1  0  0  0
 37106  1  0  0  0
 38 43  2  0  0  0
 38 46  1  0  0  0
 38 47  1  0  0  0
 39 64  1  0  0  0
 39 67  2  0  0  0
 40 52  1  0  0  0
 40 53  2  0  0  0
 40 58  1  0  0  0
 41107  1  0  0  0
 41108  1  0  0  0
 41109  1  0  0  0
 41 48  1  0  0  0
 42 43  1  0  0  0
 42 66  1  0  0  0
 42110  1  0  0  0
 42111  1  0  0  0
 43 44  1  0  0  0
 44112  1  0  0  0
 45 46  2  0  0  0
 45113  1  0  0  0
 46114  1  0  0  0
 47115  1  0  0  0
 47116  1  0  0  0
 48 56  1  0  0  0
 48 65  1  0  0  0
 48117  1  0  0  0
 49 50  1  0  0  0
 49 53  1  0  0  0
 49 64  1  0  0  0
 49118  1  0  0  0
 50 51  1  0  0  0
 50119  1  0  0  0
 50120  1  0  0  0
 51 52  1  0  0  0
 51121  1  0  0  0
 51122  1  0  0  0
 52123  1  0  0  0
 52124  1  0  0  0
 53 54  1  0  0  0
 54 55  2  0  0  0
 54125  1  0  0  0
 55 57  1  0  0  0
 55126  1  0  0  0
 56 69  2  0  0  0
 57 58  2  0  0  0
 57127  1  0  0  0
 58128  1  0  0  0
 59 60  1  0  0  0
 59 61  1  0  0  0
 59 62  1  0  0  0
 60129  1  0  0  0
 60130  1  0  0  0
 60131  1  0  0  0
 61132  1  0  0  0
 61133  1  0  0  0
 61134  1  0  0  0
 62135  1  0  0  0
 62136  1  0  0  0
 62137  1  0  0  0
 63 65  1  0  0  0
 63138  1  0  0  0
 63139  1  0  0  0
 63140  1  0  0  0
 64141  1  0  0  0
 65142  1  0  0  0
 68 76  1  0  0  0
 71 73  2  0  0  0
 71 75  1  0  0  0
 71143  1  0  0  0
 72 74  1  0  0  0
 72 75  2  0  0  0
 72144  1  0  0  0
 73 76  1  0  0  0
 73145  1  0  0  0
 74 76  2  0  0  0
 74146  1  0  0  0
 75 80  1  0  0  0
 77 78  1  0  0  0
 77 81  1  0  0  0
 77147  1  0  0  0
 77148  1  0  0  0
 78 82  1  0  0  0
 78149  1  0  0  0
 78150  1  0  0  0
 79 83  1  0  0  0
 79151  1  0  0  0
 79152  1  0  0  0
 79 80  1  0  0  0
 80 82  1  0  0  0
 80153  1  0  0  0
 81154  1  0  0  0
 82155  1  0  0  0
 82156  1  0  0  0
 83157  1  0  0  0
M  CHG  1  82   1
M  ISO  4   1 100  68 101  76 101  81 100
M  END
> <chiral flag>
0

> <version>
0

> <s_m_source_file>
/data/baiqing/PycharmProjects/Reinvent-master-3.2/result/LINK_invent/BTK/process_docking_weight1_custom_sum_contain_oxygen_bond_distance_aromatic_linkinvent_7_9_3/rearranged_h_0128.sdf

> <i_m_source_file_index>
39

> <r_mmod_Potential_Energy-OPLS-2005>
-224.562652587891

> <r_mmod_Stretch_Energy-OPLS-2005>
76.2765579223633

> <r_mmod_Bend_Energy-OPLS-2005>
124.252655029297

> <r_mmod_Torsional_Energy-OPLS-2005>
204.00520324707

> <r_mmod_Improper_Torsional_Energy-OPLS-2005>
6.21426868438721

> <r_mmod_Van_der_Waal_Energy-OPLS-2005>
139.218536376953

> <r_mmod_Electrostatic_Energy-OPLS-2005>
-289.679626464844

> <r_mmod_Solvation_Energy-OPLS-2005>
-525.018737792969

> <b_mmod_Minimization_Converged-OPLS-2005>
0

> <r_mmod_RMS_Derivative-OPLS-2005>
3.57000851631165

$$$$
39
                    3D
 Structure written by MMmdl.
170179  0  0  1  0            999 V2000
  -30.7117  -14.4510   20.6101 C   0  0  0  0  0  0
  -30.4246  -12.3113   19.4075 C   0  0  0  0  0  0
  -29.4910  -12.5203   18.1977 C   0  0  0  0  0  0
  -28.0152  -12.3665   18.6139 C   0  0  0  0  0  0
  -27.6635  -13.2005   19.8754 C   0  0  2  0  0  0
  -28.7051  -12.9668   20.9926 C   0  0  0  0  0  0
  -25.2591  -13.8141   20.5652 C   0  0  0  0  0  0
  -24.1833  -13.0428   20.9158 C   0  0  0  0  0  0
  -24.6387  -11.6898   20.8717 C   0  0  0  0  0  0
  -23.9048  -10.4292   21.0395 C   0  0  0  0  0  0
  -24.3612   -9.4216   21.9172 C   0  0  0  0  0  0
  -23.6296   -8.2251   22.0755 C   0  0  0  0  0  0
  -22.4276   -8.0282   21.3549 C   0  0  0  0  0  0
  -21.9906   -9.0247   20.4645 C   0  0  0  0  0  0
  -22.7225  -10.2131   20.3048 C   0  0  0  0  0  0
  -21.6858   -6.0734   22.5280 C   0  0  0  0  0  0
  -21.4010   -6.5638   23.8210 C   0  0  0  0  0  0
  -21.3668   -5.6792   24.9175 C   0  0  0  0  0  0
  -21.6049   -4.3056   24.7222 C   0  0  0  0  0  0
  -21.8817   -3.8147   23.4342 C   0  0  0  0  0  0
  -21.9194   -4.6961   22.3398 C   0  0  0  0  0  0
  -22.7862  -13.5248   21.1833 C   0  0  0  0  0  0
  -22.1660   -4.2147   21.0975 F   0  0  0  0  0  0
  -21.5639   -3.4537   25.7733 F   0  0  0  0  0  0
  -30.0384  -13.2805   20.4455 N   0  0  0  0  0  0
  -26.3024  -12.9297   20.3360 N   0  0  0  0  0  0
  -25.9309  -11.6466   20.5752 N   0  0  0  0  0  0
  -22.0514  -12.8235   22.0398 N   0  0  0  0  0  0
  -25.4323  -15.1854   20.4046 N   0  0  0  0  0  0
  -31.8073  -14.6816   20.0905 O   0  0  0  0  0  0
  -21.6648   -6.8878   21.4245 O   0  0  0  0  0  0
  -22.3542  -14.5558   20.6703 O   0  0  0  0  0  0
  -24.6169  -31.8679   23.2117 C   0  0  0  0  0  0
  -25.9065  -32.4810   23.8409 C   0  0  1  0  0  0
  -27.2261  -27.4115   20.0988 C   0  0  0  0  0  0
  -25.5921  -33.8614   24.2335 N   0  0  0  0  0  0
  -23.4051  -30.4959   21.5514 C   0  0  2  0  0  0
  -24.8493  -28.9624   20.1156 C   0  0  0  0  0  0
  -22.7429  -29.4671   22.4968 C   0  0  0  0  0  0
  -18.0288  -28.1384   22.8489 C   0  0  0  0  0  0
  -24.1480  -36.7293   23.2641 C   0  0  0  0  0  0
  -25.9393  -30.8242   21.3723 C   0  0  0  0  0  0
  -26.0123  -29.4590   20.7162 C   0  0  0  0  0  0
  -27.2028  -28.6924   20.7043 C   0  0  0  0  0  0
  -26.0446  -26.9503   19.4700 C   0  0  0  0  0  0
  -24.8617  -27.7073   19.4896 C   0  0  0  0  0  0
  -23.6149  -29.8334   20.1649 C   0  0  0  0  0  0
  -25.4102  -36.3100   24.0343 C   0  0  1  0  0  0
  -20.5881  -28.3677   23.1306 C   0  0  2  0  0  0
  -20.6779  -26.9409   22.5414 C   0  0  0  0  0  0
  -19.5751  -26.6389   21.5218 C   0  0  0  0  0  0
  -18.1931  -26.7927   22.1628 C   0  0  0  0  0  0
  -19.1536  -28.8846   23.2896 C   0  0  0  0  0  0
  -18.9466  -30.1456   23.8898 C   0  0  0  0  0  0
  -17.6465  -30.6584   24.0567 C   0  0  0  0  0  0
  -25.9041  -34.9471   23.5128 C   0  0  0  0  0  0
  -16.5357  -29.9083   23.6338 C   0  0  0  0  0  0
  -16.7277  -28.6507   23.0349 C   0  0  0  0  0  0
  -26.4488  -31.6599   25.0746 C   0  0  0  0  0  0
  -25.3760  -31.3721   26.1503 C   0  0  0  0  0  0
  -27.0333  -30.3036   24.6152 C   0  0  0  0  0  0
  -27.6059  -32.4330   25.7497 C   0  0  0  0  0  0
  -27.5573  -37.1805   24.8471 C   0  0  0  0  0  0
  -21.4158  -29.3037   22.3701 N   0  0  0  0  0  0
  -26.4285  -37.3787   23.9417 N   0  0  0  0  0  0
  -24.6718  -31.0776   22.1017 N   0  0  0  0  0  0
  -23.4189  -28.8209   23.3016 O   0  0  0  0  0  0
  -28.3908  -26.6580   20.1082 O   0  0  0  0  0  0
  -26.5593  -34.8917   22.4685 O   0  0  0  0  0  0
  -23.5365  -32.1436   23.7512 O   0  0  0  0  0  0
  -29.0922  -22.9101   19.6800 C   0  0  0  0  0  0
  -28.1773  -23.3312   21.9879 C   0  0  0  0  0  0
  -29.3251  -24.4334   19.5179 C   0  0  0  0  0  0
  -28.3939  -24.8506   21.7915 C   0  0  0  0  0  0
  -31.9285  -19.8859   22.5345 C   0  0  0  0  0  0
  -29.1355  -22.4318   21.1549 C   0  0  1  0  0  0
  -28.2695  -25.2282   20.3068 C   0  0  1  0  0  0
  -31.9245  -19.4899   21.0545 C   0  0  2  0  0  0
  -29.7196  -19.9435   21.9810 C   0  0  1  0  0  0
  -32.4798  -20.6172   20.1643 C   0  0  0  0  0  0
  -28.7146  -20.9215   21.2788 C   0  0  0  0  0  0
  -30.5206  -16.7676   21.5987 C   0  0  0  0  0  0
  -30.1241  -17.8085   20.5033 C   0  0  0  0  0  0
  -30.0604  -15.3969   21.3093 N   0  0  0  0  0  0
  -30.4985  -19.2392   20.7700 N   0  3  2  0  0  0
  -30.7185  -20.6232   22.6828 O   0  0  0  0  0  0
  -31.4669  -12.4210   19.1041 H   0  0  0  0  0  0
  -30.3304  -11.2945   19.7913 H   0  0  0  0  0  0
  -29.7336  -11.8163   17.4007 H   0  0  0  0  0  0
  -29.6500  -13.5160   17.7796 H   0  0  0  0  0  0
  -27.8312  -11.3087   18.8068 H   0  0  0  0  0  0
  -27.3612  -12.6398   17.7851 H   0  0  0  0  0  0
  -27.7124  -14.2506   19.5885 H   0  0  0  0  0  0
  -28.6799  -11.9249   21.3140 H   0  0  0  0  0  0
  -28.4582  -13.5450   21.8838 H   0  0  0  0  0  0
  -25.2764   -9.5699   22.4733 H   0  0  0  0  0  0
  -24.0017   -7.4640   22.7470 H   0  0  0  0  0  0
  -21.0846   -8.8761   19.8934 H   0  0  0  0  0  0
  -22.3693  -10.9667   19.6150 H   0  0  0  0  0  0
  -21.2001   -7.6145   23.9714 H   0  0  0  0  0  0
  -21.1495   -6.0519   25.9077 H   0  0  0  0  0  0
  -22.0592   -2.7613   23.2841 H   0  0  0  0  0  0
  -22.4144  -11.9898   22.4775 H   0  0  0  0  0  0
  -21.1129  -13.1242   22.2604 H   0  0  0  0  0  0
  -24.6640  -15.8412   20.5012 H   0  0  0  0  0  0
  -26.2849  -15.6233   20.0785 H   0  0  0  0  0  0
  -26.7134  -32.5511   23.1173 H   0  0  0  0  0  0
  -25.0101  -33.9780   25.0502 H   0  0  0  0  0  0
  -22.6942  -31.3138   21.4141 H   0  0  0  0  0  0
  -23.3743  -35.9624   23.3317 H   0  0  0  0  0  0
  -24.3572  -36.8892   22.2052 H   0  0  0  0  0  0
  -23.7235  -37.6505   23.6640 H   0  0  0  0  0  0
  -26.0693  -31.5932   20.6102 H   0  0  0  0  0  0
  -26.8215  -30.8661   22.0001 H   0  0  0  0  0  0
  -28.0983  -29.0719   21.1763 H   0  0  0  0  0  0
  -26.0119  -26.0135   18.9357 H   0  0  0  0  0  0
  -23.9726  -27.3246   19.0084 H   0  0  0  0  0  0
  -23.7274  -30.6100   19.4079 H   0  0  0  0  0  0
  -22.7367  -29.2585   19.8645 H   0  0  0  0  0  0
  -25.1280  -36.1958   25.0837 H   0  0  0  0  0  0
  -20.9995  -28.3249   24.1418 H   0  0  0  0  0  0
  -20.5710  -26.2280   23.3603 H   0  0  0  0  0  0
  -21.6647  -26.7459   22.1187 H   0  0  0  0  0  0
  -19.6910  -25.6307   21.1231 H   0  0  0  0  0  0
  -19.6688  -27.3216   20.6757 H   0  0  0  0  0  0
  -17.4209  -26.6699   21.4020 H   0  0  0  0  0  0
  -18.0314  -26.0062   22.9016 H   0  0  0  0  0  0
  -19.7947  -30.7286   24.2240 H   0  0  0  0  0  0
  -17.5023  -31.6259   24.5182 H   0  0  0  0  0  0
  -15.5361  -30.2985   23.7661 H   0  0  0  0  0  0
  -15.8680  -28.0838   22.7039 H   0  0  0  0  0  0
  -24.5903  -30.7096   25.7851 H   0  0  0  0  0  0
  -24.8994  -32.2886   26.4982 H   0  0  0  0  0  0
  -25.8124  -30.8866   27.0241 H   0  0  0  0  0  0
  -26.2895  -29.6782   24.1197 H   0  0  0  0  0  0
  -27.4083  -29.7291   25.4633 H   0  0  0  0  0  0
  -27.8734  -30.4345   23.9328 H   0  0  0  0  0  0
  -27.2663  -33.3610   26.2101 H   0  0  0  0  0  0
  -28.3838  -32.6927   25.0307 H   0  0  0  0  0  0
  -28.0750  -31.8445   26.5391 H   0  0  0  0  0  0
  -28.2606  -38.0088   24.7508 H   0  0  0  0  0  0
  -28.1053  -36.2625   24.6301 H   0  0  0  0  0  0
  -27.2293  -37.1460   25.8876 H   0  0  0  0  0  0
  -20.9312  -29.8749   21.6920 H   0  0  0  0  0  0
  -26.0168  -38.2863   24.1426 H   0  0  0  0  0  0
  -29.8309  -22.3660   19.0917 H   0  0  0  0  0  0
  -28.1221  -22.6596   19.2476 H   0  0  0  0  0  0
  -27.1436  -23.1024   21.7233 H   0  0  0  0  0  0
  -28.2764  -23.0870   23.0463 H   0  0  0  0  0  0
  -29.2717  -24.6976   18.4618 H   0  0  0  0  0  0
  -30.3294  -24.6967   19.8504 H   0  0  0  0  0  0
  -29.3733  -25.1416   22.1733 H   0  0  0  0  0  0
  -27.6572  -25.4034   22.3758 H   0  0  0  0  0  0
  -32.8057  -20.4677   22.8191 H   0  0  0  0  0  0
  -31.8978  -19.0020   23.1740 H   0  0  0  0  0  0
  -30.1485  -22.5978   21.5203 H   0  0  0  0  0  0
  -27.3081  -24.8469   19.9781 H   0  0  0  0  0  0
  -32.5401  -18.6050   20.8919 H   0  0  0  0  0  0
  -29.2257  -19.2026   22.6130 H   0  0  0  0  0  0
  -31.9253  -21.5486   20.2886 H   0  0  0  0  0  0
  -32.4500  -20.3460   19.1086 H   0  0  0  0  0  0
  -33.5212  -20.8278   20.4164 H   0  0  0  0  0  0
  -28.3969  -20.5060   20.3216 H   0  0  0  0  0  0
  -27.8126  -20.8716   21.8903 H   0  0  0  0  0  0
  -30.0852  -17.0519   22.5571 H   0  0  0  0  0  0
  -31.5996  -16.7481   21.7529 H   0  0  0  0  0  0
  -29.0467  -17.7744   20.3376 H   0  0  0  0  0  0
  -30.5756  -17.5164   19.5544 H   0  0  0  0  0  0
  -29.1662  -15.1246   21.6927 H   0  0  0  0  0  0
  -30.2829  -19.7371   19.9195 H   0  0  0  0  0  0
  1 25  1  0  0  0
  1 30  2  0  0  0
  1 84  1  0  0  0
  2  3  1  0  0  0
  2 25  1  0  0  0
  2 87  1  0  0  0
  2 88  1  0  0  0
  3  4  1  0  0  0
  3 89  1  0  0  0
  3 90  1  0  0  0
  4  5  1  0  0  0
  4 91  1  0  0  0
  4 92  1  0  0  0
  5  6  1  0  0  0
  5 26  1  0  0  0
  5 93  1  0  0  0
  6 25  1  0  0  0
  6 94  1  0  0  0
  6 95  1  0  0  0
  7  8  2  0  0  0
  7 26  1  0  0  0
  7 29  1  0  0  0
  8  9  1  0  0  0
  8 22  1  0  0  0
  9 10  1  0  0  0
  9 27  2  0  0  0
 10 11  2  0  0  0
 10 15  1  0  0  0
 11 12  1  0  0  0
 11 96  1  0  0  0
 12 13  2  0  0  0
 12 97  1  0  0  0
 13 14  1  0  0  0
 13 31  1  0  0  0
 14 15  2  0  0  0
 14 98  1  0  0  0
 15 99  1  0  0  0
 16 17  2  0  0  0
 16 21  1  0  0  0
 16 31  1  0  0  0
 17 18  1  0  0  0
 17100  1  0  0  0
 18 19  2  0  0  0
 18101  1  0  0  0
 19 20  1  0  0  0
 19 24  1  0  0  0
 20 21  2  0  0  0
 20102  1  0  0  0
 21 23  1  0  0  0
 22 28  1  0  0  0
 22 32  2  0  0  0
 26 27  1  0  0  0
 28103  1  0  0  0
 28104  1  0  0  0
 29105  1  0  0  0
 29106  1  0  0  0
 33 34  1  0  0  0
 33 66  1  0  0  0
 33 70  2  0  0  0
 34 36  1  0  0  0
 34 59  1  0  0  0
 34107  1  0  0  0
 35 44  2  0  0  0
 35 45  1  0  0  0
 35 68  1  0  0  0
 36 56  1  0  0  0
 36108  1  0  0  0
 37 39  1  0  0  0
 37 47  1  0  0  0
 37 66  1  0  0  0
 37109  1  0  0  0
 38 43  2  0  0  0
 38 46  1  0  0  0
 38 47  1  0  0  0
 39 64  1  0  0  0
 39 67  2  0  0  0
 40 52  1  0  0  0
 40 53  2  0  0  0
 40 58  1  0  0  0
 41110  1  0  0  0
 41111  1  0  0  0
 41112  1  0  0  0
 41 48  1  0  0  0
 42 43  1  0  0  0
 42 66  1  0  0  0
 42113  1  0  0  0
 42114  1  0  0  0
 43 44  1  0  0  0
 44115  1  0  0  0
 45 46  2  0  0  0
 45116  1  0  0  0
 46117  1  0  0  0
 47118  1  0  0  0
 47119  1  0  0  0
 48 56  1  0  0  0
 48 65  1  0  0  0
 48120  1  0  0  0
 49 50  1  0  0  0
 49 53  1  0  0  0
 49 64  1  0  0  0
 49121  1  0  0  0
 50 51  1  0  0  0
 50122  1  0  0  0
 50123  1  0  0  0
 51 52  1  0  0  0
 51124  1  0  0  0
 51125  1  0  0  0
 52126  1  0  0  0
 52127  1  0  0  0
 53 54  1  0  0  0
 54 55  2  0  0  0
 54128  1  0  0  0
 55 57  1  0  0  0
 55129  1  0  0  0
 56 69  2  0  0  0
 57 58  2  0  0  0
 57130  1  0  0  0
 58131  1  0  0  0
 59 60  1  0  0  0
 59 61  1  0  0  0
 59 62  1  0  0  0
 60132  1  0  0  0
 60133  1  0  0  0
 60134  1  0  0  0
 61135  1  0  0  0
 61136  1  0  0  0
 61137  1  0  0  0
 62138  1  0  0  0
 62139  1  0  0  0
 62140  1  0  0  0
 63 65  1  0  0  0
 63141  1  0  0  0
 63142  1  0  0  0
 63143  1  0  0  0
 64144  1  0  0  0
 65145  1  0  0  0
 68 77  1  0  0  0
 71 73  1  0  0  0
 71 76  1  0  0  0
 71146  1  0  0  0
 71147  1  0  0  0
 72 74  1  0  0  0
 72 76  1  0  0  0
 72148  1  0  0  0
 72149  1  0  0  0
 73 77  1  0  0  0
 73150  1  0  0  0
 73151  1  0  0  0
 74 77  1  0  0  0
 74152  1  0  0  0
 74153  1  0  0  0
 75 78  1  0  0  0
 75 86  1  0  0  0
 75154  1  0  0  0
 75155  1  0  0  0
 76 81  1  0  0  0
 76156  1  0  0  0
 77157  1  0  0  0
 78 80  1  0  0  0
 78 85  1  0  0  0
 78158  1  0  0  0
 79 81  1  0  0  0
 79 85  1  0  0  0
 79 86  1  0  0  0
 79159  1  0  0  0
 80160  1  0  0  0
 80161  1  0  0  0
 80162  1  0  0  0
 81163  1  0  0  0
 81164  1  0  0  0
 82 83  1  0  0  0
 82 84  1  0  0  0
 82165  1  0  0  0
 82166  1  0  0  0
 83167  1  0  0  0
 83168  1  0  0  0
 83 85  1  0  0  0
 84169  1  0  0  0
 85170  1  0  0  0
M  CHG  1  85   1
M  ISO  4   1 100  68 101  77 101  84 100
M  END
> <chiral flag>
0

> <version>
0

> <s_m_source_file>
/data/baiqing/PycharmProjects/Reinvent-master-3.2/result/LINK_invent/BTK/process_docking_weight1_custom_sum_contain_oxygen_bond_distance_aromatic_linkinvent_7_9_3/rearranged_h_0128.sdf

> <i_m_source_file_index>
40

> <r_mmod_Potential_Energy-OPLS-2005>
-62.3334426879883

> <r_mmod_Stretch_Energy-OPLS-2005>
44.3116607666016

> <r_mmod_Bend_Energy-OPLS-2005>
134.672546386719

> <r_mmod_Torsional_Energy-OPLS-2005>
302.988098144531

> <r_mmod_Improper_Torsional_Energy-OPLS-2005>
2.38772368431091

> <r_mmod_Van_der_Waal_Energy-OPLS-2005>
134.853469848633

> <r_mmod_Electrostatic_Energy-OPLS-2005>
-253.88005065918

> <r_mmod_Solvation_Energy-OPLS-2005>
-440.390960693359

> <b_mmod_Minimization_Converged-OPLS-2005>
0

> <r_mmod_RMS_Derivative-OPLS-2005>
1.82826912403107

$$$$
40
                    3D
 Structure written by MMmdl.
151159  0  0  1  0            999 V2000
  -30.5286  -15.0409   20.3907 C   0  0  0  0  0  0
  -30.4297  -12.6451   19.5130 C   0  0  0  0  0  0
  -29.5242  -12.5394   18.2648 C   0  0  0  0  0  0
  -28.0594  -12.3140   18.6787 C   0  0  0  0  0  0
  -27.6205  -13.2596   19.8279 C   0  0  2  0  0  0
  -28.6581  -13.3438   20.9671 C   0  0  0  0  0  0
  -25.2423  -13.8243   20.5698 C   0  0  0  0  0  0
  -24.1760  -13.0445   20.9223 C   0  0  0  0  0  0
  -24.6397  -11.6934   20.8746 C   0  0  0  0  0  0
  -23.9099  -10.4299   21.0402 C   0  0  0  0  0  0
  -24.3653   -9.4217   21.9178 C   0  0  0  0  0  0
  -23.6321   -8.2258   22.0757 C   0  0  0  0  0  0
  -22.4297   -8.0293   21.3551 C   0  0  0  0  0  0
  -21.9935   -9.0264   20.4647 C   0  0  0  0  0  0
  -22.7271  -10.2138   20.3055 C   0  0  0  0  0  0
  -21.6858   -6.0750   22.5279 C   0  0  0  0  0  0
  -21.4014   -6.5644   23.8215 C   0  0  0  0  0  0
  -21.3664   -5.6794   24.9173 C   0  0  0  0  0  0
  -21.6062   -4.3060   24.7223 C   0  0  0  0  0  0
  -21.8821   -3.8159   23.4339 C   0  0  0  0  0  0
  -21.9195   -4.6977   22.3397 C   0  0  0  0  0  0
  -22.7777  -13.5197   21.1880 C   0  0  0  0  0  0
  -22.1656   -4.2162   21.0976 F   0  0  0  0  0  0
  -21.5632   -3.4537   25.7735 F   0  0  0  0  0  0
  -29.9237  -13.7732   20.3601 N   0  0  0  0  0  0
  -26.2839  -12.9486   20.3194 N   0  0  0  0  0  0
  -25.9327  -11.6605   20.5709 N   0  0  0  0  0  0
  -22.0444  -12.8176   22.0444 N   0  0  0  0  0  0
  -25.4083  -15.1980   20.4122 N   0  0  0  0  0  0
  -31.7430  -15.0241   20.1535 O   0  0  0  0  0  0
  -21.6666   -6.8890   21.4239 O   0  0  0  0  0  0
  -22.3452  -14.5495   20.6716 O   0  0  0  0  0  0
  -24.6510  -31.8366   23.1817 C   0  0  0  0  0  0
  -25.9252  -32.4657   23.8240 C   0  0  1  0  0  0
  -27.2179  -27.0639   20.1681 C   0  0  0  0  0  0
  -25.5978  -33.8467   24.2165 N   0  0  0  0  0  0
  -23.4593  -30.4539   21.5272 C   0  0  2  0  0  0
  -24.9100  -28.8666   20.1095 C   0  0  0  0  0  0
  -22.7609  -29.4514   22.4819 C   0  0  0  0  0  0
  -18.0318  -28.1404   22.8473 C   0  0  0  0  0  0
  -24.1501  -36.7237   23.2648 C   0  0  0  0  0  0
  -26.0201  -30.6884   21.3914 C   0  0  0  0  0  0
  -26.0900  -29.2921   20.7334 C   0  0  0  0  0  0
  -27.2430  -28.4094   20.7409 C   0  0  0  0  0  0
  -26.0105  -26.7538   19.5049 C   0  0  0  0  0  0
  -24.8882  -27.6137   19.4777 C   0  0  0  0  0  0
  -23.6909  -29.7784   20.1489 C   0  0  0  0  0  0
  -25.4135  -36.3016   24.0319 C   0  0  1  0  0  0
  -20.5938  -28.3737   23.1211 C   0  0  2  0  0  0
  -20.6805  -26.9432   22.5403 C   0  0  0  0  0  0
  -19.5781  -26.6382   21.5213 C   0  0  0  0  0  0
  -18.1956  -26.7942   22.1612 C   0  0  0  0  0  0
  -19.1577  -28.8889   23.2832 C   0  0  0  0  0  0
  -18.9487  -30.1476   23.8871 C   0  0  0  0  0  0
  -17.6481  -30.6590   24.0560 C   0  0  0  0  0  0
  -25.9082  -34.9389   23.5052 C   0  0  0  0  0  0
  -16.5369  -29.9077   23.6340 C   0  0  0  0  0  0
  -16.7302  -28.6498   23.0356 C   0  0  0  0  0  0
  -26.4559  -31.6544   25.0711 C   0  0  0  0  0  0
  -25.3728  -31.3737   26.1390 C   0  0  0  0  0  0
  -27.0442  -30.2937   24.6334 C   0  0  0  0  0  0
  -27.6074  -32.4322   25.7496 C   0  0  0  0  0  0
  -27.5586  -37.1773   24.8464 C   0  0  0  0  0  0
  -21.4293  -29.3045   22.3562 N   0  0  0  0  0  0
  -26.4296  -37.3728   23.9409 N   0  0  0  0  0  0
  -24.7303  -31.0163   22.0881 N   0  0  0  0  0  0
  -23.4217  -28.8070   23.3000 O   0  0  0  0  0  0
  -28.2540  -26.0394   20.2448 O   0  0  0  0  0  0
  -26.5654  -34.8896   22.4622 O   0  0  0  0  0  0
  -23.5612  -32.1284   23.6981 O   0  0  0  0  0  0
  -31.6978  -19.3433   19.2503 C   0  0  0  0  0  0
  -31.3170  -18.0569   19.6574 C   0  0  0  0  0  0
  -30.8618  -20.4685   19.4080 C   0  0  0  0  0  0
  -30.0663  -17.7949   20.2405 C   0  0  0  0  0  0
  -29.6137  -20.3522   20.0744 C   0  0  0  0  0  0
  -31.3575  -21.7437   18.7467 C   0  0  0  0  0  0
  -29.0545  -23.1481   20.4074 C   0  0  0  0  0  0
  -27.9932  -24.4746   20.1046 C   0  0  0  0  0  0
  -29.2617  -18.9935   20.4367 N   0  0  0  0  0  0
  -29.7793  -16.2785   20.5128 N   0  0  0  0  0  0
  -28.7512  -21.5792   20.2681 N   0  0  0  0  0  0
  -31.4643  -12.7932   19.2004 H   0  0  0  0  0  0
  -30.4248  -11.7087   20.0738 H   0  0  0  0  0  0
  -29.8610  -11.7287   17.6179 H   0  0  0  0  0  0
  -29.6032  -13.4554   17.6779 H   0  0  0  0  0  0
  -27.9659  -11.2745   18.9959 H   0  0  0  0  0  0
  -27.4004  -12.4311   17.8182 H   0  0  0  0  0  0
  -27.5645  -14.2501   19.3757 H   0  0  0  0  0  0
  -28.7660  -12.3869   21.4792 H   0  0  0  0  0  0
  -28.3377  -14.0634   21.7212 H   0  0  0  0  0  0
  -25.2798   -9.5687   22.4752 H   0  0  0  0  0  0
  -24.0032   -7.4654   22.7474 H   0  0  0  0  0  0
  -21.0874   -8.8788   19.8951 H   0  0  0  0  0  0
  -22.3733  -10.9681   19.6173 H   0  0  0  0  0  0
  -21.1997   -7.6150   23.9710 H   0  0  0  0  0  0
  -21.1481   -6.0528   25.9075 H   0  0  0  0  0  0
  -22.0595   -2.7620   23.2839 H   0  0  0  0  0  0
  -22.4085  -11.9851   22.4839 H   0  0  0  0  0  0
  -21.1049  -13.1174   22.2634 H   0  0  0  0  0  0
  -24.6409  -15.8490   20.5372 H   0  0  0  0  0  0
  -26.2422  -15.6413   20.0488 H   0  0  0  0  0  0
  -26.7320  -32.5245   23.0966 H   0  0  0  0  0  0
  -25.0134  -33.9571   25.0326 H   0  0  0  0  0  0
  -22.7659  -31.2816   21.3650 H   0  0  0  0  0  0
  -23.3776  -35.9553   23.3284 H   0  0  0  0  0  0
  -24.3592  -36.8891   22.2066 H   0  0  0  0  0  0
  -23.7237  -37.6420   23.6697 H   0  0  0  0  0  0
  -26.1863  -31.4391   20.6173 H   0  0  0  0  0  0
  -26.8874  -30.7401   22.0384 H   0  0  0  0  0  0
  -28.1394  -28.7315   21.2529 H   0  0  0  0  0  0
  -25.9013  -25.7934   19.0227 H   0  0  0  0  0  0
  -23.9900  -27.2812   18.9756 H   0  0  0  0  0  0
  -23.8326  -30.5510   19.3912 H   0  0  0  0  0  0
  -22.8050  -29.2224   19.8373 H   0  0  0  0  0  0
  -25.1325  -36.1845   25.0809 H   0  0  0  0  0  0
  -21.0042  -28.3348   24.1323 H   0  0  0  0  0  0
  -20.5700  -26.2354   23.3633 H   0  0  0  0  0  0
  -21.6668  -26.7420   22.1197 H   0  0  0  0  0  0
  -19.6938  -25.6285   21.1257 H   0  0  0  0  0  0
  -19.6732  -27.3180   20.6738 H   0  0  0  0  0  0
  -17.4237  -26.6705   21.4002 H   0  0  0  0  0  0
  -18.0332  -26.0087   22.9007 H   0  0  0  0  0  0
  -19.7960  -30.7297   24.2242 H   0  0  0  0  0  0
  -17.5027  -31.6268   24.5154 H   0  0  0  0  0  0
  -15.5370  -30.2960   23.7681 H   0  0  0  0  0  0
  -15.8704  -28.0797   22.7092 H   0  0  0  0  0  0
  -24.5916  -30.7081   25.7705 H   0  0  0  0  0  0
  -24.8915  -32.2914   26.4772 H   0  0  0  0  0  0
  -25.8008  -30.8934   27.0200 H   0  0  0  0  0  0
  -26.3082  -29.6619   24.1352 H   0  0  0  0  0  0
  -27.4052  -29.7277   25.4933 H   0  0  0  0  0  0
  -27.8988  -30.4162   23.9678 H   0  0  0  0  0  0
  -27.2669  -33.3643   26.2012 H   0  0  0  0  0  0
  -28.3924  -32.6842   25.0356 H   0  0  0  0  0  0
  -28.0706  -31.8489   26.5465 H   0  0  0  0  0  0
  -28.2582  -38.0092   24.7520 H   0  0  0  0  0  0
  -28.1108  -36.2615   24.6283 H   0  0  0  0  0  0
  -27.2300  -37.1408   25.8865 H   0  0  0  0  0  0
  -20.9522  -29.8742   21.6713 H   0  0  0  0  0  0
  -26.0165  -38.2797   24.1404 H   0  0  0  0  0  0
  -32.6571  -19.4504   18.7626 H   0  0  0  0  0  0
  -32.0194  -17.2652   19.4553 H   0  0  0  0  0  0
  -32.1337  -21.5248   18.0123 H   0  0  0  0  0  0
  -31.7922  -22.4234   19.4783 H   0  0  0  0  0  0
  -30.5563  -22.2347   18.1932 H   0  0  0  0  0  0
  -29.3564  -23.2589   21.4492 H   0  0  0  0  0  0
  -29.9540  -23.4008   19.8636 H   0  0  0  0  0  0
  -27.1059  -24.2794   20.7063 H   0  0  0  0  0  0
  -27.6616  -24.3391   19.0753 H   0  0  0  0  0  0
  -28.8214  -16.1038   20.7718 H   0  0  0  0  0  0
  -27.8302  -21.3494   20.6279 H   0  0  0  0  0  0
  1 25  1  0  0  0
  1 30  2  0  0  0
  1 80  1  0  0  0
  2  3  1  0  0  0
  2 25  1  0  0  0
  2 82  1  0  0  0
  2 83  1  0  0  0
  3  4  1  0  0  0
  3 84  1  0  0  0
  3 85  1  0  0  0
  4  5  1  0  0  0
  4 86  1  0  0  0
  4 87  1  0  0  0
  5  6  1  0  0  0
  5 26  1  0  0  0
  5 88  1  0  0  0
  6 25  1  0  0  0
  6 89  1  0  0  0
  6 90  1  0  0  0
  7  8  2  0  0  0
  7 26  1  0  0  0
  7 29  1  0  0  0
  8  9  1  0  0  0
  8 22  1  0  0  0
  9 10  1  0  0  0
  9 27  2  0  0  0
 10 11  2  0  0  0
 10 15  1  0  0  0
 11 12  1  0  0  0
 11 91  1  0  0  0
 12 13  2  0  0  0
 12 92  1  0  0  0
 13 14  1  0  0  0
 13 31  1  0  0  0
 14 15  2  0  0  0
 14 93  1  0  0  0
 15 94  1  0  0  0
 16 17  2  0  0  0
 16 21  1  0  0  0
 16 31  1  0  0  0
 17 18  1  0  0  0
 17 95  1  0  0  0
 18 19  2  0  0  0
 18 96  1  0  0  0
 19 20  1  0  0  0
 19 24  1  0  0  0
 20 21  2  0  0  0
 20 97  1  0  0  0
 21 23  1  0  0  0
 22 28  1  0  0  0
 22 32  2  0  0  0
 26 27  1  0  0  0
 28 98  1  0  0  0
 28 99  1  0  0  0
 29100  1  0  0  0
 29101  1  0  0  0
 33 34  1  0  0  0
 33 66  1  0  0  0
 33 70  2  0  0  0
 34 36  1  0  0  0
 34 59  1  0  0  0
 34102  1  0  0  0
 35 44  2  0  0  0
 35 45  1  0  0  0
 35 68  1  0  0  0
 36 56  1  0  0  0
 36103  1  0  0  0
 37 39  1  0  0  0
 37 47  1  0  0  0
 37 66  1  0  0  0
 37104  1  0  0  0
 38 43  2  0  0  0
 38 46  1  0  0  0
 38 47  1  0  0  0
 39 64  1  0  0  0
 39 67  2  0  0  0
 40 52  1  0  0  0
 40 53  2  0  0  0
 40 58  1  0  0  0
 41105  1  0  0  0
 41106  1  0  0  0
 41107  1  0  0  0
 41 48  1  0  0  0
 42 43  1  0  0  0
 42 66  1  0  0  0
 42108  1  0  0  0
 42109  1  0  0  0
 43 44  1  0  0  0
 44110  1  0  0  0
 45 46  2  0  0  0
 45111  1  0  0  0
 46112  1  0  0  0
 47113  1  0  0  0
 47114  1  0  0  0
 48 56  1  0  0  0
 48 65  1  0  0  0
 48115  1  0  0  0
 49 50  1  0  0  0
 49 53  1  0  0  0
 49 64  1  0  0  0
 49116  1  0  0  0
 50 51  1  0  0  0
 50117  1  0  0  0
 50118  1  0  0  0
 51 52  1  0  0  0
 51119  1  0  0  0
 51120  1  0  0  0
 52121  1  0  0  0
 52122  1  0  0  0
 53 54  1  0  0  0
 54 55  2  0  0  0
 54123  1  0  0  0
 55 57  1  0  0  0
 55124  1  0  0  0
 56 69  2  0  0  0
 57 58  2  0  0  0
 57125  1  0  0  0
 58126  1  0  0  0
 59 60  1  0  0  0
 59 61  1  0  0  0
 59 62  1  0  0  0
 60127  1  0  0  0
 60128  1  0  0  0
 60129  1  0  0  0
 61130  1  0  0  0
 61131  1  0  0  0
 61132  1  0  0  0
 62133  1  0  0  0
 62134  1  0  0  0
 62135  1  0  0  0
 63 65  1  0  0  0
 63136  1  0  0  0
 63137  1  0  0  0
 63138  1  0  0  0
 64139  1  0  0  0
 65140  1  0  0  0
 68 78  1  0  0  0
 71 72  2  0  0  0
 71 73  1  0  0  0
 71141  1  0  0  0
 72 74  1  0  0  0
 72142  1  0  0  0
 73 75  2  0  0  0
 73 76  1  0  0  0
 74 79  2  0  0  0
 74 80  1  0  0  0
 75 79  1  0  0  0
 75 81  1  0  0  0
 76143  1  0  0  0
 76144  1  0  0  0
 76145  1  0  0  0
 77 78  1  0  0  0
 77 81  1  0  0  0
 77146  1  0  0  0
 77147  1  0  0  0
 78148  1  0  0  0
 78149  1  0  0  0
 80150  1  0  0  0
 81151  1  0  0  0
M  ISO  4   1 100  68 101  78 101  80 100
M  END
> <chiral flag>
0

> <version>
0

> <s_m_source_file>
/data/baiqing/PycharmProjects/Reinvent-master-3.2/result/LINK_invent/BTK/process_docking_weight1_custom_sum_contain_oxygen_bond_distance_aromatic_linkinvent_7_9_3/rearranged_h_0128.sdf

> <i_m_source_file_index>
41

> <r_mmod_Potential_Energy-OPLS-2005>
455.599304199219

> <r_mmod_Stretch_Energy-OPLS-2005>
353.482940673828

> <r_mmod_Bend_Energy-OPLS-2005>
313.333953857422

> <r_mmod_Torsional_Energy-OPLS-2005>
211.183502197266

> <r_mmod_Improper_Torsional_Energy-OPLS-2005>
4.85009860992432

> <r_mmod_Van_der_Waal_Energy-OPLS-2005>
145.765838623047

> <r_mmod_Electrostatic_Energy-OPLS-2005>
-596.337036132812

> <r_mmod_Solvation_Energy-OPLS-2005>
-237.081283569336

> <b_mmod_Minimization_Converged-OPLS-2005>
0

> <r_mmod_RMS_Derivative-OPLS-2005>
1.82980728149414

$$$$
41
                    3D
 Structure written by MMmdl.
147155  0  0  1  0            999 V2000
  -30.4919  -14.9411   20.4118 C   0  0  0  0  0  0
  -30.4567  -12.5793   19.4905 C   0  0  0  0  0  0
  -29.5277  -12.5320   18.2527 C   0  0  0  0  0  0
  -28.0594  -12.3128   18.6708 C   0  0  0  0  0  0
  -27.6360  -13.2364   19.8422 C   0  0  2  0  0  0
  -28.6809  -13.2316   20.9794 C   0  0  0  0  0  0
  -25.2486  -13.8175   20.5674 C   0  0  0  0  0  0
  -24.1799  -13.0423   20.9229 C   0  0  0  0  0  0
  -24.6405  -11.6904   20.8762 C   0  0  0  0  0  0
  -23.9081  -10.4288   21.0417 C   0  0  0  0  0  0
  -24.3633   -9.4199   21.9187 C   0  0  0  0  0  0
  -23.6296   -8.2239   22.0755 C   0  0  0  0  0  0
  -22.4274   -8.0282   21.3545 C   0  0  0  0  0  0
  -21.9910   -9.0263   20.4652 C   0  0  0  0  0  0
  -22.7254  -10.2133   20.3063 C   0  0  0  0  0  0
  -21.6853   -6.0736   22.5279 C   0  0  0  0  0  0
  -21.4020   -6.5639   23.8216 C   0  0  0  0  0  0
  -21.3657   -5.6788   24.9175 C   0  0  0  0  0  0
  -21.6041   -4.3051   24.7221 C   0  0  0  0  0  0
  -21.8821   -3.8145   23.4343 C   0  0  0  0  0  0
  -21.9194   -4.6965   22.3399 C   0  0  0  0  0  0
  -22.7824  -13.5212   21.1883 C   0  0  0  0  0  0
  -22.1661   -4.2157   21.0979 F   0  0  0  0  0  0
  -21.5624   -3.4532   25.7731 F   0  0  0  0  0  0
  -29.9608  -13.6543   20.3913 N   0  0  0  0  0  0
  -26.2920  -12.9392   20.3238 N   0  0  0  0  0  0
  -25.9334  -11.6540   20.5744 N   0  0  0  0  0  0
  -22.0469  -12.8210   22.0441 N   0  0  0  0  0  0
  -25.4121  -15.1893   20.4024 N   0  0  0  0  0  0
  -31.6843  -15.0858   20.1207 O   0  0  0  0  0  0
  -21.6638   -6.8882   21.4239 O   0  0  0  0  0  0
  -22.3515  -14.5510   20.6704 O   0  0  0  0  0  0
  -24.6434  -31.8437   23.1888 C   0  0  0  0  0  0
  -25.9210  -32.4693   23.8273 C   0  0  1  0  0  0
  -27.2223  -27.1373   20.1440 C   0  0  0  0  0  0
  -25.5955  -33.8501   24.2198 N   0  0  0  0  0  0
  -23.4477  -30.4633   21.5328 C   0  0  2  0  0  0
  -24.8986  -28.8917   20.1080 C   0  0  0  0  0  0
  -22.7574  -29.4543   22.4849 C   0  0  0  0  0  0
  -18.0307  -28.1400   22.8470 C   0  0  0  0  0  0
  -24.1491  -36.7256   23.2642 C   0  0  0  0  0  0
  -26.0041  -30.7170   21.3885 C   0  0  0  0  0  0
  -26.0761  -29.3293   20.7276 C   0  0  0  0  0  0
  -27.2381  -28.4685   20.7274 C   0  0  0  0  0  0
  -26.0176  -26.8034   19.4849 C   0  0  0  0  0  0
  -24.8824  -27.6419   19.4717 C   0  0  0  0  0  0
  -23.6750  -29.7944   20.1519 C   0  0  0  0  0  0
  -25.4122  -36.3026   24.0312 C   0  0  1  0  0  0
  -20.5920  -28.3717   23.1231 C   0  0  2  0  0  0
  -20.6780  -26.9418   22.5408 C   0  0  0  0  0  0
  -19.5754  -26.6383   21.5209 C   0  0  0  0  0  0
  -18.1939  -26.7934   22.1633 C   0  0  0  0  0  0
  -19.1561  -28.8881   23.2842 C   0  0  0  0  0  0
  -18.9483  -30.1477   23.8871 C   0  0  0  0  0  0
  -17.6478  -30.6589   24.0565 C   0  0  0  0  0  0
  -25.9074  -34.9402   23.5066 C   0  0  0  0  0  0
  -16.5371  -29.9083   23.6329 C   0  0  0  0  0  0
  -16.7291  -28.6504   23.0341 C   0  0  0  0  0  0
  -26.4527  -31.6567   25.0721 C   0  0  0  0  0  0
  -25.3712  -31.3753   26.1416 C   0  0  0  0  0  0
  -27.0397  -30.2960   24.6319 C   0  0  0  0  0  0
  -27.6049  -32.4332   25.7506 C   0  0  0  0  0  0
  -27.5582  -37.1780   24.8461 C   0  0  0  0  0  0
  -21.4263  -29.3041   22.3601 N   0  0  0  0  0  0
  -26.4287  -37.3743   23.9416 N   0  0  0  0  0  0
  -24.7183  -31.0293   22.0921 N   0  0  0  0  0  0
  -23.4211  -28.8074   23.2996 O   0  0  0  0  0  0
  -28.2728  -26.1492   20.2222 O   0  0  0  0  0  0
  -26.5656  -34.8895   22.4645 O   0  0  0  0  0  0
  -23.5553  -32.1329   23.7106 O   0  0  0  0  0  0
  -28.2135  -18.0416   19.9116 C   0  0  0  0  0  0
  -27.9084  -19.4393   19.7976 C   0  0  0  0  0  0
  -30.3507  -18.6444   20.6697 C   0  0  0  0  0  0
  -29.4675  -17.5356   20.3652 C   0  0  0  0  0  0
  -28.8180  -20.4729   20.1443 C   0  0  0  0  0  0
  -27.9941  -24.6308   19.9922 C   0  0  0  0  0  0
  -28.9135  -23.2519   20.3506 C   0  0  0  0  0  0
  -30.0519  -20.0244   20.5740 N   0  0  0  0  0  0
  -29.5903  -16.0181   20.5846 N   0  0  0  0  0  0
  -28.3719  -21.8629   19.9818 O   0  0  0  0  0  0
  -31.4867  -12.7593   19.1792 H   0  0  0  0  0  0
  -30.4634  -11.6191   20.0070 H   0  0  0  0  0  0
  -29.8427  -11.7419   17.5693 H   0  0  0  0  0  0
  -29.6127  -13.4694   17.6982 H   0  0  0  0  0  0
  -27.9573  -11.2699   18.9715 H   0  0  0  0  0  0
  -27.3962  -12.4496   17.8158 H   0  0  0  0  0  0
  -27.6054  -14.2417   19.4240 H   0  0  0  0  0  0
  -28.7668  -12.2409   21.4305 H   0  0  0  0  0  0
  -28.3838  -13.9058   21.7833 H   0  0  0  0  0  0
  -25.2778   -9.5667   22.4763 H   0  0  0  0  0  0
  -24.0003   -7.4625   22.7470 H   0  0  0  0  0  0
  -21.0840   -8.8791   19.8956 H   0  0  0  0  0  0
  -22.3718  -10.9678   19.6176 H   0  0  0  0  0  0
  -21.2016   -7.6144   23.9714 H   0  0  0  0  0  0
  -21.1475   -6.0521   25.9078 H   0  0  0  0  0  0
  -22.0599   -2.7606   23.2839 H   0  0  0  0  0  0
  -22.4085  -11.9887   22.4842 H   0  0  0  0  0  0
  -21.1088  -13.1250   22.2650 H   0  0  0  0  0  0
  -24.6208  -15.8215   20.4646 H   0  0  0  0  0  0
  -26.2177  -15.6090   19.9611 H   0  0  0  0  0  0
  -26.7278  -32.5305   23.1001 H   0  0  0  0  0  0
  -25.0049  -33.9611   25.0307 H   0  0  0  0  0  0
  -22.7491  -31.2884   21.3787 H   0  0  0  0  0  0
  -23.3747  -35.9595   23.3303 H   0  0  0  0  0  0
  -24.3581  -36.8889   22.2061 H   0  0  0  0  0  0
  -23.7261  -37.6462   23.6672 H   0  0  0  0  0  0
  -26.1626  -31.4725   20.6176 H   0  0  0  0  0  0
  -26.8753  -30.7660   22.0315 H   0  0  0  0  0  0
  -28.1354  -28.7976   21.2321 H   0  0  0  0  0  0
  -25.9156  -25.8483   18.9924 H   0  0  0  0  0  0
  -23.9844  -27.3026   18.9749 H   0  0  0  0  0  0
  -23.8171  -30.5720   19.4008 H   0  0  0  0  0  0
  -22.7895  -29.2392   19.8354 H   0  0  0  0  0  0
  -25.1304  -36.1856   25.0802 H   0  0  0  0  0  0
  -21.0011  -28.3325   24.1354 H   0  0  0  0  0  0
  -20.5669  -26.2332   23.3633 H   0  0  0  0  0  0
  -21.6646  -26.7412   22.1218 H   0  0  0  0  0  0
  -19.6905  -25.6286   21.1250 H   0  0  0  0  0  0
  -19.6689  -27.3176   20.6723 H   0  0  0  0  0  0
  -17.4205  -26.6675   21.4046 H   0  0  0  0  0  0
  -18.0346  -26.0093   22.9052 H   0  0  0  0  0  0
  -19.7965  -30.7299   24.2232 H   0  0  0  0  0  0
  -17.5031  -31.6263   24.5175 H   0  0  0  0  0  0
  -15.5365  -30.2968   23.7668 H   0  0  0  0  0  0
  -15.8700  -28.0809   22.7056 H   0  0  0  0  0  0
  -24.5901  -30.7078   25.7757 H   0  0  0  0  0  0
  -24.8880  -32.2925   26.4788 H   0  0  0  0  0  0
  -25.8008  -30.8988   27.0238 H   0  0  0  0  0  0
  -26.3024  -29.6680   24.1310 H   0  0  0  0  0  0
  -27.3976  -29.7259   25.4910 H   0  0  0  0  0  0
  -27.8928  -30.4184   23.9641 H   0  0  0  0  0  0
  -27.2622  -33.3621   26.2071 H   0  0  0  0  0  0
  -28.3858  -32.6940   25.0345 H   0  0  0  0  0  0
  -28.0715  -31.8486   26.5449 H   0  0  0  0  0  0
  -28.2568  -38.0106   24.7535 H   0  0  0  0  0  0
  -28.1101  -36.2643   24.6230 H   0  0  0  0  0  0
  -27.2304  -37.1356   25.8860 H   0  0  0  0  0  0
  -20.9469  -29.8771   21.6799 H   0  0  0  0  0  0
  -26.0147  -38.2800   24.1453 H   0  0  0  0  0  0
  -27.4334  -17.3391   19.6519 H   0  0  0  0  0  0
  -26.9267  -19.7184   19.4406 H   0  0  0  0  0  0
  -31.3355  -18.4243   21.0561 H   0  0  0  0  0  0
  -27.0330  -24.4419   20.4700 H   0  0  0  0  0  0
  -27.7961  -24.5567   18.9222 H   0  0  0  0  0  0
  -29.0959  -23.2361   21.4244 H   0  0  0  0  0  0
  -29.8935  -23.3527   19.8821 H   0  0  0  0  0  0
  -28.6872  -15.6086   20.7701 H   0  0  0  0  0  0
  1 25  1  0  0  0
  1 30  2  0  0  0
  1 79  1  0  0  0
  2  3  1  0  0  0
  2 25  1  0  0  0
  2 81  1  0  0  0
  2 82  1  0  0  0
  3  4  1  0  0  0
  3 83  1  0  0  0
  3 84  1  0  0  0
  4  5  1  0  0  0
  4 85  1  0  0  0
  4 86  1  0  0  0
  5  6  1  0  0  0
  5 26  1  0  0  0
  5 87  1  0  0  0
  6 25  1  0  0  0
  6 88  1  0  0  0
  6 89  1  0  0  0
  7  8  2  0  0  0
  7 26  1  0  0  0
  7 29  1  0  0  0
  8  9  1  0  0  0
  8 22  1  0  0  0
  9 10  1  0  0  0
  9 27  2  0  0  0
 10 11  2  0  0  0
 10 15  1  0  0  0
 11 12  1  0  0  0
 11 90  1  0  0  0
 12 13  2  0  0  0
 12 91  1  0  0  0
 13 14  1  0  0  0
 13 31  1  0  0  0
 14 15  2  0  0  0
 14 92  1  0  0  0
 15 93  1  0  0  0
 16 17  2  0  0  0
 16 21  1  0  0  0
 16 31  1  0  0  0
 17 18  1  0  0  0
 17 94  1  0  0  0
 18 19  2  0  0  0
 18 95  1  0  0  0
 19 20  1  0  0  0
 19 24  1  0  0  0
 20 21  2  0  0  0
 20 96  1  0  0  0
 21 23  1  0  0  0
 22 28  1  0  0  0
 22 32  2  0  0  0
 26 27  1  0  0  0
 28 97  1  0  0  0
 28 98  1  0  0  0
 29 99  1  0  0  0
 29100  1  0  0  0
 33 34  1  0  0  0
 33 66  1  0  0  0
 33 70  2  0  0  0
 34 36  1  0  0  0
 34 59  1  0  0  0
 34101  1  0  0  0
 35 44  2  0  0  0
 35 45  1  0  0  0
 35 68  1  0  0  0
 36 56  1  0  0  0
 36102  1  0  0  0
 37 39  1  0  0  0
 37 47  1  0  0  0
 37 66  1  0  0  0
 37103  1  0  0  0
 38 43  2  0  0  0
 38 46  1  0  0  0
 38 47  1  0  0  0
 39 64  1  0  0  0
 39 67  2  0  0  0
 40 52  1  0  0  0
 40 53  2  0  0  0
 40 58  1  0  0  0
 41104  1  0  0  0
 41105  1  0  0  0
 41106  1  0  0  0
 41 48  1  0  0  0
 42 43  1  0  0  0
 42 66  1  0  0  0
 42107  1  0  0  0
 42108  1  0  0  0
 43 44  1  0  0  0
 44109  1  0  0  0
 45 46  2  0  0  0
 45110  1  0  0  0
 46111  1  0  0  0
 47112  1  0  0  0
 47113  1  0  0  0
 48 56  1  0  0  0
 48 65  1  0  0  0
 48114  1  0  0  0
 49 50  1  0  0  0
 49 53  1  0  0  0
 49 64  1  0  0  0
 49115  1  0  0  0
 50 51  1  0  0  0
 50116  1  0  0  0
 50117  1  0  0  0
 51 52  1  0  0  0
 51118  1  0  0  0
 51119  1  0  0  0
 52120  1  0  0  0
 52121  1  0  0  0
 53 54  1  0  0  0
 54 55  2  0  0  0
 54122  1  0  0  0
 55 57  1  0  0  0
 55123  1  0  0  0
 56 69  2  0  0  0
 57 58  2  0  0  0
 57124  1  0  0  0
 58125  1  0  0  0
 59 60  1  0  0  0
 59 61  1  0  0  0
 59 62  1  0  0  0
 60126  1  0  0  0
 60127  1  0  0  0
 60128  1  0  0  0
 61129  1  0  0  0
 61130  1  0  0  0
 61131  1  0  0  0
 62132  1  0  0  0
 62133  1  0  0  0
 62134  1  0  0  0
 63 65  1  0  0  0
 63135  1  0  0  0
 63136  1  0  0  0
 63137  1  0  0  0
 64138  1  0  0  0
 65139  1  0  0  0
 68 76  1  0  0  0
 71 72  2  0  0  0
 71 74  1  0  0  0
 71140  1  0  0  0
 72 75  1  0  0  0
 72141  1  0  0  0
 73 74  2  0  0  0
 73 78  1  0  0  0
 73142  1  0  0  0
 74 79  1  0  0  0
 75 78  2  0  0  0
 75 80  1  0  0  0
 76 77  1  0  0  0
 76143  1  0  0  0
 76144  1  0  0  0
 77 80  1  0  0  0
 77145  1  0  0  0
 77146  1  0  0  0
 79147  1  0  0  0
M  ISO  4   1 100  68 101  76 101  79 100
M  END
> <chiral flag>
0

> <version>
0

> <s_m_source_file>
/data/baiqing/PycharmProjects/Reinvent-master-3.2/result/LINK_invent/BTK/process_docking_weight1_custom_sum_contain_oxygen_bond_distance_aromatic_linkinvent_7_9_3/rearranged_h_0128.sdf

> <i_m_source_file_index>
42

> <r_mmod_Potential_Energy-OPLS-2005>
287.934173583984

> <r_mmod_Stretch_Energy-OPLS-2005>
230.121871948242

> <r_mmod_Bend_Energy-OPLS-2005>
313.438171386719

> <r_mmod_Torsional_Energy-OPLS-2005>
210.534942626953

> <r_mmod_Improper_Torsional_Energy-OPLS-2005>
6.00415182113647

> <r_mmod_Van_der_Waal_Energy-OPLS-2005>
131.559631347656

> <r_mmod_Electrostatic_Energy-OPLS-2005>
-571.955932617188

> <r_mmod_Solvation_Energy-OPLS-2005>
-225.364639282227

> <b_mmod_Minimization_Converged-OPLS-2005>
0

> <r_mmod_RMS_Derivative-OPLS-2005>
2.32347059249878

$$$$
42
                    3D
 Structure written by MMmdl.
161170  0  0  1  0            999 V2000
  -30.6763  -14.5273   20.5447 C   0  0  0  0  0  0
  -30.4122  -12.3187   19.4628 C   0  0  0  0  0  0
  -29.5051  -12.5071   18.2308 C   0  0  0  0  0  0
  -28.0219  -12.3726   18.6196 C   0  0  0  0  0  0
  -27.6528  -13.2175   19.8700 C   0  0  2  0  0  0
  -28.6833  -13.0398   21.0067 C   0  0  0  0  0  0
  -25.2540  -13.8204   20.5673 C   0  0  0  0  0  0
  -24.1782  -13.0467   20.9189 C   0  0  0  0  0  0
  -24.6337  -11.6947   20.8708 C   0  0  0  0  0  0
  -23.9021  -10.4322   21.0393 C   0  0  0  0  0  0
  -24.3610   -9.4246   21.9152 C   0  0  0  0  0  0
  -23.6303   -8.2267   22.0709 C   0  0  0  0  0  0
  -22.4279   -8.0292   21.3529 C   0  0  0  0  0  0
  -21.9916   -9.0239   20.4615 C   0  0  0  0  0  0
  -22.7228  -10.2128   20.3020 C   0  0  0  0  0  0
  -21.6857   -6.0743   22.5263 C   0  0  0  0  0  0
  -21.4025   -6.5639   23.8220 C   0  0  0  0  0  0
  -21.3681   -5.6790   24.9182 C   0  0  0  0  0  0
  -21.6059   -4.3052   24.7214 C   0  0  0  0  0  0
  -21.8839   -3.8163   23.4328 C   0  0  0  0  0  0
  -21.9202   -4.6974   22.3404 C   0  0  0  0  0  0
  -22.7823  -13.5253   21.1915 C   0  0  0  0  0  0
  -22.1668   -4.2173   21.0969 F   0  0  0  0  0  0
  -21.5633   -3.4521   25.7714 F   0  0  0  0  0  0
  -30.0181  -13.3335   20.4583 N   0  0  0  0  0  0
  -26.2948  -12.9363   20.3317 N   0  0  0  0  0  0
  -25.9248  -11.6514   20.5705 N   0  0  0  0  0  0
  -22.0486  -12.8157   22.0452 N   0  0  0  0  0  0
  -25.4302  -15.1913   20.4110 N   0  0  0  0  0  0
  -31.8162  -14.6878   20.1028 O   0  0  0  0  0  0
  -21.6663   -6.8874   21.4216 O   0  0  0  0  0  0
  -22.3503  -14.5589   20.6829 O   0  0  0  0  0  0
  -24.6179  -31.8656   23.1984 C   0  0  0  0  0  0
  -25.9063  -32.4821   23.8303 C   0  0  1  0  0  0
  -27.2418  -27.3969   20.1363 C   0  0  0  0  0  0
  -25.5907  -33.8606   24.2238 N   0  0  0  0  0  0
  -23.4051  -30.4843   21.5348 C   0  0  2  0  0  0
  -24.8582  -28.9392   20.1063 C   0  0  0  0  0  0
  -22.7411  -29.4670   22.4895 C   0  0  0  0  0  0
  -18.0286  -28.1453   22.8491 C   0  0  0  0  0  0
  -24.1493  -36.7313   23.2635 C   0  0  0  0  0  0
  -25.9289  -30.8338   21.3406 C   0  0  0  0  0  0
  -26.0112  -29.4546   20.7074 C   0  0  0  0  0  0
  -27.2018  -28.6916   20.7152 C   0  0  0  0  0  0
  -26.0729  -26.8977   19.5250 C   0  0  0  0  0  0
  -24.8862  -27.6646   19.5084 C   0  0  0  0  0  0
  -23.6163  -29.8075   20.1497 C   0  0  0  0  0  0
  -25.4111  -36.3082   24.0320 C   0  0  1  0  0  0
  -20.5883  -28.3716   23.1321 C   0  0  2  0  0  0
  -20.6795  -26.9449   22.5430 C   0  0  0  0  0  0
  -19.5779  -26.6428   21.5234 C   0  0  0  0  0  0
  -18.1939  -26.7993   22.1609 C   0  0  0  0  0  0
  -19.1540  -28.8899   23.2916 C   0  0  0  0  0  0
  -18.9471  -30.1499   23.8935 C   0  0  0  0  0  0
  -17.6478  -30.6637   24.0600 C   0  0  0  0  0  0
  -25.9062  -34.9466   23.5067 C   0  0  0  0  0  0
  -16.5366  -29.9144   23.6354 C   0  0  0  0  0  0
  -16.7270  -28.6575   23.0344 C   0  0  0  0  0  0
  -26.4485  -31.6612   25.0629 C   0  0  0  0  0  0
  -25.3719  -31.3727   26.1342 C   0  0  0  0  0  0
  -27.0276  -30.3043   24.5973 C   0  0  0  0  0  0
  -27.6056  -32.4326   25.7419 C   0  0  0  0  0  0
  -27.5571  -37.1812   24.8464 C   0  0  0  0  0  0
  -21.4132  -29.3031   22.3663 N   0  0  0  0  0  0
  -26.4290  -37.3769   23.9404 N   0  0  0  0  0  0
  -24.6685  -31.0763   22.0846 N   0  0  0  0  0  0
  -23.4189  -28.8256   23.2982 O   0  0  0  0  0  0
  -28.4358  -26.6969   20.2000 O   0  0  0  0  0  0
  -26.5620  -34.8933   22.4626 O   0  0  0  0  0  0
  -23.5370  -32.1391   23.7388 O   0  0  0  0  0  0
  -30.9768  -22.1705   22.3140 C   0  0  0  0  0  0
  -30.6439  -20.8522   21.9340 C   0  0  0  0  0  0
  -28.6730  -21.6913   20.7858 C   0  0  0  0  0  0
  -28.9851  -23.0223   21.1801 C   0  0  0  0  0  0
  -30.1208  -23.2449   21.9960 C   0  0  0  0  0  0
  -29.4741  -20.5845   21.1896 C   0  0  0  0  0  0
  -27.8350  -24.7954   22.3549 C   0  0  0  0  0  0
  -29.1631  -25.2950   22.9776 C   0  0  0  0  0  0
  -28.0433  -24.2235   20.9426 C   0  0  1  0  0  0
  -28.5625  -25.2860   19.8945 C   0  0  0  0  0  0
  -29.4356  -18.0368   21.5540 C   0  0  0  0  0  0
  -30.2706  -17.0152   20.7099 C   0  0  0  0  0  0
  -30.3399  -24.5141   22.5555 N   0  0  0  0  0  0
  -29.0902  -19.2716   20.8175 N   0  0  0  0  0  0
  -29.9429  -15.5888   20.9618 N   0  0  0  0  0  0
  -31.4637  -12.3934   19.1770 H   0  0  0  0  0  0
  -30.2824  -11.3161   19.8738 H   0  0  0  0  0  0
  -29.7553  -11.7748   17.4640 H   0  0  0  0  0  0
  -29.6856  -13.4862   17.7881 H   0  0  0  0  0  0
  -27.8205  -11.3161   18.8021 H   0  0  0  0  0  0
  -27.3896  -12.6637   17.7797 H   0  0  0  0  0  0
  -27.6874  -14.2627   19.5625 H   0  0  0  0  0  0
  -28.6469  -12.0233   21.3993 H   0  0  0  0  0  0
  -28.4331  -13.6885   21.8476 H   0  0  0  0  0  0
  -25.2747   -9.5763   22.4719 H   0  0  0  0  0  0
  -24.0062   -7.4668   22.7381 H   0  0  0  0  0  0
  -21.0885   -8.8753   19.8865 H   0  0  0  0  0  0
  -22.3699  -10.9657   19.6136 H   0  0  0  0  0  0
  -21.1998   -7.6140   23.9742 H   0  0  0  0  0  0
  -21.1491   -6.0488   25.9084 H   0  0  0  0  0  0
  -22.0586   -2.7602   23.2822 H   0  0  0  0  0  0
  -22.4126  -11.9779   22.4753 H   0  0  0  0  0  0
  -21.1076  -13.1106   22.2667 H   0  0  0  0  0  0
  -24.6721  -15.8579   20.5169 H   0  0  0  0  0  0
  -26.2943  -15.6247   20.1058 H   0  0  0  0  0  0
  -26.7127  -32.5538   23.1063 H   0  0  0  0  0  0
  -25.0022  -33.9775   25.0351 H   0  0  0  0  0  0
  -22.6935  -31.2999   21.3870 H   0  0  0  0  0  0
  -23.3739  -35.9673   23.3308 H   0  0  0  0  0  0
  -24.3568  -36.8934   22.2056 H   0  0  0  0  0  0
  -23.7316  -37.6539   23.6650 H   0  0  0  0  0  0
  -26.0132  -31.5847   20.5523 H   0  0  0  0  0  0
  -26.8281  -30.9229   21.9374 H   0  0  0  0  0  0
  -28.0905  -29.0847   21.1863 H   0  0  0  0  0  0
  -26.0647  -25.9179   19.0720 H   0  0  0  0  0  0
  -23.9978  -27.2626   19.0413 H   0  0  0  0  0  0
  -23.7200  -30.5791   19.3846 H   0  0  0  0  0  0
  -22.7425  -29.2250   19.8577 H   0  0  0  0  0  0
  -25.1310  -36.1899   25.0826 H   0  0  0  0  0  0
  -21.0014  -28.3318   24.1434 H   0  0  0  0  0  0
  -20.5789  -26.2296   23.3597 H   0  0  0  0  0  0
  -21.6647  -26.7566   22.1167 H   0  0  0  0  0  0
  -19.6951  -25.6347   21.1257 H   0  0  0  0  0  0
  -19.6749  -27.3250   20.6776 H   0  0  0  0  0  0
  -17.4217  -26.6775   21.3992 H   0  0  0  0  0  0
  -18.0317  -26.0164   22.9029 H   0  0  0  0  0  0
  -19.7948  -30.7316   24.2296 H   0  0  0  0  0  0
  -17.5033  -31.6311   24.5201 H   0  0  0  0  0  0
  -15.5375  -30.3062   23.7669 H   0  0  0  0  0  0
  -15.8666  -28.0924   22.7018 H   0  0  0  0  0  0
  -24.5955  -30.7007   25.7651 H   0  0  0  0  0  0
  -24.8814  -32.2880   26.4691 H   0  0  0  0  0  0
  -25.8051  -30.8967   27.0145 H   0  0  0  0  0  0
  -26.2750  -29.6832   24.1083 H   0  0  0  0  0  0
  -27.4101  -29.7283   25.4417 H   0  0  0  0  0  0
  -27.8567  -30.4339   23.9002 H   0  0  0  0  0  0
  -27.2680  -33.3665   26.1930 H   0  0  0  0  0  0
  -28.3910  -32.6850   25.0278 H   0  0  0  0  0  0
  -28.0642  -31.8462   26.5399 H   0  0  0  0  0  0
  -28.2592  -38.0104   24.7477 H   0  0  0  0  0  0
  -28.1051  -36.2630   24.6296 H   0  0  0  0  0  0
  -27.2271  -37.1485   25.8864 H   0  0  0  0  0  0
  -20.9276  -29.8618   21.6786 H   0  0  0  0  0  0
  -26.0161  -38.2827   24.1422 H   0  0  0  0  0  0
  -31.8724  -22.3359   22.8943 H   0  0  0  0  0  0
  -31.2969  -20.0520   22.2427 H   0  0  0  0  0  0
  -27.7704  -21.5050   20.2261 H   0  0  0  0  0  0
  -27.0657  -25.5673   22.3559 H   0  0  0  0  0  0
  -27.4410  -23.9877   22.9807 H   0  0  0  0  0  0
  -29.1045  -25.2832   24.0710 H   0  0  0  0  0  0
  -29.3126  -26.3434   22.7100 H   0  0  0  0  0  0
  -27.0849  -23.8469   20.5813 H   0  0  0  0  0  0
  -28.2091  -25.0677   18.8875 H   0  0  0  0  0  0
  -29.6437  -25.1652   19.8232 H   0  0  0  0  0  0
  -28.4806  -17.5807   21.8237 H   0  0  0  0  0  0
  -29.9176  -18.2369   22.5148 H   0  0  0  0  0  0
  -31.3377  -17.1953   20.8651 H   0  0  0  0  0  0
  -30.1001  -17.1992   19.6458 H   0  0  0  0  0  0
  -31.2162  -24.6878   23.0451 H   0  0  0  0  0  0
  -28.2354  -19.2012   20.2707 H   0  0  0  0  0  0
  -29.0099  -15.3876   21.2837 H   0  0  0  0  0  0
  1 25  1  0  0  0
  1 30  2  0  0  0
  1 85  1  0  0  0
  2  3  1  0  0  0
  2 25  1  0  0  0
  2 86  1  0  0  0
  2 87  1  0  0  0
  3  4  1  0  0  0
  3 88  1  0  0  0
  3 89  1  0  0  0
  4  5  1  0  0  0
  4 90  1  0  0  0
  4 91  1  0  0  0
  5  6  1  0  0  0
  5 26  1  0  0  0
  5 92  1  0  0  0
  6 25  1  0  0  0
  6 93  1  0  0  0
  6 94  1  0  0  0
  7  8  2  0  0  0
  7 26  1  0  0  0
  7 29  1  0  0  0
  8  9  1  0  0  0
  8 22  1  0  0  0
  9 10  1  0  0  0
  9 27  2  0  0  0
 10 11  2  0  0  0
 10 15  1  0  0  0
 11 12  1  0  0  0
 11 95  1  0  0  0
 12 13  2  0  0  0
 12 96  1  0  0  0
 13 14  1  0  0  0
 13 31  1  0  0  0
 14 15  2  0  0  0
 14 97  1  0  0  0
 15 98  1  0  0  0
 16 17  2  0  0  0
 16 21  1  0  0  0
 16 31  1  0  0  0
 17 18  1  0  0  0
 17 99  1  0  0  0
 18 19  2  0  0  0
 18100  1  0  0  0
 19 20  1  0  0  0
 19 24  1  0  0  0
 20 21  2  0  0  0
 20101  1  0  0  0
 21 23  1  0  0  0
 22 28  1  0  0  0
 22 32  2  0  0  0
 26 27  1  0  0  0
 28102  1  0  0  0
 28103  1  0  0  0
 29104  1  0  0  0
 29105  1  0  0  0
 33 34  1  0  0  0
 33 66  1  0  0  0
 33 70  2  0  0  0
 34 36  1  0  0  0
 34 59  1  0  0  0
 34106  1  0  0  0
 35 44  2  0  0  0
 35 45  1  0  0  0
 35 68  1  0  0  0
 36 56  1  0  0  0
 36107  1  0  0  0
 37 39  1  0  0  0
 37 47  1  0  0  0
 37 66  1  0  0  0
 37108  1  0  0  0
 38 43  2  0  0  0
 38 46  1  0  0  0
 38 47  1  0  0  0
 39 64  1  0  0  0
 39 67  2  0  0  0
 40 52  1  0  0  0
 40 53  2  0  0  0
 40 58  1  0  0  0
 41109  1  0  0  0
 41110  1  0  0  0
 41111  1  0  0  0
 41 48  1  0  0  0
 42 43  1  0  0  0
 42 66  1  0  0  0
 42112  1  0  0  0
 42113  1  0  0  0
 43 44  1  0  0  0
 44114  1  0  0  0
 45 46  2  0  0  0
 45115  1  0  0  0
 46116  1  0  0  0
 47117  1  0  0  0
 47118  1  0  0  0
 48 56  1  0  0  0
 48 65  1  0  0  0
 48119  1  0  0  0
 49 50  1  0  0  0
 49 53  1  0  0  0
 49 64  1  0  0  0
 49120  1  0  0  0
 50 51  1  0  0  0
 50121  1  0  0  0
 50122  1  0  0  0
 51 52  1  0  0  0
 51123  1  0  0  0
 51124  1  0  0  0
 52125  1  0  0  0
 52126  1  0  0  0
 53 54  1  0  0  0
 54 55  2  0  0  0
 54127  1  0  0  0
 55 57  1  0  0  0
 55128  1  0  0  0
 56 69  2  0  0  0
 57 58  2  0  0  0
 57129  1  0  0  0
 58130  1  0  0  0
 59 60  1  0  0  0
 59 61  1  0  0  0
 59 62  1  0  0  0
 60131  1  0  0  0
 60132  1  0  0  0
 60133  1  0  0  0
 61134  1  0  0  0
 61135  1  0  0  0
 61136  1  0  0  0
 62137  1  0  0  0
 62138  1  0  0  0
 62139  1  0  0  0
 63 65  1  0  0  0
 63140  1  0  0  0
 63141  1  0  0  0
 63142  1  0  0  0
 64143  1  0  0  0
 65144  1  0  0  0
 68 80  1  0  0  0
 71 72  2  0  0  0
 71 75  1  0  0  0
 71145  1  0  0  0
 72 76  1  0  0  0
 72146  1  0  0  0
 73 74  1  0  0  0
 73 76  2  0  0  0
 73147  1  0  0  0
 74 75  2  0  0  0
 74 79  1  0  0  0
 75 83  1  0  0  0
 76 84  1  0  0  0
 77 78  1  0  0  0
 77 79  1  0  0  0
 77148  1  0  0  0
 77149  1  0  0  0
 78 83  1  0  0  0
 78150  1  0  0  0
 78151  1  0  0  0
 79 80  1  0  0  0
 79152  1  0  0  0
 80153  1  0  0  0
 80154  1  0  0  0
 81 82  1  0  0  0
 81 84  1  0  0  0
 81155  1  0  0  0
 81156  1  0  0  0
 82 85  1  0  0  0
 82157  1  0  0  0
 82158  1  0  0  0
 83159  1  0  0  0
 84160  1  0  0  0
 85161  1  0  0  0
M  ISO  4   1 100  68 101  80 101  85 100
M  END
> <chiral flag>
0

> <version>
0

> <s_m_source_file>
/data/baiqing/PycharmProjects/Reinvent-master-3.2/result/LINK_invent/BTK/process_docking_weight1_custom_sum_contain_oxygen_bond_distance_aromatic_linkinvent_7_9_3/rearranged_h_0128.sdf

> <i_m_source_file_index>
43

> <r_mmod_Potential_Energy-OPLS-2005>
-112.56241607666

> <r_mmod_Stretch_Energy-OPLS-2005>
51.3577690124512

> <r_mmod_Bend_Energy-OPLS-2005>
146.525009155273

> <r_mmod_Torsional_Energy-OPLS-2005>
231.465927124023

> <r_mmod_Improper_Torsional_Energy-OPLS-2005>
9.44294738769531

> <r_mmod_Van_der_Waal_Energy-OPLS-2005>
152.64436340332

> <r_mmod_Electrostatic_Energy-OPLS-2005>
-484.37255859375

> <r_mmod_Solvation_Energy-OPLS-2005>
-241.542175292969

> <b_mmod_Minimization_Converged-OPLS-2005>
0

> <r_mmod_RMS_Derivative-OPLS-2005>
6.50751638412476

$$$$
43
                    3D
 Structure written by MMmdl.
158166  0  0  1  0            999 V2000
  -30.6217  -14.7052   20.4762 C   0  0  0  0  0  0
  -30.4327  -12.4323   19.4684 C   0  0  0  0  0  0
  -29.5092  -12.5048   18.2330 C   0  0  0  0  0  0
  -28.0331  -12.3341   18.6448 C   0  0  0  0  0  0
  -27.6431  -13.2269   19.8528 C   0  0  2  0  0  0
  -28.6868  -13.1411   20.9875 C   0  0  0  0  0  0
  -25.2494  -13.8185   20.5651 C   0  0  0  0  0  0
  -24.1799  -13.0443   20.9222 C   0  0  0  0  0  0
  -24.6389  -11.6923   20.8771 C   0  0  0  0  0  0
  -23.9069  -10.4298   21.0417 C   0  0  0  0  0  0
  -24.3619   -9.4205   21.9189 C   0  0  0  0  0  0
  -23.6289   -8.2240   22.0754 C   0  0  0  0  0  0
  -22.4270   -8.0277   21.3545 C   0  0  0  0  0  0
  -21.9912   -9.0256   20.4647 C   0  0  0  0  0  0
  -22.7242  -10.2137   20.3059 C   0  0  0  0  0  0
  -21.6854   -6.0725   22.5277 C   0  0  0  0  0  0
  -21.4021   -6.5629   23.8209 C   0  0  0  0  0  0
  -21.3667   -5.6783   24.9169 C   0  0  0  0  0  0
  -21.6048   -4.3046   24.7229 C   0  0  0  0  0  0
  -21.8815   -3.8137   23.4349 C   0  0  0  0  0  0
  -21.9191   -4.6952   22.3401 C   0  0  0  0  0  0
  -22.7813  -13.5218   21.1862 C   0  0  0  0  0  0
  -22.1655   -4.2134   21.0979 F   0  0  0  0  0  0
  -21.5635   -3.4531   25.7744 F   0  0  0  0  0  0
  -29.9917  -13.4861   20.4079 N   0  0  0  0  0  0
  -26.2934  -12.9392   20.3267 N   0  0  0  0  0  0
  -25.9322  -11.6545   20.5773 N   0  0  0  0  0  0
  -22.0450  -12.8229   22.0431 N   0  0  0  0  0  0
  -25.4152  -15.1880   20.3917 N   0  0  0  0  0  0
  -31.8075  -14.8110   20.1508 O   0  0  0  0  0  0
  -21.6644   -6.8872   21.4237 O   0  0  0  0  0  0
  -22.3506  -14.5509   20.6678 O   0  0  0  0  0  0
  -24.6282  -31.8567   23.1996 C   0  0  0  0  0  0
  -25.9117  -32.4769   23.8334 C   0  0  1  0  0  0
  -27.2226  -27.2877   20.1347 C   0  0  0  0  0  0
  -25.5924  -33.8570   24.2263 N   0  0  0  0  0  0
  -23.4244  -30.4781   21.5423 C   0  0  2  0  0  0
  -24.8727  -28.9257   20.1130 C   0  0  0  0  0  0
  -22.7491  -29.4603   22.4929 C   0  0  0  0  0  0
  -18.0286  -28.1389   22.8487 C   0  0  0  0  0  0
  -24.1487  -36.7290   23.2640 C   0  0  0  0  0  0
  -25.9668  -30.7785   21.3754 C   0  0  0  0  0  0
  -26.0418  -29.4022   20.7202 C   0  0  0  0  0  0
  -27.2221  -28.5960   20.7172 C   0  0  0  0  0  0
  -26.0350  -26.8712   19.4964 C   0  0  0  0  0  0
  -24.8724  -27.6674   19.4899 C   0  0  0  0  0  0
  -23.6422  -29.8099   20.1591 C   0  0  0  0  0  0
  -25.4114  -36.3078   24.0326 C   0  0  1  0  0  0
  -20.5889  -28.3692   23.1284 C   0  0  2  0  0  0
  -20.6778  -26.9414   22.5416 C   0  0  0  0  0  0
  -19.5754  -26.6382   21.5218 C   0  0  0  0  0  0
  -18.1931  -26.7931   22.1626 C   0  0  0  0  0  0
  -19.1541  -28.8857   23.2879 C   0  0  0  0  0  0
  -18.9461  -30.1459   23.8896 C   0  0  0  0  0  0
  -17.6463  -30.6590   24.0563 C   0  0  0  0  0  0
  -25.9054  -34.9448   23.5098 C   0  0  0  0  0  0
  -16.5352  -29.9087   23.6334 C   0  0  0  0  0  0
  -16.7274  -28.6506   23.0352 C   0  0  0  0  0  0
  -26.4495  -31.6588   25.0716 C   0  0  0  0  0  0
  -25.3726  -31.3735   26.1446 C   0  0  0  0  0  0
  -27.0349  -30.3011   24.6188 C   0  0  0  0  0  0
  -27.6049  -32.4330   25.7489 C   0  0  0  0  0  0
  -27.5580  -37.1797   24.8462 C   0  0  0  0  0  0
  -21.4200  -29.3037   22.3675 N   0  0  0  0  0  0
  -26.4290  -37.3776   23.9410 N   0  0  0  0  0  0
  -24.6920  -31.0548   22.0962 N   0  0  0  0  0  0
  -23.4199  -28.8147   23.3023 O   0  0  0  0  0  0
  -28.3295  -26.4180   20.1623 O   0  0  0  0  0  0
  -26.5625  -34.8918   22.4667 O   0  0  0  0  0  0
  -23.5439  -32.1380   23.7309 O   0  0  0  0  0  0
  -28.8638  -23.0505   21.8872 C   0  0  0  0  0  0
  -28.8148  -24.6016   21.8461 C   0  0  0  0  0  0
  -28.5842  -23.7809   19.5917 C   0  0  0  0  0  0
  -29.2248  -22.5993   20.4592 C   0  0  2  0  0  0
  -28.1199  -24.9803   20.5277 C   0  0  2  0  0  0
  -30.3091  -17.2840   20.8008 C   0  0  0  0  0  0
  -29.6927  -19.9957   20.7353 C   0  0  0  0  0  0
  -29.3334  -18.4724   20.3095 C   0  0  2  0  0  0
  -27.9983  -18.1433   20.7826 N   0  0  0  0  0  0
  -29.8583  -15.8294   20.7217 N   0  0  0  0  0  0
  -28.8802  -21.1392   20.1205 N   0  3  0  0  0  0
  -31.4745  -12.5526   19.1664 H   0  0  0  0  0  0
  -30.3717  -11.4521   19.9449 H   0  0  0  0  0  0
  -29.7886  -11.7376   17.5100 H   0  0  0  0  0  0
  -29.6412  -13.4658   17.7321 H   0  0  0  0  0  0
  -27.8828  -11.2848   18.9008 H   0  0  0  0  0  0
  -27.3771  -12.5373   17.7975 H   0  0  0  0  0  0
  -27.6451  -14.2520   19.4826 H   0  0  0  0  0  0
  -28.7152  -12.1368   21.4130 H   0  0  0  0  0  0
  -28.4263  -13.8123   21.8072 H   0  0  0  0  0  0
  -25.2763   -9.5679   22.4766 H   0  0  0  0  0  0
  -23.9996   -7.4632   22.7480 H   0  0  0  0  0  0
  -21.0837   -8.8784   19.8954 H   0  0  0  0  0  0
  -22.3702  -10.9680   19.6171 H   0  0  0  0  0  0
  -21.2016   -7.6136   23.9708 H   0  0  0  0  0  0
  -21.1496   -6.0513   25.9074 H   0  0  0  0  0  0
  -22.0588   -2.7598   23.2853 H   0  0  0  0  0  0
  -22.4078  -11.9911   22.4849 H   0  0  0  0  0  0
  -21.1064  -13.1260   22.2625 H   0  0  0  0  0  0
  -24.6298  -15.8264   20.4594 H   0  0  0  0  0  0
  -26.2126  -15.5941   19.9233 H   0  0  0  0  0  0
  -26.7183  -32.5427   23.1078 H   0  0  0  0  0  0
  -25.0069  -33.9706   25.0406 H   0  0  0  0  0  0
  -22.7192  -31.2993   21.3971 H   0  0  0  0  0  0
  -23.3753  -35.9619   23.3295 H   0  0  0  0  0  0
  -24.3578  -36.8923   22.2056 H   0  0  0  0  0  0
  -23.7237  -37.6486   23.6670 H   0  0  0  0  0  0
  -26.0992  -31.5383   20.6040 H   0  0  0  0  0  0
  -26.8468  -30.8302   22.0048 H   0  0  0  0  0  0
  -28.1198  -28.9560   21.2001 H   0  0  0  0  0  0
  -25.9964  -25.9082   19.0072 H   0  0  0  0  0  0
  -23.9783  -27.2990   19.0061 H   0  0  0  0  0  0
  -23.7654  -30.5853   19.4023 H   0  0  0  0  0  0
  -22.7619  -29.2415   19.8548 H   0  0  0  0  0  0
  -25.1295  -36.1924   25.0818 H   0  0  0  0  0  0
  -20.9974  -28.3264   24.1406 H   0  0  0  0  0  0
  -20.5683  -26.2296   23.3612 H   0  0  0  0  0  0
  -21.6643  -26.7444   22.1205 H   0  0  0  0  0  0
  -19.6912  -25.6291   21.1249 H   0  0  0  0  0  0
  -19.6692  -27.3191   20.6746 H   0  0  0  0  0  0
  -17.4201  -26.6678   21.4027 H   0  0  0  0  0  0
  -18.0327  -26.0074   22.9021 H   0  0  0  0  0  0
  -19.7936  -30.7277   24.2261 H   0  0  0  0  0  0
  -17.5015  -31.6270   24.5166 H   0  0  0  0  0  0
  -15.5353  -30.2989   23.7662 H   0  0  0  0  0  0
  -15.8672  -28.0827   22.7068 H   0  0  0  0  0  0
  -24.5881  -30.7112   25.7768 H   0  0  0  0  0  0
  -24.8946  -32.2910   26.4885 H   0  0  0  0  0  0
  -25.8043  -30.8889   27.0214 H   0  0  0  0  0  0
  -26.2934  -29.6754   24.1210 H   0  0  0  0  0  0
  -27.4044  -29.7272   25.4696 H   0  0  0  0  0  0
  -27.8799  -30.4295   23.9422 H   0  0  0  0  0  0
  -27.2649  -33.3621   26.2077 H   0  0  0  0  0  0
  -28.3853  -32.6914   25.0319 H   0  0  0  0  0  0
  -28.0731  -31.8460   26.5400 H   0  0  0  0  0  0
  -28.2589  -38.0103   24.7523 H   0  0  0  0  0  0
  -28.1085  -36.2635   24.6269 H   0  0  0  0  0  0
  -27.2301  -37.1425   25.8865 H   0  0  0  0  0  0
  -20.9383  -29.8756   21.6881 H   0  0  0  0  0  0
  -26.0168  -38.2847   24.1423 H   0  0  0  0  0  0
  -27.8817  -22.6651   22.1642 H   0  0  0  0  0  0
  -29.5803  -22.6858   22.6241 H   0  0  0  0  0  0
  -29.8315  -24.9987   21.8510 H   0  0  0  0  0  0
  -28.3001  -25.0187   22.7125 H   0  0  0  0  0  0
  -27.7347  -23.4213   19.0105 H   0  0  0  0  0  0
  -29.3195  -24.1388   18.8697 H   0  0  0  0  0  0
  -30.3074  -22.6917   20.3532 H   0  0  0  0  0  0
  -27.0580  -24.8166   20.7176 H   0  0  0  0  0  0
  -30.5675  -17.4646   21.8456 H   0  0  0  0  0  0
  -31.2517  -17.3846   20.2610 H   0  0  0  0  0  0
  -30.7391  -20.1741   20.4842 H   0  0  0  0  0  0
  -29.6378  -20.0859   21.8210 H   0  0  0  0  0  0
  -29.3077  -18.4278   19.2190 H   0  0  0  0  0  0
  -27.3042  -18.6759   20.2694 H   0  0  0  0  0  0
  -27.7932  -17.1883   20.5216 H   0  0  0  0  0  0
  -28.8952  -15.6518   20.9590 H   0  0  0  0  0  0
  -28.9700  -21.0371   19.1220 H   0  0  0  0  0  0
  -27.9130  -20.9775   20.3448 H   0  0  0  0  0  0
  1 25  1  0  0  0
  1 30  2  0  0  0
  1 80  1  0  0  0
  2  3  1  0  0  0
  2 25  1  0  0  0
  2 82  1  0  0  0
  2 83  1  0  0  0
  3  4  1  0  0  0
  3 84  1  0  0  0
  3 85  1  0  0  0
  4  5  1  0  0  0
  4 86  1  0  0  0
  4 87  1  0  0  0
  5  6  1  0  0  0
  5 26  1  0  0  0
  5 88  1  0  0  0
  6 25  1  0  0  0
  6 89  1  0  0  0
  6 90  1  0  0  0
  7  8  2  0  0  0
  7 26  1  0  0  0
  7 29  1  0  0  0
  8  9  1  0  0  0
  8 22  1  0  0  0
  9 10  1  0  0  0
  9 27  2  0  0  0
 10 11  2  0  0  0
 10 15  1  0  0  0
 11 12  1  0  0  0
 11 91  1  0  0  0
 12 13  2  0  0  0
 12 92  1  0  0  0
 13 14  1  0  0  0
 13 31  1  0  0  0
 14 15  2  0  0  0
 14 93  1  0  0  0
 15 94  1  0  0  0
 16 17  2  0  0  0
 16 21  1  0  0  0
 16 31  1  0  0  0
 17 18  1  0  0  0
 17 95  1  0  0  0
 18 19  2  0  0  0
 18 96  1  0  0  0
 19 20  1  0  0  0
 19 24  1  0  0  0
 20 21  2  0  0  0
 20 97  1  0  0  0
 21 23  1  0  0  0
 22 28  1  0  0  0
 22 32  2  0  0  0
 26 27  1  0  0  0
 28 98  1  0  0  0
 28 99  1  0  0  0
 29100  1  0  0  0
 29101  1  0  0  0
 33 34  1  0  0  0
 33 66  1  0  0  0
 33 70  2  0  0  0
 34 36  1  0  0  0
 34 59  1  0  0  0
 34102  1  0  0  0
 35 44  2  0  0  0
 35 45  1  0  0  0
 35 68  1  0  0  0
 36 56  1  0  0  0
 36103  1  0  0  0
 37 39  1  0  0  0
 37 47  1  0  0  0
 37 66  1  0  0  0
 37104  1  0  0  0
 38 43  2  0  0  0
 38 46  1  0  0  0
 38 47  1  0  0  0
 39 64  1  0  0  0
 39 67  2  0  0  0
 40 52  1  0  0  0
 40 53  2  0  0  0
 40 58  1  0  0  0
 41105  1  0  0  0
 41106  1  0  0  0
 41107  1  0  0  0
 41 48  1  0  0  0
 42 43  1  0  0  0
 42 66  1  0  0  0
 42108  1  0  0  0
 42109  1  0  0  0
 43 44  1  0  0  0
 44110  1  0  0  0
 45 46  2  0  0  0
 45111  1  0  0  0
 46112  1  0  0  0
 47113  1  0  0  0
 47114  1  0  0  0
 48 56  1  0  0  0
 48 65  1  0  0  0
 48115  1  0  0  0
 49 50  1  0  0  0
 49 53  1  0  0  0
 49 64  1  0  0  0
 49116  1  0  0  0
 50 51  1  0  0  0
 50117  1  0  0  0
 50118  1  0  0  0
 51 52  1  0  0  0
 51119  1  0  0  0
 51120  1  0  0  0
 52121  1  0  0  0
 52122  1  0  0  0
 53 54  1  0  0  0
 54 55  2  0  0  0
 54123  1  0  0  0
 55 57  1  0  0  0
 55124  1  0  0  0
 56 69  2  0  0  0
 57 58  2  0  0  0
 57125  1  0  0  0
 58126  1  0  0  0
 59 60  1  0  0  0
 59 61  1  0  0  0
 59 62  1  0  0  0
 60127  1  0  0  0
 60128  1  0  0  0
 60129  1  0  0  0
 61130  1  0  0  0
 61131  1  0  0  0
 61132  1  0  0  0
 62133  1  0  0  0
 62134  1  0  0  0
 62135  1  0  0  0
 63 65  1  0  0  0
 63136  1  0  0  0
 63137  1  0  0  0
 63138  1  0  0  0
 64139  1  0  0  0
 65140  1  0  0  0
 68 75  1  0  0  0
 71 72  1  0  0  0
 71 74  1  0  0  0
 71141  1  0  0  0
 71142  1  0  0  0
 72 75  1  0  0  0
 72143  1  0  0  0
 72144  1  0  0  0
 73 74  1  0  0  0
 73 75  1  0  0  0
 73145  1  0  0  0
 73146  1  0  0  0
 74 81  1  0  0  0
 74147  1  0  0  0
 75148  1  0  0  0
 76 78  1  0  0  0
 76 80  1  0  0  0
 76149  1  0  0  0
 76150  1  0  0  0
 77 78  1  0  0  0
 77 81  1  0  0  0
 77151  1  0  0  0
 77152  1  0  0  0
 78 79  1  0  0  0
 78153  1  0  0  0
 79154  1  0  0  0
 79155  1  0  0  0
 80156  1  0  0  0
 81157  1  0  0  0
 81158  1  0  0  0
M  CHG  1  81   1
M  ISO  4   1 100  68 101  75 101  80 100
M  END
> <chiral flag>
0

> <version>
0

> <s_m_source_file>
/data/baiqing/PycharmProjects/Reinvent-master-3.2/result/LINK_invent/BTK/process_docking_weight1_custom_sum_contain_oxygen_bond_distance_aromatic_linkinvent_7_9_3/rearranged_h_0128.sdf

> <i_m_source_file_index>
44

> <r_mmod_Potential_Energy-OPLS-2005>
-86.354850769043

> <r_mmod_Stretch_Energy-OPLS-2005>
103.454292297363

> <r_mmod_Bend_Energy-OPLS-2005>
175.352783203125

> <r_mmod_Torsional_Energy-OPLS-2005>
285.030731201172

> <r_mmod_Improper_Torsional_Energy-OPLS-2005>
5.06695365905762

> <r_mmod_Van_der_Waal_Energy-OPLS-2005>
116.280471801758

> <r_mmod_Electrostatic_Energy-OPLS-2005>
-348.248962402344

> <r_mmod_Solvation_Energy-OPLS-2005>
-492.239776611328

> <b_mmod_Minimization_Converged-OPLS-2005>
0

> <r_mmod_RMS_Derivative-OPLS-2005>
1.52325236797333

$$$$
44
                    3D
 Structure written by MMmdl.
162172  0  0  1  0            999 V2000
  -30.5796  -14.7343   20.4752 C   0  0  0  0  0  0
  -30.4431  -12.4518   19.4509 C   0  0  0  0  0  0
  -29.5017  -12.5277   18.2240 C   0  0  0  0  0  0
  -28.0268  -12.3513   18.6418 C   0  0  0  0  0  0
  -27.6488  -13.2269   19.8656 C   0  0  2  0  0  0
  -28.7018  -13.0929   20.9859 C   0  0  0  0  0  0
  -25.2530  -13.8170   20.5712 C   0  0  0  0  0  0
  -24.1801  -13.0433   20.9199 C   0  0  0  0  0  0
  -24.6392  -11.6910   20.8758 C   0  0  0  0  0  0
  -23.9068  -10.4291   21.0409 C   0  0  0  0  0  0
  -24.3622   -9.4200   21.9186 C   0  0  0  0  0  0
  -23.6292   -8.2240   22.0751 C   0  0  0  0  0  0
  -22.4272   -8.0278   21.3547 C   0  0  0  0  0  0
  -21.9914   -9.0258   20.4649 C   0  0  0  0  0  0
  -22.7248  -10.2140   20.3056 C   0  0  0  0  0  0
  -21.6848   -6.0738   22.5275 C   0  0  0  0  0  0
  -21.4015   -6.5641   23.8214 C   0  0  0  0  0  0
  -21.3657   -5.6791   24.9164 C   0  0  0  0  0  0
  -21.6035   -4.3045   24.7221 C   0  0  0  0  0  0
  -21.8818   -3.8152   23.4332 C   0  0  0  0  0  0
  -21.9198   -4.6973   22.3390 C   0  0  0  0  0  0
  -22.7824  -13.5222   21.1862 C   0  0  0  0  0  0
  -22.1661   -4.2164   21.0967 F   0  0  0  0  0  0
  -21.5636   -3.4528   25.7725 F   0  0  0  0  0  0
  -30.0043  -13.4804   20.4244 N   0  0  0  0  0  0
  -26.2973  -12.9386   20.3387 N   0  0  0  0  0  0
  -25.9332  -11.6521   20.5804 N   0  0  0  0  0  0
  -22.0470  -12.8190   22.0417 N   0  0  0  0  0  0
  -25.4211  -15.1907   20.4139 N   0  0  0  0  0  0
  -31.7441  -14.8741   20.0876 O   0  0  0  0  0  0
  -21.6635   -6.8881   21.4232 O   0  0  0  0  0  0
  -22.3513  -14.5532   20.6734 O   0  0  0  0  0  0
  -24.6246  -31.8528   23.1923 C   0  0  0  0  0  0
  -25.9068  -32.4758   23.8303 C   0  0  1  0  0  0
  -27.2301  -27.2740   20.1442 C   0  0  0  0  0  0
  -25.5898  -33.8562   24.2221 N   0  0  0  0  0  0
  -23.4242  -30.4720   21.5342 C   0  0  2  0  0  0
  -24.8774  -28.9120   20.1139 C   0  0  0  0  0  0
  -22.7500  -29.4535   22.4864 C   0  0  0  0  0  0
  -18.0299  -28.1393   22.8467 C   0  0  0  0  0  0
  -24.1492  -36.7254   23.2635 C   0  0  0  0  0  0
  -25.9673  -30.7746   21.3657 C   0  0  0  0  0  0
  -26.0464  -29.3949   20.7191 C   0  0  0  0  0  0
  -27.2264  -28.5900   20.7153 C   0  0  0  0  0  0
  -26.0335  -26.8367   19.5400 C   0  0  0  0  0  0
  -24.8747  -27.6401   19.5166 C   0  0  0  0  0  0
  -23.6464  -29.7950   20.1549 C   0  0  0  0  0  0
  -25.4108  -36.3057   24.0344 C   0  0  1  0  0  0
  -20.5899  -28.3666   23.1287 C   0  0  2  0  0  0
  -20.6779  -26.9382   22.5432 C   0  0  0  0  0  0
  -19.5794  -26.6359   21.5204 C   0  0  0  0  0  0
  -18.1946  -26.7953   22.1562 C   0  0  0  0  0  0
  -19.1559  -28.8843   23.2888 C   0  0  0  0  0  0
  -18.9489  -30.1439   23.8904 C   0  0  0  0  0  0
  -17.6490  -30.6592   24.0560 C   0  0  0  0  0  0
  -25.9031  -34.9445   23.5083 C   0  0  0  0  0  0
  -16.5371  -29.9084   23.6337 C   0  0  0  0  0  0
  -16.7275  -28.6514   23.0334 C   0  0  0  0  0  0
  -26.4431  -31.6584   25.0687 C   0  0  0  0  0  0
  -25.3644  -31.3855   26.1420 C   0  0  0  0  0  0
  -27.0198  -30.2977   24.6123 C   0  0  0  0  0  0
  -27.6026  -32.4282   25.7450 C   0  0  0  0  0  0
  -27.5609  -37.1742   24.8436 C   0  0  0  0  0  0
  -21.4194  -29.3012   22.3671 N   0  0  0  0  0  0
  -26.4262  -37.3771   23.9469 N   0  0  0  0  0  0
  -24.6920  -31.0509   22.0894 N   0  0  0  0  0  0
  -23.4234  -28.8062   23.2917 O   0  0  0  0  0  0
  -28.3575  -26.4297   20.1032 O   0  0  0  0  0  0
  -26.5590  -34.8918   22.4645 O   0  0  0  0  0  0
  -23.5390  -32.1319   23.7210 O   0  0  0  0  0  0
  -28.3894  -19.9964   23.9802 C   0  0  0  0  0  0
  -28.9361  -18.7218   24.1292 C   0  0  0  0  0  0
  -28.4426  -20.6289   22.7281 C   0  0  0  0  0  0
  -29.4651  -18.0699   23.0080 C   0  0  0  0  0  0
  -29.0468  -20.0431   21.5800 C   0  0  0  0  0  0
  -29.4990  -18.6354   21.7051 C   0  0  0  0  0  0
  -27.8456  -21.3295   19.5810 C   0  0  0  0  0  0
  -27.3728  -22.7965   19.8057 C   0  0  0  0  0  0
  -29.2079  -16.8372   19.6878 C   0  0  0  0  0  0
  -29.5684  -22.5904   20.7197 C   0  0  0  0  0  0
  -29.1531  -21.0740   20.3723 C   0  0  1  0  0  0
  -30.0600  -17.5537   20.6997 C   0  0  2  0  0  0
  -29.6992  -15.9878   20.8534 C   0  0  2  0  0  0
  -28.6197  -23.6748   20.0292 C   0  0  2  0  0  0
  -28.3353  -25.0927   20.7734 C   0  0  0  0  0  0
  -31.4772  -12.5956   19.1357 H   0  0  0  0  0  0
  -30.4065  -11.4570   19.8996 H   0  0  0  0  0  0
  -29.7703  -11.7715   17.4850 H   0  0  0  0  0  0
  -29.6216  -13.4935   17.7301 H   0  0  0  0  0  0
  -27.8696  -11.2980   18.8791 H   0  0  0  0  0  0
  -27.3645  -12.5700   17.8022 H   0  0  0  0  0  0
  -27.6599  -14.2613   19.5227 H   0  0  0  0  0  0
  -28.7419  -12.0616   21.3422 H   0  0  0  0  0  0
  -28.4411  -13.6877   21.8602 H   0  0  0  0  0  0
  -25.2762   -9.5671   22.4765 H   0  0  0  0  0  0
  -24.0000   -7.4622   22.7465 H   0  0  0  0  0  0
  -21.0851   -8.8773   19.8957 H   0  0  0  0  0  0
  -22.3698  -10.9676   19.6170 H   0  0  0  0  0  0
  -21.1994   -7.6155   23.9721 H   0  0  0  0  0  0
  -21.1481   -6.0514   25.9074 H   0  0  0  0  0  0
  -22.0605   -2.7616   23.2816 H   0  0  0  0  0  0
  -22.4088  -11.9821   22.4719 H   0  0  0  0  0  0
  -21.1110  -13.1236   22.2684 H   0  0  0  0  0  0
  -24.6525  -15.8411   20.5301 H   0  0  0  0  0  0
  -26.2816  -15.6388   20.1247 H   0  0  0  0  0  0
  -26.7139  -32.5378   23.1052 H   0  0  0  0  0  0
  -25.0138  -33.9790   25.0420 H   0  0  0  0  0  0
  -22.7172  -31.2874   21.3774 H   0  0  0  0  0  0
  -23.3806  -35.9526   23.3180 H   0  0  0  0  0  0
  -24.3599  -36.8945   22.2065 H   0  0  0  0  0  0
  -23.7159  -37.6404   23.6686 H   0  0  0  0  0  0
  -26.0868  -31.5341   20.5932 H   0  0  0  0  0  0
  -26.8542  -30.8349   21.9877 H   0  0  0  0  0  0
  -28.1273  -28.9614   21.1834 H   0  0  0  0  0  0
  -25.9926  -25.8554   19.0892 H   0  0  0  0  0  0
  -23.9744  -27.2638   19.0453 H   0  0  0  0  0  0
  -23.7682  -30.5679   19.3958 H   0  0  0  0  0  0
  -22.7691  -29.2237   19.8461 H   0  0  0  0  0  0
  -25.1267  -36.1891   25.0827 H   0  0  0  0  0  0
  -20.9986  -28.3225   24.1407 H   0  0  0  0  0  0
  -20.5618  -26.2265   23.3619 H   0  0  0  0  0  0
  -21.6651  -26.7360   22.1259 H   0  0  0  0  0  0
  -19.6985  -25.6266   21.1228 H   0  0  0  0  0  0
  -19.6827  -27.3193   20.6772 H   0  0  0  0  0  0
  -17.4251  -26.6728   21.3933 H   0  0  0  0  0  0
  -18.0305  -26.0100   22.8947 H   0  0  0  0  0  0
  -19.7980  -30.7242   24.2262 H   0  0  0  0  0  0
  -17.5064  -31.6290   24.5137 H   0  0  0  0  0  0
  -15.5374  -30.2993   23.7692 H   0  0  0  0  0  0
  -15.8667  -28.0847   22.7018 H   0  0  0  0  0  0
  -24.6034  -30.6874   25.7903 H   0  0  0  0  0  0
  -24.8559  -32.3038   26.4392 H   0  0  0  0  0  0
  -25.7980  -30.9539   27.0445 H   0  0  0  0  0  0
  -26.2757  -29.6822   24.1052 H   0  0  0  0  0  0
  -27.3793  -29.7138   25.4589 H   0  0  0  0  0  0
  -27.8664  -30.4229   23.9367 H   0  0  0  0  0  0
  -27.2765  -33.3745   26.1781 H   0  0  0  0  0  0
  -28.4000  -32.6510   25.0350 H   0  0  0  0  0  0
  -28.0462  -31.8497   26.5571 H   0  0  0  0  0  0
  -28.2477  -38.0176   24.7589 H   0  0  0  0  0  0
  -28.1219  -36.2693   24.6036 H   0  0  0  0  0  0
  -27.2360  -37.1104   25.8837 H   0  0  0  0  0  0
  -20.9327  -29.8759   21.6936 H   0  0  0  0  0  0
  -26.0119  -38.2799   24.1618 H   0  0  0  0  0  0
  -27.9512  -20.4981   24.8323 H   0  0  0  0  0  0
  -28.9306  -18.2332   25.0963 H   0  0  0  0  0  0
  -28.0183  -21.6203   22.6803 H   0  0  0  0  0  0
  -29.8562  -17.0771   23.1815 H   0  0  0  0  0  0
  -28.0668  -21.2248   18.5170 H   0  0  0  0  0  0
  -27.0641  -20.6007   19.7970 H   0  0  0  0  0  0
  -26.7396  -22.8251   20.6943 H   0  0  0  0  0  0
  -26.7649  -23.1591   18.9746 H   0  0  0  0  0  0
  -29.6512  -16.6352   18.7136 H   0  0  0  0  0  0
  -28.1464  -17.0778   19.6598 H   0  0  0  0  0  0
  -30.5989  -22.7551   20.3998 H   0  0  0  0  0  0
  -29.5951  -22.7683   21.7939 H   0  0  0  0  0  0
  -29.8919  -20.6584   19.6816 H   0  0  0  0  0  0
  -31.0806  -17.8024   20.4103 H   0  0  0  0  0  0
  -28.9292  -15.7689   21.5852 H   0  0  0  0  0  0
  -29.0560  -23.8923   19.0518 H   0  0  0  0  0  0
  -29.1200  -25.1844   21.5250 H   0  0  0  0  0  0
  -27.4235  -25.0015   21.3626 H   0  0  0  0  0  0
  1 25  1  0  0  0
  1 30  2  0  0  0
  1 83  1  0  0  0
  2  3  1  0  0  0
  2 25  1  0  0  0
  2 86  1  0  0  0
  2 87  1  0  0  0
  3  4  1  0  0  0
  3 88  1  0  0  0
  3 89  1  0  0  0
  4  5  1  0  0  0
  4 90  1  0  0  0
  4 91  1  0  0  0
  5  6  1  0  0  0
  5 26  1  0  0  0
  5 92  1  0  0  0
  6 25  1  0  0  0
  6 93  1  0  0  0
  6 94  1  0  0  0
  7  8  2  0  0  0
  7 26  1  0  0  0
  7 29  1  0  0  0
  8  9  1  0  0  0
  8 22  1  0  0  0
  9 10  1  0  0  0
  9 27  2  0  0  0
 10 11  2  0  0  0
 10 15  1  0  0  0
 11 12  1  0  0  0
 11 95  1  0  0  0
 12 13  2  0  0  0
 12 96  1  0  0  0
 13 14  1  0  0  0
 13 31  1  0  0  0
 14 15  2  0  0  0
 14 97  1  0  0  0
 15 98  1  0  0  0
 16 17  2  0  0  0
 16 21  1  0  0  0
 16 31  1  0  0  0
 17 18  1  0  0  0
 17 99  1  0  0  0
 18 19  2  0  0  0
 18100  1  0  0  0
 19 20  1  0  0  0
 19 24  1  0  0  0
 20 21  2  0  0  0
 20101  1  0  0  0
 21 23  1  0  0  0
 22 28  1  0  0  0
 22 32  2  0  0  0
 26 27  1  0  0  0
 28102  1  0  0  0
 28103  1  0  0  0
 29104  1  0  0  0
 29105  1  0  0  0
 33 34  1  0  0  0
 33 66  1  0  0  0
 33 70  2  0  0  0
 34 36  1  0  0  0
 34 59  1  0  0  0
 34106  1  0  0  0
 35 44  2  0  0  0
 35 45  1  0  0  0
 35 68  1  0  0  0
 36 56  1  0  0  0
 36107  1  0  0  0
 37 39  1  0  0  0
 37 47  1  0  0  0
 37 66  1  0  0  0
 37108  1  0  0  0
 38 43  2  0  0  0
 38 46  1  0  0  0
 38 47  1  0  0  0
 39 64  1  0  0  0
 39 67  2  0  0  0
 40 52  1  0  0  0
 40 53  2  0  0  0
 40 58  1  0  0  0
 41109  1  0  0  0
 41110  1  0  0  0
 41111  1  0  0  0
 41 48  1  0  0  0
 42 43  1  0  0  0
 42 66  1  0  0  0
 42112  1  0  0  0
 42113  1  0  0  0
 43 44  1  0  0  0
 44114  1  0  0  0
 45 46  2  0  0  0
 45115  1  0  0  0
 46116  1  0  0  0
 47117  1  0  0  0
 47118  1  0  0  0
 48 56  1  0  0  0
 48 65  1  0  0  0
 48119  1  0  0  0
 49 50  1  0  0  0
 49 53  1  0  0  0
 49 64  1  0  0  0
 49120  1  0  0  0
 50 51  1  0  0  0
 50121  1  0  0  0
 50122  1  0  0  0
 51 52  1  0  0  0
 51123  1  0  0  0
 51124  1  0  0  0
 52125  1  0  0  0
 52126  1  0  0  0
 53 54  1  0  0  0
 54 55  2  0  0  0
 54127  1  0  0  0
 55 57  1  0  0  0
 55128  1  0  0  0
 56 69  2  0  0  0
 57 58  2  0  0  0
 57129  1  0  0  0
 58130  1  0  0  0
 59 60  1  0  0  0
 59 61  1  0  0  0
 59 62  1  0  0  0
 60131  1  0  0  0
 60132  1  0  0  0
 60133  1  0  0  0
 61134  1  0  0  0
 61135  1  0  0  0
 61136  1  0  0  0
 62137  1  0  0  0
 62138  1  0  0  0
 62139  1  0  0  0
 63 65  1  0  0  0
 63140  1  0  0  0
 63141  1  0  0  0
 63142  1  0  0  0
 64143  1  0  0  0
 65144  1  0  0  0
 68 85  1  0  0  0
 71 72  2  0  0  0
 71 73  1  0  0  0
 71145  1  0  0  0
 72 74  1  0  0  0
 72146  1  0  0  0
 73 75  2  0  0  0
 73147  1  0  0  0
 74 76  2  0  0  0
 74148  1  0  0  0
 75 76  1  0  0  0
 75 81  1  0  0  0
 76 82  1  0  0  0
 77 78  1  0  0  0
 77 81  1  0  0  0
 77149  1  0  0  0
 77150  1  0  0  0
 78 84  1  0  0  0
 78151  1  0  0  0
 78152  1  0  0  0
 79 82  1  0  0  0
 79 83  1  0  0  0
 79153  1  0  0  0
 79154  1  0  0  0
 80 81  1  0  0  0
 80 84  1  0  0  0
 80155  1  0  0  0
 80156  1  0  0  0
 81157  1  0  0  0
 82 83  1  0  0  0
 82158  1  0  0  0
 83159  1  0  0  0
 84 85  1  0  0  0
 84160  1  0  0  0
 85161  1  0  0  0
 85162  1  0  0  0
M  ISO  4   1 100  68 101  83 100  85 101
M  END
> <chiral flag>
0

> <version>
0

> <s_m_source_file>
/data/baiqing/PycharmProjects/Reinvent-master-3.2/result/LINK_invent/BTK/process_docking_weight1_custom_sum_contain_oxygen_bond_distance_aromatic_linkinvent_7_9_3/rearranged_h_0128.sdf

> <i_m_source_file_index>
45

> <r_mmod_Potential_Energy-OPLS-2005>
341.624176025391

> <r_mmod_Stretch_Energy-OPLS-2005>
134.756286621094

> <r_mmod_Bend_Energy-OPLS-2005>
219.431274414062

> <r_mmod_Torsional_Energy-OPLS-2005>
294.458557128906

> <r_mmod_Improper_Torsional_Energy-OPLS-2005>
3.64263343811035

> <r_mmod_Van_der_Waal_Energy-OPLS-2005>
129.295440673828

> <r_mmod_Electrostatic_Energy-OPLS-2005>
-324.415496826172

> <r_mmod_Solvation_Energy-OPLS-2005>
-187.762908935547

> <b_mmod_Minimization_Converged-OPLS-2005>
0

> <r_mmod_RMS_Derivative-OPLS-2005>
4.48673248291016

$$$$
45
                    3D
 Structure written by MMmdl.
168176  0  0  1  0            999 V2000
  -30.5980  -14.7188   20.4878 C   0  0  0  0  0  0
  -30.4696  -12.4587   19.4664 C   0  0  0  0  0  0
  -29.5368  -12.5069   18.2372 C   0  0  0  0  0  0
  -28.0513  -12.3536   18.6286 C   0  0  0  0  0  0
  -27.6515  -13.2246   19.8522 C   0  0  2  0  0  0
  -28.6969  -13.1129   20.9888 C   0  0  0  0  0  0
  -25.2575  -13.8189   20.5685 C   0  0  0  0  0  0
  -24.1827  -13.0410   20.9222 C   0  0  0  0  0  0
  -24.6418  -11.6906   20.8682 C   0  0  0  0  0  0
  -23.9048  -10.4292   21.0397 C   0  0  0  0  0  0
  -24.3604   -9.4231   21.9205 C   0  0  0  0  0  0
  -23.6330   -8.2226   22.0751 C   0  0  0  0  0  0
  -22.4308   -8.0253   21.3522 C   0  0  0  0  0  0
  -21.9925   -9.0200   20.4613 C   0  0  0  0  0  0
  -22.7205  -10.2131   20.3066 C   0  0  0  0  0  0
  -21.6818   -6.0761   22.5312 C   0  0  0  0  0  0
  -21.3952   -6.5650   23.8247 C   0  0  0  0  0  0
  -21.3662   -5.6794   24.9211 C   0  0  0  0  0  0
  -21.6060   -4.3054   24.7239 C   0  0  0  0  0  0
  -21.8830   -3.8165   23.4355 C   0  0  0  0  0  0
  -21.9189   -4.6999   22.3418 C   0  0  0  0  0  0
  -22.7869  -13.5237   21.1856 C   0  0  0  0  0  0
  -22.1699   -4.2161   21.0995 F   0  0  0  0  0  0
  -21.5643   -3.4566   25.7775 F   0  0  0  0  0  0
  -30.0073  -13.4784   20.4295 N   0  0  0  0  0  0
  -26.2966  -12.9336   20.3187 N   0  0  0  0  0  0
  -25.9324  -11.6503   20.5638 N   0  0  0  0  0  0
  -22.0432  -12.8214   22.0381 N   0  0  0  0  0  0
  -25.4320  -15.1903   20.4234 N   0  0  0  0  0  0
  -31.7735  -14.8866   20.1563 O   0  0  0  0  0  0
  -21.6625   -6.8900   21.4269 O   0  0  0  0  0  0
  -22.3592  -14.5541   20.6762 O   0  0  0  0  0  0
  -24.6354  -31.8603   23.1955 C   0  0  0  0  0  0
  -25.9207  -32.4749   23.8326 C   0  0  1  0  0  0
  -27.1661  -27.2462   20.1519 C   0  0  0  0  0  0
  -25.6006  -33.8536   24.2292 N   0  0  0  0  0  0
  -23.4299  -30.4906   21.5381 C   0  0  2  0  0  0
  -24.8643  -28.9435   20.0947 C   0  0  0  0  0  0
  -22.7549  -29.4694   22.4872 C   0  0  0  0  0  0
  -18.0327  -28.1378   22.8489 C   0  0  0  0  0  0
  -24.1516  -36.7249   23.2649 C   0  0  0  0  0  0
  -25.9746  -30.7652   21.3794 C   0  0  0  0  0  0
  -26.0317  -29.3852   20.7304 C   0  0  0  0  0  0
  -27.1875  -28.5423   20.7613 C   0  0  0  0  0  0
  -26.0069  -26.8969   19.4375 C   0  0  0  0  0  0
  -24.8617  -27.7096   19.4287 C   0  0  0  0  0  0
  -23.6419  -29.8389   20.1446 C   0  0  0  0  0  0
  -25.4137  -36.3054   24.0370 C   0  0  1  0  0  0
  -20.5931  -28.3735   23.1198 C   0  0  2  0  0  0
  -20.6799  -26.9440   22.5364 C   0  0  0  0  0  0
  -19.5748  -26.6395   21.5200 C   0  0  0  0  0  0
  -18.1948  -26.7941   22.1622 C   0  0  0  0  0  0
  -19.1576  -28.8868   23.2852 C   0  0  0  0  0  0
  -18.9497  -30.1452   23.8893 C   0  0  0  0  0  0
  -17.6492  -30.6557   24.0575 C   0  0  0  0  0  0
  -25.9084  -34.9443   23.5124 C   0  0  0  0  0  0
  -16.5387  -29.9057   23.6298 C   0  0  0  0  0  0
  -16.7327  -28.6477   23.0352 C   0  0  0  0  0  0
  -26.4547  -31.6510   25.0687 C   0  0  0  0  0  0
  -25.3733  -31.3639   26.1368 C   0  0  0  0  0  0
  -27.0485  -30.2962   24.6163 C   0  0  0  0  0  0
  -27.6141  -32.4227   25.7401 C   0  0  0  0  0  0
  -27.5630  -37.1782   24.8491 C   0  0  0  0  0  0
  -21.4260  -29.3083   22.3596 N   0  0  0  0  0  0
  -26.4319  -37.3754   23.9443 N   0  0  0  0  0  0
  -24.7001  -31.0624   22.0911 N   0  0  0  0  0  0
  -23.4257  -28.8247   23.2992 O   0  0  0  0  0  0
  -28.2063  -26.3041   20.2196 O   0  0  0  0  0  0
  -26.5628  -34.8948   22.4656 O   0  0  0  0  0  0
  -23.5515  -32.1433   23.7257 O   0  0  0  0  0  0
  -31.2150  -22.7030   19.6350 C   0  0  0  0  0  0
  -30.9277  -21.4808   20.5468 C   0  0  0  0  0  0
  -28.6015  -22.2724   20.8766 C   0  0  0  0  0  0
  -30.2655  -23.9512   19.7747 C   0  0  2  0  0  0
  -28.7663  -23.6176   20.0391 C   0  0  2  0  0  0
  -29.4656  -21.0197   20.3880 C   0  0  2  0  0  0
  -31.8668  -25.4426   18.4385 C   0  0  0  0  0  0
  -29.8621  -24.4302   17.2123 C   0  0  0  0  0  0
  -27.8669  -24.8699   20.5463 C   0  0  0  0  0  0
  -29.7426  -17.2168   20.1815 C   0  0  0  0  0  0
  -29.9626  -18.4373   21.1943 C   0  0  0  0  0  0
  -30.4295  -24.9317   18.5611 C   0  0  0  0  0  0
  -29.7468  -15.7787   20.6818 N   0  0  0  0  0  0
  -29.0875  -19.6915   21.0459 N   0  3  0  0  0  0
  -31.4935  -12.6631   19.1419 H   0  0  0  0  0  0
  -30.5039  -11.4718   19.9245 H   0  0  0  0  0  0
  -29.8172  -11.7296   17.5248 H   0  0  0  0  0  0
  -29.6877  -13.4539   17.7163 H   0  0  0  0  0  0
  -27.8753  -11.3003   18.8426 H   0  0  0  0  0  0
  -27.4275  -12.5999   17.7706 H   0  0  0  0  0  0
  -27.6482  -14.2511   19.4923 H   0  0  0  0  0  0
  -28.7277  -12.0914   21.3800 H   0  0  0  0  0  0
  -28.4190  -13.7462   21.8346 H   0  0  0  0  0  0
  -25.2757   -9.5731   22.4774 H   0  0  0  0  0  0
  -24.0039   -7.4623   22.7483 H   0  0  0  0  0  0
  -21.0843   -8.8726   19.8918 H   0  0  0  0  0  0
  -22.3676  -10.9656   19.6182 H   0  0  0  0  0  0
  -21.1903   -7.6153   23.9755 H   0  0  0  0  0  0
  -21.1472   -6.0528   25.9109 H   0  0  0  0  0  0
  -22.0603   -2.7623   23.2866 H   0  0  0  0  0  0
  -22.3988  -11.9876   22.4790 H   0  0  0  0  0  0
  -21.1047  -13.1292   22.2484 H   0  0  0  0  0  0
  -24.6638  -15.8437   20.5434 H   0  0  0  0  0  0
  -26.2729  -15.6307   20.0713 H   0  0  0  0  0  0
  -26.7339  -32.5417   23.1139 H   0  0  0  0  0  0
  -25.0239  -33.9598   25.0508 H   0  0  0  0  0  0
  -22.7321  -31.3173   21.3995 H   0  0  0  0  0  0
  -23.3820  -35.9529   23.3236 H   0  0  0  0  0  0
  -24.3679  -36.8892   22.2080 H   0  0  0  0  0  0
  -23.7204  -37.6428   23.6656 H   0  0  0  0  0  0
  -26.1314  -31.5237   20.6084 H   0  0  0  0  0  0
  -26.8497  -30.8003   22.0164 H   0  0  0  0  0  0
  -28.0683  -28.8565   21.3030 H   0  0  0  0  0  0
  -25.9749  -25.9751   18.8759 H   0  0  0  0  0  0
  -23.9940  -27.3847   18.8748 H   0  0  0  0  0  0
  -23.7464  -30.6175   19.3870 H   0  0  0  0  0  0
  -22.7606  -29.2743   19.8434 H   0  0  0  0  0  0
  -25.1295  -36.1933   25.0866 H   0  0  0  0  0  0
  -21.0104  -28.3347   24.1290 H   0  0  0  0  0  0
  -20.5677  -26.2410   23.3617 H   0  0  0  0  0  0
  -21.6679  -26.7408   22.1178 H   0  0  0  0  0  0
  -19.6899  -25.6308   21.1213 H   0  0  0  0  0  0
  -19.6639  -27.3210   20.6726 H   0  0  0  0  0  0
  -17.4225  -26.6742   21.4001 H   0  0  0  0  0  0
  -18.0294  -26.0055   22.8969 H   0  0  0  0  0  0
  -19.7968  -30.7261   24.2307 H   0  0  0  0  0  0
  -17.5027  -31.6237   24.5159 H   0  0  0  0  0  0
  -15.5382  -30.2950   23.7575 H   0  0  0  0  0  0
  -15.8762  -28.0772   22.7056 H   0  0  0  0  0  0
  -24.5901  -30.7030   25.7637 H   0  0  0  0  0  0
  -24.8930  -32.2789   26.4815 H   0  0  0  0  0  0
  -25.7973  -30.8762   27.0134 H   0  0  0  0  0  0
  -26.3121  -29.6597   24.1263 H   0  0  0  0  0  0
  -27.4341  -29.7297   25.4644 H   0  0  0  0  0  0
  -27.8882  -30.4327   23.9354 H   0  0  0  0  0  0
  -27.2818  -33.3529   26.1999 H   0  0  0  0  0  0
  -28.3869  -32.6750   25.0127 H   0  0  0  0  0  0
  -28.0902  -31.8334   26.5240 H   0  0  0  0  0  0
  -28.2598  -38.0133   24.7610 H   0  0  0  0  0  0
  -28.1168  -36.2667   24.6196 H   0  0  0  0  0  0
  -27.2372  -37.1301   25.8898 H   0  0  0  0  0  0
  -20.9463  -29.9023   21.6969 H   0  0  0  0  0  0
  -26.0222  -38.2838   24.1386 H   0  0  0  0  0  0
  -31.2411  -22.3532   18.6048 H   0  0  0  0  0  0
  -32.2383  -23.0224   19.8423 H   0  0  0  0  0  0
  -31.1429  -21.7325   21.5855 H   0  0  0  0  0  0
  -31.6227  -20.6839   20.2803 H   0  0  0  0  0  0
  -27.5432  -22.0044   20.8771 H   0  0  0  0  0  0
  -28.8356  -22.4819   21.9261 H   0  0  0  0  0  0
  -30.6022  -24.4897   20.6589 H   0  0  0  0  0  0
  -28.3725  -23.3161   19.0744 H   0  0  0  0  0  0
  -29.2986  -20.8754   19.3178 H   0  0  0  0  0  0
  -32.1571  -25.9790   19.3457 H   0  0  0  0  0  0
  -31.9847  -26.1327   17.6032 H   0  0  0  0  0  0
  -32.5630  -24.6199   18.2910 H   0  0  0  0  0  0
  -28.7706  -24.3650   17.2284 H   0  0  0  0  0  0
  -30.2463  -23.4504   16.9281 H   0  0  0  0  0  0
  -30.0939  -25.1319   16.4114 H   0  0  0  0  0  0
  -27.8401  -24.8404   21.6411 H   0  0  0  0  0  0
  -26.8368  -24.5994   20.2733 H   0  0  0  0  0  0
  -30.4257  -17.3228   19.3365 H   0  0  0  0  0  0
  -28.7490  -17.3286   19.7467 H   0  0  0  0  0  0
  -31.0209  -18.6988   21.2432 H   0  0  0  0  0  0
  -29.7260  -18.0568   22.1880 H   0  0  0  0  0  0
  -29.8709  -25.8394   18.7578 H   0  0  0  0  0  0
  -28.8160  -15.4552   20.9004 H   0  0  0  0  0  0
  -28.2300  -19.3911   20.6147 H   0  0  0  0  0  0
  -28.8316  -19.9231   21.9942 H   0  0  0  0  0  0
  1 25  1  0  0  0
  1 30  2  0  0  0
  1 83  1  0  0  0
  2  3  1  0  0  0
  2 25  1  0  0  0
  2 85  1  0  0  0
  2 86  1  0  0  0
  3  4  1  0  0  0
  3 87  1  0  0  0
  3 88  1  0  0  0
  4  5  1  0  0  0
  4 89  1  0  0  0
  4 90  1  0  0  0
  5  6  1  0  0  0
  5 26  1  0  0  0
  5 91  1  0  0  0
  6 25  1  0  0  0
  6 92  1  0  0  0
  6 93  1  0  0  0
  7  8  2  0  0  0
  7 26  1  0  0  0
  7 29  1  0  0  0
  8  9  1  0  0  0
  8 22  1  0  0  0
  9 10  1  0  0  0
  9 27  2  0  0  0
 10 11  2  0  0  0
 10 15  1  0  0  0
 11 12  1  0  0  0
 11 94  1  0  0  0
 12 13  2  0  0  0
 12 95  1  0  0  0
 13 14  1  0  0  0
 13 31  1  0  0  0
 14 15  2  0  0  0
 14 96  1  0  0  0
 15 97  1  0  0  0
 16 17  2  0  0  0
 16 21  1  0  0  0
 16 31  1  0  0  0
 17 18  1  0  0  0
 17 98  1  0  0  0
 18 19  2  0  0  0
 18 99  1  0  0  0
 19 20  1  0  0  0
 19 24  1  0  0  0
 20 21  2  0  0  0
 20100  1  0  0  0
 21 23  1  0  0  0
 22 28  1  0  0  0
 22 32  2  0  0  0
 26 27  1  0  0  0
 28101  1  0  0  0
 28102  1  0  0  0
 29103  1  0  0  0
 29104  1  0  0  0
 33 34  1  0  0  0
 33 66  1  0  0  0
 33 70  2  0  0  0
 34 36  1  0  0  0
 34 59  1  0  0  0
 34105  1  0  0  0
 35 44  2  0  0  0
 35 45  1  0  0  0
 35 68  1  0  0  0
 36 56  1  0  0  0
 36106  1  0  0  0
 37 39  1  0  0  0
 37 47  1  0  0  0
 37 66  1  0  0  0
 37107  1  0  0  0
 38 43  2  0  0  0
 38 46  1  0  0  0
 38 47  1  0  0  0
 39 64  1  0  0  0
 39 67  2  0  0  0
 40 52  1  0  0  0
 40 53  2  0  0  0
 40 58  1  0  0  0
 41108  1  0  0  0
 41109  1  0  0  0
 41110  1  0  0  0
 41 48  1  0  0  0
 42 43  1  0  0  0
 42 66  1  0  0  0
 42111  1  0  0  0
 42112  1  0  0  0
 43 44  1  0  0  0
 44113  1  0  0  0
 45 46  2  0  0  0
 45114  1  0  0  0
 46115  1  0  0  0
 47116  1  0  0  0
 47117  1  0  0  0
 48 56  1  0  0  0
 48 65  1  0  0  0
 48118  1  0  0  0
 49 50  1  0  0  0
 49 53  1  0  0  0
 49 64  1  0  0  0
 49119  1  0  0  0
 50 51  1  0  0  0
 50120  1  0  0  0
 50121  1  0  0  0
 51 52  1  0  0  0
 51122  1  0  0  0
 51123  1  0  0  0
 52124  1  0  0  0
 52125  1  0  0  0
 53 54  1  0  0  0
 54 55  2  0  0  0
 54126  1  0  0  0
 55 57  1  0  0  0
 55127  1  0  0  0
 56 69  2  0  0  0
 57 58  2  0  0  0
 57128  1  0  0  0
 58129  1  0  0  0
 59 60  1  0  0  0
 59 61  1  0  0  0
 59 62  1  0  0  0
 60130  1  0  0  0
 60131  1  0  0  0
 60132  1  0  0  0
 61133  1  0  0  0
 61134  1  0  0  0
 61135  1  0  0  0
 62136  1  0  0  0
 62137  1  0  0  0
 62138  1  0  0  0
 63 65  1  0  0  0
 63139  1  0  0  0
 63140  1  0  0  0
 63141  1  0  0  0
 64142  1  0  0  0
 65143  1  0  0  0
 68 79  1  0  0  0
 71 72  1  0  0  0
 71144  1  0  0  0
 71145  1  0  0  0
 71 74  1  0  0  0
 72 76  1  0  0  0
 72146  1  0  0  0
 72147  1  0  0  0
 73 75  1  0  0  0
 73 76  1  0  0  0
 73148  1  0  0  0
 73149  1  0  0  0
 74 75  1  0  0  0
 74 82  1  0  0  0
 74150  1  0  0  0
 75 79  1  0  0  0
 75151  1  0  0  0
 76 84  1  0  0  0
 76152  1  0  0  0
 77153  1  0  0  0
 77154  1  0  0  0
 77155  1  0  0  0
 77 82  1  0  0  0
 78 82  1  0  0  0
 78156  1  0  0  0
 78157  1  0  0  0
 78158  1  0  0  0
 79159  1  0  0  0
 79160  1  0  0  0
 80 81  1  0  0  0
 80 83  1  0  0  0
 80161  1  0  0  0
 80162  1  0  0  0
 81 84  1  0  0  0
 81163  1  0  0  0
 81164  1  0  0  0
 82165  1  0  0  0
 83166  1  0  0  0
 84167  1  0  0  0
 84168  1  0  0  0
M  CHG  1  84   1
M  ISO  4   1 100  68 101  79 101  83 100
M  END
> <chiral flag>
0

> <version>
0

> <s_m_source_file>
/data/baiqing/PycharmProjects/Reinvent-master-3.2/result/LINK_invent/BTK/process_docking_weight1_custom_sum_contain_oxygen_bond_distance_aromatic_linkinvent_7_9_3/rearranged_h_0128.sdf

> <i_m_source_file_index>
46

> <r_mmod_Potential_Energy-OPLS-2005>
71.4819259643555

> <r_mmod_Stretch_Energy-OPLS-2005>
107.815231323242

> <r_mmod_Bend_Energy-OPLS-2005>
199.095138549805

> <r_mmod_Torsional_Energy-OPLS-2005>
309.105560302734

> <r_mmod_Improper_Torsional_Energy-OPLS-2005>
7.51569080352783

> <r_mmod_Van_der_Waal_Energy-OPLS-2005>
129.139083862305

> <r_mmod_Electrostatic_Energy-OPLS-2005>
-296.468566894531

> <r_mmod_Solvation_Energy-OPLS-2005>
-478.223236083984

> <b_mmod_Minimization_Converged-OPLS-2005>
0

> <r_mmod_RMS_Derivative-OPLS-2005>
10.2272996902466

$$$$
46
                    3D
 Structure written by MMmdl.
165174  0  0  1  0            999 V2000
  -30.7100  -14.3808   20.7539 C   0  0  0  0  0  0
  -30.4285  -12.3144   19.3988 C   0  0  0  0  0  0
  -29.4963  -12.5300   18.1907 C   0  0  0  0  0  0
  -28.0089  -12.4090   18.5838 C   0  0  0  0  0  0
  -27.6633  -13.1974   19.8726 C   0  0  2  0  0  0
  -28.6853  -12.9018   20.9825 C   0  0  0  0  0  0
  -25.2456  -13.7995   20.5233 C   0  0  0  0  0  0
  -24.1769  -13.0333   20.9056 C   0  0  0  0  0  0
  -24.6375  -11.6836   20.8719 C   0  0  0  0  0  0
  -23.9019  -10.4255   21.0412 C   0  0  0  0  0  0
  -24.3563   -9.4187   21.9215 C   0  0  0  0  0  0
  -23.6249   -8.2215   22.0787 C   0  0  0  0  0  0
  -22.4242   -8.0256   21.3553 C   0  0  0  0  0  0
  -21.9843   -9.0226   20.4652 C   0  0  0  0  0  0
  -22.7168  -10.2121   20.3079 C   0  0  0  0  0  0
  -21.6851   -6.0694   22.5271 C   0  0  0  0  0  0
  -21.4016   -6.5605   23.8206 C   0  0  0  0  0  0
  -21.3660   -5.6770   24.9162 C   0  0  0  0  0  0
  -21.6048   -4.3036   24.7204 C   0  0  0  0  0  0
  -21.8829   -3.8110   23.4332 C   0  0  0  0  0  0
  -21.9196   -4.6922   22.3388 C   0  0  0  0  0  0
  -22.7829  -13.5215   21.1713 C   0  0  0  0  0  0
  -22.1666   -4.2108   21.0970 F   0  0  0  0  0  0
  -21.5612   -3.4536   25.7731 F   0  0  0  0  0  0
  -30.0294  -13.2329   20.4771 N   0  0  0  0  0  0
  -26.3003  -12.9225   20.3266 N   0  0  0  0  0  0
  -25.9320  -11.6410   20.5776 N   0  0  0  0  0  0
  -22.0462  -12.8336   22.0364 N   0  0  0  0  0  0
  -25.3909  -15.1581   20.2911 N   0  0  0  0  0  0
  -31.6832  -14.7507   20.0776 O   0  0  0  0  0  0
  -21.6629   -6.8838   21.4232 O   0  0  0  0  0  0
  -22.3539  -14.5513   20.6543 O   0  0  0  0  0  0
  -24.6118  -31.8708   23.2110 C   0  0  0  0  0  0
  -25.9026  -32.4837   23.8365 C   0  0  1  0  0  0
  -27.2255  -27.4639   20.1028 C   0  0  0  0  0  0
  -25.5898  -33.8620   24.2343 N   0  0  0  0  0  0
  -23.3977  -30.4903   21.5550 C   0  0  2  0  0  0
  -24.8429  -28.9683   20.1080 C   0  0  0  0  0  0
  -22.7421  -29.4641   22.5054 C   0  0  0  0  0  0
  -18.0281  -28.1388   22.8489 C   0  0  0  0  0  0
  -24.1483  -36.7310   23.2650 C   0  0  0  0  0  0
  -25.9190  -30.8507   21.3545 C   0  0  0  0  0  0
  -26.0005  -29.4848   20.7066 C   0  0  0  0  0  0
  -27.1992  -28.7383   20.7068 C   0  0  0  0  0  0
  -26.0634  -26.9583   19.4875 C   0  0  0  0  0  0
  -24.8695  -27.7039   19.4891 C   0  0  0  0  0  0
  -23.5987  -29.8280   20.1647 C   0  0  0  0  0  0
  -25.4096  -36.3124   24.0362 C   0  0  1  0  0  0
  -20.5875  -28.3637   23.1360 C   0  0  2  0  0  0
  -20.6788  -26.9391   22.5403 C   0  0  0  0  0  0
  -19.5754  -26.6412   21.5204 C   0  0  0  0  0  0
  -18.1936  -26.7948   22.1616 C   0  0  0  0  0  0
  -19.1541  -28.8829   23.2919 C   0  0  0  0  0  0
  -18.9468  -30.1461   23.8892 C   0  0  0  0  0  0
  -17.6448  -30.6577   24.0572 C   0  0  0  0  0  0
  -25.9027  -34.9493   23.5163 C   0  0  0  0  0  0
  -16.5334  -29.9086   23.6316 C   0  0  0  0  0  0
  -16.7268  -28.6520   23.0308 C   0  0  0  0  0  0
  -26.4496  -31.6556   25.0640 C   0  0  0  0  0  0
  -25.3788  -31.3570   26.1388 C   0  0  0  0  0  0
  -27.0368  -30.3040   24.5909 C   0  0  0  0  0  0
  -27.6116  -32.4235   25.7394 C   0  0  0  0  0  0
  -27.5581  -37.1808   24.8480 C   0  0  0  0  0  0
  -21.4166  -29.2983   22.3777 N   0  0  0  0  0  0
  -26.4293  -37.3785   23.9419 N   0  0  0  0  0  0
  -24.6614  -31.0818   22.1012 N   0  0  0  0  0  0
  -23.4222  -28.8193   23.3080 O   0  0  0  0  0  0
  -28.3635  -26.7018   20.1391 O   0  0  0  0  0  0
  -26.5563  -34.8959   22.4716 O   0  0  0  0  0  0
  -23.5331  -32.1413   23.7564 O   0  0  0  0  0  0
  -27.7856  -16.7294   21.8343 C   0  0  0  0  0  0
  -29.0779  -18.7479   22.0605 C   0  0  0  0  0  0
  -26.6301  -17.5313   21.9294 C   0  0  0  0  0  0
  -29.0525  -17.3429   21.9054 C   0  0  0  0  0  0
  -27.8717  -19.4676   22.1716 C   0  0  0  0  0  0
  -31.4171  -15.3952   23.8686 C   0  0  0  0  0  0
  -30.9896  -16.7678   23.3838 C   0  0  0  0  0  0
  -30.4357  -14.4747   23.1562 C   0  0  0  0  0  0
  -30.3663  -16.5480   21.9880 C   0  0  1  0  0  0
  -27.8907  -20.9510   22.5261 C   0  0  0  0  0  0
  -28.0997  -21.8963   21.3231 C   0  0  0  0  0  0
  -28.2549  -24.3068   20.6633 C   0  0  0  0  0  0
  -28.3606  -25.7443   21.2073 C   0  0  0  0  0  0
  -26.6640  -18.8718   22.0883 N   0  0  0  0  0  0
  -30.2543  -15.0761   21.8289 N   0  0  0  0  0  0
  -28.2593  -23.3034   21.7587 N   0  3  0  0  0  0
  -31.4704  -12.4524   19.1000 H   0  0  0  0  0  0
  -30.3585  -11.2827   19.7478 H   0  0  0  0  0  0
  -29.7302  -11.8058   17.4088 H   0  0  0  0  0  0
  -29.6845  -13.5106   17.7538 H   0  0  0  0  0  0
  -27.7708  -11.3534   18.7126 H   0  0  0  0  0  0
  -27.3851  -12.7634   17.7648 H   0  0  0  0  0  0
  -27.7312  -14.2602   19.6380 H   0  0  0  0  0  0
  -28.6572  -11.8443   21.2477 H   0  0  0  0  0  0
  -28.3963  -13.4307   21.8907 H   0  0  0  0  0  0
  -25.2721   -9.5673   22.4771 H   0  0  0  0  0  0
  -23.9945   -7.4626   22.7553 H   0  0  0  0  0  0
  -21.0750   -8.8706   19.8996 H   0  0  0  0  0  0
  -22.3592  -10.9625   19.6175 H   0  0  0  0  0  0
  -21.2032   -7.6127   23.9680 H   0  0  0  0  0  0
  -21.1477   -6.0510   25.9064 H   0  0  0  0  0  0
  -22.0616   -2.7565   23.2842 H   0  0  0  0  0  0
  -22.3997  -12.0024   22.4823 H   0  0  0  0  0  0
  -21.1114  -13.1481   22.2522 H   0  0  0  0  0  0
  -24.5755  -15.7585   20.2564 H   0  0  0  0  0  0
  -26.2046  -15.5582   19.8378 H   0  0  0  0  0  0
  -26.7098  -32.5589   23.1138 H   0  0  0  0  0  0
  -25.0165  -33.9768   25.0562 H   0  0  0  0  0  0
  -22.6861  -31.3094   21.4236 H   0  0  0  0  0  0
  -23.3783  -35.9618   23.3335 H   0  0  0  0  0  0
  -24.3591  -36.8884   22.2066 H   0  0  0  0  0  0
  -23.7201  -37.6514   23.6613 H   0  0  0  0  0  0
  -26.0121  -31.6155   20.5832 H   0  0  0  0  0  0
  -26.8148  -30.9155   21.9589 H   0  0  0  0  0  0
  -28.0907  -29.1234   21.1846 H   0  0  0  0  0  0
  -26.0802  -25.9878   19.0174 H   0  0  0  0  0  0
  -23.9817  -27.3081   19.0113 H   0  0  0  0  0  0
  -23.7003  -30.6061   19.4102 H   0  0  0  0  0  0
  -22.7207  -29.2473   19.8721 H   0  0  0  0  0  0
  -25.1282  -36.2012   25.0847 H   0  0  0  0  0  0
  -20.9980  -28.3181   24.1490 H   0  0  0  0  0  0
  -20.5811  -26.2203   23.3563 H   0  0  0  0  0  0
  -21.6643  -26.7534   22.1105 H   0  0  0  0  0  0
  -19.6909  -25.6362   21.1164 H   0  0  0  0  0  0
  -19.6710  -27.3319   20.6799 H   0  0  0  0  0  0
  -17.4238  -26.6812   21.3958 H   0  0  0  0  0  0
  -18.0285  -26.0040   22.8967 H   0  0  0  0  0  0
  -19.7916  -30.7309   24.2253 H   0  0  0  0  0  0
  -17.4970  -31.6232   24.5224 H   0  0  0  0  0  0
  -15.5333  -30.2982   23.7634 H   0  0  0  0  0  0
  -15.8675  -28.0862   22.6959 H   0  0  0  0  0  0
  -24.6028  -30.6848   25.7674 H   0  0  0  0  0  0
  -24.8908  -32.2686   26.4823 H   0  0  0  0  0  0
  -25.8183  -30.8732   27.0120 H   0  0  0  0  0  0
  -26.2871  -29.6710   24.1134 H   0  0  0  0  0  0
  -27.4435  -29.7313   25.4257 H   0  0  0  0  0  0
  -27.8546  -30.4467   23.8851 H   0  0  0  0  0  0
  -27.2812  -33.3576   26.1936 H   0  0  0  0  0  0
  -28.3934  -32.6682   25.0194 H   0  0  0  0  0  0
  -28.0732  -31.8328   26.5308 H   0  0  0  0  0  0
  -28.2635  -38.0083   24.7544 H   0  0  0  0  0  0
  -28.1070  -36.2626   24.6320 H   0  0  0  0  0  0
  -27.2308  -37.1466   25.8891 H   0  0  0  0  0  0
  -20.9332  -29.8636   21.6938 H   0  0  0  0  0  0
  -26.0237  -38.2892   24.1387 H   0  0  0  0  0  0
  -27.6740  -15.6585   21.7653 H   0  0  0  0  0  0
  -30.0168  -19.2654   22.1824 H   0  0  0  0  0  0
  -25.6401  -17.0986   21.9283 H   0  0  0  0  0  0
  -31.3850  -15.2983   24.9550 H   0  0  0  0  0  0
  -32.4333  -15.1796   23.5355 H   0  0  0  0  0  0
  -31.8058  -17.4927   23.3701 H   0  0  0  0  0  0
  -30.2350  -17.1412   24.0788 H   0  0  0  0  0  0
  -29.4753  -14.4771   23.6726 H   0  0  0  0  0  0
  -30.7923  -13.4417   23.1390 H   0  0  0  0  0  0
  -31.0362  -16.9520   21.2268 H   0  0  0  0  0  0
  -28.6610  -21.1034   23.2834 H   0  0  0  0  0  0
  -26.9511  -21.2039   23.0238 H   0  0  0  0  0  0
  -27.2513  -21.8153   20.6391 H   0  0  0  0  0  0
  -28.9880  -21.6029   20.7613 H   0  0  0  0  0  0
  -29.0833  -24.1077   19.9806 H   0  0  0  0  0  0
  -27.3351  -24.2062   20.0849 H   0  0  0  0  0  0
  -29.2818  -25.8650   21.7791 H   0  0  0  0  0  0
  -27.5442  -25.9328   21.9131 H   0  0  0  0  0  0
  -29.1253  -23.3807   22.2729 H   0  0  0  0  0  0
  -27.5021  -23.5190   22.3888 H   0  0  0  0  0  0
  1 25  1  0  0  0
  1 30  2  0  0  0
  1 85  1  0  0  0
  2  3  1  0  0  0
  2 25  1  0  0  0
  2 87  1  0  0  0
  2 88  1  0  0  0
  3  4  1  0  0  0
  3 89  1  0  0  0
  3 90  1  0  0  0
  4  5  1  0  0  0
  4 91  1  0  0  0
  4 92  1  0  0  0
  5  6  1  0  0  0
  5 26  1  0  0  0
  5 93  1  0  0  0
  6 25  1  0  0  0
  6 94  1  0  0  0
  6 95  1  0  0  0
  7  8  2  0  0  0
  7 26  1  0  0  0
  7 29  1  0  0  0
  8  9  1  0  0  0
  8 22  1  0  0  0
  9 10  1  0  0  0
  9 27  2  0  0  0
 10 11  2  0  0  0
 10 15  1  0  0  0
 11 12  1  0  0  0
 11 96  1  0  0  0
 12 13  2  0  0  0
 12 97  1  0  0  0
 13 14  1  0  0  0
 13 31  1  0  0  0
 14 15  2  0  0  0
 14 98  1  0  0  0
 15 99  1  0  0  0
 16 17  2  0  0  0
 16 21  1  0  0  0
 16 31  1  0  0  0
 17 18  1  0  0  0
 17100  1  0  0  0
 18 19  2  0  0  0
 18101  1  0  0  0
 19 20  1  0  0  0
 19 24  1  0  0  0
 20 21  2  0  0  0
 20102  1  0  0  0
 21 23  1  0  0  0
 22 28  1  0  0  0
 22 32  2  0  0  0
 26 27  1  0  0  0
 28103  1  0  0  0
 28104  1  0  0  0
 29105  1  0  0  0
 29106  1  0  0  0
 33 34  1  0  0  0
 33 66  1  0  0  0
 33 70  2  0  0  0
 34 36  1  0  0  0
 34 59  1  0  0  0
 34107  1  0  0  0
 35 44  2  0  0  0
 35 45  1  0  0  0
 35 68  1  0  0  0
 36 56  1  0  0  0
 36108  1  0  0  0
 37 39  1  0  0  0
 37 47  1  0  0  0
 37 66  1  0  0  0
 37109  1  0  0  0
 38 43  2  0  0  0
 38 46  1  0  0  0
 38 47  1  0  0  0
 39 64  1  0  0  0
 39 67  2  0  0  0
 40 52  1  0  0  0
 40 53  2  0  0  0
 40 58  1  0  0  0
 41110  1  0  0  0
 41111  1  0  0  0
 41112  1  0  0  0
 41 48  1  0  0  0
 42 43  1  0  0  0
 42 66  1  0  0  0
 42113  1  0  0  0
 42114  1  0  0  0
 43 44  1  0  0  0
 44115  1  0  0  0
 45 46  2  0  0  0
 45116  1  0  0  0
 46117  1  0  0  0
 47118  1  0  0  0
 47119  1  0  0  0
 48 56  1  0  0  0
 48 65  1  0  0  0
 48120  1  0  0  0
 49 50  1  0  0  0
 49 53  1  0  0  0
 49 64  1  0  0  0
 49121  1  0  0  0
 50 51  1  0  0  0
 50122  1  0  0  0
 50123  1  0  0  0
 51 52  1  0  0  0
 51124  1  0  0  0
 51125  1  0  0  0
 52126  1  0  0  0
 52127  1  0  0  0
 53 54  1  0  0  0
 54 55  2  0  0  0
 54128  1  0  0  0
 55 57  1  0  0  0
 55129  1  0  0  0
 56 69  2  0  0  0
 57 58  2  0  0  0
 57130  1  0  0  0
 58131  1  0  0  0
 59 60  1  0  0  0
 59 61  1  0  0  0
 59 62  1  0  0  0
 60132  1  0  0  0
 60133  1  0  0  0
 60134  1  0  0  0
 61135  1  0  0  0
 61136  1  0  0  0
 61137  1  0  0  0
 62138  1  0  0  0
 62139  1  0  0  0
 62140  1  0  0  0
 63 65  1  0  0  0
 63141  1  0  0  0
 63142  1  0  0  0
 63143  1  0  0  0
 64144  1  0  0  0
 65145  1  0  0  0
 68 83  1  0  0  0
 71 73  2  0  0  0
 71 74  1  0  0  0
 71146  1  0  0  0
 72 74  2  0  0  0
 72 75  1  0  0  0
 72147  1  0  0  0
 73 84  1  0  0  0
 73148  1  0  0  0
 74 79  1  0  0  0
 75 80  1  0  0  0
 75 84  2  0  0  0
 76 77  1  0  0  0
 76 78  1  0  0  0
 76149  1  0  0  0
 76150  1  0  0  0
 77 79  1  0  0  0
 77151  1  0  0  0
 77152  1  0  0  0
 78 85  1  0  0  0
 78153  1  0  0  0
 78154  1  0  0  0
 79 85  1  0  0  0
 79155  1  0  0  0
 80 81  1  0  0  0
 80156  1  0  0  0
 80157  1  0  0  0
 81 86  1  0  0  0
 81158  1  0  0  0
 81159  1  0  0  0
 82 83  1  0  0  0
 82 86  1  0  0  0
 82160  1  0  0  0
 82161  1  0  0  0
 83162  1  0  0  0
 83163  1  0  0  0
 86164  1  0  0  0
 86165  1  0  0  0
M  CHG  1  86   1
M  ISO  4   1 100  68 101  83 101  85 100
M  END
> <chiral flag>
0

> <version>
0

> <s_m_source_file>
/data/baiqing/PycharmProjects/Reinvent-master-3.2/result/LINK_invent/BTK/process_docking_weight1_custom_sum_contain_oxygen_bond_distance_aromatic_linkinvent_7_9_3/rearranged_h_0128.sdf

> <i_m_source_file_index>
47

> <r_mmod_Potential_Energy-OPLS-2005>
-163.909530639648

> <r_mmod_Stretch_Energy-OPLS-2005>
37.2250137329102

> <r_mmod_Bend_Energy-OPLS-2005>
110.64754486084

> <r_mmod_Torsional_Energy-OPLS-2005>
340.608337402344

> <r_mmod_Improper_Torsional_Energy-OPLS-2005>
7.49999046325684

> <r_mmod_Van_der_Waal_Energy-OPLS-2005>
151.707412719727

> <r_mmod_Electrostatic_Energy-OPLS-2005>
-380.041931152344

> <r_mmod_Solvation_Energy-OPLS-2005>
-445.191436767578

> <b_mmod_Minimization_Converged-OPLS-2005>
0

> <r_mmod_RMS_Derivative-OPLS-2005>
5.37168455123901

$$$$
47
                    3D
 Structure written by MMmdl.
170179  0  0  1  0            999 V2000
  -30.7164  -14.4425   20.5558 C   0  0  0  0  0  0
  -30.4163  -12.2766   19.4308 C   0  0  0  0  0  0
  -29.4979  -12.4984   18.2105 C   0  0  0  0  0  0
  -28.0177  -12.3624   18.6178 C   0  0  0  0  0  0
  -27.6634  -13.2029   19.8756 C   0  0  2  0  0  0
  -28.7045  -12.9870   21.0005 C   0  0  0  0  0  0
  -25.2611  -13.8145   20.5688 C   0  0  0  0  0  0
  -24.1848  -13.0439   20.9191 C   0  0  0  0  0  0
  -24.6386  -11.6900   20.8726 C   0  0  0  0  0  0
  -23.9057  -10.4288   21.0397 C   0  0  0  0  0  0
  -24.3616   -9.4210   21.9179 C   0  0  0  0  0  0
  -23.6293   -8.2241   22.0752 C   0  0  0  0  0  0
  -22.4281   -8.0287   21.3550 C   0  0  0  0  0  0
  -21.9918   -9.0255   20.4650 C   0  0  0  0  0  0
  -22.7231  -10.2136   20.3051 C   0  0  0  0  0  0
  -21.6854   -6.0746   22.5285 C   0  0  0  0  0  0
  -21.4010   -6.5647   23.8221 C   0  0  0  0  0  0
  -21.3650   -5.6800   24.9182 C   0  0  0  0  0  0
  -21.6045   -4.3065   24.7234 C   0  0  0  0  0  0
  -21.8810   -3.8161   23.4355 C   0  0  0  0  0  0
  -21.9188   -4.6969   22.3409 C   0  0  0  0  0  0
  -22.7881  -13.5257   21.1845 C   0  0  0  0  0  0
  -22.1660   -4.2157   21.0986 F   0  0  0  0  0  0
  -21.5621   -3.4552   25.7746 F   0  0  0  0  0  0
  -30.0431  -13.2660   20.4498 N   0  0  0  0  0  0
  -26.3026  -12.9303   20.3359 N   0  0  0  0  0  0
  -25.9311  -11.6467   20.5752 N   0  0  0  0  0  0
  -22.0529  -12.8228   22.0401 N   0  0  0  0  0  0
  -25.4395  -15.1847   20.4097 N   0  0  0  0  0  0
  -31.8405  -14.6299   20.0821 O   0  0  0  0  0  0
  -21.6642   -6.8890   21.4250 O   0  0  0  0  0  0
  -22.3565  -14.5568   20.6708 O   0  0  0  0  0  0
  -24.6126  -31.8665   23.2123 C   0  0  0  0  0  0
  -25.9018  -32.4815   23.8409 C   0  0  1  0  0  0
  -27.2505  -27.4425   20.0953 C   0  0  0  0  0  0
  -25.5889  -33.8619   24.2332 N   0  0  0  0  0  0
  -23.4011  -30.4887   21.5498 C   0  0  2  0  0  0
  -24.8498  -28.9519   20.1206 C   0  0  0  0  0  0
  -22.7398  -29.4644   22.4994 C   0  0  0  0  0  0
  -18.0254  -28.1354   22.8488 C   0  0  0  0  0  0
  -24.1489  -36.7335   23.2641 C   0  0  0  0  0  0
  -25.9286  -30.8376   21.3604 C   0  0  0  0  0  0
  -26.0072  -29.4697   20.7120 C   0  0  0  0  0  0
  -27.2040  -28.7190   20.7010 C   0  0  0  0  0  0
  -26.0662  -26.9306   19.5142 C   0  0  0  0  0  0
  -24.8741  -27.6806   19.5219 C   0  0  0  0  0  0
  -23.6108  -29.8179   20.1645 C   0  0  0  0  0  0
  -25.4112  -36.3122   24.0337 C   0  0  1  0  0  0
  -20.5850  -28.3665   23.1340 C   0  0  2  0  0  0
  -20.6775  -26.9415   22.5418 C   0  0  0  0  0  0
  -19.5760  -26.6391   21.5209 C   0  0  0  0  0  0
  -18.1936  -26.7912   22.1621 C   0  0  0  0  0  0
  -19.1497  -28.8825   23.2913 C   0  0  0  0  0  0
  -18.9417  -30.1426   23.8927 C   0  0  0  0  0  0
  -17.6416  -30.6586   24.0563 C   0  0  0  0  0  0
  -25.9026  -34.9472   23.5130 C   0  0  0  0  0  0
  -16.5313  -29.9068   23.6317 C   0  0  0  0  0  0
  -16.7240  -28.6492   23.0326 C   0  0  0  0  0  0
  -26.4469  -31.6598   25.0733 C   0  0  0  0  0  0
  -25.3759  -31.3693   26.1503 C   0  0  0  0  0  0
  -27.0291  -30.3045   24.6077 C   0  0  0  0  0  0
  -27.6040  -32.4324   25.7496 C   0  0  0  0  0  0
  -27.5585  -37.1822   24.8461 C   0  0  0  0  0  0
  -21.4115  -29.3052   22.3761 N   0  0  0  0  0  0
  -26.4306  -37.3801   23.9397 N   0  0  0  0  0  0
  -24.6653  -31.0783   22.1009 N   0  0  0  0  0  0
  -23.4185  -28.8170   23.3005 O   0  0  0  0  0  0
  -28.4584  -26.7675   20.1163 O   0  0  0  0  0  0
  -26.5583  -34.8924   22.4689 O   0  0  0  0  0  0
  -23.5316  -32.1403   23.7527 O   0  0  0  0  0  0
  -30.1313  -19.7865   20.1078 C   0  0  0  0  0  0
  -30.0482  -21.1061   19.6352 C   0  0  0  0  0  0
  -29.0764  -19.2433   20.8794 C   0  0  0  0  0  0
  -27.9737  -20.1116   21.1815 C   0  0  0  0  0  0
  -28.9064  -21.8600   19.9288 C   0  0  0  0  0  0
  -25.0601  -18.9801   24.4061 C   0  0  0  0  0  0
  -25.4509  -20.4466   24.1727 C   0  0  0  0  0  0
  -25.0012  -18.2042   23.0837 C   0  0  0  0  0  0
  -26.7774  -20.5644   23.3990 C   0  0  0  0  0  0
  -26.3220  -18.3325   22.3038 C   0  0  0  0  0  0
  -26.7289  -19.8051   22.0527 C   0  0  0  0  0  0
  -29.1410  -17.7692   21.3150 C   0  0  0  0  0  0
  -30.2979  -16.8845   20.7969 C   0  0  0  0  0  0
  -28.5278  -24.2757   20.1749 C   0  0  0  0  0  0
  -28.6598  -25.5771   19.3471 C   0  0  0  0  0  0
  -27.9125  -21.3766   20.6881 N   0  0  0  0  0  0
  -28.7191  -23.1045   19.3196 N   0  0  0  0  0  0
  -29.9999  -15.4674   21.0379 N   0  0  0  0  0  0
  -31.4650  -12.3521   19.1382 H   0  0  0  0  0  0
  -30.2935  -11.2654   19.8236 H   0  0  0  0  0  0
  -29.7364  -11.7861   17.4202 H   0  0  0  0  0  0
  -29.6771  -13.4908   17.7937 H   0  0  0  0  0  0
  -27.8230  -11.3085   18.8148 H   0  0  0  0  0  0
  -27.3729  -12.6413   17.7828 H   0  0  0  0  0  0
  -27.7108  -14.2486   19.5745 H   0  0  0  0  0  0
  -28.6663  -11.9580   21.3596 H   0  0  0  0  0  0
  -28.4716  -13.6023   21.8728 H   0  0  0  0  0  0
  -25.2760   -9.5686   22.4771 H   0  0  0  0  0  0
  -24.0008   -7.4626   22.7471 H   0  0  0  0  0  0
  -21.0853   -8.8769   19.8960 H   0  0  0  0  0  0
  -22.3683  -10.9685   19.6174 H   0  0  0  0  0  0
  -21.2005   -7.6160   23.9726 H   0  0  0  0  0  0
  -21.1481   -6.0535   25.9082 H   0  0  0  0  0  0
  -22.0598   -2.7630   23.2854 H   0  0  0  0  0  0
  -22.4142  -11.9858   22.4723 H   0  0  0  0  0  0
  -21.1164  -13.1265   22.2654 H   0  0  0  0  0  0
  -24.6834  -15.8494   20.5332 H   0  0  0  0  0  0
  -26.2888  -15.6124   20.0651 H   0  0  0  0  0  0
  -26.7086  -32.5507   23.1170 H   0  0  0  0  0  0
  -25.0060  -33.9776   25.0487 H   0  0  0  0  0  0
  -22.6900  -31.3038   21.4084 H   0  0  0  0  0  0
  -23.3735  -35.9684   23.3316 H   0  0  0  0  0  0
  -24.3598  -36.8940   22.2058 H   0  0  0  0  0  0
  -23.7251  -37.6549   23.6646 H   0  0  0  0  0  0
  -26.0300  -31.6018   20.5884 H   0  0  0  0  0  0
  -26.8222  -30.8992   21.9686 H   0  0  0  0  0  0
  -28.0993  -29.1222   21.1523 H   0  0  0  0  0  0
  -26.0342  -25.9513   19.0615 H   0  0  0  0  0  0
  -23.9790  -27.2705   19.0730 H   0  0  0  0  0  0
  -23.7232  -30.5927   19.4049 H   0  0  0  0  0  0
  -22.7360  -29.2395   19.8622 H   0  0  0  0  0  0
  -25.1285  -36.2010   25.0833 H   0  0  0  0  0  0
  -20.9893  -28.3229   24.1485 H   0  0  0  0  0  0
  -21.6653  -26.7491   22.1222 H   0  0  0  0  0  0
  -20.5679  -26.2271   23.3602 H   0  0  0  0  0  0
  -19.6954  -25.6306   21.1216 H   0  0  0  0  0  0
  -19.6700  -27.3249   20.6761 H   0  0  0  0  0  0
  -17.4204  -26.6613   21.4030 H   0  0  0  0  0  0
  -18.0370  -26.0051   22.9024 H   0  0  0  0  0  0
  -19.7873  -30.7248   24.2320 H   0  0  0  0  0  0
  -17.4960  -31.6275   24.5138 H   0  0  0  0  0  0
  -15.5302  -30.2984   23.7621 H   0  0  0  0  0  0
  -15.8648  -28.0806   22.7024 H   0  0  0  0  0  0
  -24.5907  -30.7063   25.7855 H   0  0  0  0  0  0
  -24.8986  -32.2847   26.5011 H   0  0  0  0  0  0
  -25.8153  -30.8826   27.0213 H   0  0  0  0  0  0
  -26.2816  -29.6831   24.1127 H   0  0  0  0  0  0
  -27.4067  -29.7270   25.4520 H   0  0  0  0  0  0
  -27.8656  -30.4385   23.9213 H   0  0  0  0  0  0
  -27.2637  -33.3588   26.2136 H   0  0  0  0  0  0
  -28.3828  -32.6938   25.0321 H   0  0  0  0  0  0
  -28.0734  -31.8410   26.5365 H   0  0  0  0  0  0
  -28.2602  -38.0115   24.7491 H   0  0  0  0  0  0
  -28.1070  -36.2640   24.6301 H   0  0  0  0  0  0
  -27.2296  -37.1507   25.8861 H   0  0  0  0  0  0
  -20.9264  -29.8816   21.7030 H   0  0  0  0  0  0
  -26.0196  -38.2880   24.1383 H   0  0  0  0  0  0
  -31.0025  -19.2066   19.8467 H   0  0  0  0  0  0
  -30.8362  -21.5081   19.0141 H   0  0  0  0  0  0
  -24.0925  -18.9281   24.9060 H   0  0  0  0  0  0
  -25.7806  -18.5095   25.0793 H   0  0  0  0  0  0
  -25.5269  -20.9670   25.1254 H   0  0  0  0  0  0
  -24.6605  -20.9497   23.6160 H   0  0  0  0  0  0
  -24.1696  -18.5628   22.4743 H   0  0  0  0  0  0
  -24.7946  -17.1527   23.2870 H   0  0  0  0  0  0
  -27.6074  -20.2026   24.0064 H   0  0  0  0  0  0
  -26.9734  -21.6206   23.2174 H   0  0  0  0  0  0
  -26.2077  -17.8106   21.3541 H   0  0  0  0  0  0
  -27.0770  -17.8227   22.8956 H   0  0  0  0  0  0
  -25.8939  -20.2252   21.4910 H   0  0  0  0  0  0
  -29.1487  -17.7277   22.4037 H   0  0  0  0  0  0
  -28.2338  -17.2902   20.9513 H   0  0  0  0  0  0
  -30.4239  -17.0086   19.7193 H   0  0  0  0  0  0
  -31.2432  -17.1606   21.2628 H   0  0  0  0  0  0
  -27.5455  -24.2326   20.6474 H   0  0  0  0  0  0
  -29.2651  -24.2646   20.9793 H   0  0  0  0  0  0
  -28.0413  -25.5557   18.4491 H   0  0  0  0  0  0
  -29.6832  -25.6320   18.9703 H   0  0  0  0  0  0
  -27.9606  -23.0588   18.6491 H   0  0  0  0  0  0
  -29.0885  -15.2405   21.4071 H   0  0  0  0  0  0
  1 25  1  0  0  0
  1 30  2  0  0  0
  1 88  1  0  0  0
  2  3  1  0  0  0
  2 25  1  0  0  0
  2 89  1  0  0  0
  2 90  1  0  0  0
  3  4  1  0  0  0
  3 91  1  0  0  0
  3 92  1  0  0  0
  4  5  1  0  0  0
  4 93  1  0  0  0
  4 94  1  0  0  0
  5  6  1  0  0  0
  5 26  1  0  0  0
  5 95  1  0  0  0
  6 25  1  0  0  0
  6 96  1  0  0  0
  6 97  1  0  0  0
  7  8  2  0  0  0
  7 26  1  0  0  0
  7 29  1  0  0  0
  8  9  1  0  0  0
  8 22  1  0  0  0
  9 10  1  0  0  0
  9 27  2  0  0  0
 10 11  2  0  0  0
 10 15  1  0  0  0
 11 12  1  0  0  0
 11 98  1  0  0  0
 12 13  2  0  0  0
 12 99  1  0  0  0
 13 14  1  0  0  0
 13 31  1  0  0  0
 14 15  2  0  0  0
 14100  1  0  0  0
 15101  1  0  0  0
 16 17  2  0  0  0
 16 21  1  0  0  0
 16 31  1  0  0  0
 17 18  1  0  0  0
 17102  1  0  0  0
 18 19  2  0  0  0
 18103  1  0  0  0
 19 20  1  0  0  0
 19 24  1  0  0  0
 20 21  2  0  0  0
 20104  1  0  0  0
 21 23  1  0  0  0
 22 28  1  0  0  0
 22 32  2  0  0  0
 26 27  1  0  0  0
 28105  1  0  0  0
 28106  1  0  0  0
 29107  1  0  0  0
 29108  1  0  0  0
 33 34  1  0  0  0
 33 66  1  0  0  0
 33 70  2  0  0  0
 34 36  1  0  0  0
 34 59  1  0  0  0
 34109  1  0  0  0
 35 44  2  0  0  0
 35 45  1  0  0  0
 35 68  1  0  0  0
 36 56  1  0  0  0
 36110  1  0  0  0
 37 39  1  0  0  0
 37 47  1  0  0  0
 37 66  1  0  0  0
 37111  1  0  0  0
 38 43  2  0  0  0
 38 46  1  0  0  0
 38 47  1  0  0  0
 39 64  1  0  0  0
 39 67  2  0  0  0
 40 52  1  0  0  0
 40 53  2  0  0  0
 40 58  1  0  0  0
 41112  1  0  0  0
 41113  1  0  0  0
 41114  1  0  0  0
 41 48  1  0  0  0
 42 43  1  0  0  0
 42 66  1  0  0  0
 42115  1  0  0  0
 42116  1  0  0  0
 43 44  1  0  0  0
 44117  1  0  0  0
 45 46  2  0  0  0
 45118  1  0  0  0
 46119  1  0  0  0
 47120  1  0  0  0
 47121  1  0  0  0
 48 56  1  0  0  0
 48 65  1  0  0  0
 48122  1  0  0  0
 49 50  1  0  0  0
 49 53  1  0  0  0
 49 64  1  0  0  0
 49123  1  0  0  0
 50 51  1  0  0  0
 50124  1  0  0  0
 50125  1  0  0  0
 51 52  1  0  0  0
 51126  1  0  0  0
 51127  1  0  0  0
 52128  1  0  0  0
 52129  1  0  0  0
 53 54  1  0  0  0
 54 55  2  0  0  0
 54130  1  0  0  0
 55 57  1  0  0  0
 55131  1  0  0  0
 56 69  2  0  0  0
 57 58  2  0  0  0
 57132  1  0  0  0
 58133  1  0  0  0
 59 60  1  0  0  0
 59 61  1  0  0  0
 59 62  1  0  0  0
 60134  1  0  0  0
 60135  1  0  0  0
 60136  1  0  0  0
 61137  1  0  0  0
 61138  1  0  0  0
 61139  1  0  0  0
 62140  1  0  0  0
 62141  1  0  0  0
 62142  1  0  0  0
 63 65  1  0  0  0
 63143  1  0  0  0
 63144  1  0  0  0
 63145  1  0  0  0
 64146  1  0  0  0
 65147  1  0  0  0
 68 85  1  0  0  0
 71 72  2  0  0  0
 71 73  1  0  0  0
 71148  1  0  0  0
 72 75  1  0  0  0
 72149  1  0  0  0
 73 74  2  0  0  0
 73 82  1  0  0  0
 74 86  1  0  0  0
 74 81  1  0  0  0
 75 86  2  0  0  0
 75 87  1  0  0  0
 76 77  1  0  0  0
 76 78  1  0  0  0
 76150  1  0  0  0
 76151  1  0  0  0
 77 79  1  0  0  0
 77152  1  0  0  0
 77153  1  0  0  0
 78 80  1  0  0  0
 78154  1  0  0  0
 78155  1  0  0  0
 79 81  1  0  0  0
 79156  1  0  0  0
 79157  1  0  0  0
 80 81  1  0  0  0
 80158  1  0  0  0
 80159  1  0  0  0
 81160  1  0  0  0
 82 83  1  0  0  0
 82161  1  0  0  0
 82162  1  0  0  0
 83 88  1  0  0  0
 83163  1  0  0  0
 83164  1  0  0  0
 84 85  1  0  0  0
 84 87  1  0  0  0
 84165  1  0  0  0
 84166  1  0  0  0
 85167  1  0  0  0
 85168  1  0  0  0
 87169  1  0  0  0
 88170  1  0  0  0
M  ISO  4   1 100  68 101  85 101  88 100
M  END
> <chiral flag>
0

> <version>
0

> <s_m_source_file>
/data/baiqing/PycharmProjects/Reinvent-master-3.2/result/LINK_invent/BTK/process_docking_weight1_custom_sum_contain_oxygen_bond_distance_aromatic_linkinvent_7_9_3/rearranged_h_0128.sdf

> <i_m_source_file_index>
48

> <r_mmod_Potential_Energy-OPLS-2005>
-272.592956542969

> <r_mmod_Stretch_Energy-OPLS-2005>
40.8537559509277

> <r_mmod_Bend_Energy-OPLS-2005>
130.379165649414

> <r_mmod_Torsional_Energy-OPLS-2005>
234.835006713867

> <r_mmod_Improper_Torsional_Energy-OPLS-2005>
10.7665510177612

> <r_mmod_Van_der_Waal_Energy-OPLS-2005>
162.564727783203

> <r_mmod_Electrostatic_Energy-OPLS-2005>
-635.504943847656

> <r_mmod_Solvation_Energy-OPLS-2005>
-228.182037353516

> <b_mmod_Minimization_Converged-OPLS-2005>
0

> <r_mmod_RMS_Derivative-OPLS-2005>
3.82438182830811

$$$$
48
                    3D
 Structure written by MMmdl.
168177  0  0  1  0            999 V2000
  -30.7088  -14.4322   20.6412 C   0  0  0  0  0  0
  -30.4249  -12.3063   19.4145 C   0  0  0  0  0  0
  -29.4954  -12.5327   18.2049 C   0  0  0  0  0  0
  -28.0161  -12.3896   18.6120 C   0  0  0  0  0  0
  -27.6656  -13.2057   19.8835 C   0  0  2  0  0  0
  -28.7018  -12.9487   20.9991 C   0  0  0  0  0  0
  -25.2601  -13.8158   20.5666 C   0  0  0  0  0  0
  -24.1837  -13.0433   20.9150 C   0  0  0  0  0  0
  -24.6387  -11.6898   20.8695 C   0  0  0  0  0  0
  -23.9049  -10.4288   21.0378 C   0  0  0  0  0  0
  -24.3601   -9.4220   21.9175 C   0  0  0  0  0  0
  -23.6275   -8.2262   22.0757 C   0  0  0  0  0  0
  -22.4269   -8.0291   21.3536 C   0  0  0  0  0  0
  -21.9899   -9.0249   20.4631 C   0  0  0  0  0  0
  -22.7225  -10.2126   20.3023 C   0  0  0  0  0  0
  -21.6867   -6.0740   22.5274 C   0  0  0  0  0  0
  -21.4018   -6.5642   23.8209 C   0  0  0  0  0  0
  -21.3650   -5.6788   24.9163 C   0  0  0  0  0  0
  -21.6028   -4.3048   24.7213 C   0  0  0  0  0  0
  -21.8833   -3.8145   23.4342 C   0  0  0  0  0  0
  -21.9200   -4.6964   22.3394 C   0  0  0  0  0  0
  -22.7869  -13.5241   21.1812 C   0  0  0  0  0  0
  -22.1672   -4.2152   21.0972 F   0  0  0  0  0  0
  -21.5611   -3.4529   25.7724 F   0  0  0  0  0  0
  -30.0386  -13.2623   20.4623 N   0  0  0  0  0  0
  -26.3038  -12.9322   20.3380 N   0  0  0  0  0  0
  -25.9317  -11.6478   20.5742 N   0  0  0  0  0  0
  -22.0507  -12.8202   22.0357 N   0  0  0  0  0  0
  -25.4332  -15.1873   20.4076 N   0  0  0  0  0  0
  -31.8166  -14.6524   20.1442 O   0  0  0  0  0  0
  -21.6645   -6.8880   21.4238 O   0  0  0  0  0  0
  -22.3558  -14.5556   20.6689 O   0  0  0  0  0  0
  -24.6101  -31.8694   23.2125 C   0  0  0  0  0  0
  -25.9018  -32.4826   23.8414 C   0  0  1  0  0  0
  -27.2464  -27.4668   20.1218 C   0  0  0  0  0  0
  -25.5915  -33.8628   24.2381 N   0  0  0  0  0  0
  -23.3947  -30.4913   21.5516 C   0  0  2  0  0  0
  -24.8430  -28.9547   20.1227 C   0  0  0  0  0  0
  -22.7377  -29.4671   22.5025 C   0  0  0  0  0  0
  -18.0262  -28.1366   22.8483 C   0  0  0  0  0  0
  -24.1474  -36.7299   23.2644 C   0  0  0  0  0  0
  -25.9128  -30.8567   21.3448 C   0  0  0  0  0  0
  -25.9966  -29.4850   20.7124 C   0  0  0  0  0  0
  -27.2005  -28.7538   20.7071 C   0  0  0  0  0  0
  -26.0809  -26.9492   19.5199 C   0  0  0  0  0  0
  -24.8781  -27.6825   19.5236 C   0  0  0  0  0  0
  -23.6010  -29.8145   20.1685 C   0  0  0  0  0  0
  -25.4092  -36.3115   24.0360 C   0  0  1  0  0  0
  -20.5848  -28.3644   23.1324 C   0  0  2  0  0  0
  -20.6745  -26.9394   22.5396 C   0  0  0  0  0  0
  -19.5728  -26.6382   21.5197 C   0  0  0  0  0  0
  -18.1913  -26.7918   22.1606 C   0  0  0  0  0  0
  -19.1511  -28.8822   23.2900 C   0  0  0  0  0  0
  -18.9443  -30.1430   23.8906 C   0  0  0  0  0  0
  -17.6448  -30.6577   24.0563 C   0  0  0  0  0  0
  -25.9023  -34.9477   23.5154 C   0  0  0  0  0  0
  -16.5336  -29.9070   23.6337 C   0  0  0  0  0  0
  -16.7254  -28.6483   23.0354 C   0  0  0  0  0  0
  -26.4493  -31.6555   25.0684 C   0  0  0  0  0  0
  -25.3804  -31.3510   26.1432 C   0  0  0  0  0  0
  -27.0384  -30.3071   24.5913 C   0  0  0  0  0  0
  -27.6064  -32.4252   25.7494 C   0  0  0  0  0  0
  -27.5560  -37.1824   24.8481 C   0  0  0  0  0  0
  -21.4109  -29.3032   22.3752 N   0  0  0  0  0  0
  -26.4275  -37.3800   23.9424 N   0  0  0  0  0  0
  -24.6584  -31.0863   22.0974 N   0  0  0  0  0  0
  -23.4169  -28.8225   23.3060 O   0  0  0  0  0  0
  -28.3918  -26.7064   20.0636 O   0  0  0  0  0  0
  -26.5565  -34.8913   22.4698 O   0  0  0  0  0  0
  -23.5310  -32.1416   23.7575 O   0  0  0  0  0  0
  -28.9394  -24.1271   24.0945 C   0  0  0  0  0  0
  -29.2823  -22.9047   22.0193 C   0  0  0  0  0  0
  -28.9261  -25.3416   23.3776 C   0  0  0  0  0  0
  -29.2838  -24.1209   21.3048 C   0  0  0  0  0  0
  -29.1464  -22.8991   23.4278 C   0  0  0  0  0  0
  -29.1190  -25.3477   21.9808 C   0  0  0  0  0  0
  -30.2986  -20.5809   23.7842 C   0  0  0  0  0  0
  -28.2993  -19.4651   24.5648 C   0  0  0  0  0  0
  -29.2303  -21.6034   24.2412 C   0  0  2  0  0  0
  -29.5841  -19.2145   23.7623 C   0  0  1  0  0  0
  -30.7298  -17.5496   20.2751 C   0  0  0  0  0  0
  -29.2250  -26.6652   21.2253 C   0  0  0  0  0  0
  -29.0526  -17.4299   22.1806 C   0  0  0  0  0  0
  -30.3170  -16.7879   21.5586 C   0  0  1  0  0  0
  -30.0166  -15.3723   21.3108 N   0  0  0  0  0  0
  -29.2259  -18.8641   22.3878 N   0  0  0  0  0  0
  -27.9628  -20.8629   24.2588 N   0  3  0  0  0  0
  -31.4701  -12.4155   19.1180 H   0  0  0  0  0  0
  -30.3249  -11.2860   19.7887 H   0  0  0  0  0  0
  -29.7354  -11.8276   17.4075 H   0  0  0  0  0  0
  -29.6656  -13.5301   17.7941 H   0  0  0  0  0  0
  -27.8158  -11.3320   18.7829 H   0  0  0  0  0  0
  -27.3709  -12.6909   17.7870 H   0  0  0  0  0  0
  -27.7207  -14.2601   19.6122 H   0  0  0  0  0  0
  -28.6736  -11.9015   21.3014 H   0  0  0  0  0  0
  -28.4553  -13.5090   21.9011 H   0  0  0  0  0  0
  -25.2748   -9.5714   22.4745 H   0  0  0  0  0  0
  -23.9985   -7.4666   22.7481 H   0  0  0  0  0  0
  -21.0840   -8.8751   19.8929 H   0  0  0  0  0  0
  -22.3690  -10.9649   19.6110 H   0  0  0  0  0  0
  -21.2024   -7.6158   23.9707 H   0  0  0  0  0  0
  -21.1441   -6.0518   25.9056 H   0  0  0  0  0  0
  -22.0616   -2.7609   23.2834 H   0  0  0  0  0  0
  -22.4100  -11.9834   22.4699 H   0  0  0  0  0  0
  -21.1123  -13.1219   22.2538 H   0  0  0  0  0  0
  -24.6632  -15.8421   20.4947 H   0  0  0  0  0  0
  -26.2892  -15.6227   20.0864 H   0  0  0  0  0  0
  -26.7102  -32.5585   23.1211 H   0  0  0  0  0  0
  -25.0159  -33.9810   25.0585 H   0  0  0  0  0  0
  -22.6811  -31.3063   21.4109 H   0  0  0  0  0  0
  -23.3741  -35.9625   23.3305 H   0  0  0  0  0  0
  -24.3577  -36.8908   22.2061 H   0  0  0  0  0  0
  -23.7201  -37.6492   23.6638 H   0  0  0  0  0  0
  -25.9896  -31.6090   20.5570 H   0  0  0  0  0  0
  -26.8144  -30.9419   21.9380 H   0  0  0  0  0  0
  -28.0847  -29.2018   21.1360 H   0  0  0  0  0  0
  -26.1048  -25.9705   19.0608 H   0  0  0  0  0  0
  -23.9916  -27.2635   19.0684 H   0  0  0  0  0  0
  -23.7040  -30.5839   19.4025 H   0  0  0  0  0  0
  -22.7281  -29.2262   19.8808 H   0  0  0  0  0  0
  -25.1267  -36.1975   25.0860 H   0  0  0  0  0  0
  -20.9942  -28.3186   24.1442 H   0  0  0  0  0  0
  -20.5642  -26.2264   23.3574 H   0  0  0  0  0  0
  -21.6613  -26.7446   22.1187 H   0  0  0  0  0  0
  -19.6882  -25.6298   21.1223 H   0  0  0  0  0  0
  -19.6671  -27.3188   20.6726 H   0  0  0  0  0  0
  -17.4192  -26.6700   21.3996 H   0  0  0  0  0  0
  -18.0297  -26.0031   22.8968 H   0  0  0  0  0  0
  -19.7922  -30.7254   24.2262 H   0  0  0  0  0  0
  -17.5002  -31.6272   24.5131 H   0  0  0  0  0  0
  -15.5335  -30.2982   23.7646 H   0  0  0  0  0  0
  -15.8651  -28.0808   22.7070 H   0  0  0  0  0  0
  -24.6059  -30.6791   25.7724 H   0  0  0  0  0  0
  -24.8907  -32.2587   26.4957 H   0  0  0  0  0  0
  -25.8228  -30.8637   27.0136 H   0  0  0  0  0  0
  -26.2901  -29.6744   24.1125 H   0  0  0  0  0  0
  -27.4475  -29.7340   25.4242 H   0  0  0  0  0  0
  -27.8547  -30.4528   23.8836 H   0  0  0  0  0  0
  -27.2704  -33.3578   26.2033 H   0  0  0  0  0  0
  -28.3924  -32.6745   25.0359 H   0  0  0  0  0  0
  -28.0645  -31.8367   26.5451 H   0  0  0  0  0  0
  -28.2571  -38.0132   24.7548 H   0  0  0  0  0  0
  -28.1081  -36.2666   24.6294 H   0  0  0  0  0  0
  -27.2290  -37.1433   25.8891 H   0  0  0  0  0  0
  -20.9254  -29.8751   21.6972 H   0  0  0  0  0  0
  -26.0154  -38.2876   24.1416 H   0  0  0  0  0  0
  -28.8060  -24.1522   25.1681 H   0  0  0  0  0  0
  -29.4161  -21.9808   21.4736 H   0  0  0  0  0  0
  -28.7894  -26.2701   23.9143 H   0  0  0  0  0  0
  -29.4360  -24.1131   20.2348 H   0  0  0  0  0  0
  -31.1145  -20.5706   24.5098 H   0  0  0  0  0  0
  -30.7616  -20.8210   22.8284 H   0  0  0  0  0  0
  -28.5018  -19.3698   25.6335 H   0  0  0  0  0  0
  -27.4826  -18.7836   24.3236 H   0  0  0  0  0  0
  -29.4517  -21.8658   25.2778 H   0  0  0  0  0  0
  -30.2143  -18.4420   24.2073 H   0  0  0  0  0  0
  -31.0043  -18.5833   20.4894 H   0  0  0  0  0  0
  -29.9211  -17.5665   19.5421 H   0  0  0  0  0  0
  -31.6061  -17.1169   19.7957 H   0  0  0  0  0  0
  -30.2574  -26.7846   20.8978 H   0  0  0  0  0  0
  -29.0518  -27.4800   21.9256 H   0  0  0  0  0  0
  -28.7531  -16.9266   23.1020 H   0  0  0  0  0  0
  -28.2215  -17.3037   21.4835 H   0  0  0  0  0  0
  -31.1359  -16.8360   22.2797 H   0  0  0  0  0  0
  -29.1304  -15.0531   21.6726 H   0  0  0  0  0  0
  -29.9432  -19.1725   21.7395 H   0  0  0  0  0  0
  -27.2929  -21.2523   24.8998 H   0  0  0  0  0  0
  -27.5874  -20.8761   23.3249 H   0  0  0  0  0  0
  1 25  1  0  0  0
  1 30  2  0  0  0
  1 85  1  0  0  0
  2  3  1  0  0  0
  2 25  1  0  0  0
  2 88  1  0  0  0
  2 89  1  0  0  0
  3  4  1  0  0  0
  3 90  1  0  0  0
  3 91  1  0  0  0
  4  5  1  0  0  0
  4 92  1  0  0  0
  4 93  1  0  0  0
  5  6  1  0  0  0
  5 26  1  0  0  0
  5 94  1  0  0  0
  6 25  1  0  0  0
  6 95  1  0  0  0
  6 96  1  0  0  0
  7  8  2  0  0  0
  7 26  1  0  0  0
  7 29  1  0  0  0
  8  9  1  0  0  0
  8 22  1  0  0  0
  9 10  1  0  0  0
  9 27  2  0  0  0
 10 11  2  0  0  0
 10 15  1  0  0  0
 11 12  1  0  0  0
 11 97  1  0  0  0
 12 13  2  0  0  0
 12 98  1  0  0  0
 13 14  1  0  0  0
 13 31  1  0  0  0
 14 15  2  0  0  0
 14 99  1  0  0  0
 15100  1  0  0  0
 16 17  2  0  0  0
 16 21  1  0  0  0
 16 31  1  0  0  0
 17 18  1  0  0  0
 17101  1  0  0  0
 18 19  2  0  0  0
 18102  1  0  0  0
 19 20  1  0  0  0
 19 24  1  0  0  0
 20 21  2  0  0  0
 20103  1  0  0  0
 21 23  1  0  0  0
 22 28  1  0  0  0
 22 32  2  0  0  0
 26 27  1  0  0  0
 28104  1  0  0  0
 28105  1  0  0  0
 29106  1  0  0  0
 29107  1  0  0  0
 33 34  1  0  0  0
 33 66  1  0  0  0
 33 70  2  0  0  0
 34 36  1  0  0  0
 34 59  1  0  0  0
 34108  1  0  0  0
 35 44  2  0  0  0
 35 45  1  0  0  0
 35 68  1  0  0  0
 36 56  1  0  0  0
 36109  1  0  0  0
 37 39  1  0  0  0
 37 47  1  0  0  0
 37 66  1  0  0  0
 37110  1  0  0  0
 38 43  2  0  0  0
 38 46  1  0  0  0
 38 47  1  0  0  0
 39 64  1  0  0  0
 39 67  2  0  0  0
 40 52  1  0  0  0
 40 53  2  0  0  0
 40 58  1  0  0  0
 41111  1  0  0  0
 41112  1  0  0  0
 41113  1  0  0  0
 41 48  1  0  0  0
 42 43  1  0  0  0
 42 66  1  0  0  0
 42114  1  0  0  0
 42115  1  0  0  0
 43 44  1  0  0  0
 44116  1  0  0  0
 45 46  2  0  0  0
 45117  1  0  0  0
 46118  1  0  0  0
 47119  1  0  0  0
 47120  1  0  0  0
 48 56  1  0  0  0
 48 65  1  0  0  0
 48121  1  0  0  0
 49 50  1  0  0  0
 49 53  1  0  0  0
 49 64  1  0  0  0
 49122  1  0  0  0
 50 51  1  0  0  0
 50123  1  0  0  0
 50124  1  0  0  0
 51 52  1  0  0  0
 51125  1  0  0  0
 51126  1  0  0  0
 52127  1  0  0  0
 52128  1  0  0  0
 53 54  1  0  0  0
 54 55  2  0  0  0
 54129  1  0  0  0
 55 57  1  0  0  0
 55130  1  0  0  0
 56 69  2  0  0  0
 57 58  2  0  0  0
 57131  1  0  0  0
 58132  1  0  0  0
 59 60  1  0  0  0
 59 61  1  0  0  0
 59 62  1  0  0  0
 60133  1  0  0  0
 60134  1  0  0  0
 60135  1  0  0  0
 61136  1  0  0  0
 61137  1  0  0  0
 61138  1  0  0  0
 62139  1  0  0  0
 62140  1  0  0  0
 62141  1  0  0  0
 63 65  1  0  0  0
 63142  1  0  0  0
 63143  1  0  0  0
 63144  1  0  0  0
 64145  1  0  0  0
 65146  1  0  0  0
 68 82  1  0  0  0
 71 73  2  0  0  0
 71 75  1  0  0  0
 71147  1  0  0  0
 72 74  1  0  0  0
 72 75  2  0  0  0
 72148  1  0  0  0
 73 76  1  0  0  0
 73149  1  0  0  0
 74 76  2  0  0  0
 74150  1  0  0  0
 75 79  1  0  0  0
 76 82  1  0  0  0
 77 79  1  0  0  0
 77 80  1  0  0  0
 77151  1  0  0  0
 77152  1  0  0  0
 78 80  1  0  0  0
 78 87  1  0  0  0
 78153  1  0  0  0
 78154  1  0  0  0
 79 87  1  0  0  0
 79155  1  0  0  0
 80 86  1  0  0  0
 80156  1  0  0  0
 81157  1  0  0  0
 81158  1  0  0  0
 81159  1  0  0  0
 81 84  1  0  0  0
 82160  1  0  0  0
 82161  1  0  0  0
 83 84  1  0  0  0
 83 86  1  0  0  0
 83162  1  0  0  0
 83163  1  0  0  0
 84 85  1  0  0  0
 84164  1  0  0  0
 85165  1  0  0  0
 86166  1  0  0  0
 87167  1  0  0  0
 87168  1  0  0  0
M  CHG  1  87   1
M  ISO  4   1 100  68 101  82 101  85 100
M  END
> <chiral flag>
0

> <version>
0

> <s_m_source_file>
/data/baiqing/PycharmProjects/Reinvent-master-3.2/result/LINK_invent/BTK/process_docking_weight1_custom_sum_contain_oxygen_bond_distance_aromatic_linkinvent_7_9_3/rearranged_h_0128.sdf

> <i_m_source_file_index>
49

> <r_mmod_Potential_Energy-OPLS-2005>
-208.61540222168

> <r_mmod_Stretch_Energy-OPLS-2005>
34.9294471740723

> <r_mmod_Bend_Energy-OPLS-2005>
126.34236907959

> <r_mmod_Torsional_Energy-OPLS-2005>
274.697296142578

> <r_mmod_Improper_Torsional_Energy-OPLS-2005>
2.88957452774048

> <r_mmod_Van_der_Waal_Energy-OPLS-2005>
155.855422973633

> <r_mmod_Electrostatic_Energy-OPLS-2005>
-352.379058837891

> <r_mmod_Solvation_Energy-OPLS-2005>
-458.777954101562

> <b_mmod_Minimization_Converged-OPLS-2005>
0

> <r_mmod_RMS_Derivative-OPLS-2005>
2.79938340187073

$$$$
49
                    3D
 Structure written by MMmdl.
181190  0  0  1  0            999 V2000
  -30.7992  -14.3042   20.7148 C   0  0  0  0  0  0
  -30.4064  -12.2678   19.3879 C   0  0  0  0  0  0
  -29.4787  -12.5314   18.1896 C   0  0  0  0  0  0
  -28.0038  -12.3915   18.6057 C   0  0  0  0  0  0
  -27.6673  -13.2046   19.8826 C   0  0  2  0  0  0
  -28.7012  -12.9342   20.9974 C   0  0  0  0  0  0
  -25.2602  -13.8169   20.5667 C   0  0  0  0  0  0
  -24.1848  -13.0446   20.9160 C   0  0  0  0  0  0
  -24.6402  -11.6913   20.8728 C   0  0  0  0  0  0
  -23.9070  -10.4297   21.0402 C   0  0  0  0  0  0
  -24.3623   -9.4214   21.9186 C   0  0  0  0  0  0
  -23.6296   -8.2253   22.0759 C   0  0  0  0  0  0
  -22.4276   -8.0288   21.3547 C   0  0  0  0  0  0
  -21.9919   -9.0258   20.4642 C   0  0  0  0  0  0
  -22.7252  -10.2137   20.3049 C   0  0  0  0  0  0
  -21.6855   -6.0742   22.5279 C   0  0  0  0  0  0
  -21.4009   -6.5645   23.8214 C   0  0  0  0  0  0
  -21.3652   -5.6793   24.9172 C   0  0  0  0  0  0
  -21.6045   -4.3058   24.7223 C   0  0  0  0  0  0
  -21.8819   -3.8153   23.4345 C   0  0  0  0  0  0
  -21.9194   -4.6969   22.3401 C   0  0  0  0  0  0
  -22.7867  -13.5238   21.1828 C   0  0  0  0  0  0
  -22.1663   -4.2158   21.0980 F   0  0  0  0  0  0
  -21.5628   -3.4539   25.7737 F   0  0  0  0  0  0
  -30.0507  -13.2019   20.4653 N   0  0  0  0  0  0
  -26.3048  -12.9342   20.3385 N   0  0  0  0  0  0
  -25.9329  -11.6497   20.5764 N   0  0  0  0  0  0
  -22.0505  -12.8223   22.0378 N   0  0  0  0  0  0
  -25.4325  -15.1886   20.4064 N   0  0  0  0  0  0
  -31.8022  -14.5967   20.0575 O   0  0  0  0  0  0
  -21.6639   -6.8886   21.4244 O   0  0  0  0  0  0
  -22.3557  -14.5557   20.6699 O   0  0  0  0  0  0
  -24.6094  -31.8731   23.2149 C   0  0  0  0  0  0
  -25.9010  -32.4854   23.8436 C   0  0  1  0  0  0
  -27.2405  -27.4925   20.0812 C   0  0  0  0  0  0
  -25.5889  -33.8658   24.2371 N   0  0  0  0  0  0
  -23.3947  -30.4928   21.5554 C   0  0  2  0  0  0
  -24.8408  -28.9523   20.1329 C   0  0  0  0  0  0
  -22.7366  -29.4690   22.5061 C   0  0  0  0  0  0
  -18.0248  -28.1381   22.8503 C   0  0  0  0  0  0
  -24.1477  -36.7329   23.2636 C   0  0  0  0  0  0
  -25.9171  -30.8466   21.3649 C   0  0  0  0  0  0
  -25.9946  -29.4786   20.7288 C   0  0  0  0  0  0
  -27.1976  -28.7493   20.7150 C   0  0  0  0  0  0
  -26.0731  -26.9498   19.5091 C   0  0  0  0  0  0
  -24.8691  -27.6805   19.5318 C   0  0  0  0  0  0
  -23.6015  -29.8151   20.1742 C   0  0  0  0  0  0
  -25.4101  -36.3147   24.0341 C   0  0  1  0  0  0
  -20.5829  -28.3668   23.1338 C   0  0  2  0  0  0
  -20.6748  -26.9416   22.5421 C   0  0  0  0  0  0
  -19.5728  -26.6392   21.5221 C   0  0  0  0  0  0
  -18.1900  -26.7930   22.1622 C   0  0  0  0  0  0
  -19.1492  -28.8840   23.2916 C   0  0  0  0  0  0
  -18.9431  -30.1439   23.8939 C   0  0  0  0  0  0
  -17.6434  -30.6595   24.0572 C   0  0  0  0  0  0
  -25.9032  -34.9501   23.5155 C   0  0  0  0  0  0
  -16.5326  -29.9098   23.6327 C   0  0  0  0  0  0
  -16.7236  -28.6503   23.0373 C   0  0  0  0  0  0
  -26.4444  -31.6611   25.0745 C   0  0  0  0  0  0
  -25.3719  -31.3661   26.1495 C   0  0  0  0  0  0
  -27.0291  -30.3069   24.6099 C   0  0  0  0  0  0
  -27.6028  -32.4323   25.7514 C   0  0  0  0  0  0
  -27.5584  -37.1817   24.8455 C   0  0  0  0  0  0
  -21.4106  -29.3044   22.3772 N   0  0  0  0  0  0
  -26.4290  -37.3829   23.9407 N   0  0  0  0  0  0
  -24.6582  -31.0854   22.1036 N   0  0  0  0  0  0
  -23.4153  -28.8249   23.3103 O   0  0  0  0  0  0
  -28.4417  -26.8657   19.8986 O   0  0  0  0  0  0
  -26.5596  -34.8936   22.4719 O   0  0  0  0  0  0
  -23.5296  -32.1473   23.7555 O   0  0  0  0  0  0
  -32.3745  -18.5185   19.4964 C   0  0  0  0  0  0
  -32.3108  -17.6157   20.5695 C   0  0  0  0  0  0
  -29.9696  -18.8877   19.6753 C   0  0  0  0  0  0
  -31.2038  -19.1587   19.0478 C   0  0  0  0  0  0
  -31.0779  -17.3263   21.1901 C   0  0  0  0  0  0
  -29.8976  -17.9725   20.7462 C   0  0  0  0  0  0
  -33.3052  -24.1418   18.9727 C   0  0  0  0  0  0
  -33.5136  -25.3105   19.9399 C   0  0  0  0  0  0
  -31.1124  -25.1604   18.3192 C   0  0  0  0  0  0
  -31.8009  -23.8780   18.8145 C   0  0  1  0  0  0
  -32.7621  -26.5852   19.4959 C   0  0  2  0  0  0
  -28.5510  -17.6974   21.3970 C   0  0  0  0  0  0
  -33.0106  -27.6944   20.5388 C   0  0  0  0  0  0
  -31.0475  -16.2411   22.2581 C   0  0  0  0  0  0
  -31.2938  -20.1945   17.9475 C   0  0  0  0  0  0
  -31.4921  -22.6803   17.8905 C   0  0  0  0  0  0
  -30.5436  -27.5158   18.8227 C   0  0  0  0  0  0
  -29.0305  -27.2907   18.6627 C   0  0  0  0  0  0
  -30.4143  -15.0176   21.7792 N   0  0  0  0  0  0
  -31.3066  -26.3082   19.2542 N   0  3  1  0  0  0
  -31.8569  -21.4123   18.5463 N   0  3  0  0  0  0
  -31.4511  -12.3544   19.0833 H   0  0  0  0  0  0
  -30.2911  -11.2415   19.7402 H   0  0  0  0  0  0
  -29.7057  -11.8392   17.3781 H   0  0  0  0  0  0
  -29.6577  -13.5337   17.7977 H   0  0  0  0  0  0
  -27.8016  -11.3329   18.7726 H   0  0  0  0  0  0
  -27.3539  -12.6981   17.7858 H   0  0  0  0  0  0
  -27.7305  -14.2608   19.6197 H   0  0  0  0  0  0
  -28.6483  -11.8922   21.3171 H   0  0  0  0  0  0
  -28.4503  -13.5192   21.8823 H   0  0  0  0  0  0
  -25.2765   -9.5687   22.4761 H   0  0  0  0  0  0
  -23.9999   -7.4642   22.7483 H   0  0  0  0  0  0
  -21.0856   -8.8775   19.8942 H   0  0  0  0  0  0
  -22.3718  -10.9672   19.6152 H   0  0  0  0  0  0
  -21.1998   -7.6150   23.9721 H   0  0  0  0  0  0
  -21.1470   -6.0521   25.9076 H   0  0  0  0  0  0
  -22.0606   -2.7616   23.2842 H   0  0  0  0  0  0
  -22.4105  -11.9867   22.4740 H   0  0  0  0  0  0
  -21.1122  -13.1246   22.2579 H   0  0  0  0  0  0
  -24.6664  -15.8451   20.5071 H   0  0  0  0  0  0
  -26.2883  -15.6236   20.0858 H   0  0  0  0  0  0
  -26.7103  -32.5580   23.1229 H   0  0  0  0  0  0
  -25.0021  -33.9845   25.0503 H   0  0  0  0  0  0
  -22.6837  -31.3089   21.4125 H   0  0  0  0  0  0
  -23.3756  -35.9643   23.3290 H   0  0  0  0  0  0
  -24.3570  -36.8959   22.2053 H   0  0  0  0  0  0
  -23.7199  -37.6517   23.6651 H   0  0  0  0  0  0
  -26.0229  -31.6054   20.5880 H   0  0  0  0  0  0
  -26.8092  -30.9083   21.9773 H   0  0  0  0  0  0
  -28.0971  -29.1683   21.1449 H   0  0  0  0  0  0
  -26.1073  -25.9896   19.0128 H   0  0  0  0  0  0
  -23.9807  -27.2690   19.0724 H   0  0  0  0  0  0
  -23.7065  -30.5832   19.4079 H   0  0  0  0  0  0
  -22.7280  -29.2276   19.8859 H   0  0  0  0  0  0
  -25.1271  -36.2030   25.0831 H   0  0  0  0  0  0
  -20.9907  -28.3229   24.1463 H   0  0  0  0  0  0
  -20.5670  -26.2290   23.3606 H   0  0  0  0  0  0
  -21.6618  -26.7485   22.1203 H   0  0  0  0  0  0
  -19.6891  -25.6307   21.1241 H   0  0  0  0  0  0
  -19.6659  -27.3213   20.6758 H   0  0  0  0  0  0
  -17.4175  -26.6694   21.4010 H   0  0  0  0  0  0
  -18.0289  -26.0060   22.9000 H   0  0  0  0  0  0
  -19.7909  -30.7229   24.2354 H   0  0  0  0  0  0
  -17.4987  -31.6282   24.5168 H   0  0  0  0  0  0
  -15.5327  -30.3016   23.7626 H   0  0  0  0  0  0
  -15.8634  -28.0815   22.7115 H   0  0  0  0  0  0
  -24.5889  -30.7038   25.7781 H   0  0  0  0  0  0
  -24.8922  -32.2794   26.5027 H   0  0  0  0  0  0
  -25.8083  -30.8739   27.0201 H   0  0  0  0  0  0
  -26.2848  -29.6836   24.1137 H   0  0  0  0  0  0
  -27.4048  -29.7295   25.4555 H   0  0  0  0  0  0
  -27.8677  -30.4406   23.9268 H   0  0  0  0  0  0
  -27.2660  -33.3609   26.2137 H   0  0  0  0  0  0
  -28.3823  -32.6912   25.0336 H   0  0  0  0  0  0
  -28.0716  -31.8417   26.5394 H   0  0  0  0  0  0
  -28.2586  -38.0136   24.7569 H   0  0  0  0  0  0
  -28.1101  -36.2674   24.6211 H   0  0  0  0  0  0
  -27.2297  -37.1385   25.8855 H   0  0  0  0  0  0
  -20.9280  -29.8746   21.6970 H   0  0  0  0  0  0
  -26.0185  -38.2904   24.1429 H   0  0  0  0  0  0
  -33.3270  -18.7190   19.0258 H   0  0  0  0  0  0
  -33.2133  -17.1134   20.8897 H   0  0  0  0  0  0
  -29.0724  -19.3867   19.3339 H   0  0  0  0  0  0
  -33.8210  -23.2613   19.3563 H   0  0  0  0  0  0
  -33.7574  -24.3730   18.0070 H   0  0  0  0  0  0
  -34.5815  -25.5201   20.0191 H   0  0  0  0  0  0
  -33.1894  -25.0155   20.9393 H   0  0  0  0  0  0
  -30.0551  -24.9260   18.2183 H   0  0  0  0  0  0
  -31.4723  -25.4320   17.3251 H   0  0  0  0  0  0
  -31.3823  -23.6519   19.7978 H   0  0  0  0  0  0
  -33.1966  -26.9156   18.5510 H   0  0  0  0  0  0
  -27.7740  -18.3510   21.0004 H   0  0  0  0  0  0
  -28.6008  -17.8664   22.4730 H   0  0  0  0  0  0
  -28.2394  -16.6674   21.2236 H   0  0  0  0  0  0
  -32.5041  -27.4821   21.4806 H   0  0  0  0  0  0
  -32.6912  -28.6756   20.1892 H   0  0  0  0  0  0
  -34.0751  -27.7853   20.7585 H   0  0  0  0  0  0
  -30.5188  -16.6034   23.1397 H   0  0  0  0  0  0
  -32.0611  -16.0100   22.5911 H   0  0  0  0  0  0
  -30.2995  -20.3759   17.5369 H   0  0  0  0  0  0
  -31.9224  -19.8429   17.1274 H   0  0  0  0  0  0
  -32.0024  -22.7706   16.9305 H   0  0  0  0  0  0
  -30.4215  -22.6629   17.6766 H   0  0  0  0  0  0
  -30.6575  -28.3254   19.5411 H   0  0  0  0  0  0
  -30.9525  -27.8777   17.8784 H   0  0  0  0  0  0
  -28.7865  -26.5854   17.8697 H   0  0  0  0  0  0
  -28.6103  -28.2391   18.3156 H   0  0  0  0  0  0
  -29.6129  -14.6812   22.2912 H   0  0  0  0  0  0
  -30.9063  -26.0278   20.1391 H   0  0  0  0  0  0
  -32.8574  -21.3148   18.5879 H   0  0  0  0  0  0
  -31.5117  -21.4346   19.4917 H   0  0  0  0  0  0
  1 25  1  0  0  0
  1 30  2  0  0  0
  1 89  1  0  0  0
  2  3  1  0  0  0
  2 25  1  0  0  0
  2 92  1  0  0  0
  2 93  1  0  0  0
  3  4  1  0  0  0
  3 94  1  0  0  0
  3 95  1  0  0  0
  4  5  1  0  0  0
  4 96  1  0  0  0
  4 97  1  0  0  0
  5  6  1  0  0  0
  5 26  1  0  0  0
  5 98  1  0  0  0
  6 25  1  0  0  0
  6 99  1  0  0  0
  6100  1  0  0  0
  7  8  2  0  0  0
  7 26  1  0  0  0
  7 29  1  0  0  0
  8  9  1  0  0  0
  8 22  1  0  0  0
  9 10  1  0  0  0
  9 27  2  0  0  0
 10 11  2  0  0  0
 10 15  1  0  0  0
 11 12  1  0  0  0
 11101  1  0  0  0
 12 13  2  0  0  0
 12102  1  0  0  0
 13 14  1  0  0  0
 13 31  1  0  0  0
 14 15  2  0  0  0
 14103  1  0  0  0
 15104  1  0  0  0
 16 17  2  0  0  0
 16 21  1  0  0  0
 16 31  1  0  0  0
 17 18  1  0  0  0
 17105  1  0  0  0
 18 19  2  0  0  0
 18106  1  0  0  0
 19 20  1  0  0  0
 19 24  1  0  0  0
 20 21  2  0  0  0
 20107  1  0  0  0
 21 23  1  0  0  0
 22 28  1  0  0  0
 22 32  2  0  0  0
 26 27  1  0  0  0
 28108  1  0  0  0
 28109  1  0  0  0
 29110  1  0  0  0
 29111  1  0  0  0
 33 34  1  0  0  0
 33 66  1  0  0  0
 33 70  2  0  0  0
 34 36  1  0  0  0
 34 59  1  0  0  0
 34112  1  0  0  0
 35 44  2  0  0  0
 35 45  1  0  0  0
 35 68  1  0  0  0
 36 56  1  0  0  0
 36113  1  0  0  0
 37 39  1  0  0  0
 37 47  1  0  0  0
 37 66  1  0  0  0
 37114  1  0  0  0
 38 43  2  0  0  0
 38 46  1  0  0  0
 38 47  1  0  0  0
 39 64  1  0  0  0
 39 67  2  0  0  0
 40 52  1  0  0  0
 40 53  2  0  0  0
 40 58  1  0  0  0
 41115  1  0  0  0
 41116  1  0  0  0
 41117  1  0  0  0
 41 48  1  0  0  0
 42 43  1  0  0  0
 42 66  1  0  0  0
 42118  1  0  0  0
 42119  1  0  0  0
 43 44  1  0  0  0
 44120  1  0  0  0
 45 46  2  0  0  0
 45121  1  0  0  0
 46122  1  0  0  0
 47123  1  0  0  0
 47124  1  0  0  0
 48 56  1  0  0  0
 48 65  1  0  0  0
 48125  1  0  0  0
 49 50  1  0  0  0
 49 53  1  0  0  0
 49 64  1  0  0  0
 49126  1  0  0  0
 50 51  1  0  0  0
 50127  1  0  0  0
 50128  1  0  0  0
 51 52  1  0  0  0
 51129  1  0  0  0
 51130  1  0  0  0
 52131  1  0  0  0
 52132  1  0  0  0
 53 54  1  0  0  0
 54 55  2  0  0  0
 54133  1  0  0  0
 55 57  1  0  0  0
 55134  1  0  0  0
 56 69  2  0  0  0
 57 58  2  0  0  0
 57135  1  0  0  0
 58136  1  0  0  0
 59 60  1  0  0  0
 59 61  1  0  0  0
 59 62  1  0  0  0
 60137  1  0  0  0
 60138  1  0  0  0
 60139  1  0  0  0
 61140  1  0  0  0
 61141  1  0  0  0
 61142  1  0  0  0
 62143  1  0  0  0
 62144  1  0  0  0
 62145  1  0  0  0
 63 65  1  0  0  0
 63146  1  0  0  0
 63147  1  0  0  0
 63148  1  0  0  0
 64149  1  0  0  0
 65150  1  0  0  0
 68 88  1  0  0  0
 71 72  2  0  0  0
 71 74  1  0  0  0
 71151  1  0  0  0
 72 75  1  0  0  0
 72152  1  0  0  0
 73 74  2  0  0  0
 73 76  1  0  0  0
 73153  1  0  0  0
 74 85  1  0  0  0
 75 76  2  0  0  0
 75 84  1  0  0  0
 76 82  1  0  0  0
 77 78  1  0  0  0
 77 80  1  0  0  0
 77154  1  0  0  0
 77155  1  0  0  0
 78 81  1  0  0  0
 78156  1  0  0  0
 78157  1  0  0  0
 79 80  1  0  0  0
 79 90  1  0  0  0
 79158  1  0  0  0
 79159  1  0  0  0
 80 86  1  0  0  0
 80160  1  0  0  0
 81 83  1  0  0  0
 81 90  1  0  0  0
 81161  1  0  0  0
 82162  1  0  0  0
 82163  1  0  0  0
 82164  1  0  0  0
 83165  1  0  0  0
 83166  1  0  0  0
 83167  1  0  0  0
 84 89  1  0  0  0
 84168  1  0  0  0
 84169  1  0  0  0
 85 91  1  0  0  0
 85170  1  0  0  0
 85171  1  0  0  0
 86 91  1  0  0  0
 86172  1  0  0  0
 86173  1  0  0  0
 87 88  1  0  0  0
 87174  1  0  0  0
 87175  1  0  0  0
 87 90  1  0  0  0
 88176  1  0  0  0
 88177  1  0  0  0
 89178  1  0  0  0
 90179  1  0  0  0
 91180  1  0  0  0
 91181  1  0  0  0
M  CHG  2  90   1  91   1
M  ISO  4   1 100  68 101  88 101  89 100
M  END
> <chiral flag>
0

> <version>
0

> <s_m_source_file>
/data/baiqing/PycharmProjects/Reinvent-master-3.2/result/LINK_invent/BTK/process_docking_weight1_custom_sum_contain_oxygen_bond_distance_aromatic_linkinvent_7_9_3/rearranged_h_0128.sdf

> <i_m_source_file_index>
50

> <r_mmod_Potential_Energy-OPLS-2005>
-337.154052734375

> <r_mmod_Stretch_Energy-OPLS-2005>
33.9911613464355

> <r_mmod_Bend_Energy-OPLS-2005>
95.3661956787109

> <r_mmod_Torsional_Energy-OPLS-2005>
269.291687011719

> <r_mmod_Improper_Torsional_Energy-OPLS-2005>
2.89491415023804

> <r_mmod_Van_der_Waal_Energy-OPLS-2005>
165.984497070312

> <r_mmod_Electrostatic_Energy-OPLS-2005>
-9.04252624511719

> <r_mmod_Solvation_Energy-OPLS-2005>
-905.503051757812

> <b_mmod_Minimization_Converged-OPLS-2005>
0

> <r_mmod_RMS_Derivative-OPLS-2005>
1.62323641777039

$$$$
50
                    3D
 Structure written by MMmdl.
159167  0  0  1  0            999 V2000
  -30.6830  -14.6330   20.4958 C   0  0  0  0  0  0
  -30.4242  -12.3897   19.4555 C   0  0  0  0  0  0
  -29.4996  -12.4959   18.2247 C   0  0  0  0  0  0
  -28.0240  -12.3421   18.6404 C   0  0  0  0  0  0
  -27.6490  -13.2255   19.8601 C   0  0  2  0  0  0
  -28.6999  -13.1223   20.9893 C   0  0  0  0  0  0
  -25.2535  -13.8195   20.5709 C   0  0  0  0  0  0
  -24.1811  -13.0440   20.9190 C   0  0  0  0  0  0
  -24.6403  -11.6915   20.8750 C   0  0  0  0  0  0
  -23.9073  -10.4287   21.0407 C   0  0  0  0  0  0
  -24.3612   -9.4210   21.9198 C   0  0  0  0  0  0
  -23.6292   -8.2240   22.0765 C   0  0  0  0  0  0
  -22.4275   -8.0272   21.3548 C   0  0  0  0  0  0
  -21.9908   -9.0248   20.4648 C   0  0  0  0  0  0
  -22.7235  -10.2130   20.3062 C   0  0  0  0  0  0
  -21.6864   -6.0726   22.5282 C   0  0  0  0  0  0
  -21.4015   -6.5635   23.8212 C   0  0  0  0  0  0
  -21.3652   -5.6794   24.9180 C   0  0  0  0  0  0
  -21.6041   -4.3057   24.7232 C   0  0  0  0  0  0
  -21.8817   -3.8144   23.4356 C   0  0  0  0  0  0
  -21.9190   -4.6951   22.3409 C   0  0  0  0  0  0
  -22.7831  -13.5223   21.1865 C   0  0  0  0  0  0
  -22.1661   -4.2130   21.0987 F   0  0  0  0  0  0
  -21.5626   -3.4550   25.7754 F   0  0  0  0  0  0
  -30.0106  -13.4415   20.4070 N   0  0  0  0  0  0
  -26.2973  -12.9392   20.3343 N   0  0  0  0  0  0
  -25.9338  -11.6533   20.5791 N   0  0  0  0  0  0
  -22.0480  -12.8179   22.0404 N   0  0  0  0  0  0
  -25.4227  -15.1921   20.4118 N   0  0  0  0  0  0
  -31.8580  -14.7238   20.1384 O   0  0  0  0  0  0
  -21.6648   -6.8865   21.4241 O   0  0  0  0  0  0
  -22.3508  -14.5535   20.6734 O   0  0  0  0  0  0
  -24.6296  -31.8583   23.2035 C   0  0  0  0  0  0
  -25.9146  -32.4758   23.8358 C   0  0  1  0  0  0
  -27.2083  -27.2935   20.0933 C   0  0  0  0  0  0
  -25.5971  -33.8558   24.2277 N   0  0  0  0  0  0
  -23.4230  -30.4907   21.5462 C   0  0  2  0  0  0
  -24.8632  -28.9531   20.1059 C   0  0  0  0  0  0
  -22.7480  -29.4673   22.4917 C   0  0  0  0  0  0
  -18.0293  -28.1406   22.8481 C   0  0  0  0  0  0
  -24.1489  -36.7286   23.2632 C   0  0  0  0  0  0
  -25.9714  -30.7790   21.3808 C   0  0  0  0  0  0
  -26.0387  -29.4085   20.7171 C   0  0  0  0  0  0
  -27.2133  -28.5895   20.7087 C   0  0  0  0  0  0
  -26.0094  -26.9265   19.4275 C   0  0  0  0  0  0
  -24.8525  -27.7184   19.4545 C   0  0  0  0  0  0
  -23.6338  -29.8359   20.1602 C   0  0  0  0  0  0
  -25.4098  -36.3055   24.0320 C   0  0  1  0  0  0
  -20.5896  -28.3735   23.1252 C   0  0  2  0  0  0
  -20.6783  -26.9451   22.5384 C   0  0  0  0  0  0
  -19.5754  -26.6410   21.5200 C   0  0  0  0  0  0
  -18.1939  -26.7952   22.1610 C   0  0  0  0  0  0
  -19.1540  -28.8874   23.2872 C   0  0  0  0  0  0
  -18.9470  -30.1480   23.8898 C   0  0  0  0  0  0
  -17.6468  -30.6603   24.0581 C   0  0  0  0  0  0
  -25.9064  -34.9439   23.5091 C   0  0  0  0  0  0
  -16.5362  -29.9105   23.6349 C   0  0  0  0  0  0
  -16.7276  -28.6522   23.0363 C   0  0  0  0  0  0
  -26.4505  -31.6561   25.0740 C   0  0  0  0  0  0
  -25.3757  -31.3713   26.1491 C   0  0  0  0  0  0
  -27.0321  -30.2960   24.6215 C   0  0  0  0  0  0
  -27.6087  -32.4306   25.7478 C   0  0  0  0  0  0
  -27.5596  -37.1769   24.8448 C   0  0  0  0  0  0
  -21.4186  -29.3112   22.3652 N   0  0  0  0  0  0
  -26.4256  -37.3777   23.9452 N   0  0  0  0  0  0
  -24.6938  -31.0612   22.0984 N   0  0  0  0  0  0
  -23.4192  -28.8189   23.2986 O   0  0  0  0  0  0
  -28.2849  -26.3758   20.1666 O   0  0  0  0  0  0
  -26.5626  -34.8907   22.4657 O   0  0  0  0  0  0
  -23.5453  -32.1391   23.7344 O   0  0  0  0  0  0
  -28.7256  -23.2136   21.4998 C   0  0  0  0  0  0
  -29.1534  -21.8964   21.8259 C   0  0  0  0  0  0
  -28.7752  -23.6821   20.1657 C   0  0  0  0  0  0
  -29.2999  -22.7364   19.2206 C   0  0  0  0  0  0
  -29.6054  -21.0119   20.8240 C   0  0  0  0  0  0
  -28.4316  -22.7254   16.7688 C   0  0  0  0  0  0
  -28.8024  -22.7228   15.2891 C   0  0  0  0  0  0
  -27.9826  -24.9794   19.7378 C   0  0  0  0  0  0
  -29.5405  -23.1101   17.7580 C   0  0  0  0  0  0
  -29.6109  -18.4133   20.5842 C   0  0  0  0  0  0
  -30.5299  -17.1595   20.9457 C   0  0  0  0  0  0
  -29.6894  -21.4545   19.5478 N   0  0  0  0  0  0
  -30.0760  -19.7067   21.1694 N   0  0  0  0  0  0
  -29.9761  -15.7615   20.8140 N   0  0  0  0  0  0
  -27.2799  -22.4559   17.1248 O   0  0  0  0  0  0
  -31.4694  -12.4811   19.1542 H   0  0  0  0  0  0
  -30.3338  -11.4060   19.9197 H   0  0  0  0  0  0
  -29.7595  -11.7337   17.4897 H   0  0  0  0  0  0
  -29.6445  -13.4585   17.7320 H   0  0  0  0  0  0
  -27.8570  -11.2909   18.8791 H   0  0  0  0  0  0
  -27.3688  -12.5666   17.7983 H   0  0  0  0  0  0
  -27.6557  -14.2553   19.5030 H   0  0  0  0  0  0
  -28.7128  -12.1171   21.4145 H   0  0  0  0  0  0
  -28.4577  -13.7960   21.8127 H   0  0  0  0  0  0
  -25.2754   -9.5696   22.4772 H   0  0  0  0  0  0
  -24.0007   -7.4632   22.7493 H   0  0  0  0  0  0
  -21.0833   -8.8749   19.8956 H   0  0  0  0  0  0
  -22.3687  -10.9657   19.6161 H   0  0  0  0  0  0
  -21.2010   -7.6143   23.9708 H   0  0  0  0  0  0
  -21.1475   -6.0534   25.9080 H   0  0  0  0  0  0
  -22.0597   -2.7603   23.2876 H   0  0  0  0  0  0
  -22.4100  -11.9820   22.4745 H   0  0  0  0  0  0
  -21.1102  -13.1197   22.2639 H   0  0  0  0  0  0
  -24.6574  -15.8483   20.5272 H   0  0  0  0  0  0
  -26.2727  -15.6296   20.0782 H   0  0  0  0  0  0
  -26.7221  -32.5390   23.1104 H   0  0  0  0  0  0
  -25.0170  -33.9691   25.0460 H   0  0  0  0  0  0
  -22.7200  -31.3145   21.4079 H   0  0  0  0  0  0
  -23.3764  -35.9609   23.3199 H   0  0  0  0  0  0
  -24.3617  -36.8978   22.2074 H   0  0  0  0  0  0
  -23.7195  -37.6440   23.6707 H   0  0  0  0  0  0
  -26.1111  -31.5390   20.6099 H   0  0  0  0  0  0
  -26.8492  -30.8194   22.0141 H   0  0  0  0  0  0
  -28.1095  -28.9313   21.2082 H   0  0  0  0  0  0
  -25.9038  -26.0029   18.8790 H   0  0  0  0  0  0
  -23.9581  -27.3722   18.9539 H   0  0  0  0  0  0
  -23.7491  -30.6171   19.4090 H   0  0  0  0  0  0
  -22.7506  -29.2719   19.8549 H   0  0  0  0  0  0
  -25.1235  -36.1891   25.0800 H   0  0  0  0  0  0
  -21.0006  -28.3318   24.1355 H   0  0  0  0  0  0
  -20.5700  -26.2338   23.3589 H   0  0  0  0  0  0
  -21.6641  -26.7482   22.1175 H   0  0  0  0  0  0
  -19.6931  -25.6317   21.1239 H   0  0  0  0  0  0
  -19.6688  -27.3212   20.6732 H   0  0  0  0  0  0
  -17.4204  -26.6707   21.4034 H   0  0  0  0  0  0
  -18.0355  -26.0065   22.8980 H   0  0  0  0  0  0
  -19.7949  -30.7308   24.2257 H   0  0  0  0  0  0
  -17.5024  -31.6283   24.5202 H   0  0  0  0  0  0
  -15.5367  -30.3027   23.7667 H   0  0  0  0  0  0
  -15.8666  -28.0851   22.7097 H   0  0  0  0  0  0
  -24.5966  -30.6984   25.7879 H   0  0  0  0  0  0
  -24.8928  -32.2873   26.4917 H   0  0  0  0  0  0
  -25.8128  -30.8943   27.0276 H   0  0  0  0  0  0
  -26.2869  -29.6735   24.1250 H   0  0  0  0  0  0
  -27.3971  -29.7186   25.4727 H   0  0  0  0  0  0
  -27.8769  -30.4160   23.9420 H   0  0  0  0  0  0
  -27.2746  -33.3693   26.1915 H   0  0  0  0  0  0
  -28.3983  -32.6723   25.0344 H   0  0  0  0  0  0
  -28.0657  -31.8501   26.5504 H   0  0  0  0  0  0
  -28.2513  -38.0180   24.7645 H   0  0  0  0  0  0
  -28.1184  -36.2705   24.6043 H   0  0  0  0  0  0
  -27.2356  -37.1143   25.8860 H   0  0  0  0  0  0
  -20.9356  -29.8823   21.6844 H   0  0  0  0  0  0
  -26.0110  -38.2818   24.1555 H   0  0  0  0  0  0
  -28.3102  -23.8415   22.2749 H   0  0  0  0  0  0
  -29.0970  -21.5748   22.8572 H   0  0  0  0  0  0
  -29.1827  -23.7007   14.9944 H   0  0  0  0  0  0
  -27.9353  -22.4901   14.6718 H   0  0  0  0  0  0
  -29.5744  -21.9788   15.0895 H   0  0  0  0  0  0
  -27.0022  -24.7210   20.1382 H   0  0  0  0  0  0
  -27.8732  -24.9824   18.6541 H   0  0  0  0  0  0
  -30.4645  -22.6359   17.4267 H   0  0  0  0  0  0
  -29.7202  -24.1822   17.6825 H   0  0  0  0  0  0
  -28.6080  -18.2364   20.9746 H   0  0  0  0  0  0
  -29.5076  -18.5128   19.5028 H   0  0  0  0  0  0
  -30.8332  -17.2437   21.9904 H   0  0  0  0  0  0
  -31.4552  -17.2431   20.3719 H   0  0  0  0  0  0
  -30.2405  -19.6144   22.1661 H   0  0  0  0  0  0
  -29.0028  -15.6281   21.0434 H   0  0  0  0  0  0
  1 25  1  0  0  0
  1 30  2  0  0  0
  1 84  1  0  0  0
  2  3  1  0  0  0
  2 25  1  0  0  0
  2 86  1  0  0  0
  2 87  1  0  0  0
  3  4  1  0  0  0
  3 88  1  0  0  0
  3 89  1  0  0  0
  4  5  1  0  0  0
  4 90  1  0  0  0
  4 91  1  0  0  0
  5  6  1  0  0  0
  5 26  1  0  0  0
  5 92  1  0  0  0
  6 25  1  0  0  0
  6 93  1  0  0  0
  6 94  1  0  0  0
  7  8  2  0  0  0
  7 26  1  0  0  0
  7 29  1  0  0  0
  8  9  1  0  0  0
  8 22  1  0  0  0
  9 10  1  0  0  0
  9 27  2  0  0  0
 10 11  2  0  0  0
 10 15  1  0  0  0
 11 12  1  0  0  0
 11 95  1  0  0  0
 12 13  2  0  0  0
 12 96  1  0  0  0
 13 14  1  0  0  0
 13 31  1  0  0  0
 14 15  2  0  0  0
 14 97  1  0  0  0
 15 98  1  0  0  0
 16 17  2  0  0  0
 16 21  1  0  0  0
 16 31  1  0  0  0
 17 18  1  0  0  0
 17 99  1  0  0  0
 18 19  2  0  0  0
 18100  1  0  0  0
 19 20  1  0  0  0
 19 24  1  0  0  0
 20 21  2  0  0  0
 20101  1  0  0  0
 21 23  1  0  0  0
 22 28  1  0  0  0
 22 32  2  0  0  0
 26 27  1  0  0  0
 28102  1  0  0  0
 28103  1  0  0  0
 29104  1  0  0  0
 29105  1  0  0  0
 33 34  1  0  0  0
 33 66  1  0  0  0
 33 70  2  0  0  0
 34 36  1  0  0  0
 34 59  1  0  0  0
 34106  1  0  0  0
 35 44  2  0  0  0
 35 45  1  0  0  0
 35 68  1  0  0  0
 36 56  1  0  0  0
 36107  1  0  0  0
 37 39  1  0  0  0
 37 47  1  0  0  0
 37 66  1  0  0  0
 37108  1  0  0  0
 38 43  2  0  0  0
 38 46  1  0  0  0
 38 47  1  0  0  0
 39 64  1  0  0  0
 39 67  2  0  0  0
 40 52  1  0  0  0
 40 53  2  0  0  0
 40 58  1  0  0  0
 41109  1  0  0  0
 41110  1  0  0  0
 41111  1  0  0  0
 41 48  1  0  0  0
 42 43  1  0  0  0
 42 66  1  0  0  0
 42112  1  0  0  0
 42113  1  0  0  0
 43 44  1  0  0  0
 44114  1  0  0  0
 45 46  2  0  0  0
 45115  1  0  0  0
 46116  1  0  0  0
 47117  1  0  0  0
 47118  1  0  0  0
 48 56  1  0  0  0
 48 65  1  0  0  0
 48119  1  0  0  0
 49 50  1  0  0  0
 49 53  1  0  0  0
 49 64  1  0  0  0
 49120  1  0  0  0
 50 51  1  0  0  0
 50121  1  0  0  0
 50122  1  0  0  0
 51 52  1  0  0  0
 51123  1  0  0  0
 51124  1  0  0  0
 52125  1  0  0  0
 52126  1  0  0  0
 53 54  1  0  0  0
 54 55  2  0  0  0
 54127  1  0  0  0
 55 57  1  0  0  0
 55128  1  0  0  0
 56 69  2  0  0  0
 57 58  2  0  0  0
 57129  1  0  0  0
 58130  1  0  0  0
 59 60  1  0  0  0
 59 61  1  0  0  0
 59 62  1  0  0  0
 60131  1  0  0  0
 60132  1  0  0  0
 60133  1  0  0  0
 61134  1  0  0  0
 61135  1  0  0  0
 61136  1  0  0  0
 62137  1  0  0  0
 62138  1  0  0  0
 62139  1  0  0  0
 63 65  1  0  0  0
 63140  1  0  0  0
 63141  1  0  0  0
 63142  1  0  0  0
 64143  1  0  0  0
 65144  1  0  0  0
 68 78  1  0  0  0
 71 72  2  0  0  0
 71 73  1  0  0  0
 71145  1  0  0  0
 72 75  1  0  0  0
 72146  1  0  0  0
 73 74  2  0  0  0
 73 78  1  0  0  0
 74 79  1  0  0  0
 74 82  1  0  0  0
 75 82  2  0  0  0
 75 83  1  0  0  0
 76 77  1  0  0  0
 76 79  1  0  0  0
 76 85  2  0  0  0
 77147  1  0  0  0
 77148  1  0  0  0
 77149  1  0  0  0
 78150  1  0  0  0
 78151  1  0  0  0
 79152  1  0  0  0
 79153  1  0  0  0
 80 81  1  0  0  0
 80 83  1  0  0  0
 80154  1  0  0  0
 80155  1  0  0  0
 81 84  1  0  0  0
 81156  1  0  0  0
 81157  1  0  0  0
 83158  1  0  0  0
 84159  1  0  0  0
M  ISO  4   1 100  68 101  78 101  84 100
M  END
> <chiral flag>
0

> <version>
0

> <s_m_source_file>
/data/baiqing/PycharmProjects/Reinvent-master-3.2/result/LINK_invent/BTK/process_docking_weight1_custom_sum_contain_oxygen_bond_distance_aromatic_linkinvent_7_9_3/rearranged_h_0128.sdf

> <i_m_source_file_index>
51

> <r_mmod_Potential_Energy-OPLS-2005>
-154.030349731445

> <r_mmod_Stretch_Energy-OPLS-2005>
84.1059188842773

> <r_mmod_Bend_Energy-OPLS-2005>
159.465301513672

> <r_mmod_Torsional_Energy-OPLS-2005>
222.997451782227

> <r_mmod_Improper_Torsional_Energy-OPLS-2005>
10.1123104095459

> <r_mmod_Van_der_Waal_Energy-OPLS-2005>
152.53303527832

> <r_mmod_Electrostatic_Energy-OPLS-2005>
-581.376586914062

> <r_mmod_Solvation_Energy-OPLS-2005>
-262.356506347656

> <b_mmod_Minimization_Converged-OPLS-2005>
0

> <r_mmod_RMS_Derivative-OPLS-2005>
2.85173153877258

$$$$
51
                    3D
 Structure written by MMmdl.
162171  0  0  1  0            999 V2000
  -30.6785  -14.4960   20.5925 C   0  0  0  0  0  0
  -30.4364  -12.3307   19.4184 C   0  0  0  0  0  0
  -29.4990  -12.5187   18.2060 C   0  0  0  0  0  0
  -28.0203  -12.3656   18.6179 C   0  0  0  0  0  0
  -27.6629  -13.1997   19.8760 C   0  0  2  0  0  0
  -28.7068  -12.9713   20.9934 C   0  0  0  0  0  0
  -25.2578  -13.8113   20.5673 C   0  0  0  0  0  0
  -24.1833  -13.0408   20.9188 C   0  0  0  0  0  0
  -24.6387  -11.6879   20.8736 C   0  0  0  0  0  0
  -23.9042  -10.4278   21.0400 C   0  0  0  0  0  0
  -24.3599   -9.4200   21.9180 C   0  0  0  0  0  0
  -23.6285   -8.2227   22.0746 C   0  0  0  0  0  0
  -22.4266   -8.0267   21.3536 C   0  0  0  0  0  0
  -21.9895   -9.0239   20.4638 C   0  0  0  0  0  0
  -22.7214  -10.2122   20.3047 C   0  0  0  0  0  0
  -21.6847   -6.0731   22.5283 C   0  0  0  0  0  0
  -21.4013   -6.5640   23.8218 C   0  0  0  0  0  0
  -21.3659   -5.6788   24.9178 C   0  0  0  0  0  0
  -21.6043   -4.3047   24.7224 C   0  0  0  0  0  0
  -21.8825   -3.8144   23.4346 C   0  0  0  0  0  0
  -21.9195   -4.6960   22.3404 C   0  0  0  0  0  0
  -22.7861  -13.5224   21.1852 C   0  0  0  0  0  0
  -22.1659   -4.2151   21.0978 F   0  0  0  0  0  0
  -21.5628   -3.4531   25.7735 F   0  0  0  0  0  0
  -30.0381  -13.3013   20.4493 N   0  0  0  0  0  0
  -26.3023  -12.9283   20.3356 N   0  0  0  0  0  0
  -25.9311  -11.6453   20.5756 N   0  0  0  0  0  0
  -22.0483  -12.8228   22.0402 N   0  0  0  0  0  0
  -25.4253  -15.1823   20.4071 N   0  0  0  0  0  0
  -31.7829  -14.7389   20.0999 O   0  0  0  0  0  0
  -21.6628   -6.8867   21.4241 O   0  0  0  0  0  0
  -22.3561  -14.5536   20.6699 O   0  0  0  0  0  0
  -24.6159  -31.8670   23.2090 C   0  0  0  0  0  0
  -25.9044  -32.4820   23.8400 C   0  0  1  0  0  0
  -27.2413  -27.4251   20.1010 C   0  0  0  0  0  0
  -25.5889  -33.8618   24.2328 N   0  0  0  0  0  0
  -23.4066  -30.4884   21.5492 C   0  0  2  0  0  0
  -24.8579  -28.9512   20.1163 C   0  0  0  0  0  0
  -22.7424  -29.4652   22.4987 C   0  0  0  0  0  0
  -18.0272  -28.1373   22.8494 C   0  0  0  0  0  0
  -24.1483  -36.7319   23.2640 C   0  0  0  0  0  0
  -25.9367  -30.8282   21.3659 C   0  0  0  0  0  0
  -26.0179  -29.4604   20.7158 C   0  0  0  0  0  0
  -27.2153  -28.7037   20.7084 C   0  0  0  0  0  0
  -26.0687  -26.9326   19.4949 C   0  0  0  0  0  0
  -24.8781  -27.6854   19.5032 C   0  0  0  0  0  0
  -23.6184  -29.8179   20.1651 C   0  0  0  0  0  0
  -25.4101  -36.3115   24.0345 C   0  0  1  0  0  0
  -20.5864  -28.3665   23.1317 C   0  0  2  0  0  0
  -20.6761  -26.9401   22.5419 C   0  0  0  0  0  0
  -19.5742  -26.6384   21.5213 C   0  0  0  0  0  0
  -18.1919  -26.7921   22.1621 C   0  0  0  0  0  0
  -19.1521  -28.8834   23.2902 C   0  0  0  0  0  0
  -18.9449  -30.1438   23.8915 C   0  0  0  0  0  0
  -17.6453  -30.6584   24.0559 C   0  0  0  0  0  0
  -25.9033  -34.9478   23.5139 C   0  0  0  0  0  0
  -16.5342  -29.9084   23.6321 C   0  0  0  0  0  0
  -16.7260  -28.6494   23.0355 C   0  0  0  0  0  0
  -26.4469  -31.6597   25.0730 C   0  0  0  0  0  0
  -25.3742  -31.3705   26.1490 C   0  0  0  0  0  0
  -27.0293  -30.3036   24.6109 C   0  0  0  0  0  0
  -27.6059  -32.4308   25.7477 C   0  0  0  0  0  0
  -27.5584  -37.1804   24.8459 C   0  0  0  0  0  0
  -21.4147  -29.3032   22.3727 N   0  0  0  0  0  0
  -26.4285  -37.3803   23.9421 N   0  0  0  0  0  0
  -24.6713  -31.0755   22.0998 N   0  0  0  0  0  0
  -23.4186  -28.8204   23.3046 O   0  0  0  0  0  0
  -28.3713  -26.6327   20.0854 O   0  0  0  0  0  0
  -26.5604  -34.8933   22.4705 O   0  0  0  0  0  0
  -23.5345  -32.1424   23.7469 O   0  0  0  0  0  0
  -29.3074  -23.4633   21.9951 C   0  0  0  0  0  0
  -29.7261  -22.1375   21.7506 C   0  0  0  0  0  0
  -29.0799  -23.7580   19.6193 C   0  0  0  0  0  0
  -28.9720  -24.3063   20.9137 C   0  0  0  0  0  0
  -29.8035  -21.6722   20.4235 C   0  0  0  0  0  0
  -27.6591  -18.2976   18.8235 C   0  0  0  0  0  0
  -28.3584  -17.1247   19.4829 C   0  0  0  0  0  0
  -27.9097  -19.4281   19.8179 C   0  0  0  0  0  0
  -29.6130  -17.7492   20.1134 C   0  0  2  0  0  0
  -28.4553  -25.7286   21.2022 C   0  0  0  0  0  0
  -30.2538  -20.2276   20.1008 C   0  0  0  0  0  0
  -30.1575  -16.9106   21.3197 C   0  0  0  0  0  0
  -29.4826  -22.4806   19.3806 N   0  0  0  0  0  0
  -29.9438  -15.4497   21.1971 N   0  0  0  0  0  0
  -29.2425  -19.1768   20.4330 N   0  3  1  0  0  0
  -31.4774  -12.4546   19.1150 H   0  0  0  0  0  0
  -30.3592  -11.3150   19.8105 H   0  0  0  0  0  0
  -29.7465  -11.7991   17.4246 H   0  0  0  0  0  0
  -29.6553  -13.5065   17.7696 H   0  0  0  0  0  0
  -27.8381  -11.3083   18.8133 H   0  0  0  0  0  0
  -27.3675  -12.6371   17.7874 H   0  0  0  0  0  0
  -27.7056  -14.2473   19.5826 H   0  0  0  0  0  0
  -28.6920  -11.9273   21.3114 H   0  0  0  0  0  0
  -28.4554  -13.5436   21.8870 H   0  0  0  0  0  0
  -25.2741   -9.5688   22.4760 H   0  0  0  0  0  0
  -24.0003   -7.4616   22.7456 H   0  0  0  0  0  0
  -21.0827   -8.8757   19.8941 H   0  0  0  0  0  0
  -22.3668  -10.9665   19.6159 H   0  0  0  0  0  0
  -21.2004   -7.6150   23.9728 H   0  0  0  0  0  0
  -21.1473   -6.0508   25.9083 H   0  0  0  0  0  0
  -22.0604   -2.7606   23.2835 H   0  0  0  0  0  0
  -22.4068  -11.9880   22.4797 H   0  0  0  0  0  0
  -21.1109  -13.1286   22.2603 H   0  0  0  0  0  0
  -24.6494  -15.8274   20.5084 H   0  0  0  0  0  0
  -26.2613  -15.6165   20.0435 H   0  0  0  0  0  0
  -26.7119  -32.5538   23.1172 H   0  0  0  0  0  0
  -25.0019  -33.9777   25.0458 H   0  0  0  0  0  0
  -22.6959  -31.3053   21.4076 H   0  0  0  0  0  0
  -23.3750  -35.9646   23.3291 H   0  0  0  0  0  0
  -24.3584  -36.8944   22.2058 H   0  0  0  0  0  0
  -23.7220  -37.6517   23.6657 H   0  0  0  0  0  0
  -26.0485  -31.5923   20.5953 H   0  0  0  0  0  0
  -26.8246  -30.8849   21.9840 H   0  0  0  0  0  0
  -28.1105  -29.0909   21.1750 H   0  0  0  0  0  0
  -26.0771  -25.9584   19.0261 H   0  0  0  0  0  0
  -23.9873  -27.2860   19.0381 H   0  0  0  0  0  0
  -23.7252  -30.5916   19.4037 H   0  0  0  0  0  0
  -22.7434  -29.2357   19.8701 H   0  0  0  0  0  0
  -25.1271  -36.1984   25.0837 H   0  0  0  0  0  0
  -20.9951  -28.3228   24.1438 H   0  0  0  0  0  0
  -20.5657  -26.2275   23.3608 H   0  0  0  0  0  0
  -21.6633  -26.7440   22.1217 H   0  0  0  0  0  0
  -19.6904  -25.6297   21.1236 H   0  0  0  0  0  0
  -19.6686  -27.3200   20.6747 H   0  0  0  0  0  0
  -17.4195  -26.6673   21.4016 H   0  0  0  0  0  0
  -18.0317  -26.0054   22.9008 H   0  0  0  0  0  0
  -19.7928  -30.7237   24.2305 H   0  0  0  0  0  0
  -17.5012  -31.6270   24.5151 H   0  0  0  0  0  0
  -15.5344  -30.2992   23.7634 H   0  0  0  0  0  0
  -15.8658  -28.0813   22.7072 H   0  0  0  0  0  0
  -24.5882  -30.7096   25.7817 H   0  0  0  0  0  0
  -24.8980  -32.2867   26.4993 H   0  0  0  0  0  0
  -25.8099  -30.8815   27.0215 H   0  0  0  0  0  0
  -26.2829  -29.6798   24.1177 H   0  0  0  0  0  0
  -27.4069  -29.7273   25.4565 H   0  0  0  0  0  0
  -27.8669  -30.4346   23.9254 H   0  0  0  0  0  0
  -27.2698  -33.3603   26.2086 H   0  0  0  0  0  0
  -28.3848  -32.6875   25.0282 H   0  0  0  0  0  0
  -28.0758  -31.8412   26.5361 H   0  0  0  0  0  0
  -28.2587  -38.0116   24.7541 H   0  0  0  0  0  0
  -28.1092  -36.2653   24.6229 H   0  0  0  0  0  0
  -27.2318  -37.1393   25.8864 H   0  0  0  0  0  0
  -20.9313  -29.8752   21.6944 H   0  0  0  0  0  0
  -26.0179  -38.2879   24.1442 H   0  0  0  0  0  0
  -29.2357  -23.8265   23.0107 H   0  0  0  0  0  0
  -29.9872  -21.4948   22.5812 H   0  0  0  0  0  0
  -28.8244  -24.3464   18.7500 H   0  0  0  0  0  0
  -26.5987  -18.1188   18.6415 H   0  0  0  0  0  0
  -28.1311  -18.5268   17.8669 H   0  0  0  0  0  0
  -28.5942  -16.3260   18.7789 H   0  0  0  0  0  0
  -27.7142  -16.7173   20.2616 H   0  0  0  0  0  0
  -27.1619  -19.3892   20.6111 H   0  0  0  0  0  0
  -27.7988  -20.3959   19.3303 H   0  0  0  0  0  0
  -30.3788  -17.7633   19.3349 H   0  0  0  0  0  0
  -29.1160  -26.1874   21.9394 H   0  0  0  0  0  0
  -27.4867  -25.6217   21.6964 H   0  0  0  0  0  0
  -31.1740  -20.0217   20.6479 H   0  0  0  0  0  0
  -30.5083  -20.1627   19.0419 H   0  0  0  0  0  0
  -29.6461  -17.2145   22.2338 H   0  0  0  0  0  0
  -31.2152  -17.1234   21.4828 H   0  0  0  0  0  0
  -29.0697  -15.1109   21.5700 H   0  0  0  0  0  0
  -29.0999  -19.2495   21.4289 H   0  0  0  0  0  0
  1 25  1  0  0  0
  1 30  2  0  0  0
  1 84  1  0  0  0
  2  3  1  0  0  0
  2 25  1  0  0  0
  2 86  1  0  0  0
  2 87  1  0  0  0
  3  4  1  0  0  0
  3 88  1  0  0  0
  3 89  1  0  0  0
  4  5  1  0  0  0
  4 90  1  0  0  0
  4 91  1  0  0  0
  5  6  1  0  0  0
  5 26  1  0  0  0
  5 92  1  0  0  0
  6 25  1  0  0  0
  6 93  1  0  0  0
  6 94  1  0  0  0
  7  8  2  0  0  0
  7 26  1  0  0  0
  7 29  1  0  0  0
  8  9  1  0  0  0
  8 22  1  0  0  0
  9 10  1  0  0  0
  9 27  2  0  0  0
 10 11  2  0  0  0
 10 15  1  0  0  0
 11 12  1  0  0  0
 11 95  1  0  0  0
 12 13  2  0  0  0
 12 96  1  0  0  0
 13 14  1  0  0  0
 13 31  1  0  0  0
 14 15  2  0  0  0
 14 97  1  0  0  0
 15 98  1  0  0  0
 16 17  2  0  0  0
 16 21  1  0  0  0
 16 31  1  0  0  0
 17 18  1  0  0  0
 17 99  1  0  0  0
 18 19  2  0  0  0
 18100  1  0  0  0
 19 20  1  0  0  0
 19 24  1  0  0  0
 20 21  2  0  0  0
 20101  1  0  0  0
 21 23  1  0  0  0
 22 28  1  0  0  0
 22 32  2  0  0  0
 26 27  1  0  0  0
 28102  1  0  0  0
 28103  1  0  0  0
 29104  1  0  0  0
 29105  1  0  0  0
 33 34  1  0  0  0
 33 66  1  0  0  0
 33 70  2  0  0  0
 34 36  1  0  0  0
 34 59  1  0  0  0
 34106  1  0  0  0
 35 44  2  0  0  0
 35 45  1  0  0  0
 35 68  1  0  0  0
 36 56  1  0  0  0
 36107  1  0  0  0
 37 39  1  0  0  0
 37 47  1  0  0  0
 37 66  1  0  0  0
 37108  1  0  0  0
 38 43  2  0  0  0
 38 46  1  0  0  0
 38 47  1  0  0  0
 39 64  1  0  0  0
 39 67  2  0  0  0
 40 52  1  0  0  0
 40 53  2  0  0  0
 40 58  1  0  0  0
 41109  1  0  0  0
 41110  1  0  0  0
 41111  1  0  0  0
 41 48  1  0  0  0
 42 43  1  0  0  0
 42 66  1  0  0  0
 42112  1  0  0  0
 42113  1  0  0  0
 43 44  1  0  0  0
 44114  1  0  0  0
 45 46  2  0  0  0
 45115  1  0  0  0
 46116  1  0  0  0
 47117  1  0  0  0
 47118  1  0  0  0
 48 56  1  0  0  0
 48 65  1  0  0  0
 48119  1  0  0  0
 49 50  1  0  0  0
 49 53  1  0  0  0
 49 64  1  0  0  0
 49120  1  0  0  0
 50 51  1  0  0  0
 50121  1  0  0  0
 50122  1  0  0  0
 51 52  1  0  0  0
 51123  1  0  0  0
 51124  1  0  0  0
 52125  1  0  0  0
 52126  1  0  0  0
 53 54  1  0  0  0
 54 55  2  0  0  0
 54127  1  0  0  0
 55 57  1  0  0  0
 55128  1  0  0  0
 56 69  2  0  0  0
 57 58  2  0  0  0
 57129  1  0  0  0
 58130  1  0  0  0
 59 60  1  0  0  0
 59 61  1  0  0  0
 59 62  1  0  0  0
 60131  1  0  0  0
 60132  1  0  0  0
 60133  1  0  0  0
 61134  1  0  0  0
 61135  1  0  0  0
 61136  1  0  0  0
 62137  1  0  0  0
 62138  1  0  0  0
 62139  1  0  0  0
 63 65  1  0  0  0
 63140  1  0  0  0
 63141  1  0  0  0
 63142  1  0  0  0
 64143  1  0  0  0
 65144  1  0  0  0
 68 80  1  0  0  0
 71 72  2  0  0  0
 71 74  1  0  0  0
 71145  1  0  0  0
 72 75  1  0  0  0
 72146  1  0  0  0
 73 74  2  0  0  0
 73 83  1  0  0  0
 73147  1  0  0  0
 74 80  1  0  0  0
 75 81  1  0  0  0
 75 83  2  0  0  0
 76 77  1  0  0  0
 76 78  1  0  0  0
 76148  1  0  0  0
 76149  1  0  0  0
 77 79  1  0  0  0
 77150  1  0  0  0
 77151  1  0  0  0
 78 85  1  0  0  0
 78152  1  0  0  0
 78153  1  0  0  0
 79 82  1  0  0  0
 79 85  1  0  0  0
 79154  1  0  0  0
 80155  1  0  0  0
 80156  1  0  0  0
 81157  1  0  0  0
 81158  1  0  0  0
 81 85  1  0  0  0
 82 84  1  0  0  0
 82159  1  0  0  0
 82160  1  0  0  0
 84161  1  0  0  0
 85162  1  0  0  0
M  CHG  1  85   1
M  ISO  4   1 100  68 101  80 101  84 100
M  END
> <chiral flag>
0

> <version>
0

> <s_m_source_file>
/data/baiqing/PycharmProjects/Reinvent-master-3.2/result/LINK_invent/BTK/process_docking_weight1_custom_sum_contain_oxygen_bond_distance_aromatic_linkinvent_7_9_3/rearranged_h_0128.sdf

> <i_m_source_file_index>
52

> <r_mmod_Potential_Energy-OPLS-2005>
-314.721343994141

> <r_mmod_Stretch_Energy-OPLS-2005>
44.5934371948242

> <r_mmod_Bend_Energy-OPLS-2005>
126.203544616699

> <r_mmod_Torsional_Energy-OPLS-2005>
301.488342285156

> <r_mmod_Improper_Torsional_Energy-OPLS-2005>
3.47166800498962

> <r_mmod_Van_der_Waal_Energy-OPLS-2005>
139.531600952148

> <r_mmod_Electrostatic_Energy-OPLS-2005>
-481.601379394531

> <r_mmod_Solvation_Energy-OPLS-2005>
-463.150299072266

> <b_mmod_Minimization_Converged-OPLS-2005>
0

> <r_mmod_RMS_Derivative-OPLS-2005>
0.993859946727753

$$$$
52
                    3D
 Structure written by MMmdl.
166175  0  0  1  0            999 V2000
  -30.4955  -15.1762   20.3862 C   0  0  0  0  0  0
  -30.4363  -12.7484   19.5201 C   0  0  0  0  0  0
  -29.5326  -12.5612   18.2781 C   0  0  0  0  0  0
  -28.0754  -12.3057   18.7019 C   0  0  0  0  0  0
  -27.6154  -13.2724   19.8235 C   0  0  2  0  0  0
  -28.6518  -13.4198   20.9579 C   0  0  0  0  0  0
  -25.2401  -13.8248   20.5742 C   0  0  0  0  0  0
  -24.1751  -13.0436   20.9256 C   0  0  0  0  0  0
  -24.6398  -11.6931   20.8764 C   0  0  0  0  0  0
  -23.9091  -10.4291   21.0409 C   0  0  0  0  0  0
  -24.3637   -9.4207   21.9180 C   0  0  0  0  0  0
  -23.6311   -8.2242   22.0752 C   0  0  0  0  0  0
  -22.4291   -8.0285   21.3543 C   0  0  0  0  0  0
  -21.9931   -9.0260   20.4647 C   0  0  0  0  0  0
  -22.7264  -10.2133   20.3055 C   0  0  0  0  0  0
  -21.6859   -6.0741   22.5281 C   0  0  0  0  0  0
  -21.4017   -6.5638   23.8213 C   0  0  0  0  0  0
  -21.3658   -5.6793   24.9172 C   0  0  0  0  0  0
  -21.6045   -4.3054   24.7224 C   0  0  0  0  0  0
  -21.8815   -3.8146   23.4342 C   0  0  0  0  0  0
  -21.9191   -4.6969   22.3400 C   0  0  0  0  0  0
  -22.7765  -13.5192   21.1892 C   0  0  0  0  0  0
  -22.1661   -4.2150   21.0983 F   0  0  0  0  0  0
  -21.5626   -3.4540   25.7737 F   0  0  0  0  0  0
  -29.8965  -13.8936   20.3347 N   0  0  0  0  0  0
  -26.2831  -12.9521   20.3216 N   0  0  0  0  0  0
  -25.9334  -11.6627   20.5709 N   0  0  0  0  0  0
  -22.0411  -12.8192   22.0451 N   0  0  0  0  0  0
  -25.4031  -15.1985   20.4169 N   0  0  0  0  0  0
  -31.7166  -15.1465   20.1876 O   0  0  0  0  0  0
  -21.6646   -6.8887   21.4244 O   0  0  0  0  0  0
  -22.3446  -14.5488   20.6715 O   0  0  0  0  0  0
  -24.6589  -31.8305   23.1776 C   0  0  0  0  0  0
  -25.9291  -32.4624   23.8209 C   0  0  1  0  0  0
  -27.2080  -26.9788   20.1738 C   0  0  0  0  0  0
  -25.5982  -33.8438   24.2115 N   0  0  0  0  0  0
  -23.4700  -30.4470   21.5280 C   0  0  2  0  0  0
  -24.9206  -28.8510   20.1118 C   0  0  0  0  0  0
  -22.7644  -29.4480   22.4817 C   0  0  0  0  0  0
  -18.0311  -28.1406   22.8473 C   0  0  0  0  0  0
  -24.1495  -36.7219   23.2648 C   0  0  0  0  0  0
  -26.0383  -30.6529   21.4022 C   0  0  0  0  0  0
  -26.1048  -29.2500   20.7433 C   0  0  0  0  0  0
  -27.2467  -28.3348   20.7525 C   0  0  0  0  0  0
  -25.9958  -26.7297   19.4883 C   0  0  0  0  0  0
  -24.8889  -27.6096   19.4632 C   0  0  0  0  0  0
  -23.7056  -29.7732   20.1504 C   0  0  0  0  0  0
  -25.4138  -36.2995   24.0303 C   0  0  1  0  0  0
  -20.5935  -28.3753   23.1201 C   0  0  2  0  0  0
  -20.6801  -26.9443   22.5403 C   0  0  0  0  0  0
  -19.5773  -26.6382   21.5216 C   0  0  0  0  0  0
  -18.1950  -26.7939   22.1624 C   0  0  0  0  0  0
  -19.1572  -28.8897   23.2823 C   0  0  0  0  0  0
  -18.9484  -30.1486   23.8859 C   0  0  0  0  0  0
  -17.6480  -30.6603   24.0553 C   0  0  0  0  0  0
  -25.9096  -34.9370   23.5024 C   0  0  0  0  0  0
  -16.5368  -29.9090   23.6343 C   0  0  0  0  0  0
  -16.7294  -28.6506   23.0368 C   0  0  0  0  0  0
  -26.4559  -31.6543   25.0712 C   0  0  0  0  0  0
  -25.3693  -31.3777   26.1371 C   0  0  0  0  0  0
  -27.0438  -30.2911   24.6405 C   0  0  0  0  0  0
  -27.6062  -32.4339   25.7508 C   0  0  0  0  0  0
  -27.5564  -37.1789   24.8478 C   0  0  0  0  0  0
  -21.4321  -29.3048   22.3558 N   0  0  0  0  0  0
  -26.4298  -37.3715   23.9384 N   0  0  0  0  0  0
  -24.7434  -31.0017   22.0894 N   0  0  0  0  0  0
  -23.4212  -28.8039   23.3036 O   0  0  0  0  0  0
  -28.1944  -25.8731   20.2535 O   0  0  0  0  0  0
  -26.5699  -34.8897   22.4616 O   0  0  0  0  0  0
  -23.5672  -32.1253   23.6899 O   0  0  0  0  0  0
  -29.3955  -22.1564   21.1845 C   0  0  0  0  0  0
  -28.0903  -21.6058   19.3921 C   0  0  0  0  0  0
  -28.5160  -20.2000   19.4793 C   0  0  0  0  0  0
  -28.5023  -22.7473   20.2051 C   0  0  0  0  0  0
  -29.8314  -20.7284   21.3036 C   0  0  0  0  0  0
  -29.4528  -19.6050   20.4156 C   0  0  0  0  0  0
  -27.0643  -21.7464   18.2906 C   0  0  0  0  0  0
  -27.7991  -19.3801   18.4327 C   0  0  0  0  0  0
  -27.0553  -20.3968   17.5511 C   0  0  0  0  0  0
  -30.1591  -20.9262   23.8332 C   0  0  0  0  0  0
  -32.1604  -21.0155   22.2666 C   0  0  0  0  0  0
  -31.0772  -18.1288   19.0178 C   0  0  0  0  0  0
  -27.7619  -24.3160   20.1133 C   0  0  0  0  0  0
  -30.7536  -20.4442   22.4954 C   0  0  0  0  0  0
  -30.2242  -18.0404   20.2983 C   0  0  2  0  0  0
  -29.7754  -16.4615   20.4490 N   0  0  0  0  0  0
  -31.4624  -12.9277   19.1958 H   0  0  0  0  0  0
  -30.4761  -11.8330   20.1136 H   0  0  0  0  0  0
  -29.8981  -11.7377   17.6627 H   0  0  0  0  0  0
  -29.5820  -13.4560   17.6557 H   0  0  0  0  0  0
  -28.0144  -11.2774   19.0596 H   0  0  0  0  0  0
  -27.4094  -12.3692   17.8407 H   0  0  0  0  0  0
  -27.5406  -14.2469   19.3392 H   0  0  0  0  0  0
  -28.7973  -12.4791   21.4911 H   0  0  0  0  0  0
  -28.3095  -14.1476   21.6953 H   0  0  0  0  0  0
  -25.2778   -9.5691   22.4753 H   0  0  0  0  0  0
  -24.0021   -7.4639   22.7473 H   0  0  0  0  0  0
  -21.0854   -8.8779   19.8958 H   0  0  0  0  0  0
  -22.3722  -10.9668   19.6164 H   0  0  0  0  0  0
  -21.2018   -7.6149   23.9719 H   0  0  0  0  0  0
  -21.1484   -6.0519   25.9075 H   0  0  0  0  0  0
  -22.0598   -2.7612   23.2836 H   0  0  0  0  0  0
  -22.4046  -11.9879   22.4877 H   0  0  0  0  0  0
  -21.1015  -13.1193   22.2620 H   0  0  0  0  0  0
  -24.6325  -15.8481   20.5306 H   0  0  0  0  0  0
  -26.2446  -15.6409   20.0714 H   0  0  0  0  0  0
  -26.7359  -32.5176   23.0926 H   0  0  0  0  0  0
  -25.0097  -33.9524   25.0243 H   0  0  0  0  0  0
  -22.7803  -31.2778   21.3656 H   0  0  0  0  0  0
  -23.3750  -35.9563   23.3360 H   0  0  0  0  0  0
  -24.3555  -36.8806   22.2051 H   0  0  0  0  0  0
  -23.7276  -37.6438   23.6665 H   0  0  0  0  0  0
  -26.2154  -31.3979   20.6251 H   0  0  0  0  0  0
  -26.9004  -30.7042   22.0552 H   0  0  0  0  0  0
  -28.1424  -28.6368   21.2760 H   0  0  0  0  0  0
  -25.8495  -25.7911   18.9782 H   0  0  0  0  0  0
  -23.9912  -27.2998   18.9464 H   0  0  0  0  0  0
  -23.8577  -30.5466   19.3965 H   0  0  0  0  0  0
  -22.8155  -29.2278   19.8332 H   0  0  0  0  0  0
  -25.1343  -36.1817   25.0800 H   0  0  0  0  0  0
  -21.0015  -28.3359   24.1327 H   0  0  0  0  0  0
  -20.5702  -26.2369   23.3639 H   0  0  0  0  0  0
  -21.6666  -26.7446   22.1198 H   0  0  0  0  0  0
  -19.6941  -25.6283   21.1272 H   0  0  0  0  0  0
  -19.6706  -27.3170   20.6729 H   0  0  0  0  0  0
  -17.4224  -26.6681   21.4021 H   0  0  0  0  0  0
  -18.0345  -26.0090   22.9031 H   0  0  0  0  0  0
  -19.7960  -30.7306   24.2221 H   0  0  0  0  0  0
  -17.5034  -31.6280   24.5161 H   0  0  0  0  0  0
  -15.5370  -30.2978   23.7692 H   0  0  0  0  0  0
  -15.8694  -28.0806   22.7117 H   0  0  0  0  0  0
  -24.5890  -30.7116   25.7676 H   0  0  0  0  0  0
  -24.8864  -32.2972   26.4690 H   0  0  0  0  0  0
  -25.7928  -30.9011   27.0219 H   0  0  0  0  0  0
  -26.3089  -29.6608   24.1389 H   0  0  0  0  0  0
  -27.3960  -29.7255   25.5041 H   0  0  0  0  0  0
  -27.9041  -30.4100   23.9815 H   0  0  0  0  0  0
  -27.2641  -33.3682   26.1976 H   0  0  0  0  0  0
  -28.3930  -32.6831   25.0375 H   0  0  0  0  0  0
  -28.0669  -31.8535   26.5513 H   0  0  0  0  0  0
  -28.2632  -38.0034   24.7444 H   0  0  0  0  0  0
  -28.1008  -36.2558   24.6423 H   0  0  0  0  0  0
  -27.2262  -37.1583   25.8880 H   0  0  0  0  0  0
  -20.9569  -29.8723   21.6679 H   0  0  0  0  0  0
  -26.0157  -38.2793   24.1329 H   0  0  0  0  0  0
  -29.7641  -22.8523   21.9233 H   0  0  0  0  0  0
  -27.3116  -22.5638   17.6123 H   0  0  0  0  0  0
  -26.0891  -21.9519   18.7339 H   0  0  0  0  0  0
  -27.0952  -18.7135   18.9315 H   0  0  0  0  0  0
  -28.4729  -18.7689   17.8373 H   0  0  0  0  0  0
  -27.6148  -20.5137   16.6219 H   0  0  0  0  0  0
  -26.0527  -20.0660   17.2756 H   0  0  0  0  0  0
  -29.1674  -20.5022   23.9936 H   0  0  0  0  0  0
  -30.0723  -22.0104   23.8972 H   0  0  0  0  0  0
  -30.7824  -20.6115   24.6707 H   0  0  0  0  0  0
  -32.6109  -20.5950   21.3673 H   0  0  0  0  0  0
  -32.8197  -20.7843   23.1040 H   0  0  0  0  0  0
  -32.1421  -22.1002   22.1536 H   0  0  0  0  0  0
  -31.6020  -19.0832   18.9667 H   0  0  0  0  0  0
  -30.4765  -18.0390   18.1167 H   0  0  0  0  0  0
  -31.8409  -17.3553   18.9659 H   0  0  0  0  0  0
  -26.9170  -24.2240   20.7965 H   0  0  0  0  0  0
  -27.3212  -24.2891   19.1211 H   0  0  0  0  0  0
  -30.8529  -19.3724   22.6336 H   0  0  0  0  0  0
  -30.9778  -18.0700   21.0780 H   0  0  0  0  0  0
  -28.7835  -16.3451   20.5932 H   0  0  0  0  0  0
  1 25  1  0  0  0
  1 30  2  0  0  0
  1 86  1  0  0  0
  2  3  1  0  0  0
  2 25  1  0  0  0
  2 87  1  0  0  0
  2 88  1  0  0  0
  3  4  1  0  0  0
  3 89  1  0  0  0
  3 90  1  0  0  0
  4  5  1  0  0  0
  4 91  1  0  0  0
  4 92  1  0  0  0
  5  6  1  0  0  0
  5 26  1  0  0  0
  5 93  1  0  0  0
  6 25  1  0  0  0
  6 94  1  0  0  0
  6 95  1  0  0  0
  7  8  2  0  0  0
  7 26  1  0  0  0
  7 29  1  0  0  0
  8  9  1  0  0  0
  8 22  1  0  0  0
  9 10  1  0  0  0
  9 27  2  0  0  0
 10 11  2  0  0  0
 10 15  1  0  0  0
 11 12  1  0  0  0
 11 96  1  0  0  0
 12 13  2  0  0  0
 12 97  1  0  0  0
 13 14  1  0  0  0
 13 31  1  0  0  0
 14 15  2  0  0  0
 14 98  1  0  0  0
 15 99  1  0  0  0
 16 17  2  0  0  0
 16 21  1  0  0  0
 16 31  1  0  0  0
 17 18  1  0  0  0
 17100  1  0  0  0
 18 19  2  0  0  0
 18101  1  0  0  0
 19 20  1  0  0  0
 19 24  1  0  0  0
 20 21  2  0  0  0
 20102  1  0  0  0
 21 23  1  0  0  0
 22 28  1  0  0  0
 22 32  2  0  0  0
 26 27  1  0  0  0
 28103  1  0  0  0
 28104  1  0  0  0
 29105  1  0  0  0
 29106  1  0  0  0
 33 34  1  0  0  0
 33 66  1  0  0  0
 33 70  2  0  0  0
 34 36  1  0  0  0
 34 59  1  0  0  0
 34107  1  0  0  0
 35 44  2  0  0  0
 35 45  1  0  0  0
 35 68  1  0  0  0
 36 56  1  0  0  0
 36108  1  0  0  0
 37 39  1  0  0  0
 37 47  1  0  0  0
 37 66  1  0  0  0
 37109  1  0  0  0
 38 43  2  0  0  0
 38 46  1  0  0  0
 38 47  1  0  0  0
 39 64  1  0  0  0
 39 67  2  0  0  0
 40 52  1  0  0  0
 40 53  2  0  0  0
 40 58  1  0  0  0
 41110  1  0  0  0
 41111  1  0  0  0
 41112  1  0  0  0
 41 48  1  0  0  0
 42 43  1  0  0  0
 42 66  1  0  0  0
 42113  1  0  0  0
 42114  1  0  0  0
 43 44  1  0  0  0
 44115  1  0  0  0
 45 46  2  0  0  0
 45116  1  0  0  0
 46117  1  0  0  0
 47118  1  0  0  0
 47119  1  0  0  0
 48 56  1  0  0  0
 48 65  1  0  0  0
 48120  1  0  0  0
 49 50  1  0  0  0
 49 53  1  0  0  0
 49 64  1  0  0  0
 49121  1  0  0  0
 50 51  1  0  0  0
 50122  1  0  0  0
 50123  1  0  0  0
 51 52  1  0  0  0
 51124  1  0  0  0
 51125  1  0  0  0
 52126  1  0  0  0
 52127  1  0  0  0
 53 54  1  0  0  0
 54 55  2  0  0  0
 54128  1  0  0  0
 55 57  1  0  0  0
 55129  1  0  0  0
 56 69  2  0  0  0
 57 58  2  0  0  0
 57130  1  0  0  0
 58131  1  0  0  0
 59 60  1  0  0  0
 59 61  1  0  0  0
 59 62  1  0  0  0
 60132  1  0  0  0
 60133  1  0  0  0
 60134  1  0  0  0
 61135  1  0  0  0
 61136  1  0  0  0
 61137  1  0  0  0
 62138  1  0  0  0
 62139  1  0  0  0
 62140  1  0  0  0
 63 65  1  0  0  0
 63141  1  0  0  0
 63142  1  0  0  0
 63143  1  0  0  0
 64144  1  0  0  0
 65145  1  0  0  0
 68 83  1  0  0  0
 71 74  2  0  0  0
 71 75  1  0  0  0
 71146  1  0  0  0
 72 73  2  0  0  0
 72 74  1  0  0  0
 72 77  1  0  0  0
 73 76  1  0  0  0
 73 78  1  0  0  0
 74 83  1  0  0  0
 75 76  2  0  0  0
 75 84  1  0  0  0
 76 85  1  0  0  0
 77 79  1  0  0  0
 77147  1  0  0  0
 77148  1  0  0  0
 78 79  1  0  0  0
 78149  1  0  0  0
 78150  1  0  0  0
 79151  1  0  0  0
 79152  1  0  0  0
 80153  1  0  0  0
 80154  1  0  0  0
 80155  1  0  0  0
 80 84  1  0  0  0
 81 84  1  0  0  0
 81156  1  0  0  0
 81157  1  0  0  0
 81158  1  0  0  0
 82159  1  0  0  0
 82160  1  0  0  0
 82161  1  0  0  0
 82 85  1  0  0  0
 83162  1  0  0  0
 83163  1  0  0  0
 84164  1  0  0  0
 85 86  1  0  0  0
 85165  1  0  0  0
 86166  1  0  0  0
M  ISO  4   1 100  68 101  83 101  86 100
M  END
> <chiral flag>
0

> <version>
0

> <s_m_source_file>
/data/baiqing/PycharmProjects/Reinvent-master-3.2/result/LINK_invent/BTK/process_docking_weight1_custom_sum_contain_oxygen_bond_distance_aromatic_linkinvent_7_9_3/rearranged_h_0128.sdf

> <i_m_source_file_index>
53

> <r_mmod_Potential_Energy-OPLS-2005>
1073.5087890625

> <r_mmod_Stretch_Energy-OPLS-2005>
458.987091064453

> <r_mmod_Bend_Energy-OPLS-2005>
457.835052490234

> <r_mmod_Torsional_Energy-OPLS-2005>
245.461990356445

> <r_mmod_Improper_Torsional_Energy-OPLS-2005>
8.5572624206543

> <r_mmod_Van_der_Waal_Energy-OPLS-2005>
135.752487182617

> <r_mmod_Electrostatic_Energy-OPLS-2005>
-406.309814453125

> <r_mmod_Solvation_Energy-OPLS-2005>
-205.178466796875

> <b_mmod_Minimization_Converged-OPLS-2005>
0

> <r_mmod_RMS_Derivative-OPLS-2005>
1.34714698791504

$$$$
53
                    3D
 Structure written by MMmdl.
172182  0  0  1  0            999 V2000
  -30.7630  -14.4277   20.6577 C   0  0  0  0  0  0
  -30.4300  -12.3232   19.4162 C   0  0  0  0  0  0
  -29.4971  -12.5218   18.2062 C   0  0  0  0  0  0
  -28.0220  -12.3758   18.6236 C   0  0  0  0  0  0
  -27.6684  -13.2109   19.8825 C   0  0  2  0  0  0
  -28.7095  -12.9914   21.0035 C   0  0  0  0  0  0
  -25.2606  -13.8160   20.5710 C   0  0  0  0  0  0
  -24.1861  -13.0445   20.9180 C   0  0  0  0  0  0
  -24.6422  -11.6904   20.8747 C   0  0  0  0  0  0
  -23.9097  -10.4295   21.0392 C   0  0  0  0  0  0
  -24.3623   -9.4207   21.9181 C   0  0  0  0  0  0
  -23.6290   -8.2251   22.0750 C   0  0  0  0  0  0
  -22.4274   -8.0291   21.3542 C   0  0  0  0  0  0
  -21.9926   -9.0272   20.4644 C   0  0  0  0  0  0
  -22.7259  -10.2144   20.3052 C   0  0  0  0  0  0
  -21.6861   -6.0737   22.5268 C   0  0  0  0  0  0
  -21.4009   -6.5640   23.8200 C   0  0  0  0  0  0
  -21.3659   -5.6796   24.9168 C   0  0  0  0  0  0
  -21.6042   -4.3051   24.7224 C   0  0  0  0  0  0
  -21.8820   -3.8148   23.4337 C   0  0  0  0  0  0
  -21.9190   -4.6965   22.3396 C   0  0  0  0  0  0
  -22.7874  -13.5228   21.1839 C   0  0  0  0  0  0
  -22.1663   -4.2151   21.0969 F   0  0  0  0  0  0
  -21.5628   -3.4534   25.7733 F   0  0  0  0  0  0
  -30.0451  -13.2906   20.4555 N   0  0  0  0  0  0
  -26.3066  -12.9363   20.3388 N   0  0  0  0  0  0
  -25.9355  -11.6518   20.5775 N   0  0  0  0  0  0
  -22.0517  -12.8227   22.0373 N   0  0  0  0  0  0
  -25.4389  -15.1883   20.4110 N   0  0  0  0  0  0
  -31.8315  -14.6555   20.0816 O   0  0  0  0  0  0
  -21.6640   -6.8888   21.4234 O   0  0  0  0  0  0
  -22.3579  -14.5562   20.6687 O   0  0  0  0  0  0
  -24.6192  -31.8713   23.2142 C   0  0  0  0  0  0
  -25.9107  -32.4815   23.8436 C   0  0  1  0  0  0
  -27.2468  -27.4779   20.0477 C   0  0  0  0  0  0
  -25.6003  -33.8621   24.2376 N   0  0  0  0  0  0
  -23.4038  -30.5003   21.5528 C   0  0  2  0  0  0
  -24.8433  -28.9629   20.1230 C   0  0  0  0  0  0
  -22.7420  -29.4691   22.4974 C   0  0  0  0  0  0
  -18.0269  -28.1389   22.8472 C   0  0  0  0  0  0
  -24.1510  -36.7342   23.2641 C   0  0  0  0  0  0
  -25.9310  -30.8482   21.3582 C   0  0  0  0  0  0
  -26.0049  -29.4826   20.7064 C   0  0  0  0  0  0
  -27.2043  -28.7417   20.6734 C   0  0  0  0  0  0
  -26.0511  -26.9423   19.5125 C   0  0  0  0  0  0
  -24.8558  -27.6846   19.5385 C   0  0  0  0  0  0
  -23.6148  -29.8406   20.1657 C   0  0  0  0  0  0
  -25.4129  -36.3106   24.0333 C   0  0  1  0  0  0
  -20.5851  -28.3685   23.1304 C   0  0  2  0  0  0
  -20.6773  -26.9418   22.5422 C   0  0  0  0  0  0
  -19.5748  -26.6385   21.5219 C   0  0  0  0  0  0
  -18.1899  -26.7960   22.1573 C   0  0  0  0  0  0
  -19.1516  -28.8852   23.2890 C   0  0  0  0  0  0
  -18.9453  -30.1465   23.8879 C   0  0  0  0  0  0
  -17.6450  -30.6586   24.0562 C   0  0  0  0  0  0
  -25.9044  -34.9462   23.5128 C   0  0  0  0  0  0
  -16.5339  -29.9089   23.6322 C   0  0  0  0  0  0
  -16.7263  -28.6524   23.0310 C   0  0  0  0  0  0
  -26.4541  -31.6573   25.0742 C   0  0  0  0  0  0
  -25.3852  -31.3759   26.1540 C   0  0  0  0  0  0
  -27.0342  -30.2994   24.6121 C   0  0  0  0  0  0
  -27.6164  -32.4241   25.7471 C   0  0  0  0  0  0
  -27.5551  -37.1876   24.8477 C   0  0  0  0  0  0
  -21.4139  -29.3082   22.3752 N   0  0  0  0  0  0
  -26.4323  -37.3781   23.9344 N   0  0  0  0  0  0
  -24.6704  -31.0848   22.1022 N   0  0  0  0  0  0
  -23.4200  -28.8189   23.2976 O   0  0  0  0  0  0
  -28.4663  -26.8400   19.9853 O   0  0  0  0  0  0
  -26.5523  -34.8903   22.4637 O   0  0  0  0  0  0
  -23.5394  -32.1431   23.7564 O   0  0  0  0  0  0
  -29.0502  -23.3313   18.7515 C   0  0  0  0  0  0
  -29.2773  -22.0560   19.3011 C   0  0  0  0  0  0
  -28.8189  -24.2469   20.9906 C   0  0  0  0  0  0
  -29.0386  -22.9692   21.5516 C   0  0  0  0  0  0
  -28.8332  -24.4381   19.5947 C   0  0  0  0  0  0
  -29.2923  -21.8608   20.7013 C   0  0  0  0  0  0
  -28.2190  -22.8554   25.0104 C   0  0  0  0  0  0
  -28.5981  -23.9544   24.0132 C   0  0  0  0  0  0
  -27.9910  -21.9668   23.7787 C   0  0  0  0  0  0
  -29.0594  -18.1961   21.4980 C   0  0  0  0  0  0
  -31.4424  -18.9795   21.7001 C   0  0  0  0  0  0
  -28.7150  -19.5356   20.8156 C   0  0  0  0  0  0
  -31.0379  -20.2866   20.9993 C   0  0  0  0  0  0
  -29.0516  -22.8218   23.0647 C   0  0  0  0  0  0
  -30.5381  -17.8033   21.2768 C   0  0  0  0  0  0
  -28.6884  -25.8276   18.9983 C   0  0  0  0  0  0
  -30.9375  -16.5091   22.0219 C   0  0  0  0  0  0
  -29.6270  -20.6003   21.2317 N   0  0  0  0  0  0
  -30.2488  -15.3095   21.5309 N   0  0  0  0  0  0
  -31.4710  -12.4387   19.1062 H   0  0  0  0  0  0
  -30.3512  -11.3092   19.8095 H   0  0  0  0  0  0
  -29.7414  -11.7987   17.4265 H   0  0  0  0  0  0
  -29.6627  -13.5093   17.7720 H   0  0  0  0  0  0
  -27.8378  -11.3192   18.8182 H   0  0  0  0  0  0
  -27.3702  -12.6522   17.7953 H   0  0  0  0  0  0
  -27.7154  -14.2599   19.5913 H   0  0  0  0  0  0
  -28.6877  -11.9572   21.3488 H   0  0  0  0  0  0
  -28.4575  -13.5934   21.8765 H   0  0  0  0  0  0
  -25.2766   -9.5677   22.4749 H   0  0  0  0  0  0
  -24.0001   -7.4642   22.7464 H   0  0  0  0  0  0
  -21.0863   -8.8793   19.8944 H   0  0  0  0  0  0
  -22.3727  -10.9681   19.6158 H   0  0  0  0  0  0
  -21.2002   -7.6153   23.9709 H   0  0  0  0  0  0
  -21.1475   -6.0523   25.9073 H   0  0  0  0  0  0
  -22.0595   -2.7617   23.2835 H   0  0  0  0  0  0
  -22.4126  -11.9870   22.4744 H   0  0  0  0  0  0
  -21.1127  -13.1245   22.2547 H   0  0  0  0  0  0
  -24.6817  -15.8540   20.5255 H   0  0  0  0  0  0
  -26.3018  -15.6201   20.1057 H   0  0  0  0  0  0
  -26.7207  -32.5515   23.1236 H   0  0  0  0  0  0
  -25.0402  -33.9807   25.0679 H   0  0  0  0  0  0
  -22.6958  -31.3192   21.4153 H   0  0  0  0  0  0
  -23.3765  -35.9679   23.3286 H   0  0  0  0  0  0
  -24.3623  -36.8969   22.2056 H   0  0  0  0  0  0
  -23.7260  -37.6549   23.6672 H   0  0  0  0  0  0
  -26.0264  -31.6157   20.5894 H   0  0  0  0  0  0
  -26.8298  -30.9096   21.9607 H   0  0  0  0  0  0
  -28.1097  -29.1559   21.0951 H   0  0  0  0  0  0
  -26.0201  -25.9587   19.0683 H   0  0  0  0  0  0
  -23.9525  -27.2687   19.1135 H   0  0  0  0  0  0
  -23.7563  -30.6222   19.4192 H   0  0  0  0  0  0
  -22.7343  -29.2832   19.8424 H   0  0  0  0  0  0
  -25.1326  -36.2006   25.0837 H   0  0  0  0  0  0
  -20.9932  -28.3254   24.1424 H   0  0  0  0  0  0
  -20.5681  -26.2308   23.3635 H   0  0  0  0  0  0
  -21.6653  -26.7473   22.1223 H   0  0  0  0  0  0
  -19.6921  -25.6288   21.1253 H   0  0  0  0  0  0
  -19.6688  -27.3201   20.6754 H   0  0  0  0  0  0
  -17.4229  -26.6784   21.3903 H   0  0  0  0  0  0
  -18.0182  -26.0062   22.8901 H   0  0  0  0  0  0
  -19.7931  -30.7301   24.2194 H   0  0  0  0  0  0
  -17.5007  -31.6236   24.5197 H   0  0  0  0  0  0
  -15.5344  -30.2984   23.7659 H   0  0  0  0  0  0
  -15.8670  -28.0886   22.6948 H   0  0  0  0  0  0
  -24.5888  -30.7254   25.7916 H   0  0  0  0  0  0
  -24.9250  -32.2985   26.5081 H   0  0  0  0  0  0
  -25.8224  -30.8827   27.0227 H   0  0  0  0  0  0
  -26.2853  -29.6668   24.1348 H   0  0  0  0  0  0
  -27.4288  -29.7307   25.4548 H   0  0  0  0  0  0
  -27.8605  -30.4286   23.9131 H   0  0  0  0  0  0
  -27.2900  -33.3632   26.1949 H   0  0  0  0  0  0
  -28.4044  -32.6603   25.0308 H   0  0  0  0  0  0
  -28.0732  -31.8383   26.5455 H   0  0  0  0  0  0
  -28.2728  -38.0002   24.7282 H   0  0  0  0  0  0
  -28.0878  -36.2531   24.6638 H   0  0  0  0  0  0
  -27.2248  -37.1960   25.8879 H   0  0  0  0  0  0
  -20.9293  -29.8950   21.7104 H   0  0  0  0  0  0
  -26.0215  -38.2899   24.1180 H   0  0  0  0  0  0
  -29.0770  -23.4600   17.6788 H   0  0  0  0  0  0
  -29.4824  -21.2354   18.6311 H   0  0  0  0  0  0
  -28.6725  -25.0981   21.6373 H   0  0  0  0  0  0
  -27.3370  -23.0564   25.6191 H   0  0  0  0  0  0
  -29.0679  -22.5332   25.6188 H   0  0  0  0  0  0
  -29.3760  -24.6463   24.3354 H   0  0  0  0  0  0
  -27.7138  -24.4849   23.6528 H   0  0  0  0  0  0
  -26.9957  -22.0958   23.3453 H   0  0  0  0  0  0
  -28.2514  -20.9133   23.8799 H   0  0  0  0  0  0
  -28.4055  -17.4168   21.1024 H   0  0  0  0  0  0
  -28.8469  -18.2634   22.5668 H   0  0  0  0  0  0
  -31.4106  -19.1150   22.7825 H   0  0  0  0  0  0
  -32.4818  -18.7532   21.4531 H   0  0  0  0  0  0
  -27.6885  -19.8218   21.0525 H   0  0  0  0  0  0
  -28.7646  -19.4122   19.7335 H   0  0  0  0  0  0
  -31.2199  -20.1864   19.9278 H   0  0  0  0  0  0
  -31.6707  -21.1056   21.3496 H   0  0  0  0  0  0
  -30.0568  -22.4904   23.3414 H   0  0  0  0  0  0
  -30.6920  -17.6428   20.2084 H   0  0  0  0  0  0
  -27.9565  -25.8239   18.1909 H   0  0  0  0  0  0
  -29.6338  -26.0511   18.5024 H   0  0  0  0  0  0
  -30.7281  -16.6168   23.0866 H   0  0  0  0  0  0
  -32.0186  -16.3685   21.9507 H   0  0  0  0  0  0
  -29.3432  -15.1009   21.9265 H   0  0  0  0  0  0
  1 25  1  0  0  0
  1 30  2  0  0  0
  1 89  1  0  0  0
  2  3  1  0  0  0
  2 25  1  0  0  0
  2 90  1  0  0  0
  2 91  1  0  0  0
  3  4  1  0  0  0
  3 92  1  0  0  0
  3 93  1  0  0  0
  4  5  1  0  0  0
  4 94  1  0  0  0
  4 95  1  0  0  0
  5  6  1  0  0  0
  5 26  1  0  0  0
  5 96  1  0  0  0
  6 25  1  0  0  0
  6 97  1  0  0  0
  6 98  1  0  0  0
  7  8  2  0  0  0
  7 26  1  0  0  0
  7 29  1  0  0  0
  8  9  1  0  0  0
  8 22  1  0  0  0
  9 10  1  0  0  0
  9 27  2  0  0  0
 10 11  2  0  0  0
 10 15  1  0  0  0
 11 12  1  0  0  0
 11 99  1  0  0  0
 12 13  2  0  0  0
 12100  1  0  0  0
 13 14  1  0  0  0
 13 31  1  0  0  0
 14 15  2  0  0  0
 14101  1  0  0  0
 15102  1  0  0  0
 16 17  2  0  0  0
 16 21  1  0  0  0
 16 31  1  0  0  0
 17 18  1  0  0  0
 17103  1  0  0  0
 18 19  2  0  0  0
 18104  1  0  0  0
 19 20  1  0  0  0
 19 24  1  0  0  0
 20 21  2  0  0  0
 20105  1  0  0  0
 21 23  1  0  0  0
 22 28  1  0  0  0
 22 32  2  0  0  0
 26 27  1  0  0  0
 28106  1  0  0  0
 28107  1  0  0  0
 29108  1  0  0  0
 29109  1  0  0  0
 33 34  1  0  0  0
 33 66  1  0  0  0
 33 70  2  0  0  0
 34 36  1  0  0  0
 34 59  1  0  0  0
 34110  1  0  0  0
 35 44  2  0  0  0
 35 45  1  0  0  0
 35 68  1  0  0  0
 36 56  1  0  0  0
 36111  1  0  0  0
 37 39  1  0  0  0
 37 47  1  0  0  0
 37 66  1  0  0  0
 37112  1  0  0  0
 38 43  2  0  0  0
 38 46  1  0  0  0
 38 47  1  0  0  0
 39 64  1  0  0  0
 39 67  2  0  0  0
 40 52  1  0  0  0
 40 53  2  0  0  0
 40 58  1  0  0  0
 41113  1  0  0  0
 41114  1  0  0  0
 41115  1  0  0  0
 41 48  1  0  0  0
 42 43  1  0  0  0
 42 66  1  0  0  0
 42116  1  0  0  0
 42117  1  0  0  0
 43 44  1  0  0  0
 44118  1  0  0  0
 45 46  2  0  0  0
 45119  1  0  0  0
 46120  1  0  0  0
 47121  1  0  0  0
 47122  1  0  0  0
 48 56  1  0  0  0
 48 65  1  0  0  0
 48123  1  0  0  0
 49 50  1  0  0  0
 49 53  1  0  0  0
 49 64  1  0  0  0
 49124  1  0  0  0
 50 51  1  0  0  0
 50125  1  0  0  0
 50126  1  0  0  0
 51 52  1  0  0  0
 51127  1  0  0  0
 51128  1  0  0  0
 52129  1  0  0  0
 52130  1  0  0  0
 53 54  1  0  0  0
 54 55  2  0  0  0
 54131  1  0  0  0
 55 57  1  0  0  0
 55132  1  0  0  0
 56 69  2  0  0  0
 57 58  2  0  0  0
 57133  1  0  0  0
 58134  1  0  0  0
 59 60  1  0  0  0
 59 61  1  0  0  0
 59 62  1  0  0  0
 60135  1  0  0  0
 60136  1  0  0  0
 60137  1  0  0  0
 61138  1  0  0  0
 61139  1  0  0  0
 61140  1  0  0  0
 62141  1  0  0  0
 62142  1  0  0  0
 62143  1  0  0  0
 63 65  1  0  0  0
 63144  1  0  0  0
 63145  1  0  0  0
 63146  1  0  0  0
 64147  1  0  0  0
 65148  1  0  0  0
 68 86  1  0  0  0
 71 72  2  0  0  0
 71 75  1  0  0  0
 71149  1  0  0  0
 72 76  1  0  0  0
 72150  1  0  0  0
 73 74  1  0  0  0
 73 75  2  0  0  0
 73151  1  0  0  0
 74 76  2  0  0  0
 74 84  1  0  0  0
 75 86  1  0  0  0
 76 88  1  0  0  0
 77 78  1  0  0  0
 77 79  1  0  0  0
 77152  1  0  0  0
 77153  1  0  0  0
 78 84  1  0  0  0
 78154  1  0  0  0
 78155  1  0  0  0
 79 84  1  0  0  0
 79156  1  0  0  0
 79157  1  0  0  0
 80 82  1  0  0  0
 80 85  1  0  0  0
 80158  1  0  0  0
 80159  1  0  0  0
 81 83  1  0  0  0
 81 85  1  0  0  0
 81160  1  0  0  0
 81161  1  0  0  0
 82 88  1  0  0  0
 82162  1  0  0  0
 82163  1  0  0  0
 83 88  1  0  0  0
 83164  1  0  0  0
 83165  1  0  0  0
 84166  1  0  0  0
 85 87  1  0  0  0
 85167  1  0  0  0
 86168  1  0  0  0
 86169  1  0  0  0
 87 89  1  0  0  0
 87170  1  0  0  0
 87171  1  0  0  0
 89172  1  0  0  0
M  ISO  4   1 100  68 101  86 101  89 100
M  END
> <chiral flag>
0

> <version>
0

> <s_m_source_file>
/data/baiqing/PycharmProjects/Reinvent-master-3.2/result/LINK_invent/BTK/process_docking_weight1_custom_sum_contain_oxygen_bond_distance_aromatic_linkinvent_7_9_3/rearranged_h_0128.sdf

> <i_m_source_file_index>
54

> <r_mmod_Potential_Energy-OPLS-2005>
0.57276439666748

> <r_mmod_Stretch_Energy-OPLS-2005>
35.4133758544922

> <r_mmod_Bend_Energy-OPLS-2005>
119.225723266602

> <r_mmod_Torsional_Energy-OPLS-2005>
271.122009277344

> <r_mmod_Improper_Torsional_Energy-OPLS-2005>
6.9050760269165

> <r_mmod_Van_der_Waal_Energy-OPLS-2005>
163.75715637207

> <r_mmod_Electrostatic_Energy-OPLS-2005>
-403.352172851562

> <r_mmod_Solvation_Energy-OPLS-2005>
-203.516067504883

> <b_mmod_Minimization_Converged-OPLS-2005>
0

> <r_mmod_RMS_Derivative-OPLS-2005>
4.28041315078735

$$$$
54
                    3D
 Structure written by MMmdl.
167177  0  0  1  0            999 V2000
  -30.4982  -15.1003   20.4246 C   0  0  0  0  0  0
  -30.4380  -12.6963   19.5235 C   0  0  0  0  0  0
  -29.5275  -12.5625   18.2783 C   0  0  0  0  0  0
  -28.0659  -12.3200   18.6931 C   0  0  0  0  0  0
  -27.6216  -13.2642   19.8384 C   0  0  2  0  0  0
  -28.6569  -13.3441   20.9795 C   0  0  0  0  0  0
  -25.2416  -13.8247   20.5724 C   0  0  0  0  0  0
  -24.1764  -13.0449   20.9273 C   0  0  0  0  0  0
  -24.6396  -11.6943   20.8783 C   0  0  0  0  0  0
  -23.9088  -10.4301   21.0413 C   0  0  0  0  0  0
  -24.3638   -9.4209   21.9181 C   0  0  0  0  0  0
  -23.6307   -8.2247   22.0752 C   0  0  0  0  0  0
  -22.4289   -8.0283   21.3543 C   0  0  0  0  0  0
  -21.9928   -9.0262   20.4649 C   0  0  0  0  0  0
  -22.7262  -10.2137   20.3058 C   0  0  0  0  0  0
  -21.6859   -6.0740   22.5276 C   0  0  0  0  0  0
  -21.4016   -6.5641   23.8209 C   0  0  0  0  0  0
  -21.3662   -5.6789   24.9169 C   0  0  0  0  0  0
  -21.6045   -4.3053   24.7215 C   0  0  0  0  0  0
  -21.8819   -3.8147   23.4337 C   0  0  0  0  0  0
  -21.9194   -4.6969   22.3395 C   0  0  0  0  0  0
  -22.7781  -13.5207   21.1906 C   0  0  0  0  0  0
  -22.1664   -4.2157   21.0972 F   0  0  0  0  0  0
  -21.5629   -3.4533   25.7726 F   0  0  0  0  0  0
  -29.9178  -13.8137   20.3836 N   0  0  0  0  0  0
  -26.2845  -12.9502   20.3251 N   0  0  0  0  0  0
  -25.9330  -11.6621   20.5765 N   0  0  0  0  0  0
  -22.0432  -12.8189   22.0459 N   0  0  0  0  0  0
  -25.4043  -15.1968   20.4052 N   0  0  0  0  0  0
  -31.6740  -15.1447   20.0384 O   0  0  0  0  0  0
  -21.6648   -6.8884   21.4238 O   0  0  0  0  0  0
  -22.3471  -14.5505   20.6736 O   0  0  0  0  0  0
  -24.6512  -31.8329   23.1763 C   0  0  0  0  0  0
  -25.9243  -32.4638   23.8197 C   0  0  1  0  0  0
  -27.2223  -27.0325   20.1725 C   0  0  0  0  0  0
  -25.5957  -33.8449   24.2114 N   0  0  0  0  0  0
  -23.4612  -30.4446   21.5223 C   0  0  2  0  0  0
  -24.9138  -28.8458   20.1052 C   0  0  0  0  0  0
  -22.7610  -29.4481   22.4809 C   0  0  0  0  0  0
  -18.0310  -28.1401   22.8481 C   0  0  0  0  0  0
  -24.1491  -36.7230   23.2646 C   0  0  0  0  0  0
  -26.0203  -30.6730   21.3890 C   0  0  0  0  0  0
  -26.0890  -29.2723   20.7341 C   0  0  0  0  0  0
  -27.2360  -28.3807   20.7490 C   0  0  0  0  0  0
  -26.0247  -26.7259   19.4940 C   0  0  0  0  0  0
  -24.9003  -27.5913   19.4680 C   0  0  0  0  0  0
  -23.6936  -29.7604   20.1455 C   0  0  0  0  0  0
  -25.4131  -36.3001   24.0305 C   0  0  1  0  0  0
  -20.5930  -28.3732   23.1224 C   0  0  2  0  0  0
  -20.6788  -26.9419   22.5418 C   0  0  0  0  0  0
  -19.5759  -26.6371   21.5225 C   0  0  0  0  0  0
  -18.1939  -26.7937   22.1630 C   0  0  0  0  0  0
  -19.1572  -28.8886   23.2845 C   0  0  0  0  0  0
  -18.9485  -30.1478   23.8874 C   0  0  0  0  0  0
  -17.6481  -30.6598   24.0557 C   0  0  0  0  0  0
  -25.9084  -34.9381   23.5029 C   0  0  0  0  0  0
  -16.5372  -29.9088   23.6339 C   0  0  0  0  0  0
  -16.7296  -28.6505   23.0366 C   0  0  0  0  0  0
  -26.4534  -31.6552   25.0685 C   0  0  0  0  0  0
  -25.3684  -31.3781   26.1357 C   0  0  0  0  0  0
  -27.0413  -30.2936   24.6337 C   0  0  0  0  0  0
  -27.6043  -32.4340   25.7485 C   0  0  0  0  0  0
  -27.5572  -37.1775   24.8467 C   0  0  0  0  0  0
  -21.4290  -29.3041   22.3574 N   0  0  0  0  0  0
  -26.4284  -37.3726   23.9406 N   0  0  0  0  0  0
  -24.7313  -31.0084   22.0841 N   0  0  0  0  0  0
  -23.4212  -28.8050   23.3011 O   0  0  0  0  0  0
  -28.2753  -26.0269   20.3145 O   0  0  0  0  0  0
  -26.5684  -34.8900   22.4617 O   0  0  0  0  0  0
  -23.5612  -32.1251   23.6932 O   0  0  0  0  0  0
  -29.9441  -22.0569   20.3160 C   0  0  0  0  0  0
  -27.6327  -21.7264   19.8721 C   0  0  0  0  0  0
  -25.4782  -18.5265   22.2674 C   0  0  0  0  0  0
  -25.8177  -19.9760   22.0500 C   0  0  0  0  0  0
  -29.6344  -23.6615   20.5769 C   0  0  0  0  0  0
  -27.2949  -23.3000   20.2588 C   0  0  0  0  0  0
  -29.4922  -16.5758   22.1238 C   0  0  0  0  0  0
  -29.7243  -17.8285   20.0831 C   0  0  0  0  0  0
  -28.1256  -17.2592   22.3222 C   0  0  0  0  0  0
  -28.8281  -20.9505   20.6356 C   0  0  1  0  0  0
  -26.6012  -18.9051   21.3085 C   0  0  0  0  0  0
  -29.0700  -19.1975   20.9198 C   0  0  1  0  0  0
  -28.3672  -24.4604   19.9581 C   0  0  1  0  0  0
  -29.7605  -16.3326   20.7062 N   0  0  0  0  0  0
  -27.9804  -18.6689   21.8195 N   0  3  2  0  0  0
  -31.4653  -12.8720   19.2009 H   0  0  0  0  0  0
  -30.4684  -11.7617   20.0854 H   0  0  0  0  0  0
  -29.8753  -11.7502   17.6386 H   0  0  0  0  0  0
  -29.5920  -13.4743   17.6817 H   0  0  0  0  0  0
  -27.9818  -11.2829   19.0184 H   0  0  0  0  0  0
  -27.4031  -12.4259   17.8331 H   0  0  0  0  0  0
  -27.5682  -14.2582   19.3918 H   0  0  0  0  0  0
  -28.7822  -12.3782   21.4719 H   0  0  0  0  0  0
  -28.3059  -14.0338   21.7457 H   0  0  0  0  0  0
  -25.2784   -9.5689   22.4749 H   0  0  0  0  0  0
  -24.0016   -7.4641   22.7476 H   0  0  0  0  0  0
  -21.0856   -8.8787   19.8959 H   0  0  0  0  0  0
  -22.3721  -10.9676   19.6169 H   0  0  0  0  0  0
  -21.2009   -7.6148   23.9715 H   0  0  0  0  0  0
  -21.1488   -6.0517   25.9073 H   0  0  0  0  0  0
  -22.0599   -2.7612   23.2830 H   0  0  0  0  0  0
  -22.4057  -11.9859   22.4856 H   0  0  0  0  0  0
  -21.1043  -13.1203   22.2657 H   0  0  0  0  0  0
  -24.5971  -15.8096   20.4331 H   0  0  0  0  0  0
  -26.1879  -15.5963   19.9071 H   0  0  0  0  0  0
  -26.7303  -32.5206   23.0910 H   0  0  0  0  0  0
  -25.0077  -33.9543   25.0246 H   0  0  0  0  0  0
  -22.7695  -31.2736   21.3571 H   0  0  0  0  0  0
  -23.3763  -35.9552   23.3293 H   0  0  0  0  0  0
  -24.3569  -36.8886   22.2063 H   0  0  0  0  0  0
  -23.7236  -37.6414   23.6703 H   0  0  0  0  0  0
  -26.1853  -31.4203   20.6117 H   0  0  0  0  0  0
  -26.8874  -30.7299   22.0357 H   0  0  0  0  0  0
  -28.1255  -28.6976   21.2752 H   0  0  0  0  0  0
  -25.9305  -25.7617   19.0158 H   0  0  0  0  0  0
  -24.0024  -27.2609   18.9642 H   0  0  0  0  0  0
  -23.8374  -30.5292   19.3856 H   0  0  0  0  0  0
  -22.8070  -29.2057   19.8329 H   0  0  0  0  0  0
  -25.1328  -36.1810   25.0795 H   0  0  0  0  0  0
  -21.0031  -28.3330   24.1343 H   0  0  0  0  0  0
  -20.5671  -26.2341   23.3647 H   0  0  0  0  0  0
  -21.6649  -26.7399   22.1220 H   0  0  0  0  0  0
  -19.6913  -25.6273   21.1274 H   0  0  0  0  0  0
  -19.6701  -27.3164   20.6744 H   0  0  0  0  0  0
  -17.4210  -26.6696   21.4030 H   0  0  0  0  0  0
  -18.0324  -26.0086   22.9031 H   0  0  0  0  0  0
  -19.7961  -30.7304   24.2232 H   0  0  0  0  0  0
  -17.5035  -31.6277   24.5164 H   0  0  0  0  0  0
  -15.5371  -30.2985   23.7679 H   0  0  0  0  0  0
  -15.8695  -28.0813   22.7100 H   0  0  0  0  0  0
  -24.5881  -30.7112   25.7674 H   0  0  0  0  0  0
  -24.8851  -32.2977   26.4668 H   0  0  0  0  0  0
  -25.7936  -30.9030   27.0206 H   0  0  0  0  0  0
  -26.3049  -29.6640   24.1329 H   0  0  0  0  0  0
  -27.3977  -29.7266   25.4947 H   0  0  0  0  0  0
  -27.8977  -30.4153   23.9702 H   0  0  0  0  0  0
  -27.2626  -33.3680   26.1960 H   0  0  0  0  0  0
  -28.3913  -32.6839   25.0356 H   0  0  0  0  0  0
  -28.0642  -31.8530   26.5487 H   0  0  0  0  0  0
  -28.2583  -38.0077   24.7508 H   0  0  0  0  0  0
  -28.1073  -36.2605   24.6303 H   0  0  0  0  0  0
  -27.2287  -37.1431   25.8869 H   0  0  0  0  0  0
  -20.9521  -29.8729   21.6717 H   0  0  0  0  0  0
  -26.0142  -38.2790   24.1409 H   0  0  0  0  0  0
  -30.8391  -21.7999   20.8841 H   0  0  0  0  0  0
  -30.2389  -21.9416   19.2721 H   0  0  0  0  0  0
  -27.8416  -21.6863   18.8016 H   0  0  0  0  0  0
  -26.7067  -21.1697   19.9580 H   0  0  0  0  0  0
  -24.5527  -18.1585   21.8280 H   0  0  0  0  0  0
  -25.7067  -18.1203   23.2507 H   0  0  0  0  0  0
  -26.2971  -20.5069   22.8704 H   0  0  0  0  0  0
  -25.0942  -20.5621   21.4855 H   0  0  0  0  0  0
  -30.5291  -24.2131   20.2859 H   0  0  0  0  0  0
  -29.5797  -23.7893   21.6586 H   0  0  0  0  0  0
  -27.0450  -23.3343   21.3200 H   0  0  0  0  0  0
  -26.3723  -23.5708   19.7468 H   0  0  0  0  0  0
  -29.5061  -15.6470   22.6960 H   0  0  0  0  0  0
  -30.2939  -17.1771   22.5551 H   0  0  0  0  0  0
  -30.7431  -18.0730   19.7795 H   0  0  0  0  0  0
  -29.1715  -17.7347   19.1486 H   0  0  0  0  0  0
  -27.8870  -17.2611   23.3859 H   0  0  0  0  0  0
  -27.3753  -16.6213   21.8530 H   0  0  0  0  0  0
  -28.5957  -21.2177   21.6669 H   0  0  0  0  0  0
  -26.4564  -18.7218   20.2449 H   0  0  0  0  0  0
  -29.8765  -19.3060   21.6458 H   0  0  0  0  0  0
  -28.4935  -24.4602   18.8752 H   0  0  0  0  0  0
  -28.0605  -19.2315   22.6529 H   0  0  0  0  0  0
  1 25  1  0  0  0
  1 30  2  0  0  0
  1 84  1  0  0  0
  2  3  1  0  0  0
  2 25  1  0  0  0
  2 86  1  0  0  0
  2 87  1  0  0  0
  3  4  1  0  0  0
  3 88  1  0  0  0
  3 89  1  0  0  0
  4  5  1  0  0  0
  4 90  1  0  0  0
  4 91  1  0  0  0
  5  6  1  0  0  0
  5 26  1  0  0  0
  5 92  1  0  0  0
  6 25  1  0  0  0
  6 93  1  0  0  0
  6 94  1  0  0  0
  7  8  2  0  0  0
  7 26  1  0  0  0
  7 29  1  0  0  0
  8  9  1  0  0  0
  8 22  1  0  0  0
  9 10  1  0  0  0
  9 27  2  0  0  0
 10 11  2  0  0  0
 10 15  1  0  0  0
 11 12  1  0  0  0
 11 95  1  0  0  0
 12 13  2  0  0  0
 12 96  1  0  0  0
 13 14  1  0  0  0
 13 31  1  0  0  0
 14 15  2  0  0  0
 14 97  1  0  0  0
 15 98  1  0  0  0
 16 17  2  0  0  0
 16 21  1  0  0  0
 16 31  1  0  0  0
 17 18  1  0  0  0
 17 99  1  0  0  0
 18 19  2  0  0  0
 18100  1  0  0  0
 19 20  1  0  0  0
 19 24  1  0  0  0
 20 21  2  0  0  0
 20101  1  0  0  0
 21 23  1  0  0  0
 22 28  1  0  0  0
 22 32  2  0  0  0
 26 27  1  0  0  0
 28102  1  0  0  0
 28103  1  0  0  0
 29104  1  0  0  0
 29105  1  0  0  0
 33 34  1  0  0  0
 33 66  1  0  0  0
 33 70  2  0  0  0
 34 36  1  0  0  0
 34 59  1  0  0  0
 34106  1  0  0  0
 35 44  2  0  0  0
 35 45  1  0  0  0
 35 68  1  0  0  0
 36 56  1  0  0  0
 36107  1  0  0  0
 37 39  1  0  0  0
 37 47  1  0  0  0
 37 66  1  0  0  0
 37108  1  0  0  0
 38 43  2  0  0  0
 38 46  1  0  0  0
 38 47  1  0  0  0
 39 64  1  0  0  0
 39 67  2  0  0  0
 40 52  1  0  0  0
 40 53  2  0  0  0
 40 58  1  0  0  0
 41109  1  0  0  0
 41110  1  0  0  0
 41111  1  0  0  0
 41 48  1  0  0  0
 42 43  1  0  0  0
 42 66  1  0  0  0
 42112  1  0  0  0
 42113  1  0  0  0
 43 44  1  0  0  0
 44114  1  0  0  0
 45 46  2  0  0  0
 45115  1  0  0  0
 46116  1  0  0  0
 47117  1  0  0  0
 47118  1  0  0  0
 48 56  1  0  0  0
 48 65  1  0  0  0
 48119  1  0  0  0
 49 50  1  0  0  0
 49 53  1  0  0  0
 49 64  1  0  0  0
 49120  1  0  0  0
 50 51  1  0  0  0
 50121  1  0  0  0
 50122  1  0  0  0
 51 52  1  0  0  0
 51123  1  0  0  0
 51124  1  0  0  0
 52125  1  0  0  0
 52126  1  0  0  0
 53 54  1  0  0  0
 54 55  2  0  0  0
 54127  1  0  0  0
 55 57  1  0  0  0
 55128  1  0  0  0
 56 69  2  0  0  0
 57 58  2  0  0  0
 57129  1  0  0  0
 58130  1  0  0  0
 59 60  1  0  0  0
 59 61  1  0  0  0
 59 62  1  0  0  0
 60131  1  0  0  0
 60132  1  0  0  0
 60133  1  0  0  0
 61134  1  0  0  0
 61135  1  0  0  0
 61136  1  0  0  0
 62137  1  0  0  0
 62138  1  0  0  0
 62139  1  0  0  0
 63 65  1  0  0  0
 63140  1  0  0  0
 63141  1  0  0  0
 63142  1  0  0  0
 64143  1  0  0  0
 65144  1  0  0  0
 68 83  1  0  0  0
 71 75  1  0  0  0
 71145  1  0  0  0
 71146  1  0  0  0
 71 80  1  0  0  0
 72 76  1  0  0  0
 72 80  1  0  0  0
 72147  1  0  0  0
 72148  1  0  0  0
 73 74  1  0  0  0
 73149  1  0  0  0
 73150  1  0  0  0
 73 81  1  0  0  0
 74 81  1  0  0  0
 74151  1  0  0  0
 74152  1  0  0  0
 75 83  1  0  0  0
 75153  1  0  0  0
 75154  1  0  0  0
 76 83  1  0  0  0
 76155  1  0  0  0
 76156  1  0  0  0
 77 79  1  0  0  0
 77 84  1  0  0  0
 77157  1  0  0  0
 77158  1  0  0  0
 78 84  1  0  0  0
 78159  1  0  0  0
 78160  1  0  0  0
 78 82  1  0  0  0
 79161  1  0  0  0
 79162  1  0  0  0
 79 85  1  0  0  0
 80 82  1  0  0  0
 80163  1  0  0  0
 81 85  1  0  0  0
 81164  1  0  0  0
 82 85  1  0  0  0
 82165  1  0  0  0
 83166  1  0  0  0
 85167  1  0  0  0
M  CHG  1  85   1
M  ISO  4   1 100  68 101  83 101  84 100
M  END
> <chiral flag>
0

> <version>
0

> <s_m_source_file>
/data/baiqing/PycharmProjects/Reinvent-master-3.2/result/LINK_invent/BTK/process_docking_weight1_custom_sum_contain_oxygen_bond_distance_aromatic_linkinvent_7_9_3/rearranged_h_0128.sdf

> <i_m_source_file_index>
55

> <r_mmod_Potential_Energy-OPLS-2005>
1157.51843261719

> <r_mmod_Stretch_Energy-OPLS-2005>
407.535522460938

> <r_mmod_Bend_Energy-OPLS-2005>
477.129669189453

> <r_mmod_Torsional_Energy-OPLS-2005>
458.984466552734

> <r_mmod_Improper_Torsional_Energy-OPLS-2005>
8.12021255493164

> <r_mmod_Van_der_Waal_Energy-OPLS-2005>
115.854789733887

> <r_mmod_Electrostatic_Energy-OPLS-2005>
-174.079803466797

> <r_mmod_Solvation_Energy-OPLS-2005>
-438.417938232422

> <b_mmod_Minimization_Converged-OPLS-2005>
0

> <r_mmod_RMS_Derivative-OPLS-2005>
1.18101596832275

$$$$
55
                    3D
 Structure written by MMmdl.
159168  0  0  1  0            999 V2000
  -30.6196  -14.7358   20.4508 C   0  0  0  0  0  0
  -30.4322  -12.4485   19.4681 C   0  0  0  0  0  0
  -29.5051  -12.5058   18.2334 C   0  0  0  0  0  0
  -28.0348  -12.3250   18.6556 C   0  0  0  0  0  0
  -27.6416  -13.2313   19.8530 C   0  0  2  0  0  0
  -28.6926  -13.1680   20.9848 C   0  0  0  0  0  0
  -25.2508  -13.8196   20.5722 C   0  0  0  0  0  0
  -24.1800  -13.0442   20.9180 C   0  0  0  0  0  0
  -24.6371  -11.6918   20.8680 C   0  0  0  0  0  0
  -23.9049  -10.4296   21.0313 C   0  0  0  0  0  0
  -24.3617   -9.4250   21.9115 C   0  0  0  0  0  0
  -23.6319   -8.2261   22.0704 C   0  0  0  0  0  0
  -22.4309   -8.0280   21.3504 C   0  0  0  0  0  0
  -21.9917   -9.0223   20.4593 C   0  0  0  0  0  0
  -22.7200  -10.2139   20.2982 C   0  0  0  0  0  0
  -21.6875   -6.0771   22.5287 C   0  0  0  0  0  0
  -21.4019   -6.5672   23.8230 C   0  0  0  0  0  0
  -21.3655   -5.6814   24.9190 C   0  0  0  0  0  0
  -21.6060   -4.3065   24.7224 C   0  0  0  0  0  0
  -21.8821   -3.8180   23.4330 C   0  0  0  0  0  0
  -21.9201   -4.6990   22.3399 C   0  0  0  0  0  0
  -22.7817  -13.5222   21.1840 C   0  0  0  0  0  0
  -22.1650   -4.2193   21.0963 F   0  0  0  0  0  0
  -21.5628   -3.4535   25.7719 F   0  0  0  0  0  0
  -29.9877  -13.5160   20.3912 N   0  0  0  0  0  0
  -26.2953  -12.9397   20.3324 N   0  0  0  0  0  0
  -25.9311  -11.6542   20.5740 N   0  0  0  0  0  0
  -22.0500  -12.8179   22.0401 N   0  0  0  0  0  0
  -25.4116  -15.1925   20.4170 N   0  0  0  0  0  0
  -31.8168  -14.8209   20.1659 O   0  0  0  0  0  0
  -21.6662   -6.8880   21.4240 O   0  0  0  0  0  0
  -22.3488  -14.5517   20.6680 O   0  0  0  0  0  0
  -24.6305  -31.8527   23.1944 C   0  0  0  0  0  0
  -25.9150  -32.4711   23.8290 C   0  0  1  0  0  0
  -27.2161  -27.2625   20.1164 C   0  0  0  0  0  0
  -25.5968  -33.8522   24.2203 N   0  0  0  0  0  0
  -23.4273  -30.4789   21.5346 C   0  0  2  0  0  0
  -24.8715  -28.9238   20.1056 C   0  0  0  0  0  0
  -22.7477  -29.4641   22.4852 C   0  0  0  0  0  0
  -18.0313  -28.1394   22.8479 C   0  0  0  0  0  0
  -24.1513  -36.7249   23.2640 C   0  0  0  0  0  0
  -25.9736  -30.7624   21.3819 C   0  0  0  0  0  0
  -26.0433  -29.3911   20.7114 C   0  0  0  0  0  0
  -27.2179  -28.5738   20.7019 C   0  0  0  0  0  0
  -26.0123  -26.8512   19.5024 C   0  0  0  0  0  0
  -24.8608  -27.6617   19.4926 C   0  0  0  0  0  0
  -23.6425  -29.8104   20.1511 C   0  0  0  0  0  0
  -25.4142  -36.3021   24.0302 C   0  0  1  0  0  0
  -20.5913  -28.3735   23.1210 C   0  0  2  0  0  0
  -20.6811  -26.9444   22.5384 C   0  0  0  0  0  0
  -19.5790  -26.6397   21.5195 C   0  0  0  0  0  0
  -18.1968  -26.7943   22.1605 C   0  0  0  0  0  0
  -19.1565  -28.8877   23.2860 C   0  0  0  0  0  0
  -18.9492  -30.1473   23.8880 C   0  0  0  0  0  0
  -17.6491  -30.6594   24.0566 C   0  0  0  0  0  0
  -25.9079  -34.9403   23.5043 C   0  0  0  0  0  0
  -16.5377  -29.9081   23.6347 C   0  0  0  0  0  0
  -16.7300  -28.6506   23.0347 C   0  0  0  0  0  0
  -26.4536  -31.6552   25.0686 C   0  0  0  0  0  0
  -25.3749  -31.3732   26.1388 C   0  0  0  0  0  0
  -27.0415  -30.2944   24.6272 C   0  0  0  0  0  0
  -27.6057  -32.4327   25.7471 C   0  0  0  0  0  0
  -27.5589  -37.1773   24.8450 C   0  0  0  0  0  0
  -21.4196  -29.3067   22.3562 N   0  0  0  0  0  0
  -26.4297  -37.3733   23.9397 N   0  0  0  0  0  0
  -24.6948  -31.0489   22.0933 N   0  0  0  0  0  0
  -23.4137  -28.8197   23.2994 O   0  0  0  0  0  0
  -28.3372  -26.4028   20.1487 O   0  0  0  0  0  0
  -26.5639  -34.8882   22.4604 O   0  0  0  0  0  0
  -23.5447  -32.1389   23.7216 O   0  0  0  0  0  0
  -31.3672  -22.3692   19.5084 C   0  0  0  0  0  0
  -30.6692  -24.9443   19.4450 C   0  0  0  0  0  0
  -29.9997  -22.6763   19.8573 C   0  0  0  0  0  0
  -29.5912  -24.1204   19.8067 C   0  0  0  0  0  0
  -31.9547  -24.4672   19.1046 C   0  0  0  0  0  0
  -31.0197  -26.3632   19.0417 C   0  0  0  0  0  0
  -32.4569  -25.7972   18.6129 C   0  0  0  0  0  0
  -29.1535  -21.3300   20.1290 C   0  0  0  0  0  0
  -28.2246  -24.9161   19.9134 C   0  0  0  0  0  0
  -30.3441  -17.3389   20.6586 C   0  0  0  0  0  0
  -29.3666  -18.5966   20.2864 C   0  0  0  0  0  0
  -32.3605  -23.2072   19.1060 N   0  0  0  0  0  0
  -29.8610  -15.8839   20.6189 N   0  0  0  0  0  0
  -29.9261  -20.0237   20.4865 N   0  3  0  0  0  0
  -31.4732  -12.5717   19.1677 H   0  0  0  0  0  0
  -30.3708  -11.4747   19.9580 H   0  0  0  0  0  0
  -29.7831  -11.7385   17.5101 H   0  0  0  0  0  0
  -29.6261  -13.4656   17.7318 H   0  0  0  0  0  0
  -27.9071  -11.2778   18.9279 H   0  0  0  0  0  0
  -27.3691  -12.5010   17.8097 H   0  0  0  0  0  0
  -27.6337  -14.2534   19.4742 H   0  0  0  0  0  0
  -28.7410  -12.1737   21.4289 H   0  0  0  0  0  0
  -28.4363  -13.8522   21.7952 H   0  0  0  0  0  0
  -25.2745   -9.5808   22.4702 H   0  0  0  0  0  0
  -24.0066   -7.4686   22.7443 H   0  0  0  0  0  0
  -21.0846   -8.8705   19.8903 H   0  0  0  0  0  0
  -22.3573  -10.9681   19.6119 H   0  0  0  0  0  0
  -21.1980   -7.6180   23.9732 H   0  0  0  0  0  0
  -21.1460   -6.0536   25.9099 H   0  0  0  0  0  0
  -22.0577   -2.7637   23.2800 H   0  0  0  0  0  0
  -22.4225  -11.9922   22.4841 H   0  0  0  0  0  0
  -21.1072  -13.1112   22.2546 H   0  0  0  0  0  0
  -24.6245  -15.8257   20.5233 H   0  0  0  0  0  0
  -26.2424  -15.6531   20.0676 H   0  0  0  0  0  0
  -26.7206  -32.5329   23.1015 H   0  0  0  0  0  0
  -25.0120  -33.9671   25.0349 H   0  0  0  0  0  0
  -22.7304  -31.3046   21.3858 H   0  0  0  0  0  0
  -23.3774  -35.9578   23.3272 H   0  0  0  0  0  0
  -24.3627  -36.8914   22.2066 H   0  0  0  0  0  0
  -23.7276  -37.6439   23.6702 H   0  0  0  0  0  0
  -26.1327  -31.5394   20.6327 H   0  0  0  0  0  0
  -26.8379  -30.7848   22.0328 H   0  0  0  0  0  0
  -28.1176  -28.9319   21.1824 H   0  0  0  0  0  0
  -25.9210  -25.8853   19.0312 H   0  0  0  0  0  0
  -23.9587  -27.2941   19.0225 H   0  0  0  0  0  0
  -23.7540  -30.5817   19.3879 H   0  0  0  0  0  0
  -22.7615  -29.2370   19.8579 H   0  0  0  0  0  0
  -25.1347  -36.1851   25.0797 H   0  0  0  0  0  0
  -21.0052  -28.3361   24.1309 H   0  0  0  0  0  0
  -20.5731  -26.2357   23.3611 H   0  0  0  0  0  0
  -21.6677  -26.7478   22.1166 H   0  0  0  0  0  0
  -19.6962  -25.6306   21.1239 H   0  0  0  0  0  0
  -19.6723  -27.3191   20.6713 H   0  0  0  0  0  0
  -17.4244  -26.6684   21.4003 H   0  0  0  0  0  0
  -18.0382  -26.0082   22.8999 H   0  0  0  0  0  0
  -19.7974  -30.7310   24.2201 H   0  0  0  0  0  0
  -17.5048  -31.6273   24.5173 H   0  0  0  0  0  0
  -15.5376  -30.2966   23.7705 H   0  0  0  0  0  0
  -15.8705  -28.0826   22.7031 H   0  0  0  0  0  0
  -24.5883  -30.7148   25.7699 H   0  0  0  0  0  0
  -24.8989  -32.2909   26.4835 H   0  0  0  0  0  0
  -25.8028  -30.8862   27.0150 H   0  0  0  0  0  0
  -26.3026  -29.6628   24.1317 H   0  0  0  0  0  0
  -27.4076  -29.7301   25.4867 H   0  0  0  0  0  0
  -27.8921  -30.4174   23.9557 H   0  0  0  0  0  0
  -27.2625  -33.3611   26.2051 H   0  0  0  0  0  0
  -28.3864  -32.6923   25.0306 H   0  0  0  0  0  0
  -28.0735  -31.8459   26.5394 H   0  0  0  0  0  0
  -28.2555  -38.0116   24.7541 H   0  0  0  0  0  0
  -28.1142  -36.2649   24.6229 H   0  0  0  0  0  0
  -27.2302  -37.1340   25.8847 H   0  0  0  0  0  0
  -20.9361  -29.8715   21.6719 H   0  0  0  0  0  0
  -26.0159  -38.2792   24.1421 H   0  0  0  0  0  0
  -31.7087  -21.3472   19.4896 H   0  0  0  0  0  0
  -31.0468  -27.0513   19.8895 H   0  0  0  0  0  0
  -30.4176  -26.7389   18.2142 H   0  0  0  0  0  0
  -32.6249  -25.8027   17.5358 H   0  0  0  0  0  0
  -33.3064  -26.1803   19.1767 H   0  0  0  0  0  0
  -28.5861  -21.1421   19.2167 H   0  0  0  0  0  0
  -28.4083  -21.5072   20.9040 H   0  0  0  0  0  0
  -27.5635  -24.4548   20.6469 H   0  0  0  0  0  0
  -27.7584  -24.7808   18.9352 H   0  0  0  0  0  0
  -30.7360  -17.4901   21.6654 H   0  0  0  0  0  0
  -31.2185  -17.3938   20.0052 H   0  0  0  0  0  0
  -28.4402  -18.5144   20.8527 H   0  0  0  0  0  0
  -29.0880  -18.5050   19.2354 H   0  0  0  0  0  0
  -28.8741  -15.7362   20.7738 H   0  0  0  0  0  0
  -30.1868  -20.0916   21.4577 H   0  0  0  0  0  0
  -30.7824  -20.0427   19.9599 H   0  0  0  0  0  0
  1 25  1  0  0  0
  1 30  2  0  0  0
  1 83  1  0  0  0
  2  3  1  0  0  0
  2 25  1  0  0  0
  2 85  1  0  0  0
  2 86  1  0  0  0
  3  4  1  0  0  0
  3 87  1  0  0  0
  3 88  1  0  0  0
  4  5  1  0  0  0
  4 89  1  0  0  0
  4 90  1  0  0  0
  5  6  1  0  0  0
  5 26  1  0  0  0
  5 91  1  0  0  0
  6 25  1  0  0  0
  6 92  1  0  0  0
  6 93  1  0  0  0
  7  8  2  0  0  0
  7 26  1  0  0  0
  7 29  1  0  0  0
  8  9  1  0  0  0
  8 22  1  0  0  0
  9 10  1  0  0  0
  9 27  2  0  0  0
 10 11  2  0  0  0
 10 15  1  0  0  0
 11 12  1  0  0  0
 11 94  1  0  0  0
 12 13  2  0  0  0
 12 95  1  0  0  0
 13 14  1  0  0  0
 13 31  1  0  0  0
 14 15  2  0  0  0
 14 96  1  0  0  0
 15 97  1  0  0  0
 16 17  2  0  0  0
 16 21  1  0  0  0
 16 31  1  0  0  0
 17 18  1  0  0  0
 17 98  1  0  0  0
 18 19  2  0  0  0
 18 99  1  0  0  0
 19 20  1  0  0  0
 19 24  1  0  0  0
 20 21  2  0  0  0
 20100  1  0  0  0
 21 23  1  0  0  0
 22 28  1  0  0  0
 22 32  2  0  0  0
 26 27  1  0  0  0
 28101  1  0  0  0
 28102  1  0  0  0
 29103  1  0  0  0
 29104  1  0  0  0
 33 34  1  0  0  0
 33 66  1  0  0  0
 33 70  2  0  0  0
 34 36  1  0  0  0
 34 59  1  0  0  0
 34105  1  0  0  0
 35 44  2  0  0  0
 35 45  1  0  0  0
 35 68  1  0  0  0
 36 56  1  0  0  0
 36106  1  0  0  0
 37 39  1  0  0  0
 37 47  1  0  0  0
 37 66  1  0  0  0
 37107  1  0  0  0
 38 43  2  0  0  0
 38 46  1  0  0  0
 38 47  1  0  0  0
 39 64  1  0  0  0
 39 67  2  0  0  0
 40 52  1  0  0  0
 40 53  2  0  0  0
 40 58  1  0  0  0
 41108  1  0  0  0
 41109  1  0  0  0
 41110  1  0  0  0
 41 48  1  0  0  0
 42 43  1  0  0  0
 42 66  1  0  0  0
 42111  1  0  0  0
 42112  1  0  0  0
 43 44  1  0  0  0
 44113  1  0  0  0
 45 46  2  0  0  0
 45114  1  0  0  0
 46115  1  0  0  0
 47116  1  0  0  0
 47117  1  0  0  0
 48 56  1  0  0  0
 48 65  1  0  0  0
 48118  1  0  0  0
 49 50  1  0  0  0
 49 53  1  0  0  0
 49 64  1  0  0  0
 49119  1  0  0  0
 50 51  1  0  0  0
 50120  1  0  0  0
 50121  1  0  0  0
 51 52  1  0  0  0
 51122  1  0  0  0
 51123  1  0  0  0
 52124  1  0  0  0
 52125  1  0  0  0
 53 54  1  0  0  0
 54 55  2  0  0  0
 54126  1  0  0  0
 55 57  1  0  0  0
 55127  1  0  0  0
 56 69  2  0  0  0
 57 58  2  0  0  0
 57128  1  0  0  0
 58129  1  0  0  0
 59 60  1  0  0  0
 59 61  1  0  0  0
 59 62  1  0  0  0
 60130  1  0  0  0
 60131  1  0  0  0
 60132  1  0  0  0
 61133  1  0  0  0
 61134  1  0  0  0
 61135  1  0  0  0
 62136  1  0  0  0
 62137  1  0  0  0
 62138  1  0  0  0
 63 65  1  0  0  0
 63139  1  0  0  0
 63140  1  0  0  0
 63141  1  0  0  0
 64142  1  0  0  0
 65143  1  0  0  0
 68 79  1  0  0  0
 71 73  2  0  0  0
 71 82  1  0  0  0
 71144  1  0  0  0
 72 74  2  0  0  0
 72 75  1  0  0  0
 72 76  1  0  0  0
 73 74  1  0  0  0
 73 78  1  0  0  0
 74 79  1  0  0  0
 75 77  1  0  0  0
 75 82  2  0  0  0
 76 77  1  0  0  0
 76145  1  0  0  0
 76146  1  0  0  0
 77147  1  0  0  0
 77148  1  0  0  0
 78 84  1  0  0  0
 78149  1  0  0  0
 78150  1  0  0  0
 79151  1  0  0  0
 79152  1  0  0  0
 80 81  1  0  0  0
 80 83  1  0  0  0
 80153  1  0  0  0
 80154  1  0  0  0
 81 84  1  0  0  0
 81155  1  0  0  0
 81156  1  0  0  0
 83157  1  0  0  0
 84158  1  0  0  0
 84159  1  0  0  0
M  CHG  1  84   1
M  ISO  4   1 100  68 101  79 101  83 100
M  END
> <chiral flag>
0

> <version>
0

> <s_m_source_file>
/data/baiqing/PycharmProjects/Reinvent-master-3.2/result/LINK_invent/BTK/process_docking_weight1_custom_sum_contain_oxygen_bond_distance_aromatic_linkinvent_7_9_3/rearranged_h_0128.sdf

> <i_m_source_file_index>
56

> <r_mmod_Potential_Energy-OPLS-2005>
264.879028320312

> <r_mmod_Stretch_Energy-OPLS-2005>
168.077896118164

> <r_mmod_Bend_Energy-OPLS-2005>
567.45947265625

> <r_mmod_Torsional_Energy-OPLS-2005>
220.941360473633

> <r_mmod_Improper_Torsional_Energy-OPLS-2005>
7.99093008041382

> <r_mmod_Van_der_Waal_Energy-OPLS-2005>
147.468322753906

> <r_mmod_Electrostatic_Energy-OPLS-2005>
-415.991424560547

> <r_mmod_Solvation_Energy-OPLS-2005>
-512.566528320312

> <b_mmod_Minimization_Converged-OPLS-2005>
0

> <r_mmod_RMS_Derivative-OPLS-2005>
4.2978687286377

$$$$
56
                    3D
 Structure written by MMmdl.
159167  0  0  1  0            999 V2000
  -30.7363  -14.4169   20.6592 C   0  0  0  0  0  0
  -30.4188  -12.3089   19.4030 C   0  0  0  0  0  0
  -29.4837  -12.5126   18.1944 C   0  0  0  0  0  0
  -28.0116  -12.3562   18.6182 C   0  0  0  0  0  0
  -27.6621  -13.2007   19.8714 C   0  0  2  0  0  0
  -28.6989  -12.9688   20.9913 C   0  0  0  0  0  0
  -25.2616  -13.8159   20.5668 C   0  0  0  0  0  0
  -24.1844  -13.0454   20.9161 C   0  0  0  0  0  0
  -24.6406  -11.6912   20.8742 C   0  0  0  0  0  0
  -23.9091  -10.4279   21.0427 C   0  0  0  0  0  0
  -24.3632   -9.4191   21.9210 C   0  0  0  0  0  0
  -23.6317   -8.2214   22.0765 C   0  0  0  0  0  0
  -22.4297   -8.0260   21.3540 C   0  0  0  0  0  0
  -21.9932   -9.0254   20.4656 C   0  0  0  0  0  0
  -22.7267  -10.2133   20.3081 C   0  0  0  0  0  0
  -21.6834   -6.0755   22.5295 C   0  0  0  0  0  0
  -21.3998   -6.5672   23.8231 C   0  0  0  0  0  0
  -21.3649   -5.6827   24.9203 C   0  0  0  0  0  0
  -21.6018   -4.3082   24.7242 C   0  0  0  0  0  0
  -21.8826   -3.8178   23.4367 C   0  0  0  0  0  0
  -21.9190   -4.6990   22.3422 C   0  0  0  0  0  0
  -22.7861  -13.5239   21.1856 C   0  0  0  0  0  0
  -22.1665   -4.2184   21.0996 F   0  0  0  0  0  0
  -21.5628   -3.4560   25.7746 F   0  0  0  0  0  0
  -30.0347  -13.2727   20.4479 N   0  0  0  0  0  0
  -26.3023  -12.9304   20.3335 N   0  0  0  0  0  0
  -25.9315  -11.6475   20.5744 N   0  0  0  0  0  0
  -22.0555  -12.8184   22.0419 N   0  0  0  0  0  0
  -25.4453  -15.1866   20.4086 N   0  0  0  0  0  0
  -31.7976  -14.6733   20.0852 O   0  0  0  0  0  0
  -21.6640   -6.8868   21.4237 O   0  0  0  0  0  0
  -22.3506  -14.5557   20.6755 O   0  0  0  0  0  0
  -24.6139  -31.8709   23.2168 C   0  0  0  0  0  0
  -25.9046  -32.4841   23.8477 C   0  0  1  0  0  0
  -27.2472  -27.4539   20.1188 C   0  0  0  0  0  0
  -25.5909  -33.8635   24.2394 N   0  0  0  0  0  0
  -23.4000  -30.4889   21.5554 C   0  0  2  0  0  0
  -24.8497  -28.9591   20.1166 C   0  0  0  0  0  0
  -22.7407  -29.4619   22.5032 C   0  0  0  0  0  0
  -18.0255  -28.1369   22.8532 C   0  0  0  0  0  0
  -24.1458  -36.7308   23.2622 C   0  0  0  0  0  0
  -25.9205  -30.8496   21.3568 C   0  0  0  0  0  0
  -26.0033  -29.4809   20.7130 C   0  0  0  0  0  0
  -27.2044  -28.7406   20.7101 C   0  0  0  0  0  0
  -26.0844  -26.9575   19.4965 C   0  0  0  0  0  0
  -24.8833  -27.6962   19.4989 C   0  0  0  0  0  0
  -23.6079  -29.8201   20.1680 C   0  0  0  0  0  0
  -25.4070  -36.3115   24.0345 C   0  0  1  0  0  0
  -20.5846  -28.3622   23.1315 C   0  0  2  0  0  0
  -20.6718  -26.9368   22.5389 C   0  0  0  0  0  0
  -19.5653  -26.6336   21.5226 C   0  0  0  0  0  0
  -18.1859  -26.7906   22.1695 C   0  0  0  0  0  0
  -19.1519  -28.8836   23.2900 C   0  0  0  0  0  0
  -18.9497  -30.1452   23.8873 C   0  0  0  0  0  0
  -17.6507  -30.6614   24.0558 C   0  0  0  0  0  0
  -25.8986  -34.9479   23.5135 C   0  0  0  0  0  0
  -16.5365  -29.9103   23.6382 C   0  0  0  0  0  0
  -16.7270  -28.6512   23.0443 C   0  0  0  0  0  0
  -26.4487  -31.6607   25.0800 C   0  0  0  0  0  0
  -25.3751  -31.3665   26.1529 C   0  0  0  0  0  0
  -27.0346  -30.3068   24.6169 C   0  0  0  0  0  0
  -27.6043  -32.4317   25.7594 C   0  0  0  0  0  0
  -27.5542  -37.1801   24.8447 C   0  0  0  0  0  0
  -21.4130  -29.2999   22.3753 N   0  0  0  0  0  0
  -26.4252  -37.3799   23.9399 N   0  0  0  0  0  0
  -24.6630  -31.0827   22.1047 N   0  0  0  0  0  0
  -23.4147  -28.8135   23.3071 O   0  0  0  0  0  0
  -28.3667  -26.6461   20.1066 O   0  0  0  0  0  0
  -26.5490  -34.8891   22.4665 O   0  0  0  0  0  0
  -23.5340  -32.1457   23.7577 O   0  0  0  0  0  0
  -28.7814  -21.8664   20.9027 C   0  0  0  0  0  0
  -30.9077  -22.5955   21.8222 C   0  0  0  0  0  0
  -29.1207  -20.5206   21.1754 C   0  0  0  0  0  0
  -31.2457  -21.2538   22.0911 C   0  0  0  0  0  0
  -29.6681  -22.9180   21.2271 C   0  0  0  0  0  0
  -30.3656  -20.1999   21.7680 C   0  0  0  0  0  0
  -29.4035  -25.2098   23.2358 C   0  0  0  0  0  0
  -30.8038  -16.5201   22.0264 C   0  0  0  0  0  0
  -30.0397  -17.7947   21.6051 C   0  0  0  0  0  0
  -29.2830  -26.7512   21.2072 C   0  0  0  0  0  0
  -29.7778  -25.3773   21.7491 C   0  0  2  0  0  0
  -29.2898  -24.2457   20.9515 N   0  0  0  0  0  0
  -30.1981  -15.2722   21.5426 N   0  0  0  0  0  0
  -30.7959  -18.9194   22.0567 O   0  0  0  0  0  0
  -31.4633  -12.4148   19.0964 H   0  0  0  0  0  0
  -30.3226  -11.2949   19.7939 H   0  0  0  0  0  0
  -29.7234  -11.7918   17.4116 H   0  0  0  0  0  0
  -29.6386  -13.5024   17.7606 H   0  0  0  0  0  0
  -27.8447  -11.2988   18.8302 H   0  0  0  0  0  0
  -27.3460  -12.6082   17.7913 H   0  0  0  0  0  0
  -27.7179  -14.2476   19.5735 H   0  0  0  0  0  0
  -28.6719  -11.9308   21.3252 H   0  0  0  0  0  0
  -28.4388  -13.5569   21.8713 H   0  0  0  0  0  0
  -25.2795   -9.5664   22.4776 H   0  0  0  0  0  0
  -24.0039   -7.4586   22.7480 H   0  0  0  0  0  0
  -21.0866   -8.8785   19.8950 H   0  0  0  0  0  0
  -22.3757  -10.9679   19.6183 H   0  0  0  0  0  0
  -21.1990   -7.6185   23.9742 H   0  0  0  0  0  0
  -21.1453   -6.0568   25.9101 H   0  0  0  0  0  0
  -22.0608   -2.7642   23.2879 H   0  0  0  0  0  0
  -22.4173  -11.9800   22.4698 H   0  0  0  0  0  0
  -21.1187  -13.1170   22.2726 H   0  0  0  0  0  0
  -24.7022  -15.8673   20.5184 H   0  0  0  0  0  0
  -26.3181  -15.6017   20.1064 H   0  0  0  0  0  0
  -26.7138  -32.5563   23.1283 H   0  0  0  0  0  0
  -25.0208  -33.9842   25.0635 H   0  0  0  0  0  0
  -22.6864  -31.3030   21.4169 H   0  0  0  0  0  0
  -23.3699  -35.9654   23.3288 H   0  0  0  0  0  0
  -24.3561  -36.8915   22.2033 H   0  0  0  0  0  0
  -23.7203  -37.6529   23.6603 H   0  0  0  0  0  0
  -26.0093  -31.6115   20.5821 H   0  0  0  0  0  0
  -26.8167  -30.9238   21.9596 H   0  0  0  0  0  0
  -28.0896  -29.1685   21.1600 H   0  0  0  0  0  0
  -26.1025  -25.9858   19.0221 H   0  0  0  0  0  0
  -23.9991  -27.2921   19.0263 H   0  0  0  0  0  0
  -23.7099  -30.5929   19.4037 H   0  0  0  0  0  0
  -22.7331  -29.2304   19.8823 H   0  0  0  0  0  0
  -25.1218  -36.2012   25.0834 H   0  0  0  0  0  0
  -20.9959  -28.3125   24.1441 H   0  0  0  0  0  0
  -20.5652  -26.2214   23.3543 H   0  0  0  0  0  0
  -21.6575  -26.7429   22.1141 H   0  0  0  0  0  0
  -19.6792  -25.6240   21.1255 H   0  0  0  0  0  0
  -19.6532  -27.3144   20.6748 H   0  0  0  0  0  0
  -17.4090  -26.6668   21.4126 H   0  0  0  0  0  0
  -18.0237  -26.0084   22.9119 H   0  0  0  0  0  0
  -19.8019  -30.7256   24.2179 H   0  0  0  0  0  0
  -17.5126  -31.6335   24.5110 H   0  0  0  0  0  0
  -15.5383  -30.3054   23.7703 H   0  0  0  0  0  0
  -15.8641  -28.0807   22.7255 H   0  0  0  0  0  0
  -24.6025  -30.6885   25.7873 H   0  0  0  0  0  0
  -24.8799  -32.2786   26.4902 H   0  0  0  0  0  0
  -25.8128  -30.8965   27.0341 H   0  0  0  0  0  0
  -26.2862  -29.6700   24.1444 H   0  0  0  0  0  0
  -27.4355  -29.7449   25.4615 H   0  0  0  0  0  0
  -27.8595  -30.4416   23.9172 H   0  0  0  0  0  0
  -27.2627  -33.3529   26.2321 H   0  0  0  0  0  0
  -28.3778  -32.7020   25.0400 H   0  0  0  0  0  0
  -28.0811  -31.8347   26.5387 H   0  0  0  0  0  0
  -28.2574  -38.0080   24.7457 H   0  0  0  0  0  0
  -28.1022  -36.2613   24.6280 H   0  0  0  0  0  0
  -27.2279  -37.1468   25.8863 H   0  0  0  0  0  0
  -20.9302  -29.8763   21.6998 H   0  0  0  0  0  0
  -26.0141  -38.2878   24.1409 H   0  0  0  0  0  0
  -27.8238  -22.0773   20.4501 H   0  0  0  0  0  0
  -31.6247  -23.3617   22.0791 H   0  0  0  0  0  0
  -28.4079  -19.7508   20.9153 H   0  0  0  0  0  0
  -32.2025  -21.0338   22.5415 H   0  0  0  0  0  0
  -29.7896  -26.0377   23.8346 H   0  0  0  0  0  0
  -29.8100  -24.2958   23.6746 H   0  0  0  0  0  0
  -28.3222  -25.1845   23.3673 H   0  0  0  0  0  0
  -30.8281  -16.4773   23.1151 H   0  0  0  0  0  0
  -31.8441  -16.5993   21.7074 H   0  0  0  0  0  0
  -29.0485  -17.7958   22.0585 H   0  0  0  0  0  0
  -29.9212  -17.8326   20.5219 H   0  0  0  0  0  0
  -30.1383  -27.3469   20.8846 H   0  0  0  0  0  0
  -28.8467  -27.2979   22.0426 H   0  0  0  0  0  0
  -30.8668  -25.3964   21.6804 H   0  0  0  0  0  0
  -28.4540  -24.4249   20.4003 H   0  0  0  0  0  0
  -29.3256  -14.9917   21.9673 H   0  0  0  0  0  0
  1 25  1  0  0  0
  1 30  2  0  0  0
  1 83  1  0  0  0
  2  3  1  0  0  0
  2 25  1  0  0  0
  2 85  1  0  0  0
  2 86  1  0  0  0
  3  4  1  0  0  0
  3 87  1  0  0  0
  3 88  1  0  0  0
  4  5  1  0  0  0
  4 89  1  0  0  0
  4 90  1  0  0  0
  5  6  1  0  0  0
  5 26  1  0  0  0
  5 91  1  0  0  0
  6 25  1  0  0  0
  6 92  1  0  0  0
  6 93  1  0  0  0
  7  8  2  0  0  0
  7 26  1  0  0  0
  7 29  1  0  0  0
  8  9  1  0  0  0
  8 22  1  0  0  0
  9 10  1  0  0  0
  9 27  2  0  0  0
 10 11  2  0  0  0
 10 15  1  0  0  0
 11 12  1  0  0  0
 11 94  1  0  0  0
 12 13  2  0  0  0
 12 95  1  0  0  0
 13 14  1  0  0  0
 13 31  1  0  0  0
 14 15  2  0  0  0
 14 96  1  0  0  0
 15 97  1  0  0  0
 16 17  2  0  0  0
 16 21  1  0  0  0
 16 31  1  0  0  0
 17 18  1  0  0  0
 17 98  1  0  0  0
 18 19  2  0  0  0
 18 99  1  0  0  0
 19 20  1  0  0  0
 19 24  1  0  0  0
 20 21  2  0  0  0
 20100  1  0  0  0
 21 23  1  0  0  0
 22 28  1  0  0  0
 22 32  2  0  0  0
 26 27  1  0  0  0
 28101  1  0  0  0
 28102  1  0  0  0
 29103  1  0  0  0
 29104  1  0  0  0
 33 34  1  0  0  0
 33 66  1  0  0  0
 33 70  2  0  0  0
 34 36  1  0  0  0
 34 59  1  0  0  0
 34105  1  0  0  0
 35 44  2  0  0  0
 35 45  1  0  0  0
 35 68  1  0  0  0
 36 56  1  0  0  0
 36106  1  0  0  0
 37 39  1  0  0  0
 37 47  1  0  0  0
 37 66  1  0  0  0
 37107  1  0  0  0
 38 43  2  0  0  0
 38 46  1  0  0  0
 38 47  1  0  0  0
 39 64  1  0  0  0
 39 67  2  0  0  0
 40 52  1  0  0  0
 40 53  2  0  0  0
 40 58  1  0  0  0
 41108  1  0  0  0
 41109  1  0  0  0
 41110  1  0  0  0
 41 48  1  0  0  0
 42 43  1  0  0  0
 42 66  1  0  0  0
 42111  1  0  0  0
 42112  1  0  0  0
 43 44  1  0  0  0
 44113  1  0  0  0
 45 46  2  0  0  0
 45114  1  0  0  0
 46115  1  0  0  0
 47116  1  0  0  0
 47117  1  0  0  0
 48 56  1  0  0  0
 48 65  1  0  0  0
 48118  1  0  0  0
 49 50  1  0  0  0
 49 53  1  0  0  0
 49 64  1  0  0  0
 49119  1  0  0  0
 50 51  1  0  0  0
 50120  1  0  0  0
 50121  1  0  0  0
 51 52  1  0  0  0
 51122  1  0  0  0
 51123  1  0  0  0
 52124  1  0  0  0
 52125  1  0  0  0
 53 54  1  0  0  0
 54 55  2  0  0  0
 54126  1  0  0  0
 55 57  1  0  0  0
 55127  1  0  0  0
 56 69  2  0  0  0
 57 58  2  0  0  0
 57128  1  0  0  0
 58129  1  0  0  0
 59 60  1  0  0  0
 59 61  1  0  0  0
 59 62  1  0  0  0
 60130  1  0  0  0
 60131  1  0  0  0
 60132  1  0  0  0
 61133  1  0  0  0
 61134  1  0  0  0
 61135  1  0  0  0
 62136  1  0  0  0
 62137  1  0  0  0
 62138  1  0  0  0
 63 65  1  0  0  0
 63139  1  0  0  0
 63140  1  0  0  0
 63141  1  0  0  0
 64142  1  0  0  0
 65143  1  0  0  0
 68 80  1  0  0  0
 71 73  2  0  0  0
 71 75  1  0  0  0
 71144  1  0  0  0
 72 74  1  0  0  0
 72 75  2  0  0  0
 72145  1  0  0  0
 73 76  1  0  0  0
 73146  1  0  0  0
 74 76  2  0  0  0
 74147  1  0  0  0
 75 82  1  0  0  0
 76 84  1  0  0  0
 77148  1  0  0  0
 77149  1  0  0  0
 77150  1  0  0  0
 77 81  1  0  0  0
 78 79  1  0  0  0
 78 83  1  0  0  0
 78151  1  0  0  0
 78152  1  0  0  0
 79 84  1  0  0  0
 79153  1  0  0  0
 79154  1  0  0  0
 80 81  1  0  0  0
 80155  1  0  0  0
 80156  1  0  0  0
 81 82  1  0  0  0
 81157  1  0  0  0
 82158  1  0  0  0
 83159  1  0  0  0
M  ISO  4   1 100  68 101  80 101  83 100
M  END
> <chiral flag>
0

> <version>
0

> <s_m_source_file>
/data/baiqing/PycharmProjects/Reinvent-master-3.2/result/LINK_invent/BTK/process_docking_weight1_custom_sum_contain_oxygen_bond_distance_aromatic_linkinvent_7_9_3/rearranged_h_0128.sdf

> <i_m_source_file_index>
57

> <r_mmod_Potential_Energy-OPLS-2005>
-140.549728393555

> <r_mmod_Stretch_Energy-OPLS-2005>
36.918384552002

> <r_mmod_Bend_Energy-OPLS-2005>
115.506454467773

> <r_mmod_Torsional_Energy-OPLS-2005>
216.067306518555

> <r_mmod_Improper_Torsional_Energy-OPLS-2005>
2.54353404045105

> <r_mmod_Van_der_Waal_Energy-OPLS-2005>
163.097961425781

> <r_mmod_Electrostatic_Energy-OPLS-2005>
-463.68408203125

> <r_mmod_Solvation_Energy-OPLS-2005>
-220.258743286133

> <b_mmod_Minimization_Converged-OPLS-2005>
0

> <r_mmod_RMS_Derivative-OPLS-2005>
4.58410024642944

$$$$
57
                    3D
 Structure written by MMmdl.
151159  0  0  1  0            999 V2000
  -30.6405  -14.6779   20.4895 C   0  0  0  0  0  0
  -30.4318  -12.4170   19.4634 C   0  0  0  0  0  0
  -29.5033  -12.4903   18.2319 C   0  0  0  0  0  0
  -28.0304  -12.3218   18.6518 C   0  0  0  0  0  0
  -27.6459  -13.2225   19.8556 C   0  0  2  0  0  0
  -28.6912  -13.1349   20.9889 C   0  0  0  0  0  0
  -25.2537  -13.8184   20.5708 C   0  0  0  0  0  0
  -24.1809  -13.0440   20.9202 C   0  0  0  0  0  0
  -24.6387  -11.6915   20.8767 C   0  0  0  0  0  0
  -23.9060  -10.4292   21.0427 C   0  0  0  0  0  0
  -24.3611   -9.4207   21.9201 C   0  0  0  0  0  0
  -23.6293   -8.2239   22.0762 C   0  0  0  0  0  0
  -22.4279   -8.0278   21.3540 C   0  0  0  0  0  0
  -21.9914   -9.0251   20.4648 C   0  0  0  0  0  0
  -22.7241  -10.2134   20.3066 C   0  0  0  0  0  0
  -21.6850   -6.0733   22.5274 C   0  0  0  0  0  0
  -21.4015   -6.5638   23.8207 C   0  0  0  0  0  0
  -21.3655   -5.6792   24.9172 C   0  0  0  0  0  0
  -21.6046   -4.3058   24.7221 C   0  0  0  0  0  0
  -21.8818   -3.8152   23.4347 C   0  0  0  0  0  0
  -21.9189   -4.6964   22.3401 C   0  0  0  0  0  0
  -22.7835  -13.5229   21.1870 C   0  0  0  0  0  0
  -22.1661   -4.2149   21.0979 F   0  0  0  0  0  0
  -21.5624   -3.4544   25.7738 F   0  0  0  0  0  0
  -29.9976  -13.4692   20.4067 N   0  0  0  0  0  0
  -26.2959  -12.9372   20.3324 N   0  0  0  0  0  0
  -25.9315  -11.6526   20.5793 N   0  0  0  0  0  0
  -22.0485  -12.8199   22.0416 N   0  0  0  0  0  0
  -25.4253  -15.1905   20.4117 N   0  0  0  0  0  0
  -31.8245  -14.7846   20.1623 O   0  0  0  0  0  0
  -21.6640   -6.8882   21.4242 O   0  0  0  0  0  0
  -22.3522  -14.5540   20.6728 O   0  0  0  0  0  0
  -24.6307  -31.8571   23.2008 C   0  0  0  0  0  0
  -25.9145  -32.4757   23.8347 C   0  0  1  0  0  0
  -27.2223  -27.2994   20.1056 C   0  0  0  0  0  0
  -25.5957  -33.8558   24.2283 N   0  0  0  0  0  0
  -23.4227  -30.4830   21.5443 C   0  0  2  0  0  0
  -24.8660  -28.9352   20.1124 C   0  0  0  0  0  0
  -22.7490  -29.4618   22.4930 C   0  0  0  0  0  0
  -18.0291  -28.1382   22.8485 C   0  0  0  0  0  0
  -24.1483  -36.7275   23.2633 C   0  0  0  0  0  0
  -25.9662  -30.7831   21.3721 C   0  0  0  0  0  0
  -26.0379  -29.4090   20.7134 C   0  0  0  0  0  0
  -27.2151  -28.6016   20.7025 C   0  0  0  0  0  0
  -26.0114  -26.8708   19.5113 C   0  0  0  0  0  0
  -24.8546  -27.6703   19.5075 C   0  0  0  0  0  0
  -23.6379  -29.8203   20.1597 C   0  0  0  0  0  0
  -25.4103  -36.3061   24.0333 C   0  0  1  0  0  0
  -20.5892  -28.3689   23.1279 C   0  0  2  0  0  0
  -20.6778  -26.9407   22.5407 C   0  0  0  0  0  0
  -19.5759  -26.6383   21.5205 C   0  0  0  0  0  0
  -18.1932  -26.7933   22.1598 C   0  0  0  0  0  0
  -19.1543  -28.8857   23.2873 C   0  0  0  0  0  0
  -18.9471  -30.1461   23.8889 C   0  0  0  0  0  0
  -17.6470  -30.6582   24.0578 C   0  0  0  0  0  0
  -25.9050  -34.9437   23.5098 C   0  0  0  0  0  0
  -16.5362  -29.9079   23.6347 C   0  0  0  0  0  0
  -16.7279  -28.6499   23.0362 C   0  0  0  0  0  0
  -26.4539  -31.6581   25.0733 C   0  0  0  0  0  0
  -25.3787  -31.3710   26.1478 C   0  0  0  0  0  0
  -27.0407  -30.3019   24.6183 C   0  0  0  0  0  0
  -27.6107  -32.4341   25.7476 C   0  0  0  0  0  0
  -27.5598  -37.1749   24.8450 C   0  0  0  0  0  0
  -21.4196  -29.3047   22.3682 N   0  0  0  0  0  0
  -26.4262  -37.3783   23.9466 N   0  0  0  0  0  0
  -24.6925  -31.0580   22.0956 N   0  0  0  0  0  0
  -23.4208  -28.8158   23.3017 O   0  0  0  0  0  0
  -28.3480  -26.4559   20.1734 O   0  0  0  0  0  0
  -26.5595  -34.8911   22.4655 O   0  0  0  0  0  0
  -23.5472  -32.1384   23.7327 O   0  0  0  0  0  0
  -29.3070  -23.5335   21.2015 C   0  0  0  0  0  0
  -29.6360  -22.1936   21.5696 C   0  0  0  0  0  0
  -28.4674  -22.6334   19.1613 C   0  0  0  0  0  0
  -28.7152  -23.7981   19.9460 C   0  0  0  0  0  0
  -29.3777  -21.1008   20.7044 C   0  0  0  0  0  0
  -28.4794  -25.2380   19.3370 C   0  0  0  0  0  0
  -29.4663  -18.4550   20.4466 C   0  0  0  0  0  0
  -30.3626  -17.2225   20.9547 C   0  0  0  0  0  0
  -28.7739  -21.3418   19.5181 N   0  0  0  0  0  0
  -29.7989  -19.7782   21.0700 N   0  0  0  0  0  0
  -29.8876  -15.7968   20.7664 N   0  0  0  0  0  0
  -31.4728  -12.5379   19.1578 H   0  0  0  0  0  0
  -30.3715  -11.4371   19.9395 H   0  0  0  0  0  0
  -29.7743  -11.7192   17.5095 H   0  0  0  0  0  0
  -29.6347  -13.4474   17.7262 H   0  0  0  0  0  0
  -27.8840  -11.2739   18.9177 H   0  0  0  0  0  0
  -27.3686  -12.5158   17.8068 H   0  0  0  0  0  0
  -27.6484  -14.2456   19.4801 H   0  0  0  0  0  0
  -28.7150  -12.1344   21.4231 H   0  0  0  0  0  0
  -28.4365  -13.8135   21.8048 H   0  0  0  0  0  0
  -25.2750   -9.5679   22.4782 H   0  0  0  0  0  0
  -23.9990   -7.4636   22.7482 H   0  0  0  0  0  0
  -21.0844   -8.8782   19.8954 H   0  0  0  0  0  0
  -22.3709  -10.9677   19.6177 H   0  0  0  0  0  0
  -21.2016   -7.6146   23.9709 H   0  0  0  0  0  0
  -21.1474   -6.0526   25.9068 H   0  0  0  0  0  0
  -22.0601   -2.7614   23.2848 H   0  0  0  0  0  0
  -22.4093  -11.9824   22.4747 H   0  0  0  0  0  0
  -21.1116  -13.1238   22.2667 H   0  0  0  0  0  0
  -24.6621  -15.8485   20.5249 H   0  0  0  0  0  0
  -26.2725  -15.6262   20.0712 H   0  0  0  0  0  0
  -26.7210  -32.5419   23.1091 H   0  0  0  0  0  0
  -25.0215  -33.9717   25.0500 H   0  0  0  0  0  0
  -22.7181  -31.3051   21.4006 H   0  0  0  0  0  0
  -23.3771  -35.9570   23.3211 H   0  0  0  0  0  0
  -24.3600  -36.8981   22.2067 H   0  0  0  0  0  0
  -23.7183  -37.6431   23.6706 H   0  0  0  0  0  0
  -26.0978  -31.5441   20.6020 H   0  0  0  0  0  0
  -26.8469  -30.8335   22.0009 H   0  0  0  0  0  0
  -28.1157  -28.9606   21.1807 H   0  0  0  0  0  0
  -25.8996  -25.8881   19.0834 H   0  0  0  0  0  0
  -23.9468  -27.2921   19.0596 H   0  0  0  0  0  0
  -23.7635  -30.5978   19.4052 H   0  0  0  0  0  0
  -22.7555  -29.2546   19.8538 H   0  0  0  0  0  0
  -25.1250  -36.1886   25.0814 H   0  0  0  0  0  0
  -20.9993  -28.3251   24.1393 H   0  0  0  0  0  0
  -20.5681  -26.2282   23.3601 H   0  0  0  0  0  0
  -21.6646  -26.7424   22.1201 H   0  0  0  0  0  0
  -19.6918  -25.6289   21.1242 H   0  0  0  0  0  0
  -19.6715  -27.3189   20.6732 H   0  0  0  0  0  0
  -17.4215  -26.6730   21.3982 H   0  0  0  0  0  0
  -18.0300  -26.0046   22.8960 H   0  0  0  0  0  0
  -19.7949  -30.7291   24.2238 H   0  0  0  0  0  0
  -17.5020  -31.6262   24.5178 H   0  0  0  0  0  0
  -15.5363  -30.2979   23.7672 H   0  0  0  0  0  0
  -15.8676  -28.0819   22.7075 H   0  0  0  0  0  0
  -24.5969  -30.7033   25.7830 H   0  0  0  0  0  0
  -24.8975  -32.2869   26.4922 H   0  0  0  0  0  0
  -25.8152  -30.8902   27.0246 H   0  0  0  0  0  0
  -26.2984  -29.6714   24.1282 H   0  0  0  0  0  0
  -27.4218  -29.7324   25.4666 H   0  0  0  0  0  0
  -27.8781  -30.4327   23.9332 H   0  0  0  0  0  0
  -27.2748  -33.3689   26.1976 H   0  0  0  0  0  0
  -28.3938  -32.6830   25.0302 H   0  0  0  0  0  0
  -28.0743  -31.8514   26.5448 H   0  0  0  0  0  0
  -28.2496  -38.0157   24.7672 H   0  0  0  0  0  0
  -28.1213  -36.2710   24.6040 H   0  0  0  0  0  0
  -27.2367  -37.1112   25.8852 H   0  0  0  0  0  0
  -20.9377  -29.8786   21.6905 H   0  0  0  0  0  0
  -26.0127  -38.2824   24.1580 H   0  0  0  0  0  0
  -29.5509  -24.3500   21.8665 H   0  0  0  0  0  0
  -30.1171  -22.0291   22.5245 H   0  0  0  0  0  0
  -28.0379  -22.7424   18.1757 H   0  0  0  0  0  0
  -27.7193  -25.1597   18.5642 H   0  0  0  0  0  0
  -29.3805  -25.4224   18.7527 H   0  0  0  0  0  0
  -28.4172  -18.2541   20.6640 H   0  0  0  0  0  0
  -29.5412  -18.5444   19.3622 H   0  0  0  0  0  0
  -30.4920  -17.3294   22.0333 H   0  0  0  0  0  0
  -31.3647  -17.3283   20.5360 H   0  0  0  0  0  0
  -30.3052  -19.7166   21.9473 H   0  0  0  0  0  0
  -28.9102  -15.6275   20.9500 H   0  0  0  0  0  0
  1 25  1  0  0  0
  1 30  2  0  0  0
  1 81  1  0  0  0
  2  3  1  0  0  0
  2 25  1  0  0  0
  2 82  1  0  0  0
  2 83  1  0  0  0
  3  4  1  0  0  0
  3 84  1  0  0  0
  3 85  1  0  0  0
  4  5  1  0  0  0
  4 86  1  0  0  0
  4 87  1  0  0  0
  5  6  1  0  0  0
  5 26  1  0  0  0
  5 88  1  0  0  0
  6 25  1  0  0  0
  6 89  1  0  0  0
  6 90  1  0  0  0
  7  8  2  0  0  0
  7 26  1  0  0  0
  7 29  1  0  0  0
  8  9  1  0  0  0
  8 22  1  0  0  0
  9 10  1  0  0  0
  9 27  2  0  0  0
 10 11  2  0  0  0
 10 15  1  0  0  0
 11 12  1  0  0  0
 11 91  1  0  0  0
 12 13  2  0  0  0
 12 92  1  0  0  0
 13 14  1  0  0  0
 13 31  1  0  0  0
 14 15  2  0  0  0
 14 93  1  0  0  0
 15 94  1  0  0  0
 16 17  2  0  0  0
 16 21  1  0  0  0
 16 31  1  0  0  0
 17 18  1  0  0  0
 17 95  1  0  0  0
 18 19  2  0  0  0
 18 96  1  0  0  0
 19 20  1  0  0  0
 19 24  1  0  0  0
 20 21  2  0  0  0
 20 97  1  0  0  0
 21 23  1  0  0  0
 22 28  1  0  0  0
 22 32  2  0  0  0
 26 27  1  0  0  0
 28 98  1  0  0  0
 28 99  1  0  0  0
 29100  1  0  0  0
 29101  1  0  0  0
 33 34  1  0  0  0
 33 66  1  0  0  0
 33 70  2  0  0  0
 34 36  1  0  0  0
 34 59  1  0  0  0
 34102  1  0  0  0
 35 44  2  0  0  0
 35 45  1  0  0  0
 35 68  1  0  0  0
 36 56  1  0  0  0
 36103  1  0  0  0
 37 39  1  0  0  0
 37 47  1  0  0  0
 37 66  1  0  0  0
 37104  1  0  0  0
 38 43  2  0  0  0
 38 46  1  0  0  0
 38 47  1  0  0  0
 39 64  1  0  0  0
 39 67  2  0  0  0
 40 52  1  0  0  0
 40 53  2  0  0  0
 40 58  1  0  0  0
 41105  1  0  0  0
 41106  1  0  0  0
 41107  1  0  0  0
 41 48  1  0  0  0
 42 43  1  0  0  0
 42 66  1  0  0  0
 42108  1  0  0  0
 42109  1  0  0  0
 43 44  1  0  0  0
 44110  1  0  0  0
 45 46  2  0  0  0
 45111  1  0  0  0
 46112  1  0  0  0
 47113  1  0  0  0
 47114  1  0  0  0
 48 56  1  0  0  0
 48 65  1  0  0  0
 48115  1  0  0  0
 49 50  1  0  0  0
 49 53  1  0  0  0
 49 64  1  0  0  0
 49116  1  0  0  0
 50 51  1  0  0  0
 50117  1  0  0  0
 50118  1  0  0  0
 51 52  1  0  0  0
 51119  1  0  0  0
 51120  1  0  0  0
 52121  1  0  0  0
 52122  1  0  0  0
 53 54  1  0  0  0
 54 55  2  0  0  0
 54123  1  0  0  0
 55 57  1  0  0  0
 55124  1  0  0  0
 56 69  2  0  0  0
 57 58  2  0  0  0
 57125  1  0  0  0
 58126  1  0  0  0
 59 60  1  0  0  0
 59 61  1  0  0  0
 59 62  1  0  0  0
 60127  1  0  0  0
 60128  1  0  0  0
 60129  1  0  0  0
 61130  1  0  0  0
 61131  1  0  0  0
 61132  1  0  0  0
 62133  1  0  0  0
 62134  1  0  0  0
 62135  1  0  0  0
 63 65  1  0  0  0
 63136  1  0  0  0
 63137  1  0  0  0
 63138  1  0  0  0
 64139  1  0  0  0
 65140  1  0  0  0
 68 76  1  0  0  0
 71 72  2  0  0  0
 71 74  1  0  0  0
 71141  1  0  0  0
 72 75  1  0  0  0
 72142  1  0  0  0
 73 74  2  0  0  0
 73 79  1  0  0  0
 73143  1  0  0  0
 74 76  1  0  0  0
 75 79  2  0  0  0
 75 80  1  0  0  0
 76144  1  0  0  0
 76145  1  0  0  0
 77 78  1  0  0  0
 77 80  1  0  0  0
 77146  1  0  0  0
 77147  1  0  0  0
 78 81  1  0  0  0
 78148  1  0  0  0
 78149  1  0  0  0
 80150  1  0  0  0
 81151  1  0  0  0
M  ISO  4   1 100  68 101  76 101  81 100
M  END
> <chiral flag>
0

> <version>
0

> <s_m_source_file>
/data/baiqing/PycharmProjects/Reinvent-master-3.2/result/LINK_invent/BTK/process_docking_weight1_custom_sum_contain_oxygen_bond_distance_aromatic_linkinvent_7_9_3/rearranged_h_0128.sdf

> <i_m_source_file_index>
58

> <r_mmod_Potential_Energy-OPLS-2005>
-190.170883178711

> <r_mmod_Stretch_Energy-OPLS-2005>
83.859977722168

> <r_mmod_Bend_Energy-OPLS-2005>
167.229675292969

> <r_mmod_Torsional_Energy-OPLS-2005>
199.746276855469

> <r_mmod_Improper_Torsional_Energy-OPLS-2005>
4.79392576217651

> <r_mmod_Van_der_Waal_Energy-OPLS-2005>
145.664611816406

> <r_mmod_Electrostatic_Energy-OPLS-2005>
-608.462158203125

> <r_mmod_Solvation_Energy-OPLS-2005>
-244.3984375

> <b_mmod_Minimization_Converged-OPLS-2005>
0

> <r_mmod_RMS_Derivative-OPLS-2005>
1.83441424369812

$$$$
58
                    3D
 Structure written by MMmdl.
172181  0  0  1  0            999 V2000
  -30.6704  -14.5347   20.4667 C   0  0  0  0  0  0
  -30.4229  -12.3202   19.4451 C   0  0  0  0  0  0
  -29.5037  -12.5059   18.2174 C   0  0  0  0  0  0
  -28.0253  -12.3658   18.6280 C   0  0  0  0  0  0
  -27.6597  -13.2147   19.8748 C   0  0  2  0  0  0
  -28.7039  -13.0420   21.0041 C   0  0  0  0  0  0
  -25.2558  -13.8194   20.5668 C   0  0  0  0  0  0
  -24.1798  -13.0468   20.9170 C   0  0  0  0  0  0
  -24.6378  -11.6939   20.8767 C   0  0  0  0  0  0
  -23.9073  -10.4311   21.0429 C   0  0  0  0  0  0
  -24.3624   -9.4211   21.9200 C   0  0  0  0  0  0
  -23.6268   -8.2261   22.0778 C   0  0  0  0  0  0
  -22.4265   -8.0306   21.3550 C   0  0  0  0  0  0
  -21.9897   -9.0308   20.4682 C   0  0  0  0  0  0
  -22.7253  -10.2159   20.3085 C   0  0  0  0  0  0
  -21.6841   -6.0722   22.5272 C   0  0  0  0  0  0
  -21.4026   -6.5633   23.8195 C   0  0  0  0  0  0
  -21.3663   -5.6791   24.9161 C   0  0  0  0  0  0
  -21.6048   -4.3042   24.7214 C   0  0  0  0  0  0
  -21.8822   -3.8138   23.4329 C   0  0  0  0  0  0
  -21.9188   -4.6958   22.3397 C   0  0  0  0  0  0
  -22.7817  -13.5275   21.1807 C   0  0  0  0  0  0
  -22.1649   -4.2167   21.0971 F   0  0  0  0  0  0
  -21.5629   -3.4508   25.7716 F   0  0  0  0  0  0
  -30.0335  -13.3302   20.4422 N   0  0  0  0  0  0
  -26.3015  -12.9375   20.3348 N   0  0  0  0  0  0
  -25.9317  -11.6542   20.5782 N   0  0  0  0  0  0
  -22.0411  -12.8332   22.0374 N   0  0  0  0  0  0
  -25.4295  -15.1905   20.4057 N   0  0  0  0  0  0
  -31.8313  -14.6814   20.0834 O   0  0  0  0  0  0
  -21.6631   -6.8889   21.4253 O   0  0  0  0  0  0
  -22.3533  -14.5571   20.6635 O   0  0  0  0  0  0
  -24.6147  -31.8651   23.2058 C   0  0  0  0  0  0
  -25.9018  -32.4820   23.8363 C   0  0  1  0  0  0
  -27.2626  -27.4192   20.0831 C   0  0  0  0  0  0
  -25.5851  -33.8616   24.2304 N   0  0  0  0  0  0
  -23.4059  -30.4830   21.5456 C   0  0  2  0  0  0
  -24.8592  -28.9406   20.1071 C   0  0  0  0  0  0
  -22.7408  -29.4661   22.4996 C   0  0  0  0  0  0
  -18.0273  -28.1401   22.8504 C   0  0  0  0  0  0
  -24.1478  -36.7343   23.2647 C   0  0  0  0  0  0
  -25.9322  -30.8204   21.3624 C   0  0  0  0  0  0
  -26.0106  -29.4468   20.7202 C   0  0  0  0  0  0
  -27.2033  -28.6866   20.7177 C   0  0  0  0  0  0
  -26.0877  -26.9283   19.4662 C   0  0  0  0  0  0
  -24.8962  -27.6836   19.4730 C   0  0  0  0  0  0
  -23.6146  -29.8020   20.1611 C   0  0  0  0  0  0
  -25.4098  -36.3131   24.0349 C   0  0  1  0  0  0
  -20.5857  -28.3682   23.1325 C   0  0  2  0  0  0
  -20.6754  -26.9426   22.5418 C   0  0  0  0  0  0
  -19.5738  -26.6408   21.5208 C   0  0  0  0  0  0
  -18.1920  -26.7951   22.1622 C   0  0  0  0  0  0
  -19.1523  -28.8853   23.2917 C   0  0  0  0  0  0
  -18.9457  -30.1463   23.8929 C   0  0  0  0  0  0
  -17.6463  -30.6603   24.0577 C   0  0  0  0  0  0
  -25.9025  -34.9494   23.5128 C   0  0  0  0  0  0
  -16.5352  -29.9116   23.6330 C   0  0  0  0  0  0
  -16.7266  -28.6532   23.0346 C   0  0  0  0  0  0
  -26.4458  -31.6611   25.0696 C   0  0  0  0  0  0
  -25.3743  -31.3681   26.1458 C   0  0  0  0  0  0
  -27.0305  -30.3074   24.6055 C   0  0  0  0  0  0
  -27.6069  -32.4319   25.7427 C   0  0  0  0  0  0
  -27.5590  -37.1819   24.8472 C   0  0  0  0  0  0
  -21.4141  -29.3046   22.3731 N   0  0  0  0  0  0
  -26.4287  -37.3817   23.9426 N   0  0  0  0  0  0
  -24.6694  -31.0727   22.0974 N   0  0  0  0  0  0
  -23.4177  -28.8221   23.3061 O   0  0  0  0  0  0
  -28.4655  -26.7327   20.1203 O   0  0  0  0  0  0
  -26.5610  -34.8939   22.4714 O   0  0  0  0  0  0
  -23.5326  -32.1433   23.7434 O   0  0  0  0  0  0
  -33.2518  -25.8388   20.1963 C   0  0  0  0  0  0
  -33.4078  -24.3603   19.8301 C   0  0  0  0  0  0
  -31.8201  -25.4858   20.6029 C   0  0  0  0  0  0
  -31.2390  -20.5394   19.7540 C   0  0  0  0  0  0
  -29.0227  -21.6691   19.8416 C   0  0  0  0  0  0
  -31.8731  -21.8885   19.3667 C   0  0  0  0  0  0
  -31.8796  -24.3361   19.5719 C   0  0  0  0  0  0
  -29.8118  -20.4947   19.2000 C   0  0  2  0  0  0
  -29.6815  -23.0684   19.5416 C   0  0  1  0  0  0
  -28.8332  -24.2521   20.1527 C   0  0  0  0  0  0
  -29.9293  -16.7974   19.7167 C   0  0  0  0  0  0
  -29.3279  -18.1336   20.2695 C   0  0  0  0  0  0
  -28.7391  -25.5678   19.3143 C   0  0  0  0  0  0
  -29.8550  -15.6046   20.6010 N   0  0  0  0  0  0
  -31.1495  -23.0736   19.9310 N   0  3  1  0  0  0
  -29.1366  -19.1549   19.1880 N   0  3  0  0  0  0
  -31.4734  -12.4016   19.1546 H   0  0  0  0  0  0
  -30.3090  -11.3174   19.8606 H   0  0  0  0  0  0
  -29.7515  -11.7785   17.4442 H   0  0  0  0  0  0
  -29.6667  -13.4864   17.7682 H   0  0  0  0  0  0
  -27.8364  -11.3106   18.8293 H   0  0  0  0  0  0
  -27.3817  -12.6420   17.7940 H   0  0  0  0  0  0
  -27.6884  -14.2563   19.5544 H   0  0  0  0  0  0
  -28.6801  -12.0240   21.3962 H   0  0  0  0  0  0
  -28.4714  -13.6908   21.8509 H   0  0  0  0  0  0
  -25.2790   -9.5636   22.4762 H   0  0  0  0  0  0
  -23.9963   -7.4639   22.7493 H   0  0  0  0  0  0
  -21.0827   -8.8883   19.8971 H   0  0  0  0  0  0
  -22.3778  -10.9716   19.6183 H   0  0  0  0  0  0
  -21.2038   -7.6138   23.9723 H   0  0  0  0  0  0
  -21.1467   -6.0494   25.9074 H   0  0  0  0  0  0
  -22.0591   -2.7605   23.2821 H   0  0  0  0  0  0
  -22.3979  -12.0027   22.4859 H   0  0  0  0  0  0
  -21.1047  -13.1436   22.2551 H   0  0  0  0  0  0
  -24.6642  -15.8486   20.5137 H   0  0  0  0  0  0
  -26.2733  -15.6176   20.0532 H   0  0  0  0  0  0
  -26.7096  -32.5543   23.1138 H   0  0  0  0  0  0
  -24.9945  -33.9767   25.0399 H   0  0  0  0  0  0
  -22.6992  -31.3020   21.3994 H   0  0  0  0  0  0
  -23.3736  -35.9681   23.3324 H   0  0  0  0  0  0
  -24.3568  -36.8950   22.2060 H   0  0  0  0  0  0
  -23.7234  -37.6552   23.6658 H   0  0  0  0  0  0
  -26.0239  -31.5764   20.5793 H   0  0  0  0  0  0
  -26.8285  -30.8954   21.9682 H   0  0  0  0  0  0
  -28.0891  -29.0653   21.2102 H   0  0  0  0  0  0
  -26.0709  -25.9625   18.9828 H   0  0  0  0  0  0
  -24.0166  -27.2961   18.9768 H   0  0  0  0  0  0
  -23.7029  -30.5687   19.3903 H   0  0  0  0  0  0
  -22.7423  -29.2070   19.8823 H   0  0  0  0  0  0
  -25.1272  -36.2010   25.0839 H   0  0  0  0  0  0
  -20.9962  -28.3251   24.1436 H   0  0  0  0  0  0
  -20.5624  -26.2312   23.3603 H   0  0  0  0  0  0
  -21.6631  -26.7459   22.1227 H   0  0  0  0  0  0
  -19.6901  -25.6319   21.1227 H   0  0  0  0  0  0
  -19.6667  -27.3219   20.6734 H   0  0  0  0  0  0
  -17.4181  -26.6721   21.4027 H   0  0  0  0  0  0
  -18.0338  -26.0077   22.8999 H   0  0  0  0  0  0
  -19.7930  -30.7271   24.2329 H   0  0  0  0  0  0
  -17.5013  -31.6274   24.5186 H   0  0  0  0  0  0
  -15.5356  -30.3019   23.7633 H   0  0  0  0  0  0
  -15.8672  -28.0850   22.7053 H   0  0  0  0  0  0
  -24.5910  -30.7037   25.7787 H   0  0  0  0  0  0
  -24.8912  -32.2802   26.4967 H   0  0  0  0  0  0
  -25.8082  -30.8804   27.0195 H   0  0  0  0  0  0
  -26.2829  -29.6798   24.1188 H   0  0  0  0  0  0
  -27.4207  -29.7341   25.4478 H   0  0  0  0  0  0
  -27.8590  -30.4441   23.9105 H   0  0  0  0  0  0
  -27.2737  -33.3627   26.2034 H   0  0  0  0  0  0
  -28.3818  -32.6869   25.0182 H   0  0  0  0  0  0
  -28.0813  -31.8424   26.5295 H   0  0  0  0  0  0
  -28.2617  -38.0114   24.7511 H   0  0  0  0  0  0
  -28.1062  -36.2640   24.6273 H   0  0  0  0  0  0
  -27.2315  -37.1454   25.8878 H   0  0  0  0  0  0
  -20.9335  -29.8749   21.6908 H   0  0  0  0  0  0
  -26.0197  -38.2907   24.1398 H   0  0  0  0  0  0
  -33.3037  -26.5026   19.3295 H   0  0  0  0  0  0
  -33.8870  -26.1923   21.0110 H   0  0  0  0  0  0
  -33.7414  -23.7690   20.6867 H   0  0  0  0  0  0
  -34.0302  -24.1789   18.9528 H   0  0  0  0  0  0
  -31.1205  -26.2955   20.4089 H   0  0  0  0  0  0
  -31.7564  -25.1515   21.6407 H   0  0  0  0  0  0
  -31.2424  -20.4271   20.8389 H   0  0  0  0  0  0
  -31.8416  -19.7246   19.3506 H   0  0  0  0  0  0
  -28.9331  -21.5163   20.9176 H   0  0  0  0  0  0
  -28.0034  -21.6656   19.4532 H   0  0  0  0  0  0
  -31.9010  -21.9799   18.2788 H   0  0  0  0  0  0
  -32.9141  -21.8731   19.6895 H   0  0  0  0  0  0
  -31.6763  -24.6514   18.5451 H   0  0  0  0  0  0
  -29.8755  -20.7221   18.1329 H   0  0  0  0  0  0
  -29.6510  -23.1847   18.4577 H   0  0  0  0  0  0
  -29.1922  -24.4782   21.1571 H   0  0  0  0  0  0
  -27.8040  -23.9215   20.2949 H   0  0  0  0  0  0
  -30.9582  -16.9748   19.3997 H   0  0  0  0  0  0
  -29.3921  -16.5160   18.8110 H   0  0  0  0  0  0
  -29.9204  -18.5201   21.0957 H   0  0  0  0  0  0
  -28.3382  -17.9412   20.6854 H   0  0  0  0  0  0
  -28.0879  -25.4664   18.4490 H   0  0  0  0  0  0
  -29.7088  -25.7634   18.8668 H   0  0  0  0  0  0
  -28.9515  -15.3971   20.9974 H   0  0  0  0  0  0
  -31.2014  -22.9827   20.9367 H   0  0  0  0  0  0
  -29.4171  -18.7101   18.3275 H   0  0  0  0  0  0
  -28.1460  -19.3077   19.0818 H   0  0  0  0  0  0
  1 25  1  0  0  0
  1 30  2  0  0  0
  1 84  1  0  0  0
  2  3  1  0  0  0
  2 25  1  0  0  0
  2 87  1  0  0  0
  2 88  1  0  0  0
  3  4  1  0  0  0
  3 89  1  0  0  0
  3 90  1  0  0  0
  4  5  1  0  0  0
  4 91  1  0  0  0
  4 92  1  0  0  0
  5  6  1  0  0  0
  5 26  1  0  0  0
  5 93  1  0  0  0
  6 25  1  0  0  0
  6 94  1  0  0  0
  6 95  1  0  0  0
  7  8  2  0  0  0
  7 26  1  0  0  0
  7 29  1  0  0  0
  8  9  1  0  0  0
  8 22  1  0  0  0
  9 10  1  0  0  0
  9 27  2  0  0  0
 10 11  2  0  0  0
 10 15  1  0  0  0
 11 12  1  0  0  0
 11 96  1  0  0  0
 12 13  2  0  0  0
 12 97  1  0  0  0
 13 14  1  0  0  0
 13 31  1  0  0  0
 14 15  2  0  0  0
 14 98  1  0  0  0
 15 99  1  0  0  0
 16 17  2  0  0  0
 16 21  1  0  0  0
 16 31  1  0  0  0
 17 18  1  0  0  0
 17100  1  0  0  0
 18 19  2  0  0  0
 18101  1  0  0  0
 19 20  1  0  0  0
 19 24  1  0  0  0
 20 21  2  0  0  0
 20102  1  0  0  0
 21 23  1  0  0  0
 22 28  1  0  0  0
 22 32  2  0  0  0
 26 27  1  0  0  0
 28103  1  0  0  0
 28104  1  0  0  0
 29105  1  0  0  0
 29106  1  0  0  0
 33 34  1  0  0  0
 33 66  1  0  0  0
 33 70  2  0  0  0
 34 36  1  0  0  0
 34 59  1  0  0  0
 34107  1  0  0  0
 35 44  2  0  0  0
 35 45  1  0  0  0
 35 68  1  0  0  0
 36 56  1  0  0  0
 36108  1  0  0  0
 37 39  1  0  0  0
 37 47  1  0  0  0
 37 66  1  0  0  0
 37109  1  0  0  0
 38 43  2  0  0  0
 38 46  1  0  0  0
 38 47  1  0  0  0
 39 64  1  0  0  0
 39 67  2  0  0  0
 40 52  1  0  0  0
 40 53  2  0  0  0
 40 58  1  0  0  0
 41110  1  0  0  0
 41111  1  0  0  0
 41112  1  0  0  0
 41 48  1  0  0  0
 42 43  1  0  0  0
 42 66  1  0  0  0
 42113  1  0  0  0
 42114  1  0  0  0
 43 44  1  0  0  0
 44115  1  0  0  0
 45 46  2  0  0  0
 45116  1  0  0  0
 46117  1  0  0  0
 47118  1  0  0  0
 47119  1  0  0  0
 48 56  1  0  0  0
 48 65  1  0  0  0
 48120  1  0  0  0
 49 50  1  0  0  0
 49 53  1  0  0  0
 49 64  1  0  0  0
 49121  1  0  0  0
 50 51  1  0  0  0
 50122  1  0  0  0
 50123  1  0  0  0
 51 52  1  0  0  0
 51124  1  0  0  0
 51125  1  0  0  0
 52126  1  0  0  0
 52127  1  0  0  0
 53 54  1  0  0  0
 54 55  2  0  0  0
 54128  1  0  0  0
 55 57  1  0  0  0
 55129  1  0  0  0
 56 69  2  0  0  0
 57 58  2  0  0  0
 57130  1  0  0  0
 58131  1  0  0  0
 59 60  1  0  0  0
 59 61  1  0  0  0
 59 62  1  0  0  0
 60132  1  0  0  0
 60133  1  0  0  0
 60134  1  0  0  0
 61135  1  0  0  0
 61136  1  0  0  0
 61137  1  0  0  0
 62138  1  0  0  0
 62139  1  0  0  0
 62140  1  0  0  0
 63 65  1  0  0  0
 63141  1  0  0  0
 63142  1  0  0  0
 63143  1  0  0  0
 64144  1  0  0  0
 65145  1  0  0  0
 68 83  1  0  0  0
 71 72  1  0  0  0
 71 73  1  0  0  0
 71146  1  0  0  0
 71147  1  0  0  0
 72148  1  0  0  0
 72149  1  0  0  0
 72 77  1  0  0  0
 73 77  1  0  0  0
 73150  1  0  0  0
 73151  1  0  0  0
 74 76  1  0  0  0
 74 78  1  0  0  0
 74152  1  0  0  0
 74153  1  0  0  0
 75 78  1  0  0  0
 75 79  1  0  0  0
 75154  1  0  0  0
 75155  1  0  0  0
 76156  1  0  0  0
 76157  1  0  0  0
 76 85  1  0  0  0
 77 85  1  0  0  0
 77158  1  0  0  0
 78 86  1  0  0  0
 78159  1  0  0  0
 79 80  1  0  0  0
 79 85  1  0  0  0
 79160  1  0  0  0
 80 83  1  0  0  0
 80161  1  0  0  0
 80162  1  0  0  0
 81 82  1  0  0  0
 81 84  1  0  0  0
 81163  1  0  0  0
 81164  1  0  0  0
 82 86  1  0  0  0
 82165  1  0  0  0
 82166  1  0  0  0
 83167  1  0  0  0
 83168  1  0  0  0
 84169  1  0  0  0
 85170  1  0  0  0
 86171  1  0  0  0
 86172  1  0  0  0
M  CHG  2  85   1  86   1
M  ISO  4   1 100  68 101  83 101  84 100
M  END
> <chiral flag>
0

> <version>
0

> <s_m_source_file>
/data/baiqing/PycharmProjects/Reinvent-master-3.2/result/LINK_invent/BTK/process_docking_weight1_custom_sum_contain_oxygen_bond_distance_aromatic_linkinvent_7_9_3/rearranged_h_0128.sdf

> <i_m_source_file_index>
59

> <r_mmod_Potential_Energy-OPLS-2005>
-193.105331420898

> <r_mmod_Stretch_Energy-OPLS-2005>
54.0750770568848

> <r_mmod_Bend_Energy-OPLS-2005>
168.943634033203

> <r_mmod_Torsional_Energy-OPLS-2005>
315.303924560547

> <r_mmod_Improper_Torsional_Energy-OPLS-2005>
11.1235942840576

> <r_mmod_Van_der_Waal_Energy-OPLS-2005>
137.624496459961

> <r_mmod_Electrostatic_Energy-OPLS-2005>
111.730537414551

> <r_mmod_Solvation_Energy-OPLS-2005>
-1013.58898925781

> <b_mmod_Minimization_Converged-OPLS-2005>
0

> <r_mmod_RMS_Derivative-OPLS-2005>
5.19002342224121

$$$$
59
                    3D
 Structure written by MMmdl.
167175  0  0  1  0            999 V2000
  -30.6660  -14.4001   20.6753 C   0  0  0  0  0  0
  -30.4430  -12.3065   19.3963 C   0  0  0  0  0  0
  -29.4939  -12.5139   18.1960 C   0  0  0  0  0  0
  -28.0150  -12.3657   18.6107 C   0  0  0  0  0  0
  -27.6653  -13.1809   19.8841 C   0  0  2  0  0  0
  -28.6942  -12.8641   20.9901 C   0  0  0  0  0  0
  -25.2558  -13.8072   20.5649 C   0  0  0  0  0  0
  -24.1790  -13.0400   20.9139 C   0  0  0  0  0  0
  -24.6315  -11.6852   20.8719 C   0  0  0  0  0  0
  -23.8971  -10.4281   21.0407 C   0  0  0  0  0  0
  -24.3539   -9.4210   21.9189 C   0  0  0  0  0  0
  -23.6247   -8.2232   22.0747 C   0  0  0  0  0  0
  -22.4240   -8.0238   21.3516 C   0  0  0  0  0  0
  -21.9835   -9.0221   20.4636 C   0  0  0  0  0  0
  -22.7136  -10.2120   20.3068 C   0  0  0  0  0  0
  -21.6860   -6.0693   22.5265 C   0  0  0  0  0  0
  -21.4023   -6.5611   23.8192 C   0  0  0  0  0  0
  -21.3655   -5.6772   24.9166 C   0  0  0  0  0  0
  -21.6056   -4.3036   24.7230 C   0  0  0  0  0  0
  -21.8831   -3.8110   23.4359 C   0  0  0  0  0  0
  -21.9203   -4.6919   22.3405 C   0  0  0  0  0  0
  -22.7840  -13.5229   21.1823 C   0  0  0  0  0  0
  -22.1678   -4.2082   21.0995 F   0  0  0  0  0  0
  -21.5631   -3.4543   25.7760 F   0  0  0  0  0  0
  -30.0365  -13.2143   20.4771 N   0  0  0  0  0  0
  -26.2977  -12.9212   20.3327 N   0  0  0  0  0  0
  -25.9225  -11.6381   20.5689 N   0  0  0  0  0  0
  -22.0531  -12.8247   22.0418 N   0  0  0  0  0  0
  -25.4343  -15.1790   20.4027 N   0  0  0  0  0  0
  -31.7185  -14.7211   20.1161 O   0  0  0  0  0  0
  -21.6626   -6.8822   21.4212 O   0  0  0  0  0  0
  -22.3565  -14.5560   20.6661 O   0  0  0  0  0  0
  -24.6115  -31.8698   23.2094 C   0  0  0  0  0  0
  -25.9035  -32.4835   23.8398 C   0  0  1  0  0  0
  -27.2460  -27.4783   20.0943 C   0  0  0  0  0  0
  -25.5882  -33.8632   24.2323 N   0  0  0  0  0  0
  -23.3994  -30.4910   21.5489 C   0  0  2  0  0  0
  -24.8494  -28.9559   20.1199 C   0  0  0  0  0  0
  -22.7417  -29.4651   22.4994 C   0  0  0  0  0  0
  -18.0285  -28.1386   22.8506 C   0  0  0  0  0  0
  -24.1489  -36.7330   23.2639 C   0  0  0  0  0  0
  -25.9215  -30.8512   21.3545 C   0  0  0  0  0  0
  -26.0055  -29.4842   20.7102 C   0  0  0  0  0  0
  -27.2095  -28.7513   20.6952 C   0  0  0  0  0  0
  -26.0826  -26.9505   19.5025 C   0  0  0  0  0  0
  -24.8803  -27.6849   19.5140 C   0  0  0  0  0  0
  -23.6070  -29.8155   20.1655 C   0  0  0  0  0  0
  -25.4105  -36.3120   24.0337 C   0  0  1  0  0  0
  -20.5865  -28.3683   23.1349 C   0  0  2  0  0  0
  -20.6769  -26.9398   22.5508 C   0  0  0  0  0  0
  -19.5762  -26.6259   21.5326 C   0  0  0  0  0  0
  -18.1936  -26.7901   22.1714 C   0  0  0  0  0  0
  -19.1528  -28.8868   23.2906 C   0  0  0  0  0  0
  -18.9424  -30.1487   23.8882 C   0  0  0  0  0  0
  -17.6432  -30.6627   24.0508 C   0  0  0  0  0  0
  -25.9025  -34.9486   23.5125 C   0  0  0  0  0  0
  -16.5332  -29.9097   23.6306 C   0  0  0  0  0  0
  -16.7262  -28.6499   23.0358 C   0  0  0  0  0  0
  -26.4463  -31.6614   25.0724 C   0  0  0  0  0  0
  -25.3731  -31.3725   26.1477 C   0  0  0  0  0  0
  -27.0278  -30.3065   24.6059 C   0  0  0  0  0  0
  -27.6055  -32.4326   25.7475 C   0  0  0  0  0  0
  -27.5578  -37.1820   24.8460 C   0  0  0  0  0  0
  -21.4152  -29.3047   22.3758 N   0  0  0  0  0  0
  -26.4291  -37.3798   23.9397 N   0  0  0  0  0  0
  -24.6623  -31.0838   22.0976 N   0  0  0  0  0  0
  -23.4213  -28.8200   23.3029 O   0  0  0  0  0  0
  -28.4170  -26.7717   20.0463 O   0  0  0  0  0  0
  -26.5604  -34.8936   22.4699 O   0  0  0  0  0  0
  -23.5322  -32.1404   23.7535 O   0  0  0  0  0  0
  -28.3849  -21.5463   19.7873 C   0  0  0  0  0  0
  -26.6076  -22.8727   20.0678 C   0  0  0  0  0  0
  -27.9335  -22.8908   19.7537 C   0  0  0  0  0  0
  -27.3318  -20.7348   20.1207 C   0  0  0  0  0  0
  -24.5455  -20.0215   21.5457 C   0  0  0  0  0  0
  -23.9375  -21.2697   19.4317 C   0  0  0  0  0  0
  -27.3422  -19.2306   20.1986 C   0  0  0  0  0  0
  -29.9857  -16.7019   21.4232 C   0  0  0  0  0  0
  -28.6557  -17.2199   20.8329 C   0  0  0  0  0  0
  -28.5391  -25.7747   21.0555 C   0  0  0  0  0  0
  -29.3619  -24.6094   20.4936 C   0  0  0  0  0  0
  -24.8151  -21.2702   20.6880 C   0  0  0  0  0  0
  -26.2173  -21.5673   20.3383 N   0  0  0  0  0  0
  -29.9681  -15.2424   21.4509 N   0  0  0  0  0  0
  -28.6289  -18.6920   20.6840 N   0  3  0  0  0  0
  -28.6801  -23.9838   19.4076 O   0  0  0  0  0  0
  -31.4755  -12.4691   19.0803 H   0  0  0  0  0  0
  -30.4008  -11.2772   19.7541 H   0  0  0  0  0  0
  -29.7347  -11.7954   17.4124 H   0  0  0  0  0  0
  -29.6534  -13.5010   17.7577 H   0  0  0  0  0  0
  -27.8312  -11.3076   18.8009 H   0  0  0  0  0  0
  -27.3604  -12.6421   17.7847 H   0  0  0  0  0  0
  -27.7406  -14.2390   19.6369 H   0  0  0  0  0  0
  -28.6667  -11.7933   21.2070 H   0  0  0  0  0  0
  -28.4209  -13.3446   21.9312 H   0  0  0  0  0  0
  -25.2696   -9.5692   22.4731 H   0  0  0  0  0  0
  -23.9983   -7.4615   22.7434 H   0  0  0  0  0  0
  -21.0792   -8.8720   19.8915 H   0  0  0  0  0  0
  -22.3601  -10.9656   19.6163 H   0  0  0  0  0  0
  -21.2020   -7.6118   23.9678 H   0  0  0  0  0  0
  -21.1466   -6.0511   25.9063 H   0  0  0  0  0  0
  -22.0611   -2.7563   23.2901 H   0  0  0  0  0  0
  -22.4202  -11.9885   22.4721 H   0  0  0  0  0  0
  -21.1143  -13.1213   22.2666 H   0  0  0  0  0  0
  -24.6469  -15.8157   20.4584 H   0  0  0  0  0  0
  -26.2465  -15.5811   19.9621 H   0  0  0  0  0  0
  -26.7131  -32.5576   23.1198 H   0  0  0  0  0  0
  -25.0010  -33.9780   25.0454 H   0  0  0  0  0  0
  -22.6852  -31.3039   21.4053 H   0  0  0  0  0  0
  -23.3728  -35.9682   23.3315 H   0  0  0  0  0  0
  -24.3576  -36.8928   22.2043 H   0  0  0  0  0  0
  -23.7265  -37.6554   23.6642 H   0  0  0  0  0  0
  -26.0256  -31.6150   20.5819 H   0  0  0  0  0  0
  -26.8141  -30.9130   21.9652 H   0  0  0  0  0  0
  -28.1081  -29.1585   21.1380 H   0  0  0  0  0  0
  -26.1128  -25.9797   19.0285 H   0  0  0  0  0  0
  -23.9929  -27.2699   19.0572 H   0  0  0  0  0  0
  -23.7114  -30.5834   19.3968 H   0  0  0  0  0  0
  -22.7340  -29.2259   19.8756 H   0  0  0  0  0  0
  -25.1284  -36.1985   25.0829 H   0  0  0  0  0  0
  -20.9935  -28.3279   24.1484 H   0  0  0  0  0  0
  -21.6637  -26.7458   22.1303 H   0  0  0  0  0  0
  -20.5698  -26.2309   23.3739 H   0  0  0  0  0  0
  -19.6882  -25.6103   21.1533 H   0  0  0  0  0  0
  -19.6739  -27.2923   20.6758 H   0  0  0  0  0  0
  -17.4190  -26.6595   21.4133 H   0  0  0  0  0  0
  -18.0308  -26.0121   22.9200 H   0  0  0  0  0  0
  -19.7883  -30.7328   24.2251 H   0  0  0  0  0  0
  -17.4971  -31.6327   24.5069 H   0  0  0  0  0  0
  -15.5321  -30.2997   23.7605 H   0  0  0  0  0  0
  -15.8672  -28.0785   22.7103 H   0  0  0  0  0  0
  -24.5881  -30.7095   25.7814 H   0  0  0  0  0  0
  -24.8940  -32.2881   26.4954 H   0  0  0  0  0  0
  -25.8079  -30.8867   27.0219 H   0  0  0  0  0  0
  -26.2787  -29.6839   24.1132 H   0  0  0  0  0  0
  -27.4088  -29.7298   25.4502 H   0  0  0  0  0  0
  -27.8619  -30.4403   23.9162 H   0  0  0  0  0  0
  -27.2676  -33.3595   26.2121 H   0  0  0  0  0  0
  -28.3819  -32.6933   25.0273 H   0  0  0  0  0  0
  -28.0772  -31.8407   26.5323 H   0  0  0  0  0  0
  -28.2616  -38.0103   24.7487 H   0  0  0  0  0  0
  -28.1063  -36.2630   24.6311 H   0  0  0  0  0  0
  -27.2294  -37.1504   25.8868 H   0  0  0  0  0  0
  -20.9305  -29.8795   21.6994 H   0  0  0  0  0  0
  -26.0187  -38.2883   24.1389 H   0  0  0  0  0  0
  -29.3863  -21.2070   19.5557 H   0  0  0  0  0  0
  -25.8863  -23.6810   20.1178 H   0  0  0  0  0  0
  -23.5595  -20.0879   22.0053 H   0  0  0  0  0  0
  -25.2654  -19.8959   22.3555 H   0  0  0  0  0  0
  -24.5203  -19.1174   20.9380 H   0  0  0  0  0  0
  -22.8882  -21.1392   19.6942 H   0  0  0  0  0  0
  -24.2128  -20.4569   18.7590 H   0  0  0  0  0  0
  -24.0162  -22.2111   18.8873 H   0  0  0  0  0  0
  -27.0976  -18.8124   19.2221 H   0  0  0  0  0  0
  -26.6110  -18.8611   20.8974 H   0  0  0  0  0  0
  -30.8370  -17.0715   20.8496 H   0  0  0  0  0  0
  -30.1051  -17.0831   22.4384 H   0  0  0  0  0  0
  -27.8276  -16.9175   21.4768 H   0  0  0  0  0  0
  -28.4754  -16.7494   19.8657 H   0  0  0  0  0  0
  -29.0671  -26.2159   21.9036 H   0  0  0  0  0  0
  -27.5748  -25.4283   21.4264 H   0  0  0  0  0  0
  -29.5794  -23.8905   21.2843 H   0  0  0  0  0  0
  -30.3219  -24.9845   20.1435 H   0  0  0  0  0  0
  -24.4897  -22.1096   21.3058 H   0  0  0  0  0  0
  -29.1681  -14.8218   21.8987 H   0  0  0  0  0  0
  -29.3480  -18.9592   20.0376 H   0  0  0  0  0  0
  -28.8313  -19.1243   21.5707 H   0  0  0  0  0  0
  1 25  1  0  0  0
  1 30  2  0  0  0
  1 84  1  0  0  0
  2  3  1  0  0  0
  2 25  1  0  0  0
  2 87  1  0  0  0
  2 88  1  0  0  0
  3  4  1  0  0  0
  3 89  1  0  0  0
  3 90  1  0  0  0
  4  5  1  0  0  0
  4 91  1  0  0  0
  4 92  1  0  0  0
  5  6  1  0  0  0
  5 26  1  0  0  0
  5 93  1  0  0  0
  6 25  1  0  0  0
  6 94  1  0  0  0
  6 95  1  0  0  0
  7  8  2  0  0  0
  7 26  1  0  0  0
  7 29  1  0  0  0
  8  9  1  0  0  0
  8 22  1  0  0  0
  9 10  1  0  0  0
  9 27  2  0  0  0
 10 11  2  0  0  0
 10 15  1  0  0  0
 11 12  1  0  0  0
 11 96  1  0  0  0
 12 13  2  0  0  0
 12 97  1  0  0  0
 13 14  1  0  0  0
 13 31  1  0  0  0
 14 15  2  0  0  0
 14 98  1  0  0  0
 15 99  1  0  0  0
 16 17  2  0  0  0
 16 21  1  0  0  0
 16 31  1  0  0  0
 17 18  1  0  0  0
 17100  1  0  0  0
 18 19  2  0  0  0
 18101  1  0  0  0
 19 20  1  0  0  0
 19 24  1  0  0  0
 20 21  2  0  0  0
 20102  1  0  0  0
 21 23  1  0  0  0
 22 28  1  0  0  0
 22 32  2  0  0  0
 26 27  1  0  0  0
 28103  1  0  0  0
 28104  1  0  0  0
 29105  1  0  0  0
 29106  1  0  0  0
 33 34  1  0  0  0
 33 66  1  0  0  0
 33 70  2  0  0  0
 34 36  1  0  0  0
 34 59  1  0  0  0
 34107  1  0  0  0
 35 44  2  0  0  0
 35 45  1  0  0  0
 35 68  1  0  0  0
 36 56  1  0  0  0
 36108  1  0  0  0
 37 39  1  0  0  0
 37 47  1  0  0  0
 37 66  1  0  0  0
 37109  1  0  0  0
 38 43  2  0  0  0
 38 46  1  0  0  0
 38 47  1  0  0  0
 39 64  1  0  0  0
 39 67  2  0  0  0
 40 52  1  0  0  0
 40 53  2  0  0  0
 40 58  1  0  0  0
 41110  1  0  0  0
 41111  1  0  0  0
 41112  1  0  0  0
 41 48  1  0  0  0
 42 43  1  0  0  0
 42 66  1  0  0  0
 42113  1  0  0  0
 42114  1  0  0  0
 43 44  1  0  0  0
 44115  1  0  0  0
 45 46  2  0  0  0
 45116  1  0  0  0
 46117  1  0  0  0
 47118  1  0  0  0
 47119  1  0  0  0
 48 56  1  0  0  0
 48 65  1  0  0  0
 48120  1  0  0  0
 49 50  1  0  0  0
 49 53  1  0  0  0
 49 64  1  0  0  0
 49121  1  0  0  0
 50 51  1  0  0  0
 50122  1  0  0  0
 50123  1  0  0  0
 51 52  1  0  0  0
 51124  1  0  0  0
 51125  1  0  0  0
 52126  1  0  0  0
 52127  1  0  0  0
 53 54  1  0  0  0
 54 55  2  0  0  0
 54128  1  0  0  0
 55 57  1  0  0  0
 55129  1  0  0  0
 56 69  2  0  0  0
 57 58  2  0  0  0
 57130  1  0  0  0
 58131  1  0  0  0
 59 60  1  0  0  0
 59 61  1  0  0  0
 59 62  1  0  0  0
 60132  1  0  0  0
 60133  1  0  0  0
 60134  1  0  0  0
 61135  1  0  0  0
 61136  1  0  0  0
 61137  1  0  0  0
 62138  1  0  0  0
 62139  1  0  0  0
 62140  1  0  0  0
 63 65  1  0  0  0
 63141  1  0  0  0
 63142  1  0  0  0
 63143  1  0  0  0
 64144  1  0  0  0
 65145  1  0  0  0
 68 80  1  0  0  0
 71 73  1  0  0  0
 71 74  2  0  0  0
 71146  1  0  0  0
 72 73  2  0  0  0
 72 83  1  0  0  0
 72147  1  0  0  0
 73 86  1  0  0  0
 74 77  1  0  0  0
 74 83  1  0  0  0
 75148  1  0  0  0
 75149  1  0  0  0
 75150  1  0  0  0
 75 82  1  0  0  0
 76 82  1  0  0  0
 76151  1  0  0  0
 76152  1  0  0  0
 76153  1  0  0  0
 77 85  1  0  0  0
 77154  1  0  0  0
 77155  1  0  0  0
 78 79  1  0  0  0
 78 84  1  0  0  0
 78156  1  0  0  0
 78157  1  0  0  0
 79 85  1  0  0  0
 79158  1  0  0  0
 79159  1  0  0  0
 80 81  1  0  0  0
 80160  1  0  0  0
 80161  1  0  0  0
 81 86  1  0  0  0
 81162  1  0  0  0
 81163  1  0  0  0
 82 83  1  0  0  0
 82164  1  0  0  0
 84165  1  0  0  0
 85166  1  0  0  0
 85167  1  0  0  0
M  CHG  1  85   1
M  ISO  4   1 100  68 101  80 101  84 100
M  END
> <chiral flag>
0

> <version>
0

> <s_m_source_file>
/data/baiqing/PycharmProjects/Reinvent-master-3.2/result/LINK_invent/BTK/process_docking_weight1_custom_sum_contain_oxygen_bond_distance_aromatic_linkinvent_7_9_3/rearranged_h_0128.sdf

> <i_m_source_file_index>
60

> <r_mmod_Potential_Energy-OPLS-2005>
-317.705200195312

> <r_mmod_Stretch_Energy-OPLS-2005>
33.8694152832031

> <r_mmod_Bend_Energy-OPLS-2005>
103.440628051758

> <r_mmod_Torsional_Energy-OPLS-2005>
265.552490234375

> <r_mmod_Improper_Torsional_Energy-OPLS-2005>
5.00458288192749

> <r_mmod_Van_der_Waal_Energy-OPLS-2005>
124.614051818848

> <r_mmod_Electrostatic_Energy-OPLS-2005>
-366.071472167969

> <r_mmod_Solvation_Energy-OPLS-2005>
-493.848541259766

> <b_mmod_Minimization_Converged-OPLS-2005>
0

> <r_mmod_RMS_Derivative-OPLS-2005>
5.48154163360596

$$$$
60
                    3D
 Structure written by MMmdl.
155163  0  0  1  0            999 V2000
  -30.7082  -14.4490   20.6061 C   0  0  0  0  0  0
  -30.4232  -12.3062   19.4151 C   0  0  0  0  0  0
  -29.4909  -12.5032   18.2028 C   0  0  0  0  0  0
  -28.0141  -12.3562   18.6192 C   0  0  0  0  0  0
  -27.6608  -13.2002   19.8733 C   0  0  2  0  0  0
  -28.6996  -12.9696   20.9934 C   0  0  0  0  0  0
  -25.2584  -13.8142   20.5672 C   0  0  0  0  0  0
  -24.1823  -13.0430   20.9149 C   0  0  0  0  0  0
  -24.6366  -11.6890   20.8717 C   0  0  0  0  0  0
  -23.9039  -10.4280   21.0396 C   0  0  0  0  0  0
  -24.3599   -9.4200   21.9177 C   0  0  0  0  0  0
  -23.6271   -8.2245   22.0763 C   0  0  0  0  0  0
  -22.4254   -8.0280   21.3556 C   0  0  0  0  0  0
  -21.9884   -9.0250   20.4659 C   0  0  0  0  0  0
  -22.7211  -10.2124   20.3052 C   0  0  0  0  0  0
  -21.6852   -6.0720   22.5277 C   0  0  0  0  0  0
  -21.4014   -6.5628   23.8210 C   0  0  0  0  0  0
  -21.3658   -5.6789   24.9175 C   0  0  0  0  0  0
  -21.6045   -4.3051   24.7230 C   0  0  0  0  0  0
  -21.8819   -3.8135   23.4356 C   0  0  0  0  0  0
  -21.9191   -4.6946   22.3406 C   0  0  0  0  0  0
  -22.7853  -13.5242   21.1824 C   0  0  0  0  0  0
  -22.1658   -4.2128   21.0984 F   0  0  0  0  0  0
  -21.5630   -3.4540   25.7748 F   0  0  0  0  0  0
  -30.0332  -13.2796   20.4466 N   0  0  0  0  0  0
  -26.3007  -12.9302   20.3348 N   0  0  0  0  0  0
  -25.9290  -11.6464   20.5749 N   0  0  0  0  0  0
  -22.0496  -12.8250   22.0386 N   0  0  0  0  0  0
  -25.4342  -15.1869   20.4137 N   0  0  0  0  0  0
  -31.8106  -14.6623   20.0920 O   0  0  0  0  0  0
  -21.6639   -6.8864   21.4241 O   0  0  0  0  0  0
  -22.3546  -14.5552   20.6671 O   0  0  0  0  0  0
  -24.6161  -31.8665   23.2082 C   0  0  0  0  0  0
  -25.9056  -32.4802   23.8384 C   0  0  1  0  0  0
  -27.2366  -27.4298   20.0890 C   0  0  0  0  0  0
  -25.5913  -33.8596   24.2344 N   0  0  0  0  0  0
  -23.4031  -30.4890   21.5491 C   0  0  2  0  0  0
  -24.8460  -28.9486   20.1172 C   0  0  0  0  0  0
  -22.7413  -29.4653   22.4993 C   0  0  0  0  0  0
  -18.0275  -28.1359   22.8495 C   0  0  0  0  0  0
  -24.1488  -36.7313   23.2643 C   0  0  0  0  0  0
  -25.9296  -30.8303   21.3585 C   0  0  0  0  0  0
  -26.0056  -29.4626   20.7087 C   0  0  0  0  0  0
  -27.2006  -28.7110   20.6886 C   0  0  0  0  0  0
  -26.0527  -26.9214   19.5078 C   0  0  0  0  0  0
  -24.8631  -27.6769   19.5183 C   0  0  0  0  0  0
  -23.6112  -29.8187   20.1640 C   0  0  0  0  0  0
  -25.4095  -36.3093   24.0357 C   0  0  1  0  0  0
  -20.5867  -28.3654   23.1321 C   0  0  2  0  0  0
  -20.6753  -26.9387   22.5427 C   0  0  0  0  0  0
  -19.5741  -26.6375   21.5213 C   0  0  0  0  0  0
  -18.1915  -26.7910   22.1616 C   0  0  0  0  0  0
  -19.1524  -28.8820   23.2907 C   0  0  0  0  0  0
  -18.9453  -30.1419   23.8929 C   0  0  0  0  0  0
  -17.6459  -30.6572   24.0556 C   0  0  0  0  0  0
  -25.9026  -34.9458   23.5149 C   0  0  0  0  0  0
  -16.5351  -29.9075   23.6311 C   0  0  0  0  0  0
  -16.7264  -28.6479   23.0356 C   0  0  0  0  0  0
  -26.4498  -31.6561   25.0695 C   0  0  0  0  0  0
  -25.3797  -31.3650   26.1474 C   0  0  0  0  0  0
  -27.0334  -30.3013   24.6026 C   0  0  0  0  0  0
  -27.6071  -32.4277   25.7461 C   0  0  0  0  0  0
  -27.5581  -37.1804   24.8468 C   0  0  0  0  0  0
  -21.4139  -29.3034   22.3735 N   0  0  0  0  0  0
  -26.4285  -37.3778   23.9423 N   0  0  0  0  0  0
  -24.6680  -31.0768   22.0975 N   0  0  0  0  0  0
  -23.4183  -28.8203   23.3043 O   0  0  0  0  0  0
  -28.4367  -26.7473   20.0929 O   0  0  0  0  0  0
  -26.5580  -34.8915   22.4704 O   0  0  0  0  0  0
  -23.5357  -32.1419   23.7482 O   0  0  0  0  0  0
  -29.9554  -22.8222   21.1557 C   0  0  0  0  0  0
  -27.9034  -21.8537   20.2919 C   0  0  0  0  0  0
  -30.5376  -21.5393   21.2020 C   0  0  0  0  0  0
  -28.4886  -20.5650   20.3386 C   0  0  0  0  0  0
  -28.6281  -22.9937   20.7110 C   0  0  0  0  0  0
  -29.8111  -20.3940   20.8120 C   0  0  0  0  0  0
  -27.9928  -24.3884   20.7530 C   0  0  0  0  0  0
  -29.7679  -17.8567   20.8096 C   0  0  0  0  0  0
  -30.5369  -16.7573   21.5842 C   0  0  0  0  0  0
  -28.5197  -25.3735   19.6810 C   0  0  0  0  0  0
  -30.4503  -19.1451   20.9234 N   0  0  0  0  0  0
  -30.0575  -15.4004   21.2978 N   0  0  0  0  0  0
  -31.4653  -12.4151   19.1085 H   0  0  0  0  0  0
  -30.3356  -11.2912   19.8067 H   0  0  0  0  0  0
  -29.7335  -11.7788   17.4244 H   0  0  0  0  0  0
  -29.6541  -13.4896   17.7669 H   0  0  0  0  0  0
  -27.8331  -11.3005   18.8245 H   0  0  0  0  0  0
  -27.3597  -12.6184   17.7876 H   0  0  0  0  0  0
  -27.7123  -14.2482   19.5781 H   0  0  0  0  0  0
  -28.6724  -11.9286   21.3195 H   0  0  0  0  0  0
  -28.4502  -13.5527   21.8806 H   0  0  0  0  0  0
  -25.2749   -9.5683   22.4743 H   0  0  0  0  0  0
  -23.9982   -7.4644   22.7488 H   0  0  0  0  0  0
  -21.0813   -8.8758   19.8976 H   0  0  0  0  0  0
  -22.3662  -10.9657   19.6158 H   0  0  0  0  0  0
  -21.2006   -7.6137   23.9703 H   0  0  0  0  0  0
  -21.1483   -6.0525   25.9078 H   0  0  0  0  0  0
  -22.0597   -2.7596   23.2866 H   0  0  0  0  0  0
  -22.4113  -11.9917   22.4782 H   0  0  0  0  0  0
  -21.1127  -13.1313   22.2605 H   0  0  0  0  0  0
  -24.6758  -15.8481   20.5427 H   0  0  0  0  0  0
  -26.2963  -15.6272   20.1182 H   0  0  0  0  0  0
  -26.7115  -32.5516   23.1140 H   0  0  0  0  0  0
  -25.0072  -33.9745   25.0494 H   0  0  0  0  0  0
  -22.6914  -31.3032   21.4074 H   0  0  0  0  0  0
  -23.3738  -35.9663   23.3304 H   0  0  0  0  0  0
  -24.3580  -36.8917   22.2055 H   0  0  0  0  0  0
  -23.7252  -37.6527   23.6647 H   0  0  0  0  0  0
  -26.0372  -31.5906   20.5841 H   0  0  0  0  0  0
  -26.8201  -30.8881   21.9713 H   0  0  0  0  0  0
  -28.1001  -29.1086   21.1390 H   0  0  0  0  0  0
  -26.0256  -25.9475   19.0416 H   0  0  0  0  0  0
  -23.9667  -27.2717   19.0690 H   0  0  0  0  0  0
  -23.7261  -30.5927   19.4043 H   0  0  0  0  0  0
  -22.7329  -29.2435   19.8666 H   0  0  0  0  0  0
  -25.1261  -36.1957   25.0851 H   0  0  0  0  0  0
  -20.9961  -28.3212   24.1437 H   0  0  0  0  0  0
  -20.5602  -26.2275   23.3620 H   0  0  0  0  0  0
  -21.6632  -26.7380   22.1264 H   0  0  0  0  0  0
  -19.6898  -25.6288   21.1229 H   0  0  0  0  0  0
  -19.6685  -27.3196   20.6752 H   0  0  0  0  0  0
  -17.4199  -26.6689   21.4001 H   0  0  0  0  0  0
  -18.0286  -26.0026   22.8979 H   0  0  0  0  0  0
  -19.7928  -30.7213   24.2334 H   0  0  0  0  0  0
  -17.5012  -31.6252   24.5153 H   0  0  0  0  0  0
  -15.5349  -30.2990   23.7593 H   0  0  0  0  0  0
  -15.8666  -28.0785   22.7085 H   0  0  0  0  0  0
  -24.5990  -30.6948   25.7857 H   0  0  0  0  0  0
  -24.8974  -32.2799   26.4919 H   0  0  0  0  0  0
  -25.8210  -30.8855   27.0223 H   0  0  0  0  0  0
  -26.2850  -29.6726   24.1185 H   0  0  0  0  0  0
  -27.4256  -29.7268   25.4426 H   0  0  0  0  0  0
  -27.8611  -30.4354   23.9062 H   0  0  0  0  0  0
  -27.2698  -33.3582   26.2036 H   0  0  0  0  0  0
  -28.3899  -32.6817   25.0304 H   0  0  0  0  0  0
  -28.0721  -31.8392   26.5380 H   0  0  0  0  0  0
  -28.2599  -38.0097   24.7499 H   0  0  0  0  0  0
  -28.1076  -36.2627   24.6304 H   0  0  0  0  0  0
  -27.2311  -37.1478   25.8876 H   0  0  0  0  0  0
  -20.9289  -29.8769   21.6973 H   0  0  0  0  0  0
  -26.0174  -38.2865   24.1393 H   0  0  0  0  0  0
  -30.5308  -23.6777   21.4826 H   0  0  0  0  0  0
  -26.8824  -21.9550   19.9499 H   0  0  0  0  0  0
  -31.5529  -21.4480   21.5603 H   0  0  0  0  0  0
  -27.9034  -19.7172   20.0138 H   0  0  0  0  0  0
  -28.1974  -24.8039   21.7402 H   0  0  0  0  0  0
  -26.9077  -24.3101   20.6871 H   0  0  0  0  0  0
  -29.7039  -17.5928   19.7525 H   0  0  0  0  0  0
  -28.7455  -17.9267   21.1846 H   0  0  0  0  0  0
  -31.6037  -16.8227   21.3673 H   0  0  0  0  0  0
  -30.4427  -16.9327   22.6569 H   0  0  0  0  0  0
  -28.0682  -25.1960   18.7048 H   0  0  0  0  0  0
  -29.5853  -25.1945   19.5381 H   0  0  0  0  0  0
  -31.3974  -19.1313   21.2942 H   0  0  0  0  0  0
  -29.1572  -15.1434   21.6754 H   0  0  0  0  0  0
  1 25  1  0  0  0
  1 30  2  0  0  0
  1 82  1  0  0  0
  2  3  1  0  0  0
  2 25  1  0  0  0
  2 83  1  0  0  0
  2 84  1  0  0  0
  3  4  1  0  0  0
  3 85  1  0  0  0
  3 86  1  0  0  0
  4  5  1  0  0  0
  4 87  1  0  0  0
  4 88  1  0  0  0
  5  6  1  0  0  0
  5 26  1  0  0  0
  5 89  1  0  0  0
  6 25  1  0  0  0
  6 90  1  0  0  0
  6 91  1  0  0  0
  7  8  2  0  0  0
  7 26  1  0  0  0
  7 29  1  0  0  0
  8  9  1  0  0  0
  8 22  1  0  0  0
  9 10  1  0  0  0
  9 27  2  0  0  0
 10 11  2  0  0  0
 10 15  1  0  0  0
 11 12  1  0  0  0
 11 92  1  0  0  0
 12 13  2  0  0  0
 12 93  1  0  0  0
 13 14  1  0  0  0
 13 31  1  0  0  0
 14 15  2  0  0  0
 14 94  1  0  0  0
 15 95  1  0  0  0
 16 17  2  0  0  0
 16 21  1  0  0  0
 16 31  1  0  0  0
 17 18  1  0  0  0
 17 96  1  0  0  0
 18 19  2  0  0  0
 18 97  1  0  0  0
 19 20  1  0  0  0
 19 24  1  0  0  0
 20 21  2  0  0  0
 20 98  1  0  0  0
 21 23  1  0  0  0
 22 28  1  0  0  0
 22 32  2  0  0  0
 26 27  1  0  0  0
 28 99  1  0  0  0
 28100  1  0  0  0
 29101  1  0  0  0
 29102  1  0  0  0
 33 34  1  0  0  0
 33 66  1  0  0  0
 33 70  2  0  0  0
 34 36  1  0  0  0
 34 59  1  0  0  0
 34103  1  0  0  0
 35 44  2  0  0  0
 35 45  1  0  0  0
 35 68  1  0  0  0
 36 56  1  0  0  0
 36104  1  0  0  0
 37 39  1  0  0  0
 37 47  1  0  0  0
 37 66  1  0  0  0
 37105  1  0  0  0
 38 43  2  0  0  0
 38 46  1  0  0  0
 38 47  1  0  0  0
 39 64  1  0  0  0
 39 67  2  0  0  0
 40 52  1  0  0  0
 40 53  2  0  0  0
 40 58  1  0  0  0
 41106  1  0  0  0
 41107  1  0  0  0
 41108  1  0  0  0
 41 48  1  0  0  0
 42 43  1  0  0  0
 42 66  1  0  0  0
 42109  1  0  0  0
 42110  1  0  0  0
 43 44  1  0  0  0
 44111  1  0  0  0
 45 46  2  0  0  0
 45112  1  0  0  0
 46113  1  0  0  0
 47114  1  0  0  0
 47115  1  0  0  0
 48 56  1  0  0  0
 48 65  1  0  0  0
 48116  1  0  0  0
 49 50  1  0  0  0
 49 53  1  0  0  0
 49 64  1  0  0  0
 49117  1  0  0  0
 50 51  1  0  0  0
 50118  1  0  0  0
 50119  1  0  0  0
 51 52  1  0  0  0
 51120  1  0  0  0
 51121  1  0  0  0
 52122  1  0  0  0
 52123  1  0  0  0
 53 54  1  0  0  0
 54 55  2  0  0  0
 54124  1  0  0  0
 55 57  1  0  0  0
 55125  1  0  0  0
 56 69  2  0  0  0
 57 58  2  0  0  0
 57126  1  0  0  0
 58127  1  0  0  0
 59 60  1  0  0  0
 59 61  1  0  0  0
 59 62  1  0  0  0
 60128  1  0  0  0
 60129  1  0  0  0
 60130  1  0  0  0
 61131  1  0  0  0
 61132  1  0  0  0
 61133  1  0  0  0
 62134  1  0  0  0
 62135  1  0  0  0
 62136  1  0  0  0
 63 65  1  0  0  0
 63137  1  0  0  0
 63138  1  0  0  0
 63139  1  0  0  0
 64140  1  0  0  0
 65141  1  0  0  0
 68 80  1  0  0  0
 71 73  2  0  0  0
 71 75  1  0  0  0
 71142  1  0  0  0
 72 74  1  0  0  0
 72 75  2  0  0  0
 72143  1  0  0  0
 73 76  1  0  0  0
 73144  1  0  0  0
 74 76  2  0  0  0
 74145  1  0  0  0
 75 77  1  0  0  0
 76 81  1  0  0  0
 77 80  1  0  0  0
 77146  1  0  0  0
 77147  1  0  0  0
 78 79  1  0  0  0
 78 81  1  0  0  0
 78148  1  0  0  0
 78149  1  0  0  0
 79 82  1  0  0  0
 79150  1  0  0  0
 79151  1  0  0  0
 80152  1  0  0  0
 80153  1  0  0  0
 81154  1  0  0  0
 82155  1  0  0  0
M  ISO  4   1 100  68 101  80 101  82 100
M  END
> <chiral flag>
0

> <version>
0

> <s_m_source_file>
/data/baiqing/PycharmProjects/Reinvent-master-3.2/result/LINK_invent/BTK/process_docking_weight1_custom_sum_contain_oxygen_bond_distance_aromatic_linkinvent_7_9_3/rearranged_h_0128.sdf

> <i_m_source_file_index>
61

> <r_mmod_Potential_Energy-OPLS-2005>
-149.417617797852

> <r_mmod_Stretch_Energy-OPLS-2005>
35.7775726318359

> <r_mmod_Bend_Energy-OPLS-2005>
114.079116821289

> <r_mmod_Torsional_Energy-OPLS-2005>
177.531585693359

> <r_mmod_Improper_Torsional_Energy-OPLS-2005>
2.65447735786438

> <r_mmod_Van_der_Waal_Energy-OPLS-2005>
151.411712646484

> <r_mmod_Electrostatic_Energy-OPLS-2005>
-419.903289794922

> <r_mmod_Solvation_Energy-OPLS-2005>
-222.086975097656

> <b_mmod_Minimization_Converged-OPLS-2005>
0

> <r_mmod_RMS_Derivative-OPLS-2005>
1.96044361591339

$$$$
61
                    3D
 Structure written by MMmdl.
151159  0  0  1  0            999 V2000
  -30.6047  -14.7485   20.4403 C   0  0  0  0  0  0
  -30.4295  -12.4515   19.4792 C   0  0  0  0  0  0
  -29.5093  -12.5025   18.2391 C   0  0  0  0  0  0
  -28.0350  -12.3306   18.6529 C   0  0  0  0  0  0
  -27.6395  -13.2339   19.8515 C   0  0  2  0  0  0
  -28.6844  -13.1769   20.9880 C   0  0  0  0  0  0
  -25.2505  -13.8200   20.5725 C   0  0  0  0  0  0
  -24.1809  -13.0437   20.9232 C   0  0  0  0  0  0
  -24.6402  -11.6918   20.8771 C   0  0  0  0  0  0
  -23.9080  -10.4292   21.0423 C   0  0  0  0  0  0
  -24.3629   -9.4203   21.9193 C   0  0  0  0  0  0
  -23.6300   -8.2239   22.0754 C   0  0  0  0  0  0
  -22.4279   -8.0283   21.3548 C   0  0  0  0  0  0
  -21.9923   -9.0258   20.4651 C   0  0  0  0  0  0
  -22.7256  -10.2134   20.3068 C   0  0  0  0  0  0
  -21.6854   -6.0742   22.5274 C   0  0  0  0  0  0
  -21.4016   -6.5644   23.8209 C   0  0  0  0  0  0
  -21.3662   -5.6800   24.9171 C   0  0  0  0  0  0
  -21.6041   -4.3061   24.7223 C   0  0  0  0  0  0
  -21.8817   -3.8154   23.4343 C   0  0  0  0  0  0
  -21.9195   -4.6969   22.3400 C   0  0  0  0  0  0
  -22.7835  -13.5210   21.1883 C   0  0  0  0  0  0
  -22.1663   -4.2155   21.0980 F   0  0  0  0  0  0
  -21.5626   -3.4546   25.7736 F   0  0  0  0  0  0
  -29.9850  -13.5202   20.4022 N   0  0  0  0  0  0
  -26.2931  -12.9411   20.3298 N   0  0  0  0  0  0
  -25.9331  -11.6549   20.5776 N   0  0  0  0  0  0
  -22.0492  -12.8202   22.0443 N   0  0  0  0  0  0
  -25.4188  -15.1925   20.4150 N   0  0  0  0  0  0
  -31.7953  -14.8433   20.1292 O   0  0  0  0  0  0
  -21.6644   -6.8884   21.4237 O   0  0  0  0  0  0
  -22.3516  -14.5509   20.6722 O   0  0  0  0  0  0
  -24.6302  -31.8543   23.1953 C   0  0  0  0  0  0
  -25.9128  -32.4751   23.8313 C   0  0  1  0  0  0
  -27.2240  -27.2657   20.1183 C   0  0  0  0  0  0
  -25.5920  -33.8553   24.2240 N   0  0  0  0  0  0
  -23.4263  -30.4756   21.5398 C   0  0  2  0  0  0
  -24.8722  -28.9166   20.1074 C   0  0  0  0  0  0
  -22.7495  -29.4609   22.4924 C   0  0  0  0  0  0
  -18.0288  -28.1392   22.8484 C   0  0  0  0  0  0
  -24.1487  -36.7288   23.2639 C   0  0  0  0  0  0
  -25.9692  -30.7677   21.3722 C   0  0  0  0  0  0
  -26.0408  -29.3887   20.7156 C   0  0  0  0  0  0
  -27.2155  -28.5738   20.7112 C   0  0  0  0  0  0
  -26.0302  -26.8516   19.4900 C   0  0  0  0  0  0
  -24.8716  -27.6567   19.4847 C   0  0  0  0  0  0
  -23.6429  -29.8041   20.1567 C   0  0  0  0  0  0
  -25.4114  -36.3072   24.0326 C   0  0  1  0  0  0
  -20.5886  -28.3717   23.1283 C   0  0  2  0  0  0
  -20.6780  -26.9438   22.5429 C   0  0  0  0  0  0
  -19.5750  -26.6370   21.5241 C   0  0  0  0  0  0
  -18.1936  -26.7921   22.1662 C   0  0  0  0  0  0
  -19.1533  -28.8878   23.2869 C   0  0  0  0  0  0
  -18.9460  -30.1470   23.8891 C   0  0  0  0  0  0
  -17.6457  -30.6596   24.0564 C   0  0  0  0  0  0
  -25.9055  -34.9442   23.5090 C   0  0  0  0  0  0
  -16.5346  -29.9088   23.6326 C   0  0  0  0  0  0
  -16.7274  -28.6506   23.0351 C   0  0  0  0  0  0
  -26.4484  -31.6582   25.0711 C   0  0  0  0  0  0
  -25.3697  -31.3747   26.1430 C   0  0  0  0  0  0
  -27.0329  -30.2998   24.6202 C   0  0  0  0  0  0
  -27.6039  -32.4321   25.7484 C   0  0  0  0  0  0
  -27.5577  -37.1798   24.8464 C   0  0  0  0  0  0
  -21.4202  -29.3065   22.3679 N   0  0  0  0  0  0
  -26.4289  -37.3773   23.9405 N   0  0  0  0  0  0
  -24.6948  -31.0508   22.0927 N   0  0  0  0  0  0
  -23.4197  -28.8153   23.3029 O   0  0  0  0  0  0
  -28.3481  -26.4153   20.1977 O   0  0  0  0  0  0
  -26.5642  -34.8920   22.4669 O   0  0  0  0  0  0
  -23.5454  -32.1368   23.7258 O   0  0  0  0  0  0
  -27.2079  -19.4882   21.5878 C   0  0  0  0  0  0
  -28.0549  -18.3966   21.2953 C   0  0  0  0  0  0
  -27.5072  -20.8062   21.1724 C   0  0  0  0  0  0
  -29.5196  -19.9474   20.1343 C   0  0  0  0  0  0
  -29.2461  -18.5811   20.5658 C   0  0  0  0  0  0
  -28.6697  -21.0959   20.4213 C   0  0  0  0  0  0
  -30.2147  -17.3388   20.3010 C   0  0  0  0  0  0
  -28.4425  -25.0411   19.5952 C   0  0  0  0  0  0
  -28.1909  -23.6450   20.3865 C   0  0  0  0  0  0
  -29.8249  -15.8856   20.5931 N   0  0  0  0  0  0
  -28.9604  -22.4232   19.9726 O   0  0  0  0  0  0
  -31.4732  -12.5672   19.1820 H   0  0  0  0  0  0
  -30.3669  -11.4776   19.9669 H   0  0  0  0  0  0
  -29.7890  -11.7247   17.5268 H   0  0  0  0  0  0
  -29.6398  -13.4558   17.7237 H   0  0  0  0  0  0
  -27.8927  -11.2825   18.9191 H   0  0  0  0  0  0
  -27.3758  -12.5214   17.8052 H   0  0  0  0  0  0
  -27.6298  -14.2535   19.4650 H   0  0  0  0  0  0
  -28.7184  -12.1851   21.4404 H   0  0  0  0  0  0
  -28.4252  -13.8683   21.7914 H   0  0  0  0  0  0
  -25.2762   -9.5674   22.4787 H   0  0  0  0  0  0
  -24.0004   -7.4626   22.7467 H   0  0  0  0  0  0
  -21.0857   -8.8791   19.8955 H   0  0  0  0  0  0
  -22.3714  -10.9689   19.6198 H   0  0  0  0  0  0
  -21.2014   -7.6155   23.9712 H   0  0  0  0  0  0
  -21.1486   -6.0534   25.9075 H   0  0  0  0  0  0
  -22.0595   -2.7619   23.2842 H   0  0  0  0  0  0
  -22.4127  -11.9846   22.4794 H   0  0  0  0  0  0
  -21.1117  -13.1226   22.2669 H   0  0  0  0  0  0
  -24.6435  -15.8379   20.5151 H   0  0  0  0  0  0
  -26.2503  -15.6314   20.0423 H   0  0  0  0  0  0
  -26.7197  -32.5404   23.1060 H   0  0  0  0  0  0
  -25.0036  -33.9686   25.0366 H   0  0  0  0  0  0
  -22.7224  -31.2972   21.3922 H   0  0  0  0  0  0
  -23.3750  -35.9619   23.3301 H   0  0  0  0  0  0
  -24.3572  -36.8916   22.2052 H   0  0  0  0  0  0
  -23.7241  -37.6488   23.6667 H   0  0  0  0  0  0
  -26.1052  -31.5279   20.6015 H   0  0  0  0  0  0
  -26.8484  -30.8192   22.0031 H   0  0  0  0  0  0
  -28.1140  -28.9311   21.1951 H   0  0  0  0  0  0
  -25.9611  -25.8817   19.0211 H   0  0  0  0  0  0
  -23.9737  -27.2894   19.0059 H   0  0  0  0  0  0
  -23.7641  -30.5784   19.3980 H   0  0  0  0  0  0
  -22.7615  -29.2360   19.8552 H   0  0  0  0  0  0
  -25.1291  -36.1918   25.0819 H   0  0  0  0  0  0
  -20.9976  -28.3310   24.1403 H   0  0  0  0  0  0
  -21.6642  -26.7484   22.1202 H   0  0  0  0  0  0
  -20.5728  -26.2321   23.3632 H   0  0  0  0  0  0
  -19.6919  -25.6270   21.1310 H   0  0  0  0  0  0
  -19.6668  -27.3155   20.6743 H   0  0  0  0  0  0
  -17.4195  -26.6638   21.4082 H   0  0  0  0  0  0
  -18.0356  -26.0088   22.9095 H   0  0  0  0  0  0
  -19.7933  -30.7290   24.2272 H   0  0  0  0  0  0
  -17.5004  -31.6271   24.5164 H   0  0  0  0  0  0
  -15.5352  -30.2991   23.7643 H   0  0  0  0  0  0
  -15.8674  -28.0827   22.7075 H   0  0  0  0  0  0
  -24.5881  -30.7084   25.7759 H   0  0  0  0  0  0
  -24.8874  -32.2925   26.4810 H   0  0  0  0  0  0
  -25.7999  -30.8956   27.0236 H   0  0  0  0  0  0
  -26.2915  -29.6749   24.1208 H   0  0  0  0  0  0
  -27.3990  -29.7252   25.4721 H   0  0  0  0  0  0
  -27.8799  -30.4270   23.9457 H   0  0  0  0  0  0
  -27.2652  -33.3630   26.2047 H   0  0  0  0  0  0
  -28.3859  -32.6869   25.0316 H   0  0  0  0  0  0
  -28.0704  -31.8458   26.5415 H   0  0  0  0  0  0
  -28.2594  -38.0093   24.7503 H   0  0  0  0  0  0
  -28.1071  -36.2622   24.6295 H   0  0  0  0  0  0
  -27.2296  -37.1458   25.8869 H   0  0  0  0  0  0
  -20.9398  -29.8791   21.6884 H   0  0  0  0  0  0
  -26.0169  -38.2847   24.1401 H   0  0  0  0  0  0
  -26.3026  -19.3104   22.1519 H   0  0  0  0  0  0
  -27.7868  -17.4127   21.6538 H   0  0  0  0  0  0
  -26.8114  -21.5866   21.4399 H   0  0  0  0  0  0
  -30.4233  -20.1248   19.5692 H   0  0  0  0  0  0
  -31.1297  -17.5414   20.8597 H   0  0  0  0  0  0
  -30.5073  -17.3862   19.2510 H   0  0  0  0  0  0
  -27.9238  -25.0141   18.6374 H   0  0  0  0  0  0
  -29.4920  -24.9938   19.3051 H   0  0  0  0  0  0
  -27.1225  -23.4365   20.3304 H   0  0  0  0  0  0
  -28.4094  -23.8093   21.4412 H   0  0  0  0  0  0
  -28.8541  -15.7228   20.8082 H   0  0  0  0  0  0
  1 25  1  0  0  0
  1 30  2  0  0  0
  1 80  1  0  0  0
  2  3  1  0  0  0
  2 25  1  0  0  0
  2 82  1  0  0  0
  2 83  1  0  0  0
  3  4  1  0  0  0
  3 84  1  0  0  0
  3 85  1  0  0  0
  4  5  1  0  0  0
  4 86  1  0  0  0
  4 87  1  0  0  0
  5  6  1  0  0  0
  5 26  1  0  0  0
  5 88  1  0  0  0
  6 25  1  0  0  0
  6 89  1  0  0  0
  6 90  1  0  0  0
  7  8  2  0  0  0
  7 26  1  0  0  0
  7 29  1  0  0  0
  8  9  1  0  0  0
  8 22  1  0  0  0
  9 10  1  0  0  0
  9 27  2  0  0  0
 10 11  2  0  0  0
 10 15  1  0  0  0
 11 12  1  0  0  0
 11 91  1  0  0  0
 12 13  2  0  0  0
 12 92  1  0  0  0
 13 14  1  0  0  0
 13 31  1  0  0  0
 14 15  2  0  0  0
 14 93  1  0  0  0
 15 94  1  0  0  0
 16 17  2  0  0  0
 16 21  1  0  0  0
 16 31  1  0  0  0
 17 18  1  0  0  0
 17 95  1  0  0  0
 18 19  2  0  0  0
 18 96  1  0  0  0
 19 20  1  0  0  0
 19 24  1  0  0  0
 20 21  2  0  0  0
 20 97  1  0  0  0
 21 23  1  0  0  0
 22 28  1  0  0  0
 22 32  2  0  0  0
 26 27  1  0  0  0
 28 98  1  0  0  0
 28 99  1  0  0  0
 29100  1  0  0  0
 29101  1  0  0  0
 33 34  1  0  0  0
 33 66  1  0  0  0
 33 70  2  0  0  0
 34 36  1  0  0  0
 34 59  1  0  0  0
 34102  1  0  0  0
 35 44  2  0  0  0
 35 45  1  0  0  0
 35 68  1  0  0  0
 36 56  1  0  0  0
 36103  1  0  0  0
 37 39  1  0  0  0
 37 47  1  0  0  0
 37 66  1  0  0  0
 37104  1  0  0  0
 38 43  2  0  0  0
 38 46  1  0  0  0
 38 47  1  0  0  0
 39 64  1  0  0  0
 39 67  2  0  0  0
 40 52  1  0  0  0
 40 53  2  0  0  0
 40 58  1  0  0  0
 41105  1  0  0  0
 41106  1  0  0  0
 41107  1  0  0  0
 41 48  1  0  0  0
 42 43  1  0  0  0
 42 66  1  0  0  0
 42108  1  0  0  0
 42109  1  0  0  0
 43 44  1  0  0  0
 44110  1  0  0  0
 45 46  2  0  0  0
 45111  1  0  0  0
 46112  1  0  0  0
 47113  1  0  0  0
 47114  1  0  0  0
 48 56  1  0  0  0
 48 65  1  0  0  0
 48115  1  0  0  0
 49 50  1  0  0  0
 49 53  1  0  0  0
 49 64  1  0  0  0
 49116  1  0  0  0
 50 51  1  0  0  0
 50117  1  0  0  0
 50118  1  0  0  0
 51 52  1  0  0  0
 51119  1  0  0  0
 51120  1  0  0  0
 52121  1  0  0  0
 52122  1  0  0  0
 53 54  1  0  0  0
 54 55  2  0  0  0
 54123  1  0  0  0
 55 57  1  0  0  0
 55124  1  0  0  0
 56 69  2  0  0  0
 57 58  2  0  0  0
 57125  1  0  0  0
 58126  1  0  0  0
 59 60  1  0  0  0
 59 61  1  0  0  0
 59 62  1  0  0  0
 60127  1  0  0  0
 60128  1  0  0  0
 60129  1  0  0  0
 61130  1  0  0  0
 61131  1  0  0  0
 61132  1  0  0  0
 62133  1  0  0  0
 62134  1  0  0  0
 62135  1  0  0  0
 63 65  1  0  0  0
 63136  1  0  0  0
 63137  1  0  0  0
 63138  1  0  0  0
 64139  1  0  0  0
 65140  1  0  0  0
 68 78  1  0  0  0
 71 72  2  0  0  0
 71 73  1  0  0  0
 71141  1  0  0  0
 72 75  1  0  0  0
 72142  1  0  0  0
 73 76  2  0  0  0
 73143  1  0  0  0
 74 75  2  0  0  0
 74 76  1  0  0  0
 74144  1  0  0  0
 75 77  1  0  0  0
 76 81  1  0  0  0
 77 80  1  0  0  0
 77145  1  0  0  0
 77146  1  0  0  0
 78 79  1  0  0  0
 78147  1  0  0  0
 78148  1  0  0  0
 79 81  1  0  0  0
 79149  1  0  0  0
 79150  1  0  0  0
 80151  1  0  0  0
M  ISO  4   1 100  68 101  78 101  80 100
M  END
> <chiral flag>
0

> <version>
0

> <s_m_source_file>
/data/baiqing/PycharmProjects/Reinvent-master-3.2/result/LINK_invent/BTK/process_docking_weight1_custom_sum_contain_oxygen_bond_distance_aromatic_linkinvent_7_9_3/rearranged_h_0128.sdf

> <i_m_source_file_index>
62

> <r_mmod_Potential_Energy-OPLS-2005>
103.362518310547

> <r_mmod_Stretch_Energy-OPLS-2005>
123.214546203613

> <r_mmod_Bend_Energy-OPLS-2005>
179.102401733398

> <r_mmod_Torsional_Energy-OPLS-2005>
193.321624755859

> <r_mmod_Improper_Torsional_Energy-OPLS-2005>
5.78001976013184

> <r_mmod_Van_der_Waal_Energy-OPLS-2005>
135.230133056641

> <r_mmod_Electrostatic_Energy-OPLS-2005>
-402.461730957031

> <r_mmod_Solvation_Energy-OPLS-2005>
-214.700790405273

> <b_mmod_Minimization_Converged-OPLS-2005>
0

> <r_mmod_RMS_Derivative-OPLS-2005>
1.49867081642151

$$$$
62
                    3D
 Structure written by MMmdl.
179188  0  0  1  0            999 V2000
  -30.6732  -14.5640   20.5428 C   0  0  0  0  0  0
  -30.4288  -12.3653   19.4274 C   0  0  0  0  0  0
  -29.4950  -12.5025   18.2070 C   0  0  0  0  0  0
  -28.0194  -12.3519   18.6261 C   0  0  0  0  0  0
  -27.6540  -13.2155   19.8630 C   0  0  2  0  0  0
  -28.6997  -13.0508   20.9872 C   0  0  0  0  0  0
  -25.2572  -13.8178   20.5681 C   0  0  0  0  0  0
  -24.1837  -13.0451   20.9191 C   0  0  0  0  0  0
  -24.6403  -11.6919   20.8744 C   0  0  0  0  0  0
  -23.9069  -10.4297   21.0414 C   0  0  0  0  0  0
  -24.3623   -9.4207   21.9187 C   0  0  0  0  0  0
  -23.6299   -8.2240   22.0748 C   0  0  0  0  0  0
  -22.4281   -8.0284   21.3539 C   0  0  0  0  0  0
  -21.9922   -9.0257   20.4638 C   0  0  0  0  0  0
  -22.7248  -10.2136   20.3053 C   0  0  0  0  0  0
  -21.6850   -6.0738   22.5277 C   0  0  0  0  0  0
  -21.4013   -6.5641   23.8210 C   0  0  0  0  0  0
  -21.3653   -5.6794   24.9170 C   0  0  0  0  0  0
  -21.6047   -4.3057   24.7223 C   0  0  0  0  0  0
  -21.8822   -3.8151   23.4343 C   0  0  0  0  0  0
  -21.9196   -4.6967   22.3399 C   0  0  0  0  0  0
  -22.7860  -13.5237   21.1857 C   0  0  0  0  0  0
  -22.1666   -4.2159   21.0973 F   0  0  0  0  0  0
  -21.5627   -3.4539   25.7728 F   0  0  0  0  0  0
  -30.0166  -13.3742   20.4185 N   0  0  0  0  0  0
  -26.2997  -12.9361   20.3330 N   0  0  0  0  0  0
  -25.9331  -11.6515   20.5768 N   0  0  0  0  0  0
  -22.0501  -12.8212   22.0397 N   0  0  0  0  0  0
  -25.4335  -15.1891   20.4069 N   0  0  0  0  0  0
  -31.8266  -14.7197   20.1353 O   0  0  0  0  0  0
  -21.6640   -6.8890   21.4240 O   0  0  0  0  0  0
  -22.3544  -14.5546   20.6707 O   0  0  0  0  0  0
  -24.6151  -31.8640   23.2087 C   0  0  0  0  0  0
  -25.9019  -32.4805   23.8374 C   0  0  1  0  0  0
  -27.2239  -27.3740   20.1070 C   0  0  0  0  0  0
  -25.5864  -33.8607   24.2283 N   0  0  0  0  0  0
  -23.4070  -30.4839   21.5503 C   0  0  2  0  0  0
  -24.8483  -28.9413   20.1132 C   0  0  0  0  0  0
  -22.7410  -29.4603   22.4988 C   0  0  0  0  0  0
  -18.0260  -28.1361   22.8464 C   0  0  0  0  0  0
  -24.1483  -36.7316   23.2645 C   0  0  0  0  0  0
  -25.9392  -30.8070   21.3718 C   0  0  0  0  0  0
  -26.0101  -29.4373   20.7176 C   0  0  0  0  0  0
  -27.1961  -28.6593   20.7121 C   0  0  0  0  0  0
  -26.0411  -26.9075   19.4924 C   0  0  0  0  0  0
  -24.8609  -27.6767   19.4988 C   0  0  0  0  0  0
  -23.6148  -29.8172   20.1637 C   0  0  0  0  0  0
  -25.4104  -36.3101   24.0336 C   0  0  1  0  0  0
  -20.5840  -28.3625   23.1314 C   0  0  2  0  0  0
  -20.6730  -26.9350   22.5415 C   0  0  0  0  0  0
  -19.5719  -26.6361   21.5179 C   0  0  0  0  0  0
  -18.1901  -26.7889   22.1599 C   0  0  0  0  0  0
  -19.1513  -28.8805   23.2882 C   0  0  0  0  0  0
  -18.9450  -30.1413   23.8880 C   0  0  0  0  0  0
  -17.6456  -30.6561   24.0550 C   0  0  0  0  0  0
  -25.9035  -34.9467   23.5109 C   0  0  0  0  0  0
  -16.5345  -29.9055   23.6336 C   0  0  0  0  0  0
  -16.7251  -28.6480   23.0330 C   0  0  0  0  0  0
  -26.4426  -31.6632   25.0749 C   0  0  0  0  0  0
  -25.3702  -31.3761   26.1514 C   0  0  0  0  0  0
  -27.0268  -30.3068   24.6168 C   0  0  0  0  0  0
  -27.5972  -32.4383   25.7513 C   0  0  0  0  0  0
  -27.5576  -37.1801   24.8457 C   0  0  0  0  0  0
  -21.4136  -29.3007   22.3749 N   0  0  0  0  0  0
  -26.4297  -37.3788   23.9400 N   0  0  0  0  0  0
  -24.6724  -31.0688   22.1011 N   0  0  0  0  0  0
  -23.4158  -28.8135   23.3043 O   0  0  0  0  0  0
  -28.3952  -26.6282   20.1528 O   0  0  0  0  0  0
  -26.5642  -34.8932   22.4695 O   0  0  0  0  0  0
  -23.5337  -32.1400   23.7463 O   0  0  0  0  0  0
  -30.8707  -20.4390   21.2185 C   0  0  0  0  0  0
  -33.5408  -21.5619   20.4558 C   0  0  0  0  0  0
  -33.6702  -20.2323   19.6900 C   0  0  0  0  0  0
  -29.0237  -19.0109   20.5233 C   0  0  0  0  0  0
  -31.4903  -19.1870   20.5852 C   0  0  1  0  0  0
  -29.3569  -20.4091   21.1314 C   0  0  2  0  0  0
  -30.3268  -18.1529   20.4146 C   0  0  1  0  0  0
  -32.9371  -21.4057   21.8665 C   0  0  1  0  0  0
  -32.3613  -19.4823   19.3076 C   0  0  0  0  0  0
  -33.3452  -22.5605   22.7891 C   0  0  0  0  0  0
  -31.6008  -20.2857   18.2255 C   0  0  0  0  0  0
  -32.8296  -18.1550   18.6623 C   0  0  0  0  0  0
  -30.4736  -16.9445   21.4252 C   0  0  0  0  0  0
  -29.1080  -22.9812   20.8584 C   0  0  0  0  0  0
  -28.4864  -25.2811   19.6116 C   0  0  0  0  0  0
  -28.0331  -24.0869   20.5361 C   0  0  1  0  0  0
  -31.4909  -21.3931   21.7953 N   0  0  0  0  0  0
  -29.9515  -15.6120   21.0207 N   0  0  0  0  0  0
  -28.7580  -21.5906   20.4013 N   0  3  0  0  0  0
  -26.8691  -23.4496   20.0187 O   0  0  0  0  0  0
  -31.4691  -12.4852   19.1187 H   0  0  0  0  0  0
  -30.3589  -11.3667   19.8591 H   0  0  0  0  0  0
  -29.7454  -11.7529   17.4554 H   0  0  0  0  0  0
  -29.6446  -13.4732   17.7318 H   0  0  0  0  0  0
  -27.8461  -11.2985   18.8483 H   0  0  0  0  0  0
  -27.3639  -12.5972   17.7898 H   0  0  0  0  0  0
  -27.6794  -14.2548   19.5340 H   0  0  0  0  0  0
  -28.7028  -12.0271   21.3632 H   0  0  0  0  0  0
  -28.4538  -13.6807   21.8432 H   0  0  0  0  0  0
  -25.2773   -9.5675   22.4765 H   0  0  0  0  0  0
  -24.0007   -7.4623   22.7460 H   0  0  0  0  0  0
  -21.0863   -8.8785   19.8930 H   0  0  0  0  0  0
  -22.3729  -10.9680   19.6158 H   0  0  0  0  0  0
  -21.2004   -7.6152   23.9718 H   0  0  0  0  0  0
  -21.1471   -6.0519   25.9074 H   0  0  0  0  0  0
  -22.0610   -2.7617   23.2837 H   0  0  0  0  0  0
  -22.4125  -11.9863   22.4763 H   0  0  0  0  0  0
  -21.1112  -13.1221   22.2600 H   0  0  0  0  0  0
  -24.6719  -15.8522   20.5023 H   0  0  0  0  0  0
  -26.2876  -15.6154   20.0703 H   0  0  0  0  0  0
  -26.7093  -32.5483   23.1140 H   0  0  0  0  0  0
  -24.9952  -33.9772   25.0370 H   0  0  0  0  0  0
  -22.7001  -31.3038   21.4103 H   0  0  0  0  0  0
  -23.3750  -35.9650   23.3316 H   0  0  0  0  0  0
  -24.3567  -36.8940   22.2060 H   0  0  0  0  0  0
  -23.7225  -37.6517   23.6668 H   0  0  0  0  0  0
  -26.0602  -31.5744   20.6054 H   0  0  0  0  0  0
  -26.8238  -30.8540   21.9962 H   0  0  0  0  0  0
  -28.0926  -29.0305   21.1873 H   0  0  0  0  0  0
  -26.0047  -25.9464   19.0041 H   0  0  0  0  0  0
  -23.9665  -27.2884   19.0319 H   0  0  0  0  0  0
  -23.7288  -30.5933   19.4045 H   0  0  0  0  0  0
  -22.7337  -29.2446   19.8651 H   0  0  0  0  0  0
  -25.1271  -36.1982   25.0835 H   0  0  0  0  0  0
  -20.9913  -28.3180   24.1443 H   0  0  0  0  0  0
  -20.5575  -26.2238   23.3608 H   0  0  0  0  0  0
  -21.6616  -26.7374   22.1237 H   0  0  0  0  0  0
  -19.6901  -25.6268   21.1212 H   0  0  0  0  0  0
  -19.6673  -27.3188   20.6712 H   0  0  0  0  0  0
  -17.4163  -26.6617   21.4018 H   0  0  0  0  0  0
  -18.0308  -26.0040   22.9017 H   0  0  0  0  0  0
  -19.7961  -30.7194   24.2262 H   0  0  0  0  0  0
  -17.5050  -31.6255   24.5123 H   0  0  0  0  0  0
  -15.5347  -30.2950   23.7700 H   0  0  0  0  0  0
  -15.8653  -28.0819   22.7028 H   0  0  0  0  0  0
  -24.5844  -30.7123   25.7880 H   0  0  0  0  0  0
  -24.8921  -32.2931   26.4983 H   0  0  0  0  0  0
  -25.8073  -30.8927   27.0263 H   0  0  0  0  0  0
  -26.2830  -29.6864   24.1159 H   0  0  0  0  0  0
  -27.3931  -29.7279   25.4657 H   0  0  0  0  0  0
  -27.8718  -30.4380   23.9400 H   0  0  0  0  0  0
  -27.2541  -33.3669   26.2091 H   0  0  0  0  0  0
  -28.3774  -32.6989   25.0348 H   0  0  0  0  0  0
  -28.0653  -31.8534   26.5440 H   0  0  0  0  0  0
  -28.2581  -38.0124   24.7507 H   0  0  0  0  0  0
  -28.1090  -36.2632   24.6265 H   0  0  0  0  0  0
  -27.2296  -37.1430   25.8873 H   0  0  0  0  0  0
  -20.9292  -29.8824   21.7053 H   0  0  0  0  0  0
  -26.0196  -38.2872   24.1414 H   0  0  0  0  0  0
  -32.9895  -22.3044   19.8760 H   0  0  0  0  0  0
  -34.5478  -21.9713   20.5520 H   0  0  0  0  0  0
  -34.3023  -19.5717   20.2851 H   0  0  0  0  0  0
  -34.2453  -20.4297   18.7838 H   0  0  0  0  0  0
  -28.5986  -19.1335   19.5254 H   0  0  0  0  0  0
  -28.2605  -18.5016   21.1110 H   0  0  0  0  0  0
  -32.1811  -18.7851   21.3268 H   0  0  0  0  0  0
  -28.9786  -20.4315   22.1531 H   0  0  0  0  0  0
  -30.3372  -17.7262   19.4151 H   0  0  0  0  0  0
  -33.3148  -20.4919   22.3338 H   0  0  0  0  0  0
  -32.9933  -23.5229   22.4145 H   0  0  0  0  0  0
  -34.4288  -22.6188   22.8899 H   0  0  0  0  0  0
  -32.9372  -22.4238   23.7926 H   0  0  0  0  0  0
  -31.3356  -21.2909   18.5537 H   0  0  0  0  0  0
  -30.6824  -19.7835   17.9202 H   0  0  0  0  0  0
  -32.2135  -20.4039   17.3313 H   0  0  0  0  0  0
  -33.2525  -17.4779   19.4058 H   0  0  0  0  0  0
  -33.5997  -18.3273   17.9095 H   0  0  0  0  0  0
  -32.0295  -17.6217   18.1512 H   0  0  0  0  0  0
  -30.0091  -17.2158   22.3733 H   0  0  0  0  0  0
  -31.5261  -16.7911   21.6723 H   0  0  0  0  0  0
  -29.2355  -22.9649   21.9424 H   0  0  0  0  0  0
  -30.0804  -23.2584   20.4515 H   0  0  0  0  0  0
  -28.0281  -25.2202   18.6242 H   0  0  0  0  0  0
  -29.5469  -25.1589   19.3979 H   0  0  0  0  0  0
  -27.7409  -24.5279   21.4908 H   0  0  0  0  0  0
  -28.9966  -15.4061   21.2781 H   0  0  0  0  0  0
  -27.7517  -21.5564   20.4642 H   0  0  0  0  0  0
  -28.9796  -21.5356   19.4224 H   0  0  0  0  0  0
  -26.1462  -24.0669   20.0938 H   0  0  0  0  0  0
  1 25  1  0  0  0
  1 30  2  0  0  0
  1 88  1  0  0  0
  2  3  1  0  0  0
  2 25  1  0  0  0
  2 91  1  0  0  0
  2 92  1  0  0  0
  3  4  1  0  0  0
  3 93  1  0  0  0
  3 94  1  0  0  0
  4  5  1  0  0  0
  4 95  1  0  0  0
  4 96  1  0  0  0
  5  6  1  0  0  0
  5 26  1  0  0  0
  5 97  1  0  0  0
  6 25  1  0  0  0
  6 98  1  0  0  0
  6 99  1  0  0  0
  7  8  2  0  0  0
  7 26  1  0  0  0
  7 29  1  0  0  0
  8  9  1  0  0  0
  8 22  1  0  0  0
  9 10  1  0  0  0
  9 27  2  0  0  0
 10 11  2  0  0  0
 10 15  1  0  0  0
 11 12  1  0  0  0
 11100  1  0  0  0
 12 13  2  0  0  0
 12101  1  0  0  0
 13 14  1  0  0  0
 13 31  1  0  0  0
 14 15  2  0  0  0
 14102  1  0  0  0
 15103  1  0  0  0
 16 17  2  0  0  0
 16 21  1  0  0  0
 16 31  1  0  0  0
 17 18  1  0  0  0
 17104  1  0  0  0
 18 19  2  0  0  0
 18105  1  0  0  0
 19 20  1  0  0  0
 19 24  1  0  0  0
 20 21  2  0  0  0
 20106  1  0  0  0
 21 23  1  0  0  0
 22 28  1  0  0  0
 22 32  2  0  0  0
 26 27  1  0  0  0
 28107  1  0  0  0
 28108  1  0  0  0
 29109  1  0  0  0
 29110  1  0  0  0
 33 34  1  0  0  0
 33 66  1  0  0  0
 33 70  2  0  0  0
 34 36  1  0  0  0
 34 59  1  0  0  0
 34111  1  0  0  0
 35 44  2  0  0  0
 35 45  1  0  0  0
 35 68  1  0  0  0
 36 56  1  0  0  0
 36112  1  0  0  0
 37 39  1  0  0  0
 37 47  1  0  0  0
 37 66  1  0  0  0
 37113  1  0  0  0
 38 43  2  0  0  0
 38 46  1  0  0  0
 38 47  1  0  0  0
 39 64  1  0  0  0
 39 67  2  0  0  0
 40 52  1  0  0  0
 40 53  2  0  0  0
 40 58  1  0  0  0
 41114  1  0  0  0
 41115  1  0  0  0
 41116  1  0  0  0
 41 48  1  0  0  0
 42 43  1  0  0  0
 42 66  1  0  0  0
 42117  1  0  0  0
 42118  1  0  0  0
 43 44  1  0  0  0
 44119  1  0  0  0
 45 46  2  0  0  0
 45120  1  0  0  0
 46121  1  0  0  0
 47122  1  0  0  0
 47123  1  0  0  0
 48 56  1  0  0  0
 48 65  1  0  0  0
 48124  1  0  0  0
 49 50  1  0  0  0
 49 53  1  0  0  0
 49 64  1  0  0  0
 49125  1  0  0  0
 50 51  1  0  0  0
 50126  1  0  0  0
 50127  1  0  0  0
 51 52  1  0  0  0
 51128  1  0  0  0
 51129  1  0  0  0
 52130  1  0  0  0
 52131  1  0  0  0
 53 54  1  0  0  0
 54 55  2  0  0  0
 54132  1  0  0  0
 55 57  1  0  0  0
 55133  1  0  0  0
 56 69  2  0  0  0
 57 58  2  0  0  0
 57134  1  0  0  0
 58135  1  0  0  0
 59 60  1  0  0  0
 59 61  1  0  0  0
 59 62  1  0  0  0
 60136  1  0  0  0
 60137  1  0  0  0
 60138  1  0  0  0
 61139  1  0  0  0
 61140  1  0  0  0
 61141  1  0  0  0
 62142  1  0  0  0
 62143  1  0  0  0
 62144  1  0  0  0
 63 65  1  0  0  0
 63145  1  0  0  0
 63146  1  0  0  0
 63147  1  0  0  0
 64148  1  0  0  0
 65149  1  0  0  0
 68 85  1  0  0  0
 71 76  1  0  0  0
 71 87  2  0  0  0
 71 75  1  0  0  0
 72 73  1  0  0  0
 72 78  1  0  0  0
 72150  1  0  0  0
 72151  1  0  0  0
 73 79  1  0  0  0
 73152  1  0  0  0
 73153  1  0  0  0
 74 76  1  0  0  0
 74 77  1  0  0  0
 74154  1  0  0  0
 74155  1  0  0  0
 75 77  1  0  0  0
 75 79  1  0  0  0
 75156  1  0  0  0
 76 89  1  0  0  0
 76157  1  0  0  0
 77 83  1  0  0  0
 77158  1  0  0  0
 78 80  1  0  0  0
 78 87  1  0  0  0
 78159  1  0  0  0
 79 81  1  0  0  0
 79 82  1  0  0  0
 80160  1  0  0  0
 80161  1  0  0  0
 80162  1  0  0  0
 81163  1  0  0  0
 81164  1  0  0  0
 81165  1  0  0  0
 82166  1  0  0  0
 82167  1  0  0  0
 82168  1  0  0  0
 83 88  1  0  0  0
 83169  1  0  0  0
 83170  1  0  0  0
 84 86  1  0  0  0
 84 89  1  0  0  0
 84171  1  0  0  0
 84172  1  0  0  0
 85 86  1  0  0  0
 85173  1  0  0  0
 85174  1  0  0  0
 86 90  1  0  0  0
 86175  1  0  0  0
 88176  1  0  0  0
 89177  1  0  0  0
 89178  1  0  0  0
 90179  1  0  0  0
M  CHG  1  89   1
M  ISO  4   1 100  68 101  85 101  88 100
M  END
> <chiral flag>
0

> <version>
0

> <s_m_source_file>
/data/baiqing/PycharmProjects/Reinvent-master-3.2/result/LINK_invent/BTK/process_docking_weight1_custom_sum_contain_oxygen_bond_distance_aromatic_linkinvent_7_9_3/rearranged_h_0128.sdf

> <i_m_source_file_index>
63

> <r_mmod_Potential_Energy-OPLS-2005>
-155.169586181641

> <r_mmod_Stretch_Energy-OPLS-2005>
60.7570915222168

> <r_mmod_Bend_Energy-OPLS-2005>
167.426162719727

> <r_mmod_Torsional_Energy-OPLS-2005>
326.417266845703

> <r_mmod_Improper_Torsional_Energy-OPLS-2005>
3.21674752235413

> <r_mmod_Van_der_Waal_Energy-OPLS-2005>
145.661926269531

> <r_mmod_Electrostatic_Energy-OPLS-2005>
-457.704559326172

> <r_mmod_Solvation_Energy-OPLS-2005>
-428.09423828125

> <b_mmod_Minimization_Converged-OPLS-2005>
0

> <r_mmod_RMS_Derivative-OPLS-2005>
2.94527840614319

$$$$
63
                    3D
 Structure written by MMmdl.
158167  0  0  1  0            999 V2000
  -30.5096  -15.0101   20.4159 C   0  0  0  0  0  0
  -30.4427  -12.6316   19.4985 C   0  0  0  0  0  0
  -29.5229  -12.5375   18.2579 C   0  0  0  0  0  0
  -28.0607  -12.3063   18.6849 C   0  0  0  0  0  0
  -27.6247  -13.2508   19.8356 C   0  0  2  0  0  0
  -28.6663  -13.3035   20.9716 C   0  0  0  0  0  0
  -25.2438  -13.8209   20.5711 C   0  0  0  0  0  0
  -24.1775  -13.0431   20.9242 C   0  0  0  0  0  0
  -24.6393  -11.6918   20.8757 C   0  0  0  0  0  0
  -23.9076  -10.4287   21.0408 C   0  0  0  0  0  0
  -24.3616   -9.4199   21.9187 C   0  0  0  0  0  0
  -23.6292   -8.2233   22.0756 C   0  0  0  0  0  0
  -22.4276   -8.0269   21.3541 C   0  0  0  0  0  0
  -21.9911   -9.0245   20.4643 C   0  0  0  0  0  0
  -22.7244  -10.2125   20.3059 C   0  0  0  0  0  0
  -21.6852   -6.0727   22.5281 C   0  0  0  0  0  0
  -21.4012   -6.5634   23.8211 C   0  0  0  0  0  0
  -21.3663   -5.6789   24.9176 C   0  0  0  0  0  0
  -21.6049   -4.3053   24.7229 C   0  0  0  0  0  0
  -21.8817   -3.8139   23.4353 C   0  0  0  0  0  0
  -21.9191   -4.6955   22.3405 C   0  0  0  0  0  0
  -22.7788  -13.5199   21.1908 C   0  0  0  0  0  0
  -22.1660   -4.2137   21.0983 F   0  0  0  0  0  0
  -21.5633   -3.4539   25.7743 F   0  0  0  0  0  0
  -29.9315  -13.7367   20.3650 N   0  0  0  0  0  0
  -26.2864  -12.9453   20.3234 N   0  0  0  0  0  0
  -25.9321  -11.6578   20.5721 N   0  0  0  0  0  0
  -22.0436  -12.8177   22.0453 N   0  0  0  0  0  0
  -25.4071  -15.1943   20.4129 N   0  0  0  0  0  0
  -31.7187  -15.0740   20.1694 O   0  0  0  0  0  0
  -21.6643   -6.8867   21.4241 O   0  0  0  0  0  0
  -22.3466  -14.5502   20.6751 O   0  0  0  0  0  0
  -24.6472  -31.8413   23.1836 C   0  0  0  0  0  0
  -25.9223  -32.4681   23.8249 C   0  0  1  0  0  0
  -27.2150  -27.0898   20.1813 C   0  0  0  0  0  0
  -25.5958  -33.8487   24.2169 N   0  0  0  0  0  0
  -23.4530  -30.4579   21.5303 C   0  0  2  0  0  0
  -24.9039  -28.8673   20.1218 C   0  0  0  0  0  0
  -22.7577  -29.4548   22.4854 C   0  0  0  0  0  0
  -18.0311  -28.1404   22.8491 C   0  0  0  0  0  0
  -24.1496  -36.7251   23.2645 C   0  0  0  0  0  0
  -26.0113  -30.7018   21.3871 C   0  0  0  0  0  0
  -26.0834  -29.3040   20.7393 C   0  0  0  0  0  0
  -27.2438  -28.4349   20.7434 C   0  0  0  0  0  0
  -26.0084  -26.7559   19.5342 C   0  0  0  0  0  0
  -24.8808  -27.6078   19.5017 C   0  0  0  0  0  0
  -23.6842  -29.7779   20.1546 C   0  0  0  0  0  0
  -25.4129  -36.3022   24.0313 C   0  0  1  0  0  0
  -20.5923  -28.3751   23.1242 C   0  0  2  0  0  0
  -20.6799  -26.9445   22.5416 C   0  0  0  0  0  0
  -19.5763  -26.6370   21.5241 C   0  0  0  0  0  0
  -18.1953  -26.7931   22.1679 C   0  0  0  0  0  0
  -19.1565  -28.8893   23.2854 C   0  0  0  0  0  0
  -18.9480  -30.1493   23.8861 C   0  0  0  0  0  0
  -17.6479  -30.6603   24.0548 C   0  0  0  0  0  0
  -25.9080  -34.9403   23.5056 C   0  0  0  0  0  0
  -16.5373  -29.9087   23.6344 C   0  0  0  0  0  0
  -16.7295  -28.6506   23.0371 C   0  0  0  0  0  0
  -26.4535  -31.6554   25.0702 C   0  0  0  0  0  0
  -25.3710  -31.3743   26.1386 C   0  0  0  0  0  0
  -27.0407  -30.2950   24.6294 C   0  0  0  0  0  0
  -27.6058  -32.4326   25.7498 C   0  0  0  0  0  0
  -27.5576  -37.1785   24.8467 C   0  0  0  0  0  0
  -21.4262  -29.3089   22.3621 N   0  0  0  0  0  0
  -26.4288  -37.3737   23.9407 N   0  0  0  0  0  0
  -24.7242  -31.0233   22.0886 N   0  0  0  0  0  0
  -23.4204  -28.8091   23.3014 O   0  0  0  0  0  0
  -28.2664  -26.0934   20.1477 O   0  0  0  0  0  0
  -26.5667  -34.8904   22.4635 O   0  0  0  0  0  0
  -23.5583  -32.1302   23.7031 O   0  0  0  0  0  0
  -29.0546  -21.8681   20.7212 C   0  0  0  0  0  0
  -27.5537  -22.5770   19.3095 C   0  0  0  0  0  0
  -28.3412  -23.1245   20.2803 C   0  0  0  0  0  0
  -28.6713  -20.6394   20.0810 C   0  0  0  0  0  0
  -24.8511  -21.1337   17.5994 C   0  0  0  0  0  0
  -26.2658  -20.9792   17.0348 C   0  0  0  0  0  0
  -25.2807  -20.3361   18.8338 C   0  0  0  0  0  0
  -26.7487  -20.4353   18.3907 C   0  0  0  0  0  0
  -28.1808  -24.6995   20.8652 C   0  0  0  0  0  0
  -28.8424  -18.9533   20.0954 C   0  0  0  0  0  0
  -29.9743  -17.7838   20.6019 C   0  0  0  0  0  0
  -27.6797  -21.1771   19.2196 N   0  0  0  0  0  0
  -29.7119  -16.1971   20.5454 N   0  0  0  0  0  0
  -31.4732  -12.8040   19.1818 H   0  0  0  0  0  0
  -30.4495  -11.6871   20.0450 H   0  0  0  0  0  0
  -29.8528  -11.7320   17.6012 H   0  0  0  0  0  0
  -29.5964  -13.4576   17.6753 H   0  0  0  0  0  0
  -27.9797  -11.2700   19.0177 H   0  0  0  0  0  0
  -27.3912  -12.4060   17.8299 H   0  0  0  0  0  0
  -27.5804  -14.2472   19.3948 H   0  0  0  0  0  0
  -28.7706  -12.3323   21.4571 H   0  0  0  0  0  0
  -28.3548  -14.0070   21.7453 H   0  0  0  0  0  0
  -25.2756   -9.5681   22.4768 H   0  0  0  0  0  0
  -23.9999   -7.4626   22.7478 H   0  0  0  0  0  0
  -21.0841   -8.8767   19.8944 H   0  0  0  0  0  0
  -22.3700  -10.9664   19.6171 H   0  0  0  0  0  0
  -21.2002   -7.6140   23.9711 H   0  0  0  0  0  0
  -21.1491   -6.0521   25.9079 H   0  0  0  0  0  0
  -22.0592   -2.7601   23.2861 H   0  0  0  0  0  0
  -22.4052  -11.9845   22.4852 H   0  0  0  0  0  0
  -21.1046  -13.1178   22.2656 H   0  0  0  0  0  0
  -24.6294  -15.8368   20.5182 H   0  0  0  0  0  0
  -26.2367  -15.6356   20.0406 H   0  0  0  0  0  0
  -26.7290  -32.5279   23.0978 H   0  0  0  0  0  0
  -25.0076  -33.9592   25.0297 H   0  0  0  0  0  0
  -22.7577  -31.2841   21.3692 H   0  0  0  0  0  0
  -23.3759  -35.9579   23.3293 H   0  0  0  0  0  0
  -24.3577  -36.8901   22.2060 H   0  0  0  0  0  0
  -23.7246  -37.6444   23.6693 H   0  0  0  0  0  0
  -26.1663  -31.4488   20.6070 H   0  0  0  0  0  0
  -26.8818  -30.7612   22.0292 H   0  0  0  0  0  0
  -28.1490  -28.7719   21.2287 H   0  0  0  0  0  0
  -25.9277  -25.7873   19.0601 H   0  0  0  0  0  0
  -23.9812  -27.2678   19.0062 H   0  0  0  0  0  0
  -23.8267  -30.5469   19.3945 H   0  0  0  0  0  0
  -22.7978  -29.2226   19.8424 H   0  0  0  0  0  0
  -25.1319  -36.1850   25.0803 H   0  0  0  0  0  0
  -21.0008  -28.3339   24.1366 H   0  0  0  0  0  0
  -20.5692  -26.2372   23.3652 H   0  0  0  0  0  0
  -21.6663  -26.7441   22.1224 H   0  0  0  0  0  0
  -19.6920  -25.6267   21.1316 H   0  0  0  0  0  0
  -19.6681  -27.3155   20.6743 H   0  0  0  0  0  0
  -17.4201  -26.6615   21.4113 H   0  0  0  0  0  0
  -18.0400  -26.0106   22.9123 H   0  0  0  0  0  0
  -19.7959  -30.7324   24.2209 H   0  0  0  0  0  0
  -17.5031  -31.6284   24.5155 H   0  0  0  0  0  0
  -15.5368  -30.2978   23.7693 H   0  0  0  0  0  0
  -15.8693  -28.0806   22.7117 H   0  0  0  0  0  0
  -24.5900  -30.7085   25.7698 H   0  0  0  0  0  0
  -24.8888  -32.2923   26.4756 H   0  0  0  0  0  0
  -25.7985  -30.8950   27.0201 H   0  0  0  0  0  0
  -26.3029  -29.6662   24.1297 H   0  0  0  0  0  0
  -27.4014  -29.7262   25.4875 H   0  0  0  0  0  0
  -27.8939  -30.4187   23.9619 H   0  0  0  0  0  0
  -27.2645  -33.3649   26.2009 H   0  0  0  0  0  0
  -28.3908  -32.6846   25.0355 H   0  0  0  0  0  0
  -28.0678  -31.8490   26.5471 H   0  0  0  0  0  0
  -28.2587  -38.0089   24.7511 H   0  0  0  0  0  0
  -28.1081  -36.2618   24.6302 H   0  0  0  0  0  0
  -27.2291  -37.1438   25.8869 H   0  0  0  0  0  0
  -20.9478  -29.8824   21.6814 H   0  0  0  0  0  0
  -26.0157  -38.2809   24.1399 H   0  0  0  0  0  0
  -29.7608  -21.8647   21.5402 H   0  0  0  0  0  0
  -26.7927  -23.0750   18.7232 H   0  0  0  0  0  0
  -24.0767  -20.6500   17.0031 H   0  0  0  0  0  0
  -24.5948  -22.1681   17.8301 H   0  0  0  0  0  0
  -26.7260  -21.9169   16.7209 H   0  0  0  0  0  0
  -26.3217  -20.2326   16.2400 H   0  0  0  0  0  0
  -24.9015  -19.3130   18.8352 H   0  0  0  0  0  0
  -25.0626  -20.8392   19.7772 H   0  0  0  0  0  0
  -27.1408  -19.4407   18.2181 H   0  0  0  0  0  0
  -28.9055  -24.7655   21.6762 H   0  0  0  0  0  0
  -27.2159  -24.6974   21.3734 H   0  0  0  0  0  0
  -28.8270  -18.6782   19.0451 H   0  0  0  0  0  0
  -27.8959  -18.5844   20.4929 H   0  0  0  0  0  0
  -30.2126  -18.0004   21.6435 H   0  0  0  0  0  0
  -30.9012  -17.9676   20.0578 H   0  0  0  0  0  0
  -28.7372  -15.9698   20.6736 H   0  0  0  0  0  0
  1 25  1  0  0  0
  1 30  2  0  0  0
  1 83  1  0  0  0
  2  3  1  0  0  0
  2 25  1  0  0  0
  2 84  1  0  0  0
  2 85  1  0  0  0
  3  4  1  0  0  0
  3 86  1  0  0  0
  3 87  1  0  0  0
  4  5  1  0  0  0
  4 88  1  0  0  0
  4 89  1  0  0  0
  5  6  1  0  0  0
  5 26  1  0  0  0
  5 90  1  0  0  0
  6 25  1  0  0  0
  6 91  1  0  0  0
  6 92  1  0  0  0
  7  8  2  0  0  0
  7 26  1  0  0  0
  7 29  1  0  0  0
  8  9  1  0  0  0
  8 22  1  0  0  0
  9 10  1  0  0  0
  9 27  2  0  0  0
 10 11  2  0  0  0
 10 15  1  0  0  0
 11 12  1  0  0  0
 11 93  1  0  0  0
 12 13  2  0  0  0
 12 94  1  0  0  0
 13 14  1  0  0  0
 13 31  1  0  0  0
 14 15  2  0  0  0
 14 95  1  0  0  0
 15 96  1  0  0  0
 16 17  2  0  0  0
 16 21  1  0  0  0
 16 31  1  0  0  0
 17 18  1  0  0  0
 17 97  1  0  0  0
 18 19  2  0  0  0
 18 98  1  0  0  0
 19 20  1  0  0  0
 19 24  1  0  0  0
 20 21  2  0  0  0
 20 99  1  0  0  0
 21 23  1  0  0  0
 22 28  1  0  0  0
 22 32  2  0  0  0
 26 27  1  0  0  0
 28100  1  0  0  0
 28101  1  0  0  0
 29102  1  0  0  0
 29103  1  0  0  0
 33 34  1  0  0  0
 33 66  1  0  0  0
 33 70  2  0  0  0
 34 36  1  0  0  0
 34 59  1  0  0  0
 34104  1  0  0  0
 35 44  2  0  0  0
 35 45  1  0  0  0
 35 68  1  0  0  0
 36 56  1  0  0  0
 36105  1  0  0  0
 37 39  1  0  0  0
 37 47  1  0  0  0
 37 66  1  0  0  0
 37106  1  0  0  0
 38 43  2  0  0  0
 38 46  1  0  0  0
 38 47  1  0  0  0
 39 64  1  0  0  0
 39 67  2  0  0  0
 40 52  1  0  0  0
 40 53  2  0  0  0
 40 58  1  0  0  0
 41107  1  0  0  0
 41108  1  0  0  0
 41109  1  0  0  0
 41 48  1  0  0  0
 42 43  1  0  0  0
 42 66  1  0  0  0
 42110  1  0  0  0
 42111  1  0  0  0
 43 44  1  0  0  0
 44112  1  0  0  0
 45 46  2  0  0  0
 45113  1  0  0  0
 46114  1  0  0  0
 47115  1  0  0  0
 47116  1  0  0  0
 48 56  1  0  0  0
 48 65  1  0  0  0
 48117  1  0  0  0
 49 50  1  0  0  0
 49 53  1  0  0  0
 49 64  1  0  0  0
 49118  1  0  0  0
 50 51  1  0  0  0
 50119  1  0  0  0
 50120  1  0  0  0
 51 52  1  0  0  0
 51121  1  0  0  0
 51122  1  0  0  0
 52123  1  0  0  0
 52124  1  0  0  0
 53 54  1  0  0  0
 54 55  2  0  0  0
 54125  1  0  0  0
 55 57  1  0  0  0
 55126  1  0  0  0
 56 69  2  0  0  0
 57 58  2  0  0  0
 57127  1  0  0  0
 58128  1  0  0  0
 59 60  1  0  0  0
 59 61  1  0  0  0
 59 62  1  0  0  0
 60129  1  0  0  0
 60130  1  0  0  0
 60131  1  0  0  0
 61132  1  0  0  0
 61133  1  0  0  0
 61134  1  0  0  0
 62135  1  0  0  0
 62136  1  0  0  0
 62137  1  0  0  0
 63 65  1  0  0  0
 63138  1  0  0  0
 63139  1  0  0  0
 63140  1  0  0  0
 64141  1  0  0  0
 65142  1  0  0  0
 68 79  1  0  0  0
 71 73  1  0  0  0
 71 74  2  0  0  0
 71143  1  0  0  0
 72 73  2  0  0  0
 72 82  1  0  0  0
 72144  1  0  0  0
 73 79  1  0  0  0
 74 80  1  0  0  0
 74 82  1  0  0  0
 75 76  1  0  0  0
 75 77  1  0  0  0
 75145  1  0  0  0
 75146  1  0  0  0
 76 78  1  0  0  0
 76147  1  0  0  0
 76148  1  0  0  0
 77 78  1  0  0  0
 77149  1  0  0  0
 77150  1  0  0  0
 78 82  1  0  0  0
 78151  1  0  0  0
 79152  1  0  0  0
 79153  1  0  0  0
 80 81  1  0  0  0
 80154  1  0  0  0
 80155  1  0  0  0
 81 83  1  0  0  0
 81156  1  0  0  0
 81157  1  0  0  0
 83158  1  0  0  0
M  ISO  4   1 100  68 101  79 101  83 100
M  END
> <chiral flag>
0

> <version>
0

> <s_m_source_file>
/data/baiqing/PycharmProjects/Reinvent-master-3.2/result/LINK_invent/BTK/process_docking_weight1_custom_sum_contain_oxygen_bond_distance_aromatic_linkinvent_7_9_3/rearranged_h_0128.sdf

> <i_m_source_file_index>
64

> <r_mmod_Potential_Energy-OPLS-2005>
750.099060058594

> <r_mmod_Stretch_Energy-OPLS-2005>
318.350036621094

> <r_mmod_Bend_Energy-OPLS-2005>
347.765563964844

> <r_mmod_Torsional_Energy-OPLS-2005>
306.481262207031

> <r_mmod_Improper_Torsional_Energy-OPLS-2005>
7.25987577438354

> <r_mmod_Van_der_Waal_Energy-OPLS-2005>
111.214874267578

> <r_mmod_Electrostatic_Energy-OPLS-2005>
-359.551361083984

> <r_mmod_Solvation_Energy-OPLS-2005>
-215.573440551758

> <b_mmod_Minimization_Converged-OPLS-2005>
0

> <r_mmod_RMS_Derivative-OPLS-2005>
1.95470583438873

$$$$
64
                    3D
 Structure written by MMmdl.
166175  0  0  1  0            999 V2000
  -30.7545  -14.3766   20.6736 C   0  0  0  0  0  0
  -30.4188  -12.2943   19.3900 C   0  0  0  0  0  0
  -29.4804  -12.5165   18.1892 C   0  0  0  0  0  0
  -28.0071  -12.3704   18.6127 C   0  0  0  0  0  0
  -27.6659  -13.1979   19.8781 C   0  0  2  0  0  0
  -28.7047  -12.9443   20.9915 C   0  0  0  0  0  0
  -25.2620  -13.8137   20.5680 C   0  0  0  0  0  0
  -24.1860  -13.0445   20.9194 C   0  0  0  0  0  0
  -24.6392  -11.6901   20.8750 C   0  0  0  0  0  0
  -23.9049  -10.4298   21.0422 C   0  0  0  0  0  0
  -24.3612   -9.4213   21.9190 C   0  0  0  0  0  0
  -23.6292   -8.2247   22.0751 C   0  0  0  0  0  0
  -22.4270   -8.0286   21.3540 C   0  0  0  0  0  0
  -21.9908   -9.0255   20.4638 C   0  0  0  0  0  0
  -22.7228  -10.2139   20.3055 C   0  0  0  0  0  0
  -21.6861   -6.0740   22.5280 C   0  0  0  0  0  0
  -21.4014   -6.5641   23.8212 C   0  0  0  0  0  0
  -21.3655   -5.6791   24.9172 C   0  0  0  0  0  0
  -21.6047   -4.3051   24.7223 C   0  0  0  0  0  0
  -21.8818   -3.8144   23.4342 C   0  0  0  0  0  0
  -21.9194   -4.6965   22.3402 C   0  0  0  0  0  0
  -22.7886  -13.5255   21.1849 C   0  0  0  0  0  0
  -22.1663   -4.2149   21.0980 F   0  0  0  0  0  0
  -21.5634   -3.4535   25.7738 F   0  0  0  0  0  0
  -30.0458  -13.2394   20.4531 N   0  0  0  0  0  0
  -26.3045  -12.9290   20.3369 N   0  0  0  0  0  0
  -25.9311  -11.6461   20.5770 N   0  0  0  0  0  0
  -22.0514  -12.8243   22.0390 N   0  0  0  0  0  0
  -25.4383  -15.1840   20.4024 N   0  0  0  0  0  0
  -31.7746  -14.6810   20.0520 O   0  0  0  0  0  0
  -21.6634   -6.8879   21.4237 O   0  0  0  0  0  0
  -22.3585  -14.5569   20.6695 O   0  0  0  0  0  0
  -24.6310  -31.8761   23.2156 C   0  0  0  0  0  0
  -25.9159  -32.4890   23.8460 C   0  0  1  0  0  0
  -27.2443  -27.4508   20.0763 C   0  0  0  0  0  0
  -25.5978  -33.8670   24.2392 N   0  0  0  0  0  0
  -23.4327  -30.5009   21.5681 C   0  0  2  0  0  0
  -24.8524  -28.9580   20.1240 C   0  0  0  0  0  0
  -22.7749  -29.4854   22.5246 C   0  0  0  0  0  0
  -17.9928  -28.1214   22.8680 C   0  0  0  0  0  0
  -24.1483  -36.7329   23.2630 C   0  0  0  0  0  0
  -25.9460  -30.8406   21.3620 C   0  0  0  0  0  0
  -26.0129  -29.4726   20.7124 C   0  0  0  0  0  0
  -27.2064  -28.7220   20.6908 C   0  0  0  0  0  0
  -26.0581  -26.9375   19.4997 C   0  0  0  0  0  0
  -24.8668  -27.6885   19.5195 C   0  0  0  0  0  0
  -23.6184  -29.8275   20.1809 C   0  0  0  0  0  0
  -25.4104  -36.3141   24.0338 C   0  0  1  0  0  0
  -20.4772  -28.4604   22.7814 C   0  0  2  0  0  0
  -20.6880  -26.9618   22.5372 C   0  0  0  0  0  0
  -19.5554  -26.4561   21.6188 C   0  0  0  0  0  0
  -18.1549  -26.7548   22.1991 C   0  0  0  0  0  0
  -19.1126  -28.8991   23.2500 C   0  0  0  0  0  0
  -18.9315  -30.1476   23.8787 C   0  0  0  0  0  0
  -17.6327  -30.6476   24.0841 C   0  0  0  0  0  0
  -25.9048  -34.9510   23.5143 C   0  0  0  0  0  0
  -16.5169  -29.8933   23.6752 C   0  0  0  0  0  0
  -16.6974  -28.6291   23.0841 C   0  0  0  0  0  0
  -26.4511  -31.6629   25.0778 C   0  0  0  0  0  0
  -25.3740  -31.3715   26.1489 C   0  0  0  0  0  0
  -27.0313  -30.3075   24.6124 C   0  0  0  0  0  0
  -27.6098  -32.4296   25.7558 C   0  0  0  0  0  0
  -27.5585  -37.1829   24.8472 C   0  0  0  0  0  0
  -21.4537  -29.4491   22.4037 N   0  0  0  0  0  0
  -26.4297  -37.3821   23.9412 N   0  0  0  0  0  0
  -24.6913  -31.0867   22.1077 N   0  0  0  0  0  0
  -23.4263  -28.7632   23.2800 O   0  0  0  0  0  0
  -28.4538  -26.7862   20.0639 O   0  0  0  0  0  0
  -26.5582  -34.8939   22.4689 O   0  0  0  0  0  0
  -23.5475  -32.1498   23.7525 O   0  0  0  0  0  0
  -27.3581  -23.2731   22.2582 C   0  0  0  0  0  0
  -27.8648  -21.8809   20.3309 C   0  0  0  0  0  0
  -27.7277  -24.4236   21.5346 C   0  0  0  0  0  0
  -28.2306  -23.0332   19.6060 C   0  0  0  0  0  0
  -27.4123  -21.9923   21.6645 C   0  0  0  0  0  0
  -28.1599  -24.3120   20.1970 C   0  0  0  0  0  0
  -26.3043  -19.6242   21.6664 C   0  0  0  0  0  0
  -27.9617  -20.3057   23.5369 C   0  0  0  0  0  0
  -27.2619  -18.4562   21.3401 C   0  0  0  0  0  0
  -28.8418  -19.1289   23.0728 C   0  0  0  0  0  0
  -26.9367  -20.7872   22.4796 C   0  0  1  0  0  0
  -28.5869  -25.5334   19.3880 C   0  0  0  0  0  0
  -29.7020  -16.4525   21.4764 C   0  0  0  0  0  0
  -28.6033  -16.6839   22.5384 C   0  0  0  0  0  0
  -30.3192  -15.1377   21.6828 N   0  0  0  0  0  0
  -27.9823  -18.0359   22.5629 N   0  3  1  0  0  0
  -31.4595  -12.4068   19.0804 H   0  0  0  0  0  0
  -30.3304  -11.2720   19.7624 H   0  0  0  0  0  0
  -29.7108  -11.8041   17.3957 H   0  0  0  0  0  0
  -29.6458  -13.5097   17.7674 H   0  0  0  0  0  0
  -27.8216  -11.3131   18.8038 H   0  0  0  0  0  0
  -27.3482  -12.6498   17.7899 H   0  0  0  0  0  0
  -27.7241  -14.2514   19.6042 H   0  0  0  0  0  0
  -28.6676  -11.9013   21.3094 H   0  0  0  0  0  0
  -28.4560  -13.5245   21.8795 H   0  0  0  0  0  0
  -25.2759   -9.5692   22.4756 H   0  0  0  0  0  0
  -24.0005   -7.4630   22.7466 H   0  0  0  0  0  0
  -21.0842   -8.8770   19.8944 H   0  0  0  0  0  0
  -22.3681  -10.9681   19.6162 H   0  0  0  0  0  0
  -21.2004   -7.6145   23.9715 H   0  0  0  0  0  0
  -21.1477   -6.0521   25.9078 H   0  0  0  0  0  0
  -22.0602   -2.7609   23.2845 H   0  0  0  0  0  0
  -22.4109  -11.9887   22.4756 H   0  0  0  0  0  0
  -21.1131  -13.1260   22.2599 H   0  0  0  0  0  0
  -24.6358  -15.8035   20.4004 H   0  0  0  0  0  0
  -26.2273  -15.5580   19.8936 H   0  0  0  0  0  0
  -26.7260  -32.5596   23.1248 H   0  0  0  0  0  0
  -25.0147  -33.9821   25.0555 H   0  0  0  0  0  0
  -22.7309  -31.3264   21.4243 H   0  0  0  0  0  0
  -23.3750  -35.9663   23.3309 H   0  0  0  0  0  0
  -24.3589  -36.8916   22.2044 H   0  0  0  0  0  0
  -23.7221  -37.6533   23.6629 H   0  0  0  0  0  0
  -26.0501  -31.6054   20.5894 H   0  0  0  0  0  0
  -26.8391  -30.9001   21.9730 H   0  0  0  0  0  0
  -28.1065  -29.1210   21.1384 H   0  0  0  0  0  0
  -26.0317  -25.9640   19.0332 H   0  0  0  0  0  0
  -23.9699  -27.2849   19.0686 H   0  0  0  0  0  0
  -23.7187  -30.5978   19.4153 H   0  0  0  0  0  0
  -22.7378  -29.2478   19.8984 H   0  0  0  0  0  0
  -25.1271  -36.2013   25.0833 H   0  0  0  0  0  0
  -20.1666  -28.6784   21.7587 H   0  0  0  0  0  0
  -20.6657  -26.4309   23.4896 H   0  0  0  0  0  0
  -21.6607  -26.7616   22.0873 H   0  0  0  0  0  0
  -19.6594  -25.3849   21.4461 H   0  0  0  0  0  0
  -19.6451  -26.9142   20.6333 H   0  0  0  0  0  0
  -17.4041  -26.6402   21.4166 H   0  0  0  0  0  0
  -17.9203  -26.0036   22.9534 H   0  0  0  0  0  0
  -19.7870  -30.7492   24.1555 H   0  0  0  0  0  0
  -17.4917  -31.6148   24.5467 H   0  0  0  0  0  0
  -15.5181  -30.2795   23.8282 H   0  0  0  0  0  0
  -15.8324  -28.0526   22.7853 H   0  0  0  0  0  0
  -24.5940  -30.7046   25.7797 H   0  0  0  0  0  0
  -24.8899  -32.2853   26.4944 H   0  0  0  0  0  0
  -25.8062  -30.8876   27.0256 H   0  0  0  0  0  0
  -26.2852  -29.6863   24.1155 H   0  0  0  0  0  0
  -27.4061  -29.7282   25.4571 H   0  0  0  0  0  0
  -27.8702  -30.4400   23.9290 H   0  0  0  0  0  0
  -27.2768  -33.3601   26.2170 H   0  0  0  0  0  0
  -28.3919  -32.6831   25.0389 H   0  0  0  0  0  0
  -28.0757  -31.8377   26.5443 H   0  0  0  0  0  0
  -28.2609  -38.0121   24.7522 H   0  0  0  0  0  0
  -28.1070  -36.2651   24.6297 H   0  0  0  0  0  0
  -27.2312  -37.1480   25.8878 H   0  0  0  0  0  0
  -21.0746  -30.1722   21.8073 H   0  0  0  0  0  0
  -26.0192  -38.2905   24.1403 H   0  0  0  0  0  0
  -27.0189  -23.3834   23.2800 H   0  0  0  0  0  0
  -27.9210  -20.9208   19.8411 H   0  0  0  0  0  0
  -27.6735  -25.3910   22.0139 H   0  0  0  0  0  0
  -28.5665  -22.9324   18.5826 H   0  0  0  0  0  0
  -25.4915  -19.2081   22.2637 H   0  0  0  0  0  0
  -25.8158  -19.9968   20.7652 H   0  0  0  0  0  0
  -28.5823  -21.1318   23.8848 H   0  0  0  0  0  0
  -27.4095  -19.9710   24.4178 H   0  0  0  0  0  0
  -27.9744  -18.7379   20.5640 H   0  0  0  0  0  0
  -26.6840  -17.6230   20.9423 H   0  0  0  0  0  0
  -29.4435  -18.7784   23.9130 H   0  0  0  0  0  0
  -29.5409  -19.4534   22.3000 H   0  0  0  0  0  0
  -26.1040  -21.2008   23.0522 H   0  0  0  0  0  0
  -29.6464  -25.4091   19.1651 H   0  0  0  0  0  0
  -28.0947  -25.5443   18.4158 H   0  0  0  0  0  0
  -29.2763  -16.5201   20.4729 H   0  0  0  0  0  0
  -30.4766  -17.2171   21.5425 H   0  0  0  0  0  0
  -29.0064  -16.4807   23.5318 H   0  0  0  0  0  0
  -27.8087  -15.9512   22.3920 H   0  0  0  0  0  0
  -31.0139  -15.1787   22.4164 H   0  0  0  0  0  0
  -27.2632  -17.9288   23.2633 H   0  0  0  0  0  0
  1 25  1  0  0  0
  1 30  2  0  0  0
  1 85  1  0  0  0
  2  3  1  0  0  0
  2 25  1  0  0  0
  2 87  1  0  0  0
  2 88  1  0  0  0
  3  4  1  0  0  0
  3 89  1  0  0  0
  3 90  1  0  0  0
  4  5  1  0  0  0
  4 91  1  0  0  0
  4 92  1  0  0  0
  5  6  1  0  0  0
  5 26  1  0  0  0
  5 93  1  0  0  0
  6 25  1  0  0  0
  6 94  1  0  0  0
  6 95  1  0  0  0
  7  8  2  0  0  0
  7 26  1  0  0  0
  7 29  1  0  0  0
  8  9  1  0  0  0
  8 22  1  0  0  0
  9 10  1  0  0  0
  9 27  2  0  0  0
 10 11  2  0  0  0
 10 15  1  0  0  0
 11 12  1  0  0  0
 11 96  1  0  0  0
 12 13  2  0  0  0
 12 97  1  0  0  0
 13 14  1  0  0  0
 13 31  1  0  0  0
 14 15  2  0  0  0
 14 98  1  0  0  0
 15 99  1  0  0  0
 16 17  2  0  0  0
 16 21  1  0  0  0
 16 31  1  0  0  0
 17 18  1  0  0  0
 17100  1  0  0  0
 18 19  2  0  0  0
 18101  1  0  0  0
 19 20  1  0  0  0
 19 24  1  0  0  0
 20 21  2  0  0  0
 20102  1  0  0  0
 21 23  1  0  0  0
 22 28  1  0  0  0
 22 32  2  0  0  0
 26 27  1  0  0  0
 28103  1  0  0  0
 28104  1  0  0  0
 29105  1  0  0  0
 29106  1  0  0  0
 33 34  1  0  0  0
 33 66  1  0  0  0
 33 70  2  0  0  0
 34 36  1  0  0  0
 34 59  1  0  0  0
 34107  1  0  0  0
 35 44  2  0  0  0
 35 45  1  0  0  0
 35 68  1  0  0  0
 36 56  1  0  0  0
 36108  1  0  0  0
 37 39  1  0  0  0
 37 47  1  0  0  0
 37 66  1  0  0  0
 37109  1  0  0  0
 38 43  2  0  0  0
 38 46  1  0  0  0
 38 47  1  0  0  0
 39 64  1  0  0  0
 39 67  2  0  0  0
 40 52  1  0  0  0
 40 53  2  0  0  0
 40 58  1  0  0  0
 41110  1  0  0  0
 41111  1  0  0  0
 41112  1  0  0  0
 41 48  1  0  0  0
 42 43  1  0  0  0
 42 66  1  0  0  0
 42113  1  0  0  0
 42114  1  0  0  0
 43 44  1  0  0  0
 44115  1  0  0  0
 45 46  2  0  0  0
 45116  1  0  0  0
 46117  1  0  0  0
 47118  1  0  0  0
 47119  1  0  0  0
 48 56  1  0  0  0
 48 65  1  0  0  0
 48120  1  0  0  0
 49 50  1  0  0  0
 49 53  1  0  0  0
 49 64  1  0  0  0
 49121  1  0  0  0
 50 51  1  0  0  0
 50122  1  0  0  0
 50123  1  0  0  0
 51 52  1  0  0  0
 51124  1  0  0  0
 51125  1  0  0  0
 52126  1  0  0  0
 52127  1  0  0  0
 53 54  1  0  0  0
 54 55  2  0  0  0
 54128  1  0  0  0
 55 57  1  0  0  0
 55129  1  0  0  0
 56 69  2  0  0  0
 57 58  2  0  0  0
 57130  1  0  0  0
 58131  1  0  0  0
 59 60  1  0  0  0
 59 61  1  0  0  0
 59 62  1  0  0  0
 60132  1  0  0  0
 60133  1  0  0  0
 60134  1  0  0  0
 61135  1  0  0  0
 61136  1  0  0  0
 61137  1  0  0  0
 62138  1  0  0  0
 62139  1  0  0  0
 62140  1  0  0  0
 63 65  1  0  0  0
 63141  1  0  0  0
 63142  1  0  0  0
 63143  1  0  0  0
 64144  1  0  0  0
 65145  1  0  0  0
 68 82  1  0  0  0
 71 73  2  0  0  0
 71 75  1  0  0  0
 71146  1  0  0  0
 72 74  1  0  0  0
 72 75  2  0  0  0
 72147  1  0  0  0
 73 76  1  0  0  0
 73148  1  0  0  0
 74 76  2  0  0  0
 74149  1  0  0  0
 75 81  1  0  0  0
 76 82  1  0  0  0
 77 79  1  0  0  0
 77 81  1  0  0  0
 77150  1  0  0  0
 77151  1  0  0  0
 78 80  1  0  0  0
 78 81  1  0  0  0
 78152  1  0  0  0
 78153  1  0  0  0
 79 86  1  0  0  0
 79154  1  0  0  0
 79155  1  0  0  0
 80 86  1  0  0  0
 80156  1  0  0  0
 80157  1  0  0  0
 81158  1  0  0  0
 82159  1  0  0  0
 82160  1  0  0  0
 83 84  1  0  0  0
 83 85  1  0  0  0
 83161  1  0  0  0
 83162  1  0  0  0
 84163  1  0  0  0
 84164  1  0  0  0
 84 86  1  0  0  0
 85165  1  0  0  0
 86166  1  0  0  0
M  CHG  1  86   1
M  ISO  4   1 100  68 101  82 101  85 100
M  END
> <chiral flag>
0

> <version>
0

> <s_m_source_file>
/data/baiqing/PycharmProjects/Reinvent-master-3.2/result/LINK_invent/BTK/process_docking_weight1_custom_sum_contain_oxygen_bond_distance_aromatic_linkinvent_7_9_3/rearranged_h_0128.sdf

> <i_m_source_file_index>
65

> <r_mmod_Potential_Energy-OPLS-2005>
39.5245094299316

> <r_mmod_Stretch_Energy-OPLS-2005>
31.9581489562988

> <r_mmod_Bend_Energy-OPLS-2005>
219.662979125977

> <r_mmod_Torsional_Energy-OPLS-2005>
323.302215576172

> <r_mmod_Improper_Torsional_Energy-OPLS-2005>
9.60589122772217

> <r_mmod_Van_der_Waal_Energy-OPLS-2005>
154.806076049805

> <r_mmod_Electrostatic_Energy-OPLS-2005>
-268.291412353516

> <r_mmod_Solvation_Energy-OPLS-2005>
-459.526977539062

> <b_mmod_Minimization_Converged-OPLS-2005>
0

> <r_mmod_RMS_Derivative-OPLS-2005>
2.10161590576172

$$$$
65
                    3D
 Structure written by MMmdl.
163172  0  0  1  0            999 V2000
  -30.4496  -15.2787   20.3909 C   0  0  0  0  0  0
  -30.4397  -12.8224   19.5406 C   0  0  0  0  0  0
  -29.5453  -12.5992   18.2954 C   0  0  0  0  0  0
  -28.0949  -12.3074   18.7165 C   0  0  0  0  0  0
  -27.6131  -13.2798   19.8226 C   0  0  2  0  0  0
  -28.6397  -13.4665   20.9627 C   0  0  0  0  0  0
  -25.2366  -13.8249   20.5721 C   0  0  0  0  0  0
  -24.1735  -13.0442   20.9265 C   0  0  0  0  0  0
  -24.6389  -11.6937   20.8741 C   0  0  0  0  0  0
  -23.9093  -10.4295   21.0385 C   0  0  0  0  0  0
  -24.3644   -9.4204   21.9157 C   0  0  0  0  0  0
  -23.6307   -8.2245   22.0737 C   0  0  0  0  0  0
  -22.4286   -8.0279   21.3538 C   0  0  0  0  0  0
  -21.9938   -9.0246   20.4636 C   0  0  0  0  0  0
  -22.7266  -10.2116   20.3035 C   0  0  0  0  0  0
  -21.6846   -6.0735   22.5290 C   0  0  0  0  0  0
  -21.4001   -6.5638   23.8221 C   0  0  0  0  0  0
  -21.3668   -5.6793   24.9186 C   0  0  0  0  0  0
  -21.6053   -4.3056   24.7239 C   0  0  0  0  0  0
  -21.8813   -3.8146   23.4359 C   0  0  0  0  0  0
  -21.9189   -4.6962   22.3416 C   0  0  0  0  0  0
  -22.7745  -13.5183   21.1916 C   0  0  0  0  0  0
  -22.1655   -4.2138   21.0994 F   0  0  0  0  0  0
  -21.5640   -3.4551   25.7757 F   0  0  0  0  0  0
  -29.8798  -13.9707   20.3486 N   0  0  0  0  0  0
  -26.2804  -12.9543   20.3165 N   0  0  0  0  0  0
  -25.9328  -11.6648   20.5674 N   0  0  0  0  0  0
  -22.0410  -12.8161   22.0469 N   0  0  0  0  0  0
  -25.4048  -15.1993   20.4163 N   0  0  0  0  0  0
  -31.6641  -15.2714   20.1445 O   0  0  0  0  0  0
  -21.6643   -6.8876   21.4249 O   0  0  0  0  0  0
  -22.3425  -14.5486   20.6749 O   0  0  0  0  0  0
  -24.6650  -31.8235   23.1803 C   0  0  0  0  0  0
  -25.9334  -32.4580   23.8231 C   0  0  1  0  0  0
  -27.1804  -26.8602   20.1686 C   0  0  0  0  0  0
  -25.5997  -33.8408   24.2091 N   0  0  0  0  0  0
  -23.4797  -30.4419   21.5336 C   0  0  2  0  0  0
  -24.9326  -28.8454   20.1209 C   0  0  0  0  0  0
  -22.7676  -29.4428   22.4823 C   0  0  0  0  0  0
  -18.0321  -28.1399   22.8471 C   0  0  0  0  0  0
  -24.1499  -36.7209   23.2646 C   0  0  0  0  0  0
  -26.0583  -30.5912   21.4480 C   0  0  0  0  0  0
  -26.1128  -29.1796   20.7952 C   0  0  0  0  0  0
  -27.2185  -28.1982   20.8291 C   0  0  0  0  0  0
  -26.0503  -26.8294   19.3163 C   0  0  0  0  0  0
  -24.9315  -27.6838   19.3556 C   0  0  0  0  0  0
  -23.7239  -29.7767   20.1568 C   0  0  0  0  0  0
  -25.4147  -36.2972   24.0291 C   0  0  1  0  0  0
  -20.5941  -28.3740   23.1190 C   0  0  2  0  0  0
  -20.6806  -26.9425   22.5392 C   0  0  0  0  0  0
  -19.5778  -26.6374   21.5206 C   0  0  0  0  0  0
  -18.1961  -26.7930   22.1621 C   0  0  0  0  0  0
  -19.1581  -28.8898   23.2811 C   0  0  0  0  0  0
  -18.9491  -30.1487   23.8846 C   0  0  0  0  0  0
  -17.6484  -30.6597   24.0547 C   0  0  0  0  0  0
  -25.9111  -34.9348   23.5008 C   0  0  0  0  0  0
  -16.5372  -29.9076   23.6350 C   0  0  0  0  0  0
  -16.7300  -28.6492   23.0374 C   0  0  0  0  0  0
  -26.4566  -31.6548   25.0778 C   0  0  0  0  0  0
  -25.3662  -31.3801   26.1401 C   0  0  0  0  0  0
  -27.0477  -30.2894   24.6620 C   0  0  0  0  0  0
  -27.6060  -32.4379   25.7552 C   0  0  0  0  0  0
  -27.5576  -37.1764   24.8466 C   0  0  0  0  0  0
  -21.4348  -29.3021   22.3558 N   0  0  0  0  0  0
  -26.4295  -37.3704   23.9397 N   0  0  0  0  0  0
  -24.7557  -30.9818   22.1035 N   0  0  0  0  0  0
  -23.4209  -28.7997   23.3073 O   0  0  0  0  0  0
  -28.0911  -25.6385   20.2512 O   0  0  0  0  0  0
  -26.5718  -34.8873   22.4601 O   0  0  0  0  0  0
  -23.5710  -32.1271   23.6830 O   0  0  0  0  0  0
  -26.9425  -20.3391   21.6838 C   0  0  0  0  0  0
  -27.9290  -19.3708   21.4407 C   0  0  0  0  0  0
  -29.1332  -21.1709   20.2946 C   0  0  0  0  0  0
  -26.9837  -21.6615   21.1731 C   0  0  0  0  0  0
  -28.1257  -22.3197   20.6011 C   0  0  0  0  0  0
  -29.0487  -19.6453   20.6484 C   0  0  0  0  0  0
  -25.6104  -22.2126   20.8382 C   0  0  0  0  0  0
  -25.6455  -22.5228   19.3356 C   0  0  0  0  0  0
  -27.6764  -23.9941   20.0978 C   0  0  2  0  0  0
  -26.5222  -23.7625   19.0740 C   0  0  1  0  0  0
  -28.0827  -22.9457   17.1797 C   0  0  0  0  0  0
  -25.7943  -23.8826   16.6210 C   0  0  0  0  0  0
  -29.9927  -18.2065   20.3219 C   0  0  0  0  0  0
  -26.9793  -23.9319   17.5980 C   0  0  0  0  0  0
  -29.7027  -16.5613   20.5092 N   0  0  0  0  0  0
  -30.4998  -11.9131   20.1405 H   0  0  0  0  0  0
  -31.4613  -13.0209   19.2133 H   0  0  0  0  0  0
  -29.9351  -11.7844   17.6842 H   0  0  0  0  0  0
  -29.5729  -13.4914   17.6693 H   0  0  0  0  0  0
  -28.0628  -11.2828   19.0920 H   0  0  0  0  0  0
  -27.4296  -12.3395   17.8534 H   0  0  0  0  0  0
  -27.5263  -14.2451   19.3224 H   0  0  0  0  0  0
  -28.8011  -12.5406   21.5154 H   0  0  0  0  0  0
  -28.2661  -14.1964   21.6835 H   0  0  0  0  0  0
  -25.2771   -9.5690   22.4747 H   0  0  0  0  0  0
  -24.0015   -7.4644   22.7460 H   0  0  0  0  0  0
  -21.0866   -8.8767   19.8944 H   0  0  0  0  0  0
  -22.3709  -10.9660   19.6161 H   0  0  0  0  0  0
  -21.1975   -7.6142   23.9720 H   0  0  0  0  0  0
  -21.1501   -6.0526   25.9088 H   0  0  0  0  0  0
  -22.0579   -2.7609   23.2873 H   0  0  0  0  0  0
  -22.4042  -11.9843   22.4889 H   0  0  0  0  0  0
  -21.1000  -13.1131   22.2620 H   0  0  0  0  0  0
  -24.6359  -15.8523   20.5190 H   0  0  0  0  0  0
  -26.2475  -15.6331   20.0655 H   0  0  0  0  0  0
  -26.7385  -32.5081   23.0915 H   0  0  0  0  0  0
  -25.0067  -33.9505   25.0188 H   0  0  0  0  0  0
  -22.7943  -31.2763   21.3712 H   0  0  0  0  0  0
  -23.3772  -35.9525   23.3277 H   0  0  0  0  0  0
  -24.3567  -36.8890   22.2064 H   0  0  0  0  0  0
  -23.7241  -37.6385   23.6721 H   0  0  0  0  0  0
  -26.2648  -31.3251   20.6689 H   0  0  0  0  0  0
  -26.9105  -30.6377   22.1117 H   0  0  0  0  0  0
  -28.0839  -28.4356   21.4312 H   0  0  0  0  0  0
  -25.9840  -26.1390   18.5060 H   0  0  0  0  0  0
  -24.0916  -27.4703   18.7080 H   0  0  0  0  0  0
  -23.8847  -30.5533   19.4084 H   0  0  0  0  0  0
  -22.8332  -29.2373   19.8303 H   0  0  0  0  0  0
  -25.1341  -36.1774   25.0783 H   0  0  0  0  0  0
  -20.9998  -28.3324   24.1322 H   0  0  0  0  0  0
  -20.5709  -26.2342   23.3621 H   0  0  0  0  0  0
  -21.6672  -26.7431   22.1180 H   0  0  0  0  0  0
  -19.6943  -25.6275   21.1271 H   0  0  0  0  0  0
  -19.6716  -27.3159   20.6717 H   0  0  0  0  0  0
  -17.4221  -26.6654   21.4032 H   0  0  0  0  0  0
  -18.0372  -26.0086   22.9039 H   0  0  0  0  0  0
  -19.7967  -30.7316   24.2189 H   0  0  0  0  0  0
  -17.5036  -31.6276   24.5146 H   0  0  0  0  0  0
  -15.5369  -30.2957   23.7716 H   0  0  0  0  0  0
  -15.8697  -28.0792   22.7126 H   0  0  0  0  0  0
  -24.5881  -30.7118   25.7678 H   0  0  0  0  0  0
  -24.8811  -32.2997   26.4697 H   0  0  0  0  0  0
  -25.7876  -30.9042   27.0267 H   0  0  0  0  0  0
  -26.3170  -29.6540   24.1605 H   0  0  0  0  0  0
  -27.3893  -29.7309   25.5345 H   0  0  0  0  0  0
  -27.9181  -30.4022   24.0153 H   0  0  0  0  0  0
  -27.2637  -33.3741   26.1979 H   0  0  0  0  0  0
  -28.3934  -32.6844   25.0411 H   0  0  0  0  0  0
  -28.0656  -31.8606   26.5584 H   0  0  0  0  0  0
  -28.2576  -38.0077   24.7515 H   0  0  0  0  0  0
  -28.1092  -36.2601   24.6302 H   0  0  0  0  0  0
  -27.2282  -37.1410   25.8867 H   0  0  0  0  0  0
  -20.9612  -29.8699   21.6677 H   0  0  0  0  0  0
  -26.0143  -38.2766   24.1393 H   0  0  0  0  0  0
  -26.0290  -19.9858   22.1445 H   0  0  0  0  0  0
  -27.7635  -18.3603   21.7890 H   0  0  0  0  0  0
  -29.9840  -21.4538   19.6899 H   0  0  0  0  0  0
  -24.8323  -21.4695   21.0135 H   0  0  0  0  0  0
  -25.3382  -23.0728   21.4523 H   0  0  0  0  0  0
  -26.0015  -21.6523   18.7833 H   0  0  0  0  0  0
  -24.6310  -22.7053   18.9773 H   0  0  0  0  0  0
  -27.1495  -24.1625   21.0346 H   0  0  0  0  0  0
  -25.7431  -24.4521   19.3411 H   0  0  0  0  0  0
  -27.7735  -21.9079   17.2894 H   0  0  0  0  0  0
  -28.9893  -23.0869   17.7687 H   0  0  0  0  0  0
  -28.3630  -23.0915   16.1359 H   0  0  0  0  0  0
  -25.0063  -24.5728   16.9234 H   0  0  0  0  0  0
  -25.3577  -22.8844   16.5702 H   0  0  0  0  0  0
  -26.1027  -24.1616   15.6122 H   0  0  0  0  0  0
  -30.9188  -18.3689   20.8743 H   0  0  0  0  0  0
  -30.2873  -18.3140   19.2781 H   0  0  0  0  0  0
  -27.4290  -24.9221   17.5037 H   0  0  0  0  0  0
  -28.7269  -16.3822   20.6945 H   0  0  0  0  0  0
  1 25  1  0  0  0
  1 30  2  0  0  0
  1 85  1  0  0  0
  2  3  1  0  0  0
  2 25  1  0  0  0
  2 86  1  0  0  0
  2 87  1  0  0  0
  3  4  1  0  0  0
  3 88  1  0  0  0
  3 89  1  0  0  0
  4  5  1  0  0  0
  4 90  1  0  0  0
  4 91  1  0  0  0
  5  6  1  0  0  0
  5 26  1  0  0  0
  5 92  1  0  0  0
  6 25  1  0  0  0
  6 93  1  0  0  0
  6 94  1  0  0  0
  7  8  2  0  0  0
  7 26  1  0  0  0
  7 29  1  0  0  0
  8  9  1  0  0  0
  8 22  1  0  0  0
  9 10  1  0  0  0
  9 27  2  0  0  0
 10 11  2  0  0  0
 10 15  1  0  0  0
 11 12  1  0  0  0
 11 95  1  0  0  0
 12 13  2  0  0  0
 12 96  1  0  0  0
 13 14  1  0  0  0
 13 31  1  0  0  0
 14 15  2  0  0  0
 14 97  1  0  0  0
 15 98  1  0  0  0
 16 17  2  0  0  0
 16 21  1  0  0  0
 16 31  1  0  0  0
 17 18  1  0  0  0
 17 99  1  0  0  0
 18 19  2  0  0  0
 18100  1  0  0  0
 19 20  1  0  0  0
 19 24  1  0  0  0
 20 21  2  0  0  0
 20101  1  0  0  0
 21 23  1  0  0  0
 22 28  1  0  0  0
 22 32  2  0  0  0
 26 27  1  0  0  0
 28102  1  0  0  0
 28103  1  0  0  0
 29104  1  0  0  0
 29105  1  0  0  0
 33 34  1  0  0  0
 33 66  1  0  0  0
 33 70  2  0  0  0
 34 36  1  0  0  0
 34 59  1  0  0  0
 34106  1  0  0  0
 35 44  2  0  0  0
 35 45  1  0  0  0
 35 68  1  0  0  0
 36 56  1  0  0  0
 36107  1  0  0  0
 37 39  1  0  0  0
 37 47  1  0  0  0
 37 66  1  0  0  0
 37108  1  0  0  0
 38 43  2  0  0  0
 38 46  1  0  0  0
 38 47  1  0  0  0
 39 64  1  0  0  0
 39 67  2  0  0  0
 40 52  1  0  0  0
 40 53  2  0  0  0
 40 58  1  0  0  0
 41109  1  0  0  0
 41110  1  0  0  0
 41111  1  0  0  0
 41 48  1  0  0  0
 42 43  1  0  0  0
 42 66  1  0  0  0
 42112  1  0  0  0
 42113  1  0  0  0
 43 44  1  0  0  0
 44114  1  0  0  0
 45 46  2  0  0  0
 45115  1  0  0  0
 46116  1  0  0  0
 47117  1  0  0  0
 47118  1  0  0  0
 48 56  1  0  0  0
 48 65  1  0  0  0
 48119  1  0  0  0
 49 50  1  0  0  0
 49 53  1  0  0  0
 49 64  1  0  0  0
 49120  1  0  0  0
 50 51  1  0  0  0
 50121  1  0  0  0
 50122  1  0  0  0
 51 52  1  0  0  0
 51123  1  0  0  0
 51124  1  0  0  0
 52125  1  0  0  0
 52126  1  0  0  0
 53 54  1  0  0  0
 54 55  2  0  0  0
 54127  1  0  0  0
 55 57  1  0  0  0
 55128  1  0  0  0
 56 69  2  0  0  0
 57 58  2  0  0  0
 57129  1  0  0  0
 58130  1  0  0  0
 59 60  1  0  0  0
 59 61  1  0  0  0
 59 62  1  0  0  0
 60131  1  0  0  0
 60132  1  0  0  0
 60133  1  0  0  0
 61134  1  0  0  0
 61135  1  0  0  0
 61136  1  0  0  0
 62137  1  0  0  0
 62138  1  0  0  0
 62139  1  0  0  0
 63 65  1  0  0  0
 63140  1  0  0  0
 63141  1  0  0  0
 63142  1  0  0  0
 64143  1  0  0  0
 65144  1  0  0  0
 68 79  1  0  0  0
 71 72  2  0  0  0
 71 74  1  0  0  0
 71145  1  0  0  0
 72 76  1  0  0  0
 72146  1  0  0  0
 73 75  1  0  0  0
 73 76  2  0  0  0
 73147  1  0  0  0
 74 75  2  0  0  0
 74 77  1  0  0  0
 75 79  1  0  0  0
 76 83  1  0  0  0
 77 78  1  0  0  0
 77148  1  0  0  0
 77149  1  0  0  0
 78150  1  0  0  0
 78151  1  0  0  0
 78 80  1  0  0  0
 79 80  1  0  0  0
 79152  1  0  0  0
 80 84  1  0  0  0
 80153  1  0  0  0
 81154  1  0  0  0
 81155  1  0  0  0
 81156  1  0  0  0
 81 84  1  0  0  0
 82 84  1  0  0  0
 82157  1  0  0  0
 82158  1  0  0  0
 82159  1  0  0  0
 83 85  1  0  0  0
 83160  1  0  0  0
 83161  1  0  0  0
 84162  1  0  0  0
 85163  1  0  0  0
M  ISO  4   1 100  68 101  79 101  85 100
M  END
> <chiral flag>
0

> <version>
0

> <s_m_source_file>
/data/baiqing/PycharmProjects/Reinvent-master-3.2/result/LINK_invent/BTK/process_docking_weight1_custom_sum_contain_oxygen_bond_distance_aromatic_linkinvent_7_9_3/rearranged_h_0128.sdf

> <i_m_source_file_index>
66

> <r_mmod_Potential_Energy-OPLS-2005>
1705.69714355469

> <r_mmod_Stretch_Energy-OPLS-2005>
680.101867675781

> <r_mmod_Bend_Energy-OPLS-2005>
592.20556640625

> <r_mmod_Torsional_Energy-OPLS-2005>
302.924041748047

> <r_mmod_Improper_Torsional_Energy-OPLS-2005>
13.8005886077881

> <r_mmod_Van_der_Waal_Energy-OPLS-2005>
165.979187011719

> <r_mmod_Electrostatic_Energy-OPLS-2005>
-372.033325195312

> <r_mmod_Solvation_Energy-OPLS-2005>
-207.505615234375

> <b_mmod_Minimization_Converged-OPLS-2005>
0

> <r_mmod_RMS_Derivative-OPLS-2005>
2.88022708892822

$$$$
66
                    3D
 Structure written by MMmdl.
164173  0  0  1  0            999 V2000
  -30.6924  -14.4916   20.6069 C   0  0  0  0  0  0
  -30.4290  -12.3252   19.4299 C   0  0  0  0  0  0
  -29.4981  -12.5277   18.2159 C   0  0  0  0  0  0
  -28.0211  -12.3775   18.6243 C   0  0  0  0  0  0
  -27.6658  -13.2113   19.8830 C   0  0  2  0  0  0
  -28.7048  -12.9841   21.0048 C   0  0  0  0  0  0
  -25.2593  -13.8172   20.5698 C   0  0  0  0  0  0
  -24.1833  -13.0450   20.9180 C   0  0  0  0  0  0
  -24.6393  -11.6916   20.8736 C   0  0  0  0  0  0
  -23.9053  -10.4303   21.0406 C   0  0  0  0  0  0
  -24.3610   -9.4222   21.9187 C   0  0  0  0  0  0
  -23.6296   -8.2251   22.0751 C   0  0  0  0  0  0
  -22.4275   -8.0282   21.3544 C   0  0  0  0  0  0
  -21.9904   -9.0255   20.4646 C   0  0  0  0  0  0
  -22.7228  -10.2140   20.3058 C   0  0  0  0  0  0
  -21.6852   -6.0742   22.5290 C   0  0  0  0  0  0
  -21.4012   -6.5645   23.8223 C   0  0  0  0  0  0
  -21.3656   -5.6793   24.9184 C   0  0  0  0  0  0
  -21.6041   -4.3055   24.7226 C   0  0  0  0  0  0
  -21.8812   -3.8148   23.4346 C   0  0  0  0  0  0
  -21.9188   -4.6969   22.3408 C   0  0  0  0  0  0
  -22.7851  -13.5246   21.1838 C   0  0  0  0  0  0
  -22.1658   -4.2158   21.0983 F   0  0  0  0  0  0
  -21.5632   -3.4537   25.7738 F   0  0  0  0  0  0
  -30.0465  -13.2965   20.4718 N   0  0  0  0  0  0
  -26.3041  -12.9357   20.3399 N   0  0  0  0  0  0
  -25.9324  -11.6505   20.5763 N   0  0  0  0  0  0
  -22.0467  -12.8263   22.0403 N   0  0  0  0  0  0
  -25.4323  -15.1891   20.4119 N   0  0  0  0  0  0
  -31.7459  -14.7538   20.0171 O   0  0  0  0  0  0
  -21.6633   -6.8887   21.4251 O   0  0  0  0  0  0
  -22.3547  -14.5557   20.6687 O   0  0  0  0  0  0
  -24.6167  -31.8660   23.2078 C   0  0  0  0  0  0
  -25.9056  -32.4812   23.8384 C   0  0  1  0  0  0
  -27.2392  -27.3968   20.0991 C   0  0  0  0  0  0
  -25.5895  -33.8613   24.2315 N   0  0  0  0  0  0
  -23.4067  -30.4901   21.5480 C   0  0  2  0  0  0
  -24.8538  -28.9509   20.1134 C   0  0  0  0  0  0
  -22.7423  -29.4658   22.4965 C   0  0  0  0  0  0
  -18.0282  -28.1365   22.8505 C   0  0  0  0  0  0
  -24.1486  -36.7319   23.2639 C   0  0  0  0  0  0
  -25.9404  -30.8168   21.3701 C   0  0  0  0  0  0
  -26.0148  -29.4492   20.7166 C   0  0  0  0  0  0
  -27.2030  -28.6781   20.7103 C   0  0  0  0  0  0
  -26.0577  -26.9360   19.4678 C   0  0  0  0  0  0
  -24.8723  -27.6953   19.4873 C   0  0  0  0  0  0
  -23.6172  -29.8215   20.1631 C   0  0  0  0  0  0
  -25.4109  -36.3115   24.0339 C   0  0  1  0  0  0
  -20.5878  -28.3665   23.1306 C   0  0  2  0  0  0
  -20.6770  -26.9397   22.5405 C   0  0  0  0  0  0
  -19.5740  -26.6373   21.5208 C   0  0  0  0  0  0
  -18.1928  -26.7919   22.1630 C   0  0  0  0  0  0
  -19.1535  -28.8833   23.2906 C   0  0  0  0  0  0
  -18.9460  -30.1448   23.8906 C   0  0  0  0  0  0
  -17.6461  -30.6578   24.0575 C   0  0  0  0  0  0
  -25.9032  -34.9474   23.5127 C   0  0  0  0  0  0
  -16.5352  -29.9077   23.6327 C   0  0  0  0  0  0
  -16.7275  -28.6489   23.0357 C   0  0  0  0  0  0
  -26.4464  -31.6594   25.0722 C   0  0  0  0  0  0
  -25.3723  -31.3712   26.1467 C   0  0  0  0  0  0
  -27.0297  -30.3028   24.6124 C   0  0  0  0  0  0
  -27.6036  -32.4320   25.7482 C   0  0  0  0  0  0
  -27.5585  -37.1824   24.8473 C   0  0  0  0  0  0
  -21.4146  -29.3035   22.3714 N   0  0  0  0  0  0
  -26.4302  -37.3792   23.9405 N   0  0  0  0  0  0
  -24.6728  -31.0741   22.0988 N   0  0  0  0  0  0
  -23.4184  -28.8207   23.3020 O   0  0  0  0  0  0
  -28.4201  -26.6614   20.1545 O   0  0  0  0  0  0
  -26.5606  -34.8928   22.4697 O   0  0  0  0  0  0
  -23.5353  -32.1435   23.7450 O   0  0  0  0  0  0
  -29.4178  -18.8660   22.5645 C   0  0  0  0  0  0
  -29.1728  -18.7943   20.1559 C   0  0  0  0  0  0
  -29.8680  -17.5268   22.5622 C   0  0  0  0  0  0
  -29.6557  -17.4552   20.1495 C   0  0  0  0  0  0
  -28.9895  -19.5011   21.3737 C   0  0  0  0  0  0
  -29.9482  -16.7835   21.3651 C   0  0  0  0  0  0
  -29.3232  -24.4065   20.7213 C   0  0  0  0  0  0
  -29.2630  -23.0939   21.1210 C   0  0  0  0  0  0
  -25.8524  -21.5613   21.1007 C   0  0  0  0  0  0
  -26.6326  -20.2795   21.2601 C   0  0  0  0  0  0
  -26.8703  -22.5436   20.5209 C   0  0  0  0  0  0
  -28.0701  -20.7482   21.5129 C   0  0  2  0  0  0
  -30.2943  -22.5312   22.0928 C   0  0  0  0  0  0
  -28.4810  -25.2660   19.7562 C   0  0  0  0  0  0
  -30.1277  -15.3619   21.4685 N   0  0  0  0  0  0
  -28.2538  -22.0108   20.6948 N   0  3  2  0  0  0
  -31.4734  -12.4311   19.1309 H   0  0  0  0  0  0
  -30.3366  -11.3089   19.8158 H   0  0  0  0  0  0
  -29.7412  -11.8129   17.4286 H   0  0  0  0  0  0
  -29.6600  -13.5188   17.7904 H   0  0  0  0  0  0
  -27.8370  -11.3208   18.8159 H   0  0  0  0  0  0
  -27.3696  -12.6497   17.7933 H   0  0  0  0  0  0
  -27.7121  -14.2622   19.5939 H   0  0  0  0  0  0
  -28.6784  -11.9452   21.3375 H   0  0  0  0  0  0
  -28.4428  -13.5738   21.8831 H   0  0  0  0  0  0
  -25.2744   -9.5707   22.4773 H   0  0  0  0  0  0
  -24.0008   -7.4637   22.7471 H   0  0  0  0  0  0
  -21.0829   -8.8762   19.8956 H   0  0  0  0  0  0
  -22.3668  -10.9679   19.6168 H   0  0  0  0  0  0
  -21.1999   -7.6154   23.9732 H   0  0  0  0  0  0
  -21.1493   -6.0524   25.9093 H   0  0  0  0  0  0
  -22.0593   -2.7614   23.2838 H   0  0  0  0  0  0
  -22.4046  -11.9917   22.4824 H   0  0  0  0  0  0
  -21.1088  -13.1326   22.2581 H   0  0  0  0  0  0
  -24.6692  -15.8483   20.5168 H   0  0  0  0  0  0
  -26.2963  -15.6267   20.1160 H   0  0  0  0  0  0
  -26.7139  -32.5506   23.1153 H   0  0  0  0  0  0
  -25.0047  -33.9763   25.0466 H   0  0  0  0  0  0
  -22.6983  -31.3095   21.4074 H   0  0  0  0  0  0
  -23.3727  -35.9669   23.3320 H   0  0  0  0  0  0
  -24.3585  -36.8906   22.2047 H   0  0  0  0  0  0
  -23.7255  -37.6538   23.6639 H   0  0  0  0  0  0
  -26.0653  -31.5800   20.6015 H   0  0  0  0  0  0
  -26.8247  -30.8657   21.9941 H   0  0  0  0  0  0
  -28.0939  -29.0585   21.1904 H   0  0  0  0  0  0
  -26.0116  -25.9982   18.9390 H   0  0  0  0  0  0
  -23.9842  -27.3121   19.0041 H   0  0  0  0  0  0
  -23.7306  -30.5948   19.4029 H   0  0  0  0  0  0
  -22.7406  -29.2425   19.8647 H   0  0  0  0  0  0
  -25.1289  -36.1979   25.0832 H   0  0  0  0  0  0
  -20.9995  -28.3221   24.1419 H   0  0  0  0  0  0
  -20.5660  -26.2276   23.3595 H   0  0  0  0  0  0
  -21.6646  -26.7427   22.1210 H   0  0  0  0  0  0
  -19.6893  -25.6283   21.1230 H   0  0  0  0  0  0
  -19.6668  -27.3195   20.6747 H   0  0  0  0  0  0
  -17.4199  -26.6688   21.4023 H   0  0  0  0  0  0
  -18.0331  -26.0037   22.9005 H   0  0  0  0  0  0
  -19.7936  -30.7280   24.2251 H   0  0  0  0  0  0
  -17.5010  -31.6254   24.5185 H   0  0  0  0  0  0
  -15.5355  -30.2984   23.7635 H   0  0  0  0  0  0
  -15.8677  -28.0814   22.7057 H   0  0  0  0  0  0
  -24.5898  -30.7054   25.7810 H   0  0  0  0  0  0
  -24.8912  -32.2868   26.4913 H   0  0  0  0  0  0
  -25.8068  -30.8885   27.0229 H   0  0  0  0  0  0
  -26.2848  -29.6780   24.1175 H   0  0  0  0  0  0
  -27.4052  -29.7273   25.4596 H   0  0  0  0  0  0
  -27.8695  -30.4329   23.9294 H   0  0  0  0  0  0
  -27.2653  -33.3616   26.2071 H   0  0  0  0  0  0
  -28.3830  -32.6881   25.0294 H   0  0  0  0  0  0
  -28.0716  -31.8435   26.5382 H   0  0  0  0  0  0
  -28.2632  -38.0093   24.7499 H   0  0  0  0  0  0
  -28.1054  -36.2631   24.6327 H   0  0  0  0  0  0
  -27.2314  -37.1518   25.8880 H   0  0  0  0  0  0
  -20.9301  -29.8773   21.6958 H   0  0  0  0  0  0
  -26.0186  -38.2877   24.1356 H   0  0  0  0  0  0
  -29.2860  -19.3591   23.5187 H   0  0  0  0  0  0
  -28.8404  -19.2254   19.2216 H   0  0  0  0  0  0
  -30.0796  -17.0487   23.5084 H   0  0  0  0  0  0
  -29.6973  -16.9192   19.2105 H   0  0  0  0  0  0
  -30.1358  -24.9842   21.1397 H   0  0  0  0  0  0
  -25.5163  -21.9096   22.0779 H   0  0  0  0  0  0
  -24.9721  -21.4430   20.4671 H   0  0  0  0  0  0
  -26.5679  -19.7066   20.3344 H   0  0  0  0  0  0
  -26.2529  -19.6471   22.0638 H   0  0  0  0  0  0
  -26.7339  -23.4789   21.0646 H   0  0  0  0  0  0
  -26.6769  -22.7272   19.4639 H   0  0  0  0  0  0
  -28.0915  -21.0632   22.5566 H   0  0  0  0  0  0
  -30.7253  -21.5964   21.7351 H   0  0  0  0  0  0
  -29.8649  -22.3789   23.0833 H   0  0  0  0  0  0
  -31.1260  -23.2256   22.2153 H   0  0  0  0  0  0
  -27.5136  -24.8181   19.6077 H   0  0  0  0  0  0
  -28.9710  -25.2380   18.7831 H   0  0  0  0  0  0
  -29.5231  -14.9139   22.1418 H   0  0  0  0  0  0
  -28.5246  -21.6868   19.7781 H   0  0  0  0  0  0
  1 25  1  0  0  0
  1 30  2  0  0  0
  1 85  1  0  0  0
  2  3  1  0  0  0
  2 25  1  0  0  0
  2 87  1  0  0  0
  2 88  1  0  0  0
  3  4  1  0  0  0
  3 89  1  0  0  0
  3 90  1  0  0  0
  4  5  1  0  0  0
  4 91  1  0  0  0
  4 92  1  0  0  0
  5  6  1  0  0  0
  5 26  1  0  0  0
  5 93  1  0  0  0
  6 25  1  0  0  0
  6 94  1  0  0  0
  6 95  1  0  0  0
  7  8  2  0  0  0
  7 26  1  0  0  0
  7 29  1  0  0  0
  8  9  1  0  0  0
  8 22  1  0  0  0
  9 10  1  0  0  0
  9 27  2  0  0  0
 10 11  2  0  0  0
 10 15  1  0  0  0
 11 12  1  0  0  0
 11 96  1  0  0  0
 12 13  2  0  0  0
 12 97  1  0  0  0
 13 14  1  0  0  0
 13 31  1  0  0  0
 14 15  2  0  0  0
 14 98  1  0  0  0
 15 99  1  0  0  0
 16 17  2  0  0  0
 16 21  1  0  0  0
 16 31  1  0  0  0
 17 18  1  0  0  0
 17100  1  0  0  0
 18 19  2  0  0  0
 18101  1  0  0  0
 19 20  1  0  0  0
 19 24  1  0  0  0
 20 21  2  0  0  0
 20102  1  0  0  0
 21 23  1  0  0  0
 22 28  1  0  0  0
 22 32  2  0  0  0
 26 27  1  0  0  0
 28103  1  0  0  0
 28104  1  0  0  0
 29105  1  0  0  0
 29106  1  0  0  0
 33 34  1  0  0  0
 33 66  1  0  0  0
 33 70  2  0  0  0
 34 36  1  0  0  0
 34 59  1  0  0  0
 34107  1  0  0  0
 35 44  2  0  0  0
 35 45  1  0  0  0
 35 68  1  0  0  0
 36 56  1  0  0  0
 36108  1  0  0  0
 37 39  1  0  0  0
 37 47  1  0  0  0
 37 66  1  0  0  0
 37109  1  0  0  0
 38 43  2  0  0  0
 38 46  1  0  0  0
 38 47  1  0  0  0
 39 64  1  0  0  0
 39 67  2  0  0  0
 40 52  1  0  0  0
 40 53  2  0  0  0
 40 58  1  0  0  0
 41110  1  0  0  0
 41111  1  0  0  0
 41112  1  0  0  0
 41 48  1  0  0  0
 42 43  1  0  0  0
 42 66  1  0  0  0
 42113  1  0  0  0
 42114  1  0  0  0
 43 44  1  0  0  0
 44115  1  0  0  0
 45 46  2  0  0  0
 45116  1  0  0  0
 46117  1  0  0  0
 47118  1  0  0  0
 47119  1  0  0  0
 48 56  1  0  0  0
 48 65  1  0  0  0
 48120  1  0  0  0
 49 50  1  0  0  0
 49 53  1  0  0  0
 49 64  1  0  0  0
 49121  1  0  0  0
 50 51  1  0  0  0
 50122  1  0  0  0
 50123  1  0  0  0
 51 52  1  0  0  0
 51124  1  0  0  0
 51125  1  0  0  0
 52126  1  0  0  0
 52127  1  0  0  0
 53 54  1  0  0  0
 54 55  2  0  0  0
 54128  1  0  0  0
 55 57  1  0  0  0
 55129  1  0  0  0
 56 69  2  0  0  0
 57 58  2  0  0  0
 57130  1  0  0  0
 58131  1  0  0  0
 59 60  1  0  0  0
 59 61  1  0  0  0
 59 62  1  0  0  0
 60132  1  0  0  0
 60133  1  0  0  0
 60134  1  0  0  0
 61135  1  0  0  0
 61136  1  0  0  0
 61137  1  0  0  0
 62138  1  0  0  0
 62139  1  0  0  0
 62140  1  0  0  0
 63 65  1  0  0  0
 63141  1  0  0  0
 63142  1  0  0  0
 63143  1  0  0  0
 64144  1  0  0  0
 65145  1  0  0  0
 68 84  1  0  0  0
 71 73  2  0  0  0
 71 75  1  0  0  0
 71146  1  0  0  0
 72 74  1  0  0  0
 72 75  2  0  0  0
 72147  1  0  0  0
 73 76  1  0  0  0
 73148  1  0  0  0
 74 76  2  0  0  0
 74149  1  0  0  0
 75 82  1  0  0  0
 76 85  1  0  0  0
 77 78  2  0  0  0
 77 84  1  0  0  0
 77150  1  0  0  0
 78 83  1  0  0  0
 78 86  1  0  0  0
 79 80  1  0  0  0
 79 81  1  0  0  0
 79151  1  0  0  0
 79152  1  0  0  0
 80 82  1  0  0  0
 80153  1  0  0  0
 80154  1  0  0  0
 81 86  1  0  0  0
 81155  1  0  0  0
 81156  1  0  0  0
 82 86  1  0  0  0
 82157  1  0  0  0
 83158  1  0  0  0
 83159  1  0  0  0
 83160  1  0  0  0
 84161  1  0  0  0
 84162  1  0  0  0
 85163  1  0  0  0
 86164  1  0  0  0
M  CHG  1  86   1
M  ISO  4   1 100  68 101  84 101  85 100
M  END
> <chiral flag>
0

> <version>
0

> <s_m_source_file>
/data/baiqing/PycharmProjects/Reinvent-master-3.2/result/LINK_invent/BTK/process_docking_weight1_custom_sum_contain_oxygen_bond_distance_aromatic_linkinvent_7_9_3/rearranged_h_0128.sdf

> <i_m_source_file_index>
67

> <r_mmod_Potential_Energy-OPLS-2005>
36.2193641662598

> <r_mmod_Stretch_Energy-OPLS-2005>
57.9933166503906

> <r_mmod_Bend_Energy-OPLS-2005>
177.162979125977

> <r_mmod_Torsional_Energy-OPLS-2005>
297.174743652344

> <r_mmod_Improper_Torsional_Energy-OPLS-2005>
6.73174953460693

> <r_mmod_Van_der_Waal_Energy-OPLS-2005>
153.845962524414

> <r_mmod_Electrostatic_Energy-OPLS-2005>
-231.619659423828

> <r_mmod_Solvation_Energy-OPLS-2005>
-442.123657226562

> <b_mmod_Minimization_Converged-OPLS-2005>
0

> <r_mmod_RMS_Derivative-OPLS-2005>
1.97970986366272

$$$$
67
                    3D
 Structure written by MMmdl.
164173  0  0  1  0            999 V2000
  -30.6687  -14.4319   20.6729 C   0  0  0  0  0  0
  -30.4308  -12.3126   19.4108 C   0  0  0  0  0  0
  -29.4967  -12.5434   18.2080 C   0  0  0  0  0  0
  -28.0142  -12.3771   18.6045 C   0  0  0  0  0  0
  -27.6574  -13.1913   19.8723 C   0  0  2  0  0  0
  -28.6901  -12.9160   20.9866 C   0  0  0  0  0  0
  -25.2595  -13.8096   20.5705 C   0  0  0  0  0  0
  -24.1815  -13.0370   20.9209 C   0  0  0  0  0  0
  -24.6350  -11.6874   20.8674 C   0  0  0  0  0  0
  -23.8997  -10.4272   21.0345 C   0  0  0  0  0  0
  -24.3552   -9.4232   21.9160 C   0  0  0  0  0  0
  -23.6265   -8.2261   22.0736 C   0  0  0  0  0  0
  -22.4252   -8.0273   21.3527 C   0  0  0  0  0  0
  -21.9858   -9.0222   20.4626 C   0  0  0  0  0  0
  -22.7158  -10.2125   20.3023 C   0  0  0  0  0  0
  -21.6871   -6.0724   22.5293 C   0  0  0  0  0  0
  -21.4036   -6.5642   23.8218 C   0  0  0  0  0  0
  -21.3645   -5.6786   24.9170 C   0  0  0  0  0  0
  -21.6034   -4.3049   24.7218 C   0  0  0  0  0  0
  -21.8828   -3.8153   23.4340 C   0  0  0  0  0  0
  -21.9193   -4.6962   22.3400 C   0  0  0  0  0  0
  -22.7879  -13.5248   21.1885 C   0  0  0  0  0  0
  -22.1673   -4.2153   21.0978 F   0  0  0  0  0  0
  -21.5597   -3.4532   25.7723 F   0  0  0  0  0  0
  -30.0223  -13.2554   20.4619 N   0  0  0  0  0  0
  -26.2980  -12.9234   20.3337 N   0  0  0  0  0  0
  -25.9252  -11.6398   20.5659 N   0  0  0  0  0  0
  -22.0494  -12.8210   22.0432 N   0  0  0  0  0  0
  -25.4298  -15.1812   20.4196 N   0  0  0  0  0  0
  -31.7624  -14.7050   20.1692 O   0  0  0  0  0  0
  -21.6643   -6.8861   21.4239 O   0  0  0  0  0  0
  -22.3601  -14.5550   20.6758 O   0  0  0  0  0  0
  -24.6234  -31.8616   23.2038 C   0  0  0  0  0  0
  -25.9123  -32.4723   23.8356 C   0  0  1  0  0  0
  -27.2451  -27.3812   20.0825 C   0  0  0  0  0  0
  -25.5949  -33.8525   24.2281 N   0  0  0  0  0  0
  -23.4195  -30.4822   21.5431 C   0  0  2  0  0  0
  -24.8668  -28.9327   20.1238 C   0  0  0  0  0  0
  -22.7470  -29.4647   22.4920 C   0  0  0  0  0  0
  -18.0280  -28.1318   22.8507 C   0  0  0  0  0  0
  -24.1503  -36.7315   23.2639 C   0  0  0  0  0  0
  -25.9521  -30.8055   21.3747 C   0  0  0  0  0  0
  -26.0302  -29.4361   20.7194 C   0  0  0  0  0  0
  -27.2198  -28.6639   20.6971 C   0  0  0  0  0  0
  -26.0555  -26.9025   19.4919 C   0  0  0  0  0  0
  -24.8725  -27.6640   19.5220 C   0  0  0  0  0  0
  -23.6412  -29.8140   20.1601 C   0  0  0  0  0  0
  -25.4126  -36.3056   24.0300 C   0  0  1  0  0  0
  -20.5895  -28.3717   23.1288 C   0  0  2  0  0  0
  -20.6803  -26.9414   22.5393 C   0  0  0  0  0  0
  -19.5742  -26.6274   21.5240 C   0  0  0  0  0  0
  -18.1935  -26.7823   22.1682 C   0  0  0  0  0  0
  -19.1537  -28.8813   23.2874 C   0  0  0  0  0  0
  -18.9445  -30.1413   23.8898 C   0  0  0  0  0  0
  -17.6446  -30.6565   24.0493 C   0  0  0  0  0  0
  -25.9045  -34.9400   23.5097 C   0  0  0  0  0  0
  -16.5340  -29.9064   23.6244 C   0  0  0  0  0  0
  -16.7254  -28.6471   23.0268 C   0  0  0  0  0  0
  -26.4507  -31.6514   25.0719 C   0  0  0  0  0  0
  -25.3747  -31.3687   26.1469 C   0  0  0  0  0  0
  -27.0370  -30.2922   24.6174 C   0  0  0  0  0  0
  -27.6031  -32.4288   25.7512 C   0  0  0  0  0  0
  -27.5567  -37.1840   24.8462 C   0  0  0  0  0  0
  -21.4162  -29.3131   22.3705 N   0  0  0  0  0  0
  -26.4283  -37.3753   23.9391 N   0  0  0  0  0  0
  -24.6826  -31.0705   22.0967 N   0  0  0  0  0  0
  -23.4237  -28.8205   23.2994 O   0  0  0  0  0  0
  -28.4181  -26.6365   20.0926 O   0  0  0  0  0  0
  -26.5599  -34.8879   22.4662 O   0  0  0  0  0  0
  -23.5437  -32.1366   23.7432 O   0  0  0  0  0  0
  -28.0460  -19.9259   21.6998 C   0  0  0  0  0  0
  -27.7636  -21.1940   21.1439 C   0  0  0  0  0  0
  -29.0589  -19.0877   21.1526 C   0  0  0  0  0  0
  -29.6977  -19.6027   19.9794 C   0  0  0  0  0  0
  -28.4817  -21.6075   20.0112 C   0  0  0  0  0  0
  -29.9881  -18.2095   23.9596 C   0  0  0  0  0  0
  -30.8094  -17.9651   22.6932 C   0  0  0  0  0  0
  -28.8512  -17.4616   23.2693 C   0  0  0  0  0  0
  -29.4917  -17.7651   21.8784 C   0  0  0  0  0  0
  -30.8575  -18.9101   19.2751 C   0  0  0  0  0  0
  -29.3807  -16.5319   20.9262 C   0  0  0  0  0  0
  -27.9691  -24.0907   20.1257 C   0  0  0  0  0  0
  -28.5043  -25.3662   19.3992 C   0  0  0  0  0  0
  -29.3842  -20.8025   19.4247 N   0  0  0  0  0  0
  -28.3315  -22.8626   19.3991 N   0  0  0  0  0  0
  -30.0224  -15.3131   21.4557 N   0  0  0  0  0  0
  -31.4755  -12.4396   19.1192 H   0  0  0  0  0  0
  -30.3538  -11.2876   19.7733 H   0  0  0  0  0  0
  -29.7484  -11.8575   17.4012 H   0  0  0  0  0  0
  -29.6584  -13.5528   17.8251 H   0  0  0  0  0  0
  -27.8251  -11.3158   18.7857 H   0  0  0  0  0  0
  -27.3683  -12.6634   17.7727 H   0  0  0  0  0  0
  -27.7158  -14.2447   19.6018 H   0  0  0  0  0  0
  -28.6729  -11.8587   21.2629 H   0  0  0  0  0  0
  -28.4408  -13.4532   21.9022 H   0  0  0  0  0  0
  -25.2674   -9.5754   22.4728 H   0  0  0  0  0  0
  -23.9994   -7.4662   22.7437 H   0  0  0  0  0  0
  -21.0807   -8.8714   19.8908 H   0  0  0  0  0  0
  -22.3604  -10.9640   19.6137 H   0  0  0  0  0  0
  -21.2095   -7.6164   23.9748 H   0  0  0  0  0  0
  -21.1431   -6.0500   25.9070 H   0  0  0  0  0  0
  -22.0619   -2.7620   23.2836 H   0  0  0  0  0  0
  -22.4062  -11.9868   22.4788 H   0  0  0  0  0  0
  -21.1118  -13.1250   22.2568 H   0  0  0  0  0  0
  -24.6727  -15.8394   20.5552 H   0  0  0  0  0  0
  -26.2917  -15.6158   20.1146 H   0  0  0  0  0  0
  -26.7197  -32.5469   23.1134 H   0  0  0  0  0  0
  -25.0085  -33.9638   25.0417 H   0  0  0  0  0  0
  -22.7027  -31.2918   21.3889 H   0  0  0  0  0  0
  -23.3696  -35.9716   23.3284 H   0  0  0  0  0  0
  -24.3572  -36.8967   22.2055 H   0  0  0  0  0  0
  -23.7335  -37.6548   23.6654 H   0  0  0  0  0  0
  -26.0813  -31.5725   20.6106 H   0  0  0  0  0  0
  -26.8337  -30.8528   22.0034 H   0  0  0  0  0  0
  -28.1256  -29.0393   21.1570 H   0  0  0  0  0  0
  -26.0161  -25.9298   19.0165 H   0  0  0  0  0  0
  -23.9723  -27.2621   19.0788 H   0  0  0  0  0  0
  -23.7902  -30.5895   19.4007 H   0  0  0  0  0  0
  -22.7588  -29.2558   19.8387 H   0  0  0  0  0  0
  -25.1309  -36.1859   25.0769 H   0  0  0  0  0  0
  -20.9960  -28.3268   24.1430 H   0  0  0  0  0  0
  -20.5844  -26.2374   23.3652 H   0  0  0  0  0  0
  -21.6658  -26.7516   22.1130 H   0  0  0  0  0  0
  -19.6917  -25.6149   21.1381 H   0  0  0  0  0  0
  -19.6590  -27.3085   20.6771 H   0  0  0  0  0  0
  -17.4128  -26.6579   21.4129 H   0  0  0  0  0  0
  -18.0305  -25.9996   22.9119 H   0  0  0  0  0  0
  -19.7954  -30.7231   24.2259 H   0  0  0  0  0  0
  -17.4966  -31.6239   24.5158 H   0  0  0  0  0  0
  -15.5330  -30.2965   23.7525 H   0  0  0  0  0  0
  -15.8639  -28.0820   22.6953 H   0  0  0  0  0  0
  -24.5903  -30.7015   25.7866 H   0  0  0  0  0  0
  -24.8974  -32.2882   26.4840 H   0  0  0  0  0  0
  -25.8125  -30.8937   27.0263 H   0  0  0  0  0  0
  -26.2961  -29.6642   24.1192 H   0  0  0  0  0  0
  -27.4043  -29.7186   25.4711 H   0  0  0  0  0  0
  -27.8828  -30.4161   23.9406 H   0  0  0  0  0  0
  -27.2518  -33.3565   26.2024 H   0  0  0  0  0  0
  -28.3854  -32.6879   25.0365 H   0  0  0  0  0  0
  -28.0631  -31.8460   26.5490 H   0  0  0  0  0  0
  -28.2614  -38.0121   24.7465 H   0  0  0  0  0  0
  -28.1046  -36.2653   24.6313 H   0  0  0  0  0  0
  -27.2278  -37.1523   25.8871 H   0  0  0  0  0  0
  -20.9322  -29.8913   21.6958 H   0  0  0  0  0  0
  -26.0146  -38.2810   24.1397 H   0  0  0  0  0  0
  -27.4936  -19.6504   22.5832 H   0  0  0  0  0  0
  -27.0067  -21.8199   21.6016 H   0  0  0  0  0  0
  -29.7862  -19.2651   24.1369 H   0  0  0  0  0  0
  -30.3589  -17.7309   24.8679 H   0  0  0  0  0  0
  -31.4285  -17.0672   22.7946 H   0  0  0  0  0  0
  -31.4147  -18.8301   22.4072 H   0  0  0  0  0  0
  -28.8820  -16.4045   23.5412 H   0  0  0  0  0  0
  -27.8395  -17.8137   23.4601 H   0  0  0  0  0  0
  -31.5376  -19.6409   18.8392 H   0  0  0  0  0  0
  -30.4982  -18.2949   18.4500 H   0  0  0  0  0  0
  -31.4409  -18.2802   19.9519 H   0  0  0  0  0  0
  -29.7857  -16.7167   19.9344 H   0  0  0  0  0  0
  -28.3235  -16.3211   20.7484 H   0  0  0  0  0  0
  -26.8856  -24.1346   20.2281 H   0  0  0  0  0  0
  -28.3796  -24.0609   21.1357 H   0  0  0  0  0  0
  -28.1066  -25.4537   18.3893 H   0  0  0  0  0  0
  -29.5683  -25.1957   19.2343 H   0  0  0  0  0  0
  -28.9303  -23.0051   18.5892 H   0  0  0  0  0  0
  -30.5644  -15.5367   22.2772 H   0  0  0  0  0  0
  1 25  1  0  0  0
  1 30  2  0  0  0
  1 86  1  0  0  0
  2  3  1  0  0  0
  2 25  1  0  0  0
  2 87  1  0  0  0
  2 88  1  0  0  0
  3  4  1  0  0  0
  3 89  1  0  0  0
  3 90  1  0  0  0
  4  5  1  0  0  0
  4 91  1  0  0  0
  4 92  1  0  0  0
  5  6  1  0  0  0
  5 26  1  0  0  0
  5 93  1  0  0  0
  6 25  1  0  0  0
  6 94  1  0  0  0
  6 95  1  0  0  0
  7  8  2  0  0  0
  7 26  1  0  0  0
  7 29  1  0  0  0
  8  9  1  0  0  0
  8 22  1  0  0  0
  9 10  1  0  0  0
  9 27  2  0  0  0
 10 11  2  0  0  0
 10 15  1  0  0  0
 11 12  1  0  0  0
 11 96  1  0  0  0
 12 13  2  0  0  0
 12 97  1  0  0  0
 13 14  1  0  0  0
 13 31  1  0  0  0
 14 15  2  0  0  0
 14 98  1  0  0  0
 15 99  1  0  0  0
 16 17  2  0  0  0
 16 21  1  0  0  0
 16 31  1  0  0  0
 17 18  1  0  0  0
 17100  1  0  0  0
 18 19  2  0  0  0
 18101  1  0  0  0
 19 20  1  0  0  0
 19 24  1  0  0  0
 20 21  2  0  0  0
 20102  1  0  0  0
 21 23  1  0  0  0
 22 28  1  0  0  0
 22 32  2  0  0  0
 26 27  1  0  0  0
 28103  1  0  0  0
 28104  1  0  0  0
 29105  1  0  0  0
 29106  1  0  0  0
 33 34  1  0  0  0
 33 66  1  0  0  0
 33 70  2  0  0  0
 34 36  1  0  0  0
 34 59  1  0  0  0
 34107  1  0  0  0
 35 44  2  0  0  0
 35 45  1  0  0  0
 35 68  1  0  0  0
 36 56  1  0  0  0
 36108  1  0  0  0
 37 39  1  0  0  0
 37 47  1  0  0  0
 37 66  1  0  0  0
 37109  1  0  0  0
 38 43  2  0  0  0
 38 46  1  0  0  0
 38 47  1  0  0  0
 39 64  1  0  0  0
 39 67  2  0  0  0
 40 52  1  0  0  0
 40 53  2  0  0  0
 40 58  1  0  0  0
 41110  1  0  0  0
 41111  1  0  0  0
 41112  1  0  0  0
 41 48  1  0  0  0
 42 43  1  0  0  0
 42 66  1  0  0  0
 42113  1  0  0  0
 42114  1  0  0  0
 43 44  1  0  0  0
 44115  1  0  0  0
 45 46  2  0  0  0
 45116  1  0  0  0
 46117  1  0  0  0
 47118  1  0  0  0
 47119  1  0  0  0
 48 56  1  0  0  0
 48 65  1  0  0  0
 48120  1  0  0  0
 49 50  1  0  0  0
 49 53  1  0  0  0
 49 64  1  0  0  0
 49121  1  0  0  0
 50 51  1  0  0  0
 50122  1  0  0  0
 50123  1  0  0  0
 51 52  1  0  0  0
 51124  1  0  0  0
 51125  1  0  0  0
 52126  1  0  0  0
 52127  1  0  0  0
 53 54  1  0  0  0
 54 55  2  0  0  0
 54128  1  0  0  0
 55 57  1  0  0  0
 55129  1  0  0  0
 56 69  2  0  0  0
 57 58  2  0  0  0
 57130  1  0  0  0
 58131  1  0  0  0
 59 60  1  0  0  0
 59 61  1  0  0  0
 59 62  1  0  0  0
 60132  1  0  0  0
 60133  1  0  0  0
 60134  1  0  0  0
 61135  1  0  0  0
 61136  1  0  0  0
 61137  1  0  0  0
 62138  1  0  0  0
 62139  1  0  0  0
 62140  1  0  0  0
 63 65  1  0  0  0
 63141  1  0  0  0
 63142  1  0  0  0
 63143  1  0  0  0
 64144  1  0  0  0
 65145  1  0  0  0
 68 83  1  0  0  0
 71 72  2  0  0  0
 71 73  1  0  0  0
 71146  1  0  0  0
 72 75  1  0  0  0
 72147  1  0  0  0
 73 74  2  0  0  0
 73 79  1  0  0  0
 74 80  1  0  0  0
 74 84  1  0  0  0
 75 84  2  0  0  0
 75 85  1  0  0  0
 76 77  1  0  0  0
 76 78  1  0  0  0
 76148  1  0  0  0
 76149  1  0  0  0
 77 79  1  0  0  0
 77150  1  0  0  0
 77151  1  0  0  0
 78 79  1  0  0  0
 78152  1  0  0  0
 78153  1  0  0  0
 79 81  1  0  0  0
 80154  1  0  0  0
 80155  1  0  0  0
 80156  1  0  0  0
 81 86  1  0  0  0
 81157  1  0  0  0
 81158  1  0  0  0
 82 83  1  0  0  0
 82 85  1  0  0  0
 82159  1  0  0  0
 82160  1  0  0  0
 83161  1  0  0  0
 83162  1  0  0  0
 85163  1  0  0  0
 86164  1  0  0  0
M  ISO  4   1 100  68 101  83 101  86 100
M  END
> <chiral flag>
0

> <version>
0

> <s_m_source_file>
/data/baiqing/PycharmProjects/Reinvent-master-3.2/result/LINK_invent/BTK/process_docking_weight1_custom_sum_contain_oxygen_bond_distance_aromatic_linkinvent_7_9_3/rearranged_h_0128.sdf

> <i_m_source_file_index>
68

> <r_mmod_Potential_Energy-OPLS-2005>
-225.114135742188

> <r_mmod_Stretch_Energy-OPLS-2005>
50.594856262207

> <r_mmod_Bend_Energy-OPLS-2005>
155.786087036133

> <r_mmod_Torsional_Energy-OPLS-2005>
292.512054443359

> <r_mmod_Improper_Torsional_Energy-OPLS-2005>
8.8259973526001

> <r_mmod_Van_der_Waal_Energy-OPLS-2005>
157.792877197266

> <r_mmod_Electrostatic_Energy-OPLS-2005>
-685.474609375

> <r_mmod_Solvation_Energy-OPLS-2005>
-221.75373840332

> <b_mmod_Minimization_Converged-OPLS-2005>
0

> <r_mmod_RMS_Derivative-OPLS-2005>
9.14734077453613

$$$$
68
                    3D
 Structure written by MMmdl.
169178  0  0  1  0            999 V2000
  -30.6894  -14.4485   20.5956 C   0  0  0  0  0  0
  -30.4302  -12.3019   19.3996 C   0  0  0  0  0  0
  -29.4949  -12.5295   18.1952 C   0  0  0  0  0  0
  -28.0131  -12.3936   18.6082 C   0  0  0  0  0  0
  -27.6712  -13.2018   19.8891 C   0  0  2  0  0  0
  -28.7180  -12.9402   20.9958 C   0  0  0  0  0  0
  -25.2740  -13.8167   20.5806 C   0  0  0  0  0  0
  -24.1942  -13.0448   20.9248 C   0  0  0  0  0  0
  -24.6450  -11.6908   20.8800 C   0  0  0  0  0  0
  -23.9111  -10.4275   21.0406 C   0  0  0  0  0  0
  -24.3644   -9.4184   21.9187 C   0  0  0  0  0  0
  -23.6288   -8.2239   22.0770 C   0  0  0  0  0  0
  -22.4281   -8.0286   21.3552 C   0  0  0  0  0  0
  -21.9926   -9.0273   20.4672 C   0  0  0  0  0  0
  -22.7280  -10.2136   20.3063 C   0  0  0  0  0  0
  -21.6846   -6.0739   22.5278 C   0  0  0  0  0  0
  -21.4013   -6.5648   23.8213 C   0  0  0  0  0  0
  -21.3677   -5.6803   24.9175 C   0  0  0  0  0  0
  -21.6026   -4.3063   24.7215 C   0  0  0  0  0  0
  -21.8827   -3.8156   23.4343 C   0  0  0  0  0  0
  -21.9185   -4.6969   22.3396 C   0  0  0  0  0  0
  -22.7971  -13.5270   21.1823 C   0  0  0  0  0  0
  -22.1659   -4.2159   21.0974 F   0  0  0  0  0  0
  -21.5613   -3.4550   25.7732 F   0  0  0  0  0  0
  -30.0434  -13.2644   20.4396 N   0  0  0  0  0  0
  -26.3124  -12.9294   20.3469 N   0  0  0  0  0  0
  -25.9364  -11.6462   20.5767 N   0  0  0  0  0  0
  -22.0541  -12.8270   22.0345 N   0  0  0  0  0  0
  -25.4557  -15.1890   20.4143 N   0  0  0  0  0  0
  -31.8138  -14.6771   20.1371 O   0  0  0  0  0  0
  -21.6648   -6.8890   21.4240 O   0  0  0  0  0  0
  -22.3724  -14.5562   20.6617 O   0  0  0  0  0  0
  -24.6120  -31.8706   23.2209 C   0  0  0  0  0  0
  -25.9018  -32.4866   23.8454 C   0  0  1  0  0  0
  -27.2172  -27.4454   20.0636 C   0  0  0  0  0  0
  -25.5881  -33.8665   24.2381 N   0  0  0  0  0  0
  -23.3956  -30.4991   21.5644 C   0  0  2  0  0  0
  -24.8356  -28.9740   20.1131 C   0  0  0  0  0  0
  -22.7369  -29.4686   22.5081 C   0  0  0  0  0  0
  -18.0267  -28.1270   22.8580 C   0  0  0  0  0  0
  -24.1466  -36.7334   23.2643 C   0  0  0  0  0  0
  -25.9253  -30.8297   21.3798 C   0  0  0  0  0  0
  -25.9925  -29.4656   20.7246 C   0  0  0  0  0  0
  -27.1784  -28.6991   20.7193 C   0  0  0  0  0  0
  -26.0439  -26.9800   19.4277 C   0  0  0  0  0  0
  -24.8560  -27.7284   19.4659 C   0  0  0  0  0  0
  -23.5983  -29.8434   20.1732 C   0  0  0  0  0  0
  -25.4089  -36.3167   24.0369 C   0  0  1  0  0  0
  -20.5851  -28.3618   23.1344 C   0  0  2  0  0  0
  -20.6769  -26.9381   22.5376 C   0  0  0  0  0  0
  -19.5735  -26.6374   21.5181 C   0  0  0  0  0  0
  -18.1951  -26.7823   22.1723 C   0  0  0  0  0  0
  -19.1505  -28.8751   23.2944 C   0  0  0  0  0  0
  -18.9416  -30.1387   23.8896 C   0  0  0  0  0  0
  -17.6406  -30.6540   24.0484 C   0  0  0  0  0  0
  -25.9019  -34.9513   23.5164 C   0  0  0  0  0  0
  -16.5322  -29.8990   23.6289 C   0  0  0  0  0  0
  -16.7247  -28.6365   23.0425 C   0  0  0  0  0  0
  -26.4453  -31.6637   25.0754 C   0  0  0  0  0  0
  -25.3707  -31.3679   26.1479 C   0  0  0  0  0  0
  -27.0264  -30.3101   24.6087 C   0  0  0  0  0  0
  -27.6055  -32.4331   25.7489 C   0  0  0  0  0  0
  -27.5586  -37.1829   24.8479 C   0  0  0  0  0  0
  -21.4105  -29.3063   22.3826 N   0  0  0  0  0  0
  -26.4293  -37.3844   23.9428 N   0  0  0  0  0  0
  -24.6634  -31.0772   22.1151 N   0  0  0  0  0  0
  -23.4140  -28.8169   23.3082 O   0  0  0  0  0  0
  -28.3893  -26.7192   20.0969 O   0  0  0  0  0  0
  -26.5594  -34.8950   22.4734 O   0  0  0  0  0  0
  -23.5325  -32.1515   23.7596 O   0  0  0  0  0  0
  -28.3870  -20.0425   19.6961 C   0  0  0  0  0  0
  -28.4845  -21.4188   19.4023 C   0  0  0  0  0  0
  -27.8298  -20.6573   21.9482 C   0  0  0  0  0  0
  -28.1086  -19.6273   21.0196 C   0  0  0  0  0  0
  -28.3074  -22.3577   20.4405 C   0  0  0  0  0  0
  -29.9560  -18.6143   23.2091 C   0  0  0  0  0  0
  -31.2220  -19.2361   22.5608 C   0  0  0  0  0  0
  -31.1364  -17.6316   20.6141 C   0  0  0  0  0  0
  -29.2163  -17.5696   22.3261 C   0  0  1  0  0  0
  -30.3536  -16.7527   21.6337 C   0  0  1  0  0  0
  -28.6982  -25.8055   19.0366 C   0  0  0  0  0  0
  -28.1408  -24.3611   19.1354 C   0  0  0  0  0  0
  -28.0541  -18.1185   21.3886 C   0  0  1  0  0  0
  -27.9677  -21.9738   21.6834 N   0  0  0  0  0  0
  -29.9523  -15.4036   21.1918 N   0  0  0  0  0  0
  -31.3008  -19.0329   21.0904 N   0  3  0  0  0  0
  -26.7173  -17.7490   21.9053 N   0  3  0  0  0  0
  -28.5437  -23.7135   20.3359 O   0  0  0  0  0  0
  -31.4734  -12.4090   19.0990 H   0  0  0  0  0  0
  -30.3302  -11.2804   19.7688 H   0  0  0  0  0  0
  -29.7293  -11.8377   17.3867 H   0  0  0  0  0  0
  -29.6718  -13.5300   17.7948 H   0  0  0  0  0  0
  -27.8069  -11.3366   18.7702 H   0  0  0  0  0  0
  -27.3684  -12.7084   17.7857 H   0  0  0  0  0  0
  -27.7252  -14.2569   19.6208 H   0  0  0  0  0  0
  -28.7013  -11.8899   21.2885 H   0  0  0  0  0  0
  -28.4869  -13.4901   21.9104 H   0  0  0  0  0  0
  -25.2778   -9.5637   22.4781 H   0  0  0  0  0  0
  -23.9990   -7.4618   22.7484 H   0  0  0  0  0  0
  -21.0862   -8.8801   19.8964 H   0  0  0  0  0  0
  -22.3742  -10.9679   19.6182 H   0  0  0  0  0  0
  -21.2034   -7.6163   23.9732 H   0  0  0  0  0  0
  -21.1484   -6.0527   25.9083 H   0  0  0  0  0  0
  -22.0592   -2.7616   23.2834 H   0  0  0  0  0  0
  -22.4113  -11.9914   22.4741 H   0  0  0  0  0  0
  -21.1139  -13.1325   22.2472 H   0  0  0  0  0  0
  -24.5634  -15.6478   20.2635 H   0  0  0  0  0  0
  -26.0877  -15.3850   19.6464 H   0  0  0  0  0  0
  -26.7050  -32.5580   23.1181 H   0  0  0  0  0  0
  -25.0023  -33.9811   25.0517 H   0  0  0  0  0  0
  -22.6842  -31.3172   21.4397 H   0  0  0  0  0  0
  -23.3753  -35.9652   23.3335 H   0  0  0  0  0  0
  -24.3560  -36.8896   22.2056 H   0  0  0  0  0  0
  -23.7165  -37.6529   23.6617 H   0  0  0  0  0  0
  -26.0343  -31.5947   20.6097 H   0  0  0  0  0  0
  -26.8172  -30.8856   21.9942 H   0  0  0  0  0  0
  -28.0657  -29.0750   21.2093 H   0  0  0  0  0  0
  -26.0097  -26.0519   18.8843 H   0  0  0  0  0  0
  -23.9736  -27.3585   18.9636 H   0  0  0  0  0  0
  -23.7040  -30.6290   19.4248 H   0  0  0  0  0  0
  -22.7164  -29.2746   19.8757 H   0  0  0  0  0  0
  -25.1258  -36.2083   25.0875 H   0  0  0  0  0  0
  -20.9899  -28.3102   24.1459 H   0  0  0  0  0  0
  -20.5734  -26.2217   23.3540 H   0  0  0  0  0  0
  -21.6616  -26.7439   22.1108 H   0  0  0  0  0  0
  -19.6994  -25.6331   21.1108 H   0  0  0  0  0  0
  -19.6600  -27.3285   20.6787 H   0  0  0  0  0  0
  -17.4129  -26.6596   21.4207 H   0  0  0  0  0  0
  -18.0493  -25.9934   22.9120 H   0  0  0  0  0  0
  -19.7891  -30.7201   24.2258 H   0  0  0  0  0  0
  -17.4937  -31.6240   24.4999 H   0  0  0  0  0  0
  -15.5313  -30.2875   23.7554 H   0  0  0  0  0  0
  -15.8682  -28.0619   22.7192 H   0  0  0  0  0  0
  -24.5903  -30.7017   25.7766 H   0  0  0  0  0  0
  -24.8845  -32.2791   26.4994 H   0  0  0  0  0  0
  -25.8057  -30.8785   27.0202 H   0  0  0  0  0  0
  -26.2779  -29.6889   24.1166 H   0  0  0  0  0  0
  -27.4044  -29.7334   25.4531 H   0  0  0  0  0  0
  -27.8628  -30.4428   23.9225 H   0  0  0  0  0  0
  -27.2722  -33.3636   26.2110 H   0  0  0  0  0  0
  -28.3850  -32.6882   25.0284 H   0  0  0  0  0  0
  -28.0764  -31.8418   26.5351 H   0  0  0  0  0  0
  -28.2650  -38.0091   24.7545 H   0  0  0  0  0  0
  -28.1039  -36.2630   24.6308 H   0  0  0  0  0  0
  -27.2306  -37.1496   25.8882 H   0  0  0  0  0  0
  -20.9260  -29.8776   21.7063 H   0  0  0  0  0  0
  -26.0226  -38.2950   24.1402 H   0  0  0  0  0  0
  -28.5527  -19.3147   18.9132 H   0  0  0  0  0  0
  -28.7398  -21.7133   18.3931 H   0  0  0  0  0  0
  -27.5117  -20.4310   22.9547 H   0  0  0  0  0  0
  -29.2921  -19.3725   23.6092 H   0  0  0  0  0  0
  -30.3006  -18.1062   24.1132 H   0  0  0  0  0  0
  -32.1103  -18.7960   23.0159 H   0  0  0  0  0  0
  -31.2694  -20.3032   22.7921 H   0  0  0  0  0  0
  -30.6555  -17.6455   19.6330 H   0  0  0  0  0  0
  -32.1351  -17.2206   20.4628 H   0  0  0  0  0  0
  -28.7551  -16.8714   23.0246 H   0  0  0  0  0  0
  -31.0716  -16.5191   22.4244 H   0  0  0  0  0  0
  -28.4255  -26.2497   18.0764 H   0  0  0  0  0  0
  -29.7865  -25.7432   19.0234 H   0  0  0  0  0  0
  -28.5165  -23.8253   18.2658 H   0  0  0  0  0  0
  -27.0574  -24.3155   19.0753 H   0  0  0  0  0  0
  -28.1177  -17.5731   20.4438 H   0  0  0  0  0  0
  -29.0470  -15.0770   21.4988 H   0  0  0  0  0  0
  -32.1846  -19.3816   20.7486 H   0  0  0  0  0  0
  -30.5968  -19.6126   20.6631 H   0  0  0  0  0  0
  -25.9902  -18.1397   21.3260 H   0  0  0  0  0  0
  -26.5770  -18.0527   22.8540 H   0  0  0  0  0  0
  -26.5839  -16.7485   21.8895 H   0  0  0  0  0  0
  1 25  1  0  0  0
  1 30  2  0  0  0
  1 85  1  0  0  0
  2  3  1  0  0  0
  2 25  1  0  0  0
  2 89  1  0  0  0
  2 90  1  0  0  0
  3  4  1  0  0  0
  3 91  1  0  0  0
  3 92  1  0  0  0
  4  5  1  0  0  0
  4 93  1  0  0  0
  4 94  1  0  0  0
  5  6  1  0  0  0
  5 26  1  0  0  0
  5 95  1  0  0  0
  6 25  1  0  0  0
  6 96  1  0  0  0
  6 97  1  0  0  0
  7  8  2  0  0  0
  7 26  1  0  0  0
  7 29  1  0  0  0
  8  9  1  0  0  0
  8 22  1  0  0  0
  9 10  1  0  0  0
  9 27  2  0  0  0
 10 11  2  0  0  0
 10 15  1  0  0  0
 11 12  1  0  0  0
 11 98  1  0  0  0
 12 13  2  0  0  0
 12 99  1  0  0  0
 13 14  1  0  0  0
 13 31  1  0  0  0
 14 15  2  0  0  0
 14100  1  0  0  0
 15101  1  0  0  0
 16 17  2  0  0  0
 16 21  1  0  0  0
 16 31  1  0  0  0
 17 18  1  0  0  0
 17102  1  0  0  0
 18 19  2  0  0  0
 18103  1  0  0  0
 19 20  1  0  0  0
 19 24  1  0  0  0
 20 21  2  0  0  0
 20104  1  0  0  0
 21 23  1  0  0  0
 22 28  1  0  0  0
 22 32  2  0  0  0
 26 27  1  0  0  0
 28105  1  0  0  0
 28106  1  0  0  0
 29107  1  0  0  0
 29108  1  0  0  0
 33 34  1  0  0  0
 33 66  1  0  0  0
 33 70  2  0  0  0
 34 36  1  0  0  0
 34 59  1  0  0  0
 34109  1  0  0  0
 35 44  2  0  0  0
 35 45  1  0  0  0
 35 68  1  0  0  0
 36 56  1  0  0  0
 36110  1  0  0  0
 37 39  1  0  0  0
 37 47  1  0  0  0
 37 66  1  0  0  0
 37111  1  0  0  0
 38 43  2  0  0  0
 38 46  1  0  0  0
 38 47  1  0  0  0
 39 64  1  0  0  0
 39 67  2  0  0  0
 40 52  1  0  0  0
 40 53  2  0  0  0
 40 58  1  0  0  0
 41112  1  0  0  0
 41113  1  0  0  0
 41114  1  0  0  0
 41 48  1  0  0  0
 42 43  1  0  0  0
 42 66  1  0  0  0
 42115  1  0  0  0
 42116  1  0  0  0
 43 44  1  0  0  0
 44117  1  0  0  0
 45 46  2  0  0  0
 45118  1  0  0  0
 46119  1  0  0  0
 47120  1  0  0  0
 47121  1  0  0  0
 48 56  1  0  0  0
 48 65  1  0  0  0
 48122  1  0  0  0
 49 50  1  0  0  0
 49 53  1  0  0  0
 49 64  1  0  0  0
 49123  1  0  0  0
 50 51  1  0  0  0
 50124  1  0  0  0
 50125  1  0  0  0
 51 52  1  0  0  0
 51126  1  0  0  0
 51127  1  0  0  0
 52128  1  0  0  0
 52129  1  0  0  0
 53 54  1  0  0  0
 54 55  2  0  0  0
 54130  1  0  0  0
 55 57  1  0  0  0
 55131  1  0  0  0
 56 69  2  0  0  0
 57 58  2  0  0  0
 57132  1  0  0  0
 58133  1  0  0  0
 59 60  1  0  0  0
 59 61  1  0  0  0
 59 62  1  0  0  0
 60134  1  0  0  0
 60135  1  0  0  0
 60136  1  0  0  0
 61137  1  0  0  0
 61138  1  0  0  0
 61139  1  0  0  0
 62140  1  0  0  0
 62141  1  0  0  0
 62142  1  0  0  0
 63 65  1  0  0  0
 63143  1  0  0  0
 63144  1  0  0  0
 63145  1  0  0  0
 64146  1  0  0  0
 65147  1  0  0  0
 68 81  1  0  0  0
 71 72  2  0  0  0
 71 74  1  0  0  0
 71148  1  0  0  0
 72 75  1  0  0  0
 72149  1  0  0  0
 73 74  2  0  0  0
 73 84  1  0  0  0
 73150  1  0  0  0
 74 83  1  0  0  0
 75 84  2  0  0  0
 75 88  1  0  0  0
 76 77  1  0  0  0
 76151  1  0  0  0
 76152  1  0  0  0
 76 79  1  0  0  0
 77 86  1  0  0  0
 77153  1  0  0  0
 77154  1  0  0  0
 78 80  1  0  0  0
 78 86  1  0  0  0
 78155  1  0  0  0
 78156  1  0  0  0
 79 80  1  0  0  0
 79 83  1  0  0  0
 79157  1  0  0  0
 80 85  1  0  0  0
 80158  1  0  0  0
 81 82  1  0  0  0
 81159  1  0  0  0
 81160  1  0  0  0
 82 88  1  0  0  0
 82161  1  0  0  0
 82162  1  0  0  0
 83 87  1  0  0  0
 83163  1  0  0  0
 85164  1  0  0  0
 86165  1  0  0  0
 86166  1  0  0  0
 87167  1  0  0  0
 87168  1  0  0  0
 87169  1  0  0  0
M  CHG  2  86   1  87   1
M  ISO  4   1 100  68 101  81 101  85 100
M  END
> <chiral flag>
0

> <version>
0

> <s_m_source_file>
/data/baiqing/PycharmProjects/Reinvent-master-3.2/result/LINK_invent/BTK/process_docking_weight1_custom_sum_contain_oxygen_bond_distance_aromatic_linkinvent_7_9_3/rearranged_h_0128.sdf

> <i_m_source_file_index>
69

> <r_mmod_Potential_Energy-OPLS-2005>
-558.929504394531

> <r_mmod_Stretch_Energy-OPLS-2005>
44.6365203857422

> <r_mmod_Bend_Energy-OPLS-2005>
137.138946533203

> <r_mmod_Torsional_Energy-OPLS-2005>
292.831634521484

> <r_mmod_Improper_Torsional_Energy-OPLS-2005>
9.2568531036377

> <r_mmod_Van_der_Waal_Energy-OPLS-2005>
167.903701782227

> <r_mmod_Electrostatic_Energy-OPLS-2005>
-191.43701171875

> <r_mmod_Solvation_Energy-OPLS-2005>
-1031.97839355469

> <b_mmod_Minimization_Converged-OPLS-2005>
0

> <r_mmod_RMS_Derivative-OPLS-2005>
5.57715845108032

$$$$
69
                    3D
 Structure written by MMmdl.
150158  0  0  1  0            999 V2000
  -30.5834  -14.8550   20.4320 C   0  0  0  0  0  0
  -30.4264  -12.5242   19.4984 C   0  0  0  0  0  0
  -29.5177  -12.5158   18.2497 C   0  0  0  0  0  0
  -28.0442  -12.3288   18.6580 C   0  0  0  0  0  0
  -27.6299  -13.2463   19.8396 C   0  0  2  0  0  0
  -28.6689  -13.2473   20.9804 C   0  0  0  0  0  0
  -25.2459  -13.8223   20.5698 C   0  0  0  0  0  0
  -24.1776  -13.0444   20.9211 C   0  0  0  0  0  0
  -24.6389  -11.6928   20.8742 C   0  0  0  0  0  0
  -23.9074  -10.4300   21.0406 C   0  0  0  0  0  0
  -24.3633   -9.4213   21.9176 C   0  0  0  0  0  0
  -23.6309   -8.2251   22.0752 C   0  0  0  0  0  0
  -22.4289   -8.0290   21.3544 C   0  0  0  0  0  0
  -21.9918   -9.0263   20.4647 C   0  0  0  0  0  0
  -22.7248  -10.2142   20.3054 C   0  0  0  0  0  0
  -21.6862   -6.0738   22.5277 C   0  0  0  0  0  0
  -21.4019   -6.5637   23.8210 C   0  0  0  0  0  0
  -21.3667   -5.6787   24.9172 C   0  0  0  0  0  0
  -21.6049   -4.3051   24.7218 C   0  0  0  0  0  0
  -21.8823   -3.8144   23.4339 C   0  0  0  0  0  0
  -21.9195   -4.6963   22.3398 C   0  0  0  0  0  0
  -22.7795  -13.5216   21.1872 C   0  0  0  0  0  0
  -22.1665   -4.2149   21.0976 F   0  0  0  0  0  0
  -21.5628   -3.4531   25.7728 F   0  0  0  0  0  0
  -29.9565  -13.6201   20.3871 N   0  0  0  0  0  0
  -26.2877  -12.9449   20.3224 N   0  0  0  0  0  0
  -25.9315  -11.6581   20.5716 N   0  0  0  0  0  0
  -22.0447  -12.8210   22.0435 N   0  0  0  0  0  0
  -25.4114  -15.1959   20.4143 N   0  0  0  0  0  0
  -31.7856  -14.9010   20.1530 O   0  0  0  0  0  0
  -21.6651   -6.8889   21.4246 O   0  0  0  0  0  0
  -22.3470  -14.5514   20.6710 O   0  0  0  0  0  0
  -24.6362  -31.8486   23.1911 C   0  0  0  0  0  0
  -25.9157  -32.4724   23.8284 C   0  0  1  0  0  0
  -27.2199  -27.1906   20.1427 C   0  0  0  0  0  0
  -25.5928  -33.8530   24.2206 N   0  0  0  0  0  0
  -23.4383  -30.4657   21.5368 C   0  0  2  0  0  0
  -24.8875  -28.8997   20.1108 C   0  0  0  0  0  0
  -22.7526  -29.4556   22.4897 C   0  0  0  0  0  0
  -18.0284  -28.1386   22.8472 C   0  0  0  0  0  0
  -24.1483  -36.7270   23.2645 C   0  0  0  0  0  0
  -25.9893  -30.7393   21.3819 C   0  0  0  0  0  0
  -26.0625  -29.3551   20.7231 C   0  0  0  0  0  0
  -27.2306  -28.5148   20.7223 C   0  0  0  0  0  0
  -26.0210  -26.8222   19.4940 C   0  0  0  0  0  0
  -24.8759  -27.6444   19.4834 C   0  0  0  0  0  0
  -23.6600  -29.7914   20.1572 C   0  0  0  0  0  0
  -25.4122  -36.3057   24.0313 C   0  0  1  0  0  0
  -20.5890  -28.3698   23.1260 C   0  0  2  0  0  0
  -20.6766  -26.9412   22.5406 C   0  0  0  0  0  0
  -19.5751  -26.6377   21.5199 C   0  0  0  0  0  0
  -18.1931  -26.7920   22.1616 C   0  0  0  0  0  0
  -19.1540  -28.8858   23.2852 C   0  0  0  0  0  0
  -18.9466  -30.1459   23.8870 C   0  0  0  0  0  0
  -17.6469  -30.6588   24.0556 C   0  0  0  0  0  0
  -25.9066  -34.9426   23.5072 C   0  0  0  0  0  0
  -16.5356  -29.9085   23.6338 C   0  0  0  0  0  0
  -16.7271  -28.6505   23.0357 C   0  0  0  0  0  0
  -26.4491  -31.6581   25.0714 C   0  0  0  0  0  0
  -25.3688  -31.3777   26.1426 C   0  0  0  0  0  0
  -27.0345  -30.2978   24.6270 C   0  0  0  0  0  0
  -27.6027  -32.4340   25.7494 C   0  0  0  0  0  0
  -27.5574  -37.1789   24.8465 C   0  0  0  0  0  0
  -21.4226  -29.3033   22.3641 N   0  0  0  0  0  0
  -26.4291  -37.3766   23.9403 N   0  0  0  0  0  0
  -24.7074  -31.0383   22.0923 N   0  0  0  0  0  0
  -23.4194  -28.8113   23.3036 O   0  0  0  0  0  0
  -28.2912  -26.2471   20.2180 O   0  0  0  0  0  0
  -26.5666  -34.8912   22.4659 O   0  0  0  0  0  0
  -23.5491  -32.1353   23.7152 O   0  0  0  0  0  0
  -28.9075  -21.0883   21.5205 C   0  0  0  0  0  0
  -29.5143  -21.2505   19.2401 C   0  0  0  0  0  0
  -29.1906  -19.6634   21.5055 C   0  0  0  0  0  0
  -29.7944  -19.8305   19.2260 C   0  0  0  0  0  0
  -29.0942  -21.9708   20.4014 C   0  0  0  0  0  0
  -29.6905  -18.9601   20.3608 C   0  0  0  0  0  0
  -29.1535  -23.6027   20.5308 C   0  0  0  0  0  0
  -30.4124  -17.4900   20.3717 C   0  0  0  0  0  0
  -28.0493  -24.7357   20.0625 C   0  0  0  0  0  0
  -29.8520  -16.0523   20.5639 N   0  0  0  0  0  0
  -31.4694  -12.6504   19.2017 H   0  0  0  0  0  0
  -30.3804  -11.5642   20.0154 H   0  0  0  0  0  0
  -29.8207  -11.7214   17.5661 H   0  0  0  0  0  0
  -29.6349  -13.4531   17.7015 H   0  0  0  0  0  0
  -27.9148  -11.2829   18.9402 H   0  0  0  0  0  0
  -27.3918  -12.4961   17.8000 H   0  0  0  0  0  0
  -27.6032  -14.2565   19.4302 H   0  0  0  0  0  0
  -28.7260  -12.2712   21.4644 H   0  0  0  0  0  0
  -28.3824  -13.9599   21.7559 H   0  0  0  0  0  0
  -25.2783   -9.5686   22.4739 H   0  0  0  0  0  0
  -24.0019   -7.4641   22.7469 H   0  0  0  0  0  0
  -21.0846   -8.8787   19.8951 H   0  0  0  0  0  0
  -22.3709  -10.9683   19.6163 H   0  0  0  0  0  0
  -21.2014   -7.6143   23.9714 H   0  0  0  0  0  0
  -21.1486   -6.0514   25.9076 H   0  0  0  0  0  0
  -22.0595   -2.7602   23.2835 H   0  0  0  0  0  0
  -22.4080  -11.9897   22.4860 H   0  0  0  0  0  0
  -21.1055  -13.1221   22.2626 H   0  0  0  0  0  0
  -24.6394  -15.8444   20.5268 H   0  0  0  0  0  0
  -26.2533  -15.6405   20.0716 H   0  0  0  0  0  0
  -26.7227  -32.5337   23.1019 H   0  0  0  0  0  0
  -24.9999  -33.9656   25.0297 H   0  0  0  0  0  0
  -22.7378  -31.2885   21.3810 H   0  0  0  0  0  0
  -23.3748  -35.9598   23.3310 H   0  0  0  0  0  0
  -24.3565  -36.8907   22.2059 H   0  0  0  0  0  0
  -23.7227  -37.6462   23.6683 H   0  0  0  0  0  0
  -26.1379  -31.4959   20.6109 H   0  0  0  0  0  0
  -26.8636  -30.7900   22.0196 H   0  0  0  0  0  0
  -28.1270  -28.8561   21.2212 H   0  0  0  0  0  0
  -25.9378  -25.8622   19.0081 H   0  0  0  0  0  0
  -23.9780  -27.2853   18.9998 H   0  0  0  0  0  0
  -23.7853  -30.5619   19.3958 H   0  0  0  0  0  0
  -22.7785  -29.2227   19.8561 H   0  0  0  0  0  0
  -25.1302  -36.1895   25.0803 H   0  0  0  0  0  0
  -20.9967  -28.3270   24.1389 H   0  0  0  0  0  0
  -20.5638  -26.2311   23.3611 H   0  0  0  0  0  0
  -21.6635  -26.7412   22.1220 H   0  0  0  0  0  0
  -19.6922  -25.6286   21.1240 H   0  0  0  0  0  0
  -19.6698  -27.3170   20.6715 H   0  0  0  0  0  0
  -17.4198  -26.6646   21.4024 H   0  0  0  0  0  0
  -18.0353  -26.0066   22.9021 H   0  0  0  0  0  0
  -19.7946  -30.7270   24.2228 H   0  0  0  0  0  0
  -17.5035  -31.6265   24.5159 H   0  0  0  0  0  0
  -15.5363  -30.2991   23.7680 H   0  0  0  0  0  0
  -15.8664  -28.0818   22.7100 H   0  0  0  0  0  0
  -24.5818  -30.7187   25.7744 H   0  0  0  0  0  0
  -24.8932  -32.2970   26.4850 H   0  0  0  0  0  0
  -25.7969  -30.8925   27.0205 H   0  0  0  0  0  0
  -26.2954  -29.6728   24.1247 H   0  0  0  0  0  0
  -27.3932  -29.7255   25.4834 H   0  0  0  0  0  0
  -27.8872  -30.4224   23.9595 H   0  0  0  0  0  0
  -27.2610  -33.3639   26.2052 H   0  0  0  0  0  0
  -28.3846  -32.6920   25.0342 H   0  0  0  0  0  0
  -28.0688  -31.8489   26.5433 H   0  0  0  0  0  0
  -28.2593  -38.0085   24.7513 H   0  0  0  0  0  0
  -28.1069  -36.2615   24.6292 H   0  0  0  0  0  0
  -27.2292  -37.1436   25.8870 H   0  0  0  0  0  0
  -20.9431  -29.8746   21.6820 H   0  0  0  0  0  0
  -26.0163  -38.2834   24.1414 H   0  0  0  0  0  0
  -28.6225  -21.5274   22.4671 H   0  0  0  0  0  0
  -29.7240  -21.8126   18.3401 H   0  0  0  0  0  0
  -29.1065  -19.1217   22.4371 H   0  0  0  0  0  0
  -30.2014  -19.4180   18.3135 H   0  0  0  0  0  0
  -30.0885  -23.8845   20.0471 H   0  0  0  0  0  0
  -29.3413  -23.7949   21.5871 H   0  0  0  0  0  0
  -31.2053  -17.5811   21.1151 H   0  0  0  0  0  0
  -30.9473  -17.4401   19.4223 H   0  0  0  0  0  0
  -27.1225  -24.5003   20.5867 H   0  0  0  0  0  0
  -27.8425  -24.5592   19.0076 H   0  0  0  0  0  0
  -28.8614  -15.9655   20.7357 H   0  0  0  0  0  0
  1 25  1  0  0  0
  1 30  2  0  0  0
  1 80  1  0  0  0
  2  3  1  0  0  0
  2 25  1  0  0  0
  2 81  1  0  0  0
  2 82  1  0  0  0
  3  4  1  0  0  0
  3 83  1  0  0  0
  3 84  1  0  0  0
  4  5  1  0  0  0
  4 85  1  0  0  0
  4 86  1  0  0  0
  5  6  1  0  0  0
  5 26  1  0  0  0
  5 87  1  0  0  0
  6 25  1  0  0  0
  6 88  1  0  0  0
  6 89  1  0  0  0
  7  8  2  0  0  0
  7 26  1  0  0  0
  7 29  1  0  0  0
  8  9  1  0  0  0
  8 22  1  0  0  0
  9 10  1  0  0  0
  9 27  2  0  0  0
 10 11  2  0  0  0
 10 15  1  0  0  0
 11 12  1  0  0  0
 11 90  1  0  0  0
 12 13  2  0  0  0
 12 91  1  0  0  0
 13 14  1  0  0  0
 13 31  1  0  0  0
 14 15  2  0  0  0
 14 92  1  0  0  0
 15 93  1  0  0  0
 16 17  2  0  0  0
 16 21  1  0  0  0
 16 31  1  0  0  0
 17 18  1  0  0  0
 17 94  1  0  0  0
 18 19  2  0  0  0
 18 95  1  0  0  0
 19 20  1  0  0  0
 19 24  1  0  0  0
 20 21  2  0  0  0
 20 96  1  0  0  0
 21 23  1  0  0  0
 22 28  1  0  0  0
 22 32  2  0  0  0
 26 27  1  0  0  0
 28 97  1  0  0  0
 28 98  1  0  0  0
 29 99  1  0  0  0
 29100  1  0  0  0
 33 34  1  0  0  0
 33 66  1  0  0  0
 33 70  2  0  0  0
 34 36  1  0  0  0
 34 59  1  0  0  0
 34101  1  0  0  0
 35 44  2  0  0  0
 35 45  1  0  0  0
 35 68  1  0  0  0
 36 56  1  0  0  0
 36102  1  0  0  0
 37 39  1  0  0  0
 37 47  1  0  0  0
 37 66  1  0  0  0
 37103  1  0  0  0
 38 43  2  0  0  0
 38 46  1  0  0  0
 38 47  1  0  0  0
 39 64  1  0  0  0
 39 67  2  0  0  0
 40 52  1  0  0  0
 40 53  2  0  0  0
 40 58  1  0  0  0
 41104  1  0  0  0
 41105  1  0  0  0
 41106  1  0  0  0
 41 48  1  0  0  0
 42 43  1  0  0  0
 42 66  1  0  0  0
 42107  1  0  0  0
 42108  1  0  0  0
 43 44  1  0  0  0
 44109  1  0  0  0
 45 46  2  0  0  0
 45110  1  0  0  0
 46111  1  0  0  0
 47112  1  0  0  0
 47113  1  0  0  0
 48 56  1  0  0  0
 48 65  1  0  0  0
 48114  1  0  0  0
 49 50  1  0  0  0
 49 53  1  0  0  0
 49 64  1  0  0  0
 49115  1  0  0  0
 50 51  1  0  0  0
 50116  1  0  0  0
 50117  1  0  0  0
 51 52  1  0  0  0
 51118  1  0  0  0
 51119  1  0  0  0
 52120  1  0  0  0
 52121  1  0  0  0
 53 54  1  0  0  0
 54 55  2  0  0  0
 54122  1  0  0  0
 55 57  1  0  0  0
 55123  1  0  0  0
 56 69  2  0  0  0
 57 58  2  0  0  0
 57124  1  0  0  0
 58125  1  0  0  0
 59 60  1  0  0  0
 59 61  1  0  0  0
 59 62  1  0  0  0
 60126  1  0  0  0
 60127  1  0  0  0
 60128  1  0  0  0
 61129  1  0  0  0
 61130  1  0  0  0
 61131  1  0  0  0
 62132  1  0  0  0
 62133  1  0  0  0
 62134  1  0  0  0
 63 65  1  0  0  0
 63135  1  0  0  0
 63136  1  0  0  0
 63137  1  0  0  0
 64138  1  0  0  0
 65139  1  0  0  0
 68 79  1  0  0  0
 71 73  2  0  0  0
 71 75  1  0  0  0
 71140  1  0  0  0
 72 74  1  0  0  0
 72 75  2  0  0  0
 72141  1  0  0  0
 73 76  1  0  0  0
 73142  1  0  0  0
 74 76  2  0  0  0
 74143  1  0  0  0
 75 77  1  0  0  0
 76 78  1  0  0  0
 77 79  1  0  0  0
 77144  1  0  0  0
 77145  1  0  0  0
 78 80  1  0  0  0
 78146  1  0  0  0
 78147  1  0  0  0
 79148  1  0  0  0
 79149  1  0  0  0
 80150  1  0  0  0
M  ISO  4   1 100  68 101  79 101  80 100
M  END
> <chiral flag>
0

> <version>
0

> <s_m_source_file>
/data/baiqing/PycharmProjects/Reinvent-master-3.2/result/LINK_invent/BTK/process_docking_weight1_custom_sum_contain_oxygen_bond_distance_aromatic_linkinvent_7_9_3/rearranged_h_0128.sdf

> <i_m_source_file_index>
70

> <r_mmod_Potential_Energy-OPLS-2005>
315.073669433594

> <r_mmod_Stretch_Energy-OPLS-2005>
179.50358581543

> <r_mmod_Bend_Energy-OPLS-2005>
228.910034179688

> <r_mmod_Torsional_Energy-OPLS-2005>
222.58528137207

> <r_mmod_Improper_Torsional_Energy-OPLS-2005>
9.8477029800415

> <r_mmod_Van_der_Waal_Energy-OPLS-2005>
135.181671142578

> <r_mmod_Electrostatic_Energy-OPLS-2005>
-392.698577880859

> <r_mmod_Solvation_Energy-OPLS-2005>
-208.079940795898

> <b_mmod_Minimization_Converged-OPLS-2005>
0

> <r_mmod_RMS_Derivative-OPLS-2005>
1.53920590877533

$$$$
70
                    3D
 Structure written by MMmdl.
162171  0  0  1  0            999 V2000
  -30.4954  -14.8921   20.4382 C   0  0  0  0  0  0
  -30.4461  -12.5511   19.4786 C   0  0  0  0  0  0
  -29.5140  -12.5245   18.2412 C   0  0  0  0  0  0
  -28.0439  -12.3100   18.6599 C   0  0  0  0  0  0
  -27.6308  -13.2261   19.8407 C   0  0  2  0  0  0
  -28.6738  -13.1957   20.9761 C   0  0  0  0  0  0
  -25.2488  -13.8157   20.5658 C   0  0  0  0  0  0
  -24.1784  -13.0434   20.9232 C   0  0  0  0  0  0
  -24.6363  -11.6897   20.8773 C   0  0  0  0  0  0
  -23.9054  -10.4289   21.0448 C   0  0  0  0  0  0
  -24.3615   -9.4211   21.9224 C   0  0  0  0  0  0
  -23.6293   -8.2247   22.0782 C   0  0  0  0  0  0
  -22.4272   -8.0280   21.3569 C   0  0  0  0  0  0
  -21.9904   -9.0234   20.4653 C   0  0  0  0  0  0
  -22.7236  -10.2131   20.3058 C   0  0  0  0  0  0
  -21.6852   -6.0746   22.5308 C   0  0  0  0  0  0
  -21.4000   -6.5659   23.8235 C   0  0  0  0  0  0
  -21.3639   -5.6806   24.9186 C   0  0  0  0  0  0
  -21.6023   -4.3063   24.7241 C   0  0  0  0  0  0
  -21.8819   -3.8143   23.4372 C   0  0  0  0  0  0
  -21.9192   -4.6973   22.3435 C   0  0  0  0  0  0
  -22.7803  -13.5239   21.1893 C   0  0  0  0  0  0
  -22.1660   -4.2153   21.1029 F   0  0  0  0  0  0
  -21.5625   -3.4558   25.7757 F   0  0  0  0  0  0
  -29.9521  -13.6152   20.3899 N   0  0  0  0  0  0
  -26.2868  -12.9336   20.3228 N   0  0  0  0  0  0
  -25.9282  -11.6495   20.5746 N   0  0  0  0  0  0
  -22.0415  -12.8211   22.0406 N   0  0  0  0  0  0
  -25.4177  -15.1870   20.3984 N   0  0  0  0  0  0
  -31.6984  -15.0259   20.1766 O   0  0  0  0  0  0
  -21.6644   -6.8875   21.4254 O   0  0  0  0  0  0
  -22.3518  -14.5575   20.6789 O   0  0  0  0  0  0
  -24.6434  -31.8405   23.1852 C   0  0  0  0  0  0
  -25.9216  -32.4690   23.8244 C   0  0  1  0  0  0
  -27.2394  -27.1537   20.1814 C   0  0  0  0  0  0
  -25.5935  -33.8477   24.2185 N   0  0  0  0  0  0
  -23.4442  -30.4526   21.5337 C   0  0  2  0  0  0
  -24.8965  -28.8685   20.1292 C   0  0  0  0  0  0
  -22.7607  -29.4413   22.4881 C   0  0  0  0  0  0
  -18.0311  -28.1375   22.8465 C   0  0  0  0  0  0
  -24.1475  -36.7203   23.2649 C   0  0  0  0  0  0
  -25.9940  -30.7262   21.3711 C   0  0  0  0  0  0
  -26.0700  -29.3279   20.7401 C   0  0  0  0  0  0
  -27.2417  -28.4914   20.7426 C   0  0  0  0  0  0
  -26.0370  -26.7741   19.5499 C   0  0  0  0  0  0
  -24.8879  -27.5998   19.5223 C   0  0  0  0  0  0
  -23.6719  -29.7698   20.1579 C   0  0  0  0  0  0
  -25.4090  -36.2983   24.0338 C   0  0  1  0  0  0
  -20.5927  -28.3605   23.1307 C   0  0  2  0  0  0
  -20.6799  -26.9325   22.5429 C   0  0  0  0  0  0
  -19.5795  -26.6365   21.5217 C   0  0  0  0  0  0
  -18.1951  -26.7946   22.1593 C   0  0  0  0  0  0
  -19.1574  -28.8821   23.2880 C   0  0  0  0  0  0
  -18.9501  -30.1450   23.8854 C   0  0  0  0  0  0
  -17.6496  -30.6555   24.0546 C   0  0  0  0  0  0
  -25.9029  -34.9386   23.5048 C   0  0  0  0  0  0
  -16.5381  -29.9044   23.6362 C   0  0  0  0  0  0
  -16.7297  -28.6497   23.0317 C   0  0  0  0  0  0
  -26.4560  -31.6527   25.0653 C   0  0  0  0  0  0
  -25.3762  -31.3693   26.1342 C   0  0  0  0  0  0
  -27.0436  -30.2989   24.6048 C   0  0  0  0  0  0
  -27.6085  -32.4271   25.7477 C   0  0  0  0  0  0
  -27.5536  -37.1747   24.8475 C   0  0  0  0  0  0
  -21.4296  -29.2945   22.3720 N   0  0  0  0  0  0
  -26.4254  -37.3700   23.9443 N   0  0  0  0  0  0
  -24.7141  -31.0259   22.0883 N   0  0  0  0  0  0
  -23.4311  -28.7952   23.2973 O   0  0  0  0  0  0
  -28.3639  -26.2726   20.0699 O   0  0  0  0  0  0
  -26.5612  -34.8904   22.4635 O   0  0  0  0  0  0
  -23.5573  -32.1215   23.7103 O   0  0  0  0  0  0
  -28.9314  -19.7569   19.6719 C   0  0  0  0  0  0
  -29.0605  -18.3135   19.5699 C   0  0  0  0  0  0
  -29.3340  -20.4871   20.8367 C   0  0  0  0  0  0
  -29.8552  -19.5689   21.8338 C   0  0  0  0  0  0
  -29.6473  -17.4864   20.5869 C   0  0  0  0  0  0
  -30.7496  -22.6270   21.1873 C   0  0  0  0  0  0
  -30.8312  -23.9908   21.8912 C   0  0  0  0  0  0
  -28.5163  -23.3529   20.2399 C   0  0  0  0  0  0
  -29.2977  -22.1296   21.0679 C   0  0  1  0  0  0
  -30.1595  -25.1340   21.0931 C   0  0  1  0  0  0
  -28.6390  -24.9338   20.8017 C   0  0  1  0  0  0
  -30.2922  -20.0302   23.2230 C   0  0  0  0  0  0
  -30.0094  -18.1961   21.6950 N   0  0  0  0  0  0
  -29.5936  -15.9727   20.5239 N   0  0  0  0  0  0
  -30.4138  -26.4266   21.7719 N   0  3  0  0  0  0
  -31.4783  -12.7266   19.1689 H   0  0  0  0  0  0
  -30.4487  -11.5839   19.9836 H   0  0  0  0  0  0
  -29.8226  -11.7373   17.5515 H   0  0  0  0  0  0
  -29.5987  -13.4626   17.6897 H   0  0  0  0  0  0
  -27.9320  -11.2644   18.9495 H   0  0  0  0  0  0
  -27.3758  -12.4594   17.8103 H   0  0  0  0  0  0
  -27.6065  -14.2357   19.4318 H   0  0  0  0  0  0
  -28.7531  -12.1929   21.3979 H   0  0  0  0  0  0
  -28.3823  -13.8504   21.7993 H   0  0  0  0  0  0
  -25.2745   -9.5728   22.4841 H   0  0  0  0  0  0
  -24.0000   -7.4641   22.7499 H   0  0  0  0  0  0
  -21.0842   -8.8731   19.8940 H   0  0  0  0  0  0
  -22.3671  -10.9672   19.6177 H   0  0  0  0  0  0
  -21.1976   -7.6182   23.9750 H   0  0  0  0  0  0
  -21.1443   -6.0540   25.9101 H   0  0  0  0  0  0
  -22.0600   -2.7602   23.2884 H   0  0  0  0  0  0
  -22.3978  -11.9800   22.4688 H   0  0  0  0  0  0
  -21.1030  -13.1266   22.2627 H   0  0  0  0  0  0
  -24.6318  -15.8240   20.4599 H   0  0  0  0  0  0
  -26.2261  -15.6083   19.9597 H   0  0  0  0  0  0
  -26.7269  -32.5318   23.0965 H   0  0  0  0  0  0
  -25.0175  -33.9611   25.0402 H   0  0  0  0  0  0
  -22.7415  -31.2743   21.3775 H   0  0  0  0  0  0
  -23.3779  -35.9494   23.3255 H   0  0  0  0  0  0
  -24.3567  -36.8853   22.2067 H   0  0  0  0  0  0
  -23.7217  -37.6388   23.6706 H   0  0  0  0  0  0
  -26.1179  -31.4656   20.5770 H   0  0  0  0  0  0
  -26.8823  -30.8069   21.9849 H   0  0  0  0  0  0
  -28.1468  -28.8608   21.2062 H   0  0  0  0  0  0
  -25.9907  -25.8098   19.0586 H   0  0  0  0  0  0
  -23.9913  -27.2428   19.0361 H   0  0  0  0  0  0
  -23.8094  -30.5390   19.3992 H   0  0  0  0  0  0
  -22.7906  -29.2061   19.8419 H   0  0  0  0  0  0
  -25.1299  -36.1758   25.0839 H   0  0  0  0  0  0
  -20.9988  -28.3111   24.1425 H   0  0  0  0  0  0
  -20.5664  -26.2174   23.3584 H   0  0  0  0  0  0
  -21.6641  -26.7304   22.1185 H   0  0  0  0  0  0
  -19.6920  -25.6297   21.1156 H   0  0  0  0  0  0
  -19.6770  -27.3232   20.6803 H   0  0  0  0  0  0
  -17.4221  -26.6714   21.3969 H   0  0  0  0  0  0
  -18.0277  -26.0106   22.8992 H   0  0  0  0  0  0
  -19.7993  -30.7297   24.2136 H   0  0  0  0  0  0
  -17.5045  -31.6230   24.5161 H   0  0  0  0  0  0
  -15.5374  -30.2904   23.7760 H   0  0  0  0  0  0
  -15.8714  -28.0837   22.6973 H   0  0  0  0  0  0
  -24.6082  -30.6829   25.7715 H   0  0  0  0  0  0
  -24.8799  -32.2861   26.4538 H   0  0  0  0  0  0
  -25.8097  -30.9116   27.0245 H   0  0  0  0  0  0
  -26.2992  -29.6712   24.1102 H   0  0  0  0  0  0
  -27.4308  -29.7204   25.4455 H   0  0  0  0  0  0
  -27.8776  -30.4404   23.9173 H   0  0  0  0  0  0
  -27.2725  -33.3725   26.1754 H   0  0  0  0  0  0
  -28.4099  -32.6491   25.0416 H   0  0  0  0  0  0
  -28.0472  -31.8522   26.5639 H   0  0  0  0  0  0
  -28.2484  -38.0089   24.7510 H   0  0  0  0  0  0
  -28.1095  -36.2610   24.6309 H   0  0  0  0  0  0
  -27.2256  -37.1371   25.8875 H   0  0  0  0  0  0
  -20.9457  -29.8735   21.6995 H   0  0  0  0  0  0
  -26.0086  -38.2749   24.1507 H   0  0  0  0  0  0
  -28.4952  -20.2883   18.8380 H   0  0  0  0  0  0
  -28.6766  -17.8377   18.6753 H   0  0  0  0  0  0
  -31.3443  -21.9406   21.7806 H   0  0  0  0  0  0
  -31.2303  -22.6485   20.2083 H   0  0  0  0  0  0
  -31.8856  -24.2244   22.0573 H   0  0  0  0  0  0
  -30.3917  -23.9116   22.8847 H   0  0  0  0  0  0
  -27.4588  -23.0969   20.1653 H   0  0  0  0  0  0
  -28.8877  -23.3372   19.2158 H   0  0  0  0  0  0
  -28.8571  -22.2030   22.0625 H   0  0  0  0  0  0
  -30.6671  -25.1900   20.1246 H   0  0  0  0  0  0
  -28.0954  -24.9659   21.7470 H   0  0  0  0  0  0
  -29.7332  -20.8912   23.5873 H   0  0  0  0  0  0
  -31.3565  -20.2704   23.2405 H   0  0  0  0  0  0
  -30.1442  -19.2404   23.9631 H   0  0  0  0  0  0
  -28.6476  -15.6311   20.5648 H   0  0  0  0  0  0
  -29.9926  -26.4596   22.6849 H   0  0  0  0  0  0
  -30.0285  -27.1665   21.2103 H   0  0  0  0  0  0
  -31.3991  -26.5988   21.8704 H   0  0  0  0  0  0
  1 25  1  0  0  0
  1 30  2  0  0  0
  1 84  1  0  0  0
  2  3  1  0  0  0
  2 25  1  0  0  0
  2 86  1  0  0  0
  2 87  1  0  0  0
  3  4  1  0  0  0
  3 88  1  0  0  0
  3 89  1  0  0  0
  4  5  1  0  0  0
  4 90  1  0  0  0
  4 91  1  0  0  0
  5  6  1  0  0  0
  5 26  1  0  0  0
  5 92  1  0  0  0
  6 25  1  0  0  0
  6 93  1  0  0  0
  6 94  1  0  0  0
  7  8  2  0  0  0
  7 26  1  0  0  0
  7 29  1  0  0  0
  8  9  1  0  0  0
  8 22  1  0  0  0
  9 10  1  0  0  0
  9 27  2  0  0  0
 10 11  2  0  0  0
 10 15  1  0  0  0
 11 12  1  0  0  0
 11 95  1  0  0  0
 12 13  2  0  0  0
 12 96  1  0  0  0
 13 14  1  0  0  0
 13 31  1  0  0  0
 14 15  2  0  0  0
 14 97  1  0  0  0
 15 98  1  0  0  0
 16 17  2  0  0  0
 16 21  1  0  0  0
 16 31  1  0  0  0
 17 18  1  0  0  0
 17 99  1  0  0  0
 18 19  2  0  0  0
 18100  1  0  0  0
 19 20  1  0  0  0
 19 24  1  0  0  0
 20 21  2  0  0  0
 20101  1  0  0  0
 21 23  1  0  0  0
 22 28  1  0  0  0
 22 32  2  0  0  0
 26 27  1  0  0  0
 28102  1  0  0  0
 28103  1  0  0  0
 29104  1  0  0  0
 29105  1  0  0  0
 33 34  1  0  0  0
 33 66  1  0  0  0
 33 70  2  0  0  0
 34 36  1  0  0  0
 34 59  1  0  0  0
 34106  1  0  0  0
 35 44  2  0  0  0
 35 45  1  0  0  0
 35 68  1  0  0  0
 36 56  1  0  0  0
 36107  1  0  0  0
 37 39  1  0  0  0
 37 47  1  0  0  0
 37 66  1  0  0  0
 37108  1  0  0  0
 38 43  2  0  0  0
 38 46  1  0  0  0
 38 47  1  0  0  0
 39 64  1  0  0  0
 39 67  2  0  0  0
 40 52  1  0  0  0
 40 53  2  0  0  0
 40 58  1  0  0  0
 41109  1  0  0  0
 41110  1  0  0  0
 41111  1  0  0  0
 41 48  1  0  0  0
 42 43  1  0  0  0
 42 66  1  0  0  0
 42112  1  0  0  0
 42113  1  0  0  0
 43 44  1  0  0  0
 44114  1  0  0  0
 45 46  2  0  0  0
 45115  1  0  0  0
 46116  1  0  0  0
 47117  1  0  0  0
 47118  1  0  0  0
 48 56  1  0  0  0
 48 65  1  0  0  0
 48119  1  0  0  0
 49 50  1  0  0  0
 49 53  1  0  0  0
 49 64  1  0  0  0
 49120  1  0  0  0
 50 51  1  0  0  0
 50121  1  0  0  0
 50122  1  0  0  0
 51 52  1  0  0  0
 51123  1  0  0  0
 51124  1  0  0  0
 52125  1  0  0  0
 52126  1  0  0  0
 53 54  1  0  0  0
 54 55  2  0  0  0
 54127  1  0  0  0
 55 57  1  0  0  0
 55128  1  0  0  0
 56 69  2  0  0  0
 57 58  2  0  0  0
 57129  1  0  0  0
 58130  1  0  0  0
 59 60  1  0  0  0
 59 61  1  0  0  0
 59 62  1  0  0  0
 60131  1  0  0  0
 60132  1  0  0  0
 60133  1  0  0  0
 61134  1  0  0  0
 61135  1  0  0  0
 61136  1  0  0  0
 62137  1  0  0  0
 62138  1  0  0  0
 62139  1  0  0  0
 63 65  1  0  0  0
 63140  1  0  0  0
 63141  1  0  0  0
 63142  1  0  0  0
 64143  1  0  0  0
 65144  1  0  0  0
 68 81  1  0  0  0
 71 72  2  0  0  0
 71 73  1  0  0  0
 71145  1  0  0  0
 72 75  1  0  0  0
 72146  1  0  0  0
 73 74  2  0  0  0
 73 79  1  0  0  0
 74 82  1  0  0  0
 74 83  1  0  0  0
 75 83  2  0  0  0
 75 84  1  0  0  0
 76 77  1  0  0  0
 76 79  1  0  0  0
 76147  1  0  0  0
 76148  1  0  0  0
 77 80  1  0  0  0
 77149  1  0  0  0
 77150  1  0  0  0
 78 79  1  0  0  0
 78 81  1  0  0  0
 78151  1  0  0  0
 78152  1  0  0  0
 79153  1  0  0  0
 80 81  1  0  0  0
 80 85  1  0  0  0
 80154  1  0  0  0
 81155  1  0  0  0
 82156  1  0  0  0
 82157  1  0  0  0
 82158  1  0  0  0
 84159  1  0  0  0
 85160  1  0  0  0
 85161  1  0  0  0
 85162  1  0  0  0
M  CHG  1  85   1
M  ISO  4   1 100  68 101  81 101  84 100
M  END
> <chiral flag>
0

> <version>
0

> <s_m_source_file>
/data/baiqing/PycharmProjects/Reinvent-master-3.2/result/LINK_invent/BTK/process_docking_weight1_custom_sum_contain_oxygen_bond_distance_aromatic_linkinvent_7_9_3/rearranged_h_0128.sdf

> <i_m_source_file_index>
71

> <r_mmod_Potential_Energy-OPLS-2005>
155.208557128906

> <r_mmod_Stretch_Energy-OPLS-2005>
214.907592773438

> <r_mmod_Bend_Energy-OPLS-2005>
288.966552734375

> <r_mmod_Torsional_Energy-OPLS-2005>
290.58642578125

> <r_mmod_Improper_Torsional_Energy-OPLS-2005>
9.14704132080078

> <r_mmod_Van_der_Waal_Energy-OPLS-2005>
133.815948486328

> <r_mmod_Electrostatic_Energy-OPLS-2005>
-452.354919433594

> <r_mmod_Solvation_Energy-OPLS-2005>
-485.430389404297

> <b_mmod_Minimization_Converged-OPLS-2005>
0

> <r_mmod_RMS_Derivative-OPLS-2005>
5.83169984817505

$$$$
71
                    3D
 Structure written by MMmdl.
176185  0  0  1  0            999 V2000
  -30.6998  -14.5099   20.5422 C   0  0  0  0  0  0
  -30.4242  -12.3288   19.4198 C   0  0  0  0  0  0
  -29.4901  -12.4962   18.2018 C   0  0  0  0  0  0
  -28.0113  -12.3619   18.6183 C   0  0  0  0  0  0
  -27.6569  -13.2118   19.8682 C   0  0  2  0  0  0
  -28.7069  -13.0196   20.9877 C   0  0  0  0  0  0
  -25.2580  -13.8150   20.5686 C   0  0  0  0  0  0
  -24.1835  -13.0436   20.9201 C   0  0  0  0  0  0
  -24.6384  -11.6900   20.8744 C   0  0  0  0  0  0
  -23.9049  -10.4280   21.0399 C   0  0  0  0  0  0
  -24.3600   -9.4190   21.9195 C   0  0  0  0  0  0
  -23.6275   -8.2232   22.0755 C   0  0  0  0  0  0
  -22.4267   -8.0275   21.3540 C   0  0  0  0  0  0
  -21.9907   -9.0240   20.4642 C   0  0  0  0  0  0
  -22.7222  -10.2119   20.3052 C   0  0  0  0  0  0
  -21.6857   -6.0731   22.5263 C   0  0  0  0  0  0
  -21.4000   -6.5625   23.8198 C   0  0  0  0  0  0
  -21.3654   -5.6781   24.9168 C   0  0  0  0  0  0
  -21.6040   -4.3052   24.7217 C   0  0  0  0  0  0
  -21.8830   -3.8138   23.4344 C   0  0  0  0  0  0
  -21.9185   -4.6952   22.3395 C   0  0  0  0  0  0
  -22.7860  -13.5232   21.1840 C   0  0  0  0  0  0
  -22.1660   -4.2140   21.0982 F   0  0  0  0  0  0
  -21.5638   -3.4536   25.7739 F   0  0  0  0  0  0
  -30.0292  -13.3323   20.4225 N   0  0  0  0  0  0
  -26.3012  -12.9319   20.3368 N   0  0  0  0  0  0
  -25.9324  -11.6484   20.5796 N   0  0  0  0  0  0
  -22.0493  -12.8226   22.0385 N   0  0  0  0  0  0
  -25.4319  -15.1868   20.4038 N   0  0  0  0  0  0
  -31.8415  -14.6708   20.1088 O   0  0  0  0  0  0
  -21.6630   -6.8871   21.4228 O   0  0  0  0  0  0
  -22.3547  -14.5543   20.6700 O   0  0  0  0  0  0
  -24.6111  -31.8697   23.2050 C   0  0  0  0  0  0
  -25.8997  -32.4800   23.8404 C   0  0  1  0  0  0
  -27.2345  -27.4050   20.0685 C   0  0  0  0  0  0
  -25.5918  -33.8622   24.2338 N   0  0  0  0  0  0
  -23.4035  -30.4903   21.5487 C   0  0  2  0  0  0
  -24.8492  -28.9565   20.1058 C   0  0  0  0  0  0
  -22.7389  -29.4632   22.4947 C   0  0  0  0  0  0
  -18.0282  -28.1288   22.8532 C   0  0  0  0  0  0
  -24.1455  -36.7207   23.2659 C   0  0  0  0  0  0
  -25.9336  -30.8177   21.3675 C   0  0  0  0  0  0
  -26.0090  -29.4512   20.7075 C   0  0  0  0  0  0
  -27.1995  -28.6783   20.6941 C   0  0  0  0  0  0
  -26.0485  -26.9338   19.4663 C   0  0  0  0  0  0
  -24.8633  -27.6976   19.4804 C   0  0  0  0  0  0
  -23.6115  -29.8274   20.1627 C   0  0  0  0  0  0
  -25.4095  -36.3082   24.0361 C   0  0  1  0  0  0
  -20.5880  -28.3581   23.1304 C   0  0  2  0  0  0
  -20.6757  -26.9335   22.5381 C   0  0  0  0  0  0
  -19.5731  -26.6327   21.5184 C   0  0  0  0  0  0
  -18.1908  -26.7825   22.1629 C   0  0  0  0  0  0
  -19.1548  -28.8763   23.2919 C   0  0  0  0  0  0
  -18.9511  -30.1382   23.8916 C   0  0  0  0  0  0
  -17.6515  -30.6550   24.0562 C   0  0  0  0  0  0
  -25.9033  -34.9444   23.5122 C   0  0  0  0  0  0
  -16.5389  -29.9057   23.6322 C   0  0  0  0  0  0
  -16.7287  -28.6434   23.0373 C   0  0  0  0  0  0
  -26.4430  -31.6604   25.0749 C   0  0  0  0  0  0
  -25.3666  -31.3682   26.1490 C   0  0  0  0  0  0
  -27.0297  -30.3089   24.6041 C   0  0  0  0  0  0
  -27.6027  -32.4343   25.7473 C   0  0  0  0  0  0
  -27.5543  -37.1735   24.8504 C   0  0  0  0  0  0
  -21.4117  -29.3001   22.3744 N   0  0  0  0  0  0
  -26.4255  -37.3777   23.9473 N   0  0  0  0  0  0
  -24.6683  -31.0746   22.0991 N   0  0  0  0  0  0
  -23.4184  -28.8147   23.2938 O   0  0  0  0  0  0
  -28.3909  -26.6379   20.1421 O   0  0  0  0  0  0
  -26.5586  -34.8911   22.4676 O   0  0  0  0  0  0
  -23.5305  -32.1500   23.7407 O   0  0  0  0  0  0
  -29.7703  -26.0604   16.6408 C   0  0  0  0  0  0
  -29.1189  -24.7154   16.3023 C   0  0  0  0  0  0
  -27.9851  -20.1992   21.8558 C   0  0  0  0  0  0
  -27.6285  -21.6588   22.1953 C   0  0  0  0  0  0
  -29.0390  -26.7481   17.8040 C   0  0  0  0  0  0
  -29.0678  -23.7887   17.5264 C   0  0  0  0  0  0
  -28.0877  -20.9268   19.3850 C   0  0  0  0  0  0
  -28.7399  -20.0555   20.5156 C   0  0  2  0  0  0
  -26.7211  -22.2620   21.1075 C   0  0  2  0  0  0
  -28.9033  -25.8373   19.0489 C   0  0  2  0  0  0
  -28.3000  -24.4087   18.7221 C   0  0  2  0  0  0
  -27.4760  -22.3267   19.7595 C   0  0  1  0  0  0
  -30.4794  -16.9513   21.1632 C   0  0  0  0  0  0
  -30.1199  -17.9298   20.0002 C   0  0  0  0  0  0
  -29.9882  -15.5585   21.0163 N   0  0  0  0  0  0
  -26.1780  -23.5783   21.5061 N   0  3  0  0  0  0
  -28.7946  -18.6048   20.1288 N   0  3  0  0  0  0
  -28.3897  -23.4560   19.8144 O   0  0  0  0  0  0
  -31.4662  -12.4295   19.1140 H   0  0  0  0  0  0
  -30.3328  -11.3272   19.8406 H   0  0  0  0  0  0
  -29.7294  -11.7502   17.4428 H   0  0  0  0  0  0
  -29.6522  -13.4697   17.7358 H   0  0  0  0  0  0
  -27.8208  -11.3056   18.8213 H   0  0  0  0  0  0
  -27.3609  -12.6307   17.7871 H   0  0  0  0  0  0
  -27.6914  -14.2555   19.5548 H   0  0  0  0  0  0
  -28.6982  -11.9874   21.3403 H   0  0  0  0  0  0
  -28.4743  -13.6343   21.8596 H   0  0  0  0  0  0
  -25.2750   -9.5672   22.4769 H   0  0  0  0  0  0
  -23.9977   -7.4630   22.7475 H   0  0  0  0  0  0
  -21.0845   -8.8746   19.8947 H   0  0  0  0  0  0
  -22.3687  -10.9651   19.6156 H   0  0  0  0  0  0
  -21.1986   -7.6131   23.9697 H   0  0  0  0  0  0
  -21.1466   -6.0518   25.9069 H   0  0  0  0  0  0
  -22.0615   -2.7597   23.2846 H   0  0  0  0  0  0
  -22.4087  -11.9880   22.4784 H   0  0  0  0  0  0
  -21.1087  -13.1226   22.2574 H   0  0  0  0  0  0
  -24.6597  -15.8415   20.4820 H   0  0  0  0  0  0
  -26.2700  -15.6015   20.0174 H   0  0  0  0  0  0
  -26.7035  -32.5527   23.1131 H   0  0  0  0  0  0
  -25.0186  -33.9867   25.0566 H   0  0  0  0  0  0
  -22.6919  -31.3081   21.4125 H   0  0  0  0  0  0
  -23.3774  -35.9480   23.3340 H   0  0  0  0  0  0
  -24.3551  -36.8784   22.2072 H   0  0  0  0  0  0
  -23.7113  -37.6391   23.6623 H   0  0  0  0  0  0
  -26.0537  -31.5845   20.6026 H   0  0  0  0  0  0
  -26.8171  -30.8700   21.9914 H   0  0  0  0  0  0
  -28.0923  -29.0581   21.1690 H   0  0  0  0  0  0
  -25.9951  -25.9723   18.9955 H   0  0  0  0  0  0
  -23.9689  -27.3139   19.0083 H   0  0  0  0  0  0
  -23.7126  -30.6128   19.4104 H   0  0  0  0  0  0
  -22.7309  -29.2537   19.8643 H   0  0  0  0  0  0
  -25.1245  -36.1909   25.0840 H   0  0  0  0  0  0
  -21.0061  -28.3072   24.1383 H   0  0  0  0  0  0
  -20.5573  -26.2202   23.3557 H   0  0  0  0  0  0
  -21.6616  -26.7263   22.1228 H   0  0  0  0  0  0
  -19.6900  -25.6242   21.1194 H   0  0  0  0  0  0
  -19.6637  -27.3159   20.6718 H   0  0  0  0  0  0
  -17.4182  -26.6635   21.4016 H   0  0  0  0  0  0
  -18.0320  -25.9905   22.8961 H   0  0  0  0  0  0
  -19.8009  -30.7206   24.2239 H   0  0  0  0  0  0
  -17.5093  -31.6228   24.5134 H   0  0  0  0  0  0
  -15.5416  -30.2999   23.7588 H   0  0  0  0  0  0
  -15.8661  -28.0774   22.7077 H   0  0  0  0  0  0
  -24.5878  -30.6978   25.7809 H   0  0  0  0  0  0
  -24.8817  -32.2841   26.4905 H   0  0  0  0  0  0
  -25.8050  -30.8897   27.0252 H   0  0  0  0  0  0
  -26.2832  -29.6832   24.1136 H   0  0  0  0  0  0
  -27.4229  -29.7316   25.4414 H   0  0  0  0  0  0
  -27.8545  -30.4537   23.9065 H   0  0  0  0  0  0
  -27.2672  -33.3680   26.1965 H   0  0  0  0  0  0
  -28.3827  -32.6822   25.0269 H   0  0  0  0  0  0
  -28.0637  -31.8504   26.5452 H   0  0  0  0  0  0
  -28.2544  -38.0034   24.7625 H   0  0  0  0  0  0
  -28.1037  -36.2592   24.6243 H   0  0  0  0  0  0
  -27.2285  -37.1276   25.8903 H   0  0  0  0  0  0
  -20.9223  -29.8857   21.7122 H   0  0  0  0  0  0
  -26.0127  -38.2813   24.1612 H   0  0  0  0  0  0
  -29.7689  -26.7135   15.7666 H   0  0  0  0  0  0
  -30.8199  -25.9154   16.9019 H   0  0  0  0  0  0
  -29.6742  -24.2163   15.5033 H   0  0  0  0  0  0
  -28.1147  -24.8770   15.9115 H   0  0  0  0  0  0
  -27.0656  -19.6107   21.8393 H   0  0  0  0  0  0
  -28.5934  -19.7837   22.6604 H   0  0  0  0  0  0
  -28.5372  -22.2518   22.3096 H   0  0  0  0  0  0
  -27.1259  -21.6800   23.1651 H   0  0  0  0  0  0
  -28.0603  -27.0790   17.4650 H   0  0  0  0  0  0
  -29.5866  -27.6558   18.0795 H   0  0  0  0  0  0
  -30.0889  -23.5491   17.8314 H   0  0  0  0  0  0
  -28.6145  -22.8493   17.2115 H   0  0  0  0  0  0
  -27.2667  -20.3459   18.9607 H   0  0  0  0  0  0
  -28.7992  -21.0419   18.5695 H   0  0  0  0  0  0
  -29.7522  -20.4312   20.6731 H   0  0  0  0  0  0
  -25.8529  -21.6098   20.9851 H   0  0  0  0  0  0
  -29.9243  -25.6250   19.3662 H   0  0  0  0  0  0
  -27.2674  -24.5264   18.4082 H   0  0  0  0  0  0
  -26.7289  -22.5231   18.9892 H   0  0  0  0  0  0
  -30.1573  -17.3602   22.1207 H   0  0  0  0  0  0
  -31.5681  -16.9238   21.2323 H   0  0  0  0  0  0
  -30.1396  -17.3847   19.0556 H   0  0  0  0  0  0
  -30.8992  -18.6863   19.9028 H   0  0  0  0  0  0
  -29.0525  -15.3532   21.3316 H   0  0  0  0  0  0
  -26.9100  -24.2695   21.5229 H   0  0  0  0  0  0
  -25.7609  -23.5360   22.4214 H   0  0  0  0  0  0
  -25.4603  -23.8801   20.8685 H   0  0  0  0  0  0
  -28.3631  -18.5218   19.2205 H   0  0  0  0  0  0
  -28.2255  -18.0645   20.7627 H   0  0  0  0  0  0
  1 25  1  0  0  0
  1 30  2  0  0  0
  1 85  1  0  0  0
  2  3  1  0  0  0
  2 25  1  0  0  0
  2 89  1  0  0  0
  2 90  1  0  0  0
  3  4  1  0  0  0
  3 91  1  0  0  0
  3 92  1  0  0  0
  4  5  1  0  0  0
  4 93  1  0  0  0
  4 94  1  0  0  0
  5  6  1  0  0  0
  5 26  1  0  0  0
  5 95  1  0  0  0
  6 25  1  0  0  0
  6 96  1  0  0  0
  6 97  1  0  0  0
  7  8  2  0  0  0
  7 26  1  0  0  0
  7 29  1  0  0  0
  8  9  1  0  0  0
  8 22  1  0  0  0
  9 10  1  0  0  0
  9 27  2  0  0  0
 10 11  2  0  0  0
 10 15  1  0  0  0
 11 12  1  0  0  0
 11 98  1  0  0  0
 12 13  2  0  0  0
 12 99  1  0  0  0
 13 14  1  0  0  0
 13 31  1  0  0  0
 14 15  2  0  0  0
 14100  1  0  0  0
 15101  1  0  0  0
 16 17  2  0  0  0
 16 21  1  0  0  0
 16 31  1  0  0  0
 17 18  1  0  0  0
 17102  1  0  0  0
 18 19  2  0  0  0
 18103  1  0  0  0
 19 20  1  0  0  0
 19 24  1  0  0  0
 20 21  2  0  0  0
 20104  1  0  0  0
 21 23  1  0  0  0
 22 28  1  0  0  0
 22 32  2  0  0  0
 26 27  1  0  0  0
 28105  1  0  0  0
 28106  1  0  0  0
 29107  1  0  0  0
 29108  1  0  0  0
 33 34  1  0  0  0
 33 66  1  0  0  0
 33 70  2  0  0  0
 34 36  1  0  0  0
 34 59  1  0  0  0
 34109  1  0  0  0
 35 44  2  0  0  0
 35 45  1  0  0  0
 35 68  1  0  0  0
 36 56  1  0  0  0
 36110  1  0  0  0
 37 39  1  0  0  0
 37 47  1  0  0  0
 37 66  1  0  0  0
 37111  1  0  0  0
 38 43  2  0  0  0
 38 46  1  0  0  0
 38 47  1  0  0  0
 39 64  1  0  0  0
 39 67  2  0  0  0
 40 52  1  0  0  0
 40 53  2  0  0  0
 40 58  1  0  0  0
 41112  1  0  0  0
 41113  1  0  0  0
 41114  1  0  0  0
 41 48  1  0  0  0
 42 43  1  0  0  0
 42 66  1  0  0  0
 42115  1  0  0  0
 42116  1  0  0  0
 43 44  1  0  0  0
 44117  1  0  0  0
 45 46  2  0  0  0
 45118  1  0  0  0
 46119  1  0  0  0
 47120  1  0  0  0
 47121  1  0  0  0
 48 56  1  0  0  0
 48 65  1  0  0  0
 48122  1  0  0  0
 49 50  1  0  0  0
 49 53  1  0  0  0
 49 64  1  0  0  0
 49123  1  0  0  0
 50 51  1  0  0  0
 50124  1  0  0  0
 50125  1  0  0  0
 51 52  1  0  0  0
 51126  1  0  0  0
 51127  1  0  0  0
 52128  1  0  0  0
 52129  1  0  0  0
 53 54  1  0  0  0
 54 55  2  0  0  0
 54130  1  0  0  0
 55 57  1  0  0  0
 55131  1  0  0  0
 56 69  2  0  0  0
 57 58  2  0  0  0
 57132  1  0  0  0
 58133  1  0  0  0
 59 60  1  0  0  0
 59 61  1  0  0  0
 59 62  1  0  0  0
 60134  1  0  0  0
 60135  1  0  0  0
 60136  1  0  0  0
 61137  1  0  0  0
 61138  1  0  0  0
 61139  1  0  0  0
 62140  1  0  0  0
 62141  1  0  0  0
 62142  1  0  0  0
 63 65  1  0  0  0
 63143  1  0  0  0
 63144  1  0  0  0
 63145  1  0  0  0
 64146  1  0  0  0
 65147  1  0  0  0
 68 80  1  0  0  0
 71 72  1  0  0  0
 71 75  1  0  0  0
 71148  1  0  0  0
 71149  1  0  0  0
 72 76  1  0  0  0
 72150  1  0  0  0
 72151  1  0  0  0
 73 74  1  0  0  0
 73 78  1  0  0  0
 73152  1  0  0  0
 73153  1  0  0  0
 74 79  1  0  0  0
 74154  1  0  0  0
 74155  1  0  0  0
 75 80  1  0  0  0
 75156  1  0  0  0
 75157  1  0  0  0
 76 81  1  0  0  0
 76158  1  0  0  0
 76159  1  0  0  0
 77 78  1  0  0  0
 77 82  1  0  0  0
 77160  1  0  0  0
 77161  1  0  0  0
 78 87  1  0  0  0
 78162  1  0  0  0
 79 82  1  0  0  0
 79 86  1  0  0  0
 79163  1  0  0  0
 80 81  1  0  0  0
 80164  1  0  0  0
 81 88  1  0  0  0
 81165  1  0  0  0
 82 88  1  0  0  0
 82166  1  0  0  0
 83 84  1  0  0  0
 83 85  1  0  0  0
 83167  1  0  0  0
 83168  1  0  0  0
 84 87  1  0  0  0
 84169  1  0  0  0
 84170  1  0  0  0
 85171  1  0  0  0
 86172  1  0  0  0
 86173  1  0  0  0
 86174  1  0  0  0
 87175  1  0  0  0
 87176  1  0  0  0
M  CHG  2  86   1  87   1
M  ISO  4   1 100  68 101  80 101  85 100
M  END
> <chiral flag>
0

> <version>
0

> <s_m_source_file>
/data/baiqing/PycharmProjects/Reinvent-master-3.2/result/LINK_invent/BTK/process_docking_weight1_custom_sum_contain_oxygen_bond_distance_aromatic_linkinvent_7_9_3/rearranged_h_0128.sdf

> <i_m_source_file_index>
72

> <r_mmod_Potential_Energy-OPLS-2005>
-313.295379638672

> <r_mmod_Stretch_Energy-OPLS-2005>
54.1841430664062

> <r_mmod_Bend_Energy-OPLS-2005>
148.32048034668

> <r_mmod_Torsional_Energy-OPLS-2005>
326.39013671875

> <r_mmod_Improper_Torsional_Energy-OPLS-2005>
3.9527702331543

> <r_mmod_Van_der_Waal_Energy-OPLS-2005>
130.077026367188

> <r_mmod_Electrostatic_Energy-OPLS-2005>
-35.9015579223633

> <r_mmod_Solvation_Energy-OPLS-2005>
-960.440368652344

> <b_mmod_Minimization_Converged-OPLS-2005>
0

> <r_mmod_RMS_Derivative-OPLS-2005>
5.88038206100464

$$$$
72
                    3D
 Structure written by MMmdl.
164173  0  0  1  0            999 V2000
  -30.7020  -14.4329   20.5841 C   0  0  0  0  0  0
  -30.4256  -12.2811   19.4225 C   0  0  0  0  0  0
  -29.4974  -12.5059   18.2095 C   0  0  0  0  0  0
  -28.0157  -12.3754   18.6152 C   0  0  0  0  0  0
  -27.6690  -13.2000   19.8840 C   0  0  2  0  0  0
  -28.7095  -12.9483   21.0030 C   0  0  0  0  0  0
  -25.2610  -13.8158   20.5676 C   0  0  0  0  0  0
  -24.1856  -13.0450   20.9168 C   0  0  0  0  0  0
  -24.6403  -11.6912   20.8733 C   0  0  0  0  0  0
  -23.9067  -10.4307   21.0404 C   0  0  0  0  0  0
  -24.3618   -9.4223   21.9187 C   0  0  0  0  0  0
  -23.6299   -8.2253   22.0751 C   0  0  0  0  0  0
  -22.4279   -8.0288   21.3541 C   0  0  0  0  0  0
  -21.9915   -9.0266   20.4650 C   0  0  0  0  0  0
  -22.7234  -10.2149   20.3059 C   0  0  0  0  0  0
  -21.6855   -6.0744   22.5286 C   0  0  0  0  0  0
  -21.4007   -6.5643   23.8224 C   0  0  0  0  0  0
  -21.3667   -5.6790   24.9183 C   0  0  0  0  0  0
  -21.6051   -4.3058   24.7230 C   0  0  0  0  0  0
  -21.8820   -3.8151   23.4349 C   0  0  0  0  0  0
  -21.9191   -4.6972   22.3406 C   0  0  0  0  0  0
  -22.7877  -13.5244   21.1835 C   0  0  0  0  0  0
  -22.1657   -4.2159   21.0981 F   0  0  0  0  0  0
  -21.5645   -3.4539   25.7742 F   0  0  0  0  0  0
  -30.0477  -13.2483   20.4633 N   0  0  0  0  0  0
  -26.3056  -12.9318   20.3391 N   0  0  0  0  0  0
  -25.9328  -11.6488   20.5774 N   0  0  0  0  0  0
  -22.0505  -12.8252   22.0395 N   0  0  0  0  0  0
  -25.4351  -15.1877   20.4087 N   0  0  0  0  0  0
  -31.7932  -14.6624   20.0569 O   0  0  0  0  0  0
  -21.6641   -6.8885   21.4246 O   0  0  0  0  0  0
  -22.3564  -14.5548   20.6676 O   0  0  0  0  0  0
  -24.6122  -31.8680   23.2108 C   0  0  0  0  0  0
  -25.9036  -32.4820   23.8384 C   0  0  1  0  0  0
  -27.2439  -27.4461   20.1020 C   0  0  0  0  0  0
  -25.5902  -33.8621   24.2320 N   0  0  0  0  0  0
  -23.3980  -30.4898   21.5499 C   0  0  2  0  0  0
  -24.8450  -28.9512   20.1213 C   0  0  0  0  0  0
  -22.7392  -29.4654   22.5005 C   0  0  0  0  0  0
  -18.0260  -28.1385   22.8487 C   0  0  0  0  0  0
  -24.1490  -36.7314   23.2635 C   0  0  0  0  0  0
  -25.9228  -30.8387   21.3589 C   0  0  0  0  0  0
  -26.0012  -29.4691   20.7160 C   0  0  0  0  0  0
  -27.1993  -28.7236   20.7032 C   0  0  0  0  0  0
  -26.0685  -26.9382   19.5016 C   0  0  0  0  0  0
  -24.8725  -27.6832   19.5138 C   0  0  0  0  0  0
  -23.6069  -29.8173   20.1656 C   0  0  0  0  0  0
  -25.4111  -36.3101   24.0332 C   0  0  1  0  0  0
  -20.5848  -28.3662   23.1340 C   0  0  2  0  0  0
  -20.6760  -26.9407   22.5431 C   0  0  0  0  0  0
  -19.5744  -26.6395   21.5222 C   0  0  0  0  0  0
  -18.1916  -26.7933   22.1626 C   0  0  0  0  0  0
  -19.1511  -28.8842   23.2901 C   0  0  0  0  0  0
  -18.9448  -30.1451   23.8903 C   0  0  0  0  0  0
  -17.6453  -30.6590   24.0579 C   0  0  0  0  0  0
  -25.9041  -34.9471   23.5120 C   0  0  0  0  0  0
  -16.5341  -29.9100   23.6329 C   0  0  0  0  0  0
  -16.7256  -28.6519   23.0336 C   0  0  0  0  0  0
  -26.4473  -31.6585   25.0700 C   0  0  0  0  0  0
  -25.3749  -31.3694   26.1456 C   0  0  0  0  0  0
  -27.0292  -30.3033   24.6054 C   0  0  0  0  0  0
  -27.6053  -32.4284   25.7460 C   0  0  0  0  0  0
  -27.5576  -37.1811   24.8466 C   0  0  0  0  0  0
  -21.4124  -29.3026   22.3752 N   0  0  0  0  0  0
  -26.4295  -37.3793   23.9405 N   0  0  0  0  0  0
  -24.6625  -31.0797   22.0992 N   0  0  0  0  0  0
  -23.4169  -28.8227   23.3062 O   0  0  0  0  0  0
  -28.4521  -26.7823   20.0769 O   0  0  0  0  0  0
  -26.5604  -34.8922   22.4679 O   0  0  0  0  0  0
  -23.5321  -32.1439   23.7512 O   0  0  0  0  0  0
  -30.7864  -21.9792   21.5511 C   0  0  0  0  0  0
  -30.4419  -21.9796   19.1908 C   0  0  0  0  0  0
  -31.1129  -20.6059   21.5219 C   0  0  0  0  0  0
  -30.7879  -20.6150   19.1366 C   0  0  0  0  0  0
  -30.4133  -22.7230   20.4009 C   0  0  0  0  0  0
  -31.1202  -19.9034   20.3003 C   0  0  0  0  0  0
  -29.6403  -24.8147   19.2560 C   0  0  0  0  0  0
  -28.4902  -25.3473   20.1085 C   0  0  1  0  0  0
  -29.1935  -24.7947   21.3640 C   0  0  1  0  0  0
  -29.0302  -24.0396   23.8077 C   0  0  0  0  0  0
  -30.0168  -16.8163   20.7326 C   0  0  0  0  0  0
  -31.2598  -17.6219   21.1601 C   0  0  0  0  0  0
  -28.4248  -23.9390   22.3953 C   0  0  1  0  0  0
  -30.1543  -24.1412   20.4500 N   0  0  0  0  0  0
  -29.9879  -15.4111   21.1584 N   0  0  0  0  0  0
  -27.1095  -24.4431   22.5288 O   0  0  0  0  0  0
  -31.5274  -18.5952   20.1473 O   0  0  0  0  0  0
  -31.4718  -12.3775   19.1256 H   0  0  0  0  0  0
  -30.3177  -11.2649   19.8039 H   0  0  0  0  0  0
  -29.7331  -11.7952   17.4157 H   0  0  0  0  0  0
  -29.6765  -13.4990   17.7941 H   0  0  0  0  0  0
  -27.8064  -11.3192   18.7878 H   0  0  0  0  0  0
  -27.3746  -12.6795   17.7871 H   0  0  0  0  0  0
  -27.7246  -14.2522   19.6035 H   0  0  0  0  0  0
  -28.6785  -11.9038   21.3166 H   0  0  0  0  0  0
  -28.4753  -13.5247   21.8984 H   0  0  0  0  0  0
  -25.2770   -9.5709   22.4749 H   0  0  0  0  0  0
  -24.0030   -7.4646   22.7463 H   0  0  0  0  0  0
  -21.0852   -8.8787   19.8945 H   0  0  0  0  0  0
  -22.3700  -10.9693   19.6169 H   0  0  0  0  0  0
  -21.1976   -7.6148   23.9731 H   0  0  0  0  0  0
  -21.1492   -6.0517   25.9089 H   0  0  0  0  0  0
  -22.0584   -2.7614   23.2846 H   0  0  0  0  0  0
  -22.4105  -11.9907   22.4787 H   0  0  0  0  0  0
  -21.1125  -13.1294   22.2598 H   0  0  0  0  0  0
  -24.6687  -15.8428   20.5169 H   0  0  0  0  0  0
  -26.2920  -15.6282   20.0964 H   0  0  0  0  0  0
  -26.7108  -32.5547   23.1148 H   0  0  0  0  0  0
  -25.0063  -33.9784   25.0470 H   0  0  0  0  0  0
  -22.6846  -31.3061   21.4103 H   0  0  0  0  0  0
  -23.3739  -35.9662   23.3314 H   0  0  0  0  0  0
  -24.3583  -36.8919   22.2047 H   0  0  0  0  0  0
  -23.7265  -37.6536   23.6642 H   0  0  0  0  0  0
  -26.0267  -31.6009   20.5838 H   0  0  0  0  0  0
  -26.8141  -30.9005   21.9698 H   0  0  0  0  0  0
  -28.0932  -29.1277   21.1578 H   0  0  0  0  0  0
  -26.0639  -25.9861   18.9927 H   0  0  0  0  0  0
  -23.9846  -27.2819   19.0449 H   0  0  0  0  0  0
  -23.7169  -30.5911   19.4050 H   0  0  0  0  0  0
  -22.7322  -29.2361   19.8689 H   0  0  0  0  0  0
  -25.1287  -36.1957   25.0830 H   0  0  0  0  0  0
  -20.9924  -28.3228   24.1471 H   0  0  0  0  0  0
  -20.5691  -26.2265   23.3608 H   0  0  0  0  0  0
  -21.6631  -26.7482   22.1212 H   0  0  0  0  0  0
  -19.6918  -25.6313   21.1233 H   0  0  0  0  0  0
  -19.6690  -27.3223   20.6764 H   0  0  0  0  0  0
  -17.4194  -26.6674   21.4024 H   0  0  0  0  0  0
  -18.0323  -26.0071   22.9019 H   0  0  0  0  0  0
  -19.7926  -30.7269   24.2264 H   0  0  0  0  0  0
  -17.5013  -31.6275   24.5190 H   0  0  0  0  0  0
  -15.5345  -30.3017   23.7652 H   0  0  0  0  0  0
  -15.8645  -28.0868   22.7023 H   0  0  0  0  0  0
  -24.5921  -30.7039   25.7803 H   0  0  0  0  0  0
  -24.8943  -32.2852   26.4902 H   0  0  0  0  0  0
  -25.8113  -30.8869   27.0211 H   0  0  0  0  0  0
  -26.2828  -29.6799   24.1123 H   0  0  0  0  0  0
  -27.4096  -29.7255   25.4487 H   0  0  0  0  0  0
  -27.8641  -30.4356   23.9169 H   0  0  0  0  0  0
  -27.2687  -33.3573   26.2072 H   0  0  0  0  0  0
  -28.3852  -32.6860   25.0281 H   0  0  0  0  0  0
  -28.0733  -31.8383   26.5348 H   0  0  0  0  0  0
  -28.2604  -38.0097   24.7492 H   0  0  0  0  0  0
  -28.1053  -36.2625   24.6301 H   0  0  0  0  0  0
  -27.2288  -37.1482   25.8870 H   0  0  0  0  0  0
  -20.9285  -29.8729   21.6959 H   0  0  0  0  0  0
  -26.0170  -38.2869   24.1410 H   0  0  0  0  0  0
  -30.8767  -22.4715   22.5026 H   0  0  0  0  0  0
  -30.2417  -22.4483   18.2406 H   0  0  0  0  0  0
  -31.4129  -20.1327   22.4452 H   0  0  0  0  0  0
  -30.8181  -20.1150   18.1795 H   0  0  0  0  0  0
  -30.3163  -25.5939   18.9003 H   0  0  0  0  0  0
  -29.2633  -24.2039   18.4381 H   0  0  0  0  0  0
  -27.5611  -24.8186   19.9037 H   0  0  0  0  0  0
  -29.7024  -25.6287   21.8498 H   0  0  0  0  0  0
  -30.1014  -23.8540   23.8210 H   0  0  0  0  0  0
  -28.5670  -23.3271   24.4893 H   0  0  0  0  0  0
  -28.8939  -25.0359   24.2311 H   0  0  0  0  0  0
  -29.9321  -16.8279   19.6439 H   0  0  0  0  0  0
  -29.1212  -17.3193   21.0998 H   0  0  0  0  0  0
  -32.1400  -16.9820   21.2094 H   0  0  0  0  0  0
  -31.1252  -18.0250   22.1624 H   0  0  0  0  0  0
  -28.3411  -22.8983   22.0829 H   0  0  0  0  0  0
  -29.1433  -15.1092   21.6219 H   0  0  0  0  0  0
  -26.6252  -23.8524   23.0974 H   0  0  0  0  0  0
  1 25  1  0  0  0
  1 30  2  0  0  0
  1 85  1  0  0  0
  2  3  1  0  0  0
  2 25  1  0  0  0
  2 88  1  0  0  0
  2 89  1  0  0  0
  3  4  1  0  0  0
  3 90  1  0  0  0
  3 91  1  0  0  0
  4  5  1  0  0  0
  4 92  1  0  0  0
  4 93  1  0  0  0
  5  6  1  0  0  0
  5 26  1  0  0  0
  5 94  1  0  0  0
  6 25  1  0  0  0
  6 95  1  0  0  0
  6 96  1  0  0  0
  7  8  2  0  0  0
  7 26  1  0  0  0
  7 29  1  0  0  0
  8  9  1  0  0  0
  8 22  1  0  0  0
  9 10  1  0  0  0
  9 27  2  0  0  0
 10 11  2  0  0  0
 10 15  1  0  0  0
 11 12  1  0  0  0
 11 97  1  0  0  0
 12 13  2  0  0  0
 12 98  1  0  0  0
 13 14  1  0  0  0
 13 31  1  0  0  0
 14 15  2  0  0  0
 14 99  1  0  0  0
 15100  1  0  0  0
 16 17  2  0  0  0
 16 21  1  0  0  0
 16 31  1  0  0  0
 17 18  1  0  0  0
 17101  1  0  0  0
 18 19  2  0  0  0
 18102  1  0  0  0
 19 20  1  0  0  0
 19 24  1  0  0  0
 20 21  2  0  0  0
 20103  1  0  0  0
 21 23  1  0  0  0
 22 28  1  0  0  0
 22 32  2  0  0  0
 26 27  1  0  0  0
 28104  1  0  0  0
 28105  1  0  0  0
 29106  1  0  0  0
 29107  1  0  0  0
 33 34  1  0  0  0
 33 66  1  0  0  0
 33 70  2  0  0  0
 34 36  1  0  0  0
 34 59  1  0  0  0
 34108  1  0  0  0
 35 44  2  0  0  0
 35 45  1  0  0  0
 35 68  1  0  0  0
 36 56  1  0  0  0
 36109  1  0  0  0
 37 39  1  0  0  0
 37 47  1  0  0  0
 37 66  1  0  0  0
 37110  1  0  0  0
 38 43  2  0  0  0
 38 46  1  0  0  0
 38 47  1  0  0  0
 39 64  1  0  0  0
 39 67  2  0  0  0
 40 52  1  0  0  0
 40 53  2  0  0  0
 40 58  1  0  0  0
 41111  1  0  0  0
 41112  1  0  0  0
 41113  1  0  0  0
 41 48  1  0  0  0
 42 43  1  0  0  0
 42 66  1  0  0  0
 42114  1  0  0  0
 42115  1  0  0  0
 43 44  1  0  0  0
 44116  1  0  0  0
 45 46  2  0  0  0
 45117  1  0  0  0
 46118  1  0  0  0
 47119  1  0  0  0
 47120  1  0  0  0
 48 56  1  0  0  0
 48 65  1  0  0  0
 48121  1  0  0  0
 49 50  1  0  0  0
 49 53  1  0  0  0
 49 64  1  0  0  0
 49122  1  0  0  0
 50 51  1  0  0  0
 50123  1  0  0  0
 50124  1  0  0  0
 51 52  1  0  0  0
 51125  1  0  0  0
 51126  1  0  0  0
 52127  1  0  0  0
 52128  1  0  0  0
 53 54  1  0  0  0
 54 55  2  0  0  0
 54129  1  0  0  0
 55 57  1  0  0  0
 55130  1  0  0  0
 56 69  2  0  0  0
 57 58  2  0  0  0
 57131  1  0  0  0
 58132  1  0  0  0
 59 60  1  0  0  0
 59 61  1  0  0  0
 59 62  1  0  0  0
 60133  1  0  0  0
 60134  1  0  0  0
 60135  1  0  0  0
 61136  1  0  0  0
 61137  1  0  0  0
 61138  1  0  0  0
 62139  1  0  0  0
 62140  1  0  0  0
 62141  1  0  0  0
 63 65  1  0  0  0
 63142  1  0  0  0
 63143  1  0  0  0
 63144  1  0  0  0
 64145  1  0  0  0
 65146  1  0  0  0
 68 78  1  0  0  0
 71 73  2  0  0  0
 71 75  1  0  0  0
 71147  1  0  0  0
 72 74  1  0  0  0
 72 75  2  0  0  0
 72148  1  0  0  0
 73 76  1  0  0  0
 73149  1  0  0  0
 74 76  2  0  0  0
 74150  1  0  0  0
 75 84  1  0  0  0
 76 87  1  0  0  0
 77 78  1  0  0  0
 77 84  1  0  0  0
 77151  1  0  0  0
 77152  1  0  0  0
 78 79  1  0  0  0
 78153  1  0  0  0
 79 83  1  0  0  0
 79 84  1  0  0  0
 79154  1  0  0  0
 80155  1  0  0  0
 80156  1  0  0  0
 80157  1  0  0  0
 80 83  1  0  0  0
 81 82  1  0  0  0
 81 85  1  0  0  0
 81158  1  0  0  0
 81159  1  0  0  0
 82 87  1  0  0  0
 82160  1  0  0  0
 82161  1  0  0  0
 83 86  1  0  0  0
 83162  1  0  0  0
 85163  1  0  0  0
 86164  1  0  0  0
M  ISO  4   1 100  68 101  78 101  85 100
M  END
> <chiral flag>
0

> <version>
0

> <s_m_source_file>
/data/baiqing/PycharmProjects/Reinvent-master-3.2/result/LINK_invent/BTK/process_docking_weight1_custom_sum_contain_oxygen_bond_distance_aromatic_linkinvent_7_9_3/rearranged_h_0128.sdf

> <i_m_source_file_index>
73

> <r_mmod_Potential_Energy-OPLS-2005>
-4.16163921356201

> <r_mmod_Stretch_Energy-OPLS-2005>
39.476001739502

> <r_mmod_Bend_Energy-OPLS-2005>
161.229934692383

> <r_mmod_Torsional_Energy-OPLS-2005>
291.365966796875

> <r_mmod_Improper_Torsional_Energy-OPLS-2005>
13.0498113632202

> <r_mmod_Van_der_Waal_Energy-OPLS-2005>
164.130996704102

> <r_mmod_Electrostatic_Energy-OPLS-2005>
-425.042175292969

> <r_mmod_Solvation_Energy-OPLS-2005>
-257.790313720703

> <b_mmod_Minimization_Converged-OPLS-2005>
0

> <r_mmod_RMS_Derivative-OPLS-2005>
1.87554717063904

$$$$
73
                    3D
 Structure written by MMmdl.
175185  0  0  1  0            999 V2000
  -30.6967  -14.6372   20.5531 C   0  0  0  0  0  0
  -30.4141  -12.4110   19.4575 C   0  0  0  0  0  0
  -29.4863  -12.5264   18.2323 C   0  0  0  0  0  0
  -28.0158  -12.3623   18.6513 C   0  0  0  0  0  0
  -27.6459  -13.2348   19.8809 C   0  0  2  0  0  0
  -28.7043  -13.0931   21.0053 C   0  0  0  0  0  0
  -25.2282  -13.8104   20.5431 C   0  0  0  0  0  0
  -24.1697  -13.0357   20.9243 C   0  0  0  0  0  0
  -24.6379  -11.6881   20.8873 C   0  0  0  0  0  0
  -23.9066  -10.4247   21.0450 C   0  0  0  0  0  0
  -24.3604   -9.4164   21.9221 C   0  0  0  0  0  0
  -23.6304   -8.2179   22.0749 C   0  0  0  0  0  0
  -22.4289   -8.0213   21.3525 C   0  0  0  0  0  0
  -21.9915   -9.0199   20.4644 C   0  0  0  0  0  0
  -22.7240  -10.2096   20.3092 C   0  0  0  0  0  0
  -21.6857   -6.0701   22.5258 C   0  0  0  0  0  0
  -21.4028   -6.5628   23.8194 C   0  0  0  0  0  0
  -21.3678   -5.6799   24.9166 C   0  0  0  0  0  0
  -21.6063   -4.3054   24.7232 C   0  0  0  0  0  0
  -21.8840   -3.8134   23.4354 C   0  0  0  0  0  0
  -21.9198   -4.6925   22.3399 C   0  0  0  0  0  0
  -22.7709  -13.5115   21.1870 C   0  0  0  0  0  0
  -22.1647   -4.2107   21.0977 F   0  0  0  0  0  0
  -21.5642   -3.4558   25.7753 F   0  0  0  0  0  0
  -30.0057  -13.4519   20.4319 N   0  0  0  0  0  0
  -26.2924  -12.9425   20.3458 N   0  0  0  0  0  0
  -25.9343  -11.6560   20.5986 N   0  0  0  0  0  0
  -22.0402  -12.8146   22.0491 N   0  0  0  0  0  0
  -25.3456  -15.1740   20.3107 N   0  0  0  0  0  0
  -31.8325  -14.7365   20.0869 O   0  0  0  0  0  0
  -21.6630   -6.8817   21.4229 O   0  0  0  0  0  0
  -22.3347  -14.5381   20.6696 O   0  0  0  0  0  0
  -24.6274  -31.8616   23.1998 C   0  0  0  0  0  0
  -25.9140  -32.4774   23.8347 C   0  0  1  0  0  0
  -27.2078  -27.3195   20.0945 C   0  0  0  0  0  0
  -25.5953  -33.8582   24.2264 N   0  0  0  0  0  0
  -23.4169  -30.4898   21.5448 C   0  0  2  0  0  0
  -24.8550  -28.9456   20.1082 C   0  0  0  0  0  0
  -22.7468  -29.4661   22.4918 C   0  0  0  0  0  0
  -18.0300  -28.1397   22.8512 C   0  0  0  0  0  0
  -24.1485  -36.7280   23.2635 C   0  0  0  0  0  0
  -25.9610  -30.7886   21.3738 C   0  0  0  0  0  0
  -26.0277  -29.4182   20.7102 C   0  0  0  0  0  0
  -27.2083  -28.6197   20.6902 C   0  0  0  0  0  0
  -26.0056  -26.8974   19.4827 C   0  0  0  0  0  0
  -24.8442  -27.6901   19.4887 C   0  0  0  0  0  0
  -23.6302  -29.8336   20.1578 C   0  0  0  0  0  0
  -25.4113  -36.3070   24.0324 C   0  0  1  0  0  0
  -20.5903  -28.3716   23.1280 C   0  0  2  0  0  0
  -20.6795  -26.9434   22.5407 C   0  0  0  0  0  0
  -19.5759  -26.6398   21.5228 C   0  0  0  0  0  0
  -18.1941  -26.7953   22.1633 C   0  0  0  0  0  0
  -19.1553  -28.8868   23.2899 C   0  0  0  0  0  0
  -18.9471  -30.1485   23.8922 C   0  0  0  0  0  0
  -17.6467  -30.6605   24.0587 C   0  0  0  0  0  0
  -25.9061  -34.9456   23.5074 C   0  0  0  0  0  0
  -16.5359  -29.9118   23.6339 C   0  0  0  0  0  0
  -16.7294  -28.6523   23.0376 C   0  0  0  0  0  0
  -26.4528  -31.6568   25.0725 C   0  0  0  0  0  0
  -25.3753  -31.3744   26.1446 C   0  0  0  0  0  0
  -27.0361  -30.2990   24.6181 C   0  0  0  0  0  0
  -27.6062  -32.4328   25.7522 C   0  0  0  0  0  0
  -27.5574  -37.1800   24.8473 C   0  0  0  0  0  0
  -21.4184  -29.3068   22.3664 N   0  0  0  0  0  0
  -26.4285  -37.3776   23.9418 N   0  0  0  0  0  0
  -24.6873  -31.0649   22.0943 N   0  0  0  0  0  0
  -23.4199  -28.8200   23.2988 O   0  0  0  0  0  0
  -28.3372  -26.4852   20.1217 O   0  0  0  0  0  0
  -26.5598  -34.8921   22.4635 O   0  0  0  0  0  0
  -23.5435  -32.1421   23.7331 O   0  0  0  0  0  0
  -28.3185  -20.0138   25.3127 C   0  0  0  0  0  0
  -28.9846  -20.2630   23.9564 C   0  0  0  0  0  0
  -27.3703  -19.0558   24.5865 C   0  0  0  0  0  0
  -29.4424  -22.7420   19.3789 C   0  0  0  0  0  0
  -27.3429  -22.7123   20.7215 C   0  0  0  0  0  0
  -29.5684  -24.2888   19.6732 C   0  0  0  0  0  0
  -27.4738  -24.2498   20.9855 C   0  0  0  0  0  0
  -27.9489  -16.3422   21.9115 C   0  0  0  0  0  0
  -27.1125  -17.5994   21.9528 C   0  0  0  0  0  0
  -28.4488  -18.8957   23.5037 C   0  0  0  0  0  0
  -29.0879  -16.6833   20.9596 C   0  0  1  0  0  0
  -28.6754  -21.9349   20.4745 C   0  0  1  0  0  0
  -28.2093  -25.0273   19.8592 C   0  0  1  0  0  0
  -29.2857  -18.2582   21.2954 C   0  0  1  0  0  0
  -29.4506  -19.3851   20.1665 C   0  0  0  0  0  0
  -28.1008  -18.6635   22.0893 N   0  0  0  0  0  0
  -30.2076  -15.7136   21.2487 N   0  0  0  0  0  0
  -28.3899  -20.4708   20.1667 N   0  3  0  0  0  0
  -31.4535  -12.5099   19.1434 H   0  0  0  0  0  0
  -30.3350  -11.4178   19.9021 H   0  0  0  0  0  0
  -29.7447  -11.7785   17.4822 H   0  0  0  0  0  0
  -29.6213  -13.5002   17.7541 H   0  0  0  0  0  0
  -27.8587  -11.3094   18.8886 H   0  0  0  0  0  0
  -27.3526  -12.5912   17.8147 H   0  0  0  0  0  0
  -27.6605  -14.2699   19.5443 H   0  0  0  0  0  0
  -28.7304  -12.0676   21.3747 H   0  0  0  0  0  0
  -28.4836  -13.6945   21.8842 H   0  0  0  0  0  0
  -25.2721   -9.5650   22.4823 H   0  0  0  0  0  0
  -24.0003   -7.4576   22.7484 H   0  0  0  0  0  0
  -21.0838   -8.8739   19.8943 H   0  0  0  0  0  0
  -22.3673  -10.9655   19.6218 H   0  0  0  0  0  0
  -21.2019   -7.6133   23.9688 H   0  0  0  0  0  0
  -21.1478   -6.0518   25.9073 H   0  0  0  0  0  0
  -22.0598   -2.7587   23.2865 H   0  0  0  0  0  0
  -22.3997  -11.9807   22.4895 H   0  0  0  0  0  0
  -21.1015  -13.1164   22.2697 H   0  0  0  0  0  0
  -24.5435  -15.7923   20.3647 H   0  0  0  0  0  0
  -26.1518  -15.6041   19.8770 H   0  0  0  0  0  0
  -26.7217  -32.5437   23.1101 H   0  0  0  0  0  0
  -25.0187  -33.9730   25.0466 H   0  0  0  0  0  0
  -22.7116  -31.3115   21.4068 H   0  0  0  0  0  0
  -23.3743  -35.9621   23.3299 H   0  0  0  0  0  0
  -24.3566  -36.8883   22.2047 H   0  0  0  0  0  0
  -23.7254  -37.6487   23.6662 H   0  0  0  0  0  0
  -26.1011  -31.5532   20.6087 H   0  0  0  0  0  0
  -26.8406  -30.8273   22.0043 H   0  0  0  0  0  0
  -28.1101  -28.9825   21.1636 H   0  0  0  0  0  0
  -25.9166  -25.9379   18.9996 H   0  0  0  0  0  0
  -23.9438  -27.3247   19.0156 H   0  0  0  0  0  0
  -23.7622  -30.6168   19.4101 H   0  0  0  0  0  0
  -22.7477  -29.2733   19.8451 H   0  0  0  0  0  0
  -25.1297  -36.1891   25.0816 H   0  0  0  0  0  0
  -21.0023  -28.3298   24.1393 H   0  0  0  0  0  0
  -20.5719  -26.2334   23.3612 H   0  0  0  0  0  0
  -21.6667  -26.7480   22.1188 H   0  0  0  0  0  0
  -19.6898  -25.6307   21.1264 H   0  0  0  0  0  0
  -19.6691  -27.3212   20.6759 H   0  0  0  0  0  0
  -17.4218  -26.6757   21.4014 H   0  0  0  0  0  0
  -18.0308  -26.0080   22.9000 H   0  0  0  0  0  0
  -19.7946  -30.7312   24.2271 H   0  0  0  0  0  0
  -17.5026  -31.6288   24.5191 H   0  0  0  0  0  0
  -15.5368  -30.3029   23.7640 H   0  0  0  0  0  0
  -15.8691  -28.0844   22.7083 H   0  0  0  0  0  0
  -24.5946  -30.7053   25.7804 H   0  0  0  0  0  0
  -24.8938  -32.2933   26.4815 H   0  0  0  0  0  0
  -25.8084  -30.8987   27.0249 H   0  0  0  0  0  0
  -26.2916  -29.6738   24.1249 H   0  0  0  0  0  0
  -27.4086  -29.7269   25.4674 H   0  0  0  0  0  0
  -27.8782  -30.4260   23.9383 H   0  0  0  0  0  0
  -27.2636  -33.3635   26.2063 H   0  0  0  0  0  0
  -28.3920  -32.6859   25.0396 H   0  0  0  0  0  0
  -28.0679  -31.8481   26.5474 H   0  0  0  0  0  0
  -28.2598  -38.0085   24.7510 H   0  0  0  0  0  0
  -28.1043  -36.2619   24.6304 H   0  0  0  0  0  0
  -27.2289  -37.1464   25.8869 H   0  0  0  0  0  0
  -20.9313  -29.8776   21.6896 H   0  0  0  0  0  0
  -26.0132  -38.2837   24.1424 H   0  0  0  0  0  0
  -27.8319  -20.8816   25.7592 H   0  0  0  0  0  0
  -28.9729  -19.5065   26.0234 H   0  0  0  0  0  0
  -30.0728  -20.3468   23.9828 H   0  0  0  0  0  0
  -28.5302  -21.1022   23.4271 H   0  0  0  0  0  0
  -26.4632  -19.5416   24.2239 H   0  0  0  0  0  0
  -27.1434  -18.1370   25.1309 H   0  0  0  0  0  0
  -30.4420  -22.3224   19.2627 H   0  0  0  0  0  0
  -28.9449  -22.6086   18.4159 H   0  0  0  0  0  0
  -26.6914  -22.5821   19.8561 H   0  0  0  0  0  0
  -26.8073  -22.2629   21.5596 H   0  0  0  0  0  0
  -30.1171  -24.7597   18.8566 H   0  0  0  0  0  0
  -30.1804  -24.4353   20.5646 H   0  0  0  0  0  0
  -27.9997  -24.4043   21.9282 H   0  0  0  0  0  0
  -26.4760  -24.6633   21.1326 H   0  0  0  0  0  0
  -27.3718  -15.4836   21.6073 H   0  0  0  0  0  0
  -28.3185  -16.1187   22.9127 H   0  0  0  0  0  0
  -26.3540  -17.5796   22.7353 H   0  0  0  0  0  0
  -26.5793  -17.7244   21.0090 H   0  0  0  0  0  0
  -29.1292  -18.1009   23.8265 H   0  0  0  0  0  0
  -28.7531  -16.5673   19.9275 H   0  0  0  0  0  0
  -29.2676  -21.9677   21.3883 H   0  0  0  0  0  0
  -27.6885  -24.8796   18.9133 H   0  0  0  0  0  0
  -30.1742  -18.3415   21.9240 H   0  0  0  0  0  0
  -29.4410  -18.9139   19.1831 H   0  0  0  0  0  0
  -30.4320  -19.8538   20.2470 H   0  0  0  0  0  0
  -30.9931  -16.2185   21.6311 H   0  0  0  0  0  0
  -27.8617  -20.3982   19.3134 H   0  0  0  0  0  0
  -27.7911  -20.1278   20.9100 H   0  0  0  0  0  0
  1 25  1  0  0  0
  1 30  2  0  0  0
  1 87  1  0  0  0
  2  3  1  0  0  0
  2 25  1  0  0  0
  2 89  1  0  0  0
  2 90  1  0  0  0
  3  4  1  0  0  0
  3 91  1  0  0  0
  3 92  1  0  0  0
  4  5  1  0  0  0
  4 93  1  0  0  0
  4 94  1  0  0  0
  5  6  1  0  0  0
  5 26  1  0  0  0
  5 95  1  0  0  0
  6 25  1  0  0  0
  6 96  1  0  0  0
  6 97  1  0  0  0
  7  8  2  0  0  0
  7 26  1  0  0  0
  7 29  1  0  0  0
  8  9  1  0  0  0
  8 22  1  0  0  0
  9 10  1  0  0  0
  9 27  2  0  0  0
 10 11  2  0  0  0
 10 15  1  0  0  0
 11 12  1  0  0  0
 11 98  1  0  0  0
 12 13  2  0  0  0
 12 99  1  0  0  0
 13 14  1  0  0  0
 13 31  1  0  0  0
 14 15  2  0  0  0
 14100  1  0  0  0
 15101  1  0  0  0
 16 17  2  0  0  0
 16 21  1  0  0  0
 16 31  1  0  0  0
 17 18  1  0  0  0
 17102  1  0  0  0
 18 19  2  0  0  0
 18103  1  0  0  0
 19 20  1  0  0  0
 19 24  1  0  0  0
 20 21  2  0  0  0
 20104  1  0  0  0
 21 23  1  0  0  0
 22 28  1  0  0  0
 22 32  2  0  0  0
 26 27  1  0  0  0
 28105  1  0  0  0
 28106  1  0  0  0
 29107  1  0  0  0
 29108  1  0  0  0
 33 34  1  0  0  0
 33 66  1  0  0  0
 33 70  2  0  0  0
 34 36  1  0  0  0
 34 59  1  0  0  0
 34109  1  0  0  0
 35 44  2  0  0  0
 35 45  1  0  0  0
 35 68  1  0  0  0
 36 56  1  0  0  0
 36110  1  0  0  0
 37 39  1  0  0  0
 37 47  1  0  0  0
 37 66  1  0  0  0
 37111  1  0  0  0
 38 43  2  0  0  0
 38 46  1  0  0  0
 38 47  1  0  0  0
 39 64  1  0  0  0
 39 67  2  0  0  0
 40 52  1  0  0  0
 40 53  2  0  0  0
 40 58  1  0  0  0
 41112  1  0  0  0
 41113  1  0  0  0
 41114  1  0  0  0
 41 48  1  0  0  0
 42 43  1  0  0  0
 42 66  1  0  0  0
 42115  1  0  0  0
 42116  1  0  0  0
 43 44  1  0  0  0
 44117  1  0  0  0
 45 46  2  0  0  0
 45118  1  0  0  0
 46119  1  0  0  0
 47120  1  0  0  0
 47121  1  0  0  0
 48 56  1  0  0  0
 48 65  1  0  0  0
 48122  1  0  0  0
 49 50  1  0  0  0
 49 53  1  0  0  0
 49 64  1  0  0  0
 49123  1  0  0  0
 50 51  1  0  0  0
 50124  1  0  0  0
 50125  1  0  0  0
 51 52  1  0  0  0
 51126  1  0  0  0
 51127  1  0  0  0
 52128  1  0  0  0
 52129  1  0  0  0
 53 54  1  0  0  0
 54 55  2  0  0  0
 54130  1  0  0  0
 55 57  1  0  0  0
 55131  1  0  0  0
 56 69  2  0  0  0
 57 58  2  0  0  0
 57132  1  0  0  0
 58133  1  0  0  0
 59 60  1  0  0  0
 59 61  1  0  0  0
 59 62  1  0  0  0
 60134  1  0  0  0
 60135  1  0  0  0
 60136  1  0  0  0
 61137  1  0  0  0
 61138  1  0  0  0
 61139  1  0  0  0
 62140  1  0  0  0
 62141  1  0  0  0
 62142  1  0  0  0
 63 65  1  0  0  0
 63143  1  0  0  0
 63144  1  0  0  0
 63145  1  0  0  0
 64146  1  0  0  0
 65147  1  0  0  0
 68 83  1  0  0  0
 71 72  1  0  0  0
 71 73  1  0  0  0
 71148  1  0  0  0
 71149  1  0  0  0
 72 80  1  0  0  0
 72150  1  0  0  0
 72151  1  0  0  0
 73 80  1  0  0  0
 73152  1  0  0  0
 73153  1  0  0  0
 74 76  1  0  0  0
 74 82  1  0  0  0
 74154  1  0  0  0
 74155  1  0  0  0
 75 77  1  0  0  0
 75 82  1  0  0  0
 75156  1  0  0  0
 75157  1  0  0  0
 76 83  1  0  0  0
 76158  1  0  0  0
 76159  1  0  0  0
 77 83  1  0  0  0
 77160  1  0  0  0
 77161  1  0  0  0
 78 79  1  0  0  0
 78 81  1  0  0  0
 78162  1  0  0  0
 78163  1  0  0  0
 79 86  1  0  0  0
 79164  1  0  0  0
 79165  1  0  0  0
 80166  1  0  0  0
 80 86  1  0  0  0
 81 84  1  0  0  0
 81 87  1  0  0  0
 81167  1  0  0  0
 82 88  1  0  0  0
 82168  1  0  0  0
 83169  1  0  0  0
 84 85  1  0  0  0
 84 86  1  0  0  0
 84170  1  0  0  0
 85 88  1  0  0  0
 85171  1  0  0  0
 85172  1  0  0  0
 87173  1  0  0  0
 88174  1  0  0  0
 88175  1  0  0  0
M  CHG  1  88   1
M  ISO  4   1 100  68 101  83 101  87 100
M  END
> <chiral flag>
0

> <version>
0

> <s_m_source_file>
/data/baiqing/PycharmProjects/Reinvent-master-3.2/result/LINK_invent/BTK/process_docking_weight1_custom_sum_contain_oxygen_bond_distance_aromatic_linkinvent_7_9_3/rearranged_h_0128.sdf

> <i_m_source_file_index>
74

> <r_mmod_Potential_Energy-OPLS-2005>
84.2708282470703

> <r_mmod_Stretch_Energy-OPLS-2005>
90.1101455688477

> <r_mmod_Bend_Energy-OPLS-2005>
224.043167114258

> <r_mmod_Torsional_Energy-OPLS-2005>
405.879547119141

> <r_mmod_Improper_Torsional_Energy-OPLS-2005>
6.18490409851074

> <r_mmod_Van_der_Waal_Energy-OPLS-2005>
132.722671508789

> <r_mmod_Electrostatic_Energy-OPLS-2005>
-382.606964111328

> <r_mmod_Solvation_Energy-OPLS-2005>
-440.179412841797

> <b_mmod_Minimization_Converged-OPLS-2005>
0

> <r_mmod_RMS_Derivative-OPLS-2005>
4.17286396026611

$$$$
74
                    3D
 Structure written by MMmdl.
149157  0  0  1  0            999 V2000
  -30.4498  -15.2210   20.3813 C   0  0  0  0  0  0
  -30.4403  -12.7796   19.5164 C   0  0  0  0  0  0
  -29.5325  -12.5711   18.2788 C   0  0  0  0  0  0
  -28.0776  -12.3041   18.7046 C   0  0  0  0  0  0
  -27.6134  -13.2711   19.8232 C   0  0  2  0  0  0
  -28.6502  -13.4241   20.9558 C   0  0  0  0  0  0
  -25.2396  -13.8241   20.5752 C   0  0  0  0  0  0
  -24.1741  -13.0432   20.9258 C   0  0  0  0  0  0
  -24.6392  -11.6929   20.8755 C   0  0  0  0  0  0
  -23.9087  -10.4288   21.0398 C   0  0  0  0  0  0
  -24.3631   -9.4202   21.9175 C   0  0  0  0  0  0
  -23.6305   -8.2238   22.0745 C   0  0  0  0  0  0
  -22.4284   -8.0276   21.3542 C   0  0  0  0  0  0
  -21.9925   -9.0248   20.4639 C   0  0  0  0  0  0
  -22.7256  -10.2126   20.3049 C   0  0  0  0  0  0
  -21.6854   -6.0735   22.5278 C   0  0  0  0  0  0
  -21.4013   -6.5636   23.8213 C   0  0  0  0  0  0
  -21.3661   -5.6787   24.9174 C   0  0  0  0  0  0
  -21.6047   -4.3051   24.7222 C   0  0  0  0  0  0
  -21.8819   -3.8145   23.4341 C   0  0  0  0  0  0
  -21.9191   -4.6962   22.3398 C   0  0  0  0  0  0
  -22.7759  -13.5187   21.1906 C   0  0  0  0  0  0
  -22.1662   -4.2152   21.0976 F   0  0  0  0  0  0
  -21.5634   -3.4531   25.7731 F   0  0  0  0  0  0
  -29.8852  -13.9197   20.3289 N   0  0  0  0  0  0
  -26.2821  -12.9511   20.3212 N   0  0  0  0  0  0
  -25.9328  -11.6618   20.5711 N   0  0  0  0  0  0
  -22.0417  -12.8166   22.0456 N   0  0  0  0  0  0
  -25.4026  -15.1980   20.4207 N   0  0  0  0  0  0
  -31.6735  -15.2343   20.1885 O   0  0  0  0  0  0
  -21.6643   -6.8877   21.4242 O   0  0  0  0  0  0
  -22.3436  -14.5487   20.6742 O   0  0  0  0  0  0
  -24.6587  -31.8273   23.1720 C   0  0  0  0  0  0
  -25.9292  -32.4605   23.8174 C   0  0  1  0  0  0
  -27.2230  -26.9561   20.1933 C   0  0  0  0  0  0
  -25.5971  -33.8415   24.2086 N   0  0  0  0  0  0
  -23.4718  -30.4384   21.5202 C   0  0  2  0  0  0
  -24.9241  -28.8215   20.1189 C   0  0  0  0  0  0
  -22.7640  -29.4465   22.4794 C   0  0  0  0  0  0
  -18.0319  -28.1414   22.8469 C   0  0  0  0  0  0
  -24.1489  -36.7214   23.2649 C   0  0  0  0  0  0
  -26.0367  -30.6426   21.3973 C   0  0  0  0  0  0
  -26.1039  -29.2307   20.7521 C   0  0  0  0  0  0
  -27.2462  -28.3180   20.7659 C   0  0  0  0  0  0
  -26.0154  -26.6882   19.5124 C   0  0  0  0  0  0
  -24.9020  -27.5692   19.4817 C   0  0  0  0  0  0
  -23.7101  -29.7485   20.1477 C   0  0  0  0  0  0
  -25.4131  -36.2979   24.0302 C   0  0  1  0  0  0
  -20.5939  -28.3756   23.1194 C   0  0  2  0  0  0
  -20.6796  -26.9442   22.5405 C   0  0  0  0  0  0
  -19.5771  -26.6384   21.5215 C   0  0  0  0  0  0
  -18.1952  -26.7947   22.1624 C   0  0  0  0  0  0
  -19.1578  -28.8904   23.2823 C   0  0  0  0  0  0
  -18.9490  -30.1492   23.8863 C   0  0  0  0  0  0
  -17.6484  -30.6601   24.0559 C   0  0  0  0  0  0
  -25.9092  -34.9362   23.5016 C   0  0  0  0  0  0
  -16.5375  -29.9090   23.6341 C   0  0  0  0  0  0
  -16.7302  -28.6511   23.0361 C   0  0  0  0  0  0
  -26.4550  -31.6534   25.0689 C   0  0  0  0  0  0
  -25.3682  -31.3778   26.1345 C   0  0  0  0  0  0
  -27.0436  -30.2905   24.6393 C   0  0  0  0  0  0
  -27.6047  -32.4329   25.7496 C   0  0  0  0  0  0
  -27.5563  -37.1773   24.8471 C   0  0  0  0  0  0
  -21.4315  -29.3052   22.3540 N   0  0  0  0  0  0
  -26.4278  -37.3708   23.9407 N   0  0  0  0  0  0
  -24.7435  -30.9964   22.0836 N   0  0  0  0  0  0
  -23.4202  -28.8043   23.3035 O   0  0  0  0  0  0
  -28.2875  -25.9229   20.1924 O   0  0  0  0  0  0
  -26.5698  -34.8893   22.4607 O   0  0  0  0  0  0
  -23.5667  -32.1224   23.6838 O   0  0  0  0  0  0
  -27.7054  -23.4614   21.1696 C   0  0  0  0  0  0
  -29.3746  -22.2447   19.4452 C   0  0  0  0  0  0
  -27.9331  -21.9942   21.2130 C   0  0  0  0  0  0
  -28.8058  -21.2264   20.3239 C   0  0  0  0  0  0
  -28.2985  -24.3901   20.2337 C   0  0  0  0  0  0
  -27.1575  -21.2303   22.2692 C   0  0  0  0  0  0
  -28.8431  -19.4808   20.1522 C   0  0  0  0  0  0
  -29.9337  -18.1180   20.5208 C   0  0  0  0  0  0
  -29.1688  -23.6580   19.4212 N   0  0  0  0  0  0
  -29.6714  -16.4747   20.4518 N   0  0  0  0  0  0
  -31.4594  -12.9833   19.1856 H   0  0  0  0  0  0
  -30.5017  -11.8687   20.1139 H   0  0  0  0  0  0
  -29.9035  -11.7477   17.6672 H   0  0  0  0  0  0
  -29.5709  -13.4615   17.6495 H   0  0  0  0  0  0
  -28.0235  -11.2764   19.0641 H   0  0  0  0  0  0
  -27.4106  -12.3627   17.8439 H   0  0  0  0  0  0
  -27.5340  -14.2441   19.3367 H   0  0  0  0  0  0
  -28.8099  -12.4834   21.4845 H   0  0  0  0  0  0
  -28.2990  -14.1423   21.6980 H   0  0  0  0  0  0
  -25.2769   -9.5682   22.4760 H   0  0  0  0  0  0
  -24.0009   -7.4632   22.7470 H   0  0  0  0  0  0
  -21.0855   -8.8769   19.8950 H   0  0  0  0  0  0
  -22.3706  -10.9666   19.6166 H   0  0  0  0  0  0
  -21.2001   -7.6144   23.9716 H   0  0  0  0  0  0
  -21.1491   -6.0517   25.9079 H   0  0  0  0  0  0
  -22.0595   -2.7610   23.2837 H   0  0  0  0  0  0
  -22.4047  -11.9835   22.4843 H   0  0  0  0  0  0
  -21.1021  -13.1168   22.2651 H   0  0  0  0  0  0
  -24.6293  -15.8439   20.5364 H   0  0  0  0  0  0
  -26.2392  -15.6422   20.0669 H   0  0  0  0  0  0
  -26.7360  -32.5163   23.0890 H   0  0  0  0  0  0
  -25.0070  -33.9496   25.0203 H   0  0  0  0  0  0
  -22.7841  -31.2689   21.3490 H   0  0  0  0  0  0
  -23.3755  -35.9541   23.3296 H   0  0  0  0  0  0
  -24.3564  -36.8871   22.2066 H   0  0  0  0  0  0
  -23.7248  -37.6403   23.6706 H   0  0  0  0  0  0
  -26.2091  -31.3796   20.6115 H   0  0  0  0  0  0
  -26.9004  -30.7057   22.0476 H   0  0  0  0  0  0
  -28.1474  -28.6374   21.2698 H   0  0  0  0  0  0
  -25.9120  -25.7342   19.0147 H   0  0  0  0  0  0
  -24.0054  -27.2519   18.9670 H   0  0  0  0  0  0
  -23.8661  -30.5142   19.3872 H   0  0  0  0  0  0
  -22.8197  -29.2019   19.8320 H   0  0  0  0  0  0
  -25.1333  -36.1775   25.0794 H   0  0  0  0  0  0
  -21.0036  -28.3366   24.1317 H   0  0  0  0  0  0
  -20.5674  -26.2382   23.3648 H   0  0  0  0  0  0
  -21.6661  -26.7423   22.1218 H   0  0  0  0  0  0
  -19.6932  -25.6284   21.1274 H   0  0  0  0  0  0
  -19.6705  -27.3168   20.6724 H   0  0  0  0  0  0
  -17.4222  -26.6694   21.4025 H   0  0  0  0  0  0
  -18.0352  -26.0096   22.9030 H   0  0  0  0  0  0
  -19.7965  -30.7322   24.2214 H   0  0  0  0  0  0
  -17.5035  -31.6277   24.5174 H   0  0  0  0  0  0
  -15.5374  -30.2984   23.7681 H   0  0  0  0  0  0
  -15.8706  -28.0818   22.7095 H   0  0  0  0  0  0
  -24.5880  -30.7109   25.7653 H   0  0  0  0  0  0
  -24.8850  -32.2978   26.4641 H   0  0  0  0  0  0
  -25.7914  -30.9031   27.0206 H   0  0  0  0  0  0
  -26.3091  -29.6589   24.1381 H   0  0  0  0  0  0
  -27.3961  -29.7257   25.5034 H   0  0  0  0  0  0
  -27.9035  -30.4095   23.9800 H   0  0  0  0  0  0
  -27.2618  -33.3666   26.1965 H   0  0  0  0  0  0
  -28.3918  -32.6822   25.0370 H   0  0  0  0  0  0
  -28.0646  -31.8527   26.5508 H   0  0  0  0  0  0
  -28.2584  -38.0061   24.7486 H   0  0  0  0  0  0
  -28.1051  -36.2588   24.6335 H   0  0  0  0  0  0
  -27.2277  -37.1463   25.8873 H   0  0  0  0  0  0
  -20.9560  -29.8728   21.6659 H   0  0  0  0  0  0
  -26.0127  -38.2773   24.1388 H   0  0  0  0  0  0
  -27.0440  -23.8931   21.9084 H   0  0  0  0  0  0
  -30.0294  -21.9023   18.6577 H   0  0  0  0  0  0
  -27.6925  -20.3380   22.5943 H   0  0  0  0  0  0
  -26.1853  -20.9288   21.8791 H   0  0  0  0  0  0
  -26.9936  -21.8464   23.1537 H   0  0  0  0  0  0
  -28.6580  -19.3659   19.0837 H   0  0  0  0  0  0
  -27.8958  -19.1713   20.5914 H   0  0  0  0  0  0
  -30.2493  -18.2758   21.5525 H   0  0  0  0  0  0
  -30.8418  -18.2848   19.9400 H   0  0  0  0  0  0
  -28.6876  -16.2606   20.5255 H   0  0  0  0  0  0
  1 25  1  0  0  0
  1 30  2  0  0  0
  1 80  1  0  0  0
  2  3  1  0  0  0
  2 25  1  0  0  0
  2 81  1  0  0  0
  2 82  1  0  0  0
  3  4  1  0  0  0
  3 83  1  0  0  0
  3 84  1  0  0  0
  4  5  1  0  0  0
  4 85  1  0  0  0
  4 86  1  0  0  0
  5  6  1  0  0  0
  5 26  1  0  0  0
  5 87  1  0  0  0
  6 25  1  0  0  0
  6 88  1  0  0  0
  6 89  1  0  0  0
  7  8  2  0  0  0
  7 26  1  0  0  0
  7 29  1  0  0  0
  8  9  1  0  0  0
  8 22  1  0  0  0
  9 10  1  0  0  0
  9 27  2  0  0  0
 10 11  2  0  0  0
 10 15  1  0  0  0
 11 12  1  0  0  0
 11 90  1  0  0  0
 12 13  2  0  0  0
 12 91  1  0  0  0
 13 14  1  0  0  0
 13 31  1  0  0  0
 14 15  2  0  0  0
 14 92  1  0  0  0
 15 93  1  0  0  0
 16 17  2  0  0  0
 16 21  1  0  0  0
 16 31  1  0  0  0
 17 18  1  0  0  0
 17 94  1  0  0  0
 18 19  2  0  0  0
 18 95  1  0  0  0
 19 20  1  0  0  0
 19 24  1  0  0  0
 20 21  2  0  0  0
 20 96  1  0  0  0
 21 23  1  0  0  0
 22 28  1  0  0  0
 22 32  2  0  0  0
 26 27  1  0  0  0
 28 97  1  0  0  0
 28 98  1  0  0  0
 29 99  1  0  0  0
 29100  1  0  0  0
 33 34  1  0  0  0
 33 66  1  0  0  0
 33 70  2  0  0  0
 34 36  1  0  0  0
 34 59  1  0  0  0
 34101  1  0  0  0
 35 44  2  0  0  0
 35 45  1  0  0  0
 35 68  1  0  0  0
 36 56  1  0  0  0
 36102  1  0  0  0
 37 39  1  0  0  0
 37 47  1  0  0  0
 37 66  1  0  0  0
 37103  1  0  0  0
 38 43  2  0  0  0
 38 46  1  0  0  0
 38 47  1  0  0  0
 39 64  1  0  0  0
 39 67  2  0  0  0
 40 52  1  0  0  0
 40 53  2  0  0  0
 40 58  1  0  0  0
 41104  1  0  0  0
 41105  1  0  0  0
 41106  1  0  0  0
 41 48  1  0  0  0
 42 43  1  0  0  0
 42 66  1  0  0  0
 42107  1  0  0  0
 42108  1  0  0  0
 43 44  1  0  0  0
 44109  1  0  0  0
 45 46  2  0  0  0
 45110  1  0  0  0
 46111  1  0  0  0
 47112  1  0  0  0
 47113  1  0  0  0
 48 56  1  0  0  0
 48 65  1  0  0  0
 48114  1  0  0  0
 49 50  1  0  0  0
 49 53  1  0  0  0
 49 64  1  0  0  0
 49115  1  0  0  0
 50 51  1  0  0  0
 50116  1  0  0  0
 50117  1  0  0  0
 51 52  1  0  0  0
 51118  1  0  0  0
 51119  1  0  0  0
 52120  1  0  0  0
 52121  1  0  0  0
 53 54  1  0  0  0
 54 55  2  0  0  0
 54122  1  0  0  0
 55 57  1  0  0  0
 55123  1  0  0  0
 56 69  2  0  0  0
 57 58  2  0  0  0
 57124  1  0  0  0
 58125  1  0  0  0
 59 60  1  0  0  0
 59 61  1  0  0  0
 59 62  1  0  0  0
 60126  1  0  0  0
 60127  1  0  0  0
 60128  1  0  0  0
 61129  1  0  0  0
 61130  1  0  0  0
 61131  1  0  0  0
 62132  1  0  0  0
 62133  1  0  0  0
 62134  1  0  0  0
 63 65  1  0  0  0
 63135  1  0  0  0
 63136  1  0  0  0
 63137  1  0  0  0
 64138  1  0  0  0
 65139  1  0  0  0
 68 75  1  0  0  0
 71 73  2  0  0  0
 71 75  1  0  0  0
 71140  1  0  0  0
 72 74  2  0  0  0
 72 79  1  0  0  0
 72141  1  0  0  0
 73 74  1  0  0  0
 73 76  1  0  0  0
 74 77  1  0  0  0
 75 79  2  0  0  0
 76142  1  0  0  0
 76143  1  0  0  0
 76144  1  0  0  0
 77 78  1  0  0  0
 77145  1  0  0  0
 77146  1  0  0  0
 78 80  1  0  0  0
 78147  1  0  0  0
 78148  1  0  0  0
 80149  1  0  0  0
M  ISO  4   1 100  68 101  75 101  80 100
M  END
> <chiral flag>
0

> <version>
0

> <s_m_source_file>
/data/baiqing/PycharmProjects/Reinvent-master-3.2/result/LINK_invent/BTK/process_docking_weight1_custom_sum_contain_oxygen_bond_distance_aromatic_linkinvent_7_9_3/rearranged_h_0128.sdf

> <i_m_source_file_index>
75

> <r_mmod_Potential_Energy-OPLS-2005>
900.765075683594

> <r_mmod_Stretch_Energy-OPLS-2005>
471.230072021484

> <r_mmod_Bend_Energy-OPLS-2005>
412.963134765625

> <r_mmod_Torsional_Energy-OPLS-2005>
215.664916992188

> <r_mmod_Improper_Torsional_Energy-OPLS-2005>
7.32455253601074

> <r_mmod_Van_der_Waal_Energy-OPLS-2005>
128.689376831055

> <r_mmod_Electrostatic_Energy-OPLS-2005>
-507.28857421875

> <r_mmod_Solvation_Energy-OPLS-2005>
-230.33625793457

> <b_mmod_Minimization_Converged-OPLS-2005>
0

> <r_mmod_RMS_Derivative-OPLS-2005>
1.07635641098022

$$$$
75
                    3D
 Structure written by MMmdl.
175185  0  0  1  0            999 V2000
  -30.7327  -14.5737   20.5158 C   0  0  0  0  0  0
  -30.4019  -12.3584   19.4599 C   0  0  0  0  0  0
  -29.4910  -12.4935   18.2252 C   0  0  0  0  0  0
  -28.0189  -12.3421   18.6455 C   0  0  0  0  0  0
  -27.6477  -13.2289   19.8654 C   0  0  2  0  0  0
  -28.6937  -13.1273   20.9996 C   0  0  0  0  0  0
  -25.2540  -13.8190   20.5788 C   0  0  0  0  0  0
  -24.1801  -13.0430   20.9196 C   0  0  0  0  0  0
  -24.6390  -11.6913   20.8743 C   0  0  0  0  0  0
  -23.9074  -10.4287   21.0402 C   0  0  0  0  0  0
  -24.3624   -9.4208   21.9188 C   0  0  0  0  0  0
  -23.6296   -8.2248   22.0764 C   0  0  0  0  0  0
  -22.4282   -8.0287   21.3547 C   0  0  0  0  0  0
  -21.9917   -9.0262   20.4655 C   0  0  0  0  0  0
  -22.7248  -10.2135   20.3058 C   0  0  0  0  0  0
  -21.6853   -6.0738   22.5273 C   0  0  0  0  0  0
  -21.4016   -6.5644   23.8207 C   0  0  0  0  0  0
  -21.3660   -5.6799   24.9172 C   0  0  0  0  0  0
  -21.6040   -4.3058   24.7224 C   0  0  0  0  0  0
  -21.8822   -3.8149   23.4347 C   0  0  0  0  0  0
  -21.9195   -4.6965   22.3399 C   0  0  0  0  0  0
  -22.7834  -13.5232   21.1844 C   0  0  0  0  0  0
  -22.1658   -4.2152   21.0973 F   0  0  0  0  0  0
  -21.5635   -3.4541   25.7738 F   0  0  0  0  0  0
  -30.0105  -13.4151   20.4184 N   0  0  0  0  0  0
  -26.2975  -12.9406   20.3390 N   0  0  0  0  0  0
  -25.9326  -11.6545   20.5790 N   0  0  0  0  0  0
  -22.0463  -12.8230   22.0392 N   0  0  0  0  0  0
  -25.4290  -15.1915   20.4383 N   0  0  0  0  0  0
  -31.8818  -14.6163   20.0722 O   0  0  0  0  0  0
  -21.6645   -6.8885   21.4239 O   0  0  0  0  0  0
  -22.3541  -14.5551   20.6700 O   0  0  0  0  0  0
  -24.6231  -31.8655   23.2064 C   0  0  0  0  0  0
  -25.9099  -32.4801   23.8380 C   0  0  1  0  0  0
  -27.2117  -27.3390   20.1131 C   0  0  0  0  0  0
  -25.5932  -33.8600   24.2295 N   0  0  0  0  0  0
  -23.4133  -30.4929   21.5487 C   0  0  2  0  0  0
  -24.8593  -28.9594   20.1048 C   0  0  0  0  0  0
  -22.7463  -29.4663   22.4946 C   0  0  0  0  0  0
  -18.0274  -28.1378   22.8470 C   0  0  0  0  0  0
  -24.1489  -36.7302   23.2633 C   0  0  0  0  0  0
  -25.9547  -30.7986   21.3798 C   0  0  0  0  0  0
  -26.0247  -29.4293   20.7215 C   0  0  0  0  0  0
  -27.2011  -28.6267   20.7267 C   0  0  0  0  0  0
  -26.0343  -26.9412   19.4351 C   0  0  0  0  0  0
  -24.8647  -27.7201   19.4522 C   0  0  0  0  0  0
  -23.6256  -29.8365   20.1604 C   0  0  0  0  0  0
  -25.4105  -36.3095   24.0334 C   0  0  1  0  0  0
  -20.5874  -28.3692   23.1282 C   0  0  2  0  0  0
  -20.6786  -26.9423   22.5410 C   0  0  0  0  0  0
  -19.5765  -26.6385   21.5213 C   0  0  0  0  0  0
  -18.1932  -26.7914   22.1610 C   0  0  0  0  0  0
  -19.1529  -28.8846   23.2866 C   0  0  0  0  0  0
  -18.9460  -30.1435   23.8905 C   0  0  0  0  0  0
  -17.6469  -30.6589   24.0558 C   0  0  0  0  0  0
  -25.9053  -34.9467   23.5113 C   0  0  0  0  0  0
  -16.5356  -29.9092   23.6323 C   0  0  0  0  0  0
  -16.7265  -28.6503   23.0343 C   0  0  0  0  0  0
  -26.4497  -31.6602   25.0739 C   0  0  0  0  0  0
  -25.3726  -31.3733   26.1465 C   0  0  0  0  0  0
  -27.0336  -30.3026   24.6193 C   0  0  0  0  0  0
  -27.6061  -32.4328   25.7502 C   0  0  0  0  0  0
  -27.5577  -37.1792   24.8461 C   0  0  0  0  0  0
  -21.4182  -29.3054   22.3692 N   0  0  0  0  0  0
  -26.4281  -37.3787   23.9419 N   0  0  0  0  0  0
  -24.6820  -31.0693   22.1005 N   0  0  0  0  0  0
  -23.4213  -28.8195   23.3000 O   0  0  0  0  0  0
  -28.3225  -26.4877   20.2039 O   0  0  0  0  0  0
  -26.5628  -34.8941   22.4679 O   0  0  0  0  0  0
  -23.5409  -32.1450   23.7420 O   0  0  0  0  0  0
  -32.0736  -16.9420   21.7483 C   0  0  0  0  0  0
  -32.9496  -18.0324   21.8162 C   0  0  0  0  0  0
  -31.3341  -19.3723   20.6233 C   0  0  0  0  0  0
  -30.3849  -18.3163   20.6111 C   0  0  0  0  0  0
  -30.8201  -17.0104   21.0853 C   0  0  0  0  0  0
  -32.6132  -19.2465   21.2095 C   0  0  0  0  0  0
  -28.7552  -21.4179   20.6376 C   0  0  0  0  0  0
  -28.6593  -24.5973   18.6145 C   0  0  0  0  0  0
  -28.6411  -17.7819   18.8448 C   0  0  0  0  0  0
  -28.7562  -23.0595   18.6982 C   0  0  0  0  0  0
  -28.7975  -23.9727   20.8993 C   0  0  0  0  0  0
  -27.1744  -17.8766   18.3826 C   0  0  0  0  0  0
  -27.0402  -20.1403   19.3272 C   0  0  0  0  0  0
  -28.9568  -18.6599   20.0886 C   0  0  2  0  0  0
  -28.5553  -20.1752   19.6806 C   0  0  2  0  0  0
  -28.1354  -25.0400   19.9757 C   0  0  1  0  0  0
  -33.3365  -21.4113   20.4579 C   0  0  0  0  0  0
  -28.8077  -22.6975   20.1244 N   0  0  0  0  0  0
  -30.1257  -15.7316   20.9345 N   0  0  0  0  0  0
  -26.7616  -19.2743   18.1618 N   0  3  0  0  0  0
  -28.8272  -21.2207   21.8527 O   0  0  0  0  0  0
  -33.5597  -20.2464   21.2439 O   0  0  0  0  0  0
  -31.4498  -12.4131   19.1607 H   0  0  0  0  0  0
  -30.2826  -11.3739   19.9159 H   0  0  0  0  0  0
  -29.7463  -11.7370   17.4819 H   0  0  0  0  0  0
  -29.6473  -13.4621   17.7473 H   0  0  0  0  0  0
  -27.8603  -11.2917   18.8935 H   0  0  0  0  0  0
  -27.3588  -12.5574   17.8049 H   0  0  0  0  0  0
  -27.6565  -14.2583   19.5067 H   0  0  0  0  0  0
  -28.6895  -12.1311   21.4445 H   0  0  0  0  0  0
  -28.4566  -13.8215   21.8068 H   0  0  0  0  0  0
  -25.2766   -9.5692   22.4764 H   0  0  0  0  0  0
  -24.0008   -7.4649   22.7494 H   0  0  0  0  0  0
  -21.0843   -8.8777   19.8967 H   0  0  0  0  0  0
  -22.3701  -10.9676   19.6170 H   0  0  0  0  0  0
  -21.2004   -7.6152   23.9709 H   0  0  0  0  0  0
  -21.1478   -6.0530   25.9075 H   0  0  0  0  0  0
  -22.0600   -2.7610   23.2842 H   0  0  0  0  0  0
  -22.4061  -11.9878   22.4766 H   0  0  0  0  0  0
  -21.1093  -13.1292   22.2592 H   0  0  0  0  0  0
  -24.6800  -15.8491   20.6257 H   0  0  0  0  0  0
  -26.3210  -15.6307   20.2645 H   0  0  0  0  0  0
  -26.7157  -32.5499   23.1121 H   0  0  0  0  0  0
  -25.0066  -33.9749   25.0433 H   0  0  0  0  0  0
  -22.7033  -31.3111   21.4121 H   0  0  0  0  0  0
  -23.3761  -35.9622   23.3284 H   0  0  0  0  0  0
  -24.3594  -36.8936   22.2051 H   0  0  0  0  0  0
  -23.7235  -37.6492   23.6673 H   0  0  0  0  0  0
  -26.0889  -31.5599   20.6103 H   0  0  0  0  0  0
  -26.8355  -30.8448   22.0088 H   0  0  0  0  0  0
  -28.0879  -28.9757   21.2383 H   0  0  0  0  0  0
  -25.9817  -26.0196   18.8757 H   0  0  0  0  0  0
  -23.9775  -27.3671   18.9437 H   0  0  0  0  0  0
  -23.7368  -30.6187   19.4081 H   0  0  0  0  0  0
  -22.7468  -29.2629   19.8600 H   0  0  0  0  0  0
  -25.1274  -36.1944   25.0825 H   0  0  0  0  0  0
  -20.9928  -28.3294   24.1420 H   0  0  0  0  0  0
  -20.5729  -26.2318   23.3621 H   0  0  0  0  0  0
  -21.6658  -26.7504   22.1191 H   0  0  0  0  0  0
  -19.6966  -25.6302   21.1239 H   0  0  0  0  0  0
  -19.6701  -27.3200   20.6748 H   0  0  0  0  0  0
  -17.4214  -26.6633   21.4005 H   0  0  0  0  0  0
  -18.0342  -26.0060   22.9014 H   0  0  0  0  0  0
  -19.7947  -30.7201   24.2331 H   0  0  0  0  0  0
  -17.5046  -31.6280   24.5136 H   0  0  0  0  0  0
  -15.5363  -30.3003   23.7659 H   0  0  0  0  0  0
  -15.8656  -28.0834   22.7069 H   0  0  0  0  0  0
  -24.5898  -30.7090   25.7784 H   0  0  0  0  0  0
  -24.8920  -32.2891   26.4913 H   0  0  0  0  0  0
  -25.8043  -30.8889   27.0229 H   0  0  0  0  0  0
  -26.2912  -29.6774   24.1217 H   0  0  0  0  0  0
  -27.4027  -29.7292   25.4703 H   0  0  0  0  0  0
  -27.8790  -30.4312   23.9426 H   0  0  0  0  0  0
  -27.2689  -33.3630   26.2093 H   0  0  0  0  0  0
  -28.3865  -32.6883   25.0318 H   0  0  0  0  0  0
  -28.0748  -31.8444   26.5406 H   0  0  0  0  0  0
  -28.2570  -38.0111   24.7543 H   0  0  0  0  0  0
  -28.1094  -36.2649   24.6229 H   0  0  0  0  0  0
  -27.2321  -37.1367   25.8868 H   0  0  0  0  0  0
  -20.9386  -29.8766   21.6881 H   0  0  0  0  0  0
  -26.0172  -38.2865   24.1415 H   0  0  0  0  0  0
  -32.4143  -16.0121   22.1808 H   0  0  0  0  0  0
  -33.9107  -17.9158   22.2960 H   0  0  0  0  0  0
  -31.0770  -20.3155   20.1774 H   0  0  0  0  0  0
  -28.0242  -24.9331   17.7937 H   0  0  0  0  0  0
  -29.6530  -25.0178   18.4540 H   0  0  0  0  0  0
  -29.3061  -18.0573   18.0260 H   0  0  0  0  0  0
  -28.8407  -16.7312   19.0340 H   0  0  0  0  0  0
  -29.6377  -22.6972   18.1698 H   0  0  0  0  0  0
  -27.8840  -22.6269   18.2127 H   0  0  0  0  0  0
  -28.2535  -23.8746   21.8406 H   0  0  0  0  0  0
  -29.8261  -24.2452   21.1389 H   0  0  0  0  0  0
  -26.5166  -17.4287   19.1272 H   0  0  0  0  0  0
  -27.0307  -17.3091   17.4615 H   0  0  0  0  0  0
  -26.6325  -21.1281   19.1204 H   0  0  0  0  0  0
  -26.4693  -19.7766   20.1839 H   0  0  0  0  0  0
  -28.2932  -18.3561   20.9002 H   0  0  0  0  0  0
  -29.1211  -20.4127   18.7797 H   0  0  0  0  0  0
  -27.0858  -24.7650   20.0544 H   0  0  0  0  0  0
  -34.2161  -22.0539   20.5084 H   0  0  0  0  0  0
  -32.4865  -21.9892   20.8231 H   0  0  0  0  0  0
  -33.1781  -21.1591   19.4083 H   0  0  0  0  0  0
  -29.1332  -15.7048   21.1082 H   0  0  0  0  0  0
  -25.7694  -19.2837   17.9756 H   0  0  0  0  0  0
  -27.2152  -19.6394   17.3399 H   0  0  0  0  0  0
  1 25  1  0  0  0
  1 30  2  0  0  0
  1 89  1  0  0  0
  2  3  1  0  0  0
  2 25  1  0  0  0
  2 93  1  0  0  0
  2 94  1  0  0  0
  3  4  1  0  0  0
  3 95  1  0  0  0
  3 96  1  0  0  0
  4  5  1  0  0  0
  4 97  1  0  0  0
  4 98  1  0  0  0
  5  6  1  0  0  0
  5 26  1  0  0  0
  5 99  1  0  0  0
  6 25  1  0  0  0
  6100  1  0  0  0
  6101  1  0  0  0
  7  8  2  0  0  0
  7 26  1  0  0  0
  7 29  1  0  0  0
  8  9  1  0  0  0
  8 22  1  0  0  0
  9 10  1  0  0  0
  9 27  2  0  0  0
 10 11  2  0  0  0
 10 15  1  0  0  0
 11 12  1  0  0  0
 11102  1  0  0  0
 12 13  2  0  0  0
 12103  1  0  0  0
 13 14  1  0  0  0
 13 31  1  0  0  0
 14 15  2  0  0  0
 14104  1  0  0  0
 15105  1  0  0  0
 16 17  2  0  0  0
 16 21  1  0  0  0
 16 31  1  0  0  0
 17 18  1  0  0  0
 17106  1  0  0  0
 18 19  2  0  0  0
 18107  1  0  0  0
 19 20  1  0  0  0
 19 24  1  0  0  0
 20 21  2  0  0  0
 20108  1  0  0  0
 21 23  1  0  0  0
 22 28  1  0  0  0
 22 32  2  0  0  0
 26 27  1  0  0  0
 28109  1  0  0  0
 28110  1  0  0  0
 29111  1  0  0  0
 29112  1  0  0  0
 33 34  1  0  0  0
 33 66  1  0  0  0
 33 70  2  0  0  0
 34 36  1  0  0  0
 34 59  1  0  0  0
 34113  1  0  0  0
 35 44  2  0  0  0
 35 45  1  0  0  0
 35 68  1  0  0  0
 36 56  1  0  0  0
 36114  1  0  0  0
 37 39  1  0  0  0
 37 47  1  0  0  0
 37 66  1  0  0  0
 37115  1  0  0  0
 38 43  2  0  0  0
 38 46  1  0  0  0
 38 47  1  0  0  0
 39 64  1  0  0  0
 39 67  2  0  0  0
 40 52  1  0  0  0
 40 53  2  0  0  0
 40 58  1  0  0  0
 41116  1  0  0  0
 41117  1  0  0  0
 41118  1  0  0  0
 41 48  1  0  0  0
 42 43  1  0  0  0
 42 66  1  0  0  0
 42119  1  0  0  0
 42120  1  0  0  0
 43 44  1  0  0  0
 44121  1  0  0  0
 45 46  2  0  0  0
 45122  1  0  0  0
 46123  1  0  0  0
 47124  1  0  0  0
 47125  1  0  0  0
 48 56  1  0  0  0
 48 65  1  0  0  0
 48126  1  0  0  0
 49 50  1  0  0  0
 49 53  1  0  0  0
 49 64  1  0  0  0
 49127  1  0  0  0
 50 51  1  0  0  0
 50128  1  0  0  0
 50129  1  0  0  0
 51 52  1  0  0  0
 51130  1  0  0  0
 51131  1  0  0  0
 52132  1  0  0  0
 52133  1  0  0  0
 53 54  1  0  0  0
 54 55  2  0  0  0
 54134  1  0  0  0
 55 57  1  0  0  0
 55135  1  0  0  0
 56 69  2  0  0  0
 57 58  2  0  0  0
 57136  1  0  0  0
 58137  1  0  0  0
 59 60  1  0  0  0
 59 61  1  0  0  0
 59 62  1  0  0  0
 60138  1  0  0  0
 60139  1  0  0  0
 60140  1  0  0  0
 61141  1  0  0  0
 61142  1  0  0  0
 61143  1  0  0  0
 62144  1  0  0  0
 62145  1  0  0  0
 62146  1  0  0  0
 63 65  1  0  0  0
 63147  1  0  0  0
 63148  1  0  0  0
 63149  1  0  0  0
 64150  1  0  0  0
 65151  1  0  0  0
 68 86  1  0  0  0
 71 72  2  0  0  0
 71 75  1  0  0  0
 71152  1  0  0  0
 72 76  1  0  0  0
 72153  1  0  0  0
 73 74  1  0  0  0
 73 76  2  0  0  0
 73154  1  0  0  0
 74 75  2  0  0  0
 74 84  1  0  0  0
 75 89  1  0  0  0
 76 92  1  0  0  0
 77 88  1  0  0  0
 77 91  2  0  0  0
 77 85  1  0  0  0
 78 80  1  0  0  0
 78 86  1  0  0  0
 78155  1  0  0  0
 78156  1  0  0  0
 79 82  1  0  0  0
 79 84  1  0  0  0
 79157  1  0  0  0
 79158  1  0  0  0
 80 88  1  0  0  0
 80159  1  0  0  0
 80160  1  0  0  0
 81 86  1  0  0  0
 81 88  1  0  0  0
 81161  1  0  0  0
 81162  1  0  0  0
 82 90  1  0  0  0
 82163  1  0  0  0
 82164  1  0  0  0
 83 85  1  0  0  0
 83 90  1  0  0  0
 83165  1  0  0  0
 83166  1  0  0  0
 84 85  1  0  0  0
 84167  1  0  0  0
 85168  1  0  0  0
 86169  1  0  0  0
 87 92  1  0  0  0
 87170  1  0  0  0
 87171  1  0  0  0
 87172  1  0  0  0
 89173  1  0  0  0
 90174  1  0  0  0
 90175  1  0  0  0
M  CHG  1  90   1
M  ISO  4   1 100  68 101  86 101  89 100
M  END
> <chiral flag>
0

> <version>
0

> <s_m_source_file>
/data/baiqing/PycharmProjects/Reinvent-master-3.2/result/LINK_invent/BTK/process_docking_weight1_custom_sum_contain_oxygen_bond_distance_aromatic_linkinvent_7_9_3/rearranged_h_0128.sdf

> <i_m_source_file_index>
76

> <r_mmod_Potential_Energy-OPLS-2005>
20.9150714874268

> <r_mmod_Stretch_Energy-OPLS-2005>
85.9847946166992

> <r_mmod_Bend_Energy-OPLS-2005>
198.827621459961

> <r_mmod_Torsional_Energy-OPLS-2005>
343.032653808594

> <r_mmod_Improper_Torsional_Energy-OPLS-2005>
4.00118732452393

> <r_mmod_Van_der_Waal_Energy-OPLS-2005>
167.555694580078

> <r_mmod_Electrostatic_Energy-OPLS-2005>
-274.002655029297

> <r_mmod_Solvation_Energy-OPLS-2005>
-547.422424316406

> <b_mmod_Minimization_Converged-OPLS-2005>
0

> <r_mmod_RMS_Derivative-OPLS-2005>
1.7765007019043

$$$$
76
                    3D
 Structure written by MMmdl.
166174  0  0  1  0            999 V2000
  -30.7072  -14.5759   20.4937 C   0  0  0  0  0  0
  -30.4018  -12.3538   19.4606 C   0  0  0  0  0  0
  -29.4975  -12.4930   18.2222 C   0  0  0  0  0  0
  -28.0198  -12.3491   18.6294 C   0  0  0  0  0  0
  -27.6422  -13.2303   19.8526 C   0  0  2  0  0  0
  -28.6829  -13.1208   20.9877 C   0  0  0  0  0  0
  -25.2494  -13.8203   20.5704 C   0  0  0  0  0  0
  -24.1782  -13.0442   20.9197 C   0  0  0  0  0  0
  -24.6364  -11.6919   20.8715 C   0  0  0  0  0  0
  -23.9035  -10.4293   21.0375 C   0  0  0  0  0  0
  -24.3598   -9.4214   21.9156 C   0  0  0  0  0  0
  -23.6287   -8.2238   22.0732 C   0  0  0  0  0  0
  -22.4273   -8.0257   21.3516 C   0  0  0  0  0  0
  -21.9892   -9.0224   20.4628 C   0  0  0  0  0  0
  -22.7198  -10.2121   20.3032 C   0  0  0  0  0  0
  -21.6860   -6.0722   22.5271 C   0  0  0  0  0  0
  -21.4019   -6.5627   23.8206 C   0  0  0  0  0  0
  -21.3666   -5.6787   24.9168 C   0  0  0  0  0  0
  -21.6045   -4.3044   24.7222 C   0  0  0  0  0  0
  -21.8824   -3.8131   23.4342 C   0  0  0  0  0  0
  -21.9203   -4.6948   22.3400 C   0  0  0  0  0  0
  -22.7806  -13.5217   21.1868 C   0  0  0  0  0  0
  -22.1670   -4.2136   21.0972 F   0  0  0  0  0  0
  -21.5625   -3.4528   25.7731 F   0  0  0  0  0  0
  -30.0005  -13.4089   20.4119 N   0  0  0  0  0  0
  -26.2921  -12.9416   20.3276 N   0  0  0  0  0  0
  -25.9287  -11.6557   20.5706 N   0  0  0  0  0  0
  -22.0465  -12.8212   22.0443 N   0  0  0  0  0  0
  -25.4196  -15.1937   20.4151 N   0  0  0  0  0  0
  -31.8896  -14.6155   20.1450 O   0  0  0  0  0  0
  -21.6640   -6.8853   21.4227 O   0  0  0  0  0  0
  -22.3482  -14.5514   20.6706 O   0  0  0  0  0  0
  -24.6234  -31.8605   23.2030 C   0  0  0  0  0  0
  -25.9103  -32.4788   23.8346 C   0  0  1  0  0  0
  -27.2235  -27.3559   20.1172 C   0  0  0  0  0  0
  -25.5919  -33.8582   24.2267 N   0  0  0  0  0  0
  -23.4154  -30.4835   21.5439 C   0  0  2  0  0  0
  -24.8622  -28.9379   20.1124 C   0  0  0  0  0  0
  -22.7442  -29.4629   22.4932 C   0  0  0  0  0  0
  -18.0284  -28.1365   22.8490 C   0  0  0  0  0  0
  -24.1492  -36.7311   23.2643 C   0  0  0  0  0  0
  -25.9521  -30.8061   21.3650 C   0  0  0  0  0  0
  -26.0288  -29.4344   20.7100 C   0  0  0  0  0  0
  -27.2173  -28.6537   20.7027 C   0  0  0  0  0  0
  -26.0409  -26.8913   19.5096 C   0  0  0  0  0  0
  -24.8681  -27.6707   19.5045 C   0  0  0  0  0  0
  -23.6282  -29.8141   20.1591 C   0  0  0  0  0  0
  -25.4120  -36.3099   24.0330 C   0  0  1  0  0  0
  -20.5877  -28.3668   23.1290 C   0  0  2  0  0  0
  -20.6769  -26.9393   22.5407 C   0  0  0  0  0  0
  -19.5754  -26.6372   21.5201 C   0  0  0  0  0  0
  -18.1933  -26.7916   22.1619 C   0  0  0  0  0  0
  -19.1530  -28.8838   23.2892 C   0  0  0  0  0  0
  -18.9458  -30.1435   23.8902 C   0  0  0  0  0  0
  -17.6456  -30.6577   24.0559 C   0  0  0  0  0  0
  -25.9047  -34.9462   23.5105 C   0  0  0  0  0  0
  -16.5352  -29.9073   23.6320 C   0  0  0  0  0  0
  -16.7267  -28.6489   23.0356 C   0  0  0  0  0  0
  -26.4482  -31.6595   25.0708 C   0  0  0  0  0  0
  -25.3725  -31.3737   26.1438 C   0  0  0  0  0  0
  -27.0311  -30.3028   24.6150 C   0  0  0  0  0  0
  -27.6054  -32.4319   25.7480 C   0  0  0  0  0  0
  -27.5585  -37.1811   24.8463 C   0  0  0  0  0  0
  -21.4157  -29.3034   22.3686 N   0  0  0  0  0  0
  -26.4296  -37.3792   23.9406 N   0  0  0  0  0  0
  -24.6831  -31.0656   22.0953 N   0  0  0  0  0  0
  -23.4182  -28.8163   23.3004 O   0  0  0  0  0  0
  -28.3396  -26.5271   20.1103 O   0  0  0  0  0  0
  -26.5606  -34.8932   22.4665 O   0  0  0  0  0  0
  -23.5415  -32.1356   23.7405 O   0  0  0  0  0  0
  -33.5965  -20.1805   20.2697 C   0  0  0  0  0  0
  -32.5477  -19.3122   20.5839 C   0  0  0  0  0  0
  -31.9789  -21.8899   19.7889 C   0  0  0  0  0  0
  -33.3253  -21.4732   19.8192 C   0  0  0  0  0  0
  -31.1732  -19.6734   20.4925 C   0  0  0  0  0  0
  -30.8774  -21.0636   20.1759 C   0  0  0  0  0  0
  -34.0922  -23.8004   18.9727 C   0  0  0  0  0  0
  -35.3870  -21.7267   18.3473 C   0  0  0  0  0  0
  -30.1394  -18.5074   20.7188 C   0  0  0  0  0  0
  -28.1893  -23.8864   20.4988 C   0  0  0  0  0  0
  -30.8019  -17.0514   20.7045 C   0  0  0  0  0  0
  -28.2949  -25.3823   21.0192 C   0  0  0  0  0  0
  -29.5267  -23.1320   20.1817 C   0  0  0  0  0  0
  -34.4958  -22.3823   19.4190 C   0  0  0  0  0  0
  -30.0571  -15.7498   20.7594 N   0  0  0  0  0  0
  -29.5973  -21.6558   20.2380 O   0  0  0  0  0  0
  -31.4513  -12.4155   19.1704 H   0  0  0  0  0  0
  -30.2791  -11.3686   19.9132 H   0  0  0  0  0  0
  -29.7615  -11.7391   17.4795 H   0  0  0  0  0  0
  -29.6588  -13.4628   17.7484 H   0  0  0  0  0  0
  -27.8518  -11.2978   18.8648 H   0  0  0  0  0  0
  -27.3735  -12.5767   17.7807 H   0  0  0  0  0  0
  -27.6547  -14.2624   19.5001 H   0  0  0  0  0  0
  -28.6742  -12.1219   21.4266 H   0  0  0  0  0  0
  -28.4456  -13.8124   21.7963 H   0  0  0  0  0  0
  -25.2745   -9.5727   22.4721 H   0  0  0  0  0  0
  -24.0019   -7.4651   22.7455 H   0  0  0  0  0  0
  -21.0819   -8.8706   19.8961 H   0  0  0  0  0  0
  -22.3609  -10.9635   19.6139 H   0  0  0  0  0  0
  -21.2006   -7.6134   23.9707 H   0  0  0  0  0  0
  -21.1494   -6.0508   25.9076 H   0  0  0  0  0  0
  -22.0609   -2.7589   23.2837 H   0  0  0  0  0  0
  -22.4091  -11.9882   22.4836 H   0  0  0  0  0  0
  -21.1075  -13.1202   22.2650 H   0  0  0  0  0  0
  -24.6501  -15.8464   20.5129 H   0  0  0  0  0  0
  -26.2702  -15.6344   20.0874 H   0  0  0  0  0  0
  -26.7166  -32.5460   23.1094 H   0  0  0  0  0  0
  -25.0083  -33.9712   25.0426 H   0  0  0  0  0  0
  -22.7093  -31.3037   21.3998 H   0  0  0  0  0  0
  -23.3748  -35.9649   23.3315 H   0  0  0  0  0  0
  -24.3600  -36.8914   22.2056 H   0  0  0  0  0  0
  -23.7232  -37.6522   23.6642 H   0  0  0  0  0  0
  -26.0753  -31.5724   20.5978 H   0  0  0  0  0  0
  -26.8357  -30.8548   21.9897 H   0  0  0  0  0  0
  -28.1180  -29.0311   21.1664 H   0  0  0  0  0  0
  -26.0237  -25.9137   19.0476 H   0  0  0  0  0  0
  -23.9733  -27.2824   19.0371 H   0  0  0  0  0  0
  -23.7402  -30.5865   19.3966 H   0  0  0  0  0  0
  -22.7499  -29.2382   19.8619 H   0  0  0  0  0  0
  -25.1302  -36.1966   25.0819 H   0  0  0  0  0  0
  -20.9979  -28.3232   24.1407 H   0  0  0  0  0  0
  -20.5657  -26.2264   23.3594 H   0  0  0  0  0  0
  -21.6641  -26.7413   22.1212 H   0  0  0  0  0  0
  -19.6918  -25.6279   21.1238 H   0  0  0  0  0  0
  -19.6717  -27.3169   20.6722 H   0  0  0  0  0  0
  -17.4202  -26.6657   21.4022 H   0  0  0  0  0  0
  -18.0349  -26.0040   22.9002 H   0  0  0  0  0  0
  -19.7933  -30.7245   24.2277 H   0  0  0  0  0  0
  -17.5018  -31.6258   24.5150 H   0  0  0  0  0  0
  -15.5353  -30.2992   23.7631 H   0  0  0  0  0  0
  -15.8664  -28.0807   22.7083 H   0  0  0  0  0  0
  -24.5901  -30.7080   25.7771 H   0  0  0  0  0  0
  -24.8908  -32.2898   26.4865 H   0  0  0  0  0  0
  -25.8053  -30.8916   27.0206 H   0  0  0  0  0  0
  -26.2856  -29.6799   24.1182 H   0  0  0  0  0  0
  -27.4010  -29.7287   25.4654 H   0  0  0  0  0  0
  -27.8735  -30.4336   23.9353 H   0  0  0  0  0  0
  -27.2667  -33.3612   26.2077 H   0  0  0  0  0  0
  -28.3851  -32.6878   25.0292 H   0  0  0  0  0  0
  -28.0721  -31.8418   26.5376 H   0  0  0  0  0  0
  -28.2605  -38.0107   24.7503 H   0  0  0  0  0  0
  -28.1065  -36.2632   24.6285 H   0  0  0  0  0  0
  -27.2294  -37.1455   25.8863 H   0  0  0  0  0  0
  -20.9310  -29.8775   21.6925 H   0  0  0  0  0  0
  -26.0192  -38.2876   24.1391 H   0  0  0  0  0  0
  -34.6158  -19.8301   20.3536 H   0  0  0  0  0  0
  -32.8798  -18.3333   20.8822 H   0  0  0  0  0  0
  -31.8200  -22.9007   19.4631 H   0  0  0  0  0  0
  -33.5711  -24.3378   19.7659 H   0  0  0  0  0  0
  -33.4460  -23.7748   18.0944 H   0  0  0  0  0  0
  -34.9676  -24.3962   18.7120 H   0  0  0  0  0  0
  -35.8291  -20.7935   18.6954 H   0  0  0  0  0  0
  -36.2164  -22.3802   18.0764 H   0  0  0  0  0  0
  -34.8271  -21.5079   17.4376 H   0  0  0  0  0  0
  -29.3858  -18.5813   19.9345 H   0  0  0  0  0  0
  -29.6276  -18.6793   21.6656 H   0  0  0  0  0  0
  -27.4978  -23.8192   19.6593 H   0  0  0  0  0  0
  -27.7193  -23.3222   21.3051 H   0  0  0  0  0  0
  -31.4887  -16.9801   21.5494 H   0  0  0  0  0  0
  -31.3983  -17.0128   19.7893 H   0  0  0  0  0  0
  -29.1772  -25.4620   21.6537 H   0  0  0  0  0  0
  -27.4643  -25.5315   21.7124 H   0  0  0  0  0  0
  -30.2628  -23.5201   20.8864 H   0  0  0  0  0  0
  -29.8223  -23.4633   19.1859 H   0  0  0  0  0  0
  -35.1036  -22.4964   20.3190 H   0  0  0  0  0  0
  -29.0720  -15.7425   20.9812 H   0  0  0  0  0  0
  1 25  1  0  0  0
  1 30  2  0  0  0
  1 85  1  0  0  0
  2  3  1  0  0  0
  2 25  1  0  0  0
  2 87  1  0  0  0
  2 88  1  0  0  0
  3  4  1  0  0  0
  3 89  1  0  0  0
  3 90  1  0  0  0
  4  5  1  0  0  0
  4 91  1  0  0  0
  4 92  1  0  0  0
  5  6  1  0  0  0
  5 26  1  0  0  0
  5 93  1  0  0  0
  6 25  1  0  0  0
  6 94  1  0  0  0
  6 95  1  0  0  0
  7  8  2  0  0  0
  7 26  1  0  0  0
  7 29  1  0  0  0
  8  9  1  0  0  0
  8 22  1  0  0  0
  9 10  1  0  0  0
  9 27  2  0  0  0
 10 11  2  0  0  0
 10 15  1  0  0  0
 11 12  1  0  0  0
 11 96  1  0  0  0
 12 13  2  0  0  0
 12 97  1  0  0  0
 13 14  1  0  0  0
 13 31  1  0  0  0
 14 15  2  0  0  0
 14 98  1  0  0  0
 15 99  1  0  0  0
 16 17  2  0  0  0
 16 21  1  0  0  0
 16 31  1  0  0  0
 17 18  1  0  0  0
 17100  1  0  0  0
 18 19  2  0  0  0
 18101  1  0  0  0
 19 20  1  0  0  0
 19 24  1  0  0  0
 20 21  2  0  0  0
 20102  1  0  0  0
 21 23  1  0  0  0
 22 28  1  0  0  0
 22 32  2  0  0  0
 26 27  1  0  0  0
 28103  1  0  0  0
 28104  1  0  0  0
 29105  1  0  0  0
 29106  1  0  0  0
 33 34  1  0  0  0
 33 66  1  0  0  0
 33 70  2  0  0  0
 34 36  1  0  0  0
 34 59  1  0  0  0
 34107  1  0  0  0
 35 44  2  0  0  0
 35 45  1  0  0  0
 35 68  1  0  0  0
 36 56  1  0  0  0
 36108  1  0  0  0
 37 39  1  0  0  0
 37 47  1  0  0  0
 37 66  1  0  0  0
 37109  1  0  0  0
 38 43  2  0  0  0
 38 46  1  0  0  0
 38 47  1  0  0  0
 39 64  1  0  0  0
 39 67  2  0  0  0
 40 52  1  0  0  0
 40 53  2  0  0  0
 40 58  1  0  0  0
 41110  1  0  0  0
 41111  1  0  0  0
 41112  1  0  0  0
 41 48  1  0  0  0
 42 43  1  0  0  0
 42 66  1  0  0  0
 42113  1  0  0  0
 42114  1  0  0  0
 43 44  1  0  0  0
 44115  1  0  0  0
 45 46  2  0  0  0
 45116  1  0  0  0
 46117  1  0  0  0
 47118  1  0  0  0
 47119  1  0  0  0
 48 56  1  0  0  0
 48 65  1  0  0  0
 48120  1  0  0  0
 49 50  1  0  0  0
 49 53  1  0  0  0
 49 64  1  0  0  0
 49121  1  0  0  0
 50 51  1  0  0  0
 50122  1  0  0  0
 50123  1  0  0  0
 51 52  1  0  0  0
 51124  1  0  0  0
 51125  1  0  0  0
 52126  1  0  0  0
 52127  1  0  0  0
 53 54  1  0  0  0
 54 55  2  0  0  0
 54128  1  0  0  0
 55 57  1  0  0  0
 55129  1  0  0  0
 56 69  2  0  0  0
 57 58  2  0  0  0
 57130  1  0  0  0
 58131  1  0  0  0
 59 60  1  0  0  0
 59 61  1  0  0  0
 59 62  1  0  0  0
 60132  1  0  0  0
 60133  1  0  0  0
 60134  1  0  0  0
 61135  1  0  0  0
 61136  1  0  0  0
 61137  1  0  0  0
 62138  1  0  0  0
 62139  1  0  0  0
 62140  1  0  0  0
 63 65  1  0  0  0
 63141  1  0  0  0
 63142  1  0  0  0
 63143  1  0  0  0
 64144  1  0  0  0
 65145  1  0  0  0
 68 82  1  0  0  0
 71 72  2  0  0  0
 71 74  1  0  0  0
 71146  1  0  0  0
 72 75  1  0  0  0
 72147  1  0  0  0
 73 74  2  0  0  0
 73 76  1  0  0  0
 73148  1  0  0  0
 74 84  1  0  0  0
 75 76  2  0  0  0
 75 79  1  0  0  0
 76 86  1  0  0  0
 77149  1  0  0  0
 77150  1  0  0  0
 77151  1  0  0  0
 77 84  1  0  0  0
 78 84  1  0  0  0
 78152  1  0  0  0
 78153  1  0  0  0
 78154  1  0  0  0
 79 81  1  0  0  0
 79155  1  0  0  0
 79156  1  0  0  0
 80 82  1  0  0  0
 80 83  1  0  0  0
 80157  1  0  0  0
 80158  1  0  0  0
 81 85  1  0  0  0
 81159  1  0  0  0
 81160  1  0  0  0
 82161  1  0  0  0
 82162  1  0  0  0
 83 86  1  0  0  0
 83163  1  0  0  0
 83164  1  0  0  0
 84165  1  0  0  0
 85166  1  0  0  0
M  ISO  4   1 100  68 101  82 101  85 100
M  END
> <chiral flag>
0

> <version>
0

> <s_m_source_file>
/data/baiqing/PycharmProjects/Reinvent-master-3.2/result/LINK_invent/BTK/process_docking_weight1_custom_sum_contain_oxygen_bond_distance_aromatic_linkinvent_7_9_3/rearranged_h_0128.sdf

> <i_m_source_file_index>
77

> <r_mmod_Potential_Energy-OPLS-2005>
83.1877212524414

> <r_mmod_Stretch_Energy-OPLS-2005>
80.8837356567383

> <r_mmod_Bend_Energy-OPLS-2005>
167.699279785156

> <r_mmod_Torsional_Energy-OPLS-2005>
238.890487670898

> <r_mmod_Improper_Torsional_Energy-OPLS-2005>
4.48464012145996

> <r_mmod_Van_der_Waal_Energy-OPLS-2005>
179.03645324707

> <r_mmod_Electrostatic_Energy-OPLS-2005>
-415.929504394531

> <r_mmod_Solvation_Energy-OPLS-2005>
-209.464569091797

> <b_mmod_Minimization_Converged-OPLS-2005>
0

> <r_mmod_RMS_Derivative-OPLS-2005>
2.333420753479

$$$$
77
                    3D
 Structure written by MMmdl.
158166  0  0  1  0            999 V2000
  -30.6320  -14.6304   20.4860 C   0  0  0  0  0  0
  -30.4294  -12.3824   19.4555 C   0  0  0  0  0  0
  -29.5049  -12.4944   18.2234 C   0  0  0  0  0  0
  -28.0267  -12.3426   18.6341 C   0  0  0  0  0  0
  -27.6487  -13.2191   19.8581 C   0  0  2  0  0  0
  -28.6910  -13.0886   20.9909 C   0  0  0  0  0  0
  -25.2533  -13.8181   20.5683 C   0  0  0  0  0  0
  -24.1809  -13.0442   20.9223 C   0  0  0  0  0  0
  -24.6385  -11.6917   20.8765 C   0  0  0  0  0  0
  -23.9057  -10.4299   21.0431 C   0  0  0  0  0  0
  -24.3611   -9.4213   21.9205 C   0  0  0  0  0  0
  -23.6291   -8.2243   22.0763 C   0  0  0  0  0  0
  -22.4273   -8.0285   21.3553 C   0  0  0  0  0  0
  -21.9912   -9.0264   20.4660 C   0  0  0  0  0  0
  -22.7236  -10.2146   20.3076 C   0  0  0  0  0  0
  -21.6851   -6.0741   22.5289 C   0  0  0  0  0  0
  -21.4009   -6.5642   23.8222 C   0  0  0  0  0  0
  -21.3661   -5.6795   24.9187 C   0  0  0  0  0  0
  -21.6041   -4.3055   24.7235 C   0  0  0  0  0  0
  -21.8812   -3.8149   23.4355 C   0  0  0  0  0  0
  -21.9193   -4.6967   22.3412 C   0  0  0  0  0  0
  -22.7829  -13.5244   21.1874 C   0  0  0  0  0  0
  -22.1659   -4.2155   21.0989 F   0  0  0  0  0  0
  -21.5641   -3.4538   25.7747 F   0  0  0  0  0  0
  -30.0051  -13.4157   20.4220 N   0  0  0  0  0  0
  -26.2955  -12.9367   20.3290 N   0  0  0  0  0  0
  -25.9309  -11.6521   20.5753 N   0  0  0  0  0  0
  -22.0443  -12.8257   22.0427 N   0  0  0  0  0  0
  -25.4214  -15.1902   20.4051 N   0  0  0  0  0  0
  -31.8020  -14.7689   20.1210 O   0  0  0  0  0  0
  -21.6636   -6.8883   21.4248 O   0  0  0  0  0  0
  -22.3531  -14.5551   20.6720 O   0  0  0  0  0  0
  -24.6237  -31.8608   23.2021 C   0  0  0  0  0  0
  -25.9099  -32.4777   23.8340 C   0  0  1  0  0  0
  -27.2265  -27.3303   20.1178 C   0  0  0  0  0  0
  -25.5933  -33.8576   24.2280 N   0  0  0  0  0  0
  -23.4161  -30.4820   21.5450 C   0  0  2  0  0  0
  -24.8613  -28.9312   20.1154 C   0  0  0  0  0  0
  -22.7452  -29.4630   22.4958 C   0  0  0  0  0  0
  -18.0276  -28.1381   22.8492 C   0  0  0  0  0  0
  -24.1486  -36.7282   23.2637 C   0  0  0  0  0  0
  -25.9538  -30.7934   21.3695 C   0  0  0  0  0  0
  -26.0271  -29.4177   20.7206 C   0  0  0  0  0  0
  -27.2108  -28.6257   20.7157 C   0  0  0  0  0  0
  -26.0382  -26.8853   19.4995 C   0  0  0  0  0  0
  -24.8671  -27.6687   19.4993 C   0  0  0  0  0  0
  -23.6285  -29.8106   20.1618 C   0  0  0  0  0  0
  -25.4111  -36.3078   24.0331 C   0  0  1  0  0  0
  -20.5874  -28.3685   23.1296 C   0  0  2  0  0  0
  -20.6770  -26.9413   22.5416 C   0  0  0  0  0  0
  -19.5744  -26.6387   21.5219 C   0  0  0  0  0  0
  -18.1924  -26.7927   22.1631 C   0  0  0  0  0  0
  -19.1528  -28.8848   23.2888 C   0  0  0  0  0  0
  -18.9456  -30.1454   23.8894 C   0  0  0  0  0  0
  -17.6459  -30.6586   24.0566 C   0  0  0  0  0  0
  -25.9051  -34.9450   23.5103 C   0  0  0  0  0  0
  -16.5349  -29.9089   23.6333 C   0  0  0  0  0  0
  -16.7268  -28.6506   23.0353 C   0  0  0  0  0  0
  -26.4498  -31.6572   25.0695 C   0  0  0  0  0  0
  -25.3744  -31.3712   26.1430 C   0  0  0  0  0  0
  -27.0334  -30.2999   24.6123 C   0  0  0  0  0  0
  -27.6061  -32.4295   25.7477 C   0  0  0  0  0  0
  -27.5574  -37.1794   24.8470 C   0  0  0  0  0  0
  -21.4166  -29.3046   22.3700 N   0  0  0  0  0  0
  -26.4287  -37.3773   23.9413 N   0  0  0  0  0  0
  -24.6834  -31.0626   22.0964 N   0  0  0  0  0  0
  -23.4184  -28.8174   23.3037 O   0  0  0  0  0  0
  -28.3783  -26.5379   20.1037 O   0  0  0  0  0  0
  -26.5617  -34.8922   22.4669 O   0  0  0  0  0  0
  -23.5406  -32.1412   23.7362 O   0  0  0  0  0  0
  -28.1221  -24.2932   19.0577 C   0  0  0  0  0  0
  -28.6773  -24.4234   21.3659 C   0  0  0  0  0  0
  -28.1479  -22.8694   19.1675 C   0  0  0  0  0  0
  -28.3507  -25.1274   20.1800 C   0  0  0  0  0  0
  -28.4590  -22.2565   20.4173 C   0  0  0  0  0  0
  -26.2574  -21.9103   17.7779 C   0  0  0  0  0  0
  -27.7774  -22.0519   17.9374 C   0  0  0  0  0  0
  -28.2777  -20.7151   20.7177 C   0  0  0  0  0  0
  -30.2071  -17.1743   20.5047 C   0  0  0  0  0  0
  -29.0661  -18.2647   20.7436 C   0  0  0  0  0  0
  -28.7336  -23.0590   21.4815 N   0  0  0  0  0  0
  -29.8514  -15.7260   20.7454 N   0  0  0  0  0  0
  -29.3924  -19.7263   20.4572 N   0  3  0  0  0  0
  -31.4728  -12.4970   19.1561 H   0  0  0  0  0  0
  -30.3561  -11.3896   19.9028 H   0  0  0  0  0  0
  -29.7638  -11.7324   17.4867 H   0  0  0  0  0  0
  -29.6562  -13.4580   17.7337 H   0  0  0  0  0  0
  -27.8587  -11.2907   18.8685 H   0  0  0  0  0  0
  -27.3753  -12.5723   17.7904 H   0  0  0  0  0  0
  -27.6649  -14.2520   19.5090 H   0  0  0  0  0  0
  -28.6963  -12.0744   21.3934 H   0  0  0  0  0  0
  -28.4425  -13.7451   21.8270 H   0  0  0  0  0  0
  -25.2751   -9.5695   22.4783 H   0  0  0  0  0  0
  -24.0008   -7.4629   22.7472 H   0  0  0  0  0  0
  -21.0848   -8.8788   19.8960 H   0  0  0  0  0  0
  -22.3698  -10.9694   19.6188 H   0  0  0  0  0  0
  -21.1981   -7.6145   23.9731 H   0  0  0  0  0  0
  -21.1493   -6.0524   25.9094 H   0  0  0  0  0  0
  -22.0583   -2.7611   23.2857 H   0  0  0  0  0  0
  -22.4030  -11.9922   22.4847 H   0  0  0  0  0  0
  -21.1060  -13.1315   22.2592 H   0  0  0  0  0  0
  -24.6419  -15.8333   20.4938 H   0  0  0  0  0  0
  -26.2470  -15.6232   20.0140 H   0  0  0  0  0  0
  -26.7165  -32.5460   23.1091 H   0  0  0  0  0  0
  -25.0095  -33.9724   25.0435 H   0  0  0  0  0  0
  -22.7090  -31.3016   21.4001 H   0  0  0  0  0  0
  -23.3751  -35.9612   23.3306 H   0  0  0  0  0  0
  -24.3579  -36.8893   22.2049 H   0  0  0  0  0  0
  -23.7235  -37.6485   23.6651 H   0  0  0  0  0  0
  -26.0774  -31.5520   20.5954 H   0  0  0  0  0  0
  -26.8375  -30.8481   21.9937 H   0  0  0  0  0  0
  -28.1095  -28.9993   21.1851 H   0  0  0  0  0  0
  -25.9999  -25.9208   19.0172 H   0  0  0  0  0  0
  -23.9729  -27.2900   19.0242 H   0  0  0  0  0  0
  -23.7440  -30.5827   19.4003 H   0  0  0  0  0  0
  -22.7491  -29.2347   19.8661 H   0  0  0  0  0  0
  -25.1289  -36.1930   25.0823 H   0  0  0  0  0  0
  -20.9962  -28.3254   24.1419 H   0  0  0  0  0  0
  -20.5673  -26.2297   23.3614 H   0  0  0  0  0  0
  -21.6642  -26.7450   22.1214 H   0  0  0  0  0  0
  -19.6914  -25.6303   21.1244 H   0  0  0  0  0  0
  -19.6676  -27.3209   20.6755 H   0  0  0  0  0  0
  -17.4196  -26.6670   21.4034 H   0  0  0  0  0  0
  -18.0326  -26.0061   22.9020 H   0  0  0  0  0  0
  -19.7932  -30.7267   24.2265 H   0  0  0  0  0  0
  -17.5019  -31.6270   24.5166 H   0  0  0  0  0  0
  -15.5349  -30.2996   23.7653 H   0  0  0  0  0  0
  -15.8668  -28.0821   22.7072 H   0  0  0  0  0  0
  -24.5920  -30.7055   25.7771 H   0  0  0  0  0  0
  -24.8935  -32.2881   26.4844 H   0  0  0  0  0  0
  -25.8078  -30.8904   27.0207 H   0  0  0  0  0  0
  -26.2896  -29.6750   24.1160 H   0  0  0  0  0  0
  -27.4069  -29.7244   25.4604 H   0  0  0  0  0  0
  -27.8751  -30.4295   23.9314 H   0  0  0  0  0  0
  -27.2671  -33.3590   26.2066 H   0  0  0  0  0  0
  -28.3874  -32.6860   25.0310 H   0  0  0  0  0  0
  -28.0724  -31.8409   26.5386 H   0  0  0  0  0  0
  -28.2601  -38.0081   24.7511 H   0  0  0  0  0  0
  -28.1059  -36.2613   24.6305 H   0  0  0  0  0  0
  -27.2295  -37.1458   25.8876 H   0  0  0  0  0  0
  -20.9340  -29.8773   21.6918 H   0  0  0  0  0  0
  -26.0167  -38.2849   24.1413 H   0  0  0  0  0  0
  -27.8975  -24.7474   18.1033 H   0  0  0  0  0  0
  -28.9122  -24.9754   22.2648 H   0  0  0  0  0  0
  -25.8052  -21.4182   18.6391 H   0  0  0  0  0  0
  -26.0135  -21.3188   16.8951 H   0  0  0  0  0  0
  -25.7772  -22.8827   17.6643 H   0  0  0  0  0  0
  -28.2451  -21.0686   17.9694 H   0  0  0  0  0  0
  -28.1885  -22.5382   17.0505 H   0  0  0  0  0  0
  -27.3933  -20.3771   20.1777 H   0  0  0  0  0  0
  -28.0073  -20.6231   21.7701 H   0  0  0  0  0  0
  -31.0681  -17.4172   21.1294 H   0  0  0  0  0  0
  -30.5568  -17.2547   19.4739 H   0  0  0  0  0  0
  -28.7356  -18.1930   21.7810 H   0  0  0  0  0  0
  -28.2012  -17.9949   20.1369 H   0  0  0  0  0  0
  -28.9044  -15.5299   21.0322 H   0  0  0  0  0  0
  -30.1736  -20.0095   21.0250 H   0  0  0  0  0  0
  -29.6677  -19.8224   19.4949 H   0  0  0  0  0  0
  1 25  1  0  0  0
  1 30  2  0  0  0
  1 82  1  0  0  0
  2  3  1  0  0  0
  2 25  1  0  0  0
  2 84  1  0  0  0
  2 85  1  0  0  0
  3  4  1  0  0  0
  3 86  1  0  0  0
  3 87  1  0  0  0
  4  5  1  0  0  0
  4 88  1  0  0  0
  4 89  1  0  0  0
  5  6  1  0  0  0
  5 26  1  0  0  0
  5 90  1  0  0  0
  6 25  1  0  0  0
  6 91  1  0  0  0
  6 92  1  0  0  0
  7  8  2  0  0  0
  7 26  1  0  0  0
  7 29  1  0  0  0
  8  9  1  0  0  0
  8 22  1  0  0  0
  9 10  1  0  0  0
  9 27  2  0  0  0
 10 11  2  0  0  0
 10 15  1  0  0  0
 11 12  1  0  0  0
 11 93  1  0  0  0
 12 13  2  0  0  0
 12 94  1  0  0  0
 13 14  1  0  0  0
 13 31  1  0  0  0
 14 15  2  0  0  0
 14 95  1  0  0  0
 15 96  1  0  0  0
 16 17  2  0  0  0
 16 21  1  0  0  0
 16 31  1  0  0  0
 17 18  1  0  0  0
 17 97  1  0  0  0
 18 19  2  0  0  0
 18 98  1  0  0  0
 19 20  1  0  0  0
 19 24  1  0  0  0
 20 21  2  0  0  0
 20 99  1  0  0  0
 21 23  1  0  0  0
 22 28  1  0  0  0
 22 32  2  0  0  0
 26 27  1  0  0  0
 28100  1  0  0  0
 28101  1  0  0  0
 29102  1  0  0  0
 29103  1  0  0  0
 33 34  1  0  0  0
 33 66  1  0  0  0
 33 70  2  0  0  0
 34 36  1  0  0  0
 34 59  1  0  0  0
 34104  1  0  0  0
 35 44  2  0  0  0
 35 45  1  0  0  0
 35 68  1  0  0  0
 36 56  1  0  0  0
 36105  1  0  0  0
 37 39  1  0  0  0
 37 47  1  0  0  0
 37 66  1  0  0  0
 37106  1  0  0  0
 38 43  2  0  0  0
 38 46  1  0  0  0
 38 47  1  0  0  0
 39 64  1  0  0  0
 39 67  2  0  0  0
 40 52  1  0  0  0
 40 53  2  0  0  0
 40 58  1  0  0  0
 41107  1  0  0  0
 41108  1  0  0  0
 41109  1  0  0  0
 41 48  1  0  0  0
 42 43  1  0  0  0
 42 66  1  0  0  0
 42110  1  0  0  0
 42111  1  0  0  0
 43 44  1  0  0  0
 44112  1  0  0  0
 45 46  2  0  0  0
 45113  1  0  0  0
 46114  1  0  0  0
 47115  1  0  0  0
 47116  1  0  0  0
 48 56  1  0  0  0
 48 65  1  0  0  0
 48117  1  0  0  0
 49 50  1  0  0  0
 49 53  1  0  0  0
 49 64  1  0  0  0
 49118  1  0  0  0
 50 51  1  0  0  0
 50119  1  0  0  0
 50120  1  0  0  0
 51 52  1  0  0  0
 51121  1  0  0  0
 51122  1  0  0  0
 52123  1  0  0  0
 52124  1  0  0  0
 53 54  1  0  0  0
 54 55  2  0  0  0
 54125  1  0  0  0
 55 57  1  0  0  0
 55126  1  0  0  0
 56 69  2  0  0  0
 57 58  2  0  0  0
 57127  1  0  0  0
 58128  1  0  0  0
 59 60  1  0  0  0
 59 61  1  0  0  0
 59 62  1  0  0  0
 60129  1  0  0  0
 60130  1  0  0  0
 60131  1  0  0  0
 61132  1  0  0  0
 61133  1  0  0  0
 61134  1  0  0  0
 62135  1  0  0  0
 62136  1  0  0  0
 62137  1  0  0  0
 63 65  1  0  0  0
 63138  1  0  0  0
 63139  1  0  0  0
 63140  1  0  0  0
 64141  1  0  0  0
 65142  1  0  0  0
 68 74  1  0  0  0
 71 73  2  0  0  0
 71 74  1  0  0  0
 71143  1  0  0  0
 72 74  2  0  0  0
 72 81  1  0  0  0
 72144  1  0  0  0
 73 75  1  0  0  0
 73 77  1  0  0  0
 75 78  1  0  0  0
 75 81  2  0  0  0
 76 77  1  0  0  0
 76145  1  0  0  0
 76146  1  0  0  0
 76147  1  0  0  0
 77148  1  0  0  0
 77149  1  0  0  0
 78 83  1  0  0  0
 78150  1  0  0  0
 78151  1  0  0  0
 79 80  1  0  0  0
 79 82  1  0  0  0
 79152  1  0  0  0
 79153  1  0  0  0
 80 83  1  0  0  0
 80154  1  0  0  0
 80155  1  0  0  0
 82156  1  0  0  0
 83157  1  0  0  0
 83158  1  0  0  0
M  CHG  1  83   1
M  ISO  4   1 100  68 101  74 101  82 100
M  END
> <chiral flag>
0

> <version>
0

> <s_m_source_file>
/data/baiqing/PycharmProjects/Reinvent-master-3.2/result/LINK_invent/BTK/process_docking_weight1_custom_sum_contain_oxygen_bond_distance_aromatic_linkinvent_7_9_3/rearranged_h_0128.sdf

> <i_m_source_file_index>
78

> <r_mmod_Potential_Energy-OPLS-2005>
-402.953674316406

> <r_mmod_Stretch_Energy-OPLS-2005>
73.8892593383789

> <r_mmod_Bend_Energy-OPLS-2005>
126.476982116699

> <r_mmod_Torsional_Energy-OPLS-2005>
203.115447998047

> <r_mmod_Improper_Torsional_Energy-OPLS-2005>
6.98698949813843

> <r_mmod_Van_der_Waal_Energy-OPLS-2005>
136.545227050781

> <r_mmod_Electrostatic_Energy-OPLS-2005>
-481.838043212891

> <r_mmod_Solvation_Energy-OPLS-2005>
-510.261962890625

> <b_mmod_Minimization_Converged-OPLS-2005>
0

> <r_mmod_RMS_Derivative-OPLS-2005>
1.31069886684418

$$$$
78
                    3D
 Structure written by MMmdl.
159167  0  0  1  0            999 V2000
  -30.6420  -14.6588   20.4896 C   0  0  0  0  0  0
  -30.4291  -12.4061   19.4547 C   0  0  0  0  0  0
  -29.5038  -12.5009   18.2229 C   0  0  0  0  0  0
  -28.0279  -12.3395   18.6373 C   0  0  0  0  0  0
  -27.6463  -13.2241   19.8545 C   0  0  2  0  0  0
  -28.6920  -13.1169   20.9855 C   0  0  0  0  0  0
  -25.2531  -13.8186   20.5691 C   0  0  0  0  0  0
  -24.1812  -13.0441   20.9206 C   0  0  0  0  0  0
  -24.6393  -11.6915   20.8746 C   0  0  0  0  0  0
  -23.9067  -10.4294   21.0407 C   0  0  0  0  0  0
  -24.3618   -9.4208   21.9185 C   0  0  0  0  0  0
  -23.6294   -8.2242   22.0754 C   0  0  0  0  0  0
  -22.4275   -8.0280   21.3544 C   0  0  0  0  0  0
  -21.9911   -9.0254   20.4646 C   0  0  0  0  0  0
  -22.7239  -10.2134   20.3057 C   0  0  0  0  0  0
  -21.6855   -6.0735   22.5278 C   0  0  0  0  0  0
  -21.4014   -6.5639   23.8211 C   0  0  0  0  0  0
  -21.3660   -5.6792   24.9173 C   0  0  0  0  0  0
  -21.6044   -4.3055   24.7223 C   0  0  0  0  0  0
  -21.8820   -3.8147   23.4346 C   0  0  0  0  0  0
  -21.9193   -4.6963   22.3401 C   0  0  0  0  0  0
  -22.7835  -13.5229   21.1865 C   0  0  0  0  0  0
  -22.1663   -4.2148   21.0980 F   0  0  0  0  0  0
  -21.5628   -3.4539   25.7737 F   0  0  0  0  0  0
  -30.0000  -13.4504   20.4067 N   0  0  0  0  0  0
  -26.2956  -12.9381   20.3295 N   0  0  0  0  0  0
  -25.9321  -11.6528   20.5754 N   0  0  0  0  0  0
  -22.0480  -12.8215   22.0417 N   0  0  0  0  0  0
  -25.4228  -15.1907   20.4099 N   0  0  0  0  0  0
  -31.8253  -14.7700   20.1594 O   0  0  0  0  0  0
  -21.6641   -6.8877   21.4240 O   0  0  0  0  0  0
  -22.3522  -14.5538   20.6717 O   0  0  0  0  0  0
  -24.6254  -31.8595   23.2017 C   0  0  0  0  0  0
  -25.9101  -32.4779   23.8349 C   0  0  1  0  0  0
  -27.2243  -27.3267   20.1210 C   0  0  0  0  0  0
  -25.5921  -33.8577   24.2278 N   0  0  0  0  0  0
  -23.4199  -30.4813   21.5438 C   0  0  2  0  0  0
  -24.8695  -28.9338   20.1124 C   0  0  0  0  0  0
  -22.7474  -29.4617   22.4936 C   0  0  0  0  0  0
  -18.0286  -28.1385   22.8489 C   0  0  0  0  0  0
  -24.1486  -36.7291   23.2640 C   0  0  0  0  0  0
  -25.9598  -30.7926   21.3716 C   0  0  0  0  0  0
  -26.0374  -29.4185   20.7175 C   0  0  0  0  0  0
  -27.2228  -28.6247   20.7149 C   0  0  0  0  0  0
  -26.0405  -26.8871   19.4980 C   0  0  0  0  0  0
  -24.8715  -27.6724   19.4940 C   0  0  0  0  0  0
  -23.6361  -29.8131   20.1599 C   0  0  0  0  0  0
  -25.4112  -36.3083   24.0331 C   0  0  1  0  0  0
  -20.5885  -28.3687   23.1289 C   0  0  2  0  0  0
  -20.6773  -26.9412   22.5412 C   0  0  0  0  0  0
  -19.5751  -26.6389   21.5211 C   0  0  0  0  0  0
  -18.1932  -26.7930   22.1625 C   0  0  0  0  0  0
  -19.1538  -28.8854   23.2885 C   0  0  0  0  0  0
  -18.9462  -30.1459   23.8899 C   0  0  0  0  0  0
  -17.6462  -30.6589   24.0567 C   0  0  0  0  0  0
  -25.9049  -34.9453   23.5106 C   0  0  0  0  0  0
  -16.5353  -29.9088   23.6334 C   0  0  0  0  0  0
  -16.7274  -28.6505   23.0356 C   0  0  0  0  0  0
  -26.4491  -31.6582   25.0712 C   0  0  0  0  0  0
  -25.3729  -31.3716   26.1444 C   0  0  0  0  0  0
  -27.0330  -30.3008   24.6149 C   0  0  0  0  0  0
  -27.6053  -32.4312   25.7485 C   0  0  0  0  0  0
  -27.5578  -37.1803   24.8468 C   0  0  0  0  0  0
  -21.4187  -29.3037   22.3679 N   0  0  0  0  0  0
  -26.4291  -37.3779   23.9411 N   0  0  0  0  0  0
  -24.6870  -31.0611   22.0964 N   0  0  0  0  0  0
  -23.4197  -28.8162   23.3020 O   0  0  0  0  0  0
  -28.3050  -26.4397   20.1358 O   0  0  0  0  0  0
  -26.5618  -34.8919   22.4673 O   0  0  0  0  0  0
  -23.5418  -32.1390   23.7349 O   0  0  0  0  0  0
  -29.4328  -23.2684   20.0643 C   0  0  0  0  0  0
  -29.7133  -21.8583   20.0942 C   0  0  0  0  0  0
  -27.7424  -22.9395   21.7285 C   0  0  0  0  0  0
  -28.0183  -21.5425   21.7839 C   0  0  0  0  0  0
  -28.4519  -23.8561   20.9105 C   0  0  0  0  0  0
  -29.0502  -20.9625   20.9843 C   0  0  0  0  0  0
  -27.1897  -20.7581   22.7212 C   0  0  0  0  0  0
  -26.6662  -19.5419   22.4853 C   0  0  0  0  0  0
  -25.8366  -18.7574   23.4782 C   0  0  0  0  0  0
  -28.2275  -25.4007   21.1745 C   0  0  0  0  0  0
  -29.4760  -18.4139   20.4046 C   0  0  0  0  0  0
  -30.3569  -17.1934   20.9525 C   0  0  0  0  0  0
  -29.5212  -19.6319   21.2700 N   0  0  0  0  0  0
  -29.8857  -15.7711   20.7673 N   0  0  0  0  0  0
  -31.4713  -12.5222   19.1527 H   0  0  0  0  0  0
  -30.3594  -11.4201   19.9167 H   0  0  0  0  0  0
  -29.7712  -11.7384   17.4900 H   0  0  0  0  0  0
  -29.6445  -13.4636   17.7287 H   0  0  0  0  0  0
  -27.8694  -11.2885   18.8816 H   0  0  0  0  0  0
  -27.3725  -12.5565   17.7929 H   0  0  0  0  0  0
  -27.6537  -14.2533   19.4955 H   0  0  0  0  0  0
  -28.7090  -12.1092   21.4032 H   0  0  0  0  0  0
  -28.4405  -13.7833   21.8121 H   0  0  0  0  0  0
  -25.2763   -9.5684   22.4761 H   0  0  0  0  0  0
  -24.0003   -7.4634   22.7474 H   0  0  0  0  0  0
  -21.0843   -8.8772   19.8953 H   0  0  0  0  0  0
  -22.3697  -10.9673   19.6165 H   0  0  0  0  0  0
  -21.2009   -7.6147   23.9713 H   0  0  0  0  0  0
  -21.1481   -6.0523   25.9075 H   0  0  0  0  0  0
  -22.0600   -2.7609   23.2845 H   0  0  0  0  0  0
  -22.4097  -11.9870   22.4794 H   0  0  0  0  0  0
  -21.1098  -13.1237   22.2625 H   0  0  0  0  0  0
  -24.6546  -15.8434   20.5206 H   0  0  0  0  0  0
  -26.2667  -15.6295   20.0652 H   0  0  0  0  0  0
  -26.7170  -32.5458   23.1102 H   0  0  0  0  0  0
  -25.0069  -33.9717   25.0422 H   0  0  0  0  0  0
  -22.7134  -31.3013   21.3992 H   0  0  0  0  0  0
  -23.3748  -35.9624   23.3308 H   0  0  0  0  0  0
  -24.3579  -36.8904   22.2053 H   0  0  0  0  0  0
  -23.7234  -37.6493   23.6655 H   0  0  0  0  0  0
  -26.0874  -31.5542   20.6011 H   0  0  0  0  0  0
  -26.8414  -30.8459   21.9986 H   0  0  0  0  0  0
  -28.1203  -28.9894   21.1949 H   0  0  0  0  0  0
  -26.0165  -25.9118   19.0320 H   0  0  0  0  0  0
  -23.9753  -27.2948   19.0207 H   0  0  0  0  0  0
  -23.7539  -30.5881   19.4017 H   0  0  0  0  0  0
  -22.7568  -29.2405   19.8589 H   0  0  0  0  0  0
  -25.1290  -36.1939   25.0823 H   0  0  0  0  0  0
  -20.9982  -28.3260   24.1408 H   0  0  0  0  0  0
  -20.5674  -26.2293   23.3606 H   0  0  0  0  0  0
  -21.6644  -26.7440   22.1207 H   0  0  0  0  0  0
  -19.6911  -25.6301   21.1238 H   0  0  0  0  0  0
  -19.6692  -27.3201   20.6743 H   0  0  0  0  0  0
  -17.4201  -26.6682   21.4027 H   0  0  0  0  0  0
  -18.0338  -26.0065   22.9017 H   0  0  0  0  0  0
  -19.7937  -30.7279   24.2265 H   0  0  0  0  0  0
  -17.5016  -31.6270   24.5171 H   0  0  0  0  0  0
  -15.5356  -30.2995   23.7653 H   0  0  0  0  0  0
  -15.8673  -28.0827   22.7071 H   0  0  0  0  0  0
  -24.5919  -30.7043   25.7784 H   0  0  0  0  0  0
  -24.8902  -32.2877   26.4855 H   0  0  0  0  0  0
  -25.8068  -30.8918   27.0225 H   0  0  0  0  0  0
  -26.2896  -29.6765   24.1179 H   0  0  0  0  0  0
  -27.4043  -29.7255   25.4640 H   0  0  0  0  0  0
  -27.8760  -30.4299   23.9357 H   0  0  0  0  0  0
  -27.2668  -33.3616   26.2054 H   0  0  0  0  0  0
  -28.3872  -32.6862   25.0320 H   0  0  0  0  0  0
  -28.0708  -31.8436   26.5407 H   0  0  0  0  0  0
  -28.2604  -38.0093   24.7514 H   0  0  0  0  0  0
  -28.1066  -36.2625   24.6298 H   0  0  0  0  0  0
  -27.2299  -37.1460   25.8872 H   0  0  0  0  0  0
  -20.9365  -29.8749   21.6881 H   0  0  0  0  0  0
  -26.0173  -38.2855   24.1410 H   0  0  0  0  0  0
  -30.0291  -23.9089   19.4300 H   0  0  0  0  0  0
  -30.5226  -21.4844   19.4831 H   0  0  0  0  0  0
  -26.9857  -23.3319   22.3936 H   0  0  0  0  0  0
  -27.0118  -21.2172   23.6838 H   0  0  0  0  0  0
  -26.8227  -19.0675   21.5274 H   0  0  0  0  0  0
  -25.7343  -19.2901   24.4243 H   0  0  0  0  0  0
  -26.3022  -17.7914   23.6765 H   0  0  0  0  0  0
  -24.8392  -18.5781   23.0760 H   0  0  0  0  0  0
  -28.9688  -25.6817   21.9231 H   0  0  0  0  0  0
  -27.2729  -25.4940   21.6967 H   0  0  0  0  0  0
  -28.4361  -18.0956   20.3308 H   0  0  0  0  0  0
  -29.7834  -18.6702   19.3893 H   0  0  0  0  0  0
  -30.4671  -17.3094   22.0311 H   0  0  0  0  0  0
  -31.3688  -17.2988   20.5574 H   0  0  0  0  0  0
  -29.2414  -19.3811   22.2149 H   0  0  0  0  0  0
  -28.9110  -15.5976   20.9602 H   0  0  0  0  0  0
  1 25  1  0  0  0
  1 30  2  0  0  0
  1 84  1  0  0  0
  2  3  1  0  0  0
  2 25  1  0  0  0
  2 85  1  0  0  0
  2 86  1  0  0  0
  3  4  1  0  0  0
  3 87  1  0  0  0
  3 88  1  0  0  0
  4  5  1  0  0  0
  4 89  1  0  0  0
  4 90  1  0  0  0
  5  6  1  0  0  0
  5 26  1  0  0  0
  5 91  1  0  0  0
  6 25  1  0  0  0
  6 92  1  0  0  0
  6 93  1  0  0  0
  7  8  2  0  0  0
  7 26  1  0  0  0
  7 29  1  0  0  0
  8  9  1  0  0  0
  8 22  1  0  0  0
  9 10  1  0  0  0
  9 27  2  0  0  0
 10 11  2  0  0  0
 10 15  1  0  0  0
 11 12  1  0  0  0
 11 94  1  0  0  0
 12 13  2  0  0  0
 12 95  1  0  0  0
 13 14  1  0  0  0
 13 31  1  0  0  0
 14 15  2  0  0  0
 14 96  1  0  0  0
 15 97  1  0  0  0
 16 17  2  0  0  0
 16 21  1  0  0  0
 16 31  1  0  0  0
 17 18  1  0  0  0
 17 98  1  0  0  0
 18 19  2  0  0  0
 18 99  1  0  0  0
 19 20  1  0  0  0
 19 24  1  0  0  0
 20 21  2  0  0  0
 20100  1  0  0  0
 21 23  1  0  0  0
 22 28  1  0  0  0
 22 32  2  0  0  0
 26 27  1  0  0  0
 28101  1  0  0  0
 28102  1  0  0  0
 29103  1  0  0  0
 29104  1  0  0  0
 33 34  1  0  0  0
 33 66  1  0  0  0
 33 70  2  0  0  0
 34 36  1  0  0  0
 34 59  1  0  0  0
 34105  1  0  0  0
 35 44  2  0  0  0
 35 45  1  0  0  0
 35 68  1  0  0  0
 36 56  1  0  0  0
 36106  1  0  0  0
 37 39  1  0  0  0
 37 47  1  0  0  0
 37 66  1  0  0  0
 37107  1  0  0  0
 38 43  2  0  0  0
 38 46  1  0  0  0
 38 47  1  0  0  0
 39 64  1  0  0  0
 39 67  2  0  0  0
 40 52  1  0  0  0
 40 53  2  0  0  0
 40 58  1  0  0  0
 41108  1  0  0  0
 41109  1  0  0  0
 41110  1  0  0  0
 41 48  1  0  0  0
 42 43  1  0  0  0
 42 66  1  0  0  0
 42111  1  0  0  0
 42112  1  0  0  0
 43 44  1  0  0  0
 44113  1  0  0  0
 45 46  2  0  0  0
 45114  1  0  0  0
 46115  1  0  0  0
 47116  1  0  0  0
 47117  1  0  0  0
 48 56  1  0  0  0
 48 65  1  0  0  0
 48118  1  0  0  0
 49 50  1  0  0  0
 49 53  1  0  0  0
 49 64  1  0  0  0
 49119  1  0  0  0
 50 51  1  0  0  0
 50120  1  0  0  0
 50121  1  0  0  0
 51 52  1  0  0  0
 51122  1  0  0  0
 51123  1  0  0  0
 52124  1  0  0  0
 52125  1  0  0  0
 53 54  1  0  0  0
 54 55  2  0  0  0
 54126  1  0  0  0
 55 57  1  0  0  0
 55127  1  0  0  0
 56 69  2  0  0  0
 57 58  2  0  0  0
 57128  1  0  0  0
 58129  1  0  0  0
 59 60  1  0  0  0
 59 61  1  0  0  0
 59 62  1  0  0  0
 60130  1  0  0  0
 60131  1  0  0  0
 60132  1  0  0  0
 61133  1  0  0  0
 61134  1  0  0  0
 61135  1  0  0  0
 62136  1  0  0  0
 62137  1  0  0  0
 62138  1  0  0  0
 63 65  1  0  0  0
 63139  1  0  0  0
 63140  1  0  0  0
 63141  1  0  0  0
 64142  1  0  0  0
 65143  1  0  0  0
 68 80  1  0  0  0
 71 72  2  0  0  0
 71 75  1  0  0  0
 71144  1  0  0  0
 72 76  1  0  0  0
 72145  1  0  0  0
 73 74  1  0  0  0
 73 75  2  0  0  0
 73146  1  0  0  0
 74 76  2  0  0  0
 74 77  1  0  0  0
 75 80  1  0  0  0
 76 83  1  0  0  0
 77 78  2  0  0  0
 77147  1  0  0  0
 78 79  1  0  0  0
 78148  1  0  0  0
 79149  1  0  0  0
 79150  1  0  0  0
 79151  1  0  0  0
 80152  1  0  0  0
 80153  1  0  0  0
 81 82  1  0  0  0
 81 83  1  0  0  0
 81154  1  0  0  0
 81155  1  0  0  0
 82 84  1  0  0  0
 82156  1  0  0  0
 82157  1  0  0  0
 83158  1  0  0  0
 84159  1  0  0  0
M  ISO  4   1 100  68 101  80 101  84 100
M  END
> <chiral flag>
0

> <version>
0

> <s_m_source_file>
/data/baiqing/PycharmProjects/Reinvent-master-3.2/result/LINK_invent/BTK/process_docking_weight1_custom_sum_contain_oxygen_bond_distance_aromatic_linkinvent_7_9_3/rearranged_h_0128.sdf

> <i_m_source_file_index>
79

> <r_mmod_Potential_Energy-OPLS-2005>
87.11767578125

> <r_mmod_Stretch_Energy-OPLS-2005>
79.4126815795898

> <r_mmod_Bend_Energy-OPLS-2005>
158.848007202148

> <r_mmod_Torsional_Energy-OPLS-2005>
279.769775390625

> <r_mmod_Improper_Torsional_Energy-OPLS-2005>
10.6364736557007

> <r_mmod_Van_der_Waal_Energy-OPLS-2005>
137.934051513672

> <r_mmod_Electrostatic_Energy-OPLS-2005>
-421.938201904297

> <r_mmod_Solvation_Energy-OPLS-2005>
-211.885635375977

> <b_mmod_Minimization_Converged-OPLS-2005>
0

> <r_mmod_RMS_Derivative-OPLS-2005>
0.482434839010239

$$$$
79
                    3D
 Structure written by MMmdl.
161169  0  0  1  0            999 V2000
  -30.6750  -14.5029   20.6016 C   0  0  0  0  0  0
  -30.4304  -12.3338   19.4157 C   0  0  0  0  0  0
  -29.4951  -12.5227   18.2032 C   0  0  0  0  0  0
  -28.0174  -12.3697   18.6176 C   0  0  0  0  0  0
  -27.6624  -13.2040   19.8770 C   0  0  2  0  0  0
  -28.7078  -12.9768   20.9926 C   0  0  0  0  0  0
  -25.2598  -13.8137   20.5697 C   0  0  0  0  0  0
  -24.1845  -13.0420   20.9188 C   0  0  0  0  0  0
  -24.6398  -11.6889   20.8738 C   0  0  0  0  0  0
  -23.9062  -10.4281   21.0410 C   0  0  0  0  0  0
  -24.3612   -9.4199   21.9191 C   0  0  0  0  0  0
  -23.6287   -8.2235   22.0758 C   0  0  0  0  0  0
  -22.4271   -8.0277   21.3547 C   0  0  0  0  0  0
  -21.9909   -9.0251   20.4649 C   0  0  0  0  0  0
  -22.7236  -10.2129   20.3060 C   0  0  0  0  0  0
  -21.6848   -6.0735   22.5284 C   0  0  0  0  0  0
  -21.4009   -6.5638   23.8218 C   0  0  0  0  0  0
  -21.3666   -5.6793   24.9182 C   0  0  0  0  0  0
  -21.6048   -4.3057   24.7231 C   0  0  0  0  0  0
  -21.8816   -3.8148   23.4351 C   0  0  0  0  0  0
  -21.9190   -4.6964   22.3407 C   0  0  0  0  0  0
  -22.7870  -13.5230   21.1851 C   0  0  0  0  0  0
  -22.1660   -4.2150   21.0985 F   0  0  0  0  0  0
  -21.5637   -3.4543   25.7745 F   0  0  0  0  0  0
  -30.0311  -13.3097   20.4431 N   0  0  0  0  0  0
  -26.3034  -12.9305   20.3379 N   0  0  0  0  0  0
  -25.9324  -11.6467   20.5762 N   0  0  0  0  0  0
  -22.0500  -12.8226   22.0403 N   0  0  0  0  0  0
  -25.4311  -15.1851   20.4109 N   0  0  0  0  0  0
  -31.7821  -14.6976   20.0859 O   0  0  0  0  0  0
  -21.6632   -6.8877   21.4246 O   0  0  0  0  0  0
  -22.3570  -14.5548   20.6716 O   0  0  0  0  0  0
  -24.6168  -31.8665   23.2080 C   0  0  0  0  0  0
  -25.9048  -32.4819   23.8388 C   0  0  1  0  0  0
  -27.2325  -27.4071   20.1080 C   0  0  0  0  0  0
  -25.5894  -33.8618   24.2319 N   0  0  0  0  0  0
  -23.4068  -30.4891   21.5490 C   0  0  2  0  0  0
  -24.8546  -28.9518   20.1146 C   0  0  0  0  0  0
  -22.7424  -29.4649   22.4978 C   0  0  0  0  0  0
  -18.0275  -28.1373   22.8490 C   0  0  0  0  0  0
  -24.1487  -36.7316   23.2639 C   0  0  0  0  0  0
  -25.9382  -30.8251   21.3645 C   0  0  0  0  0  0
  -26.0169  -29.4573   20.7115 C   0  0  0  0  0  0
  -27.2115  -28.6952   20.6993 C   0  0  0  0  0  0
  -26.0553  -26.9286   19.4923 C   0  0  0  0  0  0
  -24.8703  -27.6884   19.4994 C   0  0  0  0  0  0
  -23.6171  -29.8207   20.1643 C   0  0  0  0  0  0
  -25.4108  -36.3115   24.0339 C   0  0  1  0  0  0
  -20.5869  -28.3666   23.1310 C   0  0  2  0  0  0
  -20.6765  -26.9399   22.5416 C   0  0  0  0  0  0
  -19.5745  -26.6381   21.5210 C   0  0  0  0  0  0
  -18.1923  -26.7920   22.1620 C   0  0  0  0  0  0
  -19.1525  -28.8835   23.2898 C   0  0  0  0  0  0
  -18.9452  -30.1441   23.8909 C   0  0  0  0  0  0
  -17.6455  -30.6581   24.0562 C   0  0  0  0  0  0
  -25.9036  -34.9477   23.5130 C   0  0  0  0  0  0
  -16.5346  -29.9082   23.6324 C   0  0  0  0  0  0
  -16.7264  -28.6498   23.0348 C   0  0  0  0  0  0
  -26.4467  -31.6602   25.0723 C   0  0  0  0  0  0
  -25.3727  -31.3703   26.1465 C   0  0  0  0  0  0
  -27.0302  -30.3046   24.6106 C   0  0  0  0  0  0
  -27.6046  -32.4319   25.7483 C   0  0  0  0  0  0
  -27.5586  -37.1810   24.8462 C   0  0  0  0  0  0
  -21.4149  -29.3033   22.3716 N   0  0  0  0  0  0
  -26.4295  -37.3800   23.9411 N   0  0  0  0  0  0
  -24.6724  -31.0746   22.0989 N   0  0  0  0  0  0
  -23.4185  -28.8188   23.3026 O   0  0  0  0  0  0
  -28.3809  -26.6340   20.1105 O   0  0  0  0  0  0
  -26.5604  -34.8929   22.4695 O   0  0  0  0  0  0
  -23.5353  -32.1422   23.7460 O   0  0  0  0  0  0
  -30.4385  -17.0689   20.9606 C   0  0  0  0  0  0
  -28.4794  -18.1204   18.0043 C   0  0  0  0  0  0
  -29.6917  -19.0387   18.0260 C   0  0  0  0  0  0
  -28.7416  -17.1374   19.1441 C   0  0  0  0  0  0
  -30.0743  -19.1239   19.5122 C   0  0  1  0  0  0
  -29.9730  -15.6474   21.4004 C   0  0  0  0  0  0
  -29.3269  -20.2825   20.2658 C   0  0  0  0  0  0
  -29.6438  -21.7386   19.7722 C   0  0  0  0  0  0
  -29.0413  -24.2013   19.9028 C   0  0  0  0  0  0
  -28.2542  -25.3027   20.6769 C   0  0  0  0  0  0
  -29.7403  -17.7636   20.0173 N   0  0  0  0  0  0
  -28.8858  -22.8201   20.4747 N   0  3  0  0  0  0
  -31.3973  -17.5820   21.5479 O   0  0  0  0  0  0
  -31.4726  -12.4467   19.1122 H   0  0  0  0  0  0
  -30.3454  -11.3196   19.8089 H   0  0  0  0  0  0
  -29.7401  -11.8033   17.4209 H   0  0  0  0  0  0
  -29.6530  -13.5115   17.7698 H   0  0  0  0  0  0
  -27.8356  -11.3119   18.8121 H   0  0  0  0  0  0
  -27.3629  -12.6424   17.7890 H   0  0  0  0  0  0
  -27.7056  -14.2522   19.5835 H   0  0  0  0  0  0
  -28.6961  -11.9325   21.3087 H   0  0  0  0  0  0
  -28.4640  -13.5434   21.8908 H   0  0  0  0  0  0
  -25.2755   -9.5677   22.4768 H   0  0  0  0  0  0
  -24.0001   -7.4625   22.7472 H   0  0  0  0  0  0
  -21.0845   -8.8770   19.8947 H   0  0  0  0  0  0
  -22.3701  -10.9673   19.6172 H   0  0  0  0  0  0
  -21.1992   -7.6144   23.9726 H   0  0  0  0  0  0
  -21.1499   -6.0521   25.9087 H   0  0  0  0  0  0
  -22.0588   -2.7609   23.2853 H   0  0  0  0  0  0
  -22.4094  -11.9866   22.4768 H   0  0  0  0  0  0
  -21.1130  -13.1278   22.2623 H   0  0  0  0  0  0
  -24.6599  -15.8363   20.5107 H   0  0  0  0  0  0
  -26.2785  -15.6221   20.0762 H   0  0  0  0  0  0
  -26.7121  -32.5528   23.1154 H   0  0  0  0  0  0
  -25.0038  -33.9778   25.0460 H   0  0  0  0  0  0
  -22.6966  -31.3066   21.4082 H   0  0  0  0  0  0
  -23.3752  -35.9645   23.3303 H   0  0  0  0  0  0
  -24.3583  -36.8932   22.2054 H   0  0  0  0  0  0
  -23.7233  -37.6518   23.6652 H   0  0  0  0  0  0
  -26.0529  -31.5903   20.5954 H   0  0  0  0  0  0
  -26.8252  -30.8796   21.9841 H   0  0  0  0  0  0
  -28.1092  -29.0824   21.1612 H   0  0  0  0  0  0
  -26.0482  -25.9649   19.0029 H   0  0  0  0  0  0
  -23.9790  -27.2967   19.0286 H   0  0  0  0  0  0
  -23.7260  -30.5951   19.4042 H   0  0  0  0  0  0
  -22.7405  -29.2413   19.8686 H   0  0  0  0  0  0
  -25.1284  -36.1984   25.0833 H   0  0  0  0  0  0
  -20.9959  -28.3231   24.1431 H   0  0  0  0  0  0
  -20.5666  -26.2272   23.3603 H   0  0  0  0  0  0
  -21.6637  -26.7436   22.1213 H   0  0  0  0  0  0
  -19.6909  -25.6294   21.1232 H   0  0  0  0  0  0
  -19.6687  -27.3198   20.6745 H   0  0  0  0  0  0
  -17.4194  -26.6669   21.4020 H   0  0  0  0  0  0
  -18.0322  -26.0056   22.9009 H   0  0  0  0  0  0
  -19.7928  -30.7250   24.2288 H   0  0  0  0  0  0
  -17.5011  -31.6265   24.5156 H   0  0  0  0  0  0
  -15.5348  -30.2989   23.7641 H   0  0  0  0  0  0
  -15.8662  -28.0822   22.7057 H   0  0  0  0  0  0
  -24.5900  -30.7054   25.7790 H   0  0  0  0  0  0
  -24.8912  -32.2854   26.4924 H   0  0  0  0  0  0
  -25.8072  -30.8857   27.0217 H   0  0  0  0  0  0
  -26.2851  -29.6807   24.1155 H   0  0  0  0  0  0
  -27.4066  -29.7284   25.4568 H   0  0  0  0  0  0
  -27.8688  -30.4369   23.9266 H   0  0  0  0  0  0
  -27.2673  -33.3611   26.2087 H   0  0  0  0  0  0
  -28.3838  -32.6891   25.0296 H   0  0  0  0  0  0
  -28.0733  -31.8425   26.5373 H   0  0  0  0  0  0
  -28.2597  -38.0114   24.7532 H   0  0  0  0  0  0
  -28.1091  -36.2648   24.6264 H   0  0  0  0  0  0
  -27.2307  -37.1434   25.8865 H   0  0  0  0  0  0
  -20.9307  -29.8764   21.6947 H   0  0  0  0  0  0
  -26.0188  -38.2879   24.1418 H   0  0  0  0  0  0
  -28.3454  -17.6234   17.0424 H   0  0  0  0  0  0
  -27.5740  -18.6938   18.2085 H   0  0  0  0  0  0
  -29.5003  -19.9935   17.5397 H   0  0  0  0  0  0
  -30.5065  -18.5661   17.4746 H   0  0  0  0  0  0
  -29.1305  -16.2025   18.7373 H   0  0  0  0  0  0
  -27.8223  -16.9165   19.6869 H   0  0  0  0  0  0
  -31.1496  -19.2978   19.5894 H   0  0  0  0  0  0
  -28.8903  -15.6004   21.3142 H   0  0  0  0  0  0
  -30.2010  -15.5123   22.4572 H   0  0  0  0  0  0
  -29.5731  -20.2160   21.3264 H   0  0  0  0  0  0
  -28.2519  -20.1112   20.2011 H   0  0  0  0  0  0
  -29.4198  -21.8264   18.7101 H   0  0  0  0  0  0
  -30.7121  -21.9335   19.8749 H   0  0  0  0  0  0
  -30.0993  -24.4647   19.8860 H   0  0  0  0  0  0
  -28.7054  -24.1929   18.8653 H   0  0  0  0  0  0
  -28.6296  -25.3556   21.6996 H   0  0  0  0  0  0
  -27.2131  -24.9927   20.7709 H   0  0  0  0  0  0
  -29.1743  -22.8285   21.4416 H   0  0  0  0  0  0
  -27.9072  -22.5766   20.4572 H   0  0  0  0  0  0
  1 25  1  0  0  0
  1 30  2  0  0  0
  1 76  1  0  0  0
  2  3  1  0  0  0
  2 25  1  0  0  0
  2 84  1  0  0  0
  2 85  1  0  0  0
  3  4  1  0  0  0
  3 86  1  0  0  0
  3 87  1  0  0  0
  4  5  1  0  0  0
  4 88  1  0  0  0
  4 89  1  0  0  0
  5  6  1  0  0  0
  5 26  1  0  0  0
  5 90  1  0  0  0
  6 25  1  0  0  0
  6 91  1  0  0  0
  6 92  1  0  0  0
  7  8  2  0  0  0
  7 26  1  0  0  0
  7 29  1  0  0  0
  8  9  1  0  0  0
  8 22  1  0  0  0
  9 10  1  0  0  0
  9 27  2  0  0  0
 10 11  2  0  0  0
 10 15  1  0  0  0
 11 12  1  0  0  0
 11 93  1  0  0  0
 12 13  2  0  0  0
 12 94  1  0  0  0
 13 14  1  0  0  0
 13 31  1  0  0  0
 14 15  2  0  0  0
 14 95  1  0  0  0
 15 96  1  0  0  0
 16 17  2  0  0  0
 16 21  1  0  0  0
 16 31  1  0  0  0
 17 18  1  0  0  0
 17 97  1  0  0  0
 18 19  2  0  0  0
 18 98  1  0  0  0
 19 20  1  0  0  0
 19 24  1  0  0  0
 20 21  2  0  0  0
 20 99  1  0  0  0
 21 23  1  0  0  0
 22 28  1  0  0  0
 22 32  2  0  0  0
 26 27  1  0  0  0
 28100  1  0  0  0
 28101  1  0  0  0
 29102  1  0  0  0
 29103  1  0  0  0
 33 34  1  0  0  0
 33 66  1  0  0  0
 33 70  2  0  0  0
 34 36  1  0  0  0
 34 59  1  0  0  0
 34104  1  0  0  0
 35 44  2  0  0  0
 35 45  1  0  0  0
 35 68  1  0  0  0
 36 56  1  0  0  0
 36105  1  0  0  0
 37 39  1  0  0  0
 37 47  1  0  0  0
 37 66  1  0  0  0
 37106  1  0  0  0
 38 43  2  0  0  0
 38 46  1  0  0  0
 38 47  1  0  0  0
 39 64  1  0  0  0
 39 67  2  0  0  0
 40 52  1  0  0  0
 40 53  2  0  0  0
 40 58  1  0  0  0
 41107  1  0  0  0
 41108  1  0  0  0
 41109  1  0  0  0
 41 48  1  0  0  0
 42 43  1  0  0  0
 42 66  1  0  0  0
 42110  1  0  0  0
 42111  1  0  0  0
 43 44  1  0  0  0
 44112  1  0  0  0
 45 46  2  0  0  0
 45113  1  0  0  0
 46114  1  0  0  0
 47115  1  0  0  0
 47116  1  0  0  0
 48 56  1  0  0  0
 48 65  1  0  0  0
 48117  1  0  0  0
 49 50  1  0  0  0
 49 53  1  0  0  0
 49 64  1  0  0  0
 49118  1  0  0  0
 50 51  1  0  0  0
 50119  1  0  0  0
 50120  1  0  0  0
 51 52  1  0  0  0
 51121  1  0  0  0
 51122  1  0  0  0
 52123  1  0  0  0
 52124  1  0  0  0
 53 54  1  0  0  0
 54 55  2  0  0  0
 54125  1  0  0  0
 55 57  1  0  0  0
 55126  1  0  0  0
 56 69  2  0  0  0
 57 58  2  0  0  0
 57127  1  0  0  0
 58128  1  0  0  0
 59 60  1  0  0  0
 59 61  1  0  0  0
 59 62  1  0  0  0
 60129  1  0  0  0
 60130  1  0  0  0
 60131  1  0  0  0
 61132  1  0  0  0
 61133  1  0  0  0
 61134  1  0  0  0
 62135  1  0  0  0
 62136  1  0  0  0
 62137  1  0  0  0
 63 65  1  0  0  0
 63138  1  0  0  0
 63139  1  0  0  0
 63140  1  0  0  0
 64141  1  0  0  0
 65142  1  0  0  0
 68 80  1  0  0  0
 71 76  1  0  0  0
 71 81  1  0  0  0
 71 83  2  0  0  0
 72 73  1  0  0  0
 72 74  1  0  0  0
 72143  1  0  0  0
 72144  1  0  0  0
 73 75  1  0  0  0
 73145  1  0  0  0
 73146  1  0  0  0
 74 81  1  0  0  0
 74147  1  0  0  0
 74148  1  0  0  0
 75 77  1  0  0  0
 75 81  1  0  0  0
 75149  1  0  0  0
 76150  1  0  0  0
 76151  1  0  0  0
 77 78  1  0  0  0
 77152  1  0  0  0
 77153  1  0  0  0
 78 82  1  0  0  0
 78154  1  0  0  0
 78155  1  0  0  0
 79 80  1  0  0  0
 79 82  1  0  0  0
 79156  1  0  0  0
 79157  1  0  0  0
 80158  1  0  0  0
 80159  1  0  0  0
 82160  1  0  0  0
 82161  1  0  0  0
M  CHG  1  82   1
M  ISO  4   1 100  68 101  76 100  80 101
M  END
> <chiral flag>
0

> <version>
0

> <s_m_source_file>
/data/baiqing/PycharmProjects/Reinvent-master-3.2/result/LINK_invent/BTK/process_docking_weight1_custom_sum_contain_oxygen_bond_distance_aromatic_linkinvent_7_9_3/rearranged_h_0128.sdf

> <i_m_source_file_index>
80

> <r_mmod_Potential_Energy-OPLS-2005>
-58.3027801513672

> <r_mmod_Stretch_Energy-OPLS-2005>
49.5839500427246

> <r_mmod_Bend_Energy-OPLS-2005>
125.006904602051

> <r_mmod_Torsional_Energy-OPLS-2005>
274.316650390625

> <r_mmod_Improper_Torsional_Energy-OPLS-2005>
3.21854972839355

> <r_mmod_Van_der_Waal_Energy-OPLS-2005>
123.953018188477

> <r_mmod_Electrostatic_Energy-OPLS-2005>
-186.160385131836

> <r_mmod_Solvation_Energy-OPLS-2005>
-463.904693603516

> <b_mmod_Minimization_Converged-OPLS-2005>
0

> <r_mmod_RMS_Derivative-OPLS-2005>
0.461037486791611

$$$$
80
                    3D
 Structure written by MMmdl.
167176  0  0  1  0            999 V2000
  -30.7527  -14.3868   20.6694 C   0  0  0  0  0  0
  -30.4144  -12.2950   19.4007 C   0  0  0  0  0  0
  -29.4862  -12.5275   18.1941 C   0  0  0  0  0  0
  -28.0093  -12.3767   18.6075 C   0  0  0  0  0  0
  -27.6614  -13.2035   19.8741 C   0  0  2  0  0  0
  -28.6972  -12.9558   20.9915 C   0  0  0  0  0  0
  -25.2579  -13.8172   20.5672 C   0  0  0  0  0  0
  -24.1821  -13.0444   20.9163 C   0  0  0  0  0  0
  -24.6360  -11.6907   20.8707 C   0  0  0  0  0  0
  -23.9029  -10.4287   21.0371 C   0  0  0  0  0  0
  -24.3597   -9.4216   21.9157 C   0  0  0  0  0  0
  -23.6285   -8.2248   22.0742 C   0  0  0  0  0  0
  -22.4266   -8.0264   21.3544 C   0  0  0  0  0  0
  -21.9887   -9.0224   20.4642 C   0  0  0  0  0  0
  -22.7194  -10.2111   20.3032 C   0  0  0  0  0  0
  -21.6853   -6.0718   22.5283 C   0  0  0  0  0  0
  -21.4009   -6.5626   23.8213 C   0  0  0  0  0  0
  -21.3668   -5.6788   24.9182 C   0  0  0  0  0  0
  -21.6040   -4.3048   24.7237 C   0  0  0  0  0  0
  -21.8824   -3.8133   23.4362 C   0  0  0  0  0  0
  -21.9191   -4.6944   22.3414 C   0  0  0  0  0  0
  -22.7842  -13.5234   21.1845 C   0  0  0  0  0  0
  -22.1649   -4.2126   21.0990 F   0  0  0  0  0  0
  -21.5637   -3.4539   25.7755 F   0  0  0  0  0  0
  -30.0377  -13.2521   20.4528 N   0  0  0  0  0  0
  -26.3003  -12.9328   20.3339 N   0  0  0  0  0  0
  -25.9283  -11.6491   20.5725 N   0  0  0  0  0  0
  -22.0492  -12.8233   22.0408 N   0  0  0  0  0  0
  -25.4374  -15.1886   20.4127 N   0  0  0  0  0  0
  -31.8084  -14.6405   20.0837 O   0  0  0  0  0  0
  -21.6637   -6.8855   21.4243 O   0  0  0  0  0  0
  -22.3525  -14.5539   20.6689 O   0  0  0  0  0  0
  -24.6138  -31.8680   23.2127 C   0  0  0  0  0  0
  -25.9051  -32.4819   23.8398 C   0  0  1  0  0  0
  -27.2281  -27.4389   20.0819 C   0  0  0  0  0  0
  -25.5921  -33.8625   24.2318 N   0  0  0  0  0  0
  -23.3982  -30.4943   21.5532 C   0  0  2  0  0  0
  -24.8396  -28.9592   20.1153 C   0  0  0  0  0  0
  -22.7400  -29.4667   22.5001 C   0  0  0  0  0  0
  -18.0272  -28.1370   22.8509 C   0  0  0  0  0  0
  -24.1487  -36.7303   23.2639 C   0  0  0  0  0  0
  -25.9266  -30.8340   21.3636 C   0  0  0  0  0  0
  -26.0003  -29.4690   20.7088 C   0  0  0  0  0  0
  -27.1952  -28.7177   20.6865 C   0  0  0  0  0  0
  -26.0495  -26.9444   19.4769 C   0  0  0  0  0  0
  -24.8583  -27.6959   19.4993 C   0  0  0  0  0  0
  -23.6039  -29.8292   20.1664 C   0  0  0  0  0  0
  -25.4114  -36.3106   24.0326 C   0  0  1  0  0  0
  -20.5866  -28.3655   23.1335 C   0  0  2  0  0  0
  -20.6765  -26.9392   22.5432 C   0  0  0  0  0  0
  -19.5747  -26.6380   21.5230 C   0  0  0  0  0  0
  -18.1920  -26.7922   22.1633 C   0  0  0  0  0  0
  -19.1521  -28.8829   23.2914 C   0  0  0  0  0  0
  -18.9452  -30.1442   23.8916 C   0  0  0  0  0  0
  -17.6455  -30.6581   24.0571 C   0  0  0  0  0  0
  -25.9044  -34.9476   23.5109 C   0  0  0  0  0  0
  -16.5347  -29.9085   23.6333 C   0  0  0  0  0  0
  -16.7264  -28.6495   23.0364 C   0  0  0  0  0  0
  -26.4468  -31.6616   25.0733 C   0  0  0  0  0  0
  -25.3739  -31.3754   26.1497 C   0  0  0  0  0  0
  -27.0263  -30.3049   24.6100 C   0  0  0  0  0  0
  -27.6046  -32.4332   25.7487 C   0  0  0  0  0  0
  -27.5560  -37.1820   24.8470 C   0  0  0  0  0  0
  -21.4126  -29.3024   22.3743 N   0  0  0  0  0  0
  -26.4292  -37.3792   23.9395 N   0  0  0  0  0  0
  -24.6641  -31.0797   22.1006 N   0  0  0  0  0  0
  -23.4180  -28.8204   23.3029 O   0  0  0  0  0  0
  -28.4173  -26.7397   20.0758 O   0  0  0  0  0  0
  -26.5595  -34.8923   22.4661 O   0  0  0  0  0  0
  -23.5344  -32.1428   23.7528 O   0  0  0  0  0  0
  -30.7325  -20.2542   19.9451 C   0  0  0  0  0  0
  -28.9865  -19.0593   20.6418 C   0  0  0  0  0  0
  -29.3269  -20.0819   19.7962 C   0  0  0  0  0  0
  -31.1929  -19.3782   20.8923 C   0  0  0  0  0  0
  -33.7764  -19.7379   20.7040 C   0  0  0  0  0  0
  -33.5869  -18.2595   20.9329 C   0  0  0  0  0  0
  -32.5702  -19.2424   21.4680 C   0  0  0  0  0  0
  -28.3808  -20.8391   18.8813 C   0  0  0  0  0  0
  -30.0827  -17.6194   22.4011 C   0  0  0  0  0  0
  -30.9490  -16.3509   22.1955 C   0  0  0  0  0  0
  -28.1182  -22.3252   19.2357 C   0  0  0  0  0  0
  -28.9794  -24.6726   18.8830 C   0  0  0  0  0  0
  -28.3862  -25.3058   20.1590 C   0  0  0  0  0  0
  -30.1094  -18.6178   21.3243 N   0  0  0  0  0  0
  -30.2455  -15.2137   21.5961 N   0  0  0  0  0  0
  -29.2798  -23.2154   18.9934 N   0  3  0  0  0  0
  -31.4586  -12.3919   19.0970 H   0  0  0  0  0  0
  -30.3076  -11.2749   19.7716 H   0  0  0  0  0  0
  -29.7277  -11.8304   17.3907 H   0  0  0  0  0  0
  -29.6542  -13.5272   17.7911 H   0  0  0  0  0  0
  -27.8188  -11.3179   18.7906 H   0  0  0  0  0  0
  -27.3590  -12.6611   17.7794 H   0  0  0  0  0  0
  -27.7164  -14.2569   19.5981 H   0  0  0  0  0  0
  -28.6611  -11.9135   21.3116 H   0  0  0  0  0  0
  -28.4407  -13.5349   21.8786 H   0  0  0  0  0  0
  -25.2747   -9.5716   22.4722 H   0  0  0  0  0  0
  -24.0004   -7.4653   22.7467 H   0  0  0  0  0  0
  -21.0812   -8.8717   19.8970 H   0  0  0  0  0  0
  -22.3618  -10.9634   19.6140 H   0  0  0  0  0  0
  -21.1989   -7.6131   23.9713 H   0  0  0  0  0  0
  -21.1489   -6.0517   25.9086 H   0  0  0  0  0  0
  -22.0595   -2.7590   23.2875 H   0  0  0  0  0  0
  -22.4081  -11.9875   22.4788 H   0  0  0  0  0  0
  -21.1110  -13.1269   22.2606 H   0  0  0  0  0  0
  -24.6881  -15.8615   20.5342 H   0  0  0  0  0  0
  -26.3088  -15.6169   20.1258 H   0  0  0  0  0  0
  -26.7108  -32.5510   23.1148 H   0  0  0  0  0  0
  -25.0121  -33.9790   25.0495 H   0  0  0  0  0  0
  -22.6886  -31.3125   21.4181 H   0  0  0  0  0  0
  -23.3734  -35.9655   23.3355 H   0  0  0  0  0  0
  -24.3559  -36.8856   22.2039 H   0  0  0  0  0  0
  -23.7266  -37.6534   23.6618 H   0  0  0  0  0  0
  -26.0407  -31.6033   20.5987 H   0  0  0  0  0  0
  -26.8153  -30.8805   21.9822 H   0  0  0  0  0  0
  -28.0953  -29.1120   21.1375 H   0  0  0  0  0  0
  -26.0366  -25.9935   18.9626 H   0  0  0  0  0  0
  -23.9649  -27.3022   19.0341 H   0  0  0  0  0  0
  -23.7150  -30.6075   19.4108 H   0  0  0  0  0  0
  -22.7261  -29.2546   19.8652 H   0  0  0  0  0  0
  -25.1294  -36.1971   25.0821 H   0  0  0  0  0  0
  -20.9944  -28.3205   24.1463 H   0  0  0  0  0  0
  -20.5692  -26.2248   23.3608 H   0  0  0  0  0  0
  -21.6629  -26.7455   22.1206 H   0  0  0  0  0  0
  -19.6909  -25.6297   21.1241 H   0  0  0  0  0  0
  -19.6687  -27.3211   20.6780 H   0  0  0  0  0  0
  -17.4196  -26.6699   21.4021 H   0  0  0  0  0  0
  -18.0297  -26.0049   22.9010 H   0  0  0  0  0  0
  -19.7933  -30.7253   24.2279 H   0  0  0  0  0  0
  -17.5021  -31.6274   24.5153 H   0  0  0  0  0  0
  -15.5353  -30.3001   23.7640 H   0  0  0  0  0  0
  -15.8663  -28.0819   22.7085 H   0  0  0  0  0  0
  -24.5901  -30.7093   25.7866 H   0  0  0  0  0  0
  -24.8950  -32.2932   26.4936 H   0  0  0  0  0  0
  -25.8095  -30.8947   27.0268 H   0  0  0  0  0  0
  -26.2785  -29.6878   24.1102 H   0  0  0  0  0  0
  -27.3959  -29.7229   25.4558 H   0  0  0  0  0  0
  -27.8670  -30.4348   23.9275 H   0  0  0  0  0  0
  -27.2660  -33.3639   26.2060 H   0  0  0  0  0  0
  -28.3858  -32.6886   25.0313 H   0  0  0  0  0  0
  -28.0713  -31.8465   26.5416 H   0  0  0  0  0  0
  -28.2631  -38.0063   24.7442 H   0  0  0  0  0  0
  -28.0982  -36.2586   24.6380 H   0  0  0  0  0  0
  -27.2252  -37.1573   25.8869 H   0  0  0  0  0  0
  -20.9280  -29.8729   21.6953 H   0  0  0  0  0  0
  -26.0172  -38.2866   24.1392 H   0  0  0  0  0  0
  -31.3509  -20.9767   19.4295 H   0  0  0  0  0  0
  -28.0174  -18.6179   20.8405 H   0  0  0  0  0  0
  -33.6364  -20.0941   19.6849 H   0  0  0  0  0  0
  -34.5542  -20.2416   21.2749 H   0  0  0  0  0  0
  -34.2306  -17.7701   21.6618 H   0  0  0  0  0  0
  -33.2996  -17.6456   20.0806 H   0  0  0  0  0  0
  -32.5643  -19.4382   22.5386 H   0  0  0  0  0  0
  -27.4250  -20.3142   18.9057 H   0  0  0  0  0  0
  -28.7346  -20.7464   17.8543 H   0  0  0  0  0  0
  -30.4372  -18.1266   23.3003 H   0  0  0  0  0  0
  -29.0485  -17.3443   22.6125 H   0  0  0  0  0  0
  -31.2820  -16.0078   23.1756 H   0  0  0  0  0  0
  -31.8600  -16.5776   21.6558 H   0  0  0  0  0  0
  -27.7962  -22.4102   20.2749 H   0  0  0  0  0  0
  -27.2884  -22.6777   18.6203 H   0  0  0  0  0  0
  -29.9177  -25.1792   18.6500 H   0  0  0  0  0  0
  -28.3177  -24.8561   18.0359 H   0  0  0  0  0  0
  -28.9994  -25.0303   21.0162 H   0  0  0  0  0  0
  -27.3948  -24.9023   20.3710 H   0  0  0  0  0  0
  -29.3713  -14.9319   22.0142 H   0  0  0  0  0  0
  -29.6938  -22.9352   18.1180 H   0  0  0  0  0  0
  -29.9717  -23.0519   19.7086 H   0  0  0  0  0  0
  1 25  1  0  0  0
  1 30  2  0  0  0
  1 85  1  0  0  0
  2  3  1  0  0  0
  2 25  1  0  0  0
  2 87  1  0  0  0
  2 88  1  0  0  0
  3  4  1  0  0  0
  3 89  1  0  0  0
  3 90  1  0  0  0
  4  5  1  0  0  0
  4 91  1  0  0  0
  4 92  1  0  0  0
  5  6  1  0  0  0
  5 26  1  0  0  0
  5 93  1  0  0  0
  6 25  1  0  0  0
  6 94  1  0  0  0
  6 95  1  0  0  0
  7  8  2  0  0  0
  7 26  1  0  0  0
  7 29  1  0  0  0
  8  9  1  0  0  0
  8 22  1  0  0  0
  9 10  1  0  0  0
  9 27  2  0  0  0
 10 11  2  0  0  0
 10 15  1  0  0  0
 11 12  1  0  0  0
 11 96  1  0  0  0
 12 13  2  0  0  0
 12 97  1  0  0  0
 13 14  1  0  0  0
 13 31  1  0  0  0
 14 15  2  0  0  0
 14 98  1  0  0  0
 15 99  1  0  0  0
 16 17  2  0  0  0
 16 21  1  0  0  0
 16 31  1  0  0  0
 17 18  1  0  0  0
 17100  1  0  0  0
 18 19  2  0  0  0
 18101  1  0  0  0
 19 20  1  0  0  0
 19 24  1  0  0  0
 20 21  2  0  0  0
 20102  1  0  0  0
 21 23  1  0  0  0
 22 28  1  0  0  0
 22 32  2  0  0  0
 26 27  1  0  0  0
 28103  1  0  0  0
 28104  1  0  0  0
 29105  1  0  0  0
 29106  1  0  0  0
 33 34  1  0  0  0
 33 66  1  0  0  0
 33 70  2  0  0  0
 34 36  1  0  0  0
 34 59  1  0  0  0
 34107  1  0  0  0
 35 44  2  0  0  0
 35 45  1  0  0  0
 35 68  1  0  0  0
 36 56  1  0  0  0
 36108  1  0  0  0
 37 39  1  0  0  0
 37 47  1  0  0  0
 37 66  1  0  0  0
 37109  1  0  0  0
 38 43  2  0  0  0
 38 46  1  0  0  0
 38 47  1  0  0  0
 39 64  1  0  0  0
 39 67  2  0  0  0
 40 52  1  0  0  0
 40 53  2  0  0  0
 40 58  1  0  0  0
 41110  1  0  0  0
 41111  1  0  0  0
 41112  1  0  0  0
 41 48  1  0  0  0
 42 43  1  0  0  0
 42 66  1  0  0  0
 42113  1  0  0  0
 42114  1  0  0  0
 43 44  1  0  0  0
 44115  1  0  0  0
 45 46  2  0  0  0
 45116  1  0  0  0
 46117  1  0  0  0
 47118  1  0  0  0
 47119  1  0  0  0
 48 56  1  0  0  0
 48 65  1  0  0  0
 48120  1  0  0  0
 49 50  1  0  0  0
 49 53  1  0  0  0
 49 64  1  0  0  0
 49121  1  0  0  0
 50 51  1  0  0  0
 50122  1  0  0  0
 50123  1  0  0  0
 51 52  1  0  0  0
 51124  1  0  0  0
 51125  1  0  0  0
 52126  1  0  0  0
 52127  1  0  0  0
 53 54  1  0  0  0
 54 55  2  0  0  0
 54128  1  0  0  0
 55 57  1  0  0  0
 55129  1  0  0  0
 56 69  2  0  0  0
 57 58  2  0  0  0
 57130  1  0  0  0
 58131  1  0  0  0
 59 60  1  0  0  0
 59 61  1  0  0  0
 59 62  1  0  0  0
 60132  1  0  0  0
 60133  1  0  0  0
 60134  1  0  0  0
 61135  1  0  0  0
 61136  1  0  0  0
 61137  1  0  0  0
 62138  1  0  0  0
 62139  1  0  0  0
 62140  1  0  0  0
 63 65  1  0  0  0
 63141  1  0  0  0
 63142  1  0  0  0
 63143  1  0  0  0
 64144  1  0  0  0
 65145  1  0  0  0
 68 83  1  0  0  0
 71 73  1  0  0  0
 71 74  2  0  0  0
 71146  1  0  0  0
 72 73  2  0  0  0
 72 84  1  0  0  0
 72147  1  0  0  0
 73 78  1  0  0  0
 74 84  1  0  0  0
 74 77  1  0  0  0
 75 76  1  0  0  0
 75 77  1  0  0  0
 75148  1  0  0  0
 75149  1  0  0  0
 76 77  1  0  0  0
 76150  1  0  0  0
 76151  1  0  0  0
 77152  1  0  0  0
 78 81  1  0  0  0
 78153  1  0  0  0
 78154  1  0  0  0
 79 80  1  0  0  0
 79 84  1  0  0  0
 79155  1  0  0  0
 79156  1  0  0  0
 80 85  1  0  0  0
 80157  1  0  0  0
 80158  1  0  0  0
 81 86  1  0  0  0
 81159  1  0  0  0
 81160  1  0  0  0
 82 83  1  0  0  0
 82 86  1  0  0  0
 82161  1  0  0  0
 82162  1  0  0  0
 83163  1  0  0  0
 83164  1  0  0  0
 85165  1  0  0  0
 86166  1  0  0  0
 86167  1  0  0  0
M  CHG  1  86   1
M  ISO  4   1 100  68 101  83 101  85 100
M  END
> <chiral flag>
0

> <version>
0

> <s_m_source_file>
/data/baiqing/PycharmProjects/Reinvent-master-3.2/result/LINK_invent/BTK/process_docking_weight1_custom_sum_contain_oxygen_bond_distance_aromatic_linkinvent_7_9_3/rearranged_h_0128.sdf

> <i_m_source_file_index>
81

> <r_mmod_Potential_Energy-OPLS-2005>
-218.89892578125

> <r_mmod_Stretch_Energy-OPLS-2005>
34.4285659790039

> <r_mmod_Bend_Energy-OPLS-2005>
106.869926452637

> <r_mmod_Torsional_Energy-OPLS-2005>
257.192626953125

> <r_mmod_Improper_Torsional_Energy-OPLS-2005>
2.54610061645508

> <r_mmod_Van_der_Waal_Energy-OPLS-2005>
124.466094970703

> <r_mmod_Electrostatic_Energy-OPLS-2005>
-306.537750244141

> <r_mmod_Solvation_Energy-OPLS-2005>
-446.502868652344

> <b_mmod_Minimization_Converged-OPLS-2005>
0

> <r_mmod_RMS_Derivative-OPLS-2005>
2.58264827728271

$$$$
81
                    3D
 Structure written by MMmdl.
160168  0  0  1  0            999 V2000
  -30.7450  -14.3360   20.7041 C   0  0  0  0  0  0
  -30.4276  -12.2704   19.3830 C   0  0  0  0  0  0
  -29.4942  -12.5323   18.1845 C   0  0  0  0  0  0
  -28.0198  -12.3794   18.6052 C   0  0  0  0  0  0
  -27.6772  -13.1887   19.8828 C   0  0  2  0  0  0
  -28.7079  -12.8854   20.9923 C   0  0  0  0  0  0
  -25.2691  -13.8111   20.5687 C   0  0  0  0  0  0
  -24.1899  -13.0416   20.9170 C   0  0  0  0  0  0
  -24.6404  -11.6886   20.8674 C   0  0  0  0  0  0
  -23.9048  -10.4276   21.0373 C   0  0  0  0  0  0
  -24.3595   -9.4204   21.9166 C   0  0  0  0  0  0
  -23.6270   -8.2250   22.0757 C   0  0  0  0  0  0
  -22.4253   -8.0272   21.3551 C   0  0  0  0  0  0
  -21.9889   -9.0241   20.4652 C   0  0  0  0  0  0
  -22.7212  -10.2118   20.3042 C   0  0  0  0  0  0
  -21.6860   -6.0710   22.5277 C   0  0  0  0  0  0
  -21.4003   -6.5623   23.8203 C   0  0  0  0  0  0
  -21.3666   -5.6788   24.9173 C   0  0  0  0  0  0
  -21.6060   -4.3053   24.7236 C   0  0  0  0  0  0
  -21.8820   -3.8128   23.4358 C   0  0  0  0  0  0
  -21.9189   -4.6938   22.3404 C   0  0  0  0  0  0
  -22.7927  -13.5254   21.1834 C   0  0  0  0  0  0
  -22.1670   -4.2126   21.0990 F   0  0  0  0  0  0
  -21.5641   -3.4544   25.7748 F   0  0  0  0  0  0
  -30.0636  -13.1854   20.4736 N   0  0  0  0  0  0
  -26.3111  -12.9258   20.3345 N   0  0  0  0  0  0
  -25.9314  -11.6422   20.5668 N   0  0  0  0  0  0
  -22.0544  -12.8253   22.0375 N   0  0  0  0  0  0
  -25.4447  -15.1826   20.4154 N   0  0  0  0  0  0
  -31.7232  -14.7141   20.0479 O   0  0  0  0  0  0
  -21.6640   -6.8852   21.4238 O   0  0  0  0  0  0
  -22.3637  -14.5569   20.6692 O   0  0  0  0  0  0
  -24.6093  -31.8730   23.2112 C   0  0  0  0  0  0
  -25.9004  -32.4847   23.8400 C   0  0  1  0  0  0
  -27.2244  -27.4778   20.0818 C   0  0  0  0  0  0
  -25.5893  -33.8644   24.2347 N   0  0  0  0  0  0
  -23.3932  -30.4999   21.5508 C   0  0  2  0  0  0
  -24.8364  -28.9713   20.1093 C   0  0  0  0  0  0
  -22.7366  -29.4743   22.5008 C   0  0  0  0  0  0
  -18.0313  -28.1366   22.8468 C   0  0  0  0  0  0
  -24.1491  -36.7339   23.2638 C   0  0  0  0  0  0
  -25.9178  -30.8531   21.3535 C   0  0  0  0  0  0
  -25.9921  -29.4890   20.7057 C   0  0  0  0  0  0
  -27.1896  -28.7437   20.6995 C   0  0  0  0  0  0
  -26.0637  -26.9816   19.4530 C   0  0  0  0  0  0
  -24.8629  -27.7131   19.4849 C   0  0  0  0  0  0
  -23.5936  -29.8300   20.1653 C   0  0  0  0  0  0
  -25.4108  -36.3138   24.0340 C   0  0  1  0  0  0
  -20.5862  -28.3692   23.1345 C   0  0  2  0  0  0
  -20.6801  -26.9481   22.5331 C   0  0  0  0  0  0
  -19.5785  -26.6630   21.5088 C   0  0  0  0  0  0
  -18.2023  -26.7936   22.1613 C   0  0  0  0  0  0
  -19.1520  -28.8853   23.2942 C   0  0  0  0  0  0
  -18.9387  -30.1467   23.8927 C   0  0  0  0  0  0
  -17.6375  -30.6581   24.0516 C   0  0  0  0  0  0
  -25.9029  -34.9496   23.5144 C   0  0  0  0  0  0
  -16.5307  -29.9045   23.6228 C   0  0  0  0  0  0
  -16.7288  -28.6474   23.0262 C   0  0  0  0  0  0
  -26.4454  -31.6613   25.0707 C   0  0  0  0  0  0
  -25.3765  -31.3670   26.1472 C   0  0  0  0  0  0
  -27.0269  -30.3074   24.6037 C   0  0  0  0  0  0
  -27.6043  -32.4298   25.7480 C   0  0  0  0  0  0
  -27.5583  -37.1819   24.8466 C   0  0  0  0  0  0
  -21.4100  -29.3114   22.3797 N   0  0  0  0  0  0
  -26.4305  -37.3804   23.9395 N   0  0  0  0  0  0
  -24.6594  -31.0885   22.0985 N   0  0  0  0  0  0
  -23.4177  -28.8279   23.3005 O   0  0  0  0  0  0
  -28.3886  -26.7548   20.0741 O   0  0  0  0  0  0
  -26.5588  -34.8946   22.4703 O   0  0  0  0  0  0
  -23.5284  -32.1482   23.7515 O   0  0  0  0  0  0
  -25.8738  -22.2486   23.5156 C   0  0  0  0  0  0
  -26.1012  -20.8551   23.5263 C   0  0  0  0  0  0
  -26.5930  -23.0701   22.6232 C   0  0  0  0  0  0
  -27.7743  -21.1186   21.7718 C   0  0  0  0  0  0
  -27.0453  -20.2862   22.6451 C   0  0  0  0  0  0
  -27.5480  -22.5036   21.7451 C   0  0  0  0  0  0
  -27.2237  -18.7753   22.5771 C   0  0  0  0  0  0
  -30.2492  -16.4921   21.8864 C   0  0  0  0  0  0
  -28.8029  -16.9122   22.2233 C   0  0  0  0  0  0
  -28.3854  -25.6355   20.9590 C   0  0  0  0  0  0
  -27.7263  -24.4085   20.3112 C   0  0  0  0  0  0
  -30.2560  -15.0425   21.7251 N   0  0  0  0  0  0
  -28.6356  -18.3611   22.4442 N   0  3  0  0  0  0
  -28.2792  -23.2066   20.8217 O   0  0  0  0  0  0
  -31.4738  -12.3770   19.0893 H   0  0  0  0  0  0
  -30.3139  -11.2375   19.7179 H   0  0  0  0  0  0
  -29.7254  -11.8369   17.3750 H   0  0  0  0  0  0
  -29.6702  -13.5327   17.7852 H   0  0  0  0  0  0
  -27.8496  -11.3184   18.7905 H   0  0  0  0  0  0
  -27.3583  -12.6581   17.7844 H   0  0  0  0  0  0
  -27.7510  -14.2472   19.6322 H   0  0  0  0  0  0
  -28.6589  -11.8322   21.2729 H   0  0  0  0  0  0
  -28.4352  -13.4201   21.9027 H   0  0  0  0  0  0
  -25.2740   -9.5710   22.4742 H   0  0  0  0  0  0
  -23.9986   -7.4661   22.7495 H   0  0  0  0  0  0
  -21.0816   -8.8736   19.8971 H   0  0  0  0  0  0
  -22.3644  -10.9643   19.6156 H   0  0  0  0  0  0
  -21.1979   -7.6136   23.9696 H   0  0  0  0  0  0
  -21.1500   -6.0527   25.9081 H   0  0  0  0  0  0
  -22.0585   -2.7594   23.2869 H   0  0  0  0  0  0
  -22.4099  -11.9890   22.4760 H   0  0  0  0  0  0
  -21.1159  -13.1295   22.2538 H   0  0  0  0  0  0
  -24.6571  -15.8192   20.4765 H   0  0  0  0  0  0
  -26.2635  -15.5996   19.9943 H   0  0  0  0  0  0
  -26.7067  -32.5582   23.1155 H   0  0  0  0  0  0
  -24.9988  -33.9804   25.0456 H   0  0  0  0  0  0
  -22.6850  -31.3191   21.4123 H   0  0  0  0  0  0
  -23.3729  -35.9694   23.3302 H   0  0  0  0  0  0
  -24.3578  -36.8942   22.2052 H   0  0  0  0  0  0
  -23.7275  -37.6565   23.6630 H   0  0  0  0  0  0
  -26.0238  -31.6170   20.5813 H   0  0  0  0  0  0
  -26.8104  -30.9096   21.9630 H   0  0  0  0  0  0
  -28.0797  -29.1378   21.1664 H   0  0  0  0  0  0
  -26.0848  -26.0485   18.9107 H   0  0  0  0  0  0
  -23.9753  -27.3153   19.0097 H   0  0  0  0  0  0
  -23.6901  -30.6021   19.4012 H   0  0  0  0  0  0
  -22.7193  -29.2449   19.8780 H   0  0  0  0  0  0
  -25.1279  -36.2008   25.0828 H   0  0  0  0  0  0
  -20.9988  -28.3187   24.1432 H   0  0  0  0  0  0
  -20.5650  -26.2280   23.3460 H   0  0  0  0  0  0
  -21.6670  -26.7628   22.1071 H   0  0  0  0  0  0
  -19.7003  -25.6687   21.0783 H   0  0  0  0  0  0
  -19.6594  -27.3715   20.6830 H   0  0  0  0  0  0
  -17.4244  -26.6519   21.4095 H   0  0  0  0  0  0
  -18.0691  -26.0091   22.9055 H   0  0  0  0  0  0
  -19.7801  -30.7384   24.2299 H   0  0  0  0  0  0
  -17.4857  -31.6266   24.5103 H   0  0  0  0  0  0
  -15.5282  -30.2908   23.7467 H   0  0  0  0  0  0
  -15.8731  -28.0730   22.6954 H   0  0  0  0  0  0
  -24.5932  -30.7022   25.7819 H   0  0  0  0  0  0
  -24.8965  -32.2802   26.4993 H   0  0  0  0  0  0
  -25.8160  -30.8806   27.0191 H   0  0  0  0  0  0
  -26.2791  -29.6830   24.1139 H   0  0  0  0  0  0
  -27.4122  -29.7301   25.4454 H   0  0  0  0  0  0
  -27.8583  -30.4408   23.9113 H   0  0  0  0  0  0
  -27.2682  -33.3559   26.2135 H   0  0  0  0  0  0
  -28.3825  -32.6910   25.0307 H   0  0  0  0  0  0
  -28.0747  -31.8382   26.5342 H   0  0  0  0  0  0
  -28.2620  -38.0102   24.7490 H   0  0  0  0  0  0
  -28.1061  -36.2634   24.6301 H   0  0  0  0  0  0
  -27.2297  -37.1489   25.8873 H   0  0  0  0  0  0
  -20.9219  -29.8799   21.7030 H   0  0  0  0  0  0
  -26.0190  -38.2881   24.1370 H   0  0  0  0  0  0
  -25.1374  -22.6873   24.1788 H   0  0  0  0  0  0
  -25.5295  -20.2185   24.1919 H   0  0  0  0  0  0
  -26.3900  -24.1323   22.6185 H   0  0  0  0  0  0
  -28.4874  -20.7000   21.0730 H   0  0  0  0  0  0
  -26.6564  -18.4279   21.7149 H   0  0  0  0  0  0
  -26.7807  -18.2990   23.4515 H   0  0  0  0  0  0
  -30.9310  -16.7723   22.6897 H   0  0  0  0  0  0
  -30.5901  -16.9877   20.9736 H   0  0  0  0  0  0
  -28.1416  -16.5946   21.4144 H   0  0  0  0  0  0
  -28.4724  -16.3977   23.1267 H   0  0  0  0  0  0
  -29.4313  -25.4041   21.1686 H   0  0  0  0  0  0
  -27.9243  -25.8740   21.9214 H   0  0  0  0  0  0
  -27.9639  -24.3918   19.2475 H   0  0  0  0  0  0
  -26.6367  -24.4408   20.3742 H   0  0  0  0  0  0
  -29.6113  -14.5327   22.3114 H   0  0  0  0  0  0
  -29.0300  -18.8617   21.6673 H   0  0  0  0  0  0
  -29.1292  -18.6229   23.2811 H   0  0  0  0  0  0
  1 25  1  0  0  0
  1 30  2  0  0  0
  1 82  1  0  0  0
  2  3  1  0  0  0
  2 25  1  0  0  0
  2 85  1  0  0  0
  2 86  1  0  0  0
  3  4  1  0  0  0
  3 87  1  0  0  0
  3 88  1  0  0  0
  4  5  1  0  0  0
  4 89  1  0  0  0
  4 90  1  0  0  0
  5  6  1  0  0  0
  5 26  1  0  0  0
  5 91  1  0  0  0
  6 25  1  0  0  0
  6 92  1  0  0  0
  6 93  1  0  0  0
  7  8  2  0  0  0
  7 26  1  0  0  0
  7 29  1  0  0  0
  8  9  1  0  0  0
  8 22  1  0  0  0
  9 10  1  0  0  0
  9 27  2  0  0  0
 10 11  2  0  0  0
 10 15  1  0  0  0
 11 12  1  0  0  0
 11 94  1  0  0  0
 12 13  2  0  0  0
 12 95  1  0  0  0
 13 14  1  0  0  0
 13 31  1  0  0  0
 14 15  2  0  0  0
 14 96  1  0  0  0
 15 97  1  0  0  0
 16 17  2  0  0  0
 16 21  1  0  0  0
 16 31  1  0  0  0
 17 18  1  0  0  0
 17 98  1  0  0  0
 18 19  2  0  0  0
 18 99  1  0  0  0
 19 20  1  0  0  0
 19 24  1  0  0  0
 20 21  2  0  0  0
 20100  1  0  0  0
 21 23  1  0  0  0
 22 28  1  0  0  0
 22 32  2  0  0  0
 26 27  1  0  0  0
 28101  1  0  0  0
 28102  1  0  0  0
 29103  1  0  0  0
 29104  1  0  0  0
 33 34  1  0  0  0
 33 66  1  0  0  0
 33 70  2  0  0  0
 34 36  1  0  0  0
 34 59  1  0  0  0
 34105  1  0  0  0
 35 44  2  0  0  0
 35 45  1  0  0  0
 35 68  1  0  0  0
 36 56  1  0  0  0
 36106  1  0  0  0
 37 39  1  0  0  0
 37 47  1  0  0  0
 37 66  1  0  0  0
 37107  1  0  0  0
 38 43  2  0  0  0
 38 46  1  0  0  0
 38 47  1  0  0  0
 39 64  1  0  0  0
 39 67  2  0  0  0
 40 52  1  0  0  0
 40 53  2  0  0  0
 40 58  1  0  0  0
 41108  1  0  0  0
 41109  1  0  0  0
 41110  1  0  0  0
 41 48  1  0  0  0
 42 43  1  0  0  0
 42 66  1  0  0  0
 42111  1  0  0  0
 42112  1  0  0  0
 43 44  1  0  0  0
 44113  1  0  0  0
 45 46  2  0  0  0
 45114  1  0  0  0
 46115  1  0  0  0
 47116  1  0  0  0
 47117  1  0  0  0
 48 56  1  0  0  0
 48 65  1  0  0  0
 48118  1  0  0  0
 49 50  1  0  0  0
 49 53  1  0  0  0
 49 64  1  0  0  0
 49119  1  0  0  0
 50 51  1  0  0  0
 50120  1  0  0  0
 50121  1  0  0  0
 51 52  1  0  0  0
 51122  1  0  0  0
 51123  1  0  0  0
 52124  1  0  0  0
 52125  1  0  0  0
 53 54  1  0  0  0
 54 55  2  0  0  0
 54126  1  0  0  0
 55 57  1  0  0  0
 55127  1  0  0  0
 56 69  2  0  0  0
 57 58  2  0  0  0
 57128  1  0  0  0
 58129  1  0  0  0
 59 60  1  0  0  0
 59 61  1  0  0  0
 59 62  1  0  0  0
 60130  1  0  0  0
 60131  1  0  0  0
 60132  1  0  0  0
 61133  1  0  0  0
 61134  1  0  0  0
 61135  1  0  0  0
 62136  1  0  0  0
 62137  1  0  0  0
 62138  1  0  0  0
 63 65  1  0  0  0
 63139  1  0  0  0
 63140  1  0  0  0
 63141  1  0  0  0
 64142  1  0  0  0
 65143  1  0  0  0
 68 80  1  0  0  0
 71 72  2  0  0  0
 71 73  1  0  0  0
 71144  1  0  0  0
 72 75  1  0  0  0
 72145  1  0  0  0
 73 76  2  0  0  0
 73146  1  0  0  0
 74 75  2  0  0  0
 74 76  1  0  0  0
 74147  1  0  0  0
 75 77  1  0  0  0
 76 84  1  0  0  0
 77 83  1  0  0  0
 77148  1  0  0  0
 77149  1  0  0  0
 78 79  1  0  0  0
 78 82  1  0  0  0
 78150  1  0  0  0
 78151  1  0  0  0
 79 83  1  0  0  0
 79152  1  0  0  0
 79153  1  0  0  0
 80 81  1  0  0  0
 80154  1  0  0  0
 80155  1  0  0  0
 81 84  1  0  0  0
 81156  1  0  0  0
 81157  1  0  0  0
 82158  1  0  0  0
 83159  1  0  0  0
 83160  1  0  0  0
M  CHG  1  83   1
M  ISO  4   1 100  68 101  80 101  82 100
M  END
> <chiral flag>
0

> <version>
0

> <s_m_source_file>
/data/baiqing/PycharmProjects/Reinvent-master-3.2/result/LINK_invent/BTK/process_docking_weight1_custom_sum_contain_oxygen_bond_distance_aromatic_linkinvent_7_9_3/rearranged_h_0128.sdf

> <i_m_source_file_index>
82

> <r_mmod_Potential_Energy-OPLS-2005>
-311.252044677734

> <r_mmod_Stretch_Energy-OPLS-2005>
31.3439426422119

> <r_mmod_Bend_Energy-OPLS-2005>
94.4525527954102

> <r_mmod_Torsional_Energy-OPLS-2005>
227.462799072266

> <r_mmod_Improper_Torsional_Energy-OPLS-2005>
3.66023635864258

> <r_mmod_Van_der_Waal_Energy-OPLS-2005>
153.754623413086

> <r_mmod_Electrostatic_Energy-OPLS-2005>
-334.222534179688

> <r_mmod_Solvation_Energy-OPLS-2005>
-496.331665039062

> <b_mmod_Minimization_Converged-OPLS-2005>
0

> <r_mmod_RMS_Derivative-OPLS-2005>
4.66202831268311

$$$$
82
                    3D
 Structure written by MMmdl.
168177  0  0  1  0            999 V2000
  -30.6935  -14.4289   20.6088 C   0  0  0  0  0  0
  -30.4286  -12.2887   19.4123 C   0  0  0  0  0  0
  -29.4947  -12.5100   18.2043 C   0  0  0  0  0  0
  -28.0156  -12.3703   18.6161 C   0  0  0  0  0  0
  -27.6672  -13.1968   19.8841 C   0  0  2  0  0  0
  -28.7043  -12.9347   20.9992 C   0  0  0  0  0  0
  -25.2627  -13.8160   20.5675 C   0  0  0  0  0  0
  -24.1862  -13.0463   20.9176 C   0  0  0  0  0  0
  -24.6394  -11.6912   20.8746 C   0  0  0  0  0  0
  -23.9058  -10.4307   21.0422 C   0  0  0  0  0  0
  -24.3610   -9.4219   21.9198 C   0  0  0  0  0  0
  -23.6284   -8.2257   22.0755 C   0  0  0  0  0  0
  -22.4265   -8.0298   21.3544 C   0  0  0  0  0  0
  -21.9902   -9.0278   20.4649 C   0  0  0  0  0  0
  -22.7235  -10.2152   20.3072 C   0  0  0  0  0  0
  -21.6859   -6.0745   22.5290 C   0  0  0  0  0  0
  -21.4012   -6.5648   23.8221 C   0  0  0  0  0  0
  -21.3653   -5.6795   24.9180 C   0  0  0  0  0  0
  -21.6039   -4.3059   24.7228 C   0  0  0  0  0  0
  -21.8818   -3.8153   23.4351 C   0  0  0  0  0  0
  -21.9186   -4.6971   22.3407 C   0  0  0  0  0  0
  -22.7886  -13.5265   21.1839 C   0  0  0  0  0  0
  -22.1652   -4.2156   21.0986 F   0  0  0  0  0  0
  -21.5617   -3.4543   25.7740 F   0  0  0  0  0  0
  -30.0418  -13.2459   20.4597 N   0  0  0  0  0  0
  -26.3044  -12.9305   20.3386 N   0  0  0  0  0  0
  -25.9312  -11.6474   20.5770 N   0  0  0  0  0  0
  -22.0516  -12.8275   22.0398 N   0  0  0  0  0  0
  -25.4422  -15.1872   20.4058 N   0  0  0  0  0  0
  -31.7812  -14.6820   20.0856 O   0  0  0  0  0  0
  -21.6629   -6.8895   21.4251 O   0  0  0  0  0  0
  -22.3586  -14.5587   20.6694 O   0  0  0  0  0  0
  -24.6108  -31.8702   23.2133 C   0  0  0  0  0  0
  -25.9008  -32.4844   23.8422 C   0  0  1  0  0  0
  -27.2408  -27.4591   20.0877 C   0  0  0  0  0  0
  -25.5884  -33.8648   24.2358 N   0  0  0  0  0  0
  -23.4024  -30.4920   21.5521 C   0  0  2  0  0  0
  -24.8514  -28.9644   20.1136 C   0  0  0  0  0  0
  -22.7412  -29.4661   22.4991 C   0  0  0  0  0  0
  -18.0294  -28.1373   22.8483 C   0  0  0  0  0  0
  -24.1484  -36.7318   23.2642 C   0  0  0  0  0  0
  -25.9285  -30.8384   21.3698 C   0  0  0  0  0  0
  -26.0072  -29.4741   20.7188 C   0  0  0  0  0  0
  -27.2049  -28.7252   20.7108 C   0  0  0  0  0  0
  -26.0801  -26.9757   19.4510 C   0  0  0  0  0  0
  -24.8816  -27.7120   19.4761 C   0  0  0  0  0  0
  -23.6114  -29.8271   20.1654 C   0  0  0  0  0  0
  -25.4103  -36.3133   24.0352 C   0  0  1  0  0  0
  -20.5869  -28.3702   23.1346 C   0  0  2  0  0  0
  -20.6804  -26.9404   22.5530 C   0  0  0  0  0  0
  -19.5820  -26.6278   21.5319 C   0  0  0  0  0  0
  -18.1975  -26.7889   22.1674 C   0  0  0  0  0  0
  -19.1526  -28.8858   23.2898 C   0  0  0  0  0  0
  -18.9419  -30.1470   23.8893 C   0  0  0  0  0  0
  -17.6406  -30.6594   24.0524 C   0  0  0  0  0  0
  -25.9023  -34.9490   23.5150 C   0  0  0  0  0  0
  -16.5317  -29.9065   23.6281 C   0  0  0  0  0  0
  -16.7276  -28.6475   23.0330 C   0  0  0  0  0  0
  -26.4458  -31.6618   25.0737 C   0  0  0  0  0  0
  -25.3740  -31.3685   26.1490 C   0  0  0  0  0  0
  -27.0290  -30.3082   24.6079 C   0  0  0  0  0  0
  -27.6055  -32.4314   25.7484 C   0  0  0  0  0  0
  -27.5583  -37.1814   24.8469 C   0  0  0  0  0  0
  -21.4146  -29.3037   22.3718 N   0  0  0  0  0  0
  -26.4301  -37.3805   23.9405 N   0  0  0  0  0  0
  -24.6646  -31.0802   22.1033 N   0  0  0  0  0  0
  -23.4187  -28.8229   23.3055 O   0  0  0  0  0  0
  -28.3962  -26.7119   20.0912 O   0  0  0  0  0  0
  -26.5586  -34.8930   22.4709 O   0  0  0  0  0  0
  -23.5294  -32.1449   23.7513 O   0  0  0  0  0  0
  -28.3937  -21.9152   21.0805 C   0  0  0  0  0  0
  -26.3655  -21.6991   21.9361 C   0  0  0  0  0  0
  -27.6085  -21.0191   21.7622 C   0  0  0  0  0  0
  -26.3832  -22.9281   21.3339 C   0  0  0  0  0  0
  -23.0965  -21.1616   23.2123 C   0  0  0  0  0  0
  -24.3563  -21.8887   23.6988 C   0  0  0  0  0  0
  -23.8518  -20.8069   21.9258 C   0  0  0  0  0  0
  -25.1707  -21.0937   22.6643 C   0  0  0  0  0  0
  -25.3200  -23.9771   21.1779 C   0  0  0  0  0  0
  -27.9503  -19.6194   22.2546 C   0  0  0  0  0  0
  -28.1641  -24.2263   20.0421 C   0  0  0  0  0  0
  -30.2224  -16.8153   21.2142 C   0  0  0  0  0  0
  -28.3235  -25.5163   20.8845 C   0  0  0  0  0  0
  -29.0329  -17.5669   21.8477 C   0  0  0  0  0  0
  -27.6663  -23.0755   20.8084 N   0  0  0  0  0  0
  -29.9911  -15.3682   21.2573 N   0  0  0  0  0  0
  -29.0307  -18.9736   21.5741 O   0  0  0  0  0  0
  -31.4717  -12.3969   19.1095 H   0  0  0  0  0  0
  -30.3348  -11.2673   19.7829 H   0  0  0  0  0  0
  -29.7295  -11.7928   17.4160 H   0  0  0  0  0  0
  -29.6659  -13.5019   17.7837 H   0  0  0  0  0  0
  -27.8209  -11.3116   18.7948 H   0  0  0  0  0  0
  -27.3637  -12.6587   17.7903 H   0  0  0  0  0  0
  -27.7263  -14.2507   19.6116 H   0  0  0  0  0  0
  -28.6718  -11.8865   21.3007 H   0  0  0  0  0  0
  -28.4619  -13.4949   21.9037 H   0  0  0  0  0  0
  -25.2762   -9.5680   22.4767 H   0  0  0  0  0  0
  -23.9991   -7.4644   22.7475 H   0  0  0  0  0  0
  -21.0832   -8.8818   19.8952 H   0  0  0  0  0  0
  -22.3723  -10.9697   19.6176 H   0  0  0  0  0  0
  -21.2021   -7.6156   23.9732 H   0  0  0  0  0  0
  -21.1462   -6.0519   25.9079 H   0  0  0  0  0  0
  -22.0599   -2.7619   23.2851 H   0  0  0  0  0  0
  -22.4082  -11.9894   22.4749 H   0  0  0  0  0  0
  -21.1154  -13.1331   22.2636 H   0  0  0  0  0  0
  -24.6839  -15.8518   20.5145 H   0  0  0  0  0  0
  -26.2957  -15.6116   20.0666 H   0  0  0  0  0  0
  -26.7069  -32.5582   23.1180 H   0  0  0  0  0  0
  -25.0056  -33.9833   25.0520 H   0  0  0  0  0  0
  -22.6923  -31.3086   21.4142 H   0  0  0  0  0  0
  -23.3751  -35.9649   23.3324 H   0  0  0  0  0  0
  -24.3586  -36.8904   22.2053 H   0  0  0  0  0  0
  -23.7229  -37.6529   23.6633 H   0  0  0  0  0  0
  -26.0397  -31.6065   20.6022 H   0  0  0  0  0  0
  -26.8146  -30.8908   21.9901 H   0  0  0  0  0  0
  -28.0961  -29.1096   21.1865 H   0  0  0  0  0  0
  -26.1023  -26.0439   18.9105 H   0  0  0  0  0  0
  -24.0015  -27.3226   18.9835 H   0  0  0  0  0  0
  -23.7167  -30.6032   19.4065 H   0  0  0  0  0  0
  -22.7370  -29.2436   19.8699 H   0  0  0  0  0  0
  -25.1274  -36.2020   25.0848 H   0  0  0  0  0  0
  -20.9956  -28.3357   24.1479 H   0  0  0  0  0  0
  -20.5668  -26.2337   23.3769 H   0  0  0  0  0  0
  -21.6705  -26.7415   22.1404 H   0  0  0  0  0  0
  -19.6993  -25.6133   21.1499 H   0  0  0  0  0  0
  -19.6802  -27.2956   20.6740 H   0  0  0  0  0  0
  -17.4268  -26.6576   21.4055 H   0  0  0  0  0  0
  -18.0382  -26.0064   22.9111 H   0  0  0  0  0  0
  -19.7877  -30.7311   24.2265 H   0  0  0  0  0  0
  -17.4922  -31.6291   24.5088 H   0  0  0  0  0  0
  -15.5306  -30.2959   23.7561 H   0  0  0  0  0  0
  -15.8697  -28.0766   22.7051 H   0  0  0  0  0  0
  -24.5914  -30.7038   25.7816 H   0  0  0  0  0  0
  -24.8919  -32.2815   26.4989 H   0  0  0  0  0  0
  -25.8101  -30.8815   27.0220 H   0  0  0  0  0  0
  -26.2824  -29.6853   24.1142 H   0  0  0  0  0  0
  -27.4101  -29.7312   25.4516 H   0  0  0  0  0  0
  -27.8639  -30.4444   23.9204 H   0  0  0  0  0  0
  -27.2713  -33.3600   26.2120 H   0  0  0  0  0  0
  -28.3826  -32.6892   25.0278 H   0  0  0  0  0  0
  -28.0768  -31.8399   26.5341 H   0  0  0  0  0  0
  -28.2617  -38.0097   24.7503 H   0  0  0  0  0  0
  -28.1061  -36.2630   24.6302 H   0  0  0  0  0  0
  -27.2305  -37.1475   25.8876 H   0  0  0  0  0  0
  -20.9339  -29.8699   21.6864 H   0  0  0  0  0  0
  -26.0199  -38.2896   24.1384 H   0  0  0  0  0  0
  -29.4190  -21.8150   20.7466 H   0  0  0  0  0  0
  -22.2221  -21.7987   23.0709 H   0  0  0  0  0  0
  -22.8566  -20.2832   23.8145 H   0  0  0  0  0  0
  -24.6285  -21.6784   24.7349 H   0  0  0  0  0  0
  -24.3240  -22.9616   23.5148 H   0  0  0  0  0  0
  -23.6363  -21.4937   21.1082 H   0  0  0  0  0  0
  -23.7366  -19.7732   21.5985 H   0  0  0  0  0  0
  -25.4908  -20.1776   23.1583 H   0  0  0  0  0  0
  -24.3200  -23.5635   21.2721 H   0  0  0  0  0  0
  -25.3533  -24.4273   20.1910 H   0  0  0  0  0  0
  -25.4152  -24.7661   21.9242 H   0  0  0  0  0  0
  -27.0518  -19.0142   22.1327 H   0  0  0  0  0  0
  -28.1580  -19.6588   23.3244 H   0  0  0  0  0  0
  -29.1237  -23.9689   19.5927 H   0  0  0  0  0  0
  -27.4895  -24.3836   19.2027 H   0  0  0  0  0  0
  -31.1571  -17.0715   21.7155 H   0  0  0  0  0  0
  -30.3254  -17.1171   20.1717 H   0  0  0  0  0  0
  -29.2428  -25.4416   21.4655 H   0  0  0  0  0  0
  -27.5294  -25.6052   21.6273 H   0  0  0  0  0  0
  -29.0284  -17.3915   22.9256 H   0  0  0  0  0  0
  -28.1083  -17.1390   21.4543 H   0  0  0  0  0  0
  -29.1122  -15.0600   21.6439 H   0  0  0  0  0  0
  1 25  1  0  0  0
  1 30  2  0  0  0
  1 86  1  0  0  0
  2  3  1  0  0  0
  2 25  1  0  0  0
  2 88  1  0  0  0
  2 89  1  0  0  0
  3  4  1  0  0  0
  3 90  1  0  0  0
  3 91  1  0  0  0
  4  5  1  0  0  0
  4 92  1  0  0  0
  4 93  1  0  0  0
  5  6  1  0  0  0
  5 26  1  0  0  0
  5 94  1  0  0  0
  6 25  1  0  0  0
  6 95  1  0  0  0
  6 96  1  0  0  0
  7  8  2  0  0  0
  7 26  1  0  0  0
  7 29  1  0  0  0
  8  9  1  0  0  0
  8 22  1  0  0  0
  9 10  1  0  0  0
  9 27  2  0  0  0
 10 11  2  0  0  0
 10 15  1  0  0  0
 11 12  1  0  0  0
 11 97  1  0  0  0
 12 13  2  0  0  0
 12 98  1  0  0  0
 13 14  1  0  0  0
 13 31  1  0  0  0
 14 15  2  0  0  0
 14 99  1  0  0  0
 15100  1  0  0  0
 16 17  2  0  0  0
 16 21  1  0  0  0
 16 31  1  0  0  0
 17 18  1  0  0  0
 17101  1  0  0  0
 18 19  2  0  0  0
 18102  1  0  0  0
 19 20  1  0  0  0
 19 24  1  0  0  0
 20 21  2  0  0  0
 20103  1  0  0  0
 21 23  1  0  0  0
 22 28  1  0  0  0
 22 32  2  0  0  0
 26 27  1  0  0  0
 28104  1  0  0  0
 28105  1  0  0  0
 29106  1  0  0  0
 29107  1  0  0  0
 33 34  1  0  0  0
 33 66  1  0  0  0
 33 70  2  0  0  0
 34 36  1  0  0  0
 34 59  1  0  0  0
 34108  1  0  0  0
 35 44  2  0  0  0
 35 45  1  0  0  0
 35 68  1  0  0  0
 36 56  1  0  0  0
 36109  1  0  0  0
 37 39  1  0  0  0
 37 47  1  0  0  0
 37 66  1  0  0  0
 37110  1  0  0  0
 38 43  2  0  0  0
 38 46  1  0  0  0
 38 47  1  0  0  0
 39 64  1  0  0  0
 39 67  2  0  0  0
 40 52  1  0  0  0
 40 53  2  0  0  0
 40 58  1  0  0  0
 41111  1  0  0  0
 41112  1  0  0  0
 41113  1  0  0  0
 41 48  1  0  0  0
 42 43  1  0  0  0
 42 66  1  0  0  0
 42114  1  0  0  0
 42115  1  0  0  0
 43 44  1  0  0  0
 44116  1  0  0  0
 45 46  2  0  0  0
 45117  1  0  0  0
 46118  1  0  0  0
 47119  1  0  0  0
 47120  1  0  0  0
 48 56  1  0  0  0
 48 65  1  0  0  0
 48121  1  0  0  0
 49 50  1  0  0  0
 49 53  1  0  0  0
 49 64  1  0  0  0
 49122  1  0  0  0
 50 51  1  0  0  0
 50123  1  0  0  0
 50124  1  0  0  0
 51 52  1  0  0  0
 51125  1  0  0  0
 51126  1  0  0  0
 52127  1  0  0  0
 52128  1  0  0  0
 53 54  1  0  0  0
 54 55  2  0  0  0
 54129  1  0  0  0
 55 57  1  0  0  0
 55130  1  0  0  0
 56 69  2  0  0  0
 57 58  2  0  0  0
 57131  1  0  0  0
 58132  1  0  0  0
 59 60  1  0  0  0
 59 61  1  0  0  0
 59 62  1  0  0  0
 60133  1  0  0  0
 60134  1  0  0  0
 60135  1  0  0  0
 61136  1  0  0  0
 61137  1  0  0  0
 61138  1  0  0  0
 62139  1  0  0  0
 62140  1  0  0  0
 62141  1  0  0  0
 63 65  1  0  0  0
 63142  1  0  0  0
 63143  1  0  0  0
 63144  1  0  0  0
 64145  1  0  0  0
 65146  1  0  0  0
 68 83  1  0  0  0
 71 73  2  0  0  0
 71 85  1  0  0  0
 71147  1  0  0  0
 72 73  1  0  0  0
 72 74  2  0  0  0
 72 78  1  0  0  0
 73 80  1  0  0  0
 74 79  1  0  0  0
 74 85  1  0  0  0
 75 76  1  0  0  0
 75 77  1  0  0  0
 75148  1  0  0  0
 75149  1  0  0  0
 76 78  1  0  0  0
 76150  1  0  0  0
 76151  1  0  0  0
 77 78  1  0  0  0
 77152  1  0  0  0
 77153  1  0  0  0
 78154  1  0  0  0
 79155  1  0  0  0
 79156  1  0  0  0
 79157  1  0  0  0
 80 87  1  0  0  0
 80158  1  0  0  0
 80159  1  0  0  0
 81 83  1  0  0  0
 81 85  1  0  0  0
 81160  1  0  0  0
 81161  1  0  0  0
 82 84  1  0  0  0
 82 86  1  0  0  0
 82162  1  0  0  0
 82163  1  0  0  0
 83164  1  0  0  0
 83165  1  0  0  0
 84 87  1  0  0  0
 84166  1  0  0  0
 84167  1  0  0  0
 86168  1  0  0  0
M  ISO  4   1 100  68 101  83 101  86 100
M  END
> <chiral flag>
0

> <version>
0

> <s_m_source_file>
/data/baiqing/PycharmProjects/Reinvent-master-3.2/result/LINK_invent/BTK/process_docking_weight1_custom_sum_contain_oxygen_bond_distance_aromatic_linkinvent_7_9_3/rearranged_h_0128.sdf

> <i_m_source_file_index>
83

> <r_mmod_Potential_Energy-OPLS-2005>
-87.321662902832

> <r_mmod_Stretch_Energy-OPLS-2005>
35.429630279541

> <r_mmod_Bend_Energy-OPLS-2005>
113.896919250488

> <r_mmod_Torsional_Energy-OPLS-2005>
263.119049072266

> <r_mmod_Improper_Torsional_Energy-OPLS-2005>
3.95849323272705

> <r_mmod_Van_der_Waal_Energy-OPLS-2005>
127.206893920898

> <r_mmod_Electrostatic_Energy-OPLS-2005>
-423.712280273438

> <r_mmod_Solvation_Energy-OPLS-2005>
-216.679580688477

> <b_mmod_Minimization_Converged-OPLS-2005>
0

> <r_mmod_RMS_Derivative-OPLS-2005>
2.59736132621765

$$$$
83
                    3D
 Structure written by MMmdl.
150158  0  0  1  0            999 V2000
  -30.5893  -14.7884   20.4595 C   0  0  0  0  0  0
  -30.4431  -12.4867   19.4844 C   0  0  0  0  0  0
  -29.5195  -12.5204   18.2475 C   0  0  0  0  0  0
  -28.0515  -12.3131   18.6670 C   0  0  0  0  0  0
  -27.6430  -13.2263   19.8532 C   0  0  2  0  0  0
  -28.6844  -13.1873   20.9925 C   0  0  0  0  0  0
  -25.2525  -13.8160   20.5677 C   0  0  0  0  0  0
  -24.1812  -13.0429   20.9217 C   0  0  0  0  0  0
  -24.6402  -11.6904   20.8770 C   0  0  0  0  0  0
  -23.9080  -10.4297   21.0434 C   0  0  0  0  0  0
  -24.3625   -9.4208   21.9206 C   0  0  0  0  0  0
  -23.6295   -8.2248   22.0776 C   0  0  0  0  0  0
  -22.4279   -8.0292   21.3561 C   0  0  0  0  0  0
  -21.9919   -9.0267   20.4659 C   0  0  0  0  0  0
  -22.7258  -10.2145   20.3072 C   0  0  0  0  0  0
  -21.6851   -6.0744   22.5282 C   0  0  0  0  0  0
  -21.4004   -6.5645   23.8216 C   0  0  0  0  0  0
  -21.3651   -5.6802   24.9175 C   0  0  0  0  0  0
  -21.6047   -4.3064   24.7230 C   0  0  0  0  0  0
  -21.8816   -3.8153   23.4351 C   0  0  0  0  0  0
  -21.9195   -4.6972   22.3403 C   0  0  0  0  0  0
  -22.7839  -13.5233   21.1840 C   0  0  0  0  0  0
  -22.1666   -4.2160   21.0983 F   0  0  0  0  0  0
  -21.5629   -3.4540   25.7738 F   0  0  0  0  0  0
  -29.9797  -13.5517   20.4075 N   0  0  0  0  0  0
  -26.2943  -12.9358   20.3289 N   0  0  0  0  0  0
  -25.9338  -11.6513   20.5776 N   0  0  0  0  0  0
  -22.0469  -12.8241   22.0385 N   0  0  0  0  0  0
  -25.4200  -15.1872   20.3987 N   0  0  0  0  0  0
  -31.7783  -14.8875   20.1429 O   0  0  0  0  0  0
  -21.6643   -6.8887   21.4245 O   0  0  0  0  0  0
  -22.3552  -14.5545   20.6682 O   0  0  0  0  0  0
  -24.6326  -31.8534   23.1950 C   0  0  0  0  0  0
  -25.9137  -32.4744   23.8326 C   0  0  1  0  0  0
  -27.2231  -27.2452   20.1482 C   0  0  0  0  0  0
  -25.5917  -33.8547   24.2226 N   0  0  0  0  0  0
  -23.4312  -30.4730   21.5402 C   0  0  2  0  0  0
  -24.8785  -28.9087   20.1185 C   0  0  0  0  0  0
  -22.7502  -29.4605   22.4931 C   0  0  0  0  0  0
  -18.0301  -28.1390   22.8480 C   0  0  0  0  0  0
  -24.1486  -36.7284   23.2643 C   0  0  0  0  0  0
  -25.9779  -30.7641   21.3739 C   0  0  0  0  0  0
  -26.0517  -29.3825   20.7205 C   0  0  0  0  0  0
  -27.2311  -28.5685   20.7103 C   0  0  0  0  0  0
  -26.0263  -26.8313   19.5300 C   0  0  0  0  0  0
  -24.8712  -27.6421   19.5100 C   0  0  0  0  0  0
  -23.6501  -29.7987   20.1600 C   0  0  0  0  0  0
  -25.4119  -36.3059   24.0319 C   0  0  1  0  0  0
  -20.5887  -28.3722   23.1291 C   0  0  2  0  0  0
  -20.6769  -26.9429   22.5437 C   0  0  0  0  0  0
  -19.5798  -26.6422   21.5201 C   0  0  0  0  0  0
  -18.1943  -26.7976   22.1544 C   0  0  0  0  0  0
  -19.1542  -28.8882   23.2883 C   0  0  0  0  0  0
  -18.9446  -30.1479   23.8906 C   0  0  0  0  0  0
  -17.6437  -30.6585   24.0559 C   0  0  0  0  0  0
  -25.9060  -34.9431   23.5078 C   0  0  0  0  0  0
  -16.5344  -29.9066   23.6336 C   0  0  0  0  0  0
  -16.7281  -28.6492   23.0340 C   0  0  0  0  0  0
  -26.4498  -31.6592   25.0733 C   0  0  0  0  0  0
  -25.3712  -31.3741   26.1446 C   0  0  0  0  0  0
  -27.0366  -30.3014   24.6237 C   0  0  0  0  0  0
  -27.6037  -32.4362   25.7510 C   0  0  0  0  0  0
  -27.5576  -37.1802   24.8465 C   0  0  0  0  0  0
  -21.4201  -29.3084   22.3693 N   0  0  0  0  0  0
  -26.4286  -37.3763   23.9405 N   0  0  0  0  0  0
  -24.7009  -31.0492   22.0927 N   0  0  0  0  0  0
  -23.4186  -28.8142   23.3044 O   0  0  0  0  0  0
  -28.3251  -26.3585   20.1457 O   0  0  0  0  0  0
  -26.5646  -34.8916   22.4654 O   0  0  0  0  0  0
  -23.5475  -32.1362   23.7241 O   0  0  0  0  0  0
  -26.9109  -19.3859   20.0477 C   0  0  0  0  0  0
  -27.8368  -18.3335   20.2058 C   0  0  0  0  0  0
  -27.3349  -20.7289   20.1232 C   0  0  0  0  0  0
  -29.1902  -18.6194   20.4469 C   0  0  0  0  0  0
  -28.6876  -21.0225   20.3615 C   0  0  0  0  0  0
  -30.2337  -17.4075   20.5949 C   0  0  0  0  0  0
  -28.1861  -24.9540   20.6944 C   0  0  0  0  0  0
  -28.5090  -23.5798   19.8743 C   0  0  0  0  0  0
  -29.5856  -19.9614   20.5317 N   0  0  0  0  0  0
  -29.8149  -15.9269   20.6656 N   0  0  0  0  0  0
  -29.1387  -22.3711   20.5263 O   0  0  0  0  0  0
  -31.4820  -12.6262   19.1805 H   0  0  0  0  0  0
  -30.4031  -11.5137   19.9764 H   0  0  0  0  0  0
  -29.8189  -11.7593   17.5258 H   0  0  0  0  0  0
  -29.6231  -13.4807   17.7405 H   0  0  0  0  0  0
  -27.9397  -11.2666   18.9555 H   0  0  0  0  0  0
  -27.3846  -12.4691   17.8187 H   0  0  0  0  0  0
  -27.6331  -14.2423   19.4598 H   0  0  0  0  0  0
  -28.7342  -12.1986   21.4492 H   0  0  0  0  0  0
  -28.4098  -13.8778   21.7919 H   0  0  0  0  0  0
  -25.2764   -9.5674   22.4796 H   0  0  0  0  0  0
  -23.9995   -7.4629   22.7499 H   0  0  0  0  0  0
  -21.0855   -8.8794   19.8957 H   0  0  0  0  0  0
  -22.3721  -10.9697   19.6189 H   0  0  0  0  0  0
  -21.1990   -7.6151   23.9713 H   0  0  0  0  0  0
  -21.1475   -6.0534   25.9080 H   0  0  0  0  0  0
  -22.0602   -2.7621   23.2845 H   0  0  0  0  0  0
  -22.4070  -11.9908   22.4769 H   0  0  0  0  0  0
  -21.1095  -13.1294   22.2590 H   0  0  0  0  0  0
  -24.6327  -15.8228   20.4601 H   0  0  0  0  0  0
  -26.2321  -15.6023   19.9624 H   0  0  0  0  0  0
  -26.7202  -32.5383   23.1075 H   0  0  0  0  0  0
  -25.0035  -33.9684   25.0348 H   0  0  0  0  0  0
  -22.7260  -31.2937   21.3887 H   0  0  0  0  0  0
  -23.3744  -35.9619   23.3305 H   0  0  0  0  0  0
  -24.3570  -36.8916   22.2058 H   0  0  0  0  0  0
  -23.7251  -37.6485   23.6679 H   0  0  0  0  0  0
  -26.1170  -31.5231   20.6028 H   0  0  0  0  0  0
  -26.8534  -30.8140   22.0103 H   0  0  0  0  0  0
  -28.1373  -28.9364   21.1699 H   0  0  0  0  0  0
  -25.9798  -25.8557   19.0672 H   0  0  0  0  0  0
  -23.9723  -27.2725   19.0339 H   0  0  0  0  0  0
  -23.7761  -30.5700   19.3997 H   0  0  0  0  0  0
  -22.7685  -29.2290   19.8583 H   0  0  0  0  0  0
  -25.1306  -36.1897   25.0812 H   0  0  0  0  0  0
  -21.0010  -28.3281   24.1401 H   0  0  0  0  0  0
  -20.5592  -26.2336   23.3643 H   0  0  0  0  0  0
  -21.6654  -26.7405   22.1307 H   0  0  0  0  0  0
  -19.6976  -25.6343   21.1214 H   0  0  0  0  0  0
  -19.6788  -27.3235   20.6736 H   0  0  0  0  0  0
  -17.4260  -26.6823   21.3882 H   0  0  0  0  0  0
  -18.0258  -26.0083   22.8873 H   0  0  0  0  0  0
  -19.7901  -30.7334   24.2274 H   0  0  0  0  0  0
  -17.4963  -31.6261   24.5163 H   0  0  0  0  0  0
  -15.5337  -30.2950   23.7667 H   0  0  0  0  0  0
  -15.8688  -28.0798   22.7055 H   0  0  0  0  0  0
  -24.5858  -30.7136   25.7755 H   0  0  0  0  0  0
  -24.8947  -32.2914   26.4914 H   0  0  0  0  0  0
  -25.8018  -30.8870   27.0204 H   0  0  0  0  0  0
  -26.2969  -29.6759   24.1229 H   0  0  0  0  0  0
  -27.4006  -29.7281   25.4775 H   0  0  0  0  0  0
  -27.8850  -30.4296   23.9514 H   0  0  0  0  0  0
  -27.2607  -33.3640   26.2107 H   0  0  0  0  0  0
  -28.3826  -32.6988   25.0335 H   0  0  0  0  0  0
  -28.0734  -31.8504   26.5422 H   0  0  0  0  0  0
  -28.2598  -38.0097   24.7502 H   0  0  0  0  0  0
  -28.1072  -36.2631   24.6293 H   0  0  0  0  0  0
  -27.2299  -37.1441   25.8869 H   0  0  0  0  0  0
  -20.9413  -29.8782   21.6864 H   0  0  0  0  0  0
  -26.0162  -38.2833   24.1402 H   0  0  0  0  0  0
  -25.8675  -19.1637   19.8765 H   0  0  0  0  0  0
  -27.4948  -17.3128   20.1369 H   0  0  0  0  0  0
  -26.6006  -21.5150   20.0332 H   0  0  0  0  0  0
  -30.8281  -17.6099   21.4865 H   0  0  0  0  0  0
  -30.9238  -17.5039   19.7572 H   0  0  0  0  0  0
  -27.2070  -24.8479   21.1619 H   0  0  0  0  0  0
  -28.8770  -24.9477   21.5378 H   0  0  0  0  0  0
  -27.6272  -23.3018   19.2993 H   0  0  0  0  0  0
  -29.2347  -23.8589   19.1098 H   0  0  0  0  0  0
  -28.8448  -15.7663   20.8848 H   0  0  0  0  0  0
  1 25  1  0  0  0
  1 30  2  0  0  0
  1 80  1  0  0  0
  2  3  1  0  0  0
  2 25  1  0  0  0
  2 82  1  0  0  0
  2 83  1  0  0  0
  3  4  1  0  0  0
  3 84  1  0  0  0
  3 85  1  0  0  0
  4  5  1  0  0  0
  4 86  1  0  0  0
  4 87  1  0  0  0
  5  6  1  0  0  0
  5 26  1  0  0  0
  5 88  1  0  0  0
  6 25  1  0  0  0
  6 89  1  0  0  0
  6 90  1  0  0  0
  7  8  2  0  0  0
  7 26  1  0  0  0
  7 29  1  0  0  0
  8  9  1  0  0  0
  8 22  1  0  0  0
  9 10  1  0  0  0
  9 27  2  0  0  0
 10 11  2  0  0  0
 10 15  1  0  0  0
 11 12  1  0  0  0
 11 91  1  0  0  0
 12 13  2  0  0  0
 12 92  1  0  0  0
 13 14  1  0  0  0
 13 31  1  0  0  0
 14 15  2  0  0  0
 14 93  1  0  0  0
 15 94  1  0  0  0
 16 17  2  0  0  0
 16 21  1  0  0  0
 16 31  1  0  0  0
 17 18  1  0  0  0
 17 95  1  0  0  0
 18 19  2  0  0  0
 18 96  1  0  0  0
 19 20  1  0  0  0
 19 24  1  0  0  0
 20 21  2  0  0  0
 20 97  1  0  0  0
 21 23  1  0  0  0
 22 28  1  0  0  0
 22 32  2  0  0  0
 26 27  1  0  0  0
 28 98  1  0  0  0
 28 99  1  0  0  0
 29100  1  0  0  0
 29101  1  0  0  0
 33 34  1  0  0  0
 33 66  1  0  0  0
 33 70  2  0  0  0
 34 36  1  0  0  0
 34 59  1  0  0  0
 34102  1  0  0  0
 35 44  2  0  0  0
 35 45  1  0  0  0
 35 68  1  0  0  0
 36 56  1  0  0  0
 36103  1  0  0  0
 37 39  1  0  0  0
 37 47  1  0  0  0
 37 66  1  0  0  0
 37104  1  0  0  0
 38 43  2  0  0  0
 38 46  1  0  0  0
 38 47  1  0  0  0
 39 64  1  0  0  0
 39 67  2  0  0  0
 40 52  1  0  0  0
 40 53  2  0  0  0
 40 58  1  0  0  0
 41105  1  0  0  0
 41106  1  0  0  0
 41107  1  0  0  0
 41 48  1  0  0  0
 42 43  1  0  0  0
 42 66  1  0  0  0
 42108  1  0  0  0
 42109  1  0  0  0
 43 44  1  0  0  0
 44110  1  0  0  0
 45 46  2  0  0  0
 45111  1  0  0  0
 46112  1  0  0  0
 47113  1  0  0  0
 47114  1  0  0  0
 48 56  1  0  0  0
 48 65  1  0  0  0
 48115  1  0  0  0
 49 50  1  0  0  0
 49 53  1  0  0  0
 49 64  1  0  0  0
 49116  1  0  0  0
 50 51  1  0  0  0
 50117  1  0  0  0
 50118  1  0  0  0
 51 52  1  0  0  0
 51119  1  0  0  0
 51120  1  0  0  0
 52121  1  0  0  0
 52122  1  0  0  0
 53 54  1  0  0  0
 54 55  2  0  0  0
 54123  1  0  0  0
 55 57  1  0  0  0
 55124  1  0  0  0
 56 69  2  0  0  0
 57 58  2  0  0  0
 57125  1  0  0  0
 58126  1  0  0  0
 59 60  1  0  0  0
 59 61  1  0  0  0
 59 62  1  0  0  0
 60127  1  0  0  0
 60128  1  0  0  0
 60129  1  0  0  0
 61130  1  0  0  0
 61131  1  0  0  0
 61132  1  0  0  0
 62133  1  0  0  0
 62134  1  0  0  0
 62135  1  0  0  0
 63 65  1  0  0  0
 63136  1  0  0  0
 63137  1  0  0  0
 63138  1  0  0  0
 64139  1  0  0  0
 65140  1  0  0  0
 68 77  1  0  0  0
 71 72  2  0  0  0
 71 73  1  0  0  0
 71141  1  0  0  0
 72 74  1  0  0  0
 72142  1  0  0  0
 73 75  2  0  0  0
 73143  1  0  0  0
 74 76  1  0  0  0
 74 79  2  0  0  0
 75 79  1  0  0  0
 75 81  1  0  0  0
 76 80  1  0  0  0
 76144  1  0  0  0
 76145  1  0  0  0
 77 78  1  0  0  0
 77146  1  0  0  0
 77147  1  0  0  0
 78 81  1  0  0  0
 78148  1  0  0  0
 78149  1  0  0  0
 80150  1  0  0  0
M  ISO  4   1 100  68 101  77 101  80 100
M  END
> <chiral flag>
0

> <version>
0

> <s_m_source_file>
/data/baiqing/PycharmProjects/Reinvent-master-3.2/result/LINK_invent/BTK/process_docking_weight1_custom_sum_contain_oxygen_bond_distance_aromatic_linkinvent_7_9_3/rearranged_h_0128.sdf

> <i_m_source_file_index>
84

> <r_mmod_Potential_Energy-OPLS-2005>
-100.002403259277

> <r_mmod_Stretch_Energy-OPLS-2005>
139.462814331055

> <r_mmod_Bend_Energy-OPLS-2005>
185.734405517578

> <r_mmod_Torsional_Energy-OPLS-2005>
223.443832397461

> <r_mmod_Improper_Torsional_Energy-OPLS-2005>
5.29088401794434

> <r_mmod_Van_der_Waal_Energy-OPLS-2005>
133.234344482422

> <r_mmod_Electrostatic_Energy-OPLS-2005>
-655.16650390625

> <r_mmod_Solvation_Energy-OPLS-2005>
-230.823516845703

> <b_mmod_Minimization_Converged-OPLS-2005>
0

> <r_mmod_RMS_Derivative-OPLS-2005>
2.52885746955872

$$$$
84
                    3D
 Structure written by MMmdl.
159168  0  0  1  0            999 V2000
  -30.6566  -14.6451   20.4190 C   0  0  0  0  0  0
  -30.4286  -12.3812   19.4473 C   0  0  0  0  0  0
  -29.5018  -12.4709   18.2174 C   0  0  0  0  0  0
  -28.0239  -12.3237   18.6368 C   0  0  0  0  0  0
  -27.6417  -13.2077   19.8560 C   0  0  2  0  0  0
  -28.7004  -13.1347   20.9773 C   0  0  0  0  0  0
  -25.2554  -13.8127   20.5731 C   0  0  0  0  0  0
  -24.1810  -13.0410   20.9214 C   0  0  0  0  0  0
  -24.6369  -11.6879   20.8770 C   0  0  0  0  0  0
  -23.9036  -10.4277   21.0412 C   0  0  0  0  0  0
  -24.3600   -9.4196   21.9187 C   0  0  0  0  0  0
  -23.6286   -8.2227   22.0754 C   0  0  0  0  0  0
  -22.4269   -8.0268   21.3545 C   0  0  0  0  0  0
  -21.9897   -9.0237   20.4646 C   0  0  0  0  0  0
  -22.7214  -10.2120   20.3053 C   0  0  0  0  0  0
  -21.6849   -6.0727   22.5281 C   0  0  0  0  0  0
  -21.4008   -6.5634   23.8213 C   0  0  0  0  0  0
  -21.3659   -5.6792   24.9176 C   0  0  0  0  0  0
  -21.6048   -4.3056   24.7228 C   0  0  0  0  0  0
  -21.8822   -3.8141   23.4351 C   0  0  0  0  0  0
  -21.9194   -4.6956   22.3405 C   0  0  0  0  0  0
  -22.7837  -13.5224   21.1854 C   0  0  0  0  0  0
  -22.1662   -4.2139   21.0984 F   0  0  0  0  0  0
  -21.5634   -3.4537   25.7740 F   0  0  0  0  0  0
  -30.0059  -13.4410   20.3780 N   0  0  0  0  0  0
  -26.2954  -12.9270   20.3367 N   0  0  0  0  0  0
  -25.9298  -11.6441   20.5814 N   0  0  0  0  0  0
  -22.0465  -12.8233   22.0408 N   0  0  0  0  0  0
  -25.4296  -15.1848   20.4154 N   0  0  0  0  0  0
  -31.8745  -14.7247   20.2403 O   0  0  0  0  0  0
  -21.6639   -6.8863   21.4239 O   0  0  0  0  0  0
  -22.3539  -14.5532   20.6690 O   0  0  0  0  0  0
  -24.6232  -31.8613   23.2036 C   0  0  0  0  0  0
  -25.9090  -32.4785   23.8359 C   0  0  1  0  0  0
  -27.2254  -27.3404   20.1146 C   0  0  0  0  0  0
  -25.5912  -33.8587   24.2283 N   0  0  0  0  0  0
  -23.4153  -30.4837   21.5473 C   0  0  2  0  0  0
  -24.8610  -28.9403   20.1122 C   0  0  0  0  0  0
  -22.7460  -29.4623   22.4964 C   0  0  0  0  0  0
  -18.0278  -28.1384   22.8487 C   0  0  0  0  0  0
  -24.1487  -36.7300   23.2640 C   0  0  0  0  0  0
  -25.9538  -30.7982   21.3707 C   0  0  0  0  0  0
  -26.0281  -29.4269   20.7141 C   0  0  0  0  0  0
  -27.2131  -28.6377   20.7060 C   0  0  0  0  0  0
  -26.0360  -26.8996   19.4894 C   0  0  0  0  0  0
  -24.8656  -27.6809   19.4924 C   0  0  0  0  0  0
  -23.6272  -29.8166   20.1626 C   0  0  0  0  0  0
  -25.4114  -36.3091   24.0325 C   0  0  1  0  0  0
  -20.5876  -28.3678   23.1299 C   0  0  2  0  0  0
  -20.6768  -26.9405   22.5417 C   0  0  0  0  0  0
  -19.5745  -26.6381   21.5219 C   0  0  0  0  0  0
  -18.1923  -26.7928   22.1626 C   0  0  0  0  0  0
  -19.1532  -28.8850   23.2885 C   0  0  0  0  0  0
  -18.9457  -30.1456   23.8891 C   0  0  0  0  0  0
  -17.6458  -30.6588   24.0564 C   0  0  0  0  0  0
  -25.9047  -34.9457   23.5105 C   0  0  0  0  0  0
  -16.5347  -29.9084   23.6333 C   0  0  0  0  0  0
  -16.7267  -28.6504   23.0349 C   0  0  0  0  0  0
  -26.4484  -31.6592   25.0722 C   0  0  0  0  0  0
  -25.3719  -31.3730   26.1451 C   0  0  0  0  0  0
  -27.0332  -30.3022   24.6161 C   0  0  0  0  0  0
  -27.6044  -32.4328   25.7491 C   0  0  0  0  0  0
  -27.5579  -37.1804   24.8462 C   0  0  0  0  0  0
  -21.4179  -29.3032   22.3701 N   0  0  0  0  0  0
  -26.4293  -37.3783   23.9405 N   0  0  0  0  0  0
  -24.6829  -31.0638   22.0977 N   0  0  0  0  0  0
  -23.4195  -28.8168   23.3040 O   0  0  0  0  0  0
  -28.3573  -26.5199   20.1660 O   0  0  0  0  0  0
  -26.5621  -34.8919   22.4676 O   0  0  0  0  0  0
  -23.5400  -32.1409   23.7370 O   0  0  0  0  0  0
  -29.3469  -21.8123   21.6487 C   0  0  0  0  0  0
  -29.4947  -21.9326   19.2731 C   0  0  0  0  0  0
  -29.3490  -22.6273   20.4907 C   0  0  0  0  0  0
  -29.5295  -20.3990   21.5615 C   0  0  0  0  0  0
  -29.6944  -19.7881   20.2858 C   0  0  0  0  0  0
  -29.1402  -17.6547   18.9057 C   0  0  0  0  0  0
  -29.5556  -16.1786   18.8915 C   0  0  0  0  0  0
  -30.0598  -17.0810   21.0013 C   0  0  0  0  0  0
  -30.0345  -18.2736   19.9657 C   0  0  2  0  0  0
  -29.5918  -19.6077   22.8564 C   0  0  0  0  0  0
  -29.3830  -24.1940   20.5744 C   0  0  0  0  0  0
  -28.1825  -25.0620   20.0364 C   0  0  0  0  0  0
  -29.6664  -20.5848   19.1821 N   0  0  0  0  0  0
  -29.8795  -15.7747   20.2741 N   0  0  0  0  0  0
  -31.4714  -12.4901   19.1431 H   0  0  0  0  0  0
  -30.3496  -11.4014   19.9220 H   0  0  0  0  0  0
  -29.7625  -11.6947   17.4969 H   0  0  0  0  0  0
  -29.6518  -13.4213   17.7035 H   0  0  0  0  0  0
  -27.8613  -11.2738   18.8821 H   0  0  0  0  0  0
  -27.3673  -12.5404   17.7938 H   0  0  0  0  0  0
  -27.6167  -14.2292   19.4970 H   0  0  0  0  0  0
  -28.7169  -12.1449   21.4362 H   0  0  0  0  0  0
  -28.4644  -13.8449   21.7719 H   0  0  0  0  0  0
  -25.2737   -9.5685   22.4767 H   0  0  0  0  0  0
  -24.0005   -7.4616   22.7466 H   0  0  0  0  0  0
  -21.0830   -8.8740   19.8952 H   0  0  0  0  0  0
  -22.3659  -10.9660   19.6166 H   0  0  0  0  0  0
  -21.1993   -7.6144   23.9714 H   0  0  0  0  0  0
  -21.1482   -6.0521   25.9083 H   0  0  0  0  0  0
  -22.0603   -2.7604   23.2853 H   0  0  0  0  0  0
  -22.4071  -11.9906   22.4828 H   0  0  0  0  0  0
  -21.1072  -13.1257   22.2573 H   0  0  0  0  0  0
  -24.6703  -15.8457   20.5366 H   0  0  0  0  0  0
  -26.2981  -15.6242   20.1384 H   0  0  0  0  0  0
  -26.7156  -32.5462   23.1109 H   0  0  0  0  0  0
  -25.0053  -33.9737   25.0422 H   0  0  0  0  0  0
  -22.7075  -31.3028   21.4052 H   0  0  0  0  0  0
  -23.3747  -35.9636   23.3305 H   0  0  0  0  0  0
  -24.3584  -36.8920   22.2055 H   0  0  0  0  0  0
  -23.7235  -37.6499   23.6665 H   0  0  0  0  0  0
  -26.0798  -31.5603   20.6005 H   0  0  0  0  0  0
  -26.8365  -30.8489   21.9965 H   0  0  0  0  0  0
  -28.1095  -29.0056   21.1863 H   0  0  0  0  0  0
  -25.9867  -25.9380   19.0001 H   0  0  0  0  0  0
  -23.9704  -27.3015   19.0192 H   0  0  0  0  0  0
  -23.7416  -30.5916   19.4041 H   0  0  0  0  0  0
  -22.7481  -29.2421   19.8643 H   0  0  0  0  0  0
  -25.1294  -36.1951   25.0817 H   0  0  0  0  0  0
  -20.9965  -28.3248   24.1421 H   0  0  0  0  0  0
  -20.5683  -26.2284   23.3613 H   0  0  0  0  0  0
  -21.6635  -26.7446   22.1201 H   0  0  0  0  0  0
  -19.6909  -25.6296   21.1239 H   0  0  0  0  0  0
  -19.6686  -27.3197   20.6756 H   0  0  0  0  0  0
  -17.4200  -26.6682   21.4021 H   0  0  0  0  0  0
  -18.0315  -26.0070   22.9018 H   0  0  0  0  0  0
  -19.7936  -30.7276   24.2247 H   0  0  0  0  0  0
  -17.5014  -31.6266   24.5168 H   0  0  0  0  0  0
  -15.5350  -30.2985   23.7664 H   0  0  0  0  0  0
  -15.8666  -28.0827   22.7059 H   0  0  0  0  0  0
  -24.5876  -30.7105   25.7774 H   0  0  0  0  0  0
  -24.8932  -32.2901   26.4894 H   0  0  0  0  0  0
  -25.8034  -30.8885   27.0217 H   0  0  0  0  0  0
  -26.2908  -29.6770   24.1186 H   0  0  0  0  0  0
  -27.4048  -29.7276   25.4655 H   0  0  0  0  0  0
  -27.8763  -30.4324   23.9371 H   0  0  0  0  0  0
  -27.2649  -33.3616   26.2088 H   0  0  0  0  0  0
  -28.3840  -32.6912   25.0312 H   0  0  0  0  0  0
  -28.0732  -31.8448   26.5390 H   0  0  0  0  0  0
  -28.2596  -38.0102   24.7513 H   0  0  0  0  0  0
  -28.1075  -36.2633   24.6287 H   0  0  0  0  0  0
  -27.2298  -37.1445   25.8864 H   0  0  0  0  0  0
  -20.9361  -29.8754   21.6908 H   0  0  0  0  0  0
  -26.0177  -38.2858   24.1412 H   0  0  0  0  0  0
  -29.2622  -22.2793   22.6203 H   0  0  0  0  0  0
  -29.5348  -22.4766   18.3410 H   0  0  0  0  0  0
  -28.0942  -17.7516   19.2000 H   0  0  0  0  0  0
  -29.2569  -18.1268   17.9296 H   0  0  0  0  0  0
  -30.4458  -16.0709   18.2663 H   0  0  0  0  0  0
  -28.7856  -15.5719   18.4240 H   0  0  0  0  0  0
  -29.2156  -17.1564   21.6847 H   0  0  0  0  0  0
  -30.9721  -17.0909   21.5992 H   0  0  0  0  0  0
  -31.0407  -18.3135   19.5436 H   0  0  0  0  0  0
  -29.6108  -20.2685   23.7237 H   0  0  0  0  0  0
  -30.4951  -19.0004   22.9033 H   0  0  0  0  0  0
  -28.7194  -18.9629   22.9602 H   0  0  0  0  0  0
  -30.2839  -24.5155   20.0508 H   0  0  0  0  0  0
  -29.5493  -24.4680   21.6167 H   0  0  0  0  0  0
  -27.2848  -24.7545   20.5747 H   0  0  0  0  0  0
  -28.0198  -24.8253   18.9841 H   0  0  0  0  0  0
  1 25  1  0  0  0
  1 30  2  0  0  0
  1 84  1  0  0  0
  2  3  1  0  0  0
  2 25  1  0  0  0
  2 85  1  0  0  0
  2 86  1  0  0  0
  3  4  1  0  0  0
  3 87  1  0  0  0
  3 88  1  0  0  0
  4  5  1  0  0  0
  4 89  1  0  0  0
  4 90  1  0  0  0
  5  6  1  0  0  0
  5 26  1  0  0  0
  5 91  1  0  0  0
  6 25  1  0  0  0
  6 92  1  0  0  0
  6 93  1  0  0  0
  7  8  2  0  0  0
  7 26  1  0  0  0
  7 29  1  0  0  0
  8  9  1  0  0  0
  8 22  1  0  0  0
  9 10  1  0  0  0
  9 27  2  0  0  0
 10 11  2  0  0  0
 10 15  1  0  0  0
 11 12  1  0  0  0
 11 94  1  0  0  0
 12 13  2  0  0  0
 12 95  1  0  0  0
 13 14  1  0  0  0
 13 31  1  0  0  0
 14 15  2  0  0  0
 14 96  1  0  0  0
 15 97  1  0  0  0
 16 17  2  0  0  0
 16 21  1  0  0  0
 16 31  1  0  0  0
 17 18  1  0  0  0
 17 98  1  0  0  0
 18 19  2  0  0  0
 18 99  1  0  0  0
 19 20  1  0  0  0
 19 24  1  0  0  0
 20 21  2  0  0  0
 20100  1  0  0  0
 21 23  1  0  0  0
 22 28  1  0  0  0
 22 32  2  0  0  0
 26 27  1  0  0  0
 28101  1  0  0  0
 28102  1  0  0  0
 29103  1  0  0  0
 29104  1  0  0  0
 33 34  1  0  0  0
 33 66  1  0  0  0
 33 70  2  0  0  0
 34 36  1  0  0  0
 34 59  1  0  0  0
 34105  1  0  0  0
 35 44  2  0  0  0
 35 45  1  0  0  0
 35 68  1  0  0  0
 36 56  1  0  0  0
 36106  1  0  0  0
 37 39  1  0  0  0
 37 47  1  0  0  0
 37 66  1  0  0  0
 37107  1  0  0  0
 38 43  2  0  0  0
 38 46  1  0  0  0
 38 47  1  0  0  0
 39 64  1  0  0  0
 39 67  2  0  0  0
 40 52  1  0  0  0
 40 53  2  0  0  0
 40 58  1  0  0  0
 41108  1  0  0  0
 41109  1  0  0  0
 41110  1  0  0  0
 41 48  1  0  0  0
 42 43  1  0  0  0
 42 66  1  0  0  0
 42111  1  0  0  0
 42112  1  0  0  0
 43 44  1  0  0  0
 44113  1  0  0  0
 45 46  2  0  0  0
 45114  1  0  0  0
 46115  1  0  0  0
 47116  1  0  0  0
 47117  1  0  0  0
 48 56  1  0  0  0
 48 65  1  0  0  0
 48118  1  0  0  0
 49 50  1  0  0  0
 49 53  1  0  0  0
 49 64  1  0  0  0
 49119  1  0  0  0
 50 51  1  0  0  0
 50120  1  0  0  0
 50121  1  0  0  0
 51 52  1  0  0  0
 51122  1  0  0  0
 51123  1  0  0  0
 52124  1  0  0  0
 52125  1  0  0  0
 53 54  1  0  0  0
 54 55  2  0  0  0
 54126  1  0  0  0
 55 57  1  0  0  0
 55127  1  0  0  0
 56 69  2  0  0  0
 57 58  2  0  0  0
 57128  1  0  0  0
 58129  1  0  0  0
 59 60  1  0  0  0
 59 61  1  0  0  0
 59 62  1  0  0  0
 60130  1  0  0  0
 60131  1  0  0  0
 60132  1  0  0  0
 61133  1  0  0  0
 61134  1  0  0  0
 61135  1  0  0  0
 62136  1  0  0  0
 62137  1  0  0  0
 62138  1  0  0  0
 63 65  1  0  0  0
 63139  1  0  0  0
 63140  1  0  0  0
 63141  1  0  0  0
 64142  1  0  0  0
 65143  1  0  0  0
 68 82  1  0  0  0
 71 73  2  0  0  0
 71 74  1  0  0  0
 71144  1  0  0  0
 72 73  1  0  0  0
 72 83  2  0  0  0
 72145  1  0  0  0
 73 81  1  0  0  0
 74 75  2  0  0  0
 74 80  1  0  0  0
 75 83  1  0  0  0
 75 79  1  0  0  0
 76 77  1  0  0  0
 76 79  1  0  0  0
 76146  1  0  0  0
 76147  1  0  0  0
 77 84  1  0  0  0
 77148  1  0  0  0
 77149  1  0  0  0
 78 79  1  0  0  0
 78 84  1  0  0  0
 78150  1  0  0  0
 78151  1  0  0  0
 79152  1  0  0  0
 80153  1  0  0  0
 80154  1  0  0  0
 80155  1  0  0  0
 81 82  1  0  0  0
 81156  1  0  0  0
 81157  1  0  0  0
 82158  1  0  0  0
 82159  1  0  0  0
M  ISO  4   1 100  68 101  82 101  84 100
M  END
> <chiral flag>
0

> <version>
0

> <s_m_source_file>
/data/baiqing/PycharmProjects/Reinvent-master-3.2/result/LINK_invent/BTK/process_docking_weight1_custom_sum_contain_oxygen_bond_distance_aromatic_linkinvent_7_9_3/rearranged_h_0128.sdf

> <i_m_source_file_index>
85

> <r_mmod_Potential_Energy-OPLS-2005>
136.7265625

> <r_mmod_Stretch_Energy-OPLS-2005>
72.9515380859375

> <r_mmod_Bend_Energy-OPLS-2005>
173.594909667969

> <r_mmod_Torsional_Energy-OPLS-2005>
332.73193359375

> <r_mmod_Improper_Torsional_Energy-OPLS-2005>
15.4697980880737

> <r_mmod_Van_der_Waal_Energy-OPLS-2005>
142.022689819336

> <r_mmod_Electrostatic_Energy-OPLS-2005>
-443.344299316406

> <r_mmod_Solvation_Energy-OPLS-2005>
-209.932342529297

> <b_mmod_Minimization_Converged-OPLS-2005>
0

> <r_mmod_RMS_Derivative-OPLS-2005>
0.959548830986023

$$$$
85
                    3D
 Structure written by MMmdl.
161170  0  0  1  0            999 V2000
  -30.4430  -15.2851   20.3353 C   0  0  0  0  0  0
  -30.4237  -12.8226   19.5198 C   0  0  0  0  0  0
  -29.5294  -12.5788   18.2808 C   0  0  0  0  0  0
  -28.0774  -12.3022   18.7075 C   0  0  0  0  0  0
  -27.6005  -13.2821   19.8102 C   0  0  2  0  0  0
  -28.6302  -13.4871   20.9383 C   0  0  0  0  0  0
  -25.2326  -13.8252   20.5723 C   0  0  0  0  0  0
  -24.1700  -13.0429   20.9275 C   0  0  0  0  0  0
  -24.6378  -11.6933   20.8745 C   0  0  0  0  0  0
  -23.9085  -10.4292   21.0380 C   0  0  0  0  0  0
  -24.3632   -9.4208   21.9167 C   0  0  0  0  0  0
  -23.6316   -8.2233   22.0735 C   0  0  0  0  0  0
  -22.4291   -8.0270   21.3535 C   0  0  0  0  0  0
  -21.9929   -9.0238   20.4627 C   0  0  0  0  0  0
  -22.7250  -10.2126   20.3032 C   0  0  0  0  0  0
  -21.6859   -6.0725   22.5274 C   0  0  0  0  0  0
  -21.4031   -6.5633   23.8206 C   0  0  0  0  0  0
  -21.3660   -5.6785   24.9164 C   0  0  0  0  0  0
  -21.6047   -4.3047   24.7212 C   0  0  0  0  0  0
  -21.8813   -3.8138   23.4333 C   0  0  0  0  0  0
  -21.9191   -4.6955   22.3393 C   0  0  0  0  0  0
  -22.7714  -13.5162   21.1940 C   0  0  0  0  0  0
  -22.1651   -4.2135   21.0973 F   0  0  0  0  0  0
  -21.5637   -3.4533   25.7729 F   0  0  0  0  0  0
  -29.8554  -13.9879   20.2960 N   0  0  0  0  0  0
  -26.2756  -12.9552   20.3157 N   0  0  0  0  0  0
  -25.9316  -11.6651   20.5690 N   0  0  0  0  0  0
  -22.0395  -12.8114   22.0495 N   0  0  0  0  0  0
  -25.3960  -15.1988   20.4152 N   0  0  0  0  0  0
  -31.6731  -15.2056   20.2320 O   0  0  0  0  0  0
  -21.6652   -6.8866   21.4240 O   0  0  0  0  0  0
  -22.3374  -14.5448   20.6769 O   0  0  0  0  0  0
  -24.6628  -31.8253   23.1703 C   0  0  0  0  0  0
  -25.9322  -32.4589   23.8160 C   0  0  1  0  0  0
  -27.2188  -26.9340   20.1925 C   0  0  0  0  0  0
  -25.6011  -33.8404   24.2070 N   0  0  0  0  0  0
  -23.4764  -30.4362   21.5179 C   0  0  2  0  0  0
  -24.9286  -28.8211   20.1181 C   0  0  0  0  0  0
  -22.7661  -29.4447   22.4764 C   0  0  0  0  0  0
  -18.0319  -28.1406   22.8464 C   0  0  0  0  0  0
  -24.1482  -36.7201   23.2641 C   0  0  0  0  0  0
  -26.0435  -30.6370   21.3969 C   0  0  0  0  0  0
  -26.1125  -29.2240   20.7468 C   0  0  0  0  0  0
  -27.2560  -28.3040   20.7538 C   0  0  0  0  0  0
  -26.0034  -26.6804   19.5204 C   0  0  0  0  0  0
  -24.8993  -27.5678   19.4835 C   0  0  0  0  0  0
  -23.7172  -29.7498   20.1454 C   0  0  0  0  0  0
  -25.4121  -36.2960   24.0298 C   0  0  1  0  0  0
  -20.5943  -28.3758   23.1172 C   0  0  2  0  0  0
  -20.6794  -26.9439   22.5397 C   0  0  0  0  0  0
  -19.5766  -26.6375   21.5207 C   0  0  0  0  0  0
  -18.1950  -26.7941   22.1611 C   0  0  0  0  0  0
  -19.1579  -28.8901   23.2809 C   0  0  0  0  0  0
  -18.9497  -30.1492   23.8840 C   0  0  0  0  0  0
  -17.6493  -30.6598   24.0556 C   0  0  0  0  0  0
  -25.9096  -34.9349   23.4994 C   0  0  0  0  0  0
  -16.5380  -29.9098   23.6346 C   0  0  0  0  0  0
  -16.7304  -28.6517   23.0359 C   0  0  0  0  0  0
  -26.4579  -31.6534   25.0688 C   0  0  0  0  0  0
  -25.3718  -31.3810   26.1357 C   0  0  0  0  0  0
  -27.0477  -30.2891   24.6449 C   0  0  0  0  0  0
  -27.6035  -32.4364   25.7518 C   0  0  0  0  0  0
  -27.5542  -37.1766   24.8463 C   0  0  0  0  0  0
  -21.4323  -29.3059   22.3529 N   0  0  0  0  0  0
  -26.4250  -37.3707   23.9410 N   0  0  0  0  0  0
  -24.7487  -30.9929   22.0821 N   0  0  0  0  0  0
  -23.4225  -28.8015   23.3000 O   0  0  0  0  0  0
  -28.2391  -25.8472   20.2002 O   0  0  0  0  0  0
  -26.5683  -34.8896   22.4571 O   0  0  0  0  0  0
  -23.5702  -32.1196   23.6813 O   0  0  0  0  0  0
  -28.9170  -19.7852   18.3927 C   0  0  0  0  0  0
  -29.8669  -19.4272   17.4357 C   0  0  0  0  0  0
  -29.1590  -19.4774   19.7439 C   0  0  0  0  0  0
  -30.0179  -18.1600   19.9199 C   0  0  0  0  0  0
  -31.0833  -18.1965   18.9709 C   0  0  0  0  0  0
  -34.5872  -20.3772   20.3381 C   0  0  0  0  0  0
  -33.2147  -20.7787   19.8577 C   0  0  0  0  0  0
  -33.4865  -19.3461   20.2607 C   0  0  0  0  0  0
  -28.8281  -20.9732   20.5680 C   0  0  0  0  0  0
  -33.5162  -18.2532   19.2066 C   0  0  0  0  0  0
  -28.8015  -22.6844   19.9590 C   0  0  0  0  0  0
  -28.0285  -24.2328   20.4852 C   0  0  0  0  0  0
  -31.0020  -18.7922   17.7671 N   0  0  0  0  0  0
  -29.7265  -16.6047   20.3445 N   0  0  0  0  0  0
  -32.2717  -17.4999   19.1424 N   0  0  0  0  0  0
  -31.4458  -13.0148   19.1913 H   0  0  0  0  0  0
  -30.4803  -11.9284   20.1444 H   0  0  0  0  0  0
  -29.9177  -11.7493   17.6873 H   0  0  0  0  0  0
  -29.5574  -13.4598   17.6366 H   0  0  0  0  0  0
  -28.0305  -11.2810   19.0840 H   0  0  0  0  0  0
  -27.4103  -12.3434   17.8458 H   0  0  0  0  0  0
  -27.5078  -14.2423   19.3031 H   0  0  0  0  0  0
  -28.8000  -12.5681   21.5002 H   0  0  0  0  0  0
  -28.2648  -14.2269   21.6537 H   0  0  0  0  0  0
  -25.2777   -9.5689   22.4735 H   0  0  0  0  0  0
  -24.0022   -7.4620   22.7459 H   0  0  0  0  0  0
  -21.0853   -8.8749   19.8942 H   0  0  0  0  0  0
  -22.3696  -10.9651   19.6132 H   0  0  0  0  0  0
  -21.2043   -7.6146   23.9705 H   0  0  0  0  0  0
  -21.1496   -6.0518   25.9065 H   0  0  0  0  0  0
  -22.0600   -2.7606   23.2835 H   0  0  0  0  0  0
  -22.4062  -11.9793   22.4887 H   0  0  0  0  0  0
  -21.1000  -13.1091   22.2708 H   0  0  0  0  0  0
  -24.6298  -15.8517   20.5321 H   0  0  0  0  0  0
  -26.2379  -15.6384   20.0661 H   0  0  0  0  0  0
  -26.7384  -32.5144   23.0877 H   0  0  0  0  0  0
  -25.0209  -33.9476   25.0257 H   0  0  0  0  0  0
  -22.7879  -31.2669   21.3449 H   0  0  0  0  0  0
  -23.3744  -35.9529   23.3299 H   0  0  0  0  0  0
  -24.3551  -36.8860   22.2054 H   0  0  0  0  0  0
  -23.7253  -37.6395   23.6703 H   0  0  0  0  0  0
  -26.2170  -31.3794   20.6163 H   0  0  0  0  0  0
  -26.9036  -30.6966   22.0533 H   0  0  0  0  0  0
  -28.1561  -28.6217   21.2606 H   0  0  0  0  0  0
  -25.8872  -25.7245   19.0308 H   0  0  0  0  0  0
  -24.0003  -27.2525   18.9714 H   0  0  0  0  0  0
  -23.8796  -30.5155   19.3863 H   0  0  0  0  0  0
  -22.8271  -29.2074   19.8211 H   0  0  0  0  0  0
  -25.1327  -36.1735   25.0790 H   0  0  0  0  0  0
  -21.0016  -28.3370   24.1296 H   0  0  0  0  0  0
  -20.5657  -26.2387   23.3651 H   0  0  0  0  0  0
  -21.6667  -26.7425   22.1212 H   0  0  0  0  0  0
  -19.6941  -25.6274   21.1277 H   0  0  0  0  0  0
  -19.6700  -27.3145   20.6706 H   0  0  0  0  0  0
  -17.4225  -26.6673   21.4014 H   0  0  0  0  0  0
  -18.0351  -26.0095   22.9015 H   0  0  0  0  0  0
  -19.7977  -30.7316   24.2170 H   0  0  0  0  0  0
  -17.5056  -31.6262   24.5181 H   0  0  0  0  0  0
  -15.5376  -30.2980   23.7704 H   0  0  0  0  0  0
  -15.8702  -28.0821   22.7092 H   0  0  0  0  0  0
  -24.5890  -30.7171   25.7687 H   0  0  0  0  0  0
  -24.8934  -32.3030   26.4655 H   0  0  0  0  0  0
  -25.7962  -30.9067   27.0218 H   0  0  0  0  0  0
  -26.3157  -29.6552   24.1437 H   0  0  0  0  0  0
  -27.3963  -29.7282   25.5129 H   0  0  0  0  0  0
  -27.9117  -30.4036   23.9905 H   0  0  0  0  0  0
  -27.2551  -33.3693   26.1968 H   0  0  0  0  0  0
  -28.3932  -32.6891   25.0430 H   0  0  0  0  0  0
  -28.0621  -31.8603   26.5570 H   0  0  0  0  0  0
  -28.2562  -38.0054   24.7479 H   0  0  0  0  0  0
  -28.1040  -36.2586   24.6328 H   0  0  0  0  0  0
  -27.2271  -37.1462   25.8871 H   0  0  0  0  0  0
  -20.9569  -29.8791   21.6695 H   0  0  0  0  0  0
  -26.0092  -38.2765   24.1419 H   0  0  0  0  0  0
  -28.1926  -20.5313   18.1038 H   0  0  0  0  0  0
  -29.7962  -19.8074   16.4256 H   0  0  0  0  0  0
  -34.8914  -20.7228   21.3255 H   0  0  0  0  0  0
  -35.3845  -20.3266   19.5992 H   0  0  0  0  0  0
  -33.1013  -20.9954   18.7962 H   0  0  0  0  0  0
  -32.5872  -21.3743   20.5176 H   0  0  0  0  0  0
  -33.1094  -19.0165   21.2291 H   0  0  0  0  0  0
  -29.4796  -20.9692   21.4414 H   0  0  0  0  0  0
  -27.8320  -20.8108   20.9772 H   0  0  0  0  0  0
  -34.3122  -17.5535   19.4628 H   0  0  0  0  0  0
  -33.7616  -18.6700   18.2297 H   0  0  0  0  0  0
  -28.4598  -22.6003   18.9287 H   0  0  0  0  0  0
  -29.8590  -22.9289   19.8534 H   0  0  0  0  0  0
  -28.1370  -24.2049   21.5702 H   0  0  0  0  0  0
  -26.9615  -24.0687   20.3388 H   0  0  0  0  0  0
  -28.7497  -16.4552   20.5549 H   0  0  0  0  0  0
  -32.1996  -16.7124   19.7982 H   0  0  0  0  0  0
  1 25  1  0  0  0
  1 30  2  0  0  0
  1 84  1  0  0  0
  2  3  1  0  0  0
  2 25  1  0  0  0
  2 86  1  0  0  0
  2 87  1  0  0  0
  3  4  1  0  0  0
  3 88  1  0  0  0
  3 89  1  0  0  0
  4  5  1  0  0  0
  4 90  1  0  0  0
  4 91  1  0  0  0
  5  6  1  0  0  0
  5 26  1  0  0  0
  5 92  1  0  0  0
  6 25  1  0  0  0
  6 93  1  0  0  0
  6 94  1  0  0  0
  7  8  2  0  0  0
  7 26  1  0  0  0
  7 29  1  0  0  0
  8  9  1  0  0  0
  8 22  1  0  0  0
  9 10  1  0  0  0
  9 27  2  0  0  0
 10 11  2  0  0  0
 10 15  1  0  0  0
 11 12  1  0  0  0
 11 95  1  0  0  0
 12 13  2  0  0  0
 12 96  1  0  0  0
 13 14  1  0  0  0
 13 31  1  0  0  0
 14 15  2  0  0  0
 14 97  1  0  0  0
 15 98  1  0  0  0
 16 17  2  0  0  0
 16 21  1  0  0  0
 16 31  1  0  0  0
 17 18  1  0  0  0
 17 99  1  0  0  0
 18 19  2  0  0  0
 18100  1  0  0  0
 19 20  1  0  0  0
 19 24  1  0  0  0
 20 21  2  0  0  0
 20101  1  0  0  0
 21 23  1  0  0  0
 22 28  1  0  0  0
 22 32  2  0  0  0
 26 27  1  0  0  0
 28102  1  0  0  0
 28103  1  0  0  0
 29104  1  0  0  0
 29105  1  0  0  0
 33 34  1  0  0  0
 33 66  1  0  0  0
 33 70  2  0  0  0
 34 36  1  0  0  0
 34 59  1  0  0  0
 34106  1  0  0  0
 35 44  2  0  0  0
 35 45  1  0  0  0
 35 68  1  0  0  0
 36 56  1  0  0  0
 36107  1  0  0  0
 37 39  1  0  0  0
 37 47  1  0  0  0
 37 66  1  0  0  0
 37108  1  0  0  0
 38 43  2  0  0  0
 38 46  1  0  0  0
 38 47  1  0  0  0
 39 64  1  0  0  0
 39 67  2  0  0  0
 40 52  1  0  0  0
 40 53  2  0  0  0
 40 58  1  0  0  0
 41109  1  0  0  0
 41110  1  0  0  0
 41111  1  0  0  0
 41 48  1  0  0  0
 42 43  1  0  0  0
 42 66  1  0  0  0
 42112  1  0  0  0
 42113  1  0  0  0
 43 44  1  0  0  0
 44114  1  0  0  0
 45 46  2  0  0  0
 45115  1  0  0  0
 46116  1  0  0  0
 47117  1  0  0  0
 47118  1  0  0  0
 48 56  1  0  0  0
 48 65  1  0  0  0
 48119  1  0  0  0
 49 50  1  0  0  0
 49 53  1  0  0  0
 49 64  1  0  0  0
 49120  1  0  0  0
 50 51  1  0  0  0
 50121  1  0  0  0
 50122  1  0  0  0
 51 52  1  0  0  0
 51123  1  0  0  0
 51124  1  0  0  0
 52125  1  0  0  0
 52126  1  0  0  0
 53 54  1  0  0  0
 54 55  2  0  0  0
 54127  1  0  0  0
 55 57  1  0  0  0
 55128  1  0  0  0
 56 69  2  0  0  0
 57 58  2  0  0  0
 57129  1  0  0  0
 58130  1  0  0  0
 59 60  1  0  0  0
 59 61  1  0  0  0
 59 62  1  0  0  0
 60131  1  0  0  0
 60132  1  0  0  0
 60133  1  0  0  0
 61134  1  0  0  0
 61135  1  0  0  0
 61136  1  0  0  0
 62137  1  0  0  0
 62138  1  0  0  0
 62139  1  0  0  0
 63 65  1  0  0  0
 63140  1  0  0  0
 63141  1  0  0  0
 63142  1  0  0  0
 64143  1  0  0  0
 65144  1  0  0  0
 68 82  1  0  0  0
 71 72  2  0  0  0
 71 73  1  0  0  0
 71145  1  0  0  0
 72 83  1  0  0  0
 72146  1  0  0  0
 73 74  2  0  0  0
 73 79  1  0  0  0
 74 75  1  0  0  0
 74 84  1  0  0  0
 75 83  2  0  0  0
 75 85  1  0  0  0
 76 77  1  0  0  0
 76 78  1  0  0  0
 76147  1  0  0  0
 76148  1  0  0  0
 77 78  1  0  0  0
 77149  1  0  0  0
 77150  1  0  0  0
 78 80  1  0  0  0
 78151  1  0  0  0
 79 81  1  0  0  0
 79152  1  0  0  0
 79153  1  0  0  0
 80 85  1  0  0  0
 80154  1  0  0  0
 80155  1  0  0  0
 81 82  1  0  0  0
 81156  1  0  0  0
 81157  1  0  0  0
 82158  1  0  0  0
 82159  1  0  0  0
 84160  1  0  0  0
 85161  1  0  0  0
M  ISO  4   1 100  68 101  82 101  84 100
M  END
> <chiral flag>
0

> <version>
0

> <s_m_source_file>
/data/baiqing/PycharmProjects/Reinvent-master-3.2/result/LINK_invent/BTK/process_docking_weight1_custom_sum_contain_oxygen_bond_distance_aromatic_linkinvent_7_9_3/rearranged_h_0128.sdf

> <i_m_source_file_index>
86

> <r_mmod_Potential_Energy-OPLS-2005>
1319.22692871094

> <r_mmod_Stretch_Energy-OPLS-2005>
646.461791992188

> <r_mmod_Bend_Energy-OPLS-2005>
483.278930664062

> <r_mmod_Torsional_Energy-OPLS-2005>
481.045440673828

> <r_mmod_Improper_Torsional_Energy-OPLS-2005>
24.2391452789307

> <r_mmod_Van_der_Waal_Energy-OPLS-2005>
149.304946899414

> <r_mmod_Electrostatic_Energy-OPLS-2005>
-700.832336425781

> <r_mmod_Solvation_Energy-OPLS-2005>
-225.283706665039

> <b_mmod_Minimization_Converged-OPLS-2005>
0

> <r_mmod_RMS_Derivative-OPLS-2005>
3.07927179336548

$$$$
86
                    3D
 Structure written by MMmdl.
156164  0  0  1  0            999 V2000
  -30.6805  -14.4637   20.4635 C   0  0  0  0  0  0
  -30.4181  -12.2713   19.4174 C   0  0  0  0  0  0
  -29.4912  -12.4690   18.1989 C   0  0  0  0  0  0
  -28.0091  -12.3537   18.6102 C   0  0  0  0  0  0
  -27.6580  -13.2005   19.8647 C   0  0  2  0  0  0
  -28.7074  -12.9948   20.9856 C   0  0  0  0  0  0
  -25.2589  -13.8135   20.5657 C   0  0  0  0  0  0
  -24.1839  -13.0428   20.9206 C   0  0  0  0  0  0
  -24.6380  -11.6895   20.8755 C   0  0  0  0  0  0
  -23.9017  -10.4286   21.0413 C   0  0  0  0  0  0
  -24.3572   -9.4204   21.9185 C   0  0  0  0  0  0
  -23.6266   -8.2230   22.0751 C   0  0  0  0  0  0
  -22.4243   -8.0267   21.3551 C   0  0  0  0  0  0
  -21.9873   -9.0228   20.4640 C   0  0  0  0  0  0
  -22.7193  -10.2119   20.3060 C   0  0  0  0  0  0
  -21.6848   -6.0711   22.5277 C   0  0  0  0  0  0
  -21.4007   -6.5621   23.8203 C   0  0  0  0  0  0
  -21.3669   -5.6789   24.9162 C   0  0  0  0  0  0
  -21.6041   -4.3050   24.7228 C   0  0  0  0  0  0
  -21.8820   -3.8128   23.4351 C   0  0  0  0  0  0
  -21.9183   -4.6936   22.3394 C   0  0  0  0  0  0
  -22.7868  -13.5256   21.1844 C   0  0  0  0  0  0
  -22.1660   -4.2126   21.0980 F   0  0  0  0  0  0
  -21.5620   -3.4538   25.7737 F   0  0  0  0  0  0
  -30.0351  -13.2728   20.4212 N   0  0  0  0  0  0
  -26.3011  -12.9285   20.3349 N   0  0  0  0  0  0
  -25.9308  -11.6461   20.5799 N   0  0  0  0  0  0
  -22.0476  -12.8269   22.0387 N   0  0  0  0  0  0
  -25.4323  -15.1837   20.3987 N   0  0  0  0  0  0
  -31.8547  -14.6069   20.1169 O   0  0  0  0  0  0
  -21.6631   -6.8852   21.4239 O   0  0  0  0  0  0
  -22.3569  -14.5560   20.6680 O   0  0  0  0  0  0
  -24.6097  -31.8687   23.2145 C   0  0  0  0  0  0
  -25.9007  -32.4824   23.8421 C   0  0  1  0  0  0
  -27.2407  -27.4515   20.0845 C   0  0  0  0  0  0
  -25.5879  -33.8626   24.2342 N   0  0  0  0  0  0
  -23.3968  -30.4882   21.5568 C   0  0  2  0  0  0
  -24.8430  -28.9589   20.1170 C   0  0  0  0  0  0
  -22.7409  -29.4606   22.5041 C   0  0  0  0  0  0
  -18.0291  -28.1325   22.8545 C   0  0  0  0  0  0
  -24.1478  -36.7323   23.2642 C   0  0  0  0  0  0
  -25.9227  -30.8375   21.3653 C   0  0  0  0  0  0
  -25.9997  -29.4712   20.7139 C   0  0  0  0  0  0
  -27.1955  -28.7220   20.6993 C   0  0  0  0  0  0
  -26.0624  -26.9483   19.4837 C   0  0  0  0  0  0
  -24.8689  -27.6953   19.4988 C   0  0  0  0  0  0
  -23.6052  -29.8246   20.1695 C   0  0  0  0  0  0
  -25.4102  -36.3121   24.0340 C   0  0  1  0  0  0
  -20.5881  -28.3559   23.1342 C   0  0  2  0  0  0
  -20.6767  -26.9294   22.5439 C   0  0  0  0  0  0
  -19.5734  -26.6289   21.5269 C   0  0  0  0  0  0
  -18.1921  -26.7866   22.1686 C   0  0  0  0  0  0
  -19.1561  -28.8775   23.2916 C   0  0  0  0  0  0
  -18.9534  -30.1444   23.8824 C   0  0  0  0  0  0
  -17.6548  -30.6617   24.0510 C   0  0  0  0  0  0
  -25.9025  -34.9485   23.5142 C   0  0  0  0  0  0
  -16.5421  -29.9080   23.6389 C   0  0  0  0  0  0
  -16.7290  -28.6471   23.0456 C   0  0  0  0  0  0
  -26.4460  -31.6588   25.0731 C   0  0  0  0  0  0
  -25.3742  -31.3689   26.1489 C   0  0  0  0  0  0
  -27.0284  -30.3042   24.6068 C   0  0  0  0  0  0
  -27.6033  -32.4311   25.7488 C   0  0  0  0  0  0
  -27.5575  -37.1810   24.8468 C   0  0  0  0  0  0
  -21.4150  -29.2932   22.3773 N   0  0  0  0  0  0
  -26.4293  -37.3796   23.9411 N   0  0  0  0  0  0
  -24.6611  -31.0793   22.1043 N   0  0  0  0  0  0
  -23.4194  -28.8185   23.3093 O   0  0  0  0  0  0
  -28.4456  -26.7770   20.0962 O   0  0  0  0  0  0
  -26.5577  -34.8914   22.4699 O   0  0  0  0  0  0
  -23.5302  -32.1454   23.7557 O   0  0  0  0  0  0
  -27.7246  -19.7418   19.7859 C   0  0  0  0  0  0
  -28.2673  -18.4698   19.4984 C   0  0  0  0  0  0
  -29.4260  -20.0763   21.4904 C   0  0  0  0  0  0
  -28.3198  -20.5651   20.7639 C   0  0  0  0  0  0
  -29.4126  -18.0063   20.1860 C   0  0  0  0  0  0
  -29.9706  -18.8063   21.2113 C   0  0  0  0  0  0
  -30.1084  -16.7284   19.7338 C   0  0  0  0  0  0
  -27.7633  -21.9584   21.0475 C   0  0  0  0  0  0
  -28.0246  -24.3945   20.5891 C   0  0  0  0  0  0
  -28.5556  -25.4448   19.5879 C   0  0  0  0  0  0
  -29.8600  -15.5263   20.5374 N   0  0  0  0  0  0
  -28.4234  -23.0039   20.2359 N   0  3  0  0  0  0
  -31.3441  -18.2722   22.1145 Cl  0  0  0  0  0  0
  -31.4622  -12.3547   19.1117 H   0  0  0  0  0  0
  -30.3110  -11.2660   19.8286 H   0  0  0  0  0  0
  -29.7249  -11.7261   17.4350 H   0  0  0  0  0  0
  -29.6747  -13.4422   17.7398 H   0  0  0  0  0  0
  -27.8094  -11.2988   18.8094 H   0  0  0  0  0  0
  -27.3658  -12.6356   17.7746 H   0  0  0  0  0  0
  -27.6906  -14.2430   19.5511 H   0  0  0  0  0  0
  -28.6772  -11.9649   21.3417 H   0  0  0  0  0  0
  -28.4997  -13.6270   21.8514 H   0  0  0  0  0  0
  -25.2715   -9.5679   22.4762 H   0  0  0  0  0  0
  -23.9973   -7.4619   22.7471 H   0  0  0  0  0  0
  -21.0803   -8.8734   19.8943 H   0  0  0  0  0  0
  -22.3646  -10.9646   19.6160 H   0  0  0  0  0  0
  -21.2008   -7.6138   23.9709 H   0  0  0  0  0  0
  -21.1502   -6.0513   25.9074 H   0  0  0  0  0  0
  -22.0595   -2.7601   23.2858 H   0  0  0  0  0  0
  -22.4081  -11.9935   22.4789 H   0  0  0  0  0  0
  -21.1091  -13.1315   22.2579 H   0  0  0  0  0  0
  -24.6596  -15.8358   20.4754 H   0  0  0  0  0  0
  -26.2738  -15.6120   20.0390 H   0  0  0  0  0  0
  -26.7090  -32.5547   23.1195 H   0  0  0  0  0  0
  -25.0065  -33.9804   25.0507 H   0  0  0  0  0  0
  -22.6817  -31.3019   21.4250 H   0  0  0  0  0  0
  -23.3731  -35.9664   23.3316 H   0  0  0  0  0  0
  -24.3590  -36.8920   22.2058 H   0  0  0  0  0  0
  -23.7231  -37.6530   23.6649 H   0  0  0  0  0  0
  -26.0225  -31.6010   20.5934 H   0  0  0  0  0  0
  -26.8168  -30.9003   21.9752 H   0  0  0  0  0  0
  -28.0933  -29.1190   21.1540 H   0  0  0  0  0  0
  -26.0368  -25.9913   18.9866 H   0  0  0  0  0  0
  -23.9807  -27.3000   19.0262 H   0  0  0  0  0  0
  -23.7133  -30.6044   19.4144 H   0  0  0  0  0  0
  -22.7288  -29.2460   19.8727 H   0  0  0  0  0  0
  -25.1271  -36.1994   25.0832 H   0  0  0  0  0  0
  -20.9957  -28.3035   24.1461 H   0  0  0  0  0  0
  -20.5668  -26.2178   23.3653 H   0  0  0  0  0  0
  -21.6611  -26.7311   22.1161 H   0  0  0  0  0  0
  -19.6694  -27.3114   20.6828 H   0  0  0  0  0  0
  -19.6935  -25.6211   21.1284 H   0  0  0  0  0  0
  -17.4183  -26.6637   21.4102 H   0  0  0  0  0  0
  -18.0298  -26.0049   22.9116 H   0  0  0  0  0  0
  -19.8062  -30.7242   24.2111 H   0  0  0  0  0  0
  -17.5179  -31.6353   24.5012 H   0  0  0  0  0  0
  -15.5437  -30.2992   23.7787 H   0  0  0  0  0  0
  -15.8666  -28.0753   22.7273 H   0  0  0  0  0  0
  -24.5916  -30.7021   25.7853 H   0  0  0  0  0  0
  -24.8918  -32.2832   26.4951 H   0  0  0  0  0  0
  -25.8108  -30.8869   27.0239 H   0  0  0  0  0  0
  -26.2813  -29.6806   24.1145 H   0  0  0  0  0  0
  -27.4103  -29.7270   25.4495 H   0  0  0  0  0  0
  -27.8622  -30.4383   23.9175 H   0  0  0  0  0  0
  -27.2652  -33.3611   26.2080 H   0  0  0  0  0  0
  -28.3834  -32.6866   25.0303 H   0  0  0  0  0  0
  -28.0706  -31.8421   26.5388 H   0  0  0  0  0  0
  -28.2594  -38.0102   24.7500 H   0  0  0  0  0  0
  -28.1058  -36.2629   24.6303 H   0  0  0  0  0  0
  -27.2296  -37.1476   25.8871 H   0  0  0  0  0  0
  -20.9337  -29.8521   21.6876 H   0  0  0  0  0  0
  -26.0181  -38.2873   24.1405 H   0  0  0  0  0  0
  -26.8582  -20.0889   19.2392 H   0  0  0  0  0  0
  -27.8207  -17.8717   18.7162 H   0  0  0  0  0  0
  -29.8813  -20.6761   22.2656 H   0  0  0  0  0  0
  -31.1768  -16.9454   19.6779 H   0  0  0  0  0  0
  -29.8127  -16.5092   18.7054 H   0  0  0  0  0  0
  -27.8835  -22.1876   22.1078 H   0  0  0  0  0  0
  -26.6920  -21.9734   20.8423 H   0  0  0  0  0  0
  -26.9372  -24.4611   20.6571 H   0  0  0  0  0  0
  -28.4109  -24.6178   21.5849 H   0  0  0  0  0  0
  -28.0951  -25.3454   18.6050 H   0  0  0  0  0  0
  -29.6205  -25.2740   19.4295 H   0  0  0  0  0  0
  -28.9104  -15.3567   20.8245 H   0  0  0  0  0  0
  -28.2140  -22.8216   19.2665 H   0  0  0  0  0  0
  -29.4208  -22.8997   20.3473 H   0  0  0  0  0  0
  1 25  1  0  0  0
  1 30  2  0  0  0
  1 81  1  0  0  0
  2  3  1  0  0  0
  2 25  1  0  0  0
  2 84  1  0  0  0
  2 85  1  0  0  0
  3  4  1  0  0  0
  3 86  1  0  0  0
  3 87  1  0  0  0
  4  5  1  0  0  0
  4 88  1  0  0  0
  4 89  1  0  0  0
  5  6  1  0  0  0
  5 26  1  0  0  0
  5 90  1  0  0  0
  6 25  1  0  0  0
  6 91  1  0  0  0
  6 92  1  0  0  0
  7  8  2  0  0  0
  7 26  1  0  0  0
  7 29  1  0  0  0
  8  9  1  0  0  0
  8 22  1  0  0  0
  9 10  1  0  0  0
  9 27  2  0  0  0
 10 11  2  0  0  0
 10 15  1  0  0  0
 11 12  1  0  0  0
 11 93  1  0  0  0
 12 13  2  0  0  0
 12 94  1  0  0  0
 13 14  1  0  0  0
 13 31  1  0  0  0
 14 15  2  0  0  0
 14 95  1  0  0  0
 15 96  1  0  0  0
 16 17  2  0  0  0
 16 21  1  0  0  0
 16 31  1  0  0  0
 17 18  1  0  0  0
 17 97  1  0  0  0
 18 19  2  0  0  0
 18 98  1  0  0  0
 19 20  1  0  0  0
 19 24  1  0  0  0
 20 21  2  0  0  0
 20 99  1  0  0  0
 21 23  1  0  0  0
 22 28  1  0  0  0
 22 32  2  0  0  0
 26 27  1  0  0  0
 28100  1  0  0  0
 28101  1  0  0  0
 29102  1  0  0  0
 29103  1  0  0  0
 33 34  1  0  0  0
 33 66  1  0  0  0
 33 70  2  0  0  0
 34 36  1  0  0  0
 34 59  1  0  0  0
 34104  1  0  0  0
 35 44  2  0  0  0
 35 45  1  0  0  0
 35 68  1  0  0  0
 36 56  1  0  0  0
 36105  1  0  0  0
 37 39  1  0  0  0
 37 47  1  0  0  0
 37 66  1  0  0  0
 37106  1  0  0  0
 38 43  2  0  0  0
 38 46  1  0  0  0
 38 47  1  0  0  0
 39 64  1  0  0  0
 39 67  2  0  0  0
 40 52  1  0  0  0
 40 53  2  0  0  0
 40 58  1  0  0  0
 41107  1  0  0  0
 41108  1  0  0  0
 41109  1  0  0  0
 41 48  1  0  0  0
 42 43  1  0  0  0
 42 66  1  0  0  0
 42110  1  0  0  0
 42111  1  0  0  0
 43 44  1  0  0  0
 44112  1  0  0  0
 45 46  2  0  0  0
 45113  1  0  0  0
 46114  1  0  0  0
 47115  1  0  0  0
 47116  1  0  0  0
 48 56  1  0  0  0
 48 65  1  0  0  0
 48117  1  0  0  0
 49 50  1  0  0  0
 49 53  1  0  0  0
 49 64  1  0  0  0
 49118  1  0  0  0
 50 51  1  0  0  0
 50119  1  0  0  0
 50120  1  0  0  0
 51 52  1  0  0  0
 51121  1  0  0  0
 51122  1  0  0  0
 52123  1  0  0  0
 52124  1  0  0  0
 53 54  1  0  0  0
 54 55  2  0  0  0
 54125  1  0  0  0
 55 57  1  0  0  0
 55126  1  0  0  0
 56 69  2  0  0  0
 57 58  2  0  0  0
 57127  1  0  0  0
 58128  1  0  0  0
 59 60  1  0  0  0
 59 61  1  0  0  0
 59 62  1  0  0  0
 60129  1  0  0  0
 60130  1  0  0  0
 60131  1  0  0  0
 61132  1  0  0  0
 61133  1  0  0  0
 61134  1  0  0  0
 62135  1  0  0  0
 62136  1  0  0  0
 62137  1  0  0  0
 63 65  1  0  0  0
 63138  1  0  0  0
 63139  1  0  0  0
 63140  1  0  0  0
 64141  1  0  0  0
 65142  1  0  0  0
 68 80  1  0  0  0
 71 72  2  0  0  0
 71 74  1  0  0  0
 71143  1  0  0  0
 72 75  1  0  0  0
 72144  1  0  0  0
 73 74  2  0  0  0
 73 76  1  0  0  0
 73145  1  0  0  0
 74 78  1  0  0  0
 75 76  2  0  0  0
 75 77  1  0  0  0
 76 83  1  0  0  0
 77 81  1  0  0  0
 77146  1  0  0  0
 77147  1  0  0  0
 78 82  1  0  0  0
 78148  1  0  0  0
 78149  1  0  0  0
 79 80  1  0  0  0
 79 82  1  0  0  0
 79150  1  0  0  0
 79151  1  0  0  0
 80152  1  0  0  0
 80153  1  0  0  0
 81154  1  0  0  0
 82155  1  0  0  0
 82156  1  0  0  0
M  CHG  1  82   1
M  ISO  4   1 100  68 101  80 101  81 100
M  END
> <chiral flag>
0

> <version>
0

> <s_m_source_file>
/data/baiqing/PycharmProjects/Reinvent-master-3.2/result/LINK_invent/BTK/process_docking_weight1_custom_sum_contain_oxygen_bond_distance_aromatic_linkinvent_7_9_3/rearranged_h_0128.sdf

> <i_m_source_file_index>
87

> <r_mmod_Potential_Energy-OPLS-2005>
-257.629669189453

> <r_mmod_Stretch_Energy-OPLS-2005>
33.175537109375

> <r_mmod_Bend_Energy-OPLS-2005>
94.9782257080078

> <r_mmod_Torsional_Energy-OPLS-2005>
205.663009643555

> <r_mmod_Improper_Torsional_Energy-OPLS-2005>
12.4747438430786

> <r_mmod_Van_der_Waal_Energy-OPLS-2005>
148.742126464844

> <r_mmod_Electrostatic_Energy-OPLS-2005>
-296.524047851562

> <r_mmod_Solvation_Energy-OPLS-2005>
-472.645599365234

> <b_mmod_Minimization_Converged-OPLS-2005>
0

> <r_mmod_RMS_Derivative-OPLS-2005>
4.29200172424316

$$$$
87
                    3D
 Structure written by MMmdl.
156164  0  0  1  0            999 V2000
  -30.5170  -14.8480   20.4082 C   0  0  0  0  0  0
  -30.4353  -12.5175   19.4597 C   0  0  0  0  0  0
  -29.4956  -12.4823   18.2323 C   0  0  0  0  0  0
  -28.0305  -12.2838   18.6678 C   0  0  0  0  0  0
  -27.6237  -13.2223   19.8305 C   0  0  2  0  0  0
  -28.6698  -13.2086   20.9599 C   0  0  0  0  0  0
  -25.2474  -13.8190   20.5694 C   0  0  0  0  0  0
  -24.1740  -13.0428   20.9234 C   0  0  0  0  0  0
  -24.6335  -11.6904   20.8776 C   0  0  0  0  0  0
  -23.9004  -10.4287   21.0432 C   0  0  0  0  0  0
  -24.3573   -9.4209   21.9211 C   0  0  0  0  0  0
  -23.6263   -8.2231   22.0757 C   0  0  0  0  0  0
  -22.4244   -8.0260   21.3541 C   0  0  0  0  0  0
  -21.9890   -9.0227   20.4634 C   0  0  0  0  0  0
  -22.7191  -10.2119   20.3073 C   0  0  0  0  0  0
  -21.6837   -6.0719   22.5269 C   0  0  0  0  0  0
  -21.4002   -6.5633   23.8198 C   0  0  0  0  0  0
  -21.3661   -5.6794   24.9172 C   0  0  0  0  0  0
  -21.6047   -4.3059   24.7229 C   0  0  0  0  0  0
  -21.8814   -3.8135   23.4352 C   0  0  0  0  0  0
  -21.9194   -4.6956   22.3403 C   0  0  0  0  0  0
  -22.7791  -13.5211   21.1908 C   0  0  0  0  0  0
  -22.1659   -4.2137   21.0981 F   0  0  0  0  0  0
  -21.5643   -3.4545   25.7742 F   0  0  0  0  0  0
  -29.9481  -13.5917   20.3548 N   0  0  0  0  0  0
  -26.2837  -12.9354   20.3246 N   0  0  0  0  0  0
  -25.9248  -11.6515   20.5765 N   0  0  0  0  0  0
  -22.0451  -12.8155   22.0461 N   0  0  0  0  0  0
  -25.4211  -15.1904   20.4084 N   0  0  0  0  0  0
  -31.7335  -14.9620   20.2205 O   0  0  0  0  0  0
  -21.6625   -6.8848   21.4217 O   0  0  0  0  0  0
  -22.3454  -14.5532   20.6785 O   0  0  0  0  0  0
  -24.6372  -31.8538   23.1917 C   0  0  0  0  0  0
  -25.9171  -32.4729   23.8282 C   0  0  1  0  0  0
  -27.1846  -27.1926   20.1226 C   0  0  0  0  0  0
  -25.6000  -33.8543   24.2263 N   0  0  0  0  0  0
  -23.4329  -30.4747   21.5446 C   0  0  2  0  0  0
  -24.8633  -28.9075   20.1161 C   0  0  0  0  0  0
  -22.7528  -29.4544   22.4901 C   0  0  0  0  0  0
  -18.0279  -28.1370   22.8424 C   0  0  0  0  0  0
  -24.1499  -36.7230   23.2652 C   0  0  0  0  0  0
  -25.9799  -30.7480   21.3732 C   0  0  0  0  0  0
  -26.0432  -29.3630   20.7137 C   0  0  0  0  0  0
  -27.2052  -28.5168   20.6997 C   0  0  0  0  0  0
  -25.9770  -26.8166   19.5077 C   0  0  0  0  0  0
  -24.8364  -27.6456   19.5060 C   0  0  0  0  0  0
  -23.6491  -29.8162   20.1576 C   0  0  0  0  0  0
  -25.4116  -36.3049   24.0358 C   0  0  1  0  0  0
  -20.5942  -28.3638   23.1255 C   0  0  2  0  0  0
  -20.6800  -26.9359   22.5390 C   0  0  0  0  0  0
  -19.5785  -26.6365   21.5185 C   0  0  0  0  0  0
  -18.1937  -26.7894   22.1579 C   0  0  0  0  0  0
  -19.1557  -28.8803   23.2817 C   0  0  0  0  0  0
  -18.9502  -30.1392   23.8827 C   0  0  0  0  0  0
  -17.6521  -30.6563   24.0525 C   0  0  0  0  0  0
  -25.9077  -34.9432   23.5096 C   0  0  0  0  0  0
  -16.5390  -29.9047   23.6363 C   0  0  0  0  0  0
  -16.7282  -28.6492   23.0311 C   0  0  0  0  0  0
  -26.4521  -31.6562   25.0682 C   0  0  0  0  0  0
  -25.3757  -31.3705   26.1409 C   0  0  0  0  0  0
  -27.0396  -30.3030   24.6073 C   0  0  0  0  0  0
  -27.6047  -32.4319   25.7469 C   0  0  0  0  0  0
  -27.5555  -37.1760   24.8491 C   0  0  0  0  0  0
  -21.4244  -29.2994   22.3628 N   0  0  0  0  0  0
  -26.4291  -37.3767   23.9425 N   0  0  0  0  0  0
  -24.7033  -31.0419   22.0944 N   0  0  0  0  0  0
  -23.4187  -28.8091   23.3036 O   0  0  0  0  0  0
  -28.3067  -26.3242   20.1087 O   0  0  0  0  0  0
  -26.5608  -34.8930   22.4639 O   0  0  0  0  0  0
  -23.5530  -32.1351   23.7235 O   0  0  0  0  0  0
  -27.6437  -23.7201   19.1764 C   0  0  0  0  0  0
  -28.6106  -24.0251   21.4498 C   0  0  0  0  0  0
  -27.6478  -22.1675   19.6376 C   0  0  0  0  0  0
  -29.4025  -22.6444   21.3172 C   0  0  0  0  0  0
  -28.3857  -24.7831   20.1016 C   0  0  1  0  0  0
  -29.1565  -18.7503   20.0300 C   0  0  0  0  0  0
  -29.8861  -17.4661   20.7859 C   0  0  0  0  0  0
  -28.8612  -20.1432   20.8804 C   0  0  0  0  0  0
  -29.6639  -15.9625   20.4666 N   0  0  0  0  0  0
  -28.8910  -21.6096   20.3135 N   0  3  1  0  0  0
  -31.4595  -12.6990   19.1301 H   0  0  0  0  0  0
  -30.4390  -11.5586   19.9807 H   0  0  0  0  0  0
  -29.7887  -11.6842   17.5499 H   0  0  0  0  0  0
  -29.5810  -13.4118   17.6695 H   0  0  0  0  0  0
  -27.9207  -11.2461   18.9929 H   0  0  0  0  0  0
  -27.3519  -12.4069   17.8238 H   0  0  0  0  0  0
  -27.5979  -14.2236   19.4026 H   0  0  0  0  0  0
  -28.7371  -12.2265   21.4253 H   0  0  0  0  0  0
  -28.3940  -13.9069   21.7498 H   0  0  0  0  0  0
  -25.2724   -9.5691   22.4788 H   0  0  0  0  0  0
  -23.9981   -7.4622   22.7481 H   0  0  0  0  0  0
  -21.0830   -8.8710   19.8942 H   0  0  0  0  0  0
  -22.3633  -10.9649   19.6175 H   0  0  0  0  0  0
  -21.1970   -7.6131   23.9681 H   0  0  0  0  0  0
  -21.1499   -6.0538   25.9066 H   0  0  0  0  0  0
  -22.0599   -2.7596   23.2855 H   0  0  0  0  0  0
  -22.4063  -11.9731   22.4714 H   0  0  0  0  0  0
  -21.1112  -13.1191   22.2800 H   0  0  0  0  0  0
  -24.6535  -15.8486   20.4955 H   0  0  0  0  0  0
  -26.2565  -15.6115   20.0225 H   0  0  0  0  0  0
  -26.7159  -32.5340   23.0952 H   0  0  0  0  0  0
  -25.0298  -33.9680   25.0513 H   0  0  0  0  0  0
  -22.7349  -31.3000   21.3979 H   0  0  0  0  0  0
  -23.3807  -35.9519   23.3335 H   0  0  0  0  0  0
  -24.3596  -36.8858   22.2067 H   0  0  0  0  0  0
  -23.7234  -37.6421   23.6667 H   0  0  0  0  0  0
  -26.1209  -31.5117   20.6094 H   0  0  0  0  0  0
  -26.8589  -30.7971   22.0031 H   0  0  0  0  0  0
  -28.1159  -28.8587   21.1701 H   0  0  0  0  0  0
  -25.8841  -25.8753   18.9998 H   0  0  0  0  0  0
  -23.9252  -27.2965   19.0323 H   0  0  0  0  0  0
  -23.8021  -30.6022   19.4196 H   0  0  0  0  0  0
  -22.7552  -29.2825   19.8260 H   0  0  0  0  0  0
  -25.1300  -36.1875   25.0857 H   0  0  0  0  0  0
  -20.9953  -28.3176   24.1414 H   0  0  0  0  0  0
  -20.5760  -26.2189   23.3548 H   0  0  0  0  0  0
  -21.6639  -26.7453   22.1117 H   0  0  0  0  0  0
  -19.6993  -25.6279   21.1169 H   0  0  0  0  0  0
  -19.6767  -27.3171   20.6701 H   0  0  0  0  0  0
  -17.4235  -26.6637   21.3941 H   0  0  0  0  0  0
  -18.0283  -26.0040   22.8970 H   0  0  0  0  0  0
  -19.8010  -30.7167   24.2177 H   0  0  0  0  0  0
  -17.5131  -31.6245   24.5097 H   0  0  0  0  0  0
  -15.5403  -30.2945   23.7733 H   0  0  0  0  0  0
  -15.8682  -28.0814   22.7058 H   0  0  0  0  0  0
  -24.5986  -30.6973   25.7766 H   0  0  0  0  0  0
  -24.8846  -32.2868   26.4702 H   0  0  0  0  0  0
  -25.8097  -30.9011   27.0252 H   0  0  0  0  0  0
  -26.2949  -29.6736   24.1176 H   0  0  0  0  0  0
  -27.4275  -29.7295   25.4494 H   0  0  0  0  0  0
  -27.8734  -30.4414   23.9188 H   0  0  0  0  0  0
  -27.2676  -33.3715   26.1844 H   0  0  0  0  0  0
  -28.3938  -32.6714   25.0342 H   0  0  0  0  0  0
  -28.0587  -31.8566   26.5549 H   0  0  0  0  0  0
  -28.2552  -38.0064   24.7539 H   0  0  0  0  0  0
  -28.1081  -36.2610   24.6343 H   0  0  0  0  0  0
  -27.2263  -37.1411   25.8890 H   0  0  0  0  0  0
  -20.9384  -29.8834   21.6952 H   0  0  0  0  0  0
  -26.0173  -38.2821   24.1511 H   0  0  0  0  0  0
  -26.5908  -23.9676   19.0548 H   0  0  0  0  0  0
  -28.0463  -23.7924   18.1633 H   0  0  0  0  0  0
  -29.1644  -24.6674   22.1388 H   0  0  0  0  0  0
  -27.6495  -23.8493   21.9429 H   0  0  0  0  0  0
  -27.4087  -21.5478   18.7698 H   0  0  0  0  0  0
  -26.8078  -22.0246   20.3219 H   0  0  0  0  0  0
  -29.4676  -22.2132   22.3229 H   0  0  0  0  0  0
  -30.4430  -22.8669   21.0591 H   0  0  0  0  0  0
  -29.3811  -24.7429   19.6584 H   0  0  0  0  0  0
  -28.1941  -18.4183   19.6286 H   0  0  0  0  0  0
  -29.7444  -18.9908   19.1427 H   0  0  0  0  0  0
  -29.5787  -17.5330   21.8285 H   0  0  0  0  0  0
  -30.9619  -17.6573   20.7962 H   0  0  0  0  0  0
  -29.5916  -20.1202   21.6907 H   0  0  0  0  0  0
  -27.9015  -20.0177   21.3924 H   0  0  0  0  0  0
  -28.6909  -15.6953   20.4760 H   0  0  0  0  0  0
  -29.5966  -21.6030   19.5886 H   0  0  0  0  0  0
  1 25  1  0  0  0
  1 30  2  0  0  0
  1 79  1  0  0  0
  2  3  1  0  0  0
  2 25  1  0  0  0
  2 81  1  0  0  0
  2 82  1  0  0  0
  3  4  1  0  0  0
  3 83  1  0  0  0
  3 84  1  0  0  0
  4  5  1  0  0  0
  4 85  1  0  0  0
  4 86  1  0  0  0
  5  6  1  0  0  0
  5 26  1  0  0  0
  5 87  1  0  0  0
  6 25  1  0  0  0
  6 88  1  0  0  0
  6 89  1  0  0  0
  7  8  2  0  0  0
  7 26  1  0  0  0
  7 29  1  0  0  0
  8  9  1  0  0  0
  8 22  1  0  0  0
  9 10  1  0  0  0
  9 27  2  0  0  0
 10 11  2  0  0  0
 10 15  1  0  0  0
 11 12  1  0  0  0
 11 90  1  0  0  0
 12 13  2  0  0  0
 12 91  1  0  0  0
 13 14  1  0  0  0
 13 31  1  0  0  0
 14 15  2  0  0  0
 14 92  1  0  0  0
 15 93  1  0  0  0
 16 17  2  0  0  0
 16 21  1  0  0  0
 16 31  1  0  0  0
 17 18  1  0  0  0
 17 94  1  0  0  0
 18 19  2  0  0  0
 18 95  1  0  0  0
 19 20  1  0  0  0
 19 24  1  0  0  0
 20 21  2  0  0  0
 20 96  1  0  0  0
 21 23  1  0  0  0
 22 28  1  0  0  0
 22 32  2  0  0  0
 26 27  1  0  0  0
 28 97  1  0  0  0
 28 98  1  0  0  0
 29 99  1  0  0  0
 29100  1  0  0  0
 33 34  1  0  0  0
 33 66  1  0  0  0
 33 70  2  0  0  0
 34 36  1  0  0  0
 34 59  1  0  0  0
 34101  1  0  0  0
 35 44  2  0  0  0
 35 45  1  0  0  0
 35 68  1  0  0  0
 36 56  1  0  0  0
 36102  1  0  0  0
 37 39  1  0  0  0
 37 47  1  0  0  0
 37 66  1  0  0  0
 37103  1  0  0  0
 38 43  2  0  0  0
 38 46  1  0  0  0
 38 47  1  0  0  0
 39 64  1  0  0  0
 39 67  2  0  0  0
 40 52  1  0  0  0
 40 53  2  0  0  0
 40 58  1  0  0  0
 41104  1  0  0  0
 41105  1  0  0  0
 41106  1  0  0  0
 41 48  1  0  0  0
 42 43  1  0  0  0
 42 66  1  0  0  0
 42107  1  0  0  0
 42108  1  0  0  0
 43 44  1  0  0  0
 44109  1  0  0  0
 45 46  2  0  0  0
 45110  1  0  0  0
 46111  1  0  0  0
 47112  1  0  0  0
 47113  1  0  0  0
 48 56  1  0  0  0
 48 65  1  0  0  0
 48114  1  0  0  0
 49 50  1  0  0  0
 49 53  1  0  0  0
 49 64  1  0  0  0
 49115  1  0  0  0
 50 51  1  0  0  0
 50116  1  0  0  0
 50117  1  0  0  0
 51 52  1  0  0  0
 51118  1  0  0  0
 51119  1  0  0  0
 52120  1  0  0  0
 52121  1  0  0  0
 53 54  1  0  0  0
 54 55  2  0  0  0
 54122  1  0  0  0
 55 57  1  0  0  0
 55123  1  0  0  0
 56 69  2  0  0  0
 57 58  2  0  0  0
 57124  1  0  0  0
 58125  1  0  0  0
 59 60  1  0  0  0
 59 61  1  0  0  0
 59 62  1  0  0  0
 60126  1  0  0  0
 60127  1  0  0  0
 60128  1  0  0  0
 61129  1  0  0  0
 61130  1  0  0  0
 61131  1  0  0  0
 62132  1  0  0  0
 62133  1  0  0  0
 62134  1  0  0  0
 63 65  1  0  0  0
 63135  1  0  0  0
 63136  1  0  0  0
 63137  1  0  0  0
 64138  1  0  0  0
 65139  1  0  0  0
 68 75  1  0  0  0
 71 73  1  0  0  0
 71 75  1  0  0  0
 71140  1  0  0  0
 71141  1  0  0  0
 72 74  1  0  0  0
 72 75  1  0  0  0
 72142  1  0  0  0
 72143  1  0  0  0
 73 80  1  0  0  0
 73144  1  0  0  0
 73145  1  0  0  0
 74 80  1  0  0  0
 74146  1  0  0  0
 74147  1  0  0  0
 75148  1  0  0  0
 76 77  1  0  0  0
 76 78  1  0  0  0
 76149  1  0  0  0
 76150  1  0  0  0
 77 79  1  0  0  0
 77151  1  0  0  0
 77152  1  0  0  0
 78153  1  0  0  0
 78154  1  0  0  0
 78 80  1  0  0  0
 79155  1  0  0  0
 80156  1  0  0  0
M  CHG  1  80   1
M  ISO  4   1 100  68 101  75 101  79 100
M  END
> <chiral flag>
0

> <version>
0

> <s_m_source_file>
/data/baiqing/PycharmProjects/Reinvent-master-3.2/result/LINK_invent/BTK/process_docking_weight1_custom_sum_contain_oxygen_bond_distance_aromatic_linkinvent_7_9_3/rearranged_h_0128.sdf

> <i_m_source_file_index>
88

> <r_mmod_Potential_Energy-OPLS-2005>
299.677307128906

> <r_mmod_Stretch_Energy-OPLS-2005>
178.104675292969

> <r_mmod_Bend_Energy-OPLS-2005>
284.060150146484

> <r_mmod_Torsional_Energy-OPLS-2005>
279.70361328125

> <r_mmod_Improper_Torsional_Energy-OPLS-2005>
5.02652549743652

> <r_mmod_Van_der_Waal_Energy-OPLS-2005>
123.307792663574

> <r_mmod_Electrostatic_Energy-OPLS-2005>
-237.920349121094

> <r_mmod_Solvation_Energy-OPLS-2005>
-466.321563720703

> <b_mmod_Minimization_Converged-OPLS-2005>
0

> <r_mmod_RMS_Derivative-OPLS-2005>
7.57718992233276

$$$$
88
                    3D
 Structure written by MMmdl.
151159  0  0  1  0            999 V2000
  -30.6064  -14.7425   20.4449 C   0  0  0  0  0  0
  -30.4303  -12.4498   19.4788 C   0  0  0  0  0  0
  -29.5097  -12.5032   18.2393 C   0  0  0  0  0  0
  -28.0353  -12.3292   18.6528 C   0  0  0  0  0  0
  -27.6407  -13.2321   19.8527 C   0  0  2  0  0  0
  -28.6842  -13.1689   20.9895 C   0  0  0  0  0  0
  -25.2497  -13.8197   20.5697 C   0  0  0  0  0  0
  -24.1786  -13.0435   20.9185 C   0  0  0  0  0  0
  -24.6384  -11.6916   20.8740 C   0  0  0  0  0  0
  -23.9065  -10.4293   21.0408 C   0  0  0  0  0  0
  -24.3618   -9.4206   21.9185 C   0  0  0  0  0  0
  -23.6294   -8.2242   22.0756 C   0  0  0  0  0  0
  -22.4277   -8.0282   21.3545 C   0  0  0  0  0  0
  -21.9910   -9.0252   20.4645 C   0  0  0  0  0  0
  -22.7239  -10.2133   20.3055 C   0  0  0  0  0  0
  -21.6852   -6.0738   22.5279 C   0  0  0  0  0  0
  -21.4012   -6.5643   23.8211 C   0  0  0  0  0  0
  -21.3658   -5.6798   24.9174 C   0  0  0  0  0  0
  -21.6042   -4.3060   24.7224 C   0  0  0  0  0  0
  -21.8816   -3.8150   23.4345 C   0  0  0  0  0  0
  -21.9192   -4.6966   22.3402 C   0  0  0  0  0  0
  -22.7810  -13.5219   21.1852 C   0  0  0  0  0  0
  -22.1662   -4.2154   21.0980 F   0  0  0  0  0  0
  -21.5628   -3.4542   25.7735 F   0  0  0  0  0  0
  -29.9860  -13.5147   20.4071 N   0  0  0  0  0  0
  -26.2931  -12.9410   20.3305 N   0  0  0  0  0  0
  -25.9316  -11.6550   20.5758 N   0  0  0  0  0  0
  -22.0465  -12.8213   22.0417 N   0  0  0  0  0  0
  -25.4172  -15.1923   20.4160 N   0  0  0  0  0  0
  -31.7936  -14.8395   20.1213 O   0  0  0  0  0  0
  -21.6640   -6.8883   21.4243 O   0  0  0  0  0  0
  -22.3481  -14.5517   20.6698 O   0  0  0  0  0  0
  -24.6308  -31.8536   23.1955 C   0  0  0  0  0  0
  -25.9134  -32.4738   23.8305 C   0  0  1  0  0  0
  -27.2262  -27.2639   20.1220 C   0  0  0  0  0  0
  -25.5928  -33.8541   24.2234 N   0  0  0  0  0  0
  -23.4272  -30.4739   21.5387 C   0  0  2  0  0  0
  -24.8746  -28.9158   20.1078 C   0  0  0  0  0  0
  -22.7498  -29.4592   22.4910 C   0  0  0  0  0  0
  -18.0287  -28.1394   22.8492 C   0  0  0  0  0  0
  -24.1492  -36.7281   23.2641 C   0  0  0  0  0  0
  -25.9709  -30.7666   21.3736 C   0  0  0  0  0  0
  -26.0430  -29.3880   20.7165 C   0  0  0  0  0  0
  -27.2173  -28.5728   20.7135 C   0  0  0  0  0  0
  -26.0318  -26.8487   19.4947 C   0  0  0  0  0  0
  -24.8738  -27.6548   19.4877 C   0  0  0  0  0  0
  -23.6449  -29.8026   20.1556 C   0  0  0  0  0  0
  -25.4119  -36.3061   24.0324 C   0  0  1  0  0  0
  -20.5890  -28.3698   23.1272 C   0  0  2  0  0  0
  -20.6773  -26.9420   22.5404 C   0  0  0  0  0  0
  -19.5741  -26.6388   21.5217 C   0  0  0  0  0  0
  -18.1929  -26.7930   22.1643 C   0  0  0  0  0  0
  -19.1541  -28.8864   23.2876 C   0  0  0  0  0  0
  -18.9466  -30.1463   23.8897 C   0  0  0  0  0  0
  -17.6465  -30.6596   24.0567 C   0  0  0  0  0  0
  -25.9058  -34.9431   23.5084 C   0  0  0  0  0  0
  -16.5355  -29.9094   23.6333 C   0  0  0  0  0  0
  -16.7274  -28.6511   23.0355 C   0  0  0  0  0  0
  -26.4501  -31.6574   25.0704 C   0  0  0  0  0  0
  -25.3716  -31.3737   26.1422 C   0  0  0  0  0  0
  -27.0355  -30.2989   24.6203 C   0  0  0  0  0  0
  -27.6048  -32.4324   25.7483 C   0  0  0  0  0  0
  -27.5576  -37.1795   24.8463 C   0  0  0  0  0  0
  -21.4205  -29.3039   22.3660 N   0  0  0  0  0  0
  -26.4290  -37.3761   23.9406 N   0  0  0  0  0  0
  -24.6953  -31.0500   22.0923 N   0  0  0  0  0  0
  -23.4198  -28.8143   23.3021 O   0  0  0  0  0  0
  -28.3522  -26.4158   20.2026 O   0  0  0  0  0  0
  -26.5638  -34.8911   22.4659 O   0  0  0  0  0  0
  -23.5462  -32.1361   23.7253 O   0  0  0  0  0  0
  -27.4916  -20.8069   21.1661 C   0  0  0  0  0  0
  -27.1687  -19.4865   21.5523 C   0  0  0  0  0  0
  -29.5354  -19.9476   20.1901 C   0  0  0  0  0  0
  -29.2389  -18.5772   20.5932 C   0  0  0  0  0  0
  -28.6801  -21.0967   20.4566 C   0  0  0  0  0  0
  -28.0148  -18.3924   21.2718 C   0  0  0  0  0  0
  -30.2158  -17.3365   20.3366 C   0  0  0  0  0  0
  -28.4450  -25.0350   19.6156 C   0  0  0  0  0  0
  -28.2259  -23.6523   20.4369 C   0  0  0  0  0  0
  -29.8330  -15.8805   20.6180 N   0  0  0  0  0  0
  -28.9871  -22.4251   20.0222 O   0  0  0  0  0  0
  -27.6363  -17.1538   21.6682 F   0  0  0  0  0  0
  -31.4729  -12.5691   19.1783 H   0  0  0  0  0  0
  -30.3711  -11.4749   19.9644 H   0  0  0  0  0  0
  -29.7924  -11.7286   17.5254 H   0  0  0  0  0  0
  -29.6370  -13.4570   17.7247 H   0  0  0  0  0  0
  -27.8926  -11.2813   18.9187 H   0  0  0  0  0  0
  -27.3775  -12.5193   17.8037 H   0  0  0  0  0  0
  -27.6337  -14.2528   19.4697 H   0  0  0  0  0  0
  -28.7165  -12.1731   21.4340 H   0  0  0  0  0  0
  -28.4205  -13.8568   21.7945 H   0  0  0  0  0  0
  -25.2761   -9.5688   22.4762 H   0  0  0  0  0  0
  -24.0003   -7.4635   22.7476 H   0  0  0  0  0  0
  -21.0842   -8.8766   19.8951 H   0  0  0  0  0  0
  -22.3691  -10.9672   19.6165 H   0  0  0  0  0  0
  -21.2003   -7.6151   23.9715 H   0  0  0  0  0  0
  -21.1485   -6.0530   25.9078 H   0  0  0  0  0  0
  -22.0596   -2.7612   23.2842 H   0  0  0  0  0  0
  -22.4092  -11.9876   22.4803 H   0  0  0  0  0  0
  -21.1078  -13.1231   22.2629 H   0  0  0  0  0  0
  -24.6592  -15.8480   20.5672 H   0  0  0  0  0  0
  -26.2938  -15.6495   20.2011 H   0  0  0  0  0  0
  -26.7201  -32.5389   23.1046 H   0  0  0  0  0  0
  -25.0056  -33.9674   25.0368 H   0  0  0  0  0  0
  -22.7235  -31.2960   21.3902 H   0  0  0  0  0  0
  -23.3749  -35.9616   23.3299 H   0  0  0  0  0  0
  -24.3577  -36.8911   22.2053 H   0  0  0  0  0  0
  -23.7250  -37.6482   23.6673 H   0  0  0  0  0  0
  -26.1094  -31.5267   20.6035 H   0  0  0  0  0  0
  -26.8490  -30.8167   22.0059 H   0  0  0  0  0  0
  -28.1140  -28.9291   21.2008 H   0  0  0  0  0  0
  -25.9601  -25.8768   19.0307 H   0  0  0  0  0  0
  -23.9755  -27.2858   19.0123 H   0  0  0  0  0  0
  -23.7673  -30.5764   19.3969 H   0  0  0  0  0  0
  -22.7635  -29.2336   19.8533 H   0  0  0  0  0  0
  -25.1301  -36.1900   25.0816 H   0  0  0  0  0  0
  -20.9985  -28.3271   24.1392 H   0  0  0  0  0  0
  -20.5684  -26.2313   23.3613 H   0  0  0  0  0  0
  -21.6633  -26.7445   22.1183 H   0  0  0  0  0  0
  -19.6902  -25.6292   21.1258 H   0  0  0  0  0  0
  -19.6665  -27.3196   20.6742 H   0  0  0  0  0  0
  -17.4186  -26.6674   21.4060 H   0  0  0  0  0  0
  -18.0343  -26.0077   22.9047 H   0  0  0  0  0  0
  -19.7945  -30.7274   24.2267 H   0  0  0  0  0  0
  -17.5021  -31.6277   24.5171 H   0  0  0  0  0  0
  -15.5358  -30.2995   23.7655 H   0  0  0  0  0  0
  -15.8678  -28.0830   22.7067 H   0  0  0  0  0  0
  -24.5893  -30.7084   25.7749 H   0  0  0  0  0  0
  -24.8904  -32.2912   26.4817 H   0  0  0  0  0  0
  -25.8021  -30.8931   27.0215 H   0  0  0  0  0  0
  -26.2946  -29.6724   24.1219 H   0  0  0  0  0  0
  -27.4028  -29.7263   25.4729 H   0  0  0  0  0  0
  -27.8823  -30.4260   23.9454 H   0  0  0  0  0  0
  -27.2649  -33.3629   26.2042 H   0  0  0  0  0  0
  -28.3868  -32.6877   25.0319 H   0  0  0  0  0  0
  -28.0708  -31.8461   26.5414 H   0  0  0  0  0  0
  -28.2592  -38.0092   24.7503 H   0  0  0  0  0  0
  -28.1075  -36.2620   24.6300 H   0  0  0  0  0  0
  -27.2293  -37.1456   25.8867 H   0  0  0  0  0  0
  -20.9395  -29.8736   21.6840 H   0  0  0  0  0  0
  -26.0165  -38.2836   24.1398 H   0  0  0  0  0  0
  -26.7886  -21.5840   21.4226 H   0  0  0  0  0  0
  -26.2436  -19.3048   22.0805 H   0  0  0  0  0  0
  -30.4596  -20.1272   19.6608 H   0  0  0  0  0  0
  -30.5163  -17.3867   19.2891 H   0  0  0  0  0  0
  -31.1261  -17.5381   20.9028 H   0  0  0  0  0  0
  -27.8978  -24.9854   18.6748 H   0  0  0  0  0  0
  -29.4856  -24.9939   19.2927 H   0  0  0  0  0  0
  -27.1565  -23.4483   20.4225 H   0  0  0  0  0  0
  -28.4825  -23.8346   21.4807 H   0  0  0  0  0  0
  -28.8703  -15.7325   20.8840 H   0  0  0  0  0  0
  1 25  1  0  0  0
  1 30  2  0  0  0
  1 80  1  0  0  0
  2  3  1  0  0  0
  2 25  1  0  0  0
  2 83  1  0  0  0
  2 84  1  0  0  0
  3  4  1  0  0  0
  3 85  1  0  0  0
  3 86  1  0  0  0
  4  5  1  0  0  0
  4 87  1  0  0  0
  4 88  1  0  0  0
  5  6  1  0  0  0
  5 26  1  0  0  0
  5 89  1  0  0  0
  6 25  1  0  0  0
  6 90  1  0  0  0
  6 91  1  0  0  0
  7  8  2  0  0  0
  7 26  1  0  0  0
  7 29  1  0  0  0
  8  9  1  0  0  0
  8 22  1  0  0  0
  9 10  1  0  0  0
  9 27  2  0  0  0
 10 11  2  0  0  0
 10 15  1  0  0  0
 11 12  1  0  0  0
 11 92  1  0  0  0
 12 13  2  0  0  0
 12 93  1  0  0  0
 13 14  1  0  0  0
 13 31  1  0  0  0
 14 15  2  0  0  0
 14 94  1  0  0  0
 15 95  1  0  0  0
 16 17  2  0  0  0
 16 21  1  0  0  0
 16 31  1  0  0  0
 17 18  1  0  0  0
 17 96  1  0  0  0
 18 19  2  0  0  0
 18 97  1  0  0  0
 19 20  1  0  0  0
 19 24  1  0  0  0
 20 21  2  0  0  0
 20 98  1  0  0  0
 21 23  1  0  0  0
 22 28  1  0  0  0
 22 32  2  0  0  0
 26 27  1  0  0  0
 28 99  1  0  0  0
 28100  1  0  0  0
 29101  1  0  0  0
 29102  1  0  0  0
 33 34  1  0  0  0
 33 66  1  0  0  0
 33 70  2  0  0  0
 34 36  1  0  0  0
 34 59  1  0  0  0
 34103  1  0  0  0
 35 44  2  0  0  0
 35 45  1  0  0  0
 35 68  1  0  0  0
 36 56  1  0  0  0
 36104  1  0  0  0
 37 39  1  0  0  0
 37 47  1  0  0  0
 37 66  1  0  0  0
 37105  1  0  0  0
 38 43  2  0  0  0
 38 46  1  0  0  0
 38 47  1  0  0  0
 39 64  1  0  0  0
 39 67  2  0  0  0
 40 52  1  0  0  0
 40 53  2  0  0  0
 40 58  1  0  0  0
 41106  1  0  0  0
 41107  1  0  0  0
 41108  1  0  0  0
 41 48  1  0  0  0
 42 43  1  0  0  0
 42 66  1  0  0  0
 42109  1  0  0  0
 42110  1  0  0  0
 43 44  1  0  0  0
 44111  1  0  0  0
 45 46  2  0  0  0
 45112  1  0  0  0
 46113  1  0  0  0
 47114  1  0  0  0
 47115  1  0  0  0
 48 56  1  0  0  0
 48 65  1  0  0  0
 48116  1  0  0  0
 49 50  1  0  0  0
 49 53  1  0  0  0
 49 64  1  0  0  0
 49117  1  0  0  0
 50 51  1  0  0  0
 50118  1  0  0  0
 50119  1  0  0  0
 51 52  1  0  0  0
 51120  1  0  0  0
 51121  1  0  0  0
 52122  1  0  0  0
 52123  1  0  0  0
 53 54  1  0  0  0
 54 55  2  0  0  0
 54124  1  0  0  0
 55 57  1  0  0  0
 55125  1  0  0  0
 56 69  2  0  0  0
 57 58  2  0  0  0
 57126  1  0  0  0
 58127  1  0  0  0
 59 60  1  0  0  0
 59 61  1  0  0  0
 59 62  1  0  0  0
 60128  1  0  0  0
 60129  1  0  0  0
 60130  1  0  0  0
 61131  1  0  0  0
 61132  1  0  0  0
 61133  1  0  0  0
 62134  1  0  0  0
 62135  1  0  0  0
 62136  1  0  0  0
 63 65  1  0  0  0
 63137  1  0  0  0
 63138  1  0  0  0
 63139  1  0  0  0
 64140  1  0  0  0
 65141  1  0  0  0
 68 78  1  0  0  0
 71 72  2  0  0  0
 71 75  1  0  0  0
 71142  1  0  0  0
 72 76  1  0  0  0
 72143  1  0  0  0
 73 74  1  0  0  0
 73 75  2  0  0  0
 73144  1  0  0  0
 74 76  2  0  0  0
 74 77  1  0  0  0
 75 81  1  0  0  0
 76 82  1  0  0  0
 77 80  1  0  0  0
 77145  1  0  0  0
 77146  1  0  0  0
 78 79  1  0  0  0
 78147  1  0  0  0
 78148  1  0  0  0
 79 81  1  0  0  0
 79149  1  0  0  0
 79150  1  0  0  0
 80151  1  0  0  0
M  ISO  4   1 100  68 101  78 101  80 100
M  END
> <chiral flag>
0

> <version>
0

> <s_m_source_file>
/data/baiqing/PycharmProjects/Reinvent-master-3.2/result/LINK_invent/BTK/process_docking_weight1_custom_sum_contain_oxygen_bond_distance_aromatic_linkinvent_7_9_3/rearranged_h_0128.sdf

> <i_m_source_file_index>
89

> <r_mmod_Potential_Energy-OPLS-2005>
112.679557800293

> <r_mmod_Stretch_Energy-OPLS-2005>
123.420852661133

> <r_mmod_Bend_Energy-OPLS-2005>
180.879989624023

> <r_mmod_Torsional_Energy-OPLS-2005>
193.178314208984

> <r_mmod_Improper_Torsional_Energy-OPLS-2005>
5.20212078094482

> <r_mmod_Van_der_Waal_Energy-OPLS-2005>
137.067092895508

> <r_mmod_Electrostatic_Energy-OPLS-2005>
-405.091644287109

> <r_mmod_Solvation_Energy-OPLS-2005>
-204.485870361328

> <b_mmod_Minimization_Converged-OPLS-2005>
0

> <r_mmod_RMS_Derivative-OPLS-2005>
0.966346800327301

$$$$
89
                    3D
 Structure written by MMmdl.
154162  0  0  1  0            999 V2000
  -30.4899  -15.0762   20.3631 C   0  0  0  0  0  0
  -30.4319  -12.6614   19.5167 C   0  0  0  0  0  0
  -29.5246  -12.5532   18.2673 C   0  0  0  0  0  0
  -28.0602  -12.3172   18.6787 C   0  0  0  0  0  0
  -27.6153  -13.2649   19.8213 C   0  0  2  0  0  0
  -28.6515  -13.3661   20.9574 C   0  0  0  0  0  0
  -25.2413  -13.8243   20.5744 C   0  0  0  0  0  0
  -24.1747  -13.0444   20.9231 C   0  0  0  0  0  0
  -24.6387  -11.6934   20.8746 C   0  0  0  0  0  0
  -23.9080  -10.4301   21.0408 C   0  0  0  0  0  0
  -24.3628   -9.4218   21.9194 C   0  0  0  0  0  0
  -23.6306   -8.2253   22.0765 C   0  0  0  0  0  0
  -22.4287   -8.0284   21.3551 C   0  0  0  0  0  0
  -21.9926   -9.0251   20.4641 C   0  0  0  0  0  0
  -22.7252  -10.2132   20.3054 C   0  0  0  0  0  0
  -21.6860   -6.0738   22.5284 C   0  0  0  0  0  0
  -21.4022   -6.5644   23.8215 C   0  0  0  0  0  0
  -21.3664   -5.6794   24.9180 C   0  0  0  0  0  0
  -21.6044   -4.3059   24.7226 C   0  0  0  0  0  0
  -21.8816   -3.8146   23.4347 C   0  0  0  0  0  0
  -21.9194   -4.6965   22.3402 C   0  0  0  0  0  0
  -22.7764  -13.5196   21.1888 C   0  0  0  0  0  0
  -22.1659   -4.2149   21.0981 F   0  0  0  0  0  0
  -21.5628   -3.4542   25.7738 F   0  0  0  0  0  0
  -29.9232  -13.7904   20.3603 N   0  0  0  0  0  0
  -26.2823  -12.9501   20.3186 N   0  0  0  0  0  0
  -25.9316  -11.6609   20.5688 N   0  0  0  0  0  0
  -22.0413  -12.8179   22.0429 N   0  0  0  0  0  0
  -25.4093  -15.1985   20.4241 N   0  0  0  0  0  0
  -31.7130  -15.0809   20.1729 O   0  0  0  0  0  0
  -21.6644   -6.8886   21.4247 O   0  0  0  0  0  0
  -22.3445  -14.5500   20.6733 O   0  0  0  0  0  0
  -24.6515  -31.8364   23.1810 C   0  0  0  0  0  0
  -25.9251  -32.4651   23.8233 C   0  0  1  0  0  0
  -27.2146  -27.0530   20.1786 C   0  0  0  0  0  0
  -25.5972  -33.8460   24.2151 N   0  0  0  0  0  0
  -23.4600  -30.4520   21.5270 C   0  0  2  0  0  0
  -24.9100  -28.8582   20.1170 C   0  0  0  0  0  0
  -22.7604  -29.4508   22.4818 C   0  0  0  0  0  0
  -18.0310  -28.1405   22.8473 C   0  0  0  0  0  0
  -24.1493  -36.7236   23.2644 C   0  0  0  0  0  0
  -26.0199  -30.6854   21.3897 C   0  0  0  0  0  0
  -26.0908  -29.2858   20.7382 C   0  0  0  0  0  0
  -27.2461  -28.4038   20.7417 C   0  0  0  0  0  0
  -26.0078  -26.7419   19.5183 C   0  0  0  0  0  0
  -24.8863  -27.6032   19.4882 C   0  0  0  0  0  0
  -23.6920  -29.7723   20.1507 C   0  0  0  0  0  0
  -25.4131  -36.3005   24.0305 C   0  0  1  0  0  0
  -20.5925  -28.3744   23.1207 C   0  0  2  0  0  0
  -20.6787  -26.9436   22.5396 C   0  0  0  0  0  0
  -19.5762  -26.6380   21.5207 C   0  0  0  0  0  0
  -18.1943  -26.7942   22.1618 C   0  0  0  0  0  0
  -19.1569  -28.8893   23.2828 C   0  0  0  0  0  0
  -18.9482  -30.1482   23.8859 C   0  0  0  0  0  0
  -17.6478  -30.6597   24.0554 C   0  0  0  0  0  0
  -25.9084  -34.9382   23.5040 C   0  0  0  0  0  0
  -16.5369  -29.9085   23.6341 C   0  0  0  0  0  0
  -16.7292  -28.6505   23.0362 C   0  0  0  0  0  0
  -26.4547  -31.6544   25.0705 C   0  0  0  0  0  0
  -25.3711  -31.3750   26.1382 C   0  0  0  0  0  0
  -27.0426  -30.2930   24.6343 C   0  0  0  0  0  0
  -27.6063  -32.4322   25.7507 C   0  0  0  0  0  0
  -27.5572  -37.1779   24.8464 C   0  0  0  0  0  0
  -21.4288  -29.3061   22.3574 N   0  0  0  0  0  0
  -26.4284  -37.3728   23.9400 N   0  0  0  0  0  0
  -24.7309  -31.0152   22.0873 N   0  0  0  0  0  0
  -23.4208  -28.8061   23.3001 O   0  0  0  0  0  0
  -28.2614  -26.0367   20.1831 O   0  0  0  0  0  0
  -26.5675  -34.8895   22.4621 O   0  0  0  0  0  0
  -23.5612  -32.1272   23.6977 O   0  0  0  0  0  0
  -30.2579  -17.7674   19.3196 C   0  0  0  0  0  0
  -29.3449  -17.5110   21.5344 C   0  0  0  0  0  0
  -30.2361  -19.3792   19.7015 C   0  0  0  0  0  0
  -28.5099  -18.9216   21.3385 C   0  0  0  0  0  0
  -29.6821  -16.5873   20.2777 C   0  0  2  0  0  0
  -28.9104  -20.0742   20.2683 C   0  0  1  0  0  0
  -28.6699  -23.0106   19.9427 C   0  0  0  0  0  0
  -28.0657  -24.5050   20.5935 C   0  0  0  0  0  0
  -28.8471  -21.6242   20.7666 N   0  3  0  0  0  0
  -31.4662  -12.8172   19.2070 H   0  0  0  0  0  0
  -30.4246  -11.7269   20.0796 H   0  0  0  0  0  0
  -29.8614  -11.7492   17.6118 H   0  0  0  0  0  0
  -29.5952  -13.4747   17.6875 H   0  0  0  0  0  0
  -27.9706  -11.2799   19.0019 H   0  0  0  0  0  0
  -27.4014  -12.4256   17.8161 H   0  0  0  0  0  0
  -27.5520  -14.2502   19.3601 H   0  0  0  0  0  0
  -28.7558  -12.4179   21.4860 H   0  0  0  0  0  0
  -28.3306  -14.1010   21.6983 H   0  0  0  0  0  0
  -25.2770   -9.5706   22.4774 H   0  0  0  0  0  0
  -24.0007   -7.4653   22.7498 H   0  0  0  0  0  0
  -21.0858   -8.8765   19.8945 H   0  0  0  0  0  0
  -22.3707  -10.9672   19.6159 H   0  0  0  0  0  0
  -21.2021   -7.6153   23.9723 H   0  0  0  0  0  0
  -21.1492   -6.0528   25.9084 H   0  0  0  0  0  0
  -22.0592   -2.7609   23.2848 H   0  0  0  0  0  0
  -22.4022  -11.9830   22.4810 H   0  0  0  0  0  0
  -21.1039  -13.1220   22.2632 H   0  0  0  0  0  0
  -24.6470  -15.8552   20.5549 H   0  0  0  0  0  0
  -26.2677  -15.6451   20.1291 H   0  0  0  0  0  0
  -26.7324  -32.5235   23.0961 H   0  0  0  0  0  0
  -25.0103  -33.9566   25.0290 H   0  0  0  0  0  0
  -22.7672  -31.2798   21.3628 H   0  0  0  0  0  0
  -23.3763  -35.9558   23.3283 H   0  0  0  0  0  0
  -24.3574  -36.8906   22.2064 H   0  0  0  0  0  0
  -23.7243  -37.6418   23.6711 H   0  0  0  0  0  0
  -26.1819  -31.4316   20.6110 H   0  0  0  0  0  0
  -26.8882  -30.7428   22.0344 H   0  0  0  0  0  0
  -28.1501  -28.7326   21.2345 H   0  0  0  0  0  0
  -25.9146  -25.7829   19.0286 H   0  0  0  0  0  0
  -23.9876  -27.2739   18.9848 H   0  0  0  0  0  0
  -23.8386  -30.5414   19.3911 H   0  0  0  0  0  0
  -22.8051  -29.2184   19.8373 H   0  0  0  0  0  0
  -25.1322  -36.1823   25.0797 H   0  0  0  0  0  0
  -21.0016  -28.3341   24.1330 H   0  0  0  0  0  0
  -20.5678  -26.2358   23.3625 H   0  0  0  0  0  0
  -21.6651  -26.7427   22.1197 H   0  0  0  0  0  0
  -19.6920  -25.6282   21.1264 H   0  0  0  0  0  0
  -19.6696  -27.3167   20.6716 H   0  0  0  0  0  0
  -17.4211  -26.6692   21.4018 H   0  0  0  0  0  0
  -18.0333  -26.0085   22.9016 H   0  0  0  0  0  0
  -19.7954  -30.7310   24.2211 H   0  0  0  0  0  0
  -17.5028  -31.6275   24.5162 H   0  0  0  0  0  0
  -15.5367  -30.2977   23.7681 H   0  0  0  0  0  0
  -15.8690  -28.0807   22.7102 H   0  0  0  0  0  0
  -24.5897  -30.7100   25.7688 H   0  0  0  0  0  0
  -24.8896  -32.2937   26.4740 H   0  0  0  0  0  0
  -25.7974  -30.8957   27.0204 H   0  0  0  0  0  0
  -26.3061  -29.6627   24.1348 H   0  0  0  0  0  0
  -27.4006  -29.7263   25.4949 H   0  0  0  0  0  0
  -27.8983  -30.4141   23.9698 H   0  0  0  0  0  0
  -27.2654  -33.3659   26.1991 H   0  0  0  0  0  0
  -28.3932  -32.6820   25.0378 H   0  0  0  0  0  0
  -28.0664  -31.8504   26.5503 H   0  0  0  0  0  0
  -28.2569  -38.0093   24.7513 H   0  0  0  0  0  0
  -28.1089  -36.2618   24.6293 H   0  0  0  0  0  0
  -27.2281  -37.1425   25.8864 H   0  0  0  0  0  0
  -20.9512  -29.8781   21.6746 H   0  0  0  0  0  0
  -26.0141  -38.2791   24.1403 H   0  0  0  0  0  0
  -31.2959  -17.5201   19.0930 H   0  0  0  0  0  0
  -29.7490  -17.6647   18.3605 H   0  0  0  0  0  0
  -28.8131  -16.9015   22.2658 H   0  0  0  0  0  0
  -30.2913  -17.7510   22.0214 H   0  0  0  0  0  0
  -30.5500  -19.9365   18.8178 H   0  0  0  0  0  0
  -31.0273  -19.5510   20.4316 H   0  0  0  0  0  0
  -28.4614  -19.3900   22.3218 H   0  0  0  0  0  0
  -27.4754  -18.6451   21.1289 H   0  0  0  0  0  0
  -28.7113  -16.3154   19.8627 H   0  0  0  0  0  0
  -28.1706  -20.0231   19.4679 H   0  0  0  0  0  0
  -29.6542  -23.2224   19.5257 H   0  0  0  0  0  0
  -28.0455  -22.7788   19.0803 H   0  0  0  0  0  0
  -28.4237  -24.5072   21.6228 H   0  0  0  0  0  0
  -26.9905  -24.3637   20.7075 H   0  0  0  0  0  0
  -29.6369  -21.7555   21.3796 H   0  0  0  0  0  0
  -28.0450  -21.6263   21.3779 H   0  0  0  0  0  0
  1 25  1  0  0  0
  1 30  2  0  0  0
  1 75  1  0  0  0
  2  3  1  0  0  0
  2 25  1  0  0  0
  2 80  1  0  0  0
  2 81  1  0  0  0
  3  4  1  0  0  0
  3 82  1  0  0  0
  3 83  1  0  0  0
  4  5  1  0  0  0
  4 84  1  0  0  0
  4 85  1  0  0  0
  5  6  1  0  0  0
  5 26  1  0  0  0
  5 86  1  0  0  0
  6 25  1  0  0  0
  6 87  1  0  0  0
  6 88  1  0  0  0
  7  8  2  0  0  0
  7 26  1  0  0  0
  7 29  1  0  0  0
  8  9  1  0  0  0
  8 22  1  0  0  0
  9 10  1  0  0  0
  9 27  2  0  0  0
 10 11  2  0  0  0
 10 15  1  0  0  0
 11 12  1  0  0  0
 11 89  1  0  0  0
 12 13  2  0  0  0
 12 90  1  0  0  0
 13 14  1  0  0  0
 13 31  1  0  0  0
 14 15  2  0  0  0
 14 91  1  0  0  0
 15 92  1  0  0  0
 16 17  2  0  0  0
 16 21  1  0  0  0
 16 31  1  0  0  0
 17 18  1  0  0  0
 17 93  1  0  0  0
 18 19  2  0  0  0
 18 94  1  0  0  0
 19 20  1  0  0  0
 19 24  1  0  0  0
 20 21  2  0  0  0
 20 95  1  0  0  0
 21 23  1  0  0  0
 22 28  1  0  0  0
 22 32  2  0  0  0
 26 27  1  0  0  0
 28 96  1  0  0  0
 28 97  1  0  0  0
 29 98  1  0  0  0
 29 99  1  0  0  0
 33 34  1  0  0  0
 33 66  1  0  0  0
 33 70  2  0  0  0
 34 36  1  0  0  0
 34 59  1  0  0  0
 34100  1  0  0  0
 35 44  2  0  0  0
 35 45  1  0  0  0
 35 68  1  0  0  0
 36 56  1  0  0  0
 36101  1  0  0  0
 37 39  1  0  0  0
 37 47  1  0  0  0
 37 66  1  0  0  0
 37102  1  0  0  0
 38 43  2  0  0  0
 38 46  1  0  0  0
 38 47  1  0  0  0
 39 64  1  0  0  0
 39 67  2  0  0  0
 40 52  1  0  0  0
 40 53  2  0  0  0
 40 58  1  0  0  0
 41103  1  0  0  0
 41104  1  0  0  0
 41105  1  0  0  0
 41 48  1  0  0  0
 42 43  1  0  0  0
 42 66  1  0  0  0
 42106  1  0  0  0
 42107  1  0  0  0
 43 44  1  0  0  0
 44108  1  0  0  0
 45 46  2  0  0  0
 45109  1  0  0  0
 46110  1  0  0  0
 47111  1  0  0  0
 47112  1  0  0  0
 48 56  1  0  0  0
 48 65  1  0  0  0
 48113  1  0  0  0
 49 50  1  0  0  0
 49 53  1  0  0  0
 49 64  1  0  0  0
 49114  1  0  0  0
 50 51  1  0  0  0
 50115  1  0  0  0
 50116  1  0  0  0
 51 52  1  0  0  0
 51117  1  0  0  0
 51118  1  0  0  0
 52119  1  0  0  0
 52120  1  0  0  0
 53 54  1  0  0  0
 54 55  2  0  0  0
 54121  1  0  0  0
 55 57  1  0  0  0
 55122  1  0  0  0
 56 69  2  0  0  0
 57 58  2  0  0  0
 57123  1  0  0  0
 58124  1  0  0  0
 59 60  1  0  0  0
 59 61  1  0  0  0
 59 62  1  0  0  0
 60125  1  0  0  0
 60126  1  0  0  0
 60127  1  0  0  0
 61128  1  0  0  0
 61129  1  0  0  0
 61130  1  0  0  0
 62131  1  0  0  0
 62132  1  0  0  0
 62133  1  0  0  0
 63 65  1  0  0  0
 63134  1  0  0  0
 63135  1  0  0  0
 63136  1  0  0  0
 64137  1  0  0  0
 65138  1  0  0  0
 68 78  1  0  0  0
 71 73  1  0  0  0
 71 75  1  0  0  0
 71139  1  0  0  0
 71140  1  0  0  0
 72 74  1  0  0  0
 72 75  1  0  0  0
 72141  1  0  0  0
 72142  1  0  0  0
 73 76  1  0  0  0
 73143  1  0  0  0
 73144  1  0  0  0
 74 76  1  0  0  0
 74145  1  0  0  0
 74146  1  0  0  0
 75147  1  0  0  0
 76 79  1  0  0  0
 76148  1  0  0  0
 77 78  1  0  0  0
 77 79  1  0  0  0
 77149  1  0  0  0
 77150  1  0  0  0
 78151  1  0  0  0
 78152  1  0  0  0
 79153  1  0  0  0
 79154  1  0  0  0
M  CHG  1  79   1
M  ISO  4   1 100  68 101  75 100  78 101
M  END
> <chiral flag>
0

> <version>
0

> <s_m_source_file>
/data/baiqing/PycharmProjects/Reinvent-master-3.2/result/LINK_invent/BTK/process_docking_weight1_custom_sum_contain_oxygen_bond_distance_aromatic_linkinvent_7_9_3/rearranged_h_0128.sdf

> <i_m_source_file_index>
90

> <r_mmod_Potential_Energy-OPLS-2005>
774.839599609375

> <r_mmod_Stretch_Energy-OPLS-2005>
362.120971679688

> <r_mmod_Bend_Energy-OPLS-2005>
372.31591796875

> <r_mmod_Torsional_Energy-OPLS-2005>
261.293090820312

> <r_mmod_Improper_Torsional_Energy-OPLS-2005>
6.51892709732056

> <r_mmod_Van_der_Waal_Energy-OPLS-2005>
113.233459472656

> <r_mmod_Electrostatic_Energy-OPLS-2005>
-179.576156616211

> <r_mmod_Solvation_Energy-OPLS-2005>
-441.272430419922

> <b_mmod_Minimization_Converged-OPLS-2005>
0

> <r_mmod_RMS_Derivative-OPLS-2005>
1.39266514778137

$$$$
90
                    3D
 Structure written by MMmdl.
156164  0  0  1  0            999 V2000
  -30.6926  -14.4629   20.5043 C   0  0  0  0  0  0
  -30.4177  -12.2839   19.4010 C   0  0  0  0  0  0
  -29.4877  -12.4930   18.1885 C   0  0  0  0  0  0
  -28.0080  -12.3700   18.6035 C   0  0  0  0  0  0
  -27.6613  -13.2013   19.8689 C   0  0  2  0  0  0
  -28.7128  -12.9855   20.9813 C   0  0  0  0  0  0
  -25.2626  -13.8175   20.5720 C   0  0  0  0  0  0
  -24.1861  -13.0452   20.9203 C   0  0  0  0  0  0
  -24.6388  -11.6913   20.8730 C   0  0  0  0  0  0
  -23.9031  -10.4301   21.0388 C   0  0  0  0  0  0
  -24.3594   -9.4218   21.9168 C   0  0  0  0  0  0
  -23.6282   -8.2238   22.0751 C   0  0  0  0  0  0
  -22.4258   -8.0265   21.3543 C   0  0  0  0  0  0
  -21.9875   -9.0228   20.4637 C   0  0  0  0  0  0
  -22.7200  -10.2118   20.3036 C   0  0  0  0  0  0
  -21.6860   -6.0724   22.5277 C   0  0  0  0  0  0
  -21.4031   -6.5640   23.8208 C   0  0  0  0  0  0
  -21.3661   -5.6791   24.9166 C   0  0  0  0  0  0
  -21.6030   -4.3051   24.7222 C   0  0  0  0  0  0
  -21.8813   -3.8142   23.4345 C   0  0  0  0  0  0
  -21.9201   -4.6953   22.3399 C   0  0  0  0  0  0
  -22.7881  -13.5252   21.1832 C   0  0  0  0  0  0
  -22.1671   -4.2141   21.0973 F   0  0  0  0  0  0
  -21.5597   -3.4531   25.7730 F   0  0  0  0  0  0
  -30.0348  -13.2794   20.4109 N   0  0  0  0  0  0
  -26.3043  -12.9319   20.3377 N   0  0  0  0  0  0
  -25.9318  -11.6485   20.5759 N   0  0  0  0  0  0
  -22.0507  -12.8250   22.0388 N   0  0  0  0  0  0
  -25.4387  -15.1891   20.4121 N   0  0  0  0  0  0
  -31.8627  -14.6166   20.1512 O   0  0  0  0  0  0
  -21.6640   -6.8856   21.4236 O   0  0  0  0  0  0
  -22.3564  -14.5552   20.6684 O   0  0  0  0  0  0
  -24.6131  -31.8671   23.2143 C   0  0  0  0  0  0
  -25.9031  -32.4820   23.8438 C   0  0  1  0  0  0
  -27.2397  -27.4262   20.0724 C   0  0  0  0  0  0
  -25.5899  -33.8623   24.2370 N   0  0  0  0  0  0
  -23.4008  -30.4922   21.5532 C   0  0  2  0  0  0
  -24.8476  -28.9526   20.1174 C   0  0  0  0  0  0
  -22.7397  -29.4660   22.5000 C   0  0  0  0  0  0
  -18.0265  -28.1422   22.8656 C   0  0  0  0  0  0
  -24.1477  -36.7318   23.2647 C   0  0  0  0  0  0
  -25.9308  -30.8222   21.3716 C   0  0  0  0  0  0
  -26.0073  -29.4550   20.7192 C   0  0  0  0  0  0
  -27.1996  -28.6960   20.7006 C   0  0  0  0  0  0
  -26.0590  -26.9402   19.4639 C   0  0  0  0  0  0
  -24.8694  -27.6969   19.4861 C   0  0  0  0  0  0
  -23.6140  -29.8266   20.1658 C   0  0  0  0  0  0
  -25.4101  -36.3118   24.0349 C   0  0  1  0  0  0
  -20.5872  -28.3701   23.1392 C   0  0  2  0  0  0
  -20.6664  -26.9322   22.5799 C   0  0  0  0  0  0
  -19.5739  -26.6418   21.5452 C   0  0  0  0  0  0
  -18.1938  -26.7901   22.1936 C   0  0  0  0  0  0
  -19.1531  -28.8938   23.2929 C   0  0  0  0  0  0
  -18.9480  -30.1612   23.8786 C   0  0  0  0  0  0
  -17.6493  -30.6758   24.0433 C   0  0  0  0  0  0
  -25.9031  -34.9475   23.5160 C   0  0  0  0  0  0
  -16.5375  -29.9227   23.6356 C   0  0  0  0  0  0
  -16.7271  -28.6555   23.0542 C   0  0  0  0  0  0
  -26.4460  -31.6602   25.0760 C   0  0  0  0  0  0
  -25.3735  -31.3668   26.1514 C   0  0  0  0  0  0
  -27.0278  -30.3056   24.6100 C   0  0  0  0  0  0
  -27.6062  -32.4298   25.7503 C   0  0  0  0  0  0
  -27.5575  -37.1812   24.8476 C   0  0  0  0  0  0
  -21.4156  -29.2885   22.3601 N   0  0  0  0  0  0
  -26.4289  -37.3799   23.9416 N   0  0  0  0  0  0
  -24.6664  -31.0756   22.1053 N   0  0  0  0  0  0
  -23.4118  -28.8340   23.3181 O   0  0  0  0  0  0
  -28.4355  -26.7290   20.0771 O   0  0  0  0  0  0
  -26.5578  -34.8891   22.4709 O   0  0  0  0  0  0
  -23.5328  -32.1448   23.7548 O   0  0  0  0  0  0
  -28.2376  -18.0743   20.4961 C   0  0  0  0  0  0
  -29.9818  -18.9040   21.9668 C   0  0  0  0  0  0
  -27.7941  -19.3972   20.2745 C   0  0  0  0  0  0
  -29.5367  -20.2289   21.7493 C   0  0  0  0  0  0
  -29.3140  -17.8108   21.3707 C   0  0  0  0  0  0
  -28.4189  -20.4887   20.9229 C   0  0  0  0  0  0
  -29.7075  -16.3712   21.7139 C   0  0  0  0  0  0
  -27.7950  -21.8920   20.8599 C   0  0  0  0  0  0
  -27.9656  -24.2934   20.3283 C   0  0  0  0  0  0
  -28.5601  -25.4318   19.4607 C   0  0  0  0  0  0
  -29.8938  -15.5376   20.5336 N   0  0  0  0  0  0
  -28.5209  -22.9253   20.0796 N   0  3  0  0  0  0
  -31.4634  -12.3680   19.1016 H   0  0  0  0  0  0
  -30.3038  -11.2741   19.7983 H   0  0  0  0  0  0
  -29.7133  -11.7639   17.4095 H   0  0  0  0  0  0
  -29.6643  -13.4750   17.7455 H   0  0  0  0  0  0
  -27.8021  -11.3158   18.7833 H   0  0  0  0  0  0
  -27.3608  -12.6702   17.7765 H   0  0  0  0  0  0
  -27.6972  -14.2484   19.5722 H   0  0  0  0  0  0
  -28.6876  -11.9551   21.3378 H   0  0  0  0  0  0
  -28.5078  -13.6108   21.8497 H   0  0  0  0  0  0
  -25.2738   -9.5701   22.4750 H   0  0  0  0  0  0
  -23.9992   -7.4637   22.7489 H   0  0  0  0  0  0
  -21.0799   -8.8730   19.8959 H   0  0  0  0  0  0
  -22.3644  -10.9640   19.6136 H   0  0  0  0  0  0
  -21.2046   -7.6155   23.9713 H   0  0  0  0  0  0
  -21.1497   -6.0522   25.9068 H   0  0  0  0  0  0
  -22.0605   -2.7606   23.2845 H   0  0  0  0  0  0
  -22.4125  -11.9897   22.4759 H   0  0  0  0  0  0
  -21.1116  -13.1275   22.2593 H   0  0  0  0  0  0
  -24.6852  -15.8607   20.5145 H   0  0  0  0  0  0
  -26.3036  -15.6105   20.0986 H   0  0  0  0  0  0
  -26.7071  -32.5496   23.1171 H   0  0  0  0  0  0
  -25.0069  -33.9831   25.0526 H   0  0  0  0  0  0
  -22.6885  -31.3092   21.4144 H   0  0  0  0  0  0
  -23.3732  -35.9661   23.3327 H   0  0  0  0  0  0
  -24.3582  -36.8902   22.2058 H   0  0  0  0  0  0
  -23.7199  -37.6517   23.6640 H   0  0  0  0  0  0
  -26.0450  -31.5838   20.6008 H   0  0  0  0  0  0
  -26.8214  -30.8817   21.9838 H   0  0  0  0  0  0
  -28.0950  -29.0795   21.1692 H   0  0  0  0  0  0
  -26.0339  -25.9898   18.9546 H   0  0  0  0  0  0
  -23.9806  -27.3160   19.0011 H   0  0  0  0  0  0
  -23.7435  -30.6072   19.4165 H   0  0  0  0  0  0
  -22.7341  -29.2595   19.8550 H   0  0  0  0  0  0
  -25.1261  -36.2016   25.0840 H   0  0  0  0  0  0
  -20.9970  -28.3424   24.1522 H   0  0  0  0  0  0
  -20.5138  -26.2384   23.4122 H   0  0  0  0  0  0
  -21.6607  -26.7047   22.1974 H   0  0  0  0  0  0
  -19.6658  -27.3342   20.7069 H   0  0  0  0  0  0
  -19.6936  -25.6369   21.1407 H   0  0  0  0  0  0
  -17.4109  -26.6382   21.4516 H   0  0  0  0  0  0
  -18.0536  -26.0214   22.9562 H   0  0  0  0  0  0
  -19.7943  -30.7501   24.2037 H   0  0  0  0  0  0
  -17.5069  -31.6547   24.4856 H   0  0  0  0  0  0
  -15.5386  -30.3194   23.7680 H   0  0  0  0  0  0
  -15.8638  -28.0845   22.7420 H   0  0  0  0  0  0
  -24.5962  -30.6956   25.7837 H   0  0  0  0  0  0
  -24.8872  -32.2791   26.4979 H   0  0  0  0  0  0
  -25.8132  -30.8839   27.0256 H   0  0  0  0  0  0
  -26.2822  -29.6836   24.1128 H   0  0  0  0  0  0
  -27.4022  -29.7274   25.4554 H   0  0  0  0  0  0
  -27.8670  -30.4385   23.9272 H   0  0  0  0  0  0
  -27.2747  -33.3620   26.2090 H   0  0  0  0  0  0
  -28.3870  -32.6805   25.0316 H   0  0  0  0  0  0
  -28.0712  -31.8385   26.5394 H   0  0  0  0  0  0
  -28.2605  -38.0097   24.7512 H   0  0  0  0  0  0
  -28.1056  -36.2628   24.6326 H   0  0  0  0  0  0
  -27.2309  -37.1483   25.8883 H   0  0  0  0  0  0
  -20.9377  -29.8223   21.6465 H   0  0  0  0  0  0
  -26.0193  -38.2889   24.1387 H   0  0  0  0  0  0
  -27.7141  -17.2552   20.0219 H   0  0  0  0  0  0
  -30.8175  -18.7240   22.6292 H   0  0  0  0  0  0
  -26.9278  -19.5549   19.6447 H   0  0  0  0  0  0
  -30.0243  -21.0445   22.2660 H   0  0  0  0  0  0
  -28.9120  -15.9365   22.3233 H   0  0  0  0  0  0
  -30.6083  -16.3616   22.3307 H   0  0  0  0  0  0
  -27.6751  -22.2421   21.8866 H   0  0  0  0  0  0
  -26.7843  -21.8109   20.4537 H   0  0  0  0  0  0
  -26.8855  -24.2670   20.1855 H   0  0  0  0  0  0
  -28.1298  -24.5288   21.3800 H   0  0  0  0  0  0
  -28.1575  -25.4245   18.4466 H   0  0  0  0  0  0
  -29.6303  -25.2652   19.3423 H   0  0  0  0  0  0
  -30.1053  -16.1375   19.7523 H   0  0  0  0  0  0
  -28.4565  -22.6861   19.1020 H   0  0  0  0  0  0
  -29.4989  -22.8958   20.3281 H   0  0  0  0  0  0
  1 25  1  0  0  0
  1 30  2  0  0  0
  1 81  1  0  0  0
  2  3  1  0  0  0
  2 25  1  0  0  0
  2 83  1  0  0  0
  2 84  1  0  0  0
  3  4  1  0  0  0
  3 85  1  0  0  0
  3 86  1  0  0  0
  4  5  1  0  0  0
  4 87  1  0  0  0
  4 88  1  0  0  0
  5  6  1  0  0  0
  5 26  1  0  0  0
  5 89  1  0  0  0
  6 25  1  0  0  0
  6 90  1  0  0  0
  6 91  1  0  0  0
  7  8  2  0  0  0
  7 26  1  0  0  0
  7 29  1  0  0  0
  8  9  1  0  0  0
  8 22  1  0  0  0
  9 10  1  0  0  0
  9 27  2  0  0  0
 10 11  2  0  0  0
 10 15  1  0  0  0
 11 12  1  0  0  0
 11 92  1  0  0  0
 12 13  2  0  0  0
 12 93  1  0  0  0
 13 14  1  0  0  0
 13 31  1  0  0  0
 14 15  2  0  0  0
 14 94  1  0  0  0
 15 95  1  0  0  0
 16 17  2  0  0  0
 16 21  1  0  0  0
 16 31  1  0  0  0
 17 18  1  0  0  0
 17 96  1  0  0  0
 18 19  2  0  0  0
 18 97  1  0  0  0
 19 20  1  0  0  0
 19 24  1  0  0  0
 20 21  2  0  0  0
 20 98  1  0  0  0
 21 23  1  0  0  0
 22 28  1  0  0  0
 22 32  2  0  0  0
 26 27  1  0  0  0
 28 99  1  0  0  0
 28100  1  0  0  0
 29101  1  0  0  0
 29102  1  0  0  0
 33 34  1  0  0  0
 33 66  1  0  0  0
 33 70  2  0  0  0
 34 36  1  0  0  0
 34 59  1  0  0  0
 34103  1  0  0  0
 35 44  2  0  0  0
 35 45  1  0  0  0
 35 68  1  0  0  0
 36 56  1  0  0  0
 36104  1  0  0  0
 37 39  1  0  0  0
 37 47  1  0  0  0
 37 66  1  0  0  0
 37105  1  0  0  0
 38 43  2  0  0  0
 38 46  1  0  0  0
 38 47  1  0  0  0
 39 64  1  0  0  0
 39 67  2  0  0  0
 40 52  1  0  0  0
 40 53  2  0  0  0
 40 58  1  0  0  0
 41106  1  0  0  0
 41107  1  0  0  0
 41108  1  0  0  0
 41 48  1  0  0  0
 42 43  1  0  0  0
 42 66  1  0  0  0
 42109  1  0  0  0
 42110  1  0  0  0
 43 44  1  0  0  0
 44111  1  0  0  0
 45 46  2  0  0  0
 45112  1  0  0  0
 46113  1  0  0  0
 47114  1  0  0  0
 47115  1  0  0  0
 48 56  1  0  0  0
 48 65  1  0  0  0
 48116  1  0  0  0
 49 50  1  0  0  0
 49 53  1  0  0  0
 49 64  1  0  0  0
 49117  1  0  0  0
 50 51  1  0  0  0
 50118  1  0  0  0
 50119  1  0  0  0
 51 52  1  0  0  0
 51120  1  0  0  0
 51121  1  0  0  0
 52122  1  0  0  0
 52123  1  0  0  0
 53 54  1  0  0  0
 54 55  2  0  0  0
 54124  1  0  0  0
 55 57  1  0  0  0
 55125  1  0  0  0
 56 69  2  0  0  0
 57 58  2  0  0  0
 57126  1  0  0  0
 58127  1  0  0  0
 59 60  1  0  0  0
 59 61  1  0  0  0
 59 62  1  0  0  0
 60128  1  0  0  0
 60129  1  0  0  0
 60130  1  0  0  0
 61131  1  0  0  0
 61132  1  0  0  0
 61133  1  0  0  0
 62134  1  0  0  0
 62135  1  0  0  0
 62136  1  0  0  0
 63 65  1  0  0  0
 63137  1  0  0  0
 63138  1  0  0  0
 63139  1  0  0  0
 64140  1  0  0  0
 65141  1  0  0  0
 68 80  1  0  0  0
 71 73  2  0  0  0
 71 75  1  0  0  0
 71142  1  0  0  0
 72 74  1  0  0  0
 72 75  2  0  0  0
 72143  1  0  0  0
 73 76  1  0  0  0
 73144  1  0  0  0
 74 76  2  0  0  0
 74145  1  0  0  0
 75 77  1  0  0  0
 76 78  1  0  0  0
 77 81  1  0  0  0
 77146  1  0  0  0
 77147  1  0  0  0
 78 82  1  0  0  0
 78148  1  0  0  0
 78149  1  0  0  0
 79 80  1  0  0  0
 79 82  1  0  0  0
 79150  1  0  0  0
 79151  1  0  0  0
 80152  1  0  0  0
 80153  1  0  0  0
 81154  1  0  0  0
 82155  1  0  0  0
 82156  1  0  0  0
M  CHG  1  82   1
M  ISO  4   1 100  68 101  80 101  81 100
M  END
> <chiral flag>
0

> <version>
0

> <s_m_source_file>
/data/baiqing/PycharmProjects/Reinvent-master-3.2/result/LINK_invent/BTK/process_docking_weight1_custom_sum_contain_oxygen_bond_distance_aromatic_linkinvent_7_9_3/rearranged_h_0128.sdf

> <i_m_source_file_index>
91

> <r_mmod_Potential_Energy-OPLS-2005>
-202.220474243164

> <r_mmod_Stretch_Energy-OPLS-2005>
37.0215187072754

> <r_mmod_Bend_Energy-OPLS-2005>
111.59415435791

> <r_mmod_Torsional_Energy-OPLS-2005>
255.336517333984

> <r_mmod_Improper_Torsional_Energy-OPLS-2005>
20.0457649230957

> <r_mmod_Van_der_Waal_Energy-OPLS-2005>
143.251159667969

> <r_mmod_Electrostatic_Energy-OPLS-2005>
-327.447845458984

> <r_mmod_Solvation_Energy-OPLS-2005>
-458.637969970703

> <b_mmod_Minimization_Converged-OPLS-2005>
0

> <r_mmod_RMS_Derivative-OPLS-2005>
4.54406356811523

$$$$
91
                    3D
 Structure written by MMmdl.
165174  0  0  1  0            999 V2000
  -30.6608  -14.7260   20.4066 C   0  0  0  0  0  0
  -30.4316  -12.4337   19.4676 C   0  0  0  0  0  0
  -29.5091  -12.4731   18.2314 C   0  0  0  0  0  0
  -28.0354  -12.3128   18.6490 C   0  0  0  0  0  0
  -27.6400  -13.2347   19.8340 C   0  0  2  0  0  0
  -28.6915  -13.1987   20.9670 C   0  0  0  0  0  0
  -25.2503  -13.8218   20.5682 C   0  0  0  0  0  0
  -24.1804  -13.0457   20.9207 C   0  0  0  0  0  0
  -24.6412  -11.6940   20.8738 C   0  0  0  0  0  0
  -23.9097  -10.4304   21.0405 C   0  0  0  0  0  0
  -24.3635   -9.4223   21.9188 C   0  0  0  0  0  0
  -23.6292   -8.2265   22.0760 C   0  0  0  0  0  0
  -22.4280   -8.0290   21.3543 C   0  0  0  0  0  0
  -21.9917   -9.0279   20.4659 C   0  0  0  0  0  0
  -22.7261  -10.2154   20.3061 C   0  0  0  0  0  0
  -21.6865   -6.0743   22.5279 C   0  0  0  0  0  0
  -21.4030   -6.5642   23.8211 C   0  0  0  0  0  0
  -21.3654   -5.6783   24.9167 C   0  0  0  0  0  0
  -21.6045   -4.3047   24.7217 C   0  0  0  0  0  0
  -21.8816   -3.8149   23.4335 C   0  0  0  0  0  0
  -21.9194   -4.6970   22.3398 C   0  0  0  0  0  0
  -22.7816  -13.5231   21.1840 C   0  0  0  0  0  0
  -22.1658   -4.2163   21.0971 F   0  0  0  0  0  0
  -21.5616   -3.4532   25.7724 F   0  0  0  0  0  0
  -29.9942  -13.5232   20.3685 N   0  0  0  0  0  0
  -26.2938  -12.9449   20.3219 N   0  0  0  0  0  0
  -25.9338  -11.6593   20.5732 N   0  0  0  0  0  0
  -22.0446  -12.8238   22.0402 N   0  0  0  0  0  0
  -25.4128  -15.1948   20.4114 N   0  0  0  0  0  0
  -31.8631  -14.7714   20.1457 O   0  0  0  0  0  0
  -21.6646   -6.8888   21.4242 O   0  0  0  0  0  0
  -22.3515  -14.5527   20.6656 O   0  0  0  0  0  0
  -24.6288  -31.8576   23.1954 C   0  0  0  0  0  0
  -25.9111  -32.4769   23.8318 C   0  0  1  0  0  0
  -27.2303  -27.2868   20.1050 C   0  0  0  0  0  0
  -25.5905  -33.8568   24.2253 N   0  0  0  0  0  0
  -23.4248  -30.4756   21.5415 C   0  0  2  0  0  0
  -24.8708  -28.9245   20.1086 C   0  0  0  0  0  0
  -22.7510  -29.4587   22.4922 C   0  0  0  0  0  0
  -18.0291  -28.1409   22.8497 C   0  0  0  0  0  0
  -24.1491  -36.7298   23.2636 C   0  0  0  0  0  0
  -25.9664  -30.7771   21.3681 C   0  0  0  0  0  0
  -26.0383  -29.3983   20.7155 C   0  0  0  0  0  0
  -27.2174  -28.5895   20.7063 C   0  0  0  0  0  0
  -26.0307  -26.8626   19.4922 C   0  0  0  0  0  0
  -24.8693  -27.6626   19.4899 C   0  0  0  0  0  0
  -23.6402  -29.8068   20.1575 C   0  0  0  0  0  0
  -25.4113  -36.3059   24.0319 C   0  0  1  0  0  0
  -20.5888  -28.3686   23.1310 C   0  0  2  0  0  0
  -20.6781  -26.9410   22.5433 C   0  0  0  0  0  0
  -19.5740  -26.6395   21.5244 C   0  0  0  0  0  0
  -18.1930  -26.7949   22.1654 C   0  0  0  0  0  0
  -19.1548  -28.8868   23.2898 C   0  0  0  0  0  0
  -18.9466  -30.1473   23.8901 C   0  0  0  0  0  0
  -17.6464  -30.6592   24.0577 C   0  0  0  0  0  0
  -25.9051  -34.9439   23.5090 C   0  0  0  0  0  0
  -16.5352  -29.9098   23.6328 C   0  0  0  0  0  0
  -16.7285  -28.6533   23.0327 C   0  0  0  0  0  0
  -26.4469  -31.6557   25.0691 C   0  0  0  0  0  0
  -25.3662  -31.3717   26.1386 C   0  0  0  0  0  0
  -27.0300  -30.2970   24.6121 C   0  0  0  0  0  0
  -27.6029  -32.4270   25.7492 C   0  0  0  0  0  0
  -27.5570  -37.1786   24.8449 C   0  0  0  0  0  0
  -21.4220  -29.3031   22.3704 N   0  0  0  0  0  0
  -26.4291  -37.3748   23.9387 N   0  0  0  0  0  0
  -24.6928  -31.0550   22.0922 N   0  0  0  0  0  0
  -23.4227  -28.8139   23.3013 O   0  0  0  0  0  0
  -28.3737  -26.4633   20.1634 O   0  0  0  0  0  0
  -26.5657  -34.8912   22.4679 O   0  0  0  0  0  0
  -23.5442  -32.1405   23.7247 O   0  0  0  0  0  0
  -31.7477  -21.8671   19.1874 C   0  0  0  0  0  0
  -30.8256  -22.8755   19.4663 C   0  0  0  0  0  0
  -31.4512  -20.4969   19.3981 C   0  0  0  0  0  0
  -29.5625  -22.5516   19.9640 C   0  0  0  0  0  0
  -30.1464  -20.1599   19.9066 C   0  0  0  0  0  0
  -34.0070  -20.0136   19.0336 C   0  0  0  0  0  0
  -34.2805  -20.3371   17.5596 C   0  0  0  0  0  0
  -32.4212  -18.8167   17.6917 C   0  0  0  0  0  0
  -32.5620  -19.4720   19.0831 C   0  0  2  0  0  0
  -28.6320  -23.7587   20.4309 C   0  0  0  0  0  0
  -29.6024  -18.6562   20.1588 C   0  0  0  0  0  0
  -30.5203  -17.3122   20.2389 C   0  0  0  0  0  0
  -28.4968  -25.1062   19.5426 C   0  0  0  0  0  0
  -29.2515  -21.2062   20.1686 N   0  0  0  0  0  0
  -29.9468  -15.9108   20.4759 N   0  0  0  0  0  0
  -33.4044  -19.4433   16.7852 N   0  3  0  0  0  0
  -31.4721  -12.5375   19.1579 H   0  0  0  0  0  0
  -30.3702  -11.4706   19.9758 H   0  0  0  0  0  0
  -29.7852  -11.6788   17.5341 H   0  0  0  0  0  0
  -29.6423  -13.4137   17.6954 H   0  0  0  0  0  0
  -27.8914  -11.2689   18.9297 H   0  0  0  0  0  0
  -27.3824  -12.4879   17.7943 H   0  0  0  0  0  0
  -27.6273  -14.2482   19.4316 H   0  0  0  0  0  0
  -28.7241  -12.2166   21.4417 H   0  0  0  0  0  0
  -28.4383  -13.9151   21.7476 H   0  0  0  0  0  0
  -25.2795   -9.5692   22.4741 H   0  0  0  0  0  0
  -24.0006   -7.4665   22.7483 H   0  0  0  0  0  0
  -21.0839   -8.8802   19.8974 H   0  0  0  0  0  0
  -22.3728  -10.9676   19.6143 H   0  0  0  0  0  0
  -21.2043   -7.6152   23.9730 H   0  0  0  0  0  0
  -21.1461   -6.0508   25.9072 H   0  0  0  0  0  0
  -22.0602   -2.7617   23.2826 H   0  0  0  0  0  0
  -22.4056  -11.9926   22.4855 H   0  0  0  0  0  0
  -21.1057  -13.1265   22.2571 H   0  0  0  0  0  0
  -24.6407  -15.8380   20.5443 H   0  0  0  0  0  0
  -26.2455  -15.6469   20.0585 H   0  0  0  0  0  0
  -26.7199  -32.5431   23.1089 H   0  0  0  0  0  0
  -24.9941  -33.9719   25.0313 H   0  0  0  0  0  0
  -22.7179  -31.2953   21.3952 H   0  0  0  0  0  0
  -23.3733  -35.9642   23.3288 H   0  0  0  0  0  0
  -24.3580  -36.8943   22.2048 H   0  0  0  0  0  0
  -23.7293  -37.6512   23.6687 H   0  0  0  0  0  0
  -26.0886  -31.5338   20.5910 H   0  0  0  0  0  0
  -26.8548  -30.8383   21.9860 H   0  0  0  0  0  0
  -28.1151  -28.9482   21.1882 H   0  0  0  0  0  0
  -25.9474  -25.8921   19.0297 H   0  0  0  0  0  0
  -23.9706  -27.2926   19.0161 H   0  0  0  0  0  0
  -23.7562  -30.5821   19.3986 H   0  0  0  0  0  0
  -22.7613  -29.2351   19.8579 H   0  0  0  0  0  0
  -25.1302  -36.1894   25.0817 H   0  0  0  0  0  0
  -20.9985  -28.3270   24.1424 H   0  0  0  0  0  0
  -20.5705  -26.2299   23.3634 H   0  0  0  0  0  0
  -21.6650  -26.7454   22.1209 H   0  0  0  0  0  0
  -19.6889  -25.6311   21.1263 H   0  0  0  0  0  0
  -19.6677  -27.3228   20.6791 H   0  0  0  0  0  0
  -17.4208  -26.6716   21.4051 H   0  0  0  0  0  0
  -18.0300  -26.0109   22.9056 H   0  0  0  0  0  0
  -19.7930  -30.7301   24.2270 H   0  0  0  0  0  0
  -17.5002  -31.6258   24.5193 H   0  0  0  0  0  0
  -15.5352  -30.2995   23.7621 H   0  0  0  0  0  0
  -15.8702  -28.0858   22.6990 H   0  0  0  0  0  0
  -24.5871  -30.7042   25.7695 H   0  0  0  0  0  0
  -24.8797  -32.2881   26.4732 H   0  0  0  0  0  0
  -25.7934  -30.8939   27.0215 H   0  0  0  0  0  0
  -26.2857  -29.6726   24.1151 H   0  0  0  0  0  0
  -27.4032  -29.7220   25.4608 H   0  0  0  0  0  0
  -27.8708  -30.4283   23.9306 H   0  0  0  0  0  0
  -27.2630  -33.3557   26.2092 H   0  0  0  0  0  0
  -28.3832  -32.6859   25.0326 H   0  0  0  0  0  0
  -28.0697  -31.8353   26.5379 H   0  0  0  0  0  0
  -28.2583  -38.0088   24.7472 H   0  0  0  0  0  0
  -28.1077  -36.2614   24.6295 H   0  0  0  0  0  0
  -27.2286  -37.1451   25.8857 H   0  0  0  0  0  0
  -20.9415  -29.8755   21.6910 H   0  0  0  0  0  0
  -26.0157  -38.2807   24.1409 H   0  0  0  0  0  0
  -32.7098  -22.2010   18.8343 H   0  0  0  0  0  0
  -31.1345  -23.9040   19.3356 H   0  0  0  0  0  0
  -34.2276  -20.8293   19.7218 H   0  0  0  0  0  0
  -34.6827  -19.2045   19.3136 H   0  0  0  0  0  0
  -35.3304  -20.2039   17.2913 H   0  0  0  0  0  0
  -34.0208  -21.3695   17.3212 H   0  0  0  0  0  0
  -31.4081  -18.8689   17.2909 H   0  0  0  0  0  0
  -32.6834  -17.7608   17.7645 H   0  0  0  0  0  0
  -32.5737  -18.7348   19.8776 H   0  0  0  0  0  0
  -29.0362  -24.0647   21.3946 H   0  0  0  0  0  0
  -27.6359  -23.3764   20.6504 H   0  0  0  0  0  0
  -28.8633  -18.4880   19.3752 H   0  0  0  0  0  0
  -29.0270  -18.6977   21.0833 H   0  0  0  0  0  0
  -31.2744  -17.4564   21.0125 H   0  0  0  0  0  0
  -31.0479  -17.2150   19.2946 H   0  0  0  0  0  0
  -27.7658  -24.9386   18.7547 H   0  0  0  0  0  0
  -29.4228  -25.2070   18.9811 H   0  0  0  0  0  0
  -28.9490  -15.8366   20.6111 H   0  0  0  0  0  0
  -33.9586  -18.7194   16.3552 H   0  0  0  0  0  0
  -32.9438  -19.9598   16.0546 H   0  0  0  0  0  0
  1 25  1  0  0  0
  1 30  2  0  0  0
  1 85  1  0  0  0
  2  3  1  0  0  0
  2 25  1  0  0  0
  2 87  1  0  0  0
  2 88  1  0  0  0
  3  4  1  0  0  0
  3 89  1  0  0  0
  3 90  1  0  0  0
  4  5  1  0  0  0
  4 91  1  0  0  0
  4 92  1  0  0  0
  5  6  1  0  0  0
  5 26  1  0  0  0
  5 93  1  0  0  0
  6 25  1  0  0  0
  6 94  1  0  0  0
  6 95  1  0  0  0
  7  8  2  0  0  0
  7 26  1  0  0  0
  7 29  1  0  0  0
  8  9  1  0  0  0
  8 22  1  0  0  0
  9 10  1  0  0  0
  9 27  2  0  0  0
 10 11  2  0  0  0
 10 15  1  0  0  0
 11 12  1  0  0  0
 11 96  1  0  0  0
 12 13  2  0  0  0
 12 97  1  0  0  0
 13 14  1  0  0  0
 13 31  1  0  0  0
 14 15  2  0  0  0
 14 98  1  0  0  0
 15 99  1  0  0  0
 16 17  2  0  0  0
 16 21  1  0  0  0
 16 31  1  0  0  0
 17 18  1  0  0  0
 17100  1  0  0  0
 18 19  2  0  0  0
 18101  1  0  0  0
 19 20  1  0  0  0
 19 24  1  0  0  0
 20 21  2  0  0  0
 20102  1  0  0  0
 21 23  1  0  0  0
 22 28  1  0  0  0
 22 32  2  0  0  0
 26 27  1  0  0  0
 28103  1  0  0  0
 28104  1  0  0  0
 29105  1  0  0  0
 29106  1  0  0  0
 33 34  1  0  0  0
 33 66  1  0  0  0
 33 70  2  0  0  0
 34 36  1  0  0  0
 34 59  1  0  0  0
 34107  1  0  0  0
 35 44  2  0  0  0
 35 45  1  0  0  0
 35 68  1  0  0  0
 36 56  1  0  0  0
 36108  1  0  0  0
 37 39  1  0  0  0
 37 47  1  0  0  0
 37 66  1  0  0  0
 37109  1  0  0  0
 38 43  2  0  0  0
 38 46  1  0  0  0
 38 47  1  0  0  0
 39 64  1  0  0  0
 39 67  2  0  0  0
 40 52  1  0  0  0
 40 53  2  0  0  0
 40 58  1  0  0  0
 41110  1  0  0  0
 41111  1  0  0  0
 41112  1  0  0  0
 41 48  1  0  0  0
 42 43  1  0  0  0
 42 66  1  0  0  0
 42113  1  0  0  0
 42114  1  0  0  0
 43 44  1  0  0  0
 44115  1  0  0  0
 45 46  2  0  0  0
 45116  1  0  0  0
 46117  1  0  0  0
 47118  1  0  0  0
 47119  1  0  0  0
 48 56  1  0  0  0
 48 65  1  0  0  0
 48120  1  0  0  0
 49 50  1  0  0  0
 49 53  1  0  0  0
 49 64  1  0  0  0
 49121  1  0  0  0
 50 51  1  0  0  0
 50122  1  0  0  0
 50123  1  0  0  0
 51 52  1  0  0  0
 51124  1  0  0  0
 51125  1  0  0  0
 52126  1  0  0  0
 52127  1  0  0  0
 53 54  1  0  0  0
 54 55  2  0  0  0
 54128  1  0  0  0
 55 57  1  0  0  0
 55129  1  0  0  0
 56 69  2  0  0  0
 57 58  2  0  0  0
 57130  1  0  0  0
 58131  1  0  0  0
 59 60  1  0  0  0
 59 61  1  0  0  0
 59 62  1  0  0  0
 60132  1  0  0  0
 60133  1  0  0  0
 60134  1  0  0  0
 61135  1  0  0  0
 61136  1  0  0  0
 61137  1  0  0  0
 62138  1  0  0  0
 62139  1  0  0  0
 62140  1  0  0  0
 63 65  1  0  0  0
 63141  1  0  0  0
 63142  1  0  0  0
 63143  1  0  0  0
 64144  1  0  0  0
 65145  1  0  0  0
 68 83  1  0  0  0
 71 72  2  0  0  0
 71 73  1  0  0  0
 71146  1  0  0  0
 72 74  1  0  0  0
 72147  1  0  0  0
 73 75  2  0  0  0
 73 79  1  0  0  0
 74 80  1  0  0  0
 74 84  2  0  0  0
 75 81  1  0  0  0
 75 84  1  0  0  0
 76 77  1  0  0  0
 76 79  1  0  0  0
 76148  1  0  0  0
 76149  1  0  0  0
 77 86  1  0  0  0
 77150  1  0  0  0
 77151  1  0  0  0
 78 79  1  0  0  0
 78 86  1  0  0  0
 78152  1  0  0  0
 78153  1  0  0  0
 79154  1  0  0  0
 80 83  1  0  0  0
 80155  1  0  0  0
 80156  1  0  0  0
 81 82  1  0  0  0
 81157  1  0  0  0
 81158  1  0  0  0
 82 85  1  0  0  0
 82159  1  0  0  0
 82160  1  0  0  0
 83161  1  0  0  0
 83162  1  0  0  0
 85163  1  0  0  0
 86164  1  0  0  0
 86165  1  0  0  0
M  CHG  1  86   1
M  ISO  4   1 100  68 101  83 101  85 100
M  END
> <chiral flag>
0

> <version>
0

> <s_m_source_file>
/data/baiqing/PycharmProjects/Reinvent-master-3.2/result/LINK_invent/BTK/process_docking_weight1_custom_sum_contain_oxygen_bond_distance_aromatic_linkinvent_7_9_3/rearranged_h_0128.sdf

> <i_m_source_file_index>
92

> <r_mmod_Potential_Energy-OPLS-2005>
-35.6100158691406

> <r_mmod_Stretch_Energy-OPLS-2005>
132.292724609375

> <r_mmod_Bend_Energy-OPLS-2005>
223.160873413086

> <r_mmod_Torsional_Energy-OPLS-2005>
295.894714355469

> <r_mmod_Improper_Torsional_Energy-OPLS-2005>
6.64765357971191

> <r_mmod_Van_der_Waal_Energy-OPLS-2005>
147.50390625

> <r_mmod_Electrostatic_Energy-OPLS-2005>
-425.681762695312

> <r_mmod_Solvation_Energy-OPLS-2005>
-491.377197265625

> <b_mmod_Minimization_Converged-OPLS-2005>
0

> <r_mmod_RMS_Derivative-OPLS-2005>
3.60064029693604

$$$$
92
                    3D
 Structure written by MMmdl.
156164  0  0  1  0            999 V2000
  -30.5893  -14.7898   20.4724 C   0  0  0  0  0  0
  -30.4412  -12.4894   19.4747 C   0  0  0  0  0  0
  -29.5135  -12.5056   18.2393 C   0  0  0  0  0  0
  -28.0424  -12.3172   18.6596 C   0  0  0  0  0  0
  -27.6393  -13.2304   19.8471 C   0  0  2  0  0  0
  -28.6843  -13.1834   20.9820 C   0  0  0  0  0  0
  -25.2505  -13.8190   20.5694 C   0  0  0  0  0  0
  -24.1800  -13.0439   20.9223 C   0  0  0  0  0  0
  -24.6397  -11.6919   20.8768 C   0  0  0  0  0  0
  -23.9079  -10.4294   21.0422 C   0  0  0  0  0  0
  -24.3623   -9.4204   21.9199 C   0  0  0  0  0  0
  -23.6297   -8.2239   22.0763 C   0  0  0  0  0  0
  -22.4278   -8.0282   21.3550 C   0  0  0  0  0  0
  -21.9922   -9.0258   20.4651 C   0  0  0  0  0  0
  -22.7256  -10.2134   20.3066 C   0  0  0  0  0  0
  -21.6851   -6.0737   22.5284 C   0  0  0  0  0  0
  -21.4008   -6.5641   23.8215 C   0  0  0  0  0  0
  -21.3660   -5.6794   24.9180 C   0  0  0  0  0  0
  -21.6041   -4.3057   24.7230 C   0  0  0  0  0  0
  -21.8818   -3.8149   23.4351 C   0  0  0  0  0  0
  -21.9192   -4.6965   22.3409 C   0  0  0  0  0  0
  -22.7820  -13.5221   21.1883 C   0  0  0  0  0  0
  -22.1659   -4.2152   21.0984 F   0  0  0  0  0  0
  -21.5634   -3.4541   25.7741 F   0  0  0  0  0  0
  -29.9775  -13.5555   20.3946 N   0  0  0  0  0  0
  -26.2924  -12.9393   20.3268 N   0  0  0  0  0  0
  -25.9320  -11.6542   20.5761 N   0  0  0  0  0  0
  -22.0462  -12.8201   22.0427 N   0  0  0  0  0  0
  -25.4191  -15.1911   20.4064 N   0  0  0  0  0  0
  -31.7855  -14.8940   20.1881 O   0  0  0  0  0  0
  -21.6638   -6.8879   21.4245 O   0  0  0  0  0  0
  -22.3514  -14.5539   20.6748 O   0  0  0  0  0  0
  -24.6333  -31.8525   23.1948 C   0  0  0  0  0  0
  -25.9147  -32.4742   23.8307 C   0  0  1  0  0  0
  -27.2142  -27.2170   20.1648 C   0  0  0  0  0  0
  -25.5937  -33.8542   24.2240 N   0  0  0  0  0  0
  -23.4315  -30.4708   21.5397 C   0  0  2  0  0  0
  -24.8796  -28.9021   20.1217 C   0  0  0  0  0  0
  -22.7508  -29.4582   22.4923 C   0  0  0  0  0  0
  -18.0287  -28.1394   22.8474 C   0  0  0  0  0  0
  -24.1487  -36.7273   23.2641 C   0  0  0  0  0  0
  -25.9784  -30.7505   21.3813 C   0  0  0  0  0  0
  -26.0491  -29.3626   20.7403 C   0  0  0  0  0  0
  -27.2201  -28.5327   20.7492 C   0  0  0  0  0  0
  -26.0361  -26.8458   19.4880 C   0  0  0  0  0  0
  -24.8783  -27.6506   19.4851 C   0  0  0  0  0  0
  -23.6533  -29.7958   20.1600 C   0  0  0  0  0  0
  -25.4111  -36.3059   24.0330 C   0  0  1  0  0  0
  -20.5889  -28.3697   23.1273 C   0  0  2  0  0  0
  -20.6784  -26.9415   22.5410 C   0  0  0  0  0  0
  -19.5760  -26.6382   21.5215 C   0  0  0  0  0  0
  -18.1933  -26.7935   22.1617 C   0  0  0  0  0  0
  -19.1539  -28.8863   23.2866 C   0  0  0  0  0  0
  -18.9466  -30.1466   23.8884 C   0  0  0  0  0  0
  -17.6467  -30.6593   24.0560 C   0  0  0  0  0  0
  -25.9055  -34.9435   23.5087 C   0  0  0  0  0  0
  -16.5357  -29.9086   23.6342 C   0  0  0  0  0  0
  -16.7276  -28.6509   23.0353 C   0  0  0  0  0  0
  -26.4510  -31.6572   25.0708 C   0  0  0  0  0  0
  -25.3720  -31.3715   26.1415 C   0  0  0  0  0  0
  -27.0368  -30.2989   24.6201 C   0  0  0  0  0  0
  -27.6054  -32.4321   25.7490 C   0  0  0  0  0  0
  -27.5571  -37.1791   24.8469 C   0  0  0  0  0  0
  -21.4215  -29.3039   22.3667 N   0  0  0  0  0  0
  -26.4283  -37.3764   23.9411 N   0  0  0  0  0  0
  -24.7005  -31.0447   22.0950 N   0  0  0  0  0  0
  -23.4195  -28.8135   23.3043 O   0  0  0  0  0  0
  -28.3376  -26.3584   20.0643 O   0  0  0  0  0  0
  -26.5626  -34.8920   22.4653 O   0  0  0  0  0  0
  -23.5475  -32.1367   23.7219 O   0  0  0  0  0  0
  -25.4919  -21.7883   20.7499 C   0  0  0  0  0  0
  -25.2398  -23.1322   21.0316 C   0  0  0  0  0  0
  -26.8035  -21.3717   20.4866 C   0  0  0  0  0  0
  -26.2926  -24.0571   20.9926 C   0  0  0  0  0  0
  -27.9114  -22.2561   20.4786 C   0  0  0  0  0  0
  -27.6243  -23.7147   20.6520 C   0  0  0  0  0  0
  -29.2664  -21.4463   20.2311 C   0  0  0  0  0  0
  -28.5846  -24.9929   20.7067 C   0  0  0  0  0  0
  -30.1672  -17.4005   20.9477 C   0  0  0  0  0  0
  -29.3045  -18.6696   20.3503 C   0  0  0  0  0  0
  -29.8002  -15.9208   20.6879 N   0  0  0  0  0  0
  -29.5536  -20.0871   20.9410 N   0  3  0  0  0  0
  -31.4781  -12.6349   19.1672 H   0  0  0  0  0  0
  -30.4098  -11.5183   19.9717 H   0  0  0  0  0  0
  -29.8046  -11.7209   17.5395 H   0  0  0  0  0  0
  -29.6265  -13.4503   17.7060 H   0  0  0  0  0  0
  -27.9171  -11.2716   18.9442 H   0  0  0  0  0  0
  -27.3796  -12.4829   17.8099 H   0  0  0  0  0  0
  -27.6275  -14.2466   19.4530 H   0  0  0  0  0  0
  -28.7344  -12.1884   21.4262 H   0  0  0  0  0  0
  -28.4107  -13.8648   21.7891 H   0  0  0  0  0  0
  -25.2764   -9.5678   22.4783 H   0  0  0  0  0  0
  -24.0005   -7.4626   22.7480 H   0  0  0  0  0  0
  -21.0858   -8.8785   19.8946 H   0  0  0  0  0  0
  -22.3728  -10.9680   19.6175 H   0  0  0  0  0  0
  -21.1991   -7.6147   23.9725 H   0  0  0  0  0  0
  -21.1481   -6.0521   25.9083 H   0  0  0  0  0  0
  -22.0594   -2.7611   23.2853 H   0  0  0  0  0  0
  -22.4061  -11.9833   22.4777 H   0  0  0  0  0  0
  -21.1081  -13.1231   22.2644 H   0  0  0  0  0  0
  -24.6464  -15.8410   20.5028 H   0  0  0  0  0  0
  -26.2512  -15.6235   20.0274 H   0  0  0  0  0  0
  -26.7203  -32.5395   23.1031 H   0  0  0  0  0  0
  -25.0127  -33.9675   25.0417 H   0  0  0  0  0  0
  -22.7306  -31.2941   21.3868 H   0  0  0  0  0  0
  -23.3759  -35.9600   23.3306 H   0  0  0  0  0  0
  -24.3571  -36.8892   22.2052 H   0  0  0  0  0  0
  -23.7236  -37.6472   23.6661 H   0  0  0  0  0  0
  -26.1141  -31.4996   20.6001 H   0  0  0  0  0  0
  -26.8578  -30.8111   22.0104 H   0  0  0  0  0  0
  -28.1243  -28.8879   21.2227 H   0  0  0  0  0  0
  -26.0073  -25.9019   18.9613 H   0  0  0  0  0  0
  -23.9896  -27.2982   18.9801 H   0  0  0  0  0  0
  -23.7824  -30.5675   19.4003 H   0  0  0  0  0  0
  -22.7713  -29.2297   19.8536 H   0  0  0  0  0  0
  -25.1291  -36.1905   25.0823 H   0  0  0  0  0  0
  -20.9968  -28.3273   24.1398 H   0  0  0  0  0  0
  -20.5700  -26.2303   23.3609 H   0  0  0  0  0  0
  -21.6646  -26.7456   22.1187 H   0  0  0  0  0  0
  -19.6929  -25.6294   21.1247 H   0  0  0  0  0  0
  -19.6705  -27.3195   20.6746 H   0  0  0  0  0  0
  -17.4205  -26.6685   21.4016 H   0  0  0  0  0  0
  -18.0326  -26.0081   22.9013 H   0  0  0  0  0  0
  -19.7946  -30.7281   24.2245 H   0  0  0  0  0  0
  -17.5021  -31.6273   24.5162 H   0  0  0  0  0  0
  -15.5358  -30.2981   23.7682 H   0  0  0  0  0  0
  -15.8673  -28.0828   22.7075 H   0  0  0  0  0  0
  -24.5931  -30.7022   25.7730 H   0  0  0  0  0  0
  -24.8875  -32.2879   26.4795 H   0  0  0  0  0  0
  -25.8031  -30.8927   27.0220 H   0  0  0  0  0  0
  -26.2960  -29.6720   24.1217 H   0  0  0  0  0  0
  -27.4043  -29.7256   25.4727 H   0  0  0  0  0  0
  -27.8839  -30.4268   23.9456 H   0  0  0  0  0  0
  -27.2666  -33.3653   26.1998 H   0  0  0  0  0  0
  -28.3899  -32.6821   25.0333 H   0  0  0  0  0  0
  -28.0672  -31.8484   26.5459 H   0  0  0  0  0  0
  -28.2584  -38.0092   24.7511 H   0  0  0  0  0  0
  -28.1070  -36.2620   24.6302 H   0  0  0  0  0  0
  -27.2284  -37.1439   25.8871 H   0  0  0  0  0  0
  -20.9417  -29.8755   21.6858 H   0  0  0  0  0  0
  -26.0164  -38.2841   24.1409 H   0  0  0  0  0  0
  -24.6839  -21.0687   20.7642 H   0  0  0  0  0  0
  -24.2392  -23.4568   21.2828 H   0  0  0  0  0  0
  -26.9480  -20.3193   20.2964 H   0  0  0  0  0  0
  -26.0556  -25.0727   21.2641 H   0  0  0  0  0  0
  -30.0710  -22.1183   20.5290 H   0  0  0  0  0  0
  -29.3940  -21.3087   19.1568 H   0  0  0  0  0  0
  -29.5508  -24.6602   20.3280 H   0  0  0  0  0  0
  -28.7539  -25.1925   21.7655 H   0  0  0  0  0  0
  -30.1711  -17.4992   22.0337 H   0  0  0  0  0  0
  -31.2091  -17.5370   20.6530 H   0  0  0  0  0  0
  -28.2433  -18.4495   20.4601 H   0  0  0  0  0  0
  -29.4841  -18.7204   19.2764 H   0  0  0  0  0  0
  -28.8241  -15.7032   20.8198 H   0  0  0  0  0  0
  -29.1523  -20.1302   21.8633 H   0  0  0  0  0  0
  -30.5495  -20.1192   21.0852 H   0  0  0  0  0  0
  1 25  1  0  0  0
  1 30  2  0  0  0
  1 81  1  0  0  0
  2  3  1  0  0  0
  2 25  1  0  0  0
  2 83  1  0  0  0
  2 84  1  0  0  0
  3  4  1  0  0  0
  3 85  1  0  0  0
  3 86  1  0  0  0
  4  5  1  0  0  0
  4 87  1  0  0  0
  4 88  1  0  0  0
  5  6  1  0  0  0
  5 26  1  0  0  0
  5 89  1  0  0  0
  6 25  1  0  0  0
  6 90  1  0  0  0
  6 91  1  0  0  0
  7  8  2  0  0  0
  7 26  1  0  0  0
  7 29  1  0  0  0
  8  9  1  0  0  0
  8 22  1  0  0  0
  9 10  1  0  0  0
  9 27  2  0  0  0
 10 11  2  0  0  0
 10 15  1  0  0  0
 11 12  1  0  0  0
 11 92  1  0  0  0
 12 13  2  0  0  0
 12 93  1  0  0  0
 13 14  1  0  0  0
 13 31  1  0  0  0
 14 15  2  0  0  0
 14 94  1  0  0  0
 15 95  1  0  0  0
 16 17  2  0  0  0
 16 21  1  0  0  0
 16 31  1  0  0  0
 17 18  1  0  0  0
 17 96  1  0  0  0
 18 19  2  0  0  0
 18 97  1  0  0  0
 19 20  1  0  0  0
 19 24  1  0  0  0
 20 21  2  0  0  0
 20 98  1  0  0  0
 21 23  1  0  0  0
 22 28  1  0  0  0
 22 32  2  0  0  0
 26 27  1  0  0  0
 28 99  1  0  0  0
 28100  1  0  0  0
 29101  1  0  0  0
 29102  1  0  0  0
 33 34  1  0  0  0
 33 66  1  0  0  0
 33 70  2  0  0  0
 34 36  1  0  0  0
 34 59  1  0  0  0
 34103  1  0  0  0
 35 44  2  0  0  0
 35 45  1  0  0  0
 35 68  1  0  0  0
 36 56  1  0  0  0
 36104  1  0  0  0
 37 39  1  0  0  0
 37 47  1  0  0  0
 37 66  1  0  0  0
 37105  1  0  0  0
 38 43  2  0  0  0
 38 46  1  0  0  0
 38 47  1  0  0  0
 39 64  1  0  0  0
 39 67  2  0  0  0
 40 52  1  0  0  0
 40 53  2  0  0  0
 40 58  1  0  0  0
 41106  1  0  0  0
 41107  1  0  0  0
 41108  1  0  0  0
 41 48  1  0  0  0
 42 43  1  0  0  0
 42 66  1  0  0  0
 42109  1  0  0  0
 42110  1  0  0  0
 43 44  1  0  0  0
 44111  1  0  0  0
 45 46  2  0  0  0
 45112  1  0  0  0
 46113  1  0  0  0
 47114  1  0  0  0
 47115  1  0  0  0
 48 56  1  0  0  0
 48 65  1  0  0  0
 48116  1  0  0  0
 49 50  1  0  0  0
 49 53  1  0  0  0
 49 64  1  0  0  0
 49117  1  0  0  0
 50 51  1  0  0  0
 50118  1  0  0  0
 50119  1  0  0  0
 51 52  1  0  0  0
 51120  1  0  0  0
 51121  1  0  0  0
 52122  1  0  0  0
 52123  1  0  0  0
 53 54  1  0  0  0
 54 55  2  0  0  0
 54124  1  0  0  0
 55 57  1  0  0  0
 55125  1  0  0  0
 56 69  2  0  0  0
 57 58  2  0  0  0
 57126  1  0  0  0
 58127  1  0  0  0
 59 60  1  0  0  0
 59 61  1  0  0  0
 59 62  1  0  0  0
 60128  1  0  0  0
 60129  1  0  0  0
 60130  1  0  0  0
 61131  1  0  0  0
 61132  1  0  0  0
 61133  1  0  0  0
 62134  1  0  0  0
 62135  1  0  0  0
 62136  1  0  0  0
 63 65  1  0  0  0
 63137  1  0  0  0
 63138  1  0  0  0
 63139  1  0  0  0
 64140  1  0  0  0
 65141  1  0  0  0
 68 78  1  0  0  0
 71 72  2  0  0  0
 71 73  1  0  0  0
 71142  1  0  0  0
 72 74  1  0  0  0
 72143  1  0  0  0
 73 75  2  0  0  0
 73144  1  0  0  0
 74 76  2  0  0  0
 74145  1  0  0  0
 75 76  1  0  0  0
 75 77  1  0  0  0
 76 78  1  0  0  0
 77 82  1  0  0  0
 77146  1  0  0  0
 77147  1  0  0  0
 78148  1  0  0  0
 78149  1  0  0  0
 79 80  1  0  0  0
 79 81  1  0  0  0
 79150  1  0  0  0
 79151  1  0  0  0
 80 82  1  0  0  0
 80152  1  0  0  0
 80153  1  0  0  0
 81154  1  0  0  0
 82155  1  0  0  0
 82156  1  0  0  0
M  CHG  1  82   1
M  ISO  4   1 100  68 101  78 101  81 100
M  END
> <chiral flag>
0

> <version>
0

> <s_m_source_file>
/data/baiqing/PycharmProjects/Reinvent-master-3.2/result/LINK_invent/BTK/process_docking_weight1_custom_sum_contain_oxygen_bond_distance_aromatic_linkinvent_7_9_3/rearranged_h_0128.sdf

> <i_m_source_file_index>
93

> <r_mmod_Potential_Energy-OPLS-2005>
85.646598815918

> <r_mmod_Stretch_Energy-OPLS-2005>
164.207061767578

> <r_mmod_Bend_Energy-OPLS-2005>
263.382049560547

> <r_mmod_Torsional_Energy-OPLS-2005>
236.754531860352

> <r_mmod_Improper_Torsional_Energy-OPLS-2005>
5.81558513641357

> <r_mmod_Van_der_Waal_Energy-OPLS-2005>
131.053314208984

> <r_mmod_Electrostatic_Energy-OPLS-2005>
-314.509643554688

> <r_mmod_Solvation_Energy-OPLS-2005>
-502.924285888672

> <b_mmod_Minimization_Converged-OPLS-2005>
0

> <r_mmod_RMS_Derivative-OPLS-2005>
1.15736675262451

$$$$
93
                    3D
 Structure written by MMmdl.
175184  0  0  1  0            999 V2000
  -30.6872  -14.4449   20.5794 C   0  0  0  0  0  0
  -30.4267  -12.2924   19.4161 C   0  0  0  0  0  0
  -29.4971  -12.5109   18.2030 C   0  0  0  0  0  0
  -28.0163  -12.3717   18.6102 C   0  0  0  0  0  0
  -27.6644  -13.2007   19.8758 C   0  0  2  0  0  0
  -28.7024  -12.9524   20.9946 C   0  0  0  0  0  0
  -25.2609  -13.8148   20.5658 C   0  0  0  0  0  0
  -24.1852  -13.0443   20.9173 C   0  0  0  0  0  0
  -24.6393  -11.6911   20.8730 C   0  0  0  0  0  0
  -23.9059  -10.4300   21.0399 C   0  0  0  0  0  0
  -24.3619   -9.4220   21.9174 C   0  0  0  0  0  0
  -23.6302   -8.2252   22.0741 C   0  0  0  0  0  0
  -22.4284   -8.0284   21.3540 C   0  0  0  0  0  0
  -21.9914   -9.0248   20.4641 C   0  0  0  0  0  0
  -22.7233  -10.2132   20.3048 C   0  0  0  0  0  0
  -21.6861   -6.0755   22.5286 C   0  0  0  0  0  0
  -21.4013   -6.5648   23.8222 C   0  0  0  0  0  0
  -21.3655   -5.6789   24.9177 C   0  0  0  0  0  0
  -21.6046   -4.3052   24.7222 C   0  0  0  0  0  0
  -21.8825   -3.8158   23.4338 C   0  0  0  0  0  0
  -21.9196   -4.6984   22.3403 C   0  0  0  0  0  0
  -22.7876  -13.5252   21.1849 C   0  0  0  0  0  0
  -22.1664   -4.2178   21.0980 F   0  0  0  0  0  0
  -21.5622   -3.4529   25.7730 F   0  0  0  0  0  0
  -30.0394  -13.2575   20.4545 N   0  0  0  0  0  0
  -26.3036  -12.9303   20.3348 N   0  0  0  0  0  0
  -25.9313  -11.6474   20.5754 N   0  0  0  0  0  0
  -22.0506  -12.8245   22.0398 N   0  0  0  0  0  0
  -25.4360  -15.1854   20.4037 N   0  0  0  0  0  0
  -31.8008  -14.6646   20.0962 O   0  0  0  0  0  0
  -21.6640   -6.8890   21.4247 O   0  0  0  0  0  0
  -22.3572  -14.5568   20.6708 O   0  0  0  0  0  0
  -24.6126  -31.8671   23.2103 C   0  0  0  0  0  0
  -25.9018  -32.4824   23.8398 C   0  0  1  0  0  0
  -27.2430  -27.4382   20.0986 C   0  0  0  0  0  0
  -25.5870  -33.8620   24.2319 N   0  0  0  0  0  0
  -23.3997  -30.4891   21.5503 C   0  0  2  0  0  0
  -24.8470  -28.9506   20.1172 C   0  0  0  0  0  0
  -22.7400  -29.4647   22.5005 C   0  0  0  0  0  0
  -18.0269  -28.1381   22.8503 C   0  0  0  0  0  0
  -24.1484  -36.7331   23.2643 C   0  0  0  0  0  0
  -25.9275  -30.8306   21.3649 C   0  0  0  0  0  0
  -26.0033  -29.4644   20.7153 C   0  0  0  0  0  0
  -27.1984  -28.7144   20.7037 C   0  0  0  0  0  0
  -26.0640  -26.9315   19.5004 C   0  0  0  0  0  0
  -24.8725  -27.6833   19.5099 C   0  0  0  0  0  0
  -23.6088  -29.8173   20.1656 C   0  0  0  0  0  0
  -25.4101  -36.3115   24.0343 C   0  0  1  0  0  0
  -20.5855  -28.3651   23.1346 C   0  0  2  0  0  0
  -20.6764  -26.9393   22.5432 C   0  0  0  0  0  0
  -19.5748  -26.6392   21.5227 C   0  0  0  0  0  0
  -18.1917  -26.7935   22.1623 C   0  0  0  0  0  0
  -19.1517  -28.8833   23.2925 C   0  0  0  0  0  0
  -18.9445  -30.1445   23.8927 C   0  0  0  0  0  0
  -17.6447  -30.6589   24.0566 C   0  0  0  0  0  0
  -25.9029  -34.9478   23.5133 C   0  0  0  0  0  0
  -16.5341  -29.9088   23.6324 C   0  0  0  0  0  0
  -16.7260  -28.6507   23.0349 C   0  0  0  0  0  0
  -26.4436  -31.6604   25.0728 C   0  0  0  0  0  0
  -25.3706  -31.3729   26.1489 C   0  0  0  0  0  0
  -27.0265  -30.3044   24.6120 C   0  0  0  0  0  0
  -27.6021  -32.4313   25.7479 C   0  0  0  0  0  0
  -27.5578  -37.1818   24.8462 C   0  0  0  0  0  0
  -21.4125  -29.3027   22.3756 N   0  0  0  0  0  0
  -26.4291  -37.3791   23.9408 N   0  0  0  0  0  0
  -24.6642  -31.0771   22.1008 N   0  0  0  0  0  0
  -23.4176  -28.8196   23.3045 O   0  0  0  0  0  0
  -28.4479  -26.7636   20.1114 O   0  0  0  0  0  0
  -26.5599  -34.8926   22.4699 O   0  0  0  0  0  0
  -23.5320  -32.1424   23.7502 O   0  0  0  0  0  0
  -30.1410  -21.0218   23.6128 C   0  0  0  0  0  0
  -30.6150  -21.6209   24.8098 C   0  0  0  0  0  0
  -30.7000  -19.7514   23.3228 C   0  0  0  0  0  0
  -31.9480  -19.8205   25.2437 C   0  0  0  0  0  0
  -27.9453  -20.9979   22.0856 C   0  0  0  0  0  0
  -27.2861  -22.1072   21.2518 C   0  0  0  0  0  0
  -29.5845  -22.6735   21.6329 C   0  0  0  0  0  0
  -29.0788  -21.7668   22.7643 C   0  0  2  0  0  0
  -30.1651  -22.9868   25.3015 C   0  0  0  0  0  0
  -32.9486  -19.1384   26.1522 C   0  0  0  0  0  0
  -28.8624  -17.4252   20.2210 C   0  0  0  0  0  0
  -30.4136  -17.5564   22.2577 C   0  0  0  0  0  0
  -27.9743  -24.5018   20.9858 C   0  0  0  0  0  0
  -28.5152  -25.3613   19.8211 C   0  0  0  0  0  0
  -30.1221  -16.8677   20.9098 C   0  0  2  0  0  0
  -31.5086  -21.0135   25.6096 N   0  0  0  0  0  0
  -31.5929  -19.1754   24.1441 N   0  0  0  0  0  0
  -30.3985  -19.0187   22.1695 N   0  0  0  0  0  0
  -29.9370  -15.4275   21.1060 N   0  0  0  0  0  0
  -28.3645  -23.0624   20.8702 N   0  3  2  0  0  0
  -31.4718  -12.3987   19.1208 H   0  0  0  0  0  0
  -30.3253  -11.2747   19.7965 H   0  0  0  0  0  0
  -29.7337  -11.7934   17.4159 H   0  0  0  0  0  0
  -29.6708  -13.5003   17.7767 H   0  0  0  0  0  0
  -27.8247  -11.3142   18.7933 H   0  0  0  0  0  0
  -27.3687  -12.6551   17.7796 H   0  0  0  0  0  0
  -27.7154  -14.2536   19.5952 H   0  0  0  0  0  0
  -28.6696  -11.9079   21.3080 H   0  0  0  0  0  0
  -28.4622  -13.5272   21.8902 H   0  0  0  0  0  0
  -25.2768   -9.5701   22.4736 H   0  0  0  0  0  0
  -24.0029   -7.4645   22.7444 H   0  0  0  0  0  0
  -21.0852   -8.8759   19.8936 H   0  0  0  0  0  0
  -22.3690  -10.9668   19.6150 H   0  0  0  0  0  0
  -21.2005   -7.6151   23.9741 H   0  0  0  0  0  0
  -21.1462   -6.0507   25.9083 H   0  0  0  0  0  0
  -22.0608   -2.7622   23.2827 H   0  0  0  0  0  0
  -22.4108  -11.9910   22.4804 H   0  0  0  0  0  0
  -21.1109  -13.1257   22.2560 H   0  0  0  0  0  0
  -24.6726  -15.8459   20.5035 H   0  0  0  0  0  0
  -26.2914  -15.6165   20.0775 H   0  0  0  0  0  0
  -26.7083  -32.5515   23.1158 H   0  0  0  0  0  0
  -24.9990  -33.9785   25.0445 H   0  0  0  0  0  0
  -22.6886  -31.3047   21.4086 H   0  0  0  0  0  0
  -23.3736  -35.9671   23.3311 H   0  0  0  0  0  0
  -24.3584  -36.8939   22.2057 H   0  0  0  0  0  0
  -23.7240  -37.6545   23.6646 H   0  0  0  0  0  0
  -26.0430  -31.5939   20.5940 H   0  0  0  0  0  0
  -26.8157  -30.8844   21.9827 H   0  0  0  0  0  0
  -28.0914  -29.1091   21.1678 H   0  0  0  0  0  0
  -26.0394  -25.9669   19.0149 H   0  0  0  0  0  0
  -23.9812  -27.2816   19.0477 H   0  0  0  0  0  0
  -23.7165  -30.5882   19.4025 H   0  0  0  0  0  0
  -22.7333  -29.2357   19.8710 H   0  0  0  0  0  0
  -25.1271  -36.1984   25.0834 H   0  0  0  0  0  0
  -20.9951  -28.3205   24.1467 H   0  0  0  0  0  0
  -20.5674  -26.2257   23.3611 H   0  0  0  0  0  0
  -21.6628  -26.7447   22.1211 H   0  0  0  0  0  0
  -19.6907  -25.6315   21.1239 H   0  0  0  0  0  0
  -19.6691  -27.3212   20.6770 H   0  0  0  0  0  0
  -17.4192  -26.6697   21.4018 H   0  0  0  0  0  0
  -18.0303  -26.0067   22.9007 H   0  0  0  0  0  0
  -19.7919  -30.7256   24.2309 H   0  0  0  0  0  0
  -17.5001  -31.6275   24.5162 H   0  0  0  0  0  0
  -15.5346  -30.2997   23.7656 H   0  0  0  0  0  0
  -15.8657  -28.0845   22.7055 H   0  0  0  0  0  0
  -24.5864  -30.7081   25.7848 H   0  0  0  0  0  0
  -24.8916  -32.2905   26.4923 H   0  0  0  0  0  0
  -25.8065  -30.8912   27.0256 H   0  0  0  0  0  0
  -26.2829  -29.6831   24.1121 H   0  0  0  0  0  0
  -27.3984  -29.7248   25.4583 H   0  0  0  0  0  0
  -27.8678  -30.4376   23.9313 H   0  0  0  0  0  0
  -27.2640  -33.3598   26.2094 H   0  0  0  0  0  0
  -28.3802  -32.6899   25.0283 H   0  0  0  0  0  0
  -28.0714  -31.8412   26.5366 H   0  0  0  0  0  0
  -28.2604  -38.0107   24.7491 H   0  0  0  0  0  0
  -28.1063  -36.2643   24.6287 H   0  0  0  0  0  0
  -27.2311  -37.1466   25.8870 H   0  0  0  0  0  0
  -20.9277  -29.8753   21.6988 H   0  0  0  0  0  0
  -26.0191  -38.2879   24.1380 H   0  0  0  0  0  0
  -28.2968  -20.2266   21.4057 H   0  0  0  0  0  0
  -27.2562  -20.5389   22.7944 H   0  0  0  0  0  0
  -26.5352  -22.5998   21.8718 H   0  0  0  0  0  0
  -26.7726  -21.7151   20.3730 H   0  0  0  0  0  0
  -30.2405  -22.1093   20.9683 H   0  0  0  0  0  0
  -30.1557  -23.5269   22.0015 H   0  0  0  0  0  0
  -28.5504  -22.4210   23.4574 H   0  0  0  0  0  0
  -29.1279  -22.9497   25.6362 H   0  0  0  0  0  0
  -30.2534  -23.7350   24.5142 H   0  0  0  0  0  0
  -30.7738  -23.3279   26.1399 H   0  0  0  0  0  0
  -32.9483  -19.5773   27.1504 H   0  0  0  0  0  0
  -33.9550  -19.2296   25.7437 H   0  0  0  0  0  0
  -32.7129  -18.0784   26.2537 H   0  0  0  0  0  0
  -28.0002  -17.4115   20.8895 H   0  0  0  0  0  0
  -28.6075  -16.8491   19.3301 H   0  0  0  0  0  0
  -29.0082  -18.4534   19.8906 H   0  0  0  0  0  0
  -31.3853  -17.2146   22.6198 H   0  0  0  0  0  0
  -29.6781  -17.2529   23.0042 H   0  0  0  0  0  0
  -26.8896  -24.6034   20.9927 H   0  0  0  0  0  0
  -28.3109  -24.9043   21.9420 H   0  0  0  0  0  0
  -28.0300  -25.1123   18.8763 H   0  0  0  0  0  0
  -29.5707  -25.1311   19.6740 H   0  0  0  0  0  0
  -30.9655  -17.0440   20.2397 H   0  0  0  0  0  0
  -29.6793  -19.4098   21.5793 H   0  0  0  0  0  0
  -29.0532  -15.1355   21.4941 H   0  0  0  0  0  0
  -28.5690  -22.8854   19.8960 H   0  0  0  0  0  0
  1 25  1  0  0  0
  1 30  2  0  0  0
  1 89  1  0  0  0
  2  3  1  0  0  0
  2 25  1  0  0  0
  2 91  1  0  0  0
  2 92  1  0  0  0
  3  4  1  0  0  0
  3 93  1  0  0  0
  3 94  1  0  0  0
  4  5  1  0  0  0
  4 95  1  0  0  0
  4 96  1  0  0  0
  5  6  1  0  0  0
  5 26  1  0  0  0
  5 97  1  0  0  0
  6 25  1  0  0  0
  6 98  1  0  0  0
  6 99  1  0  0  0
  7  8  2  0  0  0
  7 26  1  0  0  0
  7 29  1  0  0  0
  8  9  1  0  0  0
  8 22  1  0  0  0
  9 10  1  0  0  0
  9 27  2  0  0  0
 10 11  2  0  0  0
 10 15  1  0  0  0
 11 12  1  0  0  0
 11100  1  0  0  0
 12 13  2  0  0  0
 12101  1  0  0  0
 13 14  1  0  0  0
 13 31  1  0  0  0
 14 15  2  0  0  0
 14102  1  0  0  0
 15103  1  0  0  0
 16 17  2  0  0  0
 16 21  1  0  0  0
 16 31  1  0  0  0
 17 18  1  0  0  0
 17104  1  0  0  0
 18 19  2  0  0  0
 18105  1  0  0  0
 19 20  1  0  0  0
 19 24  1  0  0  0
 20 21  2  0  0  0
 20106  1  0  0  0
 21 23  1  0  0  0
 22 28  1  0  0  0
 22 32  2  0  0  0
 26 27  1  0  0  0
 28107  1  0  0  0
 28108  1  0  0  0
 29109  1  0  0  0
 29110  1  0  0  0
 33 34  1  0  0  0
 33 66  1  0  0  0
 33 70  2  0  0  0
 34 36  1  0  0  0
 34 59  1  0  0  0
 34111  1  0  0  0
 35 44  2  0  0  0
 35 45  1  0  0  0
 35 68  1  0  0  0
 36 56  1  0  0  0
 36112  1  0  0  0
 37 39  1  0  0  0
 37 47  1  0  0  0
 37 66  1  0  0  0
 37113  1  0  0  0
 38 43  2  0  0  0
 38 46  1  0  0  0
 38 47  1  0  0  0
 39 64  1  0  0  0
 39 67  2  0  0  0
 40 52  1  0  0  0
 40 53  2  0  0  0
 40 58  1  0  0  0
 41114  1  0  0  0
 41115  1  0  0  0
 41116  1  0  0  0
 41 48  1  0  0  0
 42 43  1  0  0  0
 42 66  1  0  0  0
 42117  1  0  0  0
 42118  1  0  0  0
 43 44  1  0  0  0
 44119  1  0  0  0
 45 46  2  0  0  0
 45120  1  0  0  0
 46121  1  0  0  0
 47122  1  0  0  0
 47123  1  0  0  0
 48 56  1  0  0  0
 48 65  1  0  0  0
 48124  1  0  0  0
 49 50  1  0  0  0
 49 53  1  0  0  0
 49 64  1  0  0  0
 49125  1  0  0  0
 50 51  1  0  0  0
 50126  1  0  0  0
 50127  1  0  0  0
 51 52  1  0  0  0
 51128  1  0  0  0
 51129  1  0  0  0
 52130  1  0  0  0
 52131  1  0  0  0
 53 54  1  0  0  0
 54 55  2  0  0  0
 54132  1  0  0  0
 55 57  1  0  0  0
 55133  1  0  0  0
 56 69  2  0  0  0
 57 58  2  0  0  0
 57134  1  0  0  0
 58135  1  0  0  0
 59 60  1  0  0  0
 59 61  1  0  0  0
 59 62  1  0  0  0
 60136  1  0  0  0
 60137  1  0  0  0
 60138  1  0  0  0
 61139  1  0  0  0
 61140  1  0  0  0
 61141  1  0  0  0
 62142  1  0  0  0
 62143  1  0  0  0
 62144  1  0  0  0
 63 65  1  0  0  0
 63145  1  0  0  0
 63146  1  0  0  0
 63147  1  0  0  0
 64148  1  0  0  0
 65149  1  0  0  0
 68 84  1  0  0  0
 71 72  2  0  0  0
 71 73  1  0  0  0
 71 78  1  0  0  0
 72 79  1  0  0  0
 72 86  1  0  0  0
 73 87  2  0  0  0
 73 88  1  0  0  0
 74 80  1  0  0  0
 74 86  2  0  0  0
 74 87  1  0  0  0
 75 76  1  0  0  0
 75 78  1  0  0  0
 75150  1  0  0  0
 75151  1  0  0  0
 76 90  1  0  0  0
 76152  1  0  0  0
 76153  1  0  0  0
 77 78  1  0  0  0
 77 90  1  0  0  0
 77154  1  0  0  0
 77155  1  0  0  0
 78156  1  0  0  0
 79157  1  0  0  0
 79158  1  0  0  0
 79159  1  0  0  0
 80160  1  0  0  0
 80161  1  0  0  0
 80162  1  0  0  0
 81163  1  0  0  0
 81164  1  0  0  0
 81165  1  0  0  0
 81 85  1  0  0  0
 82 85  1  0  0  0
 82 88  1  0  0  0
 82166  1  0  0  0
 82167  1  0  0  0
 83 84  1  0  0  0
 83168  1  0  0  0
 83169  1  0  0  0
 83 90  1  0  0  0
 84170  1  0  0  0
 84171  1  0  0  0
 85 89  1  0  0  0
 85172  1  0  0  0
 88173  1  0  0  0
 89174  1  0  0  0
 90175  1  0  0  0
M  CHG  1  90   1
M  ISO  4   1 100  68 101  84 101  89 100
M  END
> <chiral flag>
0

> <version>
0

> <s_m_source_file>
/data/baiqing/PycharmProjects/Reinvent-master-3.2/result/LINK_invent/BTK/process_docking_weight1_custom_sum_contain_oxygen_bond_distance_aromatic_linkinvent_7_9_3/rearranged_h_0128.sdf

> <i_m_source_file_index>
94

> <r_mmod_Potential_Energy-OPLS-2005>
-634.043640136719

> <r_mmod_Stretch_Energy-OPLS-2005>
37.8521270751953

> <r_mmod_Bend_Energy-OPLS-2005>
154.764999389648

> <r_mmod_Torsional_Energy-OPLS-2005>
259.770965576172

> <r_mmod_Improper_Torsional_Energy-OPLS-2005>
7.92875957489014

> <r_mmod_Van_der_Waal_Energy-OPLS-2005>
168.188491821289

> <r_mmod_Electrostatic_Energy-OPLS-2005>
-788.116027832031

> <r_mmod_Solvation_Energy-OPLS-2005>
-485.502197265625

> <b_mmod_Minimization_Converged-OPLS-2005>
0

> <r_mmod_RMS_Derivative-OPLS-2005>
2.37071299552917

$$$$
94
                    3D
 Structure written by MMmdl.
155163  0  0  1  0            999 V2000
  -30.6841  -14.4856   20.4988 C   0  0  0  0  0  0
  -30.4191  -12.2889   19.4226 C   0  0  0  0  0  0
  -29.4962  -12.4904   18.2020 C   0  0  0  0  0  0
  -28.0121  -12.3730   18.6079 C   0  0  0  0  0  0
  -27.6607  -13.2058   19.8715 C   0  0  2  0  0  0
  -28.7095  -13.0051   20.9917 C   0  0  0  0  0  0
  -25.2608  -13.8178   20.5689 C   0  0  0  0  0  0
  -24.1843  -13.0434   20.9170 C   0  0  0  0  0  0
  -24.6398  -11.6911   20.8697 C   0  0  0  0  0  0
  -23.9063  -10.4281   21.0372 C   0  0  0  0  0  0
  -24.3600   -9.4216   21.9167 C   0  0  0  0  0  0
  -23.6277   -8.2254   22.0743 C   0  0  0  0  0  0
  -22.4272   -8.0272   21.3537 C   0  0  0  0  0  0
  -21.9888   -9.0244   20.4644 C   0  0  0  0  0  0
  -22.7219  -10.2130   20.3043 C   0  0  0  0  0  0
  -21.6851   -6.0724   22.5276 C   0  0  0  0  0  0
  -21.4021   -6.5634   23.8208 C   0  0  0  0  0  0
  -21.3665   -5.6791   24.9173 C   0  0  0  0  0  0
  -21.6030   -4.3051   24.7228 C   0  0  0  0  0  0
  -21.8819   -3.8143   23.4355 C   0  0  0  0  0  0
  -21.9195   -4.6949   22.3411 C   0  0  0  0  0  0
  -22.7872  -13.5245   21.1827 C   0  0  0  0  0  0
  -22.1658   -4.2127   21.0989 F   0  0  0  0  0  0
  -21.5629   -3.4539   25.7754 F   0  0  0  0  0  0
  -30.0321  -13.2948   20.4219 N   0  0  0  0  0  0
  -26.3029  -12.9314   20.3358 N   0  0  0  0  0  0
  -25.9328  -11.6473   20.5724 N   0  0  0  0  0  0
  -22.0515  -12.8228   22.0384 N   0  0  0  0  0  0
  -25.4331  -15.1886   20.4141 N   0  0  0  0  0  0
  -31.8582  -14.6306   20.1577 O   0  0  0  0  0  0
  -21.6646   -6.8869   21.4243 O   0  0  0  0  0  0
  -22.3563  -14.5554   20.6689 O   0  0  0  0  0  0
  -24.6154  -31.8692   23.2132 C   0  0  0  0  0  0
  -25.9035  -32.4828   23.8461 C   0  0  1  0  0  0
  -27.2246  -27.4190   20.0880 C   0  0  0  0  0  0
  -25.5898  -33.8633   24.2386 N   0  0  0  0  0  0
  -23.4033  -30.5000   21.5530 C   0  0  2  0  0  0
  -24.8420  -28.9594   20.1158 C   0  0  0  0  0  0
  -22.7408  -29.4715   22.4982 C   0  0  0  0  0  0
  -18.0338  -28.1457   22.8478 C   0  0  0  0  0  0
  -24.1466  -36.7322   23.2653 C   0  0  0  0  0  0
  -25.9359  -30.8257   21.3681 C   0  0  0  0  0  0
  -26.0041  -29.4593   20.7164 C   0  0  0  0  0  0
  -27.1930  -28.6930   20.7084 C   0  0  0  0  0  0
  -26.0414  -26.9374   19.4803 C   0  0  0  0  0  0
  -24.8541  -27.6923   19.5061 C   0  0  0  0  0  0
  -23.6095  -29.8342   20.1658 C   0  0  0  0  0  0
  -25.4081  -36.3119   24.0361 C   0  0  1  0  0  0
  -20.5926  -28.3736   23.1349 C   0  0  2  0  0  0
  -20.6830  -26.9446   22.5516 C   0  0  0  0  0  0
  -19.5909  -26.6552   21.5169 C   0  0  0  0  0  0
  -18.2053  -26.8038   22.1523 C   0  0  0  0  0  0
  -19.1568  -28.8901   23.2929 C   0  0  0  0  0  0
  -18.9480  -30.1499   23.8907 C   0  0  0  0  0  0
  -17.6486  -30.6654   24.0555 C   0  0  0  0  0  0
  -25.9014  -34.9482   23.5177 C   0  0  0  0  0  0
  -16.5376  -29.9155   23.6339 C   0  0  0  0  0  0
  -16.7322  -28.6599   23.0338 C   0  0  0  0  0  0
  -26.4477  -31.6573   25.0771 C   0  0  0  0  0  0
  -25.3814  -31.3635   26.1589 C   0  0  0  0  0  0
  -27.0286  -30.3013   24.6102 C   0  0  0  0  0  0
  -27.6048  -32.4299   25.7534 C   0  0  0  0  0  0
  -27.5565  -37.1824   24.8479 C   0  0  0  0  0  0
  -21.4162  -29.3074   22.3717 N   0  0  0  0  0  0
  -26.4267  -37.3802   23.9433 N   0  0  0  0  0  0
  -24.6714  -31.0782   22.1032 N   0  0  0  0  0  0
  -23.4137  -28.8226   23.3029 O   0  0  0  0  0  0
  -28.4090  -26.7076   20.1084 O   0  0  0  0  0  0
  -26.5579  -34.8917   22.4742 O   0  0  0  0  0  0
  -23.5318  -32.1464   23.7474 O   0  0  0  0  0  0
  -28.9241  -20.1617   21.8426 C   0  0  0  0  0  0
  -29.3650  -18.8599   22.1555 C   0  0  0  0  0  0
  -28.3390  -19.3357   19.6545 C   0  0  0  0  0  0
  -28.3714  -20.4115   20.5694 C   0  0  0  0  0  0
  -29.2278  -17.8329   21.2017 C   0  0  0  0  0  0
  -27.6751  -21.7473   20.2585 C   0  0  0  0  0  0
  -29.4600  -16.3627   21.5777 C   0  0  0  0  0  0
  -27.8846  -24.2437   20.2988 C   0  0  0  0  0  0
  -28.5174  -25.4102   19.4930 C   0  0  0  0  0  0
  -28.7607  -18.0803   19.9547 N   0  0  0  0  0  0
  -29.8792  -15.5533   20.4397 N   0  0  0  0  0  0
  -28.5620  -22.9293   20.0790 N   0  3  0  0  0  0
  -30.3029  -11.2800   19.8261 H   0  0  0  0  0  0
  -31.4646  -12.3805   19.1212 H   0  0  0  0  0  0
  -29.7257  -11.7557   17.4303 H   0  0  0  0  0  0
  -29.6811  -13.4695   17.7570 H   0  0  0  0  0  0
  -27.7985  -11.3176   18.7790 H   0  0  0  0  0  0
  -27.3733  -12.6748   17.7761 H   0  0  0  0  0  0
  -27.6940  -14.2501   19.5656 H   0  0  0  0  0  0
  -28.6916  -11.9820   21.3677 H   0  0  0  0  0  0
  -28.4935  -13.6436   21.8481 H   0  0  0  0  0  0
  -25.2738   -9.5690   22.4736 H   0  0  0  0  0  0
  -23.9975   -7.4656   22.7468 H   0  0  0  0  0  0
  -21.0800   -8.8762   19.8962 H   0  0  0  0  0  0
  -22.3656  -10.9658   19.6140 H   0  0  0  0  0  0
  -21.2018   -7.6140   23.9705 H   0  0  0  0  0  0
  -21.1481   -6.0527   25.9076 H   0  0  0  0  0  0
  -22.0591   -2.7596   23.2873 H   0  0  0  0  0  0
  -22.4135  -11.9918   22.4803 H   0  0  0  0  0  0
  -21.1129  -13.1245   22.2576 H   0  0  0  0  0  0
  -24.6716  -15.8473   20.5359 H   0  0  0  0  0  0
  -26.2935  -15.6309   20.1115 H   0  0  0  0  0  0
  -26.7110  -32.5531   23.1225 H   0  0  0  0  0  0
  -25.0071  -33.9827   25.0541 H   0  0  0  0  0  0
  -22.6956  -31.3229   21.4162 H   0  0  0  0  0  0
  -23.3706  -35.9670   23.3306 H   0  0  0  0  0  0
  -24.3581  -36.8940   22.2074 H   0  0  0  0  0  0
  -23.7232  -37.6547   23.6639 H   0  0  0  0  0  0
  -26.0527  -31.5805   20.5916 H   0  0  0  0  0  0
  -26.8237  -30.8818   21.9835 H   0  0  0  0  0  0
  -28.0873  -29.0735   21.1833 H   0  0  0  0  0  0
  -26.0018  -25.9815   18.9799 H   0  0  0  0  0  0
  -23.9594  -27.2927   19.0501 H   0  0  0  0  0  0
  -23.7328  -30.6140   19.4099 H   0  0  0  0  0  0
  -22.7233  -29.2704   19.8692 H   0  0  0  0  0  0
  -25.1231  -36.2025   25.0846 H   0  0  0  0  0  0
  -21.0003  -28.3431   24.1457 H   0  0  0  0  0  0
  -20.5542  -26.2359   23.3692 H   0  0  0  0  0  0
  -21.6747  -26.7394   22.1454 H   0  0  0  0  0  0
  -19.7082  -25.6578   21.0939 H   0  0  0  0  0  0
  -19.6938  -27.3595   20.6882 H   0  0  0  0  0  0
  -17.4298  -26.6838   21.3952 H   0  0  0  0  0  0
  -18.0469  -26.0106   22.8824 H   0  0  0  0  0  0
  -19.8011  -30.7317   24.2122 H   0  0  0  0  0  0
  -17.5044  -31.6388   24.5094 H   0  0  0  0  0  0
  -15.5384  -30.3048   23.7703 H   0  0  0  0  0  0
  -15.8688  -28.1005   22.7063 H   0  0  0  0  0  0
  -24.5990  -30.6927   25.8027 H   0  0  0  0  0  0
  -24.8967  -32.2740   26.5121 H   0  0  0  0  0  0
  -25.8296  -30.8841   27.0313 H   0  0  0  0  0  0
  -26.2805  -29.6816   24.1130 H   0  0  0  0  0  0
  -27.4067  -29.7213   25.4544 H   0  0  0  0  0  0
  -27.8647  -30.4347   23.9226 H   0  0  0  0  0  0
  -27.2660  -33.3597   26.2127 H   0  0  0  0  0  0
  -28.3859  -32.6890   25.0370 H   0  0  0  0  0  0
  -28.0705  -31.8423   26.5466 H   0  0  0  0  0  0
  -28.2607  -38.0093   24.7501 H   0  0  0  0  0  0
  -28.1041  -36.2650   24.6297 H   0  0  0  0  0  0
  -27.2309  -37.1476   25.8889 H   0  0  0  0  0  0
  -20.9271  -29.8735   21.6917 H   0  0  0  0  0  0
  -26.0163  -38.2891   24.1397 H   0  0  0  0  0  0
  -28.9442  -20.9355   22.5968 H   0  0  0  0  0  0
  -29.7315  -18.6453   23.1491 H   0  0  0  0  0  0
  -27.8975  -19.4612   18.6758 H   0  0  0  0  0  0
  -26.9941  -21.9365   21.0910 H   0  0  0  0  0  0
  -27.0464  -21.6427   19.3714 H   0  0  0  0  0  0
  -30.1694  -16.2797   22.4043 H   0  0  0  0  0  0
  -28.5102  -15.9732   21.9410 H   0  0  0  0  0  0
  -26.8244  -24.1652   20.0479 H   0  0  0  0  0  0
  -27.9263  -24.4610   21.3652 H   0  0  0  0  0  0
  -28.1392  -25.4205   18.4703 H   0  0  0  0  0  0
  -29.5895  -25.2353   19.4057 H   0  0  0  0  0  0
  -30.1343  -16.1872   19.6963 H   0  0  0  0  0  0
  -28.9460  -22.9024   19.1469 H   0  0  0  0  0  0
  -29.3380  -22.8649   20.7196 H   0  0  0  0  0  0
  1 25  1  0  0  0
  1 30  2  0  0  0
  1 81  1  0  0  0
  2  3  1  0  0  0
  2 25  1  0  0  0
  2 83  1  0  0  0
  2 84  1  0  0  0
  3  4  1  0  0  0
  3 85  1  0  0  0
  3 86  1  0  0  0
  4  5  1  0  0  0
  4 87  1  0  0  0
  4 88  1  0  0  0
  5  6  1  0  0  0
  5 26  1  0  0  0
  5 89  1  0  0  0
  6 25  1  0  0  0
  6 90  1  0  0  0
  6 91  1  0  0  0
  7  8  2  0  0  0
  7 26  1  0  0  0
  7 29  1  0  0  0
  8  9  1  0  0  0
  8 22  1  0  0  0
  9 10  1  0  0  0
  9 27  2  0  0  0
 10 11  2  0  0  0
 10 15  1  0  0  0
 11 12  1  0  0  0
 11 92  1  0  0  0
 12 13  2  0  0  0
 12 93  1  0  0  0
 13 14  1  0  0  0
 13 31  1  0  0  0
 14 15  2  0  0  0
 14 94  1  0  0  0
 15 95  1  0  0  0
 16 17  2  0  0  0
 16 21  1  0  0  0
 16 31  1  0  0  0
 17 18  1  0  0  0
 17 96  1  0  0  0
 18 19  2  0  0  0
 18 97  1  0  0  0
 19 20  1  0  0  0
 19 24  1  0  0  0
 20 21  2  0  0  0
 20 98  1  0  0  0
 21 23  1  0  0  0
 22 28  1  0  0  0
 22 32  2  0  0  0
 26 27  1  0  0  0
 28 99  1  0  0  0
 28100  1  0  0  0
 29101  1  0  0  0
 29102  1  0  0  0
 33 34  1  0  0  0
 33 66  1  0  0  0
 33 70  2  0  0  0
 34 36  1  0  0  0
 34 59  1  0  0  0
 34103  1  0  0  0
 35 44  2  0  0  0
 35 45  1  0  0  0
 35 68  1  0  0  0
 36 56  1  0  0  0
 36104  1  0  0  0
 37 39  1  0  0  0
 37 47  1  0  0  0
 37 66  1  0  0  0
 37105  1  0  0  0
 38 43  2  0  0  0
 38 46  1  0  0  0
 38 47  1  0  0  0
 39 64  1  0  0  0
 39 67  2  0  0  0
 40 52  1  0  0  0
 40 53  2  0  0  0
 40 58  1  0  0  0
 41106  1  0  0  0
 41107  1  0  0  0
 41108  1  0  0  0
 41 48  1  0  0  0
 42 43  1  0  0  0
 42 66  1  0  0  0
 42109  1  0  0  0
 42110  1  0  0  0
 43 44  1  0  0  0
 44111  1  0  0  0
 45 46  2  0  0  0
 45112  1  0  0  0
 46113  1  0  0  0
 47114  1  0  0  0
 47115  1  0  0  0
 48 56  1  0  0  0
 48 65  1  0  0  0
 48116  1  0  0  0
 49 50  1  0  0  0
 49 53  1  0  0  0
 49 64  1  0  0  0
 49117  1  0  0  0
 50 51  1  0  0  0
 50118  1  0  0  0
 50119  1  0  0  0
 51 52  1  0  0  0
 51120  1  0  0  0
 51121  1  0  0  0
 52122  1  0  0  0
 52123  1  0  0  0
 53 54  1  0  0  0
 54 55  2  0  0  0
 54124  1  0  0  0
 55 57  1  0  0  0
 55125  1  0  0  0
 56 69  2  0  0  0
 57 58  2  0  0  0
 57126  1  0  0  0
 58127  1  0  0  0
 59 60  1  0  0  0
 59 61  1  0  0  0
 59 62  1  0  0  0
 60128  1  0  0  0
 60129  1  0  0  0
 60130  1  0  0  0
 61131  1  0  0  0
 61132  1  0  0  0
 61133  1  0  0  0
 62134  1  0  0  0
 62135  1  0  0  0
 62136  1  0  0  0
 63 65  1  0  0  0
 63137  1  0  0  0
 63138  1  0  0  0
 63139  1  0  0  0
 64140  1  0  0  0
 65141  1  0  0  0
 68 79  1  0  0  0
 71 72  2  0  0  0
 71 74  1  0  0  0
 71142  1  0  0  0
 72 75  1  0  0  0
 72143  1  0  0  0
 73 74  2  0  0  0
 73 80  1  0  0  0
 73144  1  0  0  0
 74 76  1  0  0  0
 75 77  1  0  0  0
 75 80  2  0  0  0
 76 82  1  0  0  0
 76145  1  0  0  0
 76146  1  0  0  0
 77 81  1  0  0  0
 77147  1  0  0  0
 77148  1  0  0  0
 78 79  1  0  0  0
 78 82  1  0  0  0
 78149  1  0  0  0
 78150  1  0  0  0
 79151  1  0  0  0
 79152  1  0  0  0
 81153  1  0  0  0
 82154  1  0  0  0
 82155  1  0  0  0
M  CHG  1  82   1
M  ISO  4   1 100  68 101  79 101  81 100
M  END
> <chiral flag>
0

> <version>
0

> <s_m_source_file>
/data/baiqing/PycharmProjects/Reinvent-master-3.2/result/LINK_invent/BTK/process_docking_weight1_custom_sum_contain_oxygen_bond_distance_aromatic_linkinvent_7_9_3/rearranged_h_0128.sdf

> <i_m_source_file_index>
95

> <r_mmod_Potential_Energy-OPLS-2005>
-397.004272460938

> <r_mmod_Stretch_Energy-OPLS-2005>
37.3079223632812

> <r_mmod_Bend_Energy-OPLS-2005>
110.929298400879

> <r_mmod_Torsional_Energy-OPLS-2005>
262.220947265625

> <r_mmod_Improper_Torsional_Energy-OPLS-2005>
22.4700183868408

> <r_mmod_Van_der_Waal_Energy-OPLS-2005>
148.254013061523

> <r_mmod_Electrostatic_Energy-OPLS-2005>
-523.668762207031

> <r_mmod_Solvation_Energy-OPLS-2005>
-472.563079833984

> <b_mmod_Minimization_Converged-OPLS-2005>
0

> <r_mmod_RMS_Derivative-OPLS-2005>
5.220947265625

$$$$
95
                    3D
 Structure written by MMmdl.
154162  0  0  1  0            999 V2000
  -30.6794  -14.7340   20.5152 C   0  0  0  0  0  0
  -30.4290  -12.4619   19.4915 C   0  0  0  0  0  0
  -29.5169  -12.5246   18.2493 C   0  0  0  0  0  0
  -28.0420  -12.3480   18.6570 C   0  0  0  0  0  0
  -27.6438  -13.2475   19.8587 C   0  0  2  0  0  0
  -28.6900  -13.1914   20.9975 C   0  0  0  0  0  0
  -25.2377  -13.8178   20.5602 C   0  0  0  0  0  0
  -24.1735  -13.0399   20.9222 C   0  0  0  0  0  0
  -24.6399  -11.6912   20.8777 C   0  0  0  0  0  0
  -23.9088  -10.4278   21.0407 C   0  0  0  0  0  0
  -24.3624   -9.4192   21.9185 C   0  0  0  0  0  0
  -23.6291   -8.2233   22.0763 C   0  0  0  0  0  0
  -22.4266   -8.0286   21.3560 C   0  0  0  0  0  0
  -21.9906   -9.0256   20.4658 C   0  0  0  0  0  0
  -22.7251  -10.2126   20.3063 C   0  0  0  0  0  0
  -21.6854   -6.0733   22.5289 C   0  0  0  0  0  0
  -21.4011   -6.5627   23.8223 C   0  0  0  0  0  0
  -21.3668   -5.6779   24.9180 C   0  0  0  0  0  0
  -21.6044   -4.3044   24.7217 C   0  0  0  0  0  0
  -21.8820   -3.8140   23.4337 C   0  0  0  0  0  0
  -21.9183   -4.6961   22.3398 C   0  0  0  0  0  0
  -22.7742  -13.5167   21.1864 C   0  0  0  0  0  0
  -22.1642   -4.2151   21.0976 F   0  0  0  0  0  0
  -21.5640   -3.4526   25.7727 F   0  0  0  0  0  0
  -30.0005  -13.5332   20.4260 N   0  0  0  0  0  0
  -26.2932  -12.9473   20.3339 N   0  0  0  0  0  0
  -25.9359  -11.6593   20.5830 N   0  0  0  0  0  0
  -22.0374  -12.8203   22.0452 N   0  0  0  0  0  0
  -25.3765  -15.1872   20.3775 N   0  0  0  0  0  0
  -31.8207  -14.8204   20.0603 O   0  0  0  0  0  0
  -21.6634   -6.8881   21.4255 O   0  0  0  0  0  0
  -22.3409  -14.5455   20.6695 O   0  0  0  0  0  0
  -24.6313  -31.8570   23.1987 C   0  0  0  0  0  0
  -25.9133  -32.4774   23.8341 C   0  0  1  0  0  0
  -27.2257  -27.2526   20.1268 C   0  0  0  0  0  0
  -25.5928  -33.8581   24.2255 N   0  0  0  0  0  0
  -23.4302  -30.4784   21.5433 C   0  0  2  0  0  0
  -24.8797  -28.9286   20.1115 C   0  0  0  0  0  0
  -22.7507  -29.4607   22.4915 C   0  0  0  0  0  0
  -18.0289  -28.1405   22.8497 C   0  0  0  0  0  0
  -24.1489  -36.7270   23.2638 C   0  0  0  0  0  0
  -25.9789  -30.7656   21.3833 C   0  0  0  0  0  0
  -26.0530  -29.3879   20.7232 C   0  0  0  0  0  0
  -27.2275  -28.5628   20.7212 C   0  0  0  0  0  0
  -26.0268  -26.8775   19.4724 C   0  0  0  0  0  0
  -24.8727  -27.6809   19.4749 C   0  0  0  0  0  0
  -23.6507  -29.8153   20.1594 C   0  0  0  0  0  0
  -25.4122  -36.3072   24.0322 C   0  0  1  0  0  0
  -20.5893  -28.3717   23.1271 C   0  0  2  0  0  0
  -20.6787  -26.9442   22.5414 C   0  0  0  0  0  0
  -19.5754  -26.6401   21.5224 C   0  0  0  0  0  0
  -18.1932  -26.7947   22.1636 C   0  0  0  0  0  0
  -19.1546  -28.8881   23.2878 C   0  0  0  0  0  0
  -18.9462  -30.1478   23.8901 C   0  0  0  0  0  0
  -17.6464  -30.6606   24.0572 C   0  0  0  0  0  0
  -25.9064  -34.9449   23.5088 C   0  0  0  0  0  0
  -16.5353  -29.9106   23.6340 C   0  0  0  0  0  0
  -16.7278  -28.6524   23.0362 C   0  0  0  0  0  0
  -26.4507  -31.6592   25.0727 C   0  0  0  0  0  0
  -25.3716  -31.3745   26.1432 C   0  0  0  0  0  0
  -27.0357  -30.3006   24.6221 C   0  0  0  0  0  0
  -27.6061  -32.4341   25.7503 C   0  0  0  0  0  0
  -27.5575  -37.1793   24.8469 C   0  0  0  0  0  0
  -21.4215  -29.3042   22.3651 N   0  0  0  0  0  0
  -26.4287  -37.3774   23.9410 N   0  0  0  0  0  0
  -24.6991  -31.0511   22.0984 N   0  0  0  0  0  0
  -23.4207  -28.8160   23.3026 O   0  0  0  0  0  0
  -28.3048  -26.3287   20.2036 O   0  0  0  0  0  0
  -26.5639  -34.8922   22.4658 O   0  0  0  0  0  0
  -23.5447  -32.1397   23.7255 O   0  0  0  0  0  0
  -30.2803  -23.8870   20.8409 C   0  0  0  0  0  0
  -28.6405  -22.2602   20.1778 C   0  0  0  0  0  0
  -31.1142  -22.7871   21.1440 C   0  0  0  0  0  0
  -28.9856  -23.6642   20.3370 C   0  0  0  0  0  0
  -29.5423  -21.1801   20.5128 C   0  0  0  0  0  0
  -28.0212  -17.1101   21.0823 C   0  0  0  0  0  0
  -28.0017  -24.8656   19.9676 C   0  0  0  0  0  0
  -30.0722  -18.5725   20.7607 C   0  0  0  0  0  0
  -29.4455  -17.0898   20.5123 C   0  0  2  0  0  0
  -30.7643  -21.4815   20.9908 N   0  0  0  0  0  0
  -29.2285  -19.7746   20.3632 N   0  0  0  0  0  0
  -30.1181  -15.8502   21.1099 N   0  0  0  0  0  0
  -31.4749  -12.5559   19.1956 H   0  0  0  0  0  0
  -30.3532  -11.4891   19.9808 H   0  0  0  0  0  0
  -29.8054  -11.7603   17.5272 H   0  0  0  0  0  0
  -29.6473  -13.4845   17.7480 H   0  0  0  0  0  0
  -27.8984  -11.2993   18.9181 H   0  0  0  0  0  0
  -27.3904  -12.5402   17.8041 H   0  0  0  0  0  0
  -27.6356  -14.2707   19.4835 H   0  0  0  0  0  0
  -28.7177  -12.1970   21.4421 H   0  0  0  0  0  0
  -28.4240  -13.8796   21.7998 H   0  0  0  0  0  0
  -25.2762   -9.5656   22.4759 H   0  0  0  0  0  0
  -23.9997   -7.4611   22.7471 H   0  0  0  0  0  0
  -21.0846   -8.8785   19.8953 H   0  0  0  0  0  0
  -22.3716  -10.9668   19.6171 H   0  0  0  0  0  0
  -21.2009   -7.6132   23.9733 H   0  0  0  0  0  0
  -21.1489   -6.0497   25.9091 H   0  0  0  0  0  0
  -22.0589   -2.7604   23.2829 H   0  0  0  0  0  0
  -22.3966  -11.9904   22.4910 H   0  0  0  0  0  0
  -21.0994  -13.1274   22.2633 H   0  0  0  0  0  0
  -24.5966  -15.8264   20.4868 H   0  0  0  0  0  0
  -26.2215  -15.6411   20.0569 H   0  0  0  0  0  0
  -26.7204  -32.5435   23.1086 H   0  0  0  0  0  0
  -25.0074  -33.9753   25.0398 H   0  0  0  0  0  0
  -22.7276  -31.3011   21.3954 H   0  0  0  0  0  0
  -23.3754  -35.9593   23.3306 H   0  0  0  0  0  0
  -24.3562  -36.8897   22.2046 H   0  0  0  0  0  0
  -23.7248  -37.6474   23.6666 H   0  0  0  0  0  0
  -26.1168  -31.5255   20.6126 H   0  0  0  0  0  0
  -26.8566  -30.8194   22.0160 H   0  0  0  0  0  0
  -28.1221  -28.9078   21.2207 H   0  0  0  0  0  0
  -25.9373  -25.9314   18.9626 H   0  0  0  0  0  0
  -23.9778  -27.3237   18.9824 H   0  0  0  0  0  0
  -23.7764  -30.5925   19.4040 H   0  0  0  0  0  0
  -22.7717  -29.2452   19.8544 H   0  0  0  0  0  0
  -25.1305  -36.1910   25.0813 H   0  0  0  0  0  0
  -20.9978  -28.3298   24.1392 H   0  0  0  0  0  0
  -20.5691  -26.2346   23.3629 H   0  0  0  0  0  0
  -21.6661  -26.7493   22.1199 H   0  0  0  0  0  0
  -19.6924  -25.6303   21.1278 H   0  0  0  0  0  0
  -19.6673  -27.3204   20.6740 H   0  0  0  0  0  0
  -17.4209  -26.6696   21.4032 H   0  0  0  0  0  0
  -18.0317  -26.0098   22.9036 H   0  0  0  0  0  0
  -19.7937  -30.7294   24.2275 H   0  0  0  0  0  0
  -17.5018  -31.6285   24.5169 H   0  0  0  0  0  0
  -15.5354  -30.3009   23.7660 H   0  0  0  0  0  0
  -15.8676  -28.0839   22.7074 H   0  0  0  0  0  0
  -24.5900  -30.7102   25.7737 H   0  0  0  0  0  0
  -24.8887  -32.2916   26.4815 H   0  0  0  0  0  0
  -25.7998  -30.8939   27.0237 H   0  0  0  0  0  0
  -26.2949  -29.6759   24.1219 H   0  0  0  0  0  0
  -27.4014  -29.7265   25.4743 H   0  0  0  0  0  0
  -27.8837  -30.4272   23.9488 H   0  0  0  0  0  0
  -27.2672  -33.3653   26.2051 H   0  0  0  0  0  0
  -28.3875  -32.6891   25.0335 H   0  0  0  0  0  0
  -28.0727  -31.8493   26.5439 H   0  0  0  0  0  0
  -28.2600  -38.0082   24.7511 H   0  0  0  0  0  0
  -28.1066  -36.2617   24.6298 H   0  0  0  0  0  0
  -27.2294  -37.1449   25.8873 H   0  0  0  0  0  0
  -20.9408  -29.8745   21.6834 H   0  0  0  0  0  0
  -26.0157  -38.2844   24.1410 H   0  0  0  0  0  0
  -30.6397  -24.8947   20.9996 H   0  0  0  0  0  0
  -27.6609  -22.0212   19.7880 H   0  0  0  0  0  0
  -32.1097  -22.9636   21.5254 H   0  0  0  0  0  0
  -28.0081  -17.5238   22.0911 H   0  0  0  0  0  0
  -27.6140  -16.1077   21.1547 H   0  0  0  0  0  0
  -27.3418  -17.7059   20.4714 H   0  0  0  0  0  0
  -27.7992  -24.7483   18.9023 H   0  0  0  0  0  0
  -27.0717  -24.6274   20.4852 H   0  0  0  0  0  0
  -31.0314  -18.6451   20.2470 H   0  0  0  0  0  0
  -30.3035  -18.6810   21.8221 H   0  0  0  0  0  0
  -29.3807  -16.9270   19.4360 H   0  0  0  0  0  0
  -28.2912  -19.5545   20.0440 H   0  0  0  0  0  0
  -30.7635  -16.1642   21.8207 H   0  0  0  0  0  0
  1 25  1  0  0  0
  1 30  2  0  0  0
  1 82  1  0  0  0
  2  3  1  0  0  0
  2 25  1  0  0  0
  2 83  1  0  0  0
  2 84  1  0  0  0
  3  4  1  0  0  0
  3 85  1  0  0  0
  3 86  1  0  0  0
  4  5  1  0  0  0
  4 87  1  0  0  0
  4 88  1  0  0  0
  5  6  1  0  0  0
  5 26  1  0  0  0
  5 89  1  0  0  0
  6 25  1  0  0  0
  6 90  1  0  0  0
  6 91  1  0  0  0
  7  8  2  0  0  0
  7 26  1  0  0  0
  7 29  1  0  0  0
  8  9  1  0  0  0
  8 22  1  0  0  0
  9 10  1  0  0  0
  9 27  2  0  0  0
 10 11  2  0  0  0
 10 15  1  0  0  0
 11 12  1  0  0  0
 11 92  1  0  0  0
 12 13  2  0  0  0
 12 93  1  0  0  0
 13 14  1  0  0  0
 13 31  1  0  0  0
 14 15  2  0  0  0
 14 94  1  0  0  0
 15 95  1  0  0  0
 16 17  2  0  0  0
 16 21  1  0  0  0
 16 31  1  0  0  0
 17 18  1  0  0  0
 17 96  1  0  0  0
 18 19  2  0  0  0
 18 97  1  0  0  0
 19 20  1  0  0  0
 19 24  1  0  0  0
 20 21  2  0  0  0
 20 98  1  0  0  0
 21 23  1  0  0  0
 22 28  1  0  0  0
 22 32  2  0  0  0
 26 27  1  0  0  0
 28 99  1  0  0  0
 28100  1  0  0  0
 29101  1  0  0  0
 29102  1  0  0  0
 33 34  1  0  0  0
 33 66  1  0  0  0
 33 70  2  0  0  0
 34 36  1  0  0  0
 34 59  1  0  0  0
 34103  1  0  0  0
 35 44  2  0  0  0
 35 45  1  0  0  0
 35 68  1  0  0  0
 36 56  1  0  0  0
 36104  1  0  0  0
 37 39  1  0  0  0
 37 47  1  0  0  0
 37 66  1  0  0  0
 37105  1  0  0  0
 38 43  2  0  0  0
 38 46  1  0  0  0
 38 47  1  0  0  0
 39 64  1  0  0  0
 39 67  2  0  0  0
 40 52  1  0  0  0
 40 53  2  0  0  0
 40 58  1  0  0  0
 41106  1  0  0  0
 41107  1  0  0  0
 41108  1  0  0  0
 41 48  1  0  0  0
 42 43  1  0  0  0
 42 66  1  0  0  0
 42109  1  0  0  0
 42110  1  0  0  0
 43 44  1  0  0  0
 44111  1  0  0  0
 45 46  2  0  0  0
 45112  1  0  0  0
 46113  1  0  0  0
 47114  1  0  0  0
 47115  1  0  0  0
 48 56  1  0  0  0
 48 65  1  0  0  0
 48116  1  0  0  0
 49 50  1  0  0  0
 49 53  1  0  0  0
 49 64  1  0  0  0
 49117  1  0  0  0
 50 51  1  0  0  0
 50118  1  0  0  0
 50119  1  0  0  0
 51 52  1  0  0  0
 51120  1  0  0  0
 51121  1  0  0  0
 52122  1  0  0  0
 52123  1  0  0  0
 53 54  1  0  0  0
 54 55  2  0  0  0
 54124  1  0  0  0
 55 57  1  0  0  0
 55125  1  0  0  0
 56 69  2  0  0  0
 57 58  2  0  0  0
 57126  1  0  0  0
 58127  1  0  0  0
 59 60  1  0  0  0
 59 61  1  0  0  0
 59 62  1  0  0  0
 60128  1  0  0  0
 60129  1  0  0  0
 60130  1  0  0  0
 61131  1  0  0  0
 61132  1  0  0  0
 61133  1  0  0  0
 62134  1  0  0  0
 62135  1  0  0  0
 62136  1  0  0  0
 63 65  1  0  0  0
 63137  1  0  0  0
 63138  1  0  0  0
 63139  1  0  0  0
 64140  1  0  0  0
 65141  1  0  0  0
 68 77  1  0  0  0
 71 73  2  0  0  0
 71 74  1  0  0  0
 71142  1  0  0  0
 72 74  2  0  0  0
 72 75  1  0  0  0
 72143  1  0  0  0
 73 80  1  0  0  0
 73144  1  0  0  0
 74 77  1  0  0  0
 75 80  2  0  0  0
 75 81  1  0  0  0
 76145  1  0  0  0
 76146  1  0  0  0
 76147  1  0  0  0
 76 79  1  0  0  0
 77148  1  0  0  0
 77149  1  0  0  0
 78 79  1  0  0  0
 78 81  1  0  0  0
 78150  1  0  0  0
 78151  1  0  0  0
 79 82  1  0  0  0
 79152  1  0  0  0
 81153  1  0  0  0
 82154  1  0  0  0
M  ISO  4   1 100  68 101  77 101  82 100
M  END
> <chiral flag>
0

> <version>
0

> <s_m_source_file>
/data/baiqing/PycharmProjects/Reinvent-master-3.2/result/LINK_invent/BTK/process_docking_weight1_custom_sum_contain_oxygen_bond_distance_aromatic_linkinvent_7_9_3/rearranged_h_0128.sdf

> <i_m_source_file_index>
96

> <r_mmod_Potential_Energy-OPLS-2005>
-59.9800071716309

> <r_mmod_Stretch_Energy-OPLS-2005>
122.851951599121

> <r_mmod_Bend_Energy-OPLS-2005>
192.068710327148

> <r_mmod_Torsional_Energy-OPLS-2005>
267.222076416016

> <r_mmod_Improper_Torsional_Energy-OPLS-2005>
6.1516432762146

> <r_mmod_Van_der_Waal_Energy-OPLS-2005>
143.395629882812

> <r_mmod_Electrostatic_Energy-OPLS-2005>
-642.164489746094

> <r_mmod_Solvation_Energy-OPLS-2005>
-237.033935546875

> <b_mmod_Minimization_Converged-OPLS-2005>
0

> <r_mmod_RMS_Derivative-OPLS-2005>
2.19130420684814

$$$$
96
                    3D
 Structure written by MMmdl.
180190  0  0  1  0            999 V2000
  -30.7020  -14.5044   20.5004 C   0  0  0  0  0  0
  -30.4195  -12.2841   19.4865 C   0  0  0  0  0  0
  -29.5207  -12.4431   18.2434 C   0  0  0  0  0  0
  -28.0294  -12.3509   18.6236 C   0  0  0  0  0  0
  -27.6600  -13.2118   19.8636 C   0  0  2  0  0  0
  -28.6936  -13.0510   21.0049 C   0  0  0  0  0  0
  -25.2582  -13.8183   20.5666 C   0  0  0  0  0  0
  -24.1840  -13.0455   20.9200 C   0  0  0  0  0  0
  -24.6384  -11.6925   20.8746 C   0  0  0  0  0  0
  -23.9035  -10.4319   21.0397 C   0  0  0  0  0  0
  -24.3604   -9.4227   21.9161 C   0  0  0  0  0  0
  -23.6305   -8.2244   22.0746 C   0  0  0  0  0  0
  -22.4280   -8.0293   21.3533 C   0  0  0  0  0  0
  -21.9899   -9.0281   20.4648 C   0  0  0  0  0  0
  -22.7201  -10.2167   20.3049 C   0  0  0  0  0  0
  -21.6880   -6.0729   22.5275 C   0  0  0  0  0  0
  -21.4027   -6.5634   23.8210 C   0  0  0  0  0  0
  -21.3687   -5.6768   24.9172 C   0  0  0  0  0  0
  -21.6053   -4.3036   24.7205 C   0  0  0  0  0  0
  -21.8808   -3.8131   23.4325 C   0  0  0  0  0  0
  -21.9209   -4.6959   22.3396 C   0  0  0  0  0  0
  -22.7856  -13.5295   21.1851 C   0  0  0  0  0  0
  -22.1642   -4.2121   21.0960 F   0  0  0  0  0  0
  -21.5649   -3.4531   25.7714 F   0  0  0  0  0  0
  -30.0305  -13.3198   20.4536 N   0  0  0  0  0  0
  -26.2998  -12.9350   20.3261 N   0  0  0  0  0  0
  -25.9319  -11.6530   20.5787 N   0  0  0  0  0  0
  -22.0431  -12.8369   22.0410 N   0  0  0  0  0  0
  -25.4352  -15.1902   20.4109 N   0  0  0  0  0  0
  -31.8612  -14.6208   20.1014 O   0  0  0  0  0  0
  -21.6646   -6.8900   21.4244 O   0  0  0  0  0  0
  -22.3575  -14.5584   20.6632 O   0  0  0  0  0  0
  -24.6088  -31.8712   23.2117 C   0  0  0  0  0  0
  -25.9003  -32.4836   23.8410 C   0  0  1  0  0  0
  -27.2510  -27.4629   20.1300 C   0  0  0  0  0  0
  -25.5880  -33.8632   24.2360 N   0  0  0  0  0  0
  -23.3975  -30.4935   21.5461 C   0  0  2  0  0  0
  -24.8546  -28.9583   20.1184 C   0  0  0  0  0  0
  -22.7385  -29.4682   22.4963 C   0  0  0  0  0  0
  -18.0279  -28.1361   22.8473 C   0  0  0  0  0  0
  -24.1483  -36.7323   23.2647 C   0  0  0  0  0  0
  -25.9189  -30.8504   21.3557 C   0  0  0  0  0  0
  -26.0050  -29.4771   20.7269 C   0  0  0  0  0  0
  -27.2043  -28.7339   20.7440 C   0  0  0  0  0  0
  -26.0923  -26.9592   19.5066 C   0  0  0  0  0  0
  -24.8904  -27.6930   19.5063 C   0  0  0  0  0  0
  -23.6100  -29.8184   20.1614 C   0  0  0  0  0  0
  -25.4098  -36.3127   24.0361 C   0  0  1  0  0  0
  -20.5867  -28.3662   23.1303 C   0  0  2  0  0  0
  -20.6755  -26.9397   22.5403 C   0  0  0  0  0  0
  -19.5752  -26.6397   21.5181 C   0  0  0  0  0  0
  -18.1928  -26.7917   22.1583 C   0  0  0  0  0  0
  -19.1523  -28.8824   23.2894 C   0  0  0  0  0  0
  -18.9454  -30.1425   23.8913 C   0  0  0  0  0  0
  -17.6458  -30.6574   24.0570 C   0  0  0  0  0  0
  -25.9016  -34.9489   23.5159 C   0  0  0  0  0  0
  -16.5351  -29.9081   23.6311 C   0  0  0  0  0  0
  -16.7271  -28.6494   23.0339 C   0  0  0  0  0  0
  -26.4473  -31.6577   25.0695 C   0  0  0  0  0  0
  -25.3795  -31.3676   26.1495 C   0  0  0  0  0  0
  -27.0282  -30.3035   24.5987 C   0  0  0  0  0  0
  -27.6116  -32.4253   25.7402 C   0  0  0  0  0  0
  -27.5584  -37.1807   24.8470 C   0  0  0  0  0  0
  -21.4120  -29.3044   22.3701 N   0  0  0  0  0  0
  -26.4294  -37.3798   23.9419 N   0  0  0  0  0  0
  -24.6601  -31.0866   22.0979 N   0  0  0  0  0  0
  -23.4169  -28.8243   23.3007 O   0  0  0  0  0  0
  -28.3895  -26.6948   20.0633 O   0  0  0  0  0  0
  -26.5568  -34.8938   22.4713 O   0  0  0  0  0  0
  -23.5296  -32.1429   23.7545 O   0  0  0  0  0  0
  -31.4084  -18.9891   20.7084 C   0  0  0  0  0  0
  -31.1350  -20.1304   21.4046 C   0  0  0  0  0  0
  -29.3580  -18.7878   21.5581 C   0  0  0  0  0  0
  -30.2690  -18.1381   20.7635 C   0  0  0  0  0  0
  -34.6002  -24.1378   20.2750 C   0  0  0  0  0  0
  -33.9138  -25.3389   19.6797 C   0  0  0  0  0  0
  -28.3036  -24.1302   21.7578 C   0  0  0  0  0  0
  -28.3676  -25.5836   22.2538 C   0  0  0  0  0  0
  -30.4485  -25.7532   20.7870 C   0  0  0  0  0  0
  -33.3813  -24.7203   20.9589 C   0  0  0  0  0  0
  -29.6979  -23.4466   21.6987 C   0  0  1  0  0  0
  -30.8602  -24.4995   21.6059 C   0  0  1  0  0  0
  -29.1526  -26.4634   21.2573 C   0  0  1  0  0  0
  -28.9567  -17.0099   18.9549 C   0  0  0  0  0  0
  -28.7653  -20.4868   24.0986 C   0  0  0  0  0  0
  -32.1378  -23.8492   21.0142 C   0  0  0  0  0  0
  -29.8647  -22.4343   22.8746 C   0  0  0  0  0  0
  -30.1086  -16.8540   19.9583 C   0  0  2  0  0  0
  -29.1326  -21.0592   22.7165 C   0  0  1  0  0  0
  -29.8577  -20.0371   21.9279 N   0  0  0  0  0  0
  -29.9365  -15.5947   20.7135 N   0  0  0  0  0  0
  -31.4717  -12.3405   19.2058 H   0  0  0  0  0  0
  -30.2928  -11.2963   19.9336 H   0  0  0  0  0  0
  -29.7688  -11.6657   17.5203 H   0  0  0  0  0  0
  -29.7258  -13.3967   17.7559 H   0  0  0  0  0  0
  -27.8114  -11.3031   18.8218 H   0  0  0  0  0  0
  -27.4170  -12.6328   17.7682 H   0  0  0  0  0  0
  -27.6880  -14.2500   19.5381 H   0  0  0  0  0  0
  -28.6604  -12.0437   21.4221 H   0  0  0  0  0  0
  -28.4640  -13.7196   21.8333 H   0  0  0  0  0  0
  -25.2754   -9.5745   22.4737 H   0  0  0  0  0  0
  -24.0026   -7.4678   22.7504 H   0  0  0  0  0  0
  -21.0801   -8.8809   19.9020 H   0  0  0  0  0  0
  -22.3633  -10.9711   19.6177 H   0  0  0  0  0  0
  -21.1991   -7.6132   23.9713 H   0  0  0  0  0  0
  -21.1541   -6.0483   25.9077 H   0  0  0  0  0  0
  -22.0575   -2.7589   23.2799 H   0  0  0  0  0  0
  -22.3975  -12.0082   22.4948 H   0  0  0  0  0  0
  -21.1063  -13.1515   22.2530 H   0  0  0  0  0  0
  -24.6720  -15.8479   20.5383 H   0  0  0  0  0  0
  -26.2828  -15.6259   20.0731 H   0  0  0  0  0  0
  -26.7075  -32.5597   23.1191 H   0  0  0  0  0  0
  -25.0071  -33.9784   25.0535 H   0  0  0  0  0  0
  -22.6839  -31.3093   21.4026 H   0  0  0  0  0  0
  -23.3725  -35.9675   23.3348 H   0  0  0  0  0  0
  -24.3579  -36.8879   22.2051 H   0  0  0  0  0  0
  -23.7247  -37.6560   23.6609 H   0  0  0  0  0  0
  -26.0067  -31.6025   20.5700 H   0  0  0  0  0  0
  -26.8149  -30.9297   21.9576 H   0  0  0  0  0  0
  -28.0860  -29.1496   21.2108 H   0  0  0  0  0  0
  -26.1236  -25.9898   19.0335 H   0  0  0  0  0  0
  -24.0097  -27.2841   19.0301 H   0  0  0  0  0  0
  -23.7142  -30.5885   19.3966 H   0  0  0  0  0  0
  -22.7366  -29.2328   19.8681 H   0  0  0  0  0  0
  -25.1262  -36.2013   25.0851 H   0  0  0  0  0  0
  -20.9976  -28.3241   24.1422 H   0  0  0  0  0  0
  -20.5630  -26.2283   23.3600 H   0  0  0  0  0  0
  -21.6638  -26.7432   22.1232 H   0  0  0  0  0  0
  -19.6931  -25.6327   21.1183 H   0  0  0  0  0  0
  -19.6703  -27.3232   20.6735 H   0  0  0  0  0  0
  -17.4214  -26.6687   21.3975 H   0  0  0  0  0  0
  -18.0330  -26.0043   22.8961 H   0  0  0  0  0  0
  -19.7939  -30.7217   24.2301 H   0  0  0  0  0  0
  -17.5032  -31.6251   24.5180 H   0  0  0  0  0  0
  -15.5360  -30.2995   23.7629 H   0  0  0  0  0  0
  -15.8670  -28.0832   22.7033 H   0  0  0  0  0  0
  -24.5989  -30.6959   25.7888 H   0  0  0  0  0  0
  -24.8949  -32.2824   26.4923 H   0  0  0  0  0  0
  -25.8219  -30.8914   27.0254 H   0  0  0  0  0  0
  -26.2759  -29.6752   24.1190 H   0  0  0  0  0  0
  -27.4262  -29.7297   25.4365 H   0  0  0  0  0  0
  -27.8504  -30.4377   23.8952 H   0  0  0  0  0  0
  -27.2805  -33.3540   26.2047 H   0  0  0  0  0  0
  -28.3867  -32.6803   25.0166 H   0  0  0  0  0  0
  -28.0842  -31.8316   26.5233 H   0  0  0  0  0  0
  -28.2646  -38.0061   24.7471 H   0  0  0  0  0  0
  -28.1029  -36.2597   24.6331 H   0  0  0  0  0  0
  -27.2317  -37.1518   25.8880 H   0  0  0  0  0  0
  -20.9265  -29.8777   21.6940 H   0  0  0  0  0  0
  -26.0201  -38.2889   24.1402 H   0  0  0  0  0  0
  -32.3218  -18.8101   20.1575 H   0  0  0  0  0  0
  -31.7516  -21.0036   21.5432 H   0  0  0  0  0  0
  -28.3561  -18.4912   21.8527 H   0  0  0  0  0  0
  -35.5643  -24.2842   20.7585 H   0  0  0  0  0  0
  -34.4868  -23.1947   19.7417 H   0  0  0  0  0  0
  -33.3743  -25.1800   18.7474 H   0  0  0  0  0  0
  -34.4458  -26.2854   19.7508 H   0  0  0  0  0  0
  -27.8655  -24.1364   20.7576 H   0  0  0  0  0  0
  -27.6067  -23.5592   22.3720 H   0  0  0  0  0  0
  -28.8535  -25.6113   23.2317 H   0  0  0  0  0  0
  -27.3687  -25.9892   22.4246 H   0  0  0  0  0  0
  -30.3286  -25.4442   19.7491 H   0  0  0  0  0  0
  -31.2565  -26.4857   20.7735 H   0  0  0  0  0  0
  -33.5759  -25.2760   21.8755 H   0  0  0  0  0  0
  -29.7157  -22.8673   20.7758 H   0  0  0  0  0  0
  -31.0885  -24.8349   22.6179 H   0  0  0  0  0  0
  -29.4105  -27.4065   21.7386 H   0  0  0  0  0  0
  -29.1300  -17.8518   18.2818 H   0  0  0  0  0  0
  -28.0074  -17.1860   19.4610 H   0  0  0  0  0  0
  -28.8501  -16.1240   18.3269 H   0  0  0  0  0  0
  -28.0827  -21.1555   24.6277 H   0  0  0  0  0  0
  -29.6454  -20.3542   24.7263 H   0  0  0  0  0  0
  -28.2673  -19.5212   24.0140 H   0  0  0  0  0  0
  -32.4122  -22.9924   21.6213 H   0  0  0  0  0  0
  -31.9301  -23.4671   20.0128 H   0  0  0  0  0  0
  -29.4920  -22.9314   23.7723 H   0  0  0  0  0  0
  -30.9145  -22.2660   23.1039 H   0  0  0  0  0  0
  -31.0164  -16.7909   19.3543 H   0  0  0  0  0  0
  -28.1900  -21.2382   22.1966 H   0  0  0  0  0  0
  -29.0157  -15.4189   21.0815 H   0  0  0  0  0  0
  1 25  1  0  0  0
  1 30  2  0  0  0
  1 91  1  0  0  0
  2  3  1  0  0  0
  2 25  1  0  0  0
  2 92  1  0  0  0
  2 93  1  0  0  0
  3  4  1  0  0  0
  3 94  1  0  0  0
  3 95  1  0  0  0
  4  5  1  0  0  0
  4 96  1  0  0  0
  4 97  1  0  0  0
  5  6  1  0  0  0
  5 26  1  0  0  0
  5 98  1  0  0  0
  6 25  1  0  0  0
  6 99  1  0  0  0
  6100  1  0  0  0
  7  8  2  0  0  0
  7 26  1  0  0  0
  7 29  1  0  0  0
  8  9  1  0  0  0
  8 22  1  0  0  0
  9 10  1  0  0  0
  9 27  2  0  0  0
 10 11  2  0  0  0
 10 15  1  0  0  0
 11 12  1  0  0  0
 11101  1  0  0  0
 12 13  2  0  0  0
 12102  1  0  0  0
 13 14  1  0  0  0
 13 31  1  0  0  0
 14 15  2  0  0  0
 14103  1  0  0  0
 15104  1  0  0  0
 16 17  2  0  0  0
 16 21  1  0  0  0
 16 31  1  0  0  0
 17 18  1  0  0  0
 17105  1  0  0  0
 18 19  2  0  0  0
 18106  1  0  0  0
 19 20  1  0  0  0
 19 24  1  0  0  0
 20 21  2  0  0  0
 20107  1  0  0  0
 21 23  1  0  0  0
 22 28  1  0  0  0
 22 32  2  0  0  0
 26 27  1  0  0  0
 28108  1  0  0  0
 28109  1  0  0  0
 29110  1  0  0  0
 29111  1  0  0  0
 33 34  1  0  0  0
 33 66  1  0  0  0
 33 70  2  0  0  0
 34 36  1  0  0  0
 34 59  1  0  0  0
 34112  1  0  0  0
 35 44  2  0  0  0
 35 45  1  0  0  0
 35 68  1  0  0  0
 36 56  1  0  0  0
 36113  1  0  0  0
 37 39  1  0  0  0
 37 47  1  0  0  0
 37 66  1  0  0  0
 37114  1  0  0  0
 38 43  2  0  0  0
 38 46  1  0  0  0
 38 47  1  0  0  0
 39 64  1  0  0  0
 39 67  2  0  0  0
 40 52  1  0  0  0
 40 53  2  0  0  0
 40 58  1  0  0  0
 41115  1  0  0  0
 41116  1  0  0  0
 41117  1  0  0  0
 41 48  1  0  0  0
 42 43  1  0  0  0
 42 66  1  0  0  0
 42118  1  0  0  0
 42119  1  0  0  0
 43 44  1  0  0  0
 44120  1  0  0  0
 45 46  2  0  0  0
 45121  1  0  0  0
 46122  1  0  0  0
 47123  1  0  0  0
 47124  1  0  0  0
 48 56  1  0  0  0
 48 65  1  0  0  0
 48125  1  0  0  0
 49 50  1  0  0  0
 49 53  1  0  0  0
 49 64  1  0  0  0
 49126  1  0  0  0
 50 51  1  0  0  0
 50127  1  0  0  0
 50128  1  0  0  0
 51 52  1  0  0  0
 51129  1  0  0  0
 51130  1  0  0  0
 52131  1  0  0  0
 52132  1  0  0  0
 53 54  1  0  0  0
 54 55  2  0  0  0
 54133  1  0  0  0
 55 57  1  0  0  0
 55134  1  0  0  0
 56 69  2  0  0  0
 57 58  2  0  0  0
 57135  1  0  0  0
 58136  1  0  0  0
 59 60  1  0  0  0
 59 61  1  0  0  0
 59 62  1  0  0  0
 60137  1  0  0  0
 60138  1  0  0  0
 60139  1  0  0  0
 61140  1  0  0  0
 61141  1  0  0  0
 61142  1  0  0  0
 62143  1  0  0  0
 62144  1  0  0  0
 62145  1  0  0  0
 63 65  1  0  0  0
 63146  1  0  0  0
 63147  1  0  0  0
 63148  1  0  0  0
 64149  1  0  0  0
 65150  1  0  0  0
 68 83  1  0  0  0
 71 72  2  0  0  0
 71 74  1  0  0  0
 71151  1  0  0  0
 72 90  1  0  0  0
 72152  1  0  0  0
 73 74  2  0  0  0
 73 90  1  0  0  0
 73153  1  0  0  0
 74 88  1  0  0  0
 75 76  1  0  0  0
 75 80  1  0  0  0
 75154  1  0  0  0
 75155  1  0  0  0
 76 80  1  0  0  0
 76156  1  0  0  0
 76157  1  0  0  0
 77 78  1  0  0  0
 77 81  1  0  0  0
 77158  1  0  0  0
 77159  1  0  0  0
 78 83  1  0  0  0
 78160  1  0  0  0
 78161  1  0  0  0
 79 82  1  0  0  0
 79 83  1  0  0  0
 79162  1  0  0  0
 79163  1  0  0  0
 80 86  1  0  0  0
 80164  1  0  0  0
 81 82  1  0  0  0
 81 87  1  0  0  0
 81165  1  0  0  0
 82 86  1  0  0  0
 82166  1  0  0  0
 83167  1  0  0  0
 84168  1  0  0  0
 84169  1  0  0  0
 84170  1  0  0  0
 84 88  1  0  0  0
 85171  1  0  0  0
 85172  1  0  0  0
 85173  1  0  0  0
 85 89  1  0  0  0
 86174  1  0  0  0
 86175  1  0  0  0
 87 89  1  0  0  0
 87176  1  0  0  0
 87177  1  0  0  0
 88 91  1  0  0  0
 88178  1  0  0  0
 89 90  1  0  0  0
 89179  1  0  0  0
 91180  1  0  0  0
M  ISO  4   1 100  68 101  83 101  91 100
M  END
> <chiral flag>
0

> <version>
0

> <s_m_source_file>
/data/baiqing/PycharmProjects/Reinvent-master-3.2/result/LINK_invent/BTK/process_docking_weight1_custom_sum_contain_oxygen_bond_distance_aromatic_linkinvent_7_9_3/rearranged_h_0128.sdf

> <i_m_source_file_index>
97

> <r_mmod_Potential_Energy-OPLS-2005>
58.7401390075684

> <r_mmod_Stretch_Energy-OPLS-2005>
42.9902496337891

> <r_mmod_Bend_Energy-OPLS-2005>
119.005271911621

> <r_mmod_Torsional_Energy-OPLS-2005>
359.493072509766

> <r_mmod_Improper_Torsional_Energy-OPLS-2005>
9.91296005249023

> <r_mmod_Van_der_Waal_Energy-OPLS-2005>
127.482383728027

> <r_mmod_Electrostatic_Energy-OPLS-2005>
-420.399169921875

> <r_mmod_Solvation_Energy-OPLS-2005>
-196.929534912109

> <b_mmod_Minimization_Converged-OPLS-2005>
0

> <r_mmod_RMS_Derivative-OPLS-2005>
5.56694364547729

$$$$
97
                    3D
 Structure written by MMmdl.
165173  0  0  1  0            999 V2000
  -30.7754  -14.3778   20.6824 C   0  0  0  0  0  0
  -30.4130  -12.2999   19.3979 C   0  0  0  0  0  0
  -29.4820  -12.5262   18.1931 C   0  0  0  0  0  0
  -28.0081  -12.3758   18.6117 C   0  0  0  0  0  0
  -27.6632  -13.2057   19.8759 C   0  0  2  0  0  0
  -28.7016  -12.9662   20.9935 C   0  0  0  0  0  0
  -25.2590  -13.8163   20.5672 C   0  0  0  0  0  0
  -24.1839  -13.0441   20.9168 C   0  0  0  0  0  0
  -24.6392  -11.6908   20.8725 C   0  0  0  0  0  0
  -23.9061  -10.4294   21.0401 C   0  0  0  0  0  0
  -24.3614   -9.4211   21.9182 C   0  0  0  0  0  0
  -23.6292   -8.2244   22.0754 C   0  0  0  0  0  0
  -22.4273   -8.0281   21.3544 C   0  0  0  0  0  0
  -21.9906   -9.0253   20.4643 C   0  0  0  0  0  0
  -22.7234  -10.2133   20.3051 C   0  0  0  0  0  0
  -21.6853   -6.0735   22.5280 C   0  0  0  0  0  0
  -21.4014   -6.5640   23.8214 C   0  0  0  0  0  0
  -21.3658   -5.6793   24.9175 C   0  0  0  0  0  0
  -21.6044   -4.3056   24.7226 C   0  0  0  0  0  0
  -21.8819   -3.8148   23.4348 C   0  0  0  0  0  0
  -21.9192   -4.6964   22.3404 C   0  0  0  0  0  0
  -22.7861  -13.5236   21.1840 C   0  0  0  0  0  0
  -22.1660   -4.2155   21.0980 F   0  0  0  0  0  0
  -21.5627   -3.4539   25.7737 F   0  0  0  0  0  0
  -30.0428  -13.2560   20.4524 N   0  0  0  0  0  0
  -26.3027  -12.9334   20.3364 N   0  0  0  0  0  0
  -25.9319  -11.6490   20.5752 N   0  0  0  0  0  0
  -22.0502  -12.8229   22.0395 N   0  0  0  0  0  0
  -25.4320  -15.1882   20.4086 N   0  0  0  0  0  0
  -31.8091  -14.6480   20.0639 O   0  0  0  0  0  0
  -21.6636   -6.8880   21.4242 O   0  0  0  0  0  0
  -22.3550  -14.5548   20.6699 O   0  0  0  0  0  0
  -24.6134  -31.8699   23.2136 C   0  0  0  0  0  0
  -25.9034  -32.4835   23.8422 C   0  0  1  0  0  0
  -27.2284  -27.4422   20.0848 C   0  0  0  0  0  0
  -25.5895  -33.8632   24.2346 N   0  0  0  0  0  0
  -23.3993  -30.4969   21.5546 C   0  0  2  0  0  0
  -24.8422  -28.9692   20.1158 C   0  0  0  0  0  0
  -22.7389  -29.4670   22.4998 C   0  0  0  0  0  0
  -18.0262  -28.1381   22.8503 C   0  0  0  0  0  0
  -24.1488  -36.7322   23.2637 C   0  0  0  0  0  0
  -25.9293  -30.8367   21.3671 C   0  0  0  0  0  0
  -26.0047  -29.4733   20.7120 C   0  0  0  0  0  0
  -27.1990  -28.7168   20.6956 C   0  0  0  0  0  0
  -26.0405  -26.9568   19.4822 C   0  0  0  0  0  0
  -24.8546  -27.7088   19.5006 C   0  0  0  0  0  0
  -23.6056  -29.8353   20.1674 C   0  0  0  0  0  0
  -25.4106  -36.3117   24.0335 C   0  0  1  0  0  0
  -20.5849  -28.3666   23.1326 C   0  0  2  0  0  0
  -20.6751  -26.9407   22.5420 C   0  0  0  0  0  0
  -19.5727  -26.6394   21.5214 C   0  0  0  0  0  0
  -18.1906  -26.7933   22.1626 C   0  0  0  0  0  0
  -19.1512  -28.8840   23.2916 C   0  0  0  0  0  0
  -18.9444  -30.1443   23.8931 C   0  0  0  0  0  0
  -17.6450  -30.6593   24.0566 C   0  0  0  0  0  0
  -25.9036  -34.9477   23.5139 C   0  0  0  0  0  0
  -16.5338  -29.9096   23.6330 C   0  0  0  0  0  0
  -16.7253  -28.6506   23.0364 C   0  0  0  0  0  0
  -26.4467  -31.6604   25.0742 C   0  0  0  0  0  0
  -25.3744  -31.3685   26.1499 C   0  0  0  0  0  0
  -27.0280  -30.3043   24.6109 C   0  0  0  0  0  0
  -27.6062  -32.4306   25.7488 C   0  0  0  0  0  0
  -27.5583  -37.1809   24.8460 C   0  0  0  0  0  0
  -21.4120  -29.3037   22.3737 N   0  0  0  0  0  0
  -26.4291  -37.3800   23.9412 N   0  0  0  0  0  0
  -24.6660  -31.0810   22.1036 N   0  0  0  0  0  0
  -23.4167  -28.8200   23.3026 O   0  0  0  0  0  0
  -28.4062  -26.7160   20.0997 O   0  0  0  0  0  0
  -26.5597  -34.8921   22.4702 O   0  0  0  0  0  0
  -23.5331  -32.1450   23.7535 O   0  0  0  0  0  0
  -31.0067  -20.3783   20.7656 C   0  0  0  0  0  0
  -30.8636  -21.6593   20.1955 C   0  0  0  0  0  0
  -28.6002  -20.0693   20.6526 C   0  0  0  0  0  0
  -28.4466  -21.3433   20.0576 C   0  0  0  0  0  0
  -29.8721  -19.5647   20.9925 C   0  0  0  0  0  0
  -29.5926  -22.1448   19.8285 C   0  0  0  0  0  0
  -26.2036  -22.1222   20.9279 C   0  0  0  0  0  0
  -26.3309  -20.8525   18.7328 C   0  0  0  0  0  0
  -31.1951  -17.5158   21.4841 C   0  0  0  0  0  0
  -31.1157  -16.2242   22.3191 C   0  0  0  0  0  0
  -28.3183  -25.3435   19.7017 C   0  0  0  0  0  0
  -29.5888  -24.5233   19.9728 C   0  0  0  0  0  0
  -27.0483  -21.8293   19.6779 C   0  0  0  0  0  0
  -29.9506  -18.2742   21.5438 N   0  0  0  0  0  0
  -30.3439  -15.1551   21.6841 N   0  0  0  0  0  0
  -29.4964  -23.3460   19.1710 O   0  0  0  0  0  0
  -31.4565  -12.3955   19.0921 H   0  0  0  0  0  0
  -30.3099  -11.2804   19.7730 H   0  0  0  0  0  0
  -29.7178  -11.8201   17.3956 H   0  0  0  0  0  0
  -29.6486  -13.5228   17.7807 H   0  0  0  0  0  0
  -27.8219  -11.3178   18.8004 H   0  0  0  0  0  0
  -27.3525  -12.6574   17.7870 H   0  0  0  0  0  0
  -27.7158  -14.2576   19.5931 H   0  0  0  0  0  0
  -28.6667  -11.9275   21.3252 H   0  0  0  0  0  0
  -28.4460  -13.5578   21.8726 H   0  0  0  0  0  0
  -25.2762   -9.5687   22.4754 H   0  0  0  0  0  0
  -24.0004   -7.4634   22.7473 H   0  0  0  0  0  0
  -21.0839   -8.8770   19.8946 H   0  0  0  0  0  0
  -22.3697  -10.9671   19.6158 H   0  0  0  0  0  0
  -21.2007   -7.6147   23.9721 H   0  0  0  0  0  0
  -21.1479   -6.0521   25.9079 H   0  0  0  0  0  0
  -22.0599   -2.7610   23.2845 H   0  0  0  0  0  0
  -22.4107  -11.9878   22.4766 H   0  0  0  0  0  0
  -21.1125  -13.1263   22.2612 H   0  0  0  0  0  0
  -24.6698  -15.8483   20.5183 H   0  0  0  0  0  0
  -26.2935  -15.6241   20.1031 H   0  0  0  0  0  0
  -26.7104  -32.5540   23.1187 H   0  0  0  0  0  0
  -25.0017  -33.9811   25.0468 H   0  0  0  0  0  0
  -22.6883  -31.3143   21.4197 H   0  0  0  0  0  0
  -23.3753  -35.9652   23.3298 H   0  0  0  0  0  0
  -24.3591  -36.8950   22.2055 H   0  0  0  0  0  0
  -23.7236  -37.6519   23.6663 H   0  0  0  0  0  0
  -26.0452  -31.6049   20.6010 H   0  0  0  0  0  0
  -26.8159  -30.8853   21.9872 H   0  0  0  0  0  0
  -28.0959  -29.1043   21.1590 H   0  0  0  0  0  0
  -25.9958  -25.9995   18.9846 H   0  0  0  0  0  0
  -23.9613  -27.3141   19.0351 H   0  0  0  0  0  0
  -23.7128  -30.6125   19.4102 H   0  0  0  0  0  0
  -22.7298  -29.2553   19.8708 H   0  0  0  0  0  0
  -25.1283  -36.1989   25.0827 H   0  0  0  0  0  0
  -20.9928  -28.3234   24.1450 H   0  0  0  0  0  0
  -20.5650  -26.2274   23.3604 H   0  0  0  0  0  0
  -21.6627  -26.7452   22.1219 H   0  0  0  0  0  0
  -19.6885  -25.6310   21.1232 H   0  0  0  0  0  0
  -19.6662  -27.3213   20.6753 H   0  0  0  0  0  0
  -17.4170  -26.6685   21.4031 H   0  0  0  0  0  0
  -18.0308  -26.0070   22.9018 H   0  0  0  0  0  0
  -19.7917  -30.7247   24.2318 H   0  0  0  0  0  0
  -17.5007  -31.6274   24.5164 H   0  0  0  0  0  0
  -15.5343  -30.3008   23.7645 H   0  0  0  0  0  0
  -15.8649  -28.0828   22.7080 H   0  0  0  0  0  0
  -24.5917  -30.7040   25.7827 H   0  0  0  0  0  0
  -24.8936  -32.2821   26.5001 H   0  0  0  0  0  0
  -25.8108  -30.8810   27.0227 H   0  0  0  0  0  0
  -26.2806  -29.6814   24.1177 H   0  0  0  0  0  0
  -27.4060  -29.7272   25.4560 H   0  0  0  0  0  0
  -27.8650  -30.4363   23.9247 H   0  0  0  0  0  0
  -27.2725  -33.3615   26.2084 H   0  0  0  0  0  0
  -28.3860  -32.6846   25.0297 H   0  0  0  0  0  0
  -28.0745  -31.8412   26.5384 H   0  0  0  0  0  0
  -28.2591  -38.0113   24.7529 H   0  0  0  0  0  0
  -28.1088  -36.2650   24.6261 H   0  0  0  0  0  0
  -27.2305  -37.1434   25.8861 H   0  0  0  0  0  0
  -20.9267  -29.8792   21.6999 H   0  0  0  0  0  0
  -26.0182  -38.2876   24.1424 H   0  0  0  0  0  0
  -32.0026  -20.0458   21.0146 H   0  0  0  0  0  0
  -31.7429  -22.2595   20.0119 H   0  0  0  0  0  0
  -27.7226  -19.4650   20.8321 H   0  0  0  0  0  0
  -26.6890  -22.8620   21.5649 H   0  0  0  0  0  0
  -26.0446  -21.2241   21.5258 H   0  0  0  0  0  0
  -25.2229  -22.5154   20.6582 H   0  0  0  0  0  0
  -26.9170  -20.6823   17.8295 H   0  0  0  0  0  0
  -25.3636  -21.2500   18.4245 H   0  0  0  0  0  0
  -26.1488  -19.8846   19.1995 H   0  0  0  0  0  0
  -31.4656  -17.3071   20.4476 H   0  0  0  0  0  0
  -32.0028  -18.1178   21.9016 H   0  0  0  0  0  0
  -30.7033  -16.4304   23.3075 H   0  0  0  0  0  0
  -32.1277  -15.8546   22.4960 H   0  0  0  0  0  0
  -27.4897  -24.8510   20.2115 H   0  0  0  0  0  0
  -28.1146  -25.3157   18.6299 H   0  0  0  0  0  0
  -29.6924  -24.3099   21.0385 H   0  0  0  0  0  0
  -30.4728  -25.0812   19.6643 H   0  0  0  0  0  0
  -27.1428  -22.7639   19.1266 H   0  0  0  0  0  0
  -29.0944  -17.7296   21.5967 H   0  0  0  0  0  0
  -29.4902  -14.8702   22.1408 H   0  0  0  0  0  0
  1 25  1  0  0  0
  1 30  2  0  0  0
  1 85  1  0  0  0
  2  3  1  0  0  0
  2 25  1  0  0  0
  2 87  1  0  0  0
  2 88  1  0  0  0
  3  4  1  0  0  0
  3 89  1  0  0  0
  3 90  1  0  0  0
  4  5  1  0  0  0
  4 91  1  0  0  0
  4 92  1  0  0  0
  5  6  1  0  0  0
  5 26  1  0  0  0
  5 93  1  0  0  0
  6 25  1  0  0  0
  6 94  1  0  0  0
  6 95  1  0  0  0
  7  8  2  0  0  0
  7 26  1  0  0  0
  7 29  1  0  0  0
  8  9  1  0  0  0
  8 22  1  0  0  0
  9 10  1  0  0  0
  9 27  2  0  0  0
 10 11  2  0  0  0
 10 15  1  0  0  0
 11 12  1  0  0  0
 11 96  1  0  0  0
 12 13  2  0  0  0
 12 97  1  0  0  0
 13 14  1  0  0  0
 13 31  1  0  0  0
 14 15  2  0  0  0
 14 98  1  0  0  0
 15 99  1  0  0  0
 16 17  2  0  0  0
 16 21  1  0  0  0
 16 31  1  0  0  0
 17 18  1  0  0  0
 17100  1  0  0  0
 18 19  2  0  0  0
 18101  1  0  0  0
 19 20  1  0  0  0
 19 24  1  0  0  0
 20 21  2  0  0  0
 20102  1  0  0  0
 21 23  1  0  0  0
 22 28  1  0  0  0
 22 32  2  0  0  0
 26 27  1  0  0  0
 28103  1  0  0  0
 28104  1  0  0  0
 29105  1  0  0  0
 29106  1  0  0  0
 33 34  1  0  0  0
 33 66  1  0  0  0
 33 70  2  0  0  0
 34 36  1  0  0  0
 34 59  1  0  0  0
 34107  1  0  0  0
 35 44  2  0  0  0
 35 45  1  0  0  0
 35 68  1  0  0  0
 36 56  1  0  0  0
 36108  1  0  0  0
 37 39  1  0  0  0
 37 47  1  0  0  0
 37 66  1  0  0  0
 37109  1  0  0  0
 38 43  2  0  0  0
 38 46  1  0  0  0
 38 47  1  0  0  0
 39 64  1  0  0  0
 39 67  2  0  0  0
 40 52  1  0  0  0
 40 53  2  0  0  0
 40 58  1  0  0  0
 41110  1  0  0  0
 41111  1  0  0  0
 41112  1  0  0  0
 41 48  1  0  0  0
 42 43  1  0  0  0
 42 66  1  0  0  0
 42113  1  0  0  0
 42114  1  0  0  0
 43 44  1  0  0  0
 44115  1  0  0  0
 45 46  2  0  0  0
 45116  1  0  0  0
 46117  1  0  0  0
 47118  1  0  0  0
 47119  1  0  0  0
 48 56  1  0  0  0
 48 65  1  0  0  0
 48120  1  0  0  0
 49 50  1  0  0  0
 49 53  1  0  0  0
 49 64  1  0  0  0
 49121  1  0  0  0
 50 51  1  0  0  0
 50122  1  0  0  0
 50123  1  0  0  0
 51 52  1  0  0  0
 51124  1  0  0  0
 51125  1  0  0  0
 52126  1  0  0  0
 52127  1  0  0  0
 53 54  1  0  0  0
 54 55  2  0  0  0
 54128  1  0  0  0
 55 57  1  0  0  0
 55129  1  0  0  0
 56 69  2  0  0  0
 57 58  2  0  0  0
 57130  1  0  0  0
 58131  1  0  0  0
 59 60  1  0  0  0
 59 61  1  0  0  0
 59 62  1  0  0  0
 60132  1  0  0  0
 60133  1  0  0  0
 60134  1  0  0  0
 61135  1  0  0  0
 61136  1  0  0  0
 61137  1  0  0  0
 62138  1  0  0  0
 62139  1  0  0  0
 62140  1  0  0  0
 63 65  1  0  0  0
 63141  1  0  0  0
 63142  1  0  0  0
 63143  1  0  0  0
 64144  1  0  0  0
 65145  1  0  0  0
 68 81  1  0  0  0
 71 72  2  0  0  0
 71 75  1  0  0  0
 71146  1  0  0  0
 72 76  1  0  0  0
 72147  1  0  0  0
 73 74  1  0  0  0
 73 75  2  0  0  0
 73148  1  0  0  0
 74 76  2  0  0  0
 74 83  1  0  0  0
 75 84  1  0  0  0
 76 86  1  0  0  0
 77149  1  0  0  0
 77150  1  0  0  0
 77151  1  0  0  0
 77 83  1  0  0  0
 78 83  1  0  0  0
 78152  1  0  0  0
 78153  1  0  0  0
 78154  1  0  0  0
 79 80  1  0  0  0
 79 84  1  0  0  0
 79155  1  0  0  0
 79156  1  0  0  0
 80 85  1  0  0  0
 80157  1  0  0  0
 80158  1  0  0  0
 81 82  1  0  0  0
 81159  1  0  0  0
 81160  1  0  0  0
 82 86  1  0  0  0
 82161  1  0  0  0
 82162  1  0  0  0
 83163  1  0  0  0
 84164  1  0  0  0
 85165  1  0  0  0
M  ISO  4   1 100  68 101  81 101  85 100
M  END
> <chiral flag>
0

> <version>
0

> <s_m_source_file>
/data/baiqing/PycharmProjects/Reinvent-master-3.2/result/LINK_invent/BTK/process_docking_weight1_custom_sum_contain_oxygen_bond_distance_aromatic_linkinvent_7_9_3/rearranged_h_0128.sdf

> <i_m_source_file_index>
98

> <r_mmod_Potential_Energy-OPLS-2005>
-151.625854492188

> <r_mmod_Stretch_Energy-OPLS-2005>
34.3673477172852

> <r_mmod_Bend_Energy-OPLS-2005>
103.215713500977

> <r_mmod_Torsional_Energy-OPLS-2005>
227.898941040039

> <r_mmod_Improper_Torsional_Energy-OPLS-2005>
4.10256433486938

> <r_mmod_Van_der_Waal_Energy-OPLS-2005>
159.414428710938

> <r_mmod_Electrostatic_Energy-OPLS-2005>
-471.772430419922

> <r_mmod_Solvation_Energy-OPLS-2005>
-217.553009033203

> <b_mmod_Minimization_Converged-OPLS-2005>
0

> <r_mmod_RMS_Derivative-OPLS-2005>
1.00168561935425

$$$$
